
     RDKit          3D

 57 61  0  0  0  0  0  0  0  0999 V2000
  136.0420   74.5950  222.7980 O   0  0  0  0  0  0  0  0  0  0  0  0
  137.2200   74.7610  222.3420 C   0  0  0  0  0  0  0  0  0  0  0  0
  137.8180   73.6420  221.7160 N   0  0  0  0  0  0  0  0  0  0  0  0
  137.0770   72.4060  221.6350 C   0  0  0  0  0  0  0  0  0  0  0  0
  137.1490   71.6170  222.8680 C   0  0  0  0  0  0  0  0  0  0  0  0
  136.1720   71.5470  223.6700 O   0  0  0  0  0  0  0  0  0  0  0  0
  138.3520   70.9220  223.1560 N   0  0  0  0  0  0  0  0  0  0  0  0
  138.5530   69.5160  222.8280 C   0  0  0  0  0  0  0  0  0  0  0  0
  138.5580   68.7580  224.1200 C   0  0  0  0  0  0  0  0  0  0  0  0
  139.5130   69.4090  225.0670 C   0  0  0  0  0  0  0  0  0  0  0  0
  140.3240   70.5230  224.5030 C   0  0  0  0  0  0  0  0  0  0  0  0
  139.4930   71.5790  223.8130 C   0  0  1  0  0  0  0  0  0  0  0  0
  140.3530   72.1320  222.7290 C   0  0  0  0  0  0  0  0  0  0  0  0
  140.5270   73.3980  222.3320 N   0  0  0  0  0  0  0  0  0  0  0  0
  141.4100   73.4380  221.3010 C   0  0  0  0  0  0  0  0  0  0  0  0
  141.8710   74.6210  220.5840 C   0  0  0  0  0  0  0  0  0  0  0  0
  140.9390   75.5240  220.1200 C   0  0  0  0  0  0  0  0  0  0  0  0
  141.4290   76.6280  219.4460 C   0  0  0  0  0  0  0  0  0  0  0  0
  142.7900   76.8220  219.2450 C   0  0  0  0  0  0  0  0  0  0  0  0
  143.7120   75.8900  219.7260 C   0  0  0  0  0  0  0  0  0  0  0  0
  143.2240   74.7870  220.3990 C   0  0  0  0  0  0  0  0  0  0  0  0
  141.7680   72.1250  221.0890 C   0  0  0  0  0  0  0  0  0  0  0  0
  141.1190   71.3910  221.9560 O   0  0  0  0  0  0  0  0  0  0  0  0
  137.9190   76.0370  222.4560 C   0  0  0  0  0  0  0  0  0  0  0  0
  137.1440   77.1970  222.4300 C   0  0  0  0  0  0  0  0  0  0  0  0
  137.7110   78.4550  222.5320 C   0  0  0  0  0  0  0  0  0  0  0  0
  139.0840   78.5060  222.6600 C   0  0  0  0  0  0  0  0  0  0  0  0
  139.6720   79.7530  222.7640 C   0  0  0  0  0  0  0  0  0  0  0  0
  141.0600   79.8550  222.8950 C   0  0  0  0  0  0  0  0  0  0  0  0
  141.7900   81.4380  223.0240 Cl  0  0  0  0  0  0  0  0  0  0  0  0
  141.8060   78.6860  222.9180 C   0  0  0  0  0  0  0  0  0  0  0  0
  141.2010   77.4380  222.8130 C   0  0  0  0  0  0  0  0  0  0  0  0
  139.8290   77.3310  222.6830 C   0  0  0  0  0  0  0  0  0  0  0  0
  139.2480   76.1230  222.5820 N   0  0  0  0  0  0  0  0  0  0  0  0
  138.7920   73.7610  221.3340 H   0  0  0  0  0  0  0  0  0  0  0  0
  136.0223   72.6417  221.4300 H   0  0  0  0  0  0  0  0  0  0  0  0
  137.5252   71.8040  220.8308 H   0  0  0  0  0  0  0  0  0  0  0  0
  137.7360   69.1584  222.1840 H   0  0  0  0  0  0  0  0  0  0  0  0
  139.4995   69.3721  222.2863 H   0  0  0  0  0  0  0  0  0  0  0  0
  137.5474   68.7642  224.5542 H   0  0  0  0  0  0  0  0  0  0  0  0
  138.8685   67.7186  223.9378 H   0  0  0  0  0  0  0  0  0  0  0  0
  138.9321   69.8080  225.9116 H   0  0  0  0  0  0  0  0  0  0  0  0
  140.2335   68.6275  225.3503 H   0  0  0  0  0  0  0  0  0  0  0  0
  140.8816   70.9987  225.3233 H   0  0  0  0  0  0  0  0  0  0  0  0
  140.9916   70.0878  223.7448 H   0  0  0  0  0  0  0  0  0  0  0  0
  139.1451   72.3447  224.5220 H   0  0  0  0  0  0  0  0  0  0  0  0
  139.8607   75.3744  220.2776 H   0  0  0  0  0  0  0  0  0  0  0  0
  140.7203   77.3743  219.0577 H   0  0  0  0  0  0  0  0  0  0  0  0
  143.1426   77.7131  218.7049 H   0  0  0  0  0  0  0  0  0  0  0  0
  144.7924   76.0298  219.5738 H   0  0  0  0  0  0  0  0  0  0  0  0
  143.9239   74.0342  220.7908 H   0  0  0  0  0  0  0  0  0  0  0  0
  142.4728   71.7593  220.3277 H   0  0  0  0  0  0  0  0  0  0  0  0
  136.0525   77.1090  222.3256 H   0  0  0  0  0  0  0  0  0  0  0  0
  137.0982   79.3683  222.5121 H   0  0  0  0  0  0  0  0  0  0  0  0
  139.0506   80.6605  222.7438 H   0  0  0  0  0  0  0  0  0  0  0  0
  142.8994   78.7471  223.0215 H   0  0  0  0  0  0  0  0  0  0  0  0
  141.8195   76.5286  222.8336 H   0  0  0  0  0  0  0  0  0  0  0  0
  1  2  2  0
  2  3  1  0
  3  4  1  0
  4  5  1  0
  5  6  2  0
  5  7  1  0
  7  8  1  0
  8  9  1  0
  9 10  1  0
 10 11  1  0
 11 12  1  0
 12 13  1  0
 13 14  2  0
 14 15  1  0
 15 16  1  0
 16 17  2  0
 17 18  1  0
 18 19  2  0
 19 20  1  0
 20 21  2  0
 15 22  2  0
 22 23  1  0
  2 24  1  0
 24 25  2  0
 25 26  1  0
 26 27  2  0
 27 28  1  0
 28 29  2  0
 29 30  1  0
 29 31  1  0
 31 32  2  0
 32 33  1  0
 33 34  2  0
 12  7  1  0
 23 13  1  0
 34 24  1  0
 21 16  1  0
 33 27  1  0
  3 35  1  0
  4 36  1  0
  4 37  1  0
  8 38  1  0
  8 39  1  0
  9 40  1  0
  9 41  1  0
 10 42  1  0
 10 43  1  0
 11 44  1  0
 11 45  1  0
 12 46  1  1
 17 47  1  0
 18 48  1  0
 19 49  1  0
 20 50  1  0
 21 51  1  0
 22 52  1  0
 25 53  1  0
 26 54  1  0
 28 55  1  0
 31 56  1  0
 32 57  1  0
M  END
>  <smiles>  (1) 
O=C(NCC(=O)N1CCCC[C@H]1c1nc(-c2ccccc2)co1)c1ccc2cc(Cl)ccc2n1

>  <score_type>  (1) 
oracle

>  <origin>  (1) 
autodockgpu

>  <m_score__min__energy>  (1) 
-9.2699999999999996

>  <m_primary>  (1) 
energy

>  <rmsd>  (1) 
7.722130046304605

>  <m_score__min__rmsd>  (1) 
7.722130046304605

>  <meeko>  (1) 
{"free_energy": -7.39, "intermolecular_energy": -9.18, "internal_energy": -3.88, "cluster_size": 15, "cluster_id": 4, "rank_in_cluster": 13}

>  <energy>  (1) 
-9.27

>  <cluster_rmsd>  (1) 
0.0

>  <cluster>  (1) 
1

$$$$

     RDKit          3D

 57 61  0  0  0  0  0  0  0  0999 V2000
  138.4080   70.8410  220.7430 O   0  0  0  0  0  0  0  0  0  0  0  0
  138.6710   71.4610  221.8230 C   0  0  0  0  0  0  0  0  0  0  0  0
  138.5810   72.8720  221.7790 N   0  0  0  0  0  0  0  0  0  0  0  0
  138.2070   73.5110  220.5400 C   0  0  0  0  0  0  0  0  0  0  0  0
  139.1980   73.3150  219.4780 C   0  0  0  0  0  0  0  0  0  0  0  0
  138.9390   72.6280  218.4450 O   0  0  0  0  0  0  0  0  0  0  0  0
  140.4740   73.9170  219.6250 N   0  0  0  0  0  0  0  0  0  0  0  0
  141.1940   74.5320  218.5170 C   0  0  0  0  0  0  0  0  0  0  0  0
  142.3580   73.6440  218.2010 C   0  0  0  0  0  0  0  0  0  0  0  0
  143.1090   73.3510  219.4590 C   0  0  0  0  0  0  0  0  0  0  0  0
  142.6530   74.0870  220.6700 C   0  0  0  0  0  0  0  0  0  0  0  0
  141.1680   73.9620  220.9220 C   0  0  1  0  0  0  0  0  0  0  0  0
  140.7570   75.2310  221.5860 C   0  0  0  0  0  0  0  0  0  0  0  0
  141.4160   76.3890  221.7100 N   0  0  0  0  0  0  0  0  0  0  0  0
  140.6540   77.2800  222.3940 C   0  0  0  0  0  0  0  0  0  0  0  0
  141.0040   78.6510  222.7420 C   0  0  0  0  0  0  0  0  0  0  0  0
  142.3180   79.0510  222.6370 C   0  0  0  0  0  0  0  0  0  0  0  0
  142.5960   80.3630  222.9790 C   0  0  0  0  0  0  0  0  0  0  0  0
  141.6040   81.2360  223.4070 C   0  0  0  0  0  0  0  0  0  0  0  0
  140.2800   80.8030  223.5050 C   0  0  0  0  0  0  0  0  0  0  0  0
  140.0010   79.4950  223.1630 C   0  0  0  0  0  0  0  0  0  0  0  0
  139.4900   76.6030  222.6830 C   0  0  0  0  0  0  0  0  0  0  0  0
  139.5970   75.3980  222.1850 O   0  0  0  0  0  0  0  0  0  0  0  0
  139.0450   70.7570  223.0460 C   0  0  0  0  0  0  0  0  0  0  0  0
  138.6530   69.4240  223.1640 C   0  0  0  0  0  0  0  0  0  0  0  0
  138.9590   68.6700  224.2830 C   0  0  0  0  0  0  0  0  0  0  0  0
  139.6720   69.3040  225.2800 C   0  0  0  0  0  0  0  0  0  0  0  0
  139.9890   68.5690  226.4070 C   0  0  0  0  0  0  0  0  0  0  0  0
  140.7100   69.1680  227.4440 C   0  0  0  0  0  0  0  0  0  0  0  0
  141.1030   68.2270  228.8640 Cl  0  0  0  0  0  0  0  0  0  0  0  0
  141.0880   70.4950  227.3010 C   0  0  0  0  0  0  0  0  0  0  0  0
  140.7620   71.2220  226.1610 C   0  0  0  0  0  0  0  0  0  0  0  0
  140.0490   70.6350  225.1320 C   0  0  0  0  0  0  0  0  0  0  0  0
  139.7360   71.3410  224.0320 N   0  0  0  0  0  0  0  0  0  0  0  0
  138.7950   73.4020  222.6640 H   0  0  0  0  0  0  0  0  0  0  0  0
  137.2460   73.0934  220.2053 H   0  0  0  0  0  0  0  0  0  0  0  0
  138.1374   74.5918  220.7326 H   0  0  0  0  0  0  0  0  0  0  0  0
  140.5354   74.6172  217.6400 H   0  0  0  0  0  0  0  0  0  0  0  0
  141.5344   75.5432  218.7845 H   0  0  0  0  0  0  0  0  0  0  0  0
  141.9944   72.7032  217.7621 H   0  0  0  0  0  0  0  0  0  0  0  0
  143.0223   74.1473  217.4831 H   0  0  0  0  0  0  0  0  0  0  0  0
  143.0178   72.2741  219.6639 H   0  0  0  0  0  0  0  0  0  0  0  0
  144.1411   73.6849  219.2764 H   0  0  0  0  0  0  0  0  0  0  0  0
  143.1901   73.6887  221.5434 H   0  0  0  0  0  0  0  0  0  0  0  0
  142.8664   75.1531  220.5028 H   0  0  0  0  0  0  0  0  0  0  0  0
  140.9353   73.0674  221.5183 H   0  0  0  0  0  0  0  0  0  0  0  0
  143.1063   78.3626  222.2985 H   0  0  0  0  0  0  0  0  0  0  0  0
  143.6325   80.7248  222.9099 H   0  0  0  0  0  0  0  0  0  0  0  0
  141.8623   82.2724  223.6698 H   0  0  0  0  0  0  0  0  0  0  0  0
  139.4844   81.4828  223.8441 H   0  0  0  0  0  0  0  0  0  0  0  0
  138.9676   79.1236  223.2274 H   0  0  0  0  0  0  0  0  0  0  0  0
  138.6259   77.0034  223.2335 H   0  0  0  0  0  0  0  0  0  0  0  0
  138.0848   68.9591  222.3448 H   0  0  0  0  0  0  0  0  0  0  0  0
  138.6496   67.6183  224.3734 H   0  0  0  0  0  0  0  0  0  0  0  0
  139.6754   67.5177  226.4874 H   0  0  0  0  0  0  0  0  0  0  0  0
  141.6575   70.9825  228.1060 H   0  0  0  0  0  0  0  0  0  0  0  0
  141.0742   72.2734  226.0773 H   0  0  0  0  0  0  0  0  0  0  0  0
  1  2  2  0
  2  3  1  0
  3  4  1  0
  4  5  1  0
  5  6  2  0
  5  7  1  0
  7  8  1  0
  8  9  1  0
  9 10  1  0
 10 11  1  0
 11 12  1  0
 12 13  1  0
 13 14  2  0
 14 15  1  0
 15 16  1  0
 16 17  2  0
 17 18  1  0
 18 19  2  0
 19 20  1  0
 20 21  2  0
 15 22  2  0
 22 23  1  0
  2 24  1  0
 24 25  2  0
 25 26  1  0
 26 27  2  0
 27 28  1  0
 28 29  2  0
 29 30  1  0
 29 31  1  0
 31 32  2  0
 32 33  1  0
 33 34  2  0
 12  7  1  0
 23 13  1  0
 34 24  1  0
 21 16  1  0
 33 27  1  0
  3 35  1  0
  4 36  1  0
  4 37  1  0
  8 38  1  0
  8 39  1  0
  9 40  1  0
  9 41  1  0
 10 42  1  0
 10 43  1  0
 11 44  1  0
 11 45  1  0
 12 46  1  1
 17 47  1  0
 18 48  1  0
 19 49  1  0
 20 50  1  0
 21 51  1  0
 22 52  1  0
 25 53  1  0
 26 54  1  0
 28 55  1  0
 31 56  1  0
 32 57  1  0
M  END
>  <smiles>  (2) 
O=C(NCC(=O)N1CCCC[C@H]1c1nc(-c2ccccc2)co1)c1ccc2cc(Cl)ccc2n1

>  <score_type>  (2) 
oracle

>  <origin>  (2) 
autodockgpu

>  <m_score__min__energy>  (2) 
-9.2699999999999996

>  <m_primary>  (2) 
energy

>  <rmsd>  (2) 
2.856715592417038

>  <m_score__min__rmsd>  (2) 
2.856715592417038

>  <meeko>  (2) 
{"free_energy": -8.99, "intermolecular_energy": -10.78, "internal_energy": -2.64, "cluster_size": 13, "cluster_id": 1, "rank_in_cluster": 7}

>  <energy>  (2) 
-9.17

>  <cluster_rmsd>  (2) 
0.18

>  <cluster>  (2) 
1

$$$$

     RDKit          3D

 57 61  0  0  0  0  0  0  0  0999 V2000
  135.4690   75.0130  222.4450 O   0  0  0  0  0  0  0  0  0  0  0  0
  136.7370   74.9770  222.5590 C   0  0  0  0  0  0  0  0  0  0  0  0
  137.3280   73.6940  222.6290 N   0  0  0  0  0  0  0  0  0  0  0  0
  136.4800   72.5280  222.5700 C   0  0  0  0  0  0  0  0  0  0  0  0
  137.1270   71.3870  221.9150 C   0  0  0  0  0  0  0  0  0  0  0  0
  136.6770   70.8940  220.8390 O   0  0  0  0  0  0  0  0  0  0  0  0
  138.2870   70.8320  222.5170 N   0  0  0  0  0  0  0  0  0  0  0  0
  138.6800   69.4400  222.3440 C   0  0  0  0  0  0  0  0  0  0  0  0
  138.4520   68.7520  223.6550 C   0  0  0  0  0  0  0  0  0  0  0  0
  139.1000   69.5430  224.7450 C   0  0  0  0  0  0  0  0  0  0  0  0
  139.9200   70.7040  224.3010 C   0  0  0  0  0  0  0  0  0  0  0  0
  139.1820   71.6340  223.3660 C   0  0  1  0  0  0  0  0  0  0  0  0
  140.2180   72.2180  222.4680 C   0  0  0  0  0  0  0  0  0  0  0  0
  140.3640   73.4710  222.0240 N   0  0  0  0  0  0  0  0  0  0  0  0
  141.4570   73.5510  221.2230 C   0  0  0  0  0  0  0  0  0  0  0  0
  141.9620   74.7360  220.5410 C   0  0  0  0  0  0  0  0  0  0  0  0
  143.3220   74.8810  220.3770 C   0  0  0  0  0  0  0  0  0  0  0  0
  143.7500   76.0240  219.7240 C   0  0  0  0  0  0  0  0  0  0  0  0
  142.8560   76.9780  219.2540 C   0  0  0  0  0  0  0  0  0  0  0  0
  141.4820   76.8050  219.4330 C   0  0  0  0  0  0  0  0  0  0  0  0
  141.0550   75.6650  220.0850 C   0  0  0  0  0  0  0  0  0  0  0  0
  141.9740   72.2750  221.2010 C   0  0  0  0  0  0  0  0  0  0  0  0
  141.2100   71.5230  221.9500 O   0  0  0  0  0  0  0  0  0  0  0  0
  137.5410   76.1940  222.6140 C   0  0  0  0  0  0  0  0  0  0  0  0
  136.8610   77.4120  222.6360 C   0  0  0  0  0  0  0  0  0  0  0  0
  137.5320   78.6210  222.6890 C   0  0  0  0  0  0  0  0  0  0  0  0
  138.9100   78.5620  222.7180 C   0  0  0  0  0  0  0  0  0  0  0  0
  139.6010   79.7580  222.7710 C   0  0  0  0  0  0  0  0  0  0  0  0
  140.9990   79.7500  222.8020 C   0  0  0  0  0  0  0  0  0  0  0  0
  141.8600   81.2700  222.8680 Cl  0  0  0  0  0  0  0  0  0  0  0  0
  141.6500   78.5250  222.7790 C   0  0  0  0  0  0  0  0  0  0  0  0
  140.9420   77.3290  222.7260 C   0  0  0  0  0  0  0  0  0  0  0  0
  139.5590   77.3310  222.6950 C   0  0  0  0  0  0  0  0  0  0  0  0
  138.8780   76.1740  222.6440 N   0  0  0  0  0  0  0  0  0  0  0  0
  138.3760   73.6460  222.7240 H   0  0  0  0  0  0  0  0  0  0  0  0
  136.2102   72.2375  223.5961 H   0  0  0  0  0  0  0  0  0  0  0  0
  135.5940   72.7929  221.9743 H   0  0  0  0  0  0  0  0  0  0  0  0
  138.0685   68.9699  221.5597 H   0  0  0  0  0  0  0  0  0  0  0  0
  139.7348   69.3656  222.0409 H   0  0  0  0  0  0  0  0  0  0  0  0
  137.3717   68.6765  223.8478 H   0  0  0  0  0  0  0  0  0  0  0  0
  138.8871   67.7422  223.6227 H   0  0  0  0  0  0  0  0  0  0  0  0
  138.3060   69.9228  225.4047 H   0  0  0  0  0  0  0  0  0  0  0  0
  139.7999   68.8537  225.2400 H   0  0  0  0  0  0  0  0  0  0  0  0
  140.2278   71.2744  225.1898 H   0  0  0  0  0  0  0  0  0  0  0  0
  140.7816   70.3020  223.7478 H   0  0  0  0  0  0  0  0  0  0  0  0
  138.6129   72.3944  223.9209 H   0  0  0  0  0  0  0  0  0  0  0  0
  144.0321   74.1265  220.7464 H   0  0  0  0  0  0  0  0  0  0  0  0
  144.8282   76.1814  219.5730 H   0  0  0  0  0  0  0  0  0  0  0  0
  143.2323   77.8738  218.7384 H   0  0  0  0  0  0  0  0  0  0  0  0
  140.7631   77.5525  219.0665 H   0  0  0  0  0  0  0  0  0  0  0  0
  139.9791   75.4979  220.2414 H   0  0  0  0  0  0  0  0  0  0  0  0
  142.8690   71.9470  220.6520 H   0  0  0  0  0  0  0  0  0  0  0  0
  135.7613   77.4112  222.6105 H   0  0  0  0  0  0  0  0  0  0  0  0
  136.9940   79.5803  222.7071 H   0  0  0  0  0  0  0  0  0  0  0  0
  139.0535   80.7119  222.7887 H   0  0  0  0  0  0  0  0  0  0  0  0
  142.7494   78.4991  222.8032 H   0  0  0  0  0  0  0  0  0  0  0  0
  141.4864   76.3733  222.7086 H   0  0  0  0  0  0  0  0  0  0  0  0
  1  2  2  0
  2  3  1  0
  3  4  1  0
  4  5  1  0
  5  6  2  0
  5  7  1  0
  7  8  1  0
  8  9  1  0
  9 10  1  0
 10 11  1  0
 11 12  1  0
 12 13  1  0
 13 14  2  0
 14 15  1  0
 15 16  1  0
 16 17  2  0
 17 18  1  0
 18 19  2  0
 19 20  1  0
 20 21  2  0
 15 22  2  0
 22 23  1  0
  2 24  1  0
 24 25  2  0
 25 26  1  0
 26 27  2  0
 27 28  1  0
 28 29  2  0
 29 30  1  0
 29 31  1  0
 31 32  2  0
 32 33  1  0
 33 34  2  0
 12  7  1  0
 23 13  1  0
 34 24  1  0
 21 16  1  0
 33 27  1  0
  3 35  1  0
  4 36  1  0
  4 37  1  0
  8 38  1  0
  8 39  1  0
  9 40  1  0
  9 41  1  0
 10 42  1  0
 10 43  1  0
 11 44  1  0
 11 45  1  0
 12 46  1  1
 17 47  1  0
 18 48  1  0
 19 49  1  0
 20 50  1  0
 21 51  1  0
 22 52  1  0
 25 53  1  0
 26 54  1  0
 28 55  1  0
 31 56  1  0
 32 57  1  0
M  END
>  <smiles>  (3) 
O=C(NCC(=O)N1CCCC[C@H]1c1nc(-c2ccccc2)co1)c1ccc2cc(Cl)ccc2n1

>  <score_type>  (3) 
oracle

>  <origin>  (3) 
autodockgpu

>  <m_score__min__energy>  (3) 
-9.2699999999999996

>  <m_primary>  (3) 
energy

>  <rmsd>  (3) 
7.700530971263808

>  <m_score__min__rmsd>  (3) 
7.700530971263808

>  <meeko>  (3) 
{"free_energy": -7.39, "intermolecular_energy": -9.18, "internal_energy": -3.61, "cluster_size": 15, "cluster_id": 4, "rank_in_cluster": 14}

>  <energy>  (3) 
-9.09

>  <cluster_rmsd>  (3) 
0.93

>  <cluster>  (3) 
1

$$$$

     RDKit          3D

 57 61  0  0  0  0  0  0  0  0999 V2000
  138.2080   70.8420  221.1920 O   0  0  0  0  0  0  0  0  0  0  0  0
  138.1710   71.3450  222.3620 C   0  0  0  0  0  0  0  0  0  0  0  0
  137.5840   72.6270  222.4790 N   0  0  0  0  0  0  0  0  0  0  0  0
  137.0750   73.2740  221.2940 C   0  0  0  0  0  0  0  0  0  0  0  0
  137.9310   74.3720  220.8330 C   0  0  0  0  0  0  0  0  0  0  0  0
  137.4790   75.5430  220.6660 O   0  0  0  0  0  0  0  0  0  0  0  0
  139.2990   74.0980  220.5730 N   0  0  0  0  0  0  0  0  0  0  0  0
  139.7880   73.6710  219.2690 C   0  0  0  0  0  0  0  0  0  0  0  0
  140.1860   72.2320  219.3960 C   0  0  0  0  0  0  0  0  0  0  0  0
  141.0870   72.0750  220.5780 C   0  0  0  0  0  0  0  0  0  0  0  0
  141.4960   73.3380  221.2520 C   0  0  0  0  0  0  0  0  0  0  0  0
  140.3300   74.2270  221.6160 C   0  0  1  0  0  0  0  0  0  0  0  0
  140.8430   75.6250  221.5430 C   0  0  0  0  0  0  0  0  0  0  0  0
  140.8590   76.5840  222.4740 N   0  0  0  0  0  0  0  0  0  0  0  0
  141.4260   77.7080  221.9660 C   0  0  0  0  0  0  0  0  0  0  0  0
  141.6320   78.9760  222.6540 C   0  0  0  0  0  0  0  0  0  0  0  0
  140.5340   79.6810  223.0980 C   0  0  0  0  0  0  0  0  0  0  0  0
  140.7860   80.8790  223.7440 C   0  0  0  0  0  0  0  0  0  0  0  0
  142.0780   81.3510  223.9380 C   0  0  0  0  0  0  0  0  0  0  0  0
  143.1720   80.6160  223.4770 C   0  0  0  0  0  0  0  0  0  0  0  0
  142.9230   79.4210  222.8330 C   0  0  0  0  0  0  0  0  0  0  0  0
  141.7580   77.3830  220.6700 C   0  0  0  0  0  0  0  0  0  0  0  0
  141.3950   76.1430  220.4650 O   0  0  0  0  0  0  0  0  0  0  0  0
  138.7040   70.6390  223.5230 C   0  0  0  0  0  0  0  0  0  0  0  0
  138.4650   69.2670  223.6050 C   0  0  0  0  0  0  0  0  0  0  0  0
  138.9290   68.5090  224.6650 C   0  0  0  0  0  0  0  0  0  0  0  0
  139.6400   69.1780  225.6400 C   0  0  0  0  0  0  0  0  0  0  0  0
  140.1130   68.4390  226.7080 C   0  0  0  0  0  0  0  0  0  0  0  0
  140.8390   69.0730  227.7220 C   0  0  0  0  0  0  0  0  0  0  0  0
  141.4290   68.1270  229.0670 Cl  0  0  0  0  0  0  0  0  0  0  0  0
  141.0620   70.4380  227.6150 C   0  0  0  0  0  0  0  0  0  0  0  0
  140.5800   71.1690  226.5340 C   0  0  0  0  0  0  0  0  0  0  0  0
  139.8610   70.5470  225.5290 C   0  0  0  0  0  0  0  0  0  0  0  0
  139.3970   71.2570  224.4860 N   0  0  0  0  0  0  0  0  0  0  0  0
  137.5450   73.0590  223.4390 H   0  0  0  0  0  0  0  0  0  0  0  0
  136.9993   72.5265  220.4906 H   0  0  0  0  0  0  0  0  0  0  0  0
  136.0941   73.7029  221.5466 H   0  0  0  0  0  0  0  0  0  0  0  0
  138.9941   73.7776  218.5151 H   0  0  0  0  0  0  0  0  0  0  0  0
  140.6425   74.2865  218.9511 H   0  0  0  0  0  0  0  0  0  0  0  0
  139.2876   71.6123  219.5331 H   0  0  0  0  0  0  0  0  0  0  0  0
  140.7121   71.9117  218.4846 H   0  0  0  0  0  0  0  0  0  0  0  0
  140.5665   71.4502  221.3187 H   0  0  0  0  0  0  0  0  0  0  0  0
  142.0146   71.6289  220.1900 H   0  0  0  0  0  0  0  0  0  0  0  0
  142.0402   73.0817  222.1730 H   0  0  0  0  0  0  0  0  0  0  0  0
  142.1225   73.8976  220.5418 H   0  0  0  0  0  0  0  0  0  0  0  0
  139.9191   73.9684  222.6031 H   0  0  0  0  0  0  0  0  0  0  0  0
  139.5094   79.3104  222.9467 H   0  0  0  0  0  0  0  0  0  0  0  0
  139.9386   81.4745  224.1145 H   0  0  0  0  0  0  0  0  0  0  0  0
  142.2398   82.3074  224.4568 H   0  0  0  0  0  0  0  0  0  0  0  0
  144.2004   80.9782  223.6226 H   0  0  0  0  0  0  0  0  0  0  0  0
  143.7637   78.8182  222.4591 H   0  0  0  0  0  0  0  0  0  0  0  0
  142.2416   78.0468  219.9383 H   0  0  0  0  0  0  0  0  0  0  0  0
  137.8922   68.7747  222.8053 H   0  0  0  0  0  0  0  0  0  0  0  0
  138.7406   67.4271  224.7275 H   0  0  0  0  0  0  0  0  0  0  0  0
  139.9195   67.3574  226.7604 H   0  0  0  0  0  0  0  0  0  0  0  0
  141.6322   70.9535  228.4019 H   0  0  0  0  0  0  0  0  0  0  0  0
  140.7722   72.2506  226.4778 H   0  0  0  0  0  0  0  0  0  0  0  0
  1  2  2  0
  2  3  1  0
  3  4  1  0
  4  5  1  0
  5  6  2  0
  5  7  1  0
  7  8  1  0
  8  9  1  0
  9 10  1  0
 10 11  1  0
 11 12  1  0
 12 13  1  0
 13 14  2  0
 14 15  1  0
 15 16  1  0
 16 17  2  0
 17 18  1  0
 18 19  2  0
 19 20  1  0
 20 21  2  0
 15 22  2  0
 22 23  1  0
  2 24  1  0
 24 25  2  0
 25 26  1  0
 26 27  2  0
 27 28  1  0
 28 29  2  0
 29 30  1  0
 29 31  1  0
 31 32  2  0
 32 33  1  0
 33 34  2  0
 12  7  1  0
 23 13  1  0
 34 24  1  0
 21 16  1  0
 33 27  1  0
  3 35  1  0
  4 36  1  0
  4 37  1  0
  8 38  1  0
  8 39  1  0
  9 40  1  0
  9 41  1  0
 10 42  1  0
 10 43  1  0
 11 44  1  0
 11 45  1  0
 12 46  1  1
 17 47  1  0
 18 48  1  0
 19 49  1  0
 20 50  1  0
 21 51  1  0
 22 52  1  0
 25 53  1  0
 26 54  1  0
 28 55  1  0
 31 56  1  0
 32 57  1  0
M  END
>  <smiles>  (4) 
O=C(NCC(=O)N1CCCC[C@H]1c1nc(-c2ccccc2)co1)c1ccc2cc(Cl)ccc2n1

>  <score_type>  (4) 
oracle

>  <origin>  (4) 
autodockgpu

>  <m_score__min__energy>  (4) 
-9.2699999999999996

>  <m_primary>  (4) 
energy

>  <rmsd>  (4) 
2.814198018573316

>  <m_score__min__rmsd>  (4) 
2.814198018573316

>  <meeko>  (4) 
{"free_energy": -9.04, "intermolecular_energy": -10.83, "internal_energy": -2.32, "cluster_size": 13, "cluster_id": 1, "rank_in_cluster": 4}

>  <energy>  (4) 
-9.04

>  <cluster_rmsd>  (4) 
1.26

>  <cluster>  (4) 
1

$$$$

     RDKit          3D

 57 61  0  0  0  0  0  0  0  0999 V2000
  140.2430   73.9930  221.8410 O   0  0  0  0  0  0  0  0  0  0  0  0
  140.5800   75.2150  221.7180 C   0  0  0  0  0  0  0  0  0  0  0  0
  141.8710   75.4640  221.1970 N   0  0  0  0  0  0  0  0  0  0  0  0
  142.7120   74.3450  220.8450 C   0  0  0  0  0  0  0  0  0  0  0  0
  143.0610   74.3220  219.4220 C   0  0  0  0  0  0  0  0  0  0  0  0
  144.1190   73.7630  219.0060 O   0  0  0  0  0  0  0  0  0  0  0  0
  142.1820   74.9480  218.5000 N   0  0  0  0  0  0  0  0  0  0  0  0
  140.9060   74.3670  218.1030 C   0  0  0  0  0  0  0  0  0  0  0  0
  141.0490   73.9190  216.6810 C   0  0  0  0  0  0  0  0  0  0  0  0
  141.6020   75.0430  215.8650 C   0  0  0  0  0  0  0  0  0  0  0  0
  141.7440   76.3460  216.5720 C   0  0  0  0  0  0  0  0  0  0  0  0
  142.5020   76.2410  217.8740 C   0  0  1  0  0  0  0  0  0  0  0  0
  141.9410   77.2980  218.7610 C   0  0  0  0  0  0  0  0  0  0  0  0
  142.5120   77.9660  219.7700 N   0  0  0  0  0  0  0  0  0  0  0  0
  141.6230   78.8450  220.3000 C   0  0  0  0  0  0  0  0  0  0  0  0
  141.8480   79.7600  221.4120 C   0  0  0  0  0  0  0  0  0  0  0  0
  142.6300   79.3450  222.4690 C   0  0  0  0  0  0  0  0  0  0  0  0
  142.8110   80.2520  223.4990 C   0  0  0  0  0  0  0  0  0  0  0  0
  142.2380   81.5170  223.4730 C   0  0  0  0  0  0  0  0  0  0  0  0
  141.4500   81.9100  222.3890 C   0  0  0  0  0  0  0  0  0  0  0  0
  141.2680   81.0070  221.3610 C   0  0  0  0  0  0  0  0  0  0  0  0
  140.4740   78.6790  219.5590 C   0  0  0  0  0  0  0  0  0  0  0  0
  140.7100   77.7560  218.6620 O   0  0  0  0  0  0  0  0  0  0  0  0
  139.6830   76.3040  222.0930 C   0  0  0  0  0  0  0  0  0  0  0  0
  138.3470   76.1960  221.7080 C   0  0  0  0  0  0  0  0  0  0  0  0
  137.4180   77.1750  222.0160 C   0  0  0  0  0  0  0  0  0  0  0  0
  137.8800   78.2650  222.7240 C   0  0  0  0  0  0  0  0  0  0  0  0
  136.9700   79.2550  223.0420 C   0  0  0  0  0  0  0  0  0  0  0  0
  137.3910   80.3800  223.7580 C   0  0  0  0  0  0  0  0  0  0  0  0
  136.2280   81.6240  224.1530 Cl  0  0  0  0  0  0  0  0  0  0  0  0
  138.7250   80.4610  224.1290 C   0  0  0  0  0  0  0  0  0  0  0  0
  139.6310   79.4580  223.8020 C   0  0  0  0  0  0  0  0  0  0  0  0
  139.2200   78.3430  223.0930 C   0  0  0  0  0  0  0  0  0  0  0  0
  140.0980   77.3750  222.7790 N   0  0  0  0  0  0  0  0  0  0  0  0
  142.1670   76.4690  221.0890 H   0  0  0  0  0  0  0  0  0  0  0  0
  143.6396   74.4038  221.4334 H   0  0  0  0  0  0  0  0  0  0  0  0
  142.1482   73.4259  221.0624 H   0  0  0  0  0  0  0  0  0  0  0  0
  140.6660   73.5080  218.7468 H   0  0  0  0  0  0  0  0  0  0  0  0
  140.0936   75.1020  218.2019 H   0  0  0  0  0  0  0  0  0  0  0  0
  141.7327   73.0586  216.6333 H   0  0  0  0  0  0  0  0  0  0  0  0
  140.0658   73.6241  216.2857 H   0  0  0  0  0  0  0  0  0  0  0  0
  142.5978   74.7426  215.5070 H   0  0  0  0  0  0  0  0  0  0  0  0
  140.8721   75.2166  215.0606 H   0  0  0  0  0  0  0  0  0  0  0  0
  142.2792   77.0446  215.9120 H   0  0  0  0  0  0  0  0  0  0  0  0
  140.7299   76.6973  216.8134 H   0  0  0  0  0  0  0  0  0  0  0  0
  143.5863   76.3393  217.7170 H   0  0  0  0  0  0  0  0  0  0  0  0
  143.0866   78.3445  222.4926 H   0  0  0  0  0  0  0  0  0  0  0  0
  143.4267   79.9624  224.3634 H   0  0  0  0  0  0  0  0  0  0  0  0
  142.4055   82.2118  224.3092 H   0  0  0  0  0  0  0  0  0  0  0  0
  140.9887   82.9081  222.3555 H   0  0  0  0  0  0  0  0  0  0  0  0
  140.6535   81.2868  220.4926 H   0  0  0  0  0  0  0  0  0  0  0  0
  139.5285   79.2240  219.6964 H   0  0  0  0  0  0  0  0  0  0  0  0
  138.0226   75.3089  221.1443 H   0  0  0  0  0  0  0  0  0  0  0  0
  136.3646   77.0881  221.7115 H   0  0  0  0  0  0  0  0  0  0  0  0
  135.9187   79.1586  222.7332 H   0  0  0  0  0  0  0  0  0  0  0  0
  139.0739   81.3378  224.6942 H   0  0  0  0  0  0  0  0  0  0  0  0
  140.6830   79.5517  224.1095 H   0  0  0  0  0  0  0  0  0  0  0  0
  1  2  2  0
  2  3  1  0
  3  4  1  0
  4  5  1  0
  5  6  2  0
  5  7  1  0
  7  8  1  0
  8  9  1  0
  9 10  1  0
 10 11  1  0
 11 12  1  0
 12 13  1  0
 13 14  2  0
 14 15  1  0
 15 16  1  0
 16 17  2  0
 17 18  1  0
 18 19  2  0
 19 20  1  0
 20 21  2  0
 15 22  2  0
 22 23  1  0
  2 24  1  0
 24 25  2  0
 25 26  1  0
 26 27  2  0
 27 28  1  0
 28 29  2  0
 29 30  1  0
 29 31  1  0
 31 32  2  0
 32 33  1  0
 33 34  2  0
 12  7  1  0
 23 13  1  0
 34 24  1  0
 21 16  1  0
 33 27  1  0
  3 35  1  0
  4 36  1  0
  4 37  1  0
  8 38  1  0
  8 39  1  0
  9 40  1  0
  9 41  1  0
 10 42  1  0
 10 43  1  0
 11 44  1  0
 11 45  1  0
 12 46  1  6
 17 47  1  0
 18 48  1  0
 19 49  1  0
 20 50  1  0
 21 51  1  0
 22 52  1  0
 25 53  1  0
 26 54  1  0
 28 55  1  0
 31 56  1  0
 32 57  1  0
M  END
>  <smiles>  (5) 
O=C(NCC(=O)N1CCCC[C@H]1c1nc(-c2ccccc2)co1)c1ccc2cc(Cl)ccc2n1

>  <score_type>  (5) 
oracle

>  <origin>  (5) 
autodockgpu

>  <m_score__min__energy>  (5) 
-9.2699999999999996

>  <m_primary>  (5) 
energy

>  <rmsd>  (5) 
6.011163384602822

>  <m_score__min__rmsd>  (5) 
6.011163384602822

>  <meeko>  (5) 
{"free_energy": -6.82, "intermolecular_energy": -8.61, "internal_energy": -4.36, "cluster_size": 6, "cluster_id": 8, "rank_in_cluster": 3}

>  <energy>  (5) 
-9.02

>  <cluster_rmsd>  (5) 
0.62

>  <cluster>  (5) 
1

$$$$

     RDKit          3D

 57 61  0  0  0  0  0  0  0  0999 V2000
  139.9570   74.6090  222.2270 O   0  0  0  0  0  0  0  0  0  0  0  0
  141.0490   74.8330  221.6120 C   0  0  0  0  0  0  0  0  0  0  0  0
  141.4540   76.1850  221.5170 N   0  0  0  0  0  0  0  0  0  0  0  0
  140.6250   77.2070  222.1090 C   0  0  0  0  0  0  0  0  0  0  0  0
  141.3950   78.1950  222.8690 C   0  0  0  0  0  0  0  0  0  0  0  0
  141.7550   77.9810  224.0650 O   0  0  0  0  0  0  0  0  0  0  0  0
  141.7390   79.4170  222.2350 N   0  0  0  0  0  0  0  0  0  0  0  0
  142.8190   80.2760  222.7020 C   0  0  0  0  0  0  0  0  0  0  0  0
  142.1870   81.5000  223.2900 C   0  0  0  0  0  0  0  0  0  0  0  0
  141.2040   82.0630  222.3160 C   0  0  0  0  0  0  0  0  0  0  0  0
  141.1740   81.4090  220.9780 C   0  0  0  0  0  0  0  0  0  0  0  0
  141.0190   79.9080  221.0490 C   0  0  1  0  0  0  0  0  0  0  0  0
  141.7320   79.3650  219.8580 C   0  0  0  0  0  0  0  0  0  0  0  0
  142.0810   78.1080  219.5640 N   0  0  0  0  0  0  0  0  0  0  0  0
  142.7180   78.0770  218.3660 C   0  0  0  0  0  0  0  0  0  0  0  0
  143.2570   76.9050  217.6880 C   0  0  0  0  0  0  0  0  0  0  0  0
  143.6880   77.0280  216.3850 C   0  0  0  0  0  0  0  0  0  0  0  0
  144.1900   75.8850  215.7870 C   0  0  0  0  0  0  0  0  0  0  0  0
  144.2590   74.6730  216.4620 C   0  0  0  0  0  0  0  0  0  0  0  0
  143.8150   74.5770  217.7820 C   0  0  0  0  0  0  0  0  0  0  0  0
  143.3140   75.7170  218.3800 C   0  0  0  0  0  0  0  0  0  0  0  0
  142.7410   79.3870  217.9420 C   0  0  0  0  0  0  0  0  0  0  0  0
  142.1470   80.1100  218.8550 O   0  0  0  0  0  0  0  0  0  0  0  0
  141.8440   73.7540  221.0330 C   0  0  0  0  0  0  0  0  0  0  0  0
  141.1620   72.6200  220.5920 C   0  0  0  0  0  0  0  0  0  0  0  0
  141.8260   71.5440  220.0290 C   0  0  0  0  0  0  0  0  0  0  0  0
  143.1980   71.6480  219.9260 C   0  0  0  0  0  0  0  0  0  0  0  0
  143.8800   70.5850  219.3660 C   0  0  0  0  0  0  0  0  0  0  0  0
  145.2720   70.6440  219.2400 C   0  0  0  0  0  0  0  0  0  0  0  0
  146.1220   69.2910  218.5310 Cl  0  0  0  0  0  0  0  0  0  0  0  0
  145.9240   71.7840  219.6870 C   0  0  0  0  0  0  0  0  0  0  0  0
  145.2240   72.8470  220.2480 C   0  0  0  0  0  0  0  0  0  0  0  0
  143.8480   72.7930  220.3750 C   0  0  0  0  0  0  0  0  0  0  0  0
  143.1750   73.8230  220.9180 N   0  0  0  0  0  0  0  0  0  0  0  0
  142.3550   76.3890  221.0110 H   0  0  0  0  0  0  0  0  0  0  0  0
  140.0817   77.7271  221.3063 H   0  0  0  0  0  0  0  0  0  0  0  0
  139.9395   76.7106  222.8116 H   0  0  0  0  0  0  0  0  0  0  0  0
  143.4125   79.7536  223.4668 H   0  0  0  0  0  0  0  0  0  0  0  0
  143.4922   80.5429  221.8740 H   0  0  0  0  0  0  0  0  0  0  0  0
  141.6689   81.2341  224.2232 H   0  0  0  0  0  0  0  0  0  0  0  0
  142.9633   82.2489  223.5054 H   0  0  0  0  0  0  0  0  0  0  0  0
  140.2008   81.9738  222.7584 H   0  0  0  0  0  0  0  0  0  0  0  0
  141.5211   83.1007  222.1356 H   0  0  0  0  0  0  0  0  0  0  0  0
  140.3285   81.8205  220.4073 H   0  0  0  0  0  0  0  0  0  0  0  0
  142.1403   81.6138  220.4939 H   0  0  0  0  0  0  0  0  0  0  0  0
  139.9594   79.6152  221.0888 H   0  0  0  0  0  0  0  0  0  0  0  0
  143.6358   77.9861  215.8472 H   0  0  0  0  0  0  0  0  0  0  0  0
  144.5446   75.9381  214.7471 H   0  0  0  0  0  0  0  0  0  0  0  0
  144.6650   73.7855  215.9545 H   0  0  0  0  0  0  0  0  0  0  0  0
  143.8626   73.6237  218.3287 H   0  0  0  0  0  0  0  0  0  0  0  0
  142.9571   75.6747  219.4196 H   0  0  0  0  0  0  0  0  0  0  0  0
  143.1800   79.7582  217.0042 H   0  0  0  0  0  0  0  0  0  0  0  0
  140.0675   72.5798  220.6943 H   0  0  0  0  0  0  0  0  0  0  0  0
  141.2869   70.6505  219.6811 H   0  0  0  0  0  0  0  0  0  0  0  0
  143.3311   69.6964  219.0208 H   0  0  0  0  0  0  0  0  0  0  0  0
  147.0183   71.8487  219.5958 H   0  0  0  0  0  0  0  0  0  0  0  0
  145.7693   73.7377  220.5934 H   0  0  0  0  0  0  0  0  0  0  0  0
  1  2  2  0
  2  3  1  0
  3  4  1  0
  4  5  1  0
  5  6  2  0
  5  7  1  0
  7  8  1  0
  8  9  1  0
  9 10  1  0
 10 11  1  0
 11 12  1  0
 12 13  1  0
 13 14  2  0
 14 15  1  0
 15 16  1  0
 16 17  2  0
 17 18  1  0
 18 19  2  0
 19 20  1  0
 20 21  2  0
 15 22  2  0
 22 23  1  0
  2 24  1  0
 24 25  2  0
 25 26  1  0
 26 27  2  0
 27 28  1  0
 28 29  2  0
 29 30  1  0
 29 31  1  0
 31 32  2  0
 32 33  1  0
 33 34  2  0
 12  7  1  0
 23 13  1  0
 34 24  1  0
 21 16  1  0
 33 27  1  0
  3 35  1  0
  4 36  1  0
  4 37  1  0
  8 38  1  0
  8 39  1  0
  9 40  1  0
  9 41  1  0
 10 42  1  0
 10 43  1  0
 11 44  1  0
 11 45  1  0
 12 46  1  1
 17 47  1  0
 18 48  1  0
 19 49  1  0
 20 50  1  0
 21 51  1  0
 22 52  1  0
 25 53  1  0
 26 54  1  0
 28 55  1  0
 31 56  1  0
 32 57  1  0
M  END
>  <smiles>  (6) 
O=C(NCC(=O)N1CCCC[C@H]1c1nc(-c2ccccc2)co1)c1ccc2cc(Cl)ccc2n1

>  <score_type>  (6) 
oracle

>  <origin>  (6) 
autodockgpu

>  <m_score__min__energy>  (6) 
-9.2699999999999996

>  <m_primary>  (6) 
energy

>  <rmsd>  (6) 
6.913155939335818

>  <m_score__min__rmsd>  (6) 
6.913155939335818

>  <meeko>  (6) 
{"free_energy": -8.01, "intermolecular_energy": -9.8, "internal_energy": -3.26, "cluster_size": 6, "cluster_id": 6, "rank_in_cluster": 1}

>  <energy>  (6) 
-8.99

>  <cluster_rmsd>  (6) 
1.29

>  <cluster>  (6) 
1

$$$$

     RDKit          3D

 57 61  0  0  0  0  0  0  0  0999 V2000
  139.2100   75.6550  222.9090 O   0  0  0  0  0  0  0  0  0  0  0  0
  139.8510   75.8040  221.8180 C   0  0  0  0  0  0  0  0  0  0  0  0
  139.5520   76.9620  221.0630 N   0  0  0  0  0  0  0  0  0  0  0  0
  138.5600   77.8840  221.5590 C   0  0  0  0  0  0  0  0  0  0  0  0
  139.1340   79.1670  221.9760 C   0  0  0  0  0  0  0  0  0  0  0  0
  138.4080   80.1830  222.1890 O   0  0  0  0  0  0  0  0  0  0  0  0
  140.5410   79.2550  222.1400 N   0  0  0  0  0  0  0  0  0  0  0  0
  141.2780   78.4510  223.1060 C   0  0  0  0  0  0  0  0  0  0  0  0
  141.7360   79.3760  224.1920 C   0  0  0  0  0  0  0  0  0  0  0  0
  142.4220   80.5530  223.5780 C   0  0  0  0  0  0  0  0  0  0  0  0
  142.6270   80.4860  222.1040 C   0  0  0  0  0  0  0  0  0  0  0  0
  141.3620   80.1770  221.3380 C   0  0  1  0  0  0  0  0  0  0  0  0
  141.7900   79.4250  220.1250 C   0  0  0  0  0  0  0  0  0  0  0  0
  141.8220   78.1080  219.8970 N   0  0  0  0  0  0  0  0  0  0  0  0
  142.2860   77.8700  218.6440 C   0  0  0  0  0  0  0  0  0  0  0  0
  142.4740   76.5720  218.0070 C   0  0  0  0  0  0  0  0  0  0  0  0
  143.6880   76.2870  217.4200 C   0  0  0  0  0  0  0  0  0  0  0  0
  143.8130   75.0420  216.8290 C   0  0  0  0  0  0  0  0  0  0  0  0
  142.7720   74.1220  216.8270 C   0  0  0  0  0  0  0  0  0  0  0  0
  141.5530   74.4380  217.4300 C   0  0  0  0  0  0  0  0  0  0  0  0
  141.4260   75.6800  218.0190 C   0  0  0  0  0  0  0  0  0  0  0  0
  142.5370   79.1170  218.1150 C   0  0  0  0  0  0  0  0  0  0  0  0
  142.2290   80.0030  219.0260 O   0  0  0  0  0  0  0  0  0  0  0  0
  140.8450   74.8330  221.3690 C   0  0  0  0  0  0  0  0  0  0  0  0
  140.4220   73.5140  221.2030 C   0  0  0  0  0  0  0  0  0  0  0  0
  141.2880   72.5200  220.7800 C   0  0  0  0  0  0  0  0  0  0  0  0
  142.5910   72.8980  220.5310 C   0  0  0  0  0  0  0  0  0  0  0  0
  143.4720   71.9210  220.1070 C   0  0  0  0  0  0  0  0  0  0  0  0
  144.8030   72.2570  219.8420 C   0  0  0  0  0  0  0  0  0  0  0  0
  145.9060   71.0100  219.3080 Cl  0  0  0  0  0  0  0  0  0  0  0  0
  145.1950   73.5760  220.0150 C   0  0  0  0  0  0  0  0  0  0  0  0
  144.2980   74.5490  220.4420 C   0  0  0  0  0  0  0  0  0  0  0  0
  142.9800   74.2230  220.7060 C   0  0  0  0  0  0  0  0  0  0  0  0
  142.1150   75.1660  221.1180 N   0  0  0  0  0  0  0  0  0  0  0  0
  140.0720   77.1000  220.1570 H   0  0  0  0  0  0  0  0  0  0  0  0
  137.8244   78.0705  220.7627 H   0  0  0  0  0  0  0  0  0  0  0  0
  138.0958   77.4257  222.4447 H   0  0  0  0  0  0  0  0  0  0  0  0
  140.6244   77.6717  223.5250 H   0  0  0  0  0  0  0  0  0  0  0  0
  142.1351   77.9538  222.6283 H   0  0  0  0  0  0  0  0  0  0  0  0
  140.8677   79.7186  224.7740 H   0  0  0  0  0  0  0  0  0  0  0  0
  142.4340   78.8473  224.8578 H   0  0  0  0  0  0  0  0  0  0  0  0
  141.8184   81.4467  223.7948 H   0  0  0  0  0  0  0  0  0  0  0  0
  143.4292   80.5764  224.0196 H   0  0  0  0  0  0  0  0  0  0  0  0
  143.0146   81.4566  221.7610 H   0  0  0  0  0  0  0  0  0  0  0  0
  143.3337   79.6656  221.9104 H   0  0  0  0  0  0  0  0  0  0  0  0
  140.8011   81.0936  221.1028 H   0  0  0  0  0  0  0  0  0  0  0  0
  144.5152   77.0121  217.4212 H   0  0  0  0  0  0  0  0  0  0  0  0
  144.7643   74.7729  216.3467 H   0  0  0  0  0  0  0  0  0  0  0  0
  142.9086   73.1410  216.3486 H   0  0  0  0  0  0  0  0  0  0  0  0
  140.7199   73.7198  217.4355 H   0  0  0  0  0  0  0  0  0  0  0  0
  140.4783   75.9594  218.5025 H   0  0  0  0  0  0  0  0  0  0  0  0
  142.9262   79.3290  217.1082 H   0  0  0  0  0  0  0  0  0  0  0  0
  139.3734   73.2571  221.4136 H   0  0  0  0  0  0  0  0  0  0  0  0
  140.9535   71.4803  220.6490 H   0  0  0  0  0  0  0  0  0  0  0  0
  143.1276   70.8842  219.9787 H   0  0  0  0  0  0  0  0  0  0  0  0
  146.2381   73.8586  219.8100 H   0  0  0  0  0  0  0  0  0  0  0  0
  144.6395   75.5867  220.5709 H   0  0  0  0  0  0  0  0  0  0  0  0
  1  2  2  0
  2  3  1  0
  3  4  1  0
  4  5  1  0
  5  6  2  0
  5  7  1  0
  7  8  1  0
  8  9  1  0
  9 10  1  0
 10 11  1  0
 11 12  1  0
 12 13  1  0
 13 14  2  0
 14 15  1  0
 15 16  1  0
 16 17  2  0
 17 18  1  0
 18 19  2  0
 19 20  1  0
 20 21  2  0
 15 22  2  0
 22 23  1  0
  2 24  1  0
 24 25  2  0
 25 26  1  0
 26 27  2  0
 27 28  1  0
 28 29  2  0
 29 30  1  0
 29 31  1  0
 31 32  2  0
 32 33  1  0
 33 34  2  0
 12  7  1  0
 23 13  1  0
 34 24  1  0
 21 16  1  0
 33 27  1  0
  3 35  1  0
  4 36  1  0
  4 37  1  0
  8 38  1  0
  8 39  1  0
  9 40  1  0
  9 41  1  0
 10 42  1  0
 10 43  1  0
 11 44  1  0
 11 45  1  0
 12 46  1  6
 17 47  1  0
 18 48  1  0
 19 49  1  0
 20 50  1  0
 21 51  1  0
 22 52  1  0
 25 53  1  0
 26 54  1  0
 28 55  1  0
 31 56  1  0
 32 57  1  0
M  END
>  <smiles>  (7) 
O=C(NCC(=O)N1CCCC[C@H]1c1nc(-c2ccccc2)co1)c1ccc2cc(Cl)ccc2n1

>  <score_type>  (7) 
oracle

>  <origin>  (7) 
autodockgpu

>  <m_score__min__energy>  (7) 
-9.2699999999999996

>  <m_primary>  (7) 
energy

>  <rmsd>  (7) 
6.716792281203028

>  <m_score__min__rmsd>  (7) 
6.716792281203028

>  <meeko>  (7) 
{"free_energy": -6.63, "intermolecular_energy": -8.42, "internal_energy": -4.47, "cluster_size": 6, "cluster_id": 6, "rank_in_cluster": 6}

>  <energy>  (7) 
-8.99

>  <cluster_rmsd>  (7) 
0.65

>  <cluster>  (7) 
1

$$$$

     RDKit          3D

 57 61  0  0  0  0  0  0  0  0999 V2000
  141.7730   77.8800  217.2340 O   0  0  0  0  0  0  0  0  0  0  0  0
  141.9130   78.1780  218.4650 C   0  0  0  0  0  0  0  0  0  0  0  0
  142.8620   77.4240  219.1930 N   0  0  0  0  0  0  0  0  0  0  0  0
  143.5980   76.3840  218.5160 C   0  0  0  0  0  0  0  0  0  0  0  0
  142.9060   75.0920  218.5360 C   0  0  0  0  0  0  0  0  0  0  0  0
  142.4300   74.5770  217.4810 O   0  0  0  0  0  0  0  0  0  0  0  0
  142.7730   74.4150  219.7760 N   0  0  0  0  0  0  0  0  0  0  0  0
  143.9160   74.0160  220.5870 C   0  0  0  0  0  0  0  0  0  0  0  0
  144.0100   72.5230  220.5120 C   0  0  0  0  0  0  0  0  0  0  0  0
  142.6750   71.9300  220.8270 C   0  0  0  0  0  0  0  0  0  0  0  0
  141.6290   72.8930  221.2720 C   0  0  0  0  0  0  0  0  0  0  0  0
  141.4570   74.0660  220.3350 C   0  0  1  0  0  0  0  0  0  0  0  0
  141.0340   75.2120  221.1870 C   0  0  0  0  0  0  0  0  0  0  0  0
  141.5870   76.4200  221.3400 N   0  0  0  0  0  0  0  0  0  0  0  0
  140.8590   77.1510  222.2230 C   0  0  0  0  0  0  0  0  0  0  0  0
  141.1230   78.5140  222.6640 C   0  0  0  0  0  0  0  0  0  0  0  0
  142.3830   79.0420  222.4820 C   0  0  0  0  0  0  0  0  0  0  0  0
  142.5810   80.3400  222.9190 C   0  0  0  0  0  0  0  0  0  0  0  0
  141.5640   81.0780  223.5110 C   0  0  0  0  0  0  0  0  0  0  0  0
  140.2970   80.5180  223.6830 C   0  0  0  0  0  0  0  0  0  0  0  0
  140.0980   79.2230  223.2470 C   0  0  0  0  0  0  0  0  0  0  0  0
  139.8270   76.3220  222.6030 C   0  0  0  0  0  0  0  0  0  0  0  0
  139.9720   75.1890  221.9660 O   0  0  0  0  0  0  0  0  0  0  0  0
  141.1360   79.2430  219.0940 C   0  0  0  0  0  0  0  0  0  0  0  0
  139.7880   78.9900  219.3470 C   0  0  0  0  0  0  0  0  0  0  0  0
  138.9680   79.9340  219.9400 C   0  0  0  0  0  0  0  0  0  0  0  0
  139.5510   81.1410  220.2680 C   0  0  0  0  0  0  0  0  0  0  0  0
  138.7500   82.0980  220.8620 C   0  0  0  0  0  0  0  0  0  0  0  0
  139.2960   83.3370  221.2120 C   0  0  0  0  0  0  0  0  0  0  0  0
  138.2710   84.5390  221.9610 Cl  0  0  0  0  0  0  0  0  0  0  0  0
  140.6390   83.5620  220.9490 C   0  0  0  0  0  0  0  0  0  0  0  0
  141.4330   82.5890  220.3510 C   0  0  0  0  0  0  0  0  0  0  0  0
  140.8990   81.3620  220.0020 C   0  0  0  0  0  0  0  0  0  0  0  0
  141.6700   80.4240  219.4250 N   0  0  0  0  0  0  0  0  0  0  0  0
  142.9900   77.6570  220.2130 H   0  0  0  0  0  0  0  0  0  0  0  0
  143.7493   76.6853  217.4689 H   0  0  0  0  0  0  0  0  0  0  0  0
  144.5532   76.2559  219.0463 H   0  0  0  0  0  0  0  0  0  0  0  0
  144.8360   74.4722  220.1927 H   0  0  0  0  0  0  0  0  0  0  0  0
  143.7922   74.3485  221.6282 H   0  0  0  0  0  0  0  0  0  0  0  0
  144.3154   72.2241  219.4984 H   0  0  0  0  0  0  0  0  0  0  0  0
  144.7547   72.1628  221.2370 H   0  0  0  0  0  0  0  0  0  0  0  0
  142.3069   71.4259  219.9212 H   0  0  0  0  0  0  0  0  0  0  0  0
  142.8409   71.2531  221.6781 H   0  0  0  0  0  0  0  0  0  0  0  0
  140.6700   72.3588  221.3419 H   0  0  0  0  0  0  0  0  0  0  0  0
  141.9510   73.2970  222.2431 H   0  0  0  0  0  0  0  0  0  0  0  0
  140.7410   73.8382  219.5316 H   0  0  0  0  0  0  0  0  0  0  0  0
  143.1906   78.4609  222.0129 H   0  0  0  0  0  0  0  0  0  0  0  0
  143.5721   80.8005  222.7940 H   0  0  0  0  0  0  0  0  0  0  0  0
  141.7578   82.1078  223.8456 H   0  0  0  0  0  0  0  0  0  0  0  0
  139.4826   81.0904  224.1512 H   0  0  0  0  0  0  0  0  0  0  0  0
  139.1104   78.7536  223.3669 H   0  0  0  0  0  0  0  0  0  0  0  0
  139.0250   76.5685  223.3143 H   0  0  0  0  0  0  0  0  0  0  0  0
  139.3651   78.0137  219.0676 H   0  0  0  0  0  0  0  0  0  0  0  0
  137.9052   79.7324  220.1398 H   0  0  0  0  0  0  0  0  0  0  0  0
  137.6886   81.8862  221.0584 H   0  0  0  0  0  0  0  0  0  0  0  0
  141.0857   84.5303  221.2190 H   0  0  0  0  0  0  0  0  0  0  0  0
  142.4950   82.7973  220.1540 H   0  0  0  0  0  0  0  0  0  0  0  0
  1  2  2  0
  2  3  1  0
  3  4  1  0
  4  5  1  0
  5  6  2  0
  5  7  1  0
  7  8  1  0
  8  9  1  0
  9 10  1  0
 10 11  1  0
 11 12  1  0
 12 13  1  0
 13 14  2  0
 14 15  1  0
 15 16  1  0
 16 17  2  0
 17 18  1  0
 18 19  2  0
 19 20  1  0
 20 21  2  0
 15 22  2  0
 22 23  1  0
  2 24  1  0
 24 25  2  0
 25 26  1  0
 26 27  2  0
 27 28  1  0
 28 29  2  0
 29 30  1  0
 29 31  1  0
 31 32  2  0
 32 33  1  0
 33 34  2  0
 12  7  1  0
 23 13  1  0
 34 24  1  0
 21 16  1  0
 33 27  1  0
  3 35  1  0
  4 36  1  0
  4 37  1  0
  8 38  1  0
  8 39  1  0
  9 40  1  0
  9 41  1  0
 10 42  1  0
 10 43  1  0
 11 44  1  0
 11 45  1  0
 12 46  1  6
 17 47  1  0
 18 48  1  0
 19 49  1  0
 20 50  1  0
 21 51  1  0
 22 52  1  0
 25 53  1  0
 26 54  1  0
 28 55  1  0
 31 56  1  0
 32 57  1  0
M  END
>  <smiles>  (8) 
O=C(NCC(=O)N1CCCC[C@H]1c1nc(-c2ccccc2)co1)c1ccc2cc(Cl)ccc2n1

>  <score_type>  (8) 
oracle

>  <origin>  (8) 
autodockgpu

>  <m_score__min__energy>  (8) 
-9.2699999999999996

>  <m_primary>  (8) 
energy

>  <rmsd>  (8) 
8.402938968906055

>  <m_score__min__rmsd>  (8) 
8.402938968906055

>  <meeko>  (8) 
{"free_energy": -6.8, "intermolecular_energy": -8.59, "internal_energy": -4.4, "cluster_size": 6, "cluster_id": 8, "rank_in_cluster": 5}

>  <energy>  (8) 
-8.97

>  <cluster_rmsd>  (8) 
1.14

>  <cluster>  (8) 
1

$$$$

     RDKit          3D

 57 61  0  0  0  0  0  0  0  0999 V2000
  142.9980   75.0130  218.3660 O   0  0  0  0  0  0  0  0  0  0  0  0
  142.8460   75.5490  219.5120 C   0  0  0  0  0  0  0  0  0  0  0  0
  143.0550   74.7110  220.6330 N   0  0  0  0  0  0  0  0  0  0  0  0
  143.4180   73.3310  220.4170 C   0  0  0  0  0  0  0  0  0  0  0  0
  142.2570   72.4670  220.1860 C   0  0  0  0  0  0  0  0  0  0  0  0
  142.3710   71.3330  219.6330 O   0  0  0  0  0  0  0  0  0  0  0  0
  140.9790   72.9270  220.5980 N   0  0  0  0  0  0  0  0  0  0  0  0
  139.8150   72.9240  219.7230 C   0  0  0  0  0  0  0  0  0  0  0  0
  139.5120   74.3520  219.3860 C   0  0  0  0  0  0  0  0  0  0  0  0
  139.4490   75.1510  220.6470 C   0  0  0  0  0  0  0  0  0  0  0  0
  139.5460   74.3720  221.9120 C   0  0  0  0  0  0  0  0  0  0  0  0
  140.7400   73.4470  221.9550 C   0  0  1  0  0  0  0  0  0  0  0  0
  140.3280   72.2860  222.7930 C   0  0  0  0  0  0  0  0  0  0  0  0
  140.7100   71.9380  224.0270 N   0  0  0  0  0  0  0  0  0  0  0  0
  140.0730   70.7990  224.4010 C   0  0  0  0  0  0  0  0  0  0  0  0
  140.2100   70.0900  225.6670 C   0  0  0  0  0  0  0  0  0  0  0  0
  139.9430   68.7390  225.7070 C   0  0  0  0  0  0  0  0  0  0  0  0
  140.0870   68.1150  226.9340 C   0  0  0  0  0  0  0  0  0  0  0  0
  140.4830   68.8100  228.0690 C   0  0  0  0  0  0  0  0  0  0  0  0
  140.7470   70.1790  228.0000 C   0  0  0  0  0  0  0  0  0  0  0  0
  140.6030   70.8030  226.7760 C   0  0  0  0  0  0  0  0  0  0  0  0
  139.2780   70.4670  223.3260 C   0  0  0  0  0  0  0  0  0  0  0  0
  139.4620   71.3740  222.4020 O   0  0  0  0  0  0  0  0  0  0  0  0
  142.4770   76.9530  219.6640 C   0  0  0  0  0  0  0  0  0  0  0  0
  142.5380   77.7590  218.5280 C   0  0  0  0  0  0  0  0  0  0  0  0
  142.2070   79.1020  218.5690 C   0  0  0  0  0  0  0  0  0  0  0  0
  141.8140   79.6060  219.7910 C   0  0  0  0  0  0  0  0  0  0  0  0
  141.4780   80.9450  219.8550 C   0  0  0  0  0  0  0  0  0  0  0  0
  141.0740   81.5010  221.0730 C   0  0  0  0  0  0  0  0  0  0  0  0
  140.6540   83.1970  221.1380 Cl  0  0  0  0  0  0  0  0  0  0  0  0
  141.0220   80.6760  222.1860 C   0  0  0  0  0  0  0  0  0  0  0  0
  141.3620   79.3300  222.1080 C   0  0  0  0  0  0  0  0  0  0  0  0
  141.7630   78.7750  220.9060 C   0  0  0  0  0  0  0  0  0  0  0  0
  142.0910   77.4730  220.8350 N   0  0  0  0  0  0  0  0  0  0  0  0
  142.9330   75.1370  221.5880 H   0  0  0  0  0  0  0  0  0  0  0  0
  144.0781   73.2747  219.5389 H   0  0  0  0  0  0  0  0  0  0  0  0
  143.9197   72.9743  221.3287 H   0  0  0  0  0  0  0  0  0  0  0  0
  140.0344   72.3584  218.8054 H   0  0  0  0  0  0  0  0  0  0  0  0
  138.9554   72.4481  220.2175 H   0  0  0  0  0  0  0  0  0  0  0  0
  140.3035   74.7526  218.7356 H   0  0  0  0  0  0  0  0  0  0  0  0
  138.5467   74.4115  218.8619 H   0  0  0  0  0  0  0  0  0  0  0  0
  140.2784   75.8734  220.6308 H   0  0  0  0  0  0  0  0  0  0  0  0
  138.4520   75.6155  220.6574 H   0  0  0  0  0  0  0  0  0  0  0  0
  139.6213   75.0783  222.7519 H   0  0  0  0  0  0  0  0  0  0  0  0
  138.6452   73.7440  221.9775 H   0  0  0  0  0  0  0  0  0  0  0  0
  141.6339   73.9611  222.3379 H   0  0  0  0  0  0  0  0  0  0  0  0
  139.6313   68.1845  224.8096 H   0  0  0  0  0  0  0  0  0  0  0  0
  139.8818   67.0372  227.0123 H   0  0  0  0  0  0  0  0  0  0  0  0
  140.5891   68.2795  229.0267 H   0  0  0  0  0  0  0  0  0  0  0  0
  141.0596   70.7426  228.8914 H   0  0  0  0  0  0  0  0  0  0  0  0
  140.8046   71.8807  226.6872 H   0  0  0  0  0  0  0  0  0  0  0  0
  138.6093   69.5963  223.2573 H   0  0  0  0  0  0  0  0  0  0  0  0
  142.8578   77.3154  217.5735 H   0  0  0  0  0  0  0  0  0  0  0  0
  142.2550   79.7361  217.6714 H   0  0  0  0  0  0  0  0  0  0  0  0
  141.5281   81.5708  218.9517 H   0  0  0  0  0  0  0  0  0  0  0  0
  140.7048   81.0955  223.1521 H   0  0  0  0  0  0  0  0  0  0  0  0
  141.3117   78.7015  223.0093 H   0  0  0  0  0  0  0  0  0  0  0  0
  1  2  2  0
  2  3  1  0
  3  4  1  0
  4  5  1  0
  5  6  2  0
  5  7  1  0
  7  8  1  0
  8  9  1  0
  9 10  1  0
 10 11  1  0
 11 12  1  0
 12 13  1  0
 13 14  2  0
 14 15  1  0
 15 16  1  0
 16 17  2  0
 17 18  1  0
 18 19  2  0
 19 20  1  0
 20 21  2  0
 15 22  2  0
 22 23  1  0
  2 24  1  0
 24 25  2  0
 25 26  1  0
 26 27  2  0
 27 28  1  0
 28 29  2  0
 29 30  1  0
 29 31  1  0
 31 32  2  0
 32 33  1  0
 33 34  2  0
 12  7  1  0
 23 13  1  0
 34 24  1  0
 21 16  1  0
 33 27  1  0
  3 35  1  0
  4 36  1  0
  4 37  1  0
  8 38  1  0
  8 39  1  0
  9 40  1  0
  9 41  1  0
 10 42  1  0
 10 43  1  0
 11 44  1  0
 11 45  1  0
 12 46  1  1
 17 47  1  0
 18 48  1  0
 19 49  1  0
 20 50  1  0
 21 51  1  0
 22 52  1  0
 25 53  1  0
 26 54  1  0
 28 55  1  0
 31 56  1  0
 32 57  1  0
M  END
>  <smiles>  (9) 
O=C(NCC(=O)N1CCCC[C@H]1c1nc(-c2ccccc2)co1)c1ccc2cc(Cl)ccc2n1

>  <score_type>  (9) 
oracle

>  <origin>  (9) 
autodockgpu

>  <m_score__min__energy>  (9) 
-9.2699999999999996

>  <m_primary>  (9) 
energy

>  <rmsd>  (9) 
9.60992200682264

>  <m_score__min__rmsd>  (9) 
9.60992200682264

>  <meeko>  (9) 
{"free_energy": -8.32, "intermolecular_energy": -10.11, "internal_energy": -2.54, "cluster_size": 2, "cluster_id": 3, "rank_in_cluster": 2}

>  <energy>  (9) 
-8.96

>  <cluster_rmsd>  (9) 
0.88

>  <cluster>  (9) 
1

$$$$

     RDKit          3D

 57 61  0  0  0  0  0  0  0  0999 V2000
  143.2250   75.1620  218.3070 O   0  0  0  0  0  0  0  0  0  0  0  0
  142.9850   75.6440  219.4610 C   0  0  0  0  0  0  0  0  0  0  0  0
  143.1520   74.7670  220.5590 N   0  0  0  0  0  0  0  0  0  0  0  0
  143.5720   73.4090  220.3120 C   0  0  0  0  0  0  0  0  0  0  0  0
  142.4930   72.4350  220.5080 C   0  0  0  0  0  0  0  0  0  0  0  0
  142.7140   71.1890  220.5030 O   0  0  0  0  0  0  0  0  0  0  0  0
  141.1750   72.9200  220.7070 N   0  0  0  0  0  0  0  0  0  0  0  0
  140.1370   72.8350  219.6880 C   0  0  0  0  0  0  0  0  0  0  0  0
  139.8880   74.2270  219.1940 C   0  0  0  0  0  0  0  0  0  0  0  0
  139.6610   75.1290  220.3640 C   0  0  0  0  0  0  0  0  0  0  0  0
  139.5850   74.4590  221.6920 C   0  0  0  0  0  0  0  0  0  0  0  0
  140.7590   73.5490  221.9710 C   0  0  1  0  0  0  0  0  0  0  0  0
  140.2340   72.4600  222.8410 C   0  0  0  0  0  0  0  0  0  0  0  0
  140.7100   71.9760  223.9940 N   0  0  0  0  0  0  0  0  0  0  0  0
  139.9050   70.9790  224.4410 C   0  0  0  0  0  0  0  0  0  0  0  0
  140.0710   70.1940  225.6570 C   0  0  0  0  0  0  0  0  0  0  0  0
  139.8190   68.8390  225.6160 C   0  0  0  0  0  0  0  0  0  0  0  0
  139.9920   68.1400  226.7980 C   0  0  0  0  0  0  0  0  0  0  0  0
  140.3980   68.7670  227.9690 C   0  0  0  0  0  0  0  0  0  0  0  0
  140.6460   70.1410  227.9820 C   0  0  0  0  0  0  0  0  0  0  0  0
  140.4740   70.8400  226.8030 C   0  0  0  0  0  0  0  0  0  0  0  0
  138.9070   70.8780  223.4970 C   0  0  0  0  0  0  0  0  0  0  0  0
  139.1430   71.7730  222.5720 O   0  0  0  0  0  0  0  0  0  0  0  0
  142.5620   77.0290  219.6460 C   0  0  0  0  0  0  0  0  0  0  0  0
  142.5870   77.8620  218.5280 C   0  0  0  0  0  0  0  0  0  0  0  0
  142.2040   79.1900  218.6000 C   0  0  0  0  0  0  0  0  0  0  0  0
  141.7970   79.6510  219.8350 C   0  0  0  0  0  0  0  0  0  0  0  0
  141.4100   80.9740  219.9290 C   0  0  0  0  0  0  0  0  0  0  0  0
  140.9900   81.4870  221.1600 C   0  0  0  0  0  0  0  0  0  0  0  0
  140.5050   83.1630  221.2650 Cl  0  0  0  0  0  0  0  0  0  0  0  0
  140.9750   80.6360  222.2560 C   0  0  0  0  0  0  0  0  0  0  0  0
  141.3660   79.3060  222.1460 C   0  0  0  0  0  0  0  0  0  0  0  0
  141.7840   78.7940  220.9310 C   0  0  0  0  0  0  0  0  0  0  0  0
  142.1620   77.5080  220.8290 N   0  0  0  0  0  0  0  0  0  0  0  0
  142.9580   75.1490  221.5210 H   0  0  0  0  0  0  0  0  0  0  0  0
  143.9281   73.3347  219.2739 H   0  0  0  0  0  0  0  0  0  0  0  0
  144.3670   73.1720  221.0344 H   0  0  0  0  0  0  0  0  0  0  0  0
  140.4739   72.1953  218.8590 H   0  0  0  0  0  0  0  0  0  0  0  0
  139.2171   72.3968  220.1025 H   0  0  0  0  0  0  0  0  0  0  0  0
  140.7609   74.5768  218.6234 H   0  0  0  0  0  0  0  0  0  0  0  0
  139.0017   74.2356  218.5426 H   0  0  0  0  0  0  0  0  0  0  0  0
  140.4884   75.8531  220.3978 H   0  0  0  0  0  0  0  0  0  0  0  0
  138.6737   75.5863  220.2024 H   0  0  0  0  0  0  0  0  0  0  0  0
  139.5506   75.2336  222.4723 H   0  0  0  0  0  0  0  0  0  0  0  0
  138.6808   73.8325  221.6894 H   0  0  0  0  0  0  0  0  0  0  0  0
  141.5963   74.0992  222.4252 H   0  0  0  0  0  0  0  0  0  0  0  0
  139.4968   68.3389  224.6908 H   0  0  0  0  0  0  0  0  0  0  0  0
  139.8025   67.0565  226.8104 H   0  0  0  0  0  0  0  0  0  0  0  0
  140.5247   68.1787  228.8898 H   0  0  0  0  0  0  0  0  0  0  0  0
  140.9682   70.6507  228.9020 H   0  0  0  0  0  0  0  0  0  0  0  0
  140.6611   71.9237  226.7801 H   0  0  0  0  0  0  0  0  0  0  0  0
  138.0636   70.1721  223.5171 H   0  0  0  0  0  0  0  0  0  0  0  0
  142.9201   77.4526  217.5629 H   0  0  0  0  0  0  0  0  0  0  0  0
  142.2231   79.8452  217.7166 H   0  0  0  0  0  0  0  0  0  0  0  0
  141.4322   81.6207  219.0395 H   0  0  0  0  0  0  0  0  0  0  0  0
  140.6469   81.0216  223.2325 H   0  0  0  0  0  0  0  0  0  0  0  0
  141.3426   78.6556  223.0328 H   0  0  0  0  0  0  0  0  0  0  0  0
  1  2  2  0
  2  3  1  0
  3  4  1  0
  4  5  1  0
  5  6  2  0
  5  7  1  0
  7  8  1  0
  8  9  1  0
  9 10  1  0
 10 11  1  0
 11 12  1  0
 12 13  1  0
 13 14  2  0
 14 15  1  0
 15 16  1  0
 16 17  2  0
 17 18  1  0
 18 19  2  0
 19 20  1  0
 20 21  2  0
 15 22  2  0
 22 23  1  0
  2 24  1  0
 24 25  2  0
 25 26  1  0
 26 27  2  0
 27 28  1  0
 28 29  2  0
 29 30  1  0
 29 31  1  0
 31 32  2  0
 32 33  1  0
 33 34  2  0
 12  7  1  0
 23 13  1  0
 34 24  1  0
 21 16  1  0
 33 27  1  0
  3 35  1  0
  4 36  1  0
  4 37  1  0
  8 38  1  0
  8 39  1  0
  9 40  1  0
  9 41  1  0
 10 42  1  0
 10 43  1  0
 11 44  1  0
 11 45  1  0
 12 46  1  1
 17 47  1  0
 18 48  1  0
 19 49  1  0
 20 50  1  0
 21 51  1  0
 22 52  1  0
 25 53  1  0
 26 54  1  0
 28 55  1  0
 31 56  1  0
 32 57  1  0
M  END
>  <smiles>  (10) 
O=C(NCC(=O)N1CCCC[C@H]1c1nc(-c2ccccc2)co1)c1ccc2cc(Cl)ccc2n1

>  <score_type>  (10) 
oracle

>  <origin>  (10) 
autodockgpu

>  <m_score__min__energy>  (10) 
-9.2699999999999996

>  <m_primary>  (10) 
energy

>  <rmsd>  (10) 
9.59151108868238

>  <m_score__min__rmsd>  (10) 
9.59151108868238

>  <meeko>  (10) 
{"free_energy": -8.36, "intermolecular_energy": -10.15, "internal_energy": -2.54, "cluster_size": 2, "cluster_id": 3, "rank_in_cluster": 1}

>  <energy>  (10) 
-8.93

>  <cluster_rmsd>  (10) 
1.33

>  <cluster>  (10) 
1

$$$$

     RDKit          3D

 57 61  0  0  0  0  0  0  0  0999 V2000
  141.0770   72.7800  221.2710 O   0  0  0  0  0  0  0  0  0  0  0  0
  140.2900   72.8800  222.2670 C   0  0  0  0  0  0  0  0  0  0  0  0
  139.3900   73.9720  222.2530 N   0  0  0  0  0  0  0  0  0  0  0  0
  139.4170   74.8870  221.1380 C   0  0  0  0  0  0  0  0  0  0  0  0
  138.9690   76.2360  221.4980 C   0  0  0  0  0  0  0  0  0  0  0  0
  137.7620   76.4780  221.7950 O   0  0  0  0  0  0  0  0  0  0  0  0
  139.9240   77.2840  221.5100 N   0  0  0  0  0  0  0  0  0  0  0  0
  140.4400   77.8740  222.7380 C   0  0  0  0  0  0  0  0  0  0  0  0
  139.8700   79.2550  222.8380 C   0  0  0  0  0  0  0  0  0  0  0  0
  140.1050   79.9780  221.5510 C   0  0  0  0  0  0  0  0  0  0  0  0
  140.9440   79.2610  220.5510 C   0  0  0  0  0  0  0  0  0  0  0  0
  140.4670   77.8560  220.2660 C   0  0  1  0  0  0  0  0  0  0  0  0
  141.6860   77.0700  219.9280 C   0  0  0  0  0  0  0  0  0  0  0  0
  142.0210   75.8180  220.2570 N   0  0  0  0  0  0  0  0  0  0  0  0
  143.2310   75.5110  219.7260 C   0  0  0  0  0  0  0  0  0  0  0  0
  143.9520   74.2500  219.8500 C   0  0  0  0  0  0  0  0  0  0  0  0
  143.3900   73.1070  219.3260 C   0  0  0  0  0  0  0  0  0  0  0  0
  144.1150   71.9370  219.4720 C   0  0  0  0  0  0  0  0  0  0  0  0
  145.3470   71.9110  220.1120 C   0  0  0  0  0  0  0  0  0  0  0  0
  145.8930   73.0860  220.6340 C   0  0  0  0  0  0  0  0  0  0  0  0
  145.1710   74.2540  220.4890 C   0  0  0  0  0  0  0  0  0  0  0  0
  143.6210   76.6470  219.0510 C   0  0  0  0  0  0  0  0  0  0  0  0
  142.6770   77.5400  219.1980 O   0  0  0  0  0  0  0  0  0  0  0  0
  140.3120   71.9210  223.3670 C   0  0  0  0  0  0  0  0  0  0  0  0
  139.8570   70.6290  223.1000 C   0  0  0  0  0  0  0  0  0  0  0  0
  139.8390   69.6470  224.0750 C   0  0  0  0  0  0  0  0  0  0  0  0
  140.2920   70.0090  225.3270 C   0  0  0  0  0  0  0  0  0  0  0  0
  140.2830   69.0440  226.3160 C   0  0  0  0  0  0  0  0  0  0  0  0
  140.7320   69.3640  227.6010 C   0  0  0  0  0  0  0  0  0  0  0  0
  140.7130   68.1330  228.8410 Cl  0  0  0  0  0  0  0  0  0  0  0  0
  141.1790   70.6550  227.8380 C   0  0  0  0  0  0  0  0  0  0  0  0
  141.1830   71.6170  226.8330 C   0  0  0  0  0  0  0  0  0  0  0  0
  140.7390   71.3060  225.5610 C   0  0  0  0  0  0  0  0  0  0  0  0
  140.7450   72.2380  224.5920 N   0  0  0  0  0  0  0  0  0  0  0  0
  138.7320   74.0700  223.0700 H   0  0  0  0  0  0  0  0  0  0  0  0
  140.4478   74.9486  220.7590 H   0  0  0  0  0  0  0  0  0  0  0  0
  138.7241   74.5006  220.3761 H   0  0  0  0  0  0  0  0  0  0  0  0
  140.1277   77.2735  223.6051 H   0  0  0  0  0  0  0  0  0  0  0  0
  141.5395   77.9049  222.7249 H   0  0  0  0  0  0  0  0  0  0  0  0
  138.7893   79.1937  223.0335 H   0  0  0  0  0  0  0  0  0  0  0  0
  140.3579   79.7975  223.6611 H   0  0  0  0  0  0  0  0  0  0  0  0
  139.1256   80.1757  221.0908 H   0  0  0  0  0  0  0  0  0  0  0  0
  140.6653   80.8868  221.8158 H   0  0  0  0  0  0  0  0  0  0  0  0
  140.9301   79.8316  219.6107 H   0  0  0  0  0  0  0  0  0  0  0  0
  141.9565   79.1812  220.9734 H   0  0  0  0  0  0  0  0  0  0  0  0
  139.7096   77.8423  219.4684 H   0  0  0  0  0  0  0  0  0  0  0  0
  142.4148   73.1231  218.8174 H   0  0  0  0  0  0  0  0  0  0  0  0
  143.7030   71.0000  219.0691 H   0  0  0  0  0  0  0  0  0  0  0  0
  145.8948   70.9620  220.2083 H   0  0  0  0  0  0  0  0  0  0  0  0
  146.8674   73.0809  221.1445 H   0  0  0  0  0  0  0  0  0  0  0  0
  145.5739   75.1966  220.8880 H   0  0  0  0  0  0  0  0  0  0  0  0
  144.5577   76.7791  218.4896 H   0  0  0  0  0  0  0  0  0  0  0  0
  139.5032   70.3846  222.0875 H   0  0  0  0  0  0  0  0  0  0  0  0
  139.4814   68.6287  223.8624 H   0  0  0  0  0  0  0  0  0  0  0  0
  139.9241   68.0283  226.0933 H   0  0  0  0  0  0  0  0  0  0  0  0
  141.5382   70.9243  228.8422 H   0  0  0  0  0  0  0  0  0  0  0  0
  141.5423   72.6333  227.0521 H   0  0  0  0  0  0  0  0  0  0  0  0
  1  2  2  0
  2  3  1  0
  3  4  1  0
  4  5  1  0
  5  6  2  0
  5  7  1  0
  7  8  1  0
  8  9  1  0
  9 10  1  0
 10 11  1  0
 11 12  1  0
 12 13  1  0
 13 14  2  0
 14 15  1  0
 15 16  1  0
 16 17  2  0
 17 18  1  0
 18 19  2  0
 19 20  1  0
 20 21  2  0
 15 22  2  0
 22 23  1  0
  2 24  1  0
 24 25  2  0
 25 26  1  0
 26 27  2  0
 27 28  1  0
 28 29  2  0
 29 30  1  0
 29 31  1  0
 31 32  2  0
 32 33  1  0
 33 34  2  0
 12  7  1  0
 23 13  1  0
 34 24  1  0
 21 16  1  0
 33 27  1  0
  3 35  1  0
  4 36  1  0
  4 37  1  0
  8 38  1  0
  8 39  1  0
  9 40  1  0
  9 41  1  0
 10 42  1  0
 10 43  1  0
 11 44  1  0
 11 45  1  0
 12 46  1  6
 17 47  1  0
 18 48  1  0
 19 49  1  0
 20 50  1  0
 21 51  1  0
 22 52  1  0
 25 53  1  0
 26 54  1  0
 28 55  1  0
 31 56  1  0
 32 57  1  0
M  END
>  <smiles>  (11) 
O=C(NCC(=O)N1CCCC[C@H]1c1nc(-c2ccccc2)co1)c1ccc2cc(Cl)ccc2n1

>  <score_type>  (11) 
oracle

>  <origin>  (11) 
autodockgpu

>  <m_score__min__energy>  (11) 
-9.2699999999999996

>  <m_primary>  (11) 
energy

>  <rmsd>  (11) 
5.392371650867594

>  <m_score__min__rmsd>  (11) 
5.392371650867594

>  <meeko>  (11) 
{"free_energy": -9.02, "intermolecular_energy": -10.81, "internal_energy": -2.09, "cluster_size": 4, "cluster_id": 2, "rank_in_cluster": 2}

>  <energy>  (11) 
-8.83

>  <cluster_rmsd>  (11) 
1.38

>  <cluster>  (11) 
1

$$$$

     RDKit          3D

 57 61  0  0  0  0  0  0  0  0999 V2000
  140.1610   73.9770  221.8600 O   0  0  0  0  0  0  0  0  0  0  0  0
  140.5260   75.1910  221.7390 C   0  0  0  0  0  0  0  0  0  0  0  0
  141.8290   75.4100  221.2320 N   0  0  0  0  0  0  0  0  0  0  0  0
  142.6480   74.2720  220.8920 C   0  0  0  0  0  0  0  0  0  0  0  0
  143.0690   74.2740  219.4870 C   0  0  0  0  0  0  0  0  0  0  0  0
  144.1550   73.7360  219.1180 O   0  0  0  0  0  0  0  0  0  0  0  0
  142.2280   74.8990  218.5310 N   0  0  0  0  0  0  0  0  0  0  0  0
  140.9690   74.3200  218.0840 C   0  0  0  0  0  0  0  0  0  0  0  0
  141.1680   73.8700  216.6690 C   0  0  0  0  0  0  0  0  0  0  0  0
  141.7540   74.9920  215.8740 C   0  0  0  0  0  0  0  0  0  0  0  0
  141.8690   76.2950  216.5840 C   0  0  0  0  0  0  0  0  0  0  0  0
  142.5740   76.1920  217.9160 C   0  0  1  0  0  0  0  0  0  0  0  0
  141.9800   77.2510  218.7790 C   0  0  0  0  0  0  0  0  0  0  0  0
  142.5240   77.9500  219.7810 N   0  0  0  0  0  0  0  0  0  0  0  0
  141.6100   78.8160  220.2870 C   0  0  0  0  0  0  0  0  0  0  0  0
  141.8020   79.7560  221.3840 C   0  0  0  0  0  0  0  0  0  0  0  0
  142.5760   79.3760  222.4590 C   0  0  0  0  0  0  0  0  0  0  0  0
  142.7260   80.3050  223.4740 C   0  0  0  0  0  0  0  0  0  0  0  0
  142.1290   81.5580  223.4160 C   0  0  0  0  0  0  0  0  0  0  0  0
  141.3490   81.9160  222.3150 C   0  0  0  0  0  0  0  0  0  0  0  0
  141.1990   80.9900  221.3010 C   0  0  0  0  0  0  0  0  0  0  0  0
  140.4720   78.6090  219.5380 C   0  0  0  0  0  0  0  0  0  0  0  0
  140.7390   77.6770  218.6600 O   0  0  0  0  0  0  0  0  0  0  0  0
  139.6490   76.3010  222.1010 C   0  0  0  0  0  0  0  0  0  0  0  0
  138.3210   76.2320  221.6810 C   0  0  0  0  0  0  0  0  0  0  0  0
  137.4110   77.2330  221.9740 C   0  0  0  0  0  0  0  0  0  0  0  0
  137.8840   78.3040  222.7040 C   0  0  0  0  0  0  0  0  0  0  0  0
  136.9920   79.3150  223.0090 C   0  0  0  0  0  0  0  0  0  0  0  0
  137.4250   80.4220  223.7460 C   0  0  0  0  0  0  0  0  0  0  0  0
  136.2860   81.6930  224.1220 Cl  0  0  0  0  0  0  0  0  0  0  0  0
  138.7510   80.4640  224.1510 C   0  0  0  0  0  0  0  0  0  0  0  0
  139.6370   79.4390  223.8370 C   0  0  0  0  0  0  0  0  0  0  0  0
  139.2150   78.3420  223.1080 C   0  0  0  0  0  0  0  0  0  0  0  0
  140.0750   77.3540  222.8070 N   0  0  0  0  0  0  0  0  0  0  0  0
  142.1480   76.4080  221.1240 H   0  0  0  0  0  0  0  0  0  0  0  0
  143.5456   74.2825  221.5278 H   0  0  0  0  0  0  0  0  0  0  0  0
  142.0428   73.3680  221.0550 H   0  0  0  0  0  0  0  0  0  0  0  0
  140.7020   73.4621  218.7186 H   0  0  0  0  0  0  0  0  0  0  0  0
  140.1546   75.0566  218.1494 H   0  0  0  0  0  0  0  0  0  0  0  0
  141.8521   73.0089  216.6496 H   0  0  0  0  0  0  0  0  0  0  0  0
  140.2008   73.5757  216.2354 H   0  0  0  0  0  0  0  0  0  0  0  0
  142.7629   74.6901  215.5562 H   0  0  0  0  0  0  0  0  0  0  0  0
  141.0569   75.1651  215.0408 H   0  0  0  0  0  0  0  0  0  0  0  0
  142.4310   76.9919  215.9449 H   0  0  0  0  0  0  0  0  0  0  0  0
  140.8463   76.6472  216.7842 H   0  0  0  0  0  0  0  0  0  0  0  0
  143.6637   76.2898  217.8021 H   0  0  0  0  0  0  0  0  0  0  0  0
  143.0505   78.3848  222.5079 H   0  0  0  0  0  0  0  0  0  0  0  0
  143.3354   80.0437  224.3517 H   0  0  0  0  0  0  0  0  0  0  0  0
  142.2715   82.2712  224.2412 H   0  0  0  0  0  0  0  0  0  0  0  0
  140.8691   82.9041  222.2568 H   0  0  0  0  0  0  0  0  0  0  0  0
  140.5918   81.2415  220.4189 H   0  0  0  0  0  0  0  0  0  0  0  0
  139.5122   79.1330  219.6570 H   0  0  0  0  0  0  0  0  0  0  0  0
  137.9877   75.3586  221.1013 H   0  0  0  0  0  0  0  0  0  0  0  0
  136.3639   77.1775  221.6417 H   0  0  0  0  0  0  0  0  0  0  0  0
  135.9465   79.2492  222.6736 H   0  0  0  0  0  0  0  0  0  0  0  0
  139.1093   81.3261  224.7327 H   0  0  0  0  0  0  0  0  0  0  0  0
  140.6830   79.5013  224.1715 H   0  0  0  0  0  0  0  0  0  0  0  0
  1  2  2  0
  2  3  1  0
  3  4  1  0
  4  5  1  0
  5  6  2  0
  5  7  1  0
  7  8  1  0
  8  9  1  0
  9 10  1  0
 10 11  1  0
 11 12  1  0
 12 13  1  0
 13 14  2  0
 14 15  1  0
 15 16  1  0
 16 17  2  0
 17 18  1  0
 18 19  2  0
 19 20  1  0
 20 21  2  0
 15 22  2  0
 22 23  1  0
  2 24  1  0
 24 25  2  0
 25 26  1  0
 26 27  2  0
 27 28  1  0
 28 29  2  0
 29 30  1  0
 29 31  1  0
 31 32  2  0
 32 33  1  0
 33 34  2  0
 12  7  1  0
 23 13  1  0
 34 24  1  0
 21 16  1  0
 33 27  1  0
  3 35  1  0
  4 36  1  0
  4 37  1  0
  8 38  1  0
  8 39  1  0
  9 40  1  0
  9 41  1  0
 10 42  1  0
 10 43  1  0
 11 44  1  0
 11 45  1  0
 12 46  1  6
 17 47  1  0
 18 48  1  0
 19 49  1  0
 20 50  1  0
 21 51  1  0
 22 52  1  0
 25 53  1  0
 26 54  1  0
 28 55  1  0
 31 56  1  0
 32 57  1  0
M  END
>  <smiles>  (12) 
O=C(NCC(=O)N1CCCC[C@H]1c1nc(-c2ccccc2)co1)c1ccc2cc(Cl)ccc2n1

>  <score_type>  (12) 
oracle

>  <origin>  (12) 
autodockgpu

>  <m_score__min__energy>  (12) 
-9.2699999999999996

>  <m_primary>  (12) 
energy

>  <rmsd>  (12) 
6.012392244251488

>  <m_score__min__rmsd>  (12) 
6.012392244251488

>  <meeko>  (12) 
{"free_energy": -6.81, "intermolecular_energy": -8.6, "internal_energy": -4.35, "cluster_size": 6, "cluster_id": 8, "rank_in_cluster": 4}

>  <energy>  (12) 
-8.77

>  <cluster_rmsd>  (12) 
1.36

>  <cluster>  (12) 
1

$$$$

     RDKit          3D

 57 61  0  0  0  0  0  0  0  0999 V2000
  135.8980   74.1670  222.5780 O   0  0  0  0  0  0  0  0  0  0  0  0
  137.1290   74.3190  222.2920 C   0  0  0  0  0  0  0  0  0  0  0  0
  137.8130   73.1760  221.8140 N   0  0  0  0  0  0  0  0  0  0  0  0
  137.0910   71.9330  221.6840 C   0  0  0  0  0  0  0  0  0  0  0  0
  137.1690   71.1010  222.8890 C   0  0  0  0  0  0  0  0  0  0  0  0
  136.1350   70.7860  223.5470 O   0  0  0  0  0  0  0  0  0  0  0  0
  138.4440   70.6460  223.3140 N   0  0  0  0  0  0  0  0  0  0  0  0
  138.8470   69.2470  223.2550 C   0  0  0  0  0  0  0  0  0  0  0  0
  138.9080   68.7460  224.6650 C   0  0  0  0  0  0  0  0  0  0  0  0
  139.7290   69.6860  225.4860 C   0  0  0  0  0  0  0  0  0  0  0  0
  140.4020   70.7820  224.7340 C   0  0  0  0  0  0  0  0  0  0  0  0
  139.4600   71.5660  223.8500 C   0  0  1  0  0  0  0  0  0  0  0  0
  140.2760   72.0280  222.6910 C   0  0  0  0  0  0  0  0  0  0  0  0
  140.7300   73.2500  222.3930 N   0  0  0  0  0  0  0  0  0  0  0  0
  141.4360   73.2080  221.2340 C   0  0  0  0  0  0  0  0  0  0  0  0
  142.0940   74.3220  220.5650 C   0  0  0  0  0  0  0  0  0  0  0  0
  143.4710   74.3440  220.5040 C   0  0  0  0  0  0  0  0  0  0  0  0
  144.0460   75.4250  219.8580 C   0  0  0  0  0  0  0  0  0  0  0  0
  143.2790   76.4380  219.2960 C   0  0  0  0  0  0  0  0  0  0  0  0
  141.8850   76.3900  219.3730 C   0  0  0  0  0  0  0  0  0  0  0  0
  141.3100   75.3120  220.0180 C   0  0  0  0  0  0  0  0  0  0  0  0
  141.3890   71.8900  220.8380 C   0  0  0  0  0  0  0  0  0  0  0  0
  140.6940   71.2320  221.7300 O   0  0  0  0  0  0  0  0  0  0  0  0
  137.8040   75.6040  222.4460 C   0  0  0  0  0  0  0  0  0  0  0  0
  137.0030   76.7430  222.5290 C   0  0  0  0  0  0  0  0  0  0  0  0
  137.5460   78.0070  222.6770 C   0  0  0  0  0  0  0  0  0  0  0  0
  138.9220   78.0860  222.7380 C   0  0  0  0  0  0  0  0  0  0  0  0
  139.4860   79.3390  222.8860 C   0  0  0  0  0  0  0  0  0  0  0  0
  140.8770   79.4690  222.9520 C   0  0  0  0  0  0  0  0  0  0  0  0
  141.5760   81.0610  223.1380 Cl  0  0  0  0  0  0  0  0  0  0  0  0
  141.6490   78.3200  222.8670 C   0  0  0  0  0  0  0  0  0  0  0  0
  141.0680   77.0660  222.7190 C   0  0  0  0  0  0  0  0  0  0  0  0
  139.6930   76.9310  222.6520 C   0  0  0  0  0  0  0  0  0  0  0  0
  139.1350   75.7160  222.5090 N   0  0  0  0  0  0  0  0  0  0  0  0
  138.8320   73.2840  221.5730 H   0  0  0  0  0  0  0  0  0  0  0  0
  136.0339   72.1602  221.4818 H   0  0  0  0  0  0  0  0  0  0  0  0
  137.5518   71.3672  220.8609 H   0  0  0  0  0  0  0  0  0  0  0  0
  138.1108   68.6663  222.6798 H   0  0  0  0  0  0  0  0  0  0  0  0
  139.8235   69.1416  222.7597 H   0  0  0  0  0  0  0  0  0  0  0  0
  137.8906   68.6884  225.0792 H   0  0  0  0  0  0  0  0  0  0  0  0
  139.3648   67.7455  224.6819 H   0  0  0  0  0  0  0  0  0  0  0  0
  139.0678   70.1465  226.2349 H   0  0  0  0  0  0  0  0  0  0  0  0
  140.5378   69.0785  225.9182 H   0  0  0  0  0  0  0  0  0  0  0  0
  140.8582   71.4733  225.4579 H   0  0  0  0  0  0  0  0  0  0  0  0
  141.1515   70.3149  224.0782 H   0  0  0  0  0  0  0  0  0  0  0  0
  138.9848   72.3912  224.4007 H   0  0  0  0  0  0  0  0  0  0  0  0
  144.0819   73.5432  220.9462 H   0  0  0  0  0  0  0  0  0  0  0  0
  145.1422   75.4836  219.7876 H   0  0  0  0  0  0  0  0  0  0  0  0
  143.7712   77.2808  218.7886 H   0  0  0  0  0  0  0  0  0  0  0  0
  141.2648   77.1853  218.9340 H   0  0  0  0  0  0  0  0  0  0  0  0
  140.2148   75.2443  220.0951 H   0  0  0  0  0  0  0  0  0  0  0  0
  141.8523   71.4667  219.9346 H   0  0  0  0  0  0  0  0  0  0  0  0
  135.9098   76.6333  222.4753 H   0  0  0  0  0  0  0  0  0  0  0  0
  136.9124   78.9038  222.7427 H   0  0  0  0  0  0  0  0  0  0  0  0
  138.8440   80.2298  222.9516 H   0  0  0  0  0  0  0  0  0  0  0  0
  142.7447   78.4029  222.9178 H   0  0  0  0  0  0  0  0  0  0  0  0
  141.7072   76.1731  222.6546 H   0  0  0  0  0  0  0  0  0  0  0  0
  1  2  2  0
  2  3  1  0
  3  4  1  0
  4  5  1  0
  5  6  2  0
  5  7  1  0
  7  8  1  0
  8  9  1  0
  9 10  1  0
 10 11  1  0
 11 12  1  0
 12 13  1  0
 13 14  2  0
 14 15  1  0
 15 16  1  0
 16 17  2  0
 17 18  1  0
 18 19  2  0
 19 20  1  0
 20 21  2  0
 15 22  2  0
 22 23  1  0
  2 24  1  0
 24 25  2  0
 25 26  1  0
 26 27  2  0
 27 28  1  0
 28 29  2  0
 29 30  1  0
 29 31  1  0
 31 32  2  0
 32 33  1  0
 33 34  2  0
 12  7  1  0
 23 13  1  0
 34 24  1  0
 21 16  1  0
 33 27  1  0
  3 35  1  0
  4 36  1  0
  4 37  1  0
  8 38  1  0
  8 39  1  0
  9 40  1  0
  9 41  1  0
 10 42  1  0
 10 43  1  0
 11 44  1  0
 11 45  1  0
 12 46  1  1
 17 47  1  0
 18 48  1  0
 19 49  1  0
 20 50  1  0
 21 51  1  0
 22 52  1  0
 25 53  1  0
 26 54  1  0
 28 55  1  0
 31 56  1  0
 32 57  1  0
M  END
>  <smiles>  (13) 
O=C(NCC(=O)N1CCCC[C@H]1c1nc(-c2ccccc2)co1)c1ccc2cc(Cl)ccc2n1

>  <score_type>  (13) 
oracle

>  <origin>  (13) 
autodockgpu

>  <m_score__min__energy>  (13) 
-9.2699999999999996

>  <m_primary>  (13) 
energy

>  <rmsd>  (13) 
7.759860879254229

>  <m_score__min__rmsd>  (13) 
7.759860879254229

>  <meeko>  (13) 
{"free_energy": -7.47, "intermolecular_energy": -9.26, "internal_energy": -3.86, "cluster_size": 15, "cluster_id": 4, "rank_in_cluster": 11}

>  <energy>  (13) 
-8.74

>  <cluster_rmsd>  (13) 
1.42

>  <cluster>  (13) 
1

$$$$

     RDKit          3D

 57 61  0  0  0  0  0  0  0  0999 V2000
  137.5860   70.8010  221.1870 O   0  0  0  0  0  0  0  0  0  0  0  0
  137.8380   71.3840  222.2910 C   0  0  0  0  0  0  0  0  0  0  0  0
  137.5140   72.7590  222.3660 N   0  0  0  0  0  0  0  0  0  0  0  0
  136.9320   73.4050  221.2150 C   0  0  0  0  0  0  0  0  0  0  0  0
  137.8800   74.2730  220.5090 C   0  0  0  0  0  0  0  0  0  0  0  0
  137.5030   75.3290  219.9200 O   0  0  0  0  0  0  0  0  0  0  0  0
  139.2500   73.9050  220.4960 N   0  0  0  0  0  0  0  0  0  0  0  0
  139.8870   73.2630  219.3540 C   0  0  0  0  0  0  0  0  0  0  0  0
  140.1710   71.8450  219.7460 C   0  0  0  0  0  0  0  0  0  0  0  0
  140.8870   71.8330  221.0580 C   0  0  0  0  0  0  0  0  0  0  0  0
  141.2790   73.1660  221.5930 C   0  0  0  0  0  0  0  0  0  0  0  0
  140.1330   74.1490  221.6480 C   0  0  1  0  0  0  0  0  0  0  0  0
  140.7380   75.4960  221.4470 C   0  0  0  0  0  0  0  0  0  0  0  0
  140.7690   76.5550  222.2640 N   0  0  0  0  0  0  0  0  0  0  0  0
  141.4340   77.5760  221.6660 C   0  0  0  0  0  0  0  0  0  0  0  0
  141.6870   78.9020  222.2180 C   0  0  0  0  0  0  0  0  0  0  0  0
  141.4060   80.0090  221.4470 C   0  0  0  0  0  0  0  0  0  0  0  0
  141.6650   81.2430  222.0170 C   0  0  0  0  0  0  0  0  0  0  0  0
  142.1820   81.3650  223.3010 C   0  0  0  0  0  0  0  0  0  0  0  0
  142.4590   80.2250  224.0590 C   0  0  0  0  0  0  0  0  0  0  0  0
  142.2000   78.9930  223.4910 C   0  0  0  0  0  0  0  0  0  0  0  0
  141.8100   77.0840  220.4360 C   0  0  0  0  0  0  0  0  0  0  0  0
  141.3780   75.8520  220.3530 O   0  0  0  0  0  0  0  0  0  0  0  0
  138.4300   70.6750  223.4210 C   0  0  0  0  0  0  0  0  0  0  0  0
  138.1800   69.3060  223.5200 C   0  0  0  0  0  0  0  0  0  0  0  0
  138.6960   68.5440  224.5540 C   0  0  0  0  0  0  0  0  0  0  0  0
  139.4710   69.2070  225.4840 C   0  0  0  0  0  0  0  0  0  0  0  0
  139.9970   68.4650  226.5250 C   0  0  0  0  0  0  0  0  0  0  0  0
  140.7870   69.0930  227.4920 C   0  0  0  0  0  0  0  0  0  0  0  0
  141.4450   68.1420  228.8040 Cl  0  0  0  0  0  0  0  0  0  0  0  0
  141.0200   70.4540  227.3690 C   0  0  0  0  0  0  0  0  0  0  0  0
  140.4840   71.1880  226.3160 C   0  0  0  0  0  0  0  0  0  0  0  0
  139.7010   70.5730  225.3560 C   0  0  0  0  0  0  0  0  0  0  0  0
  139.1850   71.2860  224.3400 N   0  0  0  0  0  0  0  0  0  0  0  0
  137.7160   73.2580  223.2720 H   0  0  0  0  0  0  0  0  0  0  0  0
  136.5793   72.6302  220.5183 H   0  0  0  0  0  0  0  0  0  0  0  0
  136.1073   74.0386  221.5733 H   0  0  0  0  0  0  0  0  0  0  0  0
  139.2138   73.2862  218.4844 H   0  0  0  0  0  0  0  0  0  0  0  0
  140.8148   73.7859  219.0788 H   0  0  0  0  0  0  0  0  0  0  0  0
  139.2246   71.2919  219.8380 H   0  0  0  0  0  0  0  0  0  0  0  0
  140.7973   71.3672  218.9783 H   0  0  0  0  0  0  0  0  0  0  0  0
  140.2293   71.3524  221.7973 H   0  0  0  0  0  0  0  0  0  0  0  0
  141.8287   71.2931  220.8802 H   0  0  0  0  0  0  0  0  0  0  0  0
  141.6726   73.0314  222.6113 H   0  0  0  0  0  0  0  0  0  0  0  0
  142.0328   73.5826  220.9087 H   0  0  0  0  0  0  0  0  0  0  0  0
  139.5745   74.0625  222.5917 H   0  0  0  0  0  0  0  0  0  0  0  0
  140.9967   79.9164  220.4302 H   0  0  0  0  0  0  0  0  0  0  0  0
  141.4555   82.1538  221.4368 H   0  0  0  0  0  0  0  0  0  0  0  0
  142.3738   82.3630  223.7220 H   0  0  0  0  0  0  0  0  0  0  0  0
  142.8703   80.3058  225.0760 H   0  0  0  0  0  0  0  0  0  0  0  0
  142.4060   78.0757  224.0621 H   0  0  0  0  0  0  0  0  0  0  0  0
  142.3720   77.6285  219.6630 H   0  0  0  0  0  0  0  0  0  0  0  0
  137.5561   68.8191  222.7559 H   0  0  0  0  0  0  0  0  0  0  0  0
  138.4984   67.4646  224.6306 H   0  0  0  0  0  0  0  0  0  0  0  0
  139.7948   67.3858  226.5920 H   0  0  0  0  0  0  0  0  0  0  0  0
  141.6416   70.9641  228.1196 H   0  0  0  0  0  0  0  0  0  0  0  0
  140.6847   72.2673  226.2462 H   0  0  0  0  0  0  0  0  0  0  0  0
  1  2  2  0
  2  3  1  0
  3  4  1  0
  4  5  1  0
  5  6  2  0
  5  7  1  0
  7  8  1  0
  8  9  1  0
  9 10  1  0
 10 11  1  0
 11 12  1  0
 12 13  1  0
 13 14  2  0
 14 15  1  0
 15 16  1  0
 16 17  2  0
 17 18  1  0
 18 19  2  0
 19 20  1  0
 20 21  2  0
 15 22  2  0
 22 23  1  0
  2 24  1  0
 24 25  2  0
 25 26  1  0
 26 27  2  0
 27 28  1  0
 28 29  2  0
 29 30  1  0
 29 31  1  0
 31 32  2  0
 32 33  1  0
 33 34  2  0
 12  7  1  0
 23 13  1  0
 34 24  1  0
 21 16  1  0
 33 27  1  0
  3 35  1  0
  4 36  1  0
  4 37  1  0
  8 38  1  0
  8 39  1  0
  9 40  1  0
  9 41  1  0
 10 42  1  0
 10 43  1  0
 11 44  1  0
 11 45  1  0
 12 46  1  1
 17 47  1  0
 18 48  1  0
 19 49  1  0
 20 50  1  0
 21 51  1  0
 22 52  1  0
 25 53  1  0
 26 54  1  0
 28 55  1  0
 31 56  1  0
 32 57  1  0
M  END
>  <smiles>  (14) 
O=C(NCC(=O)N1CCCC[C@H]1c1nc(-c2ccccc2)co1)c1ccc2cc(Cl)ccc2n1

>  <score_type>  (14) 
oracle

>  <origin>  (14) 
autodockgpu

>  <m_score__min__energy>  (14) 
-9.2699999999999996

>  <m_primary>  (14) 
energy

>  <rmsd>  (14) 
3.0707450249975667

>  <m_score__min__rmsd>  (14) 
3.0707450249975667

>  <meeko>  (14) 
{"free_energy": -8.74, "intermolecular_energy": -10.53, "internal_energy": -2.46, "cluster_size": 13, "cluster_id": 1, "rank_in_cluster": 13}

>  <energy>  (14) 
-9.14

>  <cluster_rmsd>  (14) 
0.0

>  <cluster>  (14) 
2

$$$$

     RDKit          3D

 57 61  0  0  0  0  0  0  0  0999 V2000
  139.1600   75.6590  222.7300 O   0  0  0  0  0  0  0  0  0  0  0  0
  139.8460   75.7930  221.6650 C   0  0  0  0  0  0  0  0  0  0  0  0
  139.5890   76.9490  220.8910 N   0  0  0  0  0  0  0  0  0  0  0  0
  138.5870   77.8840  221.3410 C   0  0  0  0  0  0  0  0  0  0  0  0
  139.1400   78.9460  222.1880 C   0  0  0  0  0  0  0  0  0  0  0  0
  138.3930   79.7240  222.8520 O   0  0  0  0  0  0  0  0  0  0  0  0
  140.5500   79.0910  222.2560 N   0  0  0  0  0  0  0  0  0  0  0  0
  141.3890   78.2890  223.1370 C   0  0  0  0  0  0  0  0  0  0  0  0
  141.8850   79.1970  224.2200 C   0  0  0  0  0  0  0  0  0  0  0  0
  142.4760   80.4220  223.6010 C   0  0  0  0  0  0  0  0  0  0  0  0
  142.5750   80.4120  222.1150 C   0  0  0  0  0  0  0  0  0  0  0  0
  141.2720   80.0730  221.4300 C   0  0  1  0  0  0  0  0  0  0  0  0
  141.6420   79.3800  220.1640 C   0  0  0  0  0  0  0  0  0  0  0  0
  141.8390   78.0800  219.9210 N   0  0  0  0  0  0  0  0  0  0  0  0
  142.1620   77.9000  218.6150 C   0  0  0  0  0  0  0  0  0  0  0  0
  142.4550   76.6380  217.9470 C   0  0  0  0  0  0  0  0  0  0  0  0
  143.7050   76.4480  217.3990 C   0  0  0  0  0  0  0  0  0  0  0  0
  143.9300   75.2330  216.7760 C   0  0  0  0  0  0  0  0  0  0  0  0
  142.9500   74.2510  216.7050 C   0  0  0  0  0  0  0  0  0  0  0  0
  141.6910   74.4710  217.2690 C   0  0  0  0  0  0  0  0  0  0  0  0
  141.4660   75.6830  217.8910 C   0  0  0  0  0  0  0  0  0  0  0  0
  142.1520   79.1650  218.0700 C   0  0  0  0  0  0  0  0  0  0  0  0
  141.8390   80.0060  219.0220 O   0  0  0  0  0  0  0  0  0  0  0  0
  140.8470   74.8090  221.2630 C   0  0  0  0  0  0  0  0  0  0  0  0
  140.4500   73.4730  221.2160 C   0  0  0  0  0  0  0  0  0  0  0  0
  141.3230   72.4660  220.8460 C   0  0  0  0  0  0  0  0  0  0  0  0
  142.6090   72.8490  220.5250 C   0  0  0  0  0  0  0  0  0  0  0  0
  143.4990   71.8590  220.1520 C   0  0  0  0  0  0  0  0  0  0  0  0
  144.8140   72.1990  219.8180 C   0  0  0  0  0  0  0  0  0  0  0  0
  145.9280   70.9360  219.3500 Cl  0  0  0  0  0  0  0  0  0  0  0  0
  145.1810   73.5350  219.8730 C   0  0  0  0  0  0  0  0  0  0  0  0
  144.2760   74.5210  220.2500 C   0  0  0  0  0  0  0  0  0  0  0  0
  142.9740   74.1910  220.5810 C   0  0  0  0  0  0  0  0  0  0  0  0
  142.1020   75.1470  220.9450 N   0  0  0  0  0  0  0  0  0  0  0  0
  140.1470   77.0760  220.0070 H   0  0  0  0  0  0  0  0  0  0  0  0
  138.1166   78.3459  220.4604 H   0  0  0  0  0  0  0  0  0  0  0  0
  137.8589   77.3235  221.9458 H   0  0  0  0  0  0  0  0  0  0  0  0
  140.8014   77.4677  223.5730 H   0  0  0  0  0  0  0  0  0  0  0  0
  142.2292   77.8468  222.5816 H   0  0  0  0  0  0  0  0  0  0  0  0
  141.0473   79.4823  224.8734 H   0  0  0  0  0  0  0  0  0  0  0  0
  142.6500   78.6780  224.8162 H   0  0  0  0  0  0  0  0  0  0  0  0
  141.8542   81.2813  223.8924 H   0  0  0  0  0  0  0  0  0  0  0  0
  143.5110   80.4744  223.9698 H   0  0  0  0  0  0  0  0  0  0  0  0
  142.8960   81.4094  221.7801 H   0  0  0  0  0  0  0  0  0  0  0  0
  143.2986   79.6296  221.8427 H   0  0  0  0  0  0  0  0  0  0  0  0
  140.6580   80.9710  221.2670 H   0  0  0  0  0  0  0  0  0  0  0  0
  144.4841   77.2225  217.4540 H   0  0  0  0  0  0  0  0  0  0  0  0
  144.9138   75.0391  216.3237 H   0  0  0  0  0  0  0  0  0  0  0  0
  143.1662   73.2965  216.2028 H   0  0  0  0  0  0  0  0  0  0  0  0
  140.9045   73.7036  217.2192 H   0  0  0  0  0  0  0  0  0  0  0  0
  140.4858   75.8872  218.3466 H   0  0  0  0  0  0  0  0  0  0  0  0
  142.3683   79.4219  217.0225 H   0  0  0  0  0  0  0  0  0  0  0  0
  139.4144   73.2130  221.4804 H   0  0  0  0  0  0  0  0  0  0  0  0
  141.0078   71.4128  220.8095 H   0  0  0  0  0  0  0  0  0  0  0  0
  143.1744   70.8085  220.1180 H   0  0  0  0  0  0  0  0  0  0  0  0
  146.2107   73.8211  219.6127 H   0  0  0  0  0  0  0  0  0  0  0  0
  144.5980   75.5722  220.2853 H   0  0  0  0  0  0  0  0  0  0  0  0
  1  2  2  0
  2  3  1  0
  3  4  1  0
  4  5  1  0
  5  6  2  0
  5  7  1  0
  7  8  1  0
  8  9  1  0
  9 10  1  0
 10 11  1  0
 11 12  1  0
 12 13  1  0
 13 14  2  0
 14 15  1  0
 15 16  1  0
 16 17  2  0
 17 18  1  0
 18 19  2  0
 19 20  1  0
 20 21  2  0
 15 22  2  0
 22 23  1  0
  2 24  1  0
 24 25  2  0
 25 26  1  0
 26 27  2  0
 27 28  1  0
 28 29  2  0
 29 30  1  0
 29 31  1  0
 31 32  2  0
 32 33  1  0
 33 34  2  0
 12  7  1  0
 23 13  1  0
 34 24  1  0
 21 16  1  0
 33 27  1  0
  3 35  1  0
  4 36  1  0
  4 37  1  0
  8 38  1  0
  8 39  1  0
  9 40  1  0
  9 41  1  0
 10 42  1  0
 10 43  1  0
 11 44  1  0
 11 45  1  0
 12 46  1  6
 17 47  1  0
 18 48  1  0
 19 49  1  0
 20 50  1  0
 21 51  1  0
 22 52  1  0
 25 53  1  0
 26 54  1  0
 28 55  1  0
 31 56  1  0
 32 57  1  0
M  END
>  <smiles>  (15) 
O=C(NCC(=O)N1CCCC[C@H]1c1nc(-c2ccccc2)co1)c1ccc2cc(Cl)ccc2n1

>  <score_type>  (15) 
oracle

>  <origin>  (15) 
autodockgpu

>  <m_score__min__energy>  (15) 
-9.2699999999999996

>  <m_primary>  (15) 
energy

>  <rmsd>  (15) 
6.709157330784763

>  <m_score__min__rmsd>  (15) 
6.709157330784763

>  <meeko>  (15) 
{"free_energy": -6.74, "intermolecular_energy": -8.53, "internal_energy": -4.46, "cluster_size": 6, "cluster_id": 6, "rank_in_cluster": 3}

>  <energy>  (15) 
-9.02

>  <cluster_rmsd>  (15) 
1.21

>  <cluster>  (15) 
2

$$$$

     RDKit          3D

 57 61  0  0  0  0  0  0  0  0999 V2000
  136.0960   74.5390  221.2370 O   0  0  0  0  0  0  0  0  0  0  0  0
  137.2360   74.6190  221.8000 C   0  0  0  0  0  0  0  0  0  0  0  0
  137.7610   73.4190  222.3340 N   0  0  0  0  0  0  0  0  0  0  0  0
  136.9920   72.2040  222.2150 C   0  0  0  0  0  0  0  0  0  0  0  0
  137.1610   71.3090  223.3640 C   0  0  0  0  0  0  0  0  0  0  0  0
  136.2030   71.0490  224.1510 O   0  0  0  0  0  0  0  0  0  0  0  0
  138.4370   70.7280  223.5860 N   0  0  0  0  0  0  0  0  0  0  0  0
  138.7110   69.3130  223.3760 C   0  0  0  0  0  0  0  0  0  0  0  0
  138.9040   68.6960  224.7270 C   0  0  0  0  0  0  0  0  0  0  0  0
  139.8970   69.5040  225.4980 C   0  0  0  0  0  0  0  0  0  0  0  0
  140.5600   70.6040  224.7440 C   0  0  0  0  0  0  0  0  0  0  0  0
  139.5850   71.5250  224.0480 C   0  0  1  0  0  0  0  0  0  0  0  0
  140.2850   72.0180  222.8290 C   0  0  0  0  0  0  0  0  0  0  0  0
  140.6450   73.2600  222.4870 N   0  0  0  0  0  0  0  0  0  0  0  0
  141.2650   73.2430  221.2800 C   0  0  0  0  0  0  0  0  0  0  0  0
  141.8080   74.3840  220.5540 C   0  0  0  0  0  0  0  0  0  0  0  0
  140.9360   75.2840  219.9800 C   0  0  0  0  0  0  0  0  0  0  0  0
  141.5030   76.3490  219.3020 C   0  0  0  0  0  0  0  0  0  0  0  0
  142.8800   76.5080  219.2030 C   0  0  0  0  0  0  0  0  0  0  0  0
  143.7390   75.5800  219.7950 C   0  0  0  0  0  0  0  0  0  0  0  0
  143.1750   74.5170  220.4720 C   0  0  0  0  0  0  0  0  0  0  0  0
  141.2660   71.9190  220.9010 C   0  0  0  0  0  0  0  0  0  0  0  0
  140.6780   71.2340  221.8470 O   0  0  0  0  0  0  0  0  0  0  0  0
  137.9660   75.8800  221.8890 C   0  0  0  0  0  0  0  0  0  0  0  0
  137.3400   77.0200  221.3840 C   0  0  0  0  0  0  0  0  0  0  0  0
  137.9480   78.2620  221.4230 C   0  0  0  0  0  0  0  0  0  0  0  0
  139.2070   78.3180  221.9850 C   0  0  0  0  0  0  0  0  0  0  0  0
  139.8330   79.5490  222.0340 C   0  0  0  0  0  0  0  0  0  0  0  0
  141.1100   79.6550  222.5940 C   0  0  0  0  0  0  0  0  0  0  0  0
  141.8890   81.2190  222.6470 Cl  0  0  0  0  0  0  0  0  0  0  0  0
  141.7080   78.5060  223.0880 C   0  0  0  0  0  0  0  0  0  0  0  0
  141.0660   77.2730  223.0330 C   0  0  0  0  0  0  0  0  0  0  0  0
  139.8040   77.1620  222.4790 C   0  0  0  0  0  0  0  0  0  0  0  0
  139.1870   75.9690  222.4270 N   0  0  0  0  0  0  0  0  0  0  0  0
  138.7030   73.4660  222.8030 H   0  0  0  0  0  0  0  0  0  0  0  0
  135.9278   72.4688  222.1294 H   0  0  0  0  0  0  0  0  0  0  0  0
  137.3530   71.6699  221.3237 H   0  0  0  0  0  0  0  0  0  0  0  0
  137.8633   68.8369  222.8615 H   0  0  0  0  0  0  0  0  0  0  0  0
  139.6064   69.1763  222.7519 H   0  0  0  0  0  0  0  0  0  0  0  0
  137.9447   68.6807  225.2651 H   0  0  0  0  0  0  0  0  0  0  0  0
  139.2732   67.6660  224.6139 H   0  0  0  0  0  0  0  0  0  0  0  0
  139.3752   69.9502  226.3574 H   0  0  0  0  0  0  0  0  0  0  0  0
  140.6998   68.8056  225.7768 H   0  0  0  0  0  0  0  0  0  0  0  0
  141.1592   71.1987  225.4492 H   0  0  0  0  0  0  0  0  0  0  0  0
  141.1795   70.1368  223.9643 H   0  0  0  0  0  0  0  0  0  0  0  0
  139.2533   72.3364  224.7125 H   0  0  0  0  0  0  0  0  0  0  0  0
  139.8455   75.1620  220.0568 H   0  0  0  0  0  0  0  0  0  0  0  0
  140.8444   77.0914  218.8276 H   0  0  0  0  0  0  0  0  0  0  0  0
  143.2946   77.3679  218.6564 H   0  0  0  0  0  0  0  0  0  0  0  0
  144.8310   75.6923  219.7242 H   0  0  0  0  0  0  0  0  0  0  0  0
  143.8247   73.7693  220.9504 H   0  0  0  0  0  0  0  0  0  0  0  0
  141.6860   71.5110  219.9698 H   0  0  0  0  0  0  0  0  0  0  0  0
  136.3363   76.9288  220.9431 H   0  0  0  0  0  0  0  0  0  0  0  0
  137.4525   79.1602  221.0258 H   0  0  0  0  0  0  0  0  0  0  0  0
  139.3291   80.4414  221.6343 H   0  0  0  0  0  0  0  0  0  0  0  0
  142.7118   78.5706  223.5331 H   0  0  0  0  0  0  0  0  0  0  0  0
  141.5665   76.3791  223.4335 H   0  0  0  0  0  0  0  0  0  0  0  0
  1  2  2  0
  2  3  1  0
  3  4  1  0
  4  5  1  0
  5  6  2  0
  5  7  1  0
  7  8  1  0
  8  9  1  0
  9 10  1  0
 10 11  1  0
 11 12  1  0
 12 13  1  0
 13 14  2  0
 14 15  1  0
 15 16  1  0
 16 17  2  0
 17 18  1  0
 18 19  2  0
 19 20  1  0
 20 21  2  0
 15 22  2  0
 22 23  1  0
  2 24  1  0
 24 25  2  0
 25 26  1  0
 26 27  2  0
 27 28  1  0
 28 29  2  0
 29 30  1  0
 29 31  1  0
 31 32  2  0
 32 33  1  0
 33 34  2  0
 12  7  1  0
 23 13  1  0
 34 24  1  0
 21 16  1  0
 33 27  1  0
  3 35  1  0
  4 36  1  0
  4 37  1  0
  8 38  1  0
  8 39  1  0
  9 40  1  0
  9 41  1  0
 10 42  1  0
 10 43  1  0
 11 44  1  0
 11 45  1  0
 12 46  1  1
 17 47  1  0
 18 48  1  0
 19 49  1  0
 20 50  1  0
 21 51  1  0
 22 52  1  0
 25 53  1  0
 26 54  1  0
 28 55  1  0
 31 56  1  0
 32 57  1  0
M  END
>  <smiles>  (16) 
O=C(NCC(=O)N1CCCC[C@H]1c1nc(-c2ccccc2)co1)c1ccc2cc(Cl)ccc2n1

>  <score_type>  (16) 
oracle

>  <origin>  (16) 
autodockgpu

>  <m_score__min__energy>  (16) 
-9.2699999999999996

>  <m_primary>  (16) 
energy

>  <rmsd>  (16) 
7.846000244025296

>  <m_score__min__rmsd>  (16) 
7.846000244025296

>  <meeko>  (16) 
{"free_energy": -7.57, "intermolecular_energy": -9.36, "internal_energy": -3.95, "cluster_size": 15, "cluster_id": 4, "rank_in_cluster": 10}

>  <energy>  (16) 
-8.95

>  <cluster_rmsd>  (16) 
0.61

>  <cluster>  (16) 
2

$$$$

     RDKit          3D

 57 61  0  0  0  0  0  0  0  0999 V2000
  135.3230   77.3680  223.4800 O   0  0  0  0  0  0  0  0  0  0  0  0
  136.2240   78.1730  223.0750 C   0  0  0  0  0  0  0  0  0  0  0  0
  135.9320   79.5530  223.1830 N   0  0  0  0  0  0  0  0  0  0  0  0
  134.6610   79.9580  223.7310 C   0  0  0  0  0  0  0  0  0  0  0  0
  134.7360   80.2860  225.1580 C   0  0  0  0  0  0  0  0  0  0  0  0
  134.0110   79.6980  226.0150 O   0  0  0  0  0  0  0  0  0  0  0  0
  135.6480   81.2900  225.5740 N   0  0  0  0  0  0  0  0  0  0  0  0
  136.3150   81.2690  226.8690 C   0  0  0  0  0  0  0  0  0  0  0  0
  135.7200   82.3720  227.6900 C   0  0  0  0  0  0  0  0  0  0  0  0
  135.7440   83.6400  226.9010 C   0  0  0  0  0  0  0  0  0  0  0  0
  136.4540   83.5740  225.5930 C   0  0  0  0  0  0  0  0  0  0  0  0
  135.9870   82.4370  224.7150 C   0  0  1  0  0  0  0  0  0  0  0  0
  137.1710   82.0320  223.9060 C   0  0  0  0  0  0  0  0  0  0  0  0
  138.2680   81.3570  224.2650 N   0  0  0  0  0  0  0  0  0  0  0  0
  139.0890   81.2120  223.1940 C   0  0  0  0  0  0  0  0  0  0  0  0
  140.3820   80.5400  223.1630 C   0  0  0  0  0  0  0  0  0  0  0  0
  140.5460   79.3760  223.8820 C   0  0  0  0  0  0  0  0  0  0  0  0
  141.7930   78.7780  223.8190 C   0  0  0  0  0  0  0  0  0  0  0  0
  142.8290   79.3200  223.0680 C   0  0  0  0  0  0  0  0  0  0  0  0
  142.6350   80.5010  222.3490 C   0  0  0  0  0  0  0  0  0  0  0  0
  141.3910   81.0980  222.4110 C   0  0  0  0  0  0  0  0  0  0  0  0
  138.4340   81.8370  222.1560 C   0  0  0  0  0  0  0  0  0  0  0  0
  137.3050   82.3050  222.6240 O   0  0  0  0  0  0  0  0  0  0  0  0
  137.4920   77.6990  222.5280 C   0  0  0  0  0  0  0  0  0  0  0  0
  137.9210   76.4290  222.9120 C   0  0  0  0  0  0  0  0  0  0  0  0
  139.1090   75.8900  222.4490 C   0  0  0  0  0  0  0  0  0  0  0  0
  139.8490   76.6730  221.5860 C   0  0  0  0  0  0  0  0  0  0  0  0
  141.0380   76.1550  221.1110 C   0  0  0  0  0  0  0  0  0  0  0  0
  141.8230   76.9110  220.2350 C   0  0  0  0  0  0  0  0  0  0  0  0
  143.3250   76.2420  219.6430 Cl  0  0  0  0  0  0  0  0  0  0  0  0
  141.3710   78.1700  219.8690 C   0  0  0  0  0  0  0  0  0  0  0  0
  140.1720   78.6800  220.3550 C   0  0  0  0  0  0  0  0  0  0  0  0
  139.3920   77.9360  221.2220 C   0  0  0  0  0  0  0  0  0  0  0  0
  138.2340   78.4320  221.6900 N   0  0  0  0  0  0  0  0  0  0  0  0
  136.6660   80.2330  222.8530 H   0  0  0  0  0  0  0  0  0  0  0  0
  134.3094   80.8455  223.1844 H   0  0  0  0  0  0  0  0  0  0  0  0
  133.9682   79.1105  223.6220 H   0  0  0  0  0  0  0  0  0  0  0  0
  136.1497   80.3000  227.3627 H   0  0  0  0  0  0  0  0  0  0  0  0
  137.3998   81.4096  226.7526 H   0  0  0  0  0  0  0  0  0  0  0  0
  134.6811   82.1190  227.9482 H   0  0  0  0  0  0  0  0  0  0  0  0
  136.3032   82.5007  228.6138 H   0  0  0  0  0  0  0  0  0  0  0  0
  134.7028   83.9362  226.7057 H   0  0  0  0  0  0  0  0  0  0  0  0
  136.3064   84.3620  227.5112 H   0  0  0  0  0  0  0  0  0  0  0  0
  136.2868   84.5200  225.0571 H   0  0  0  0  0  0  0  0  0  0  0  0
  137.5187   83.4019  225.8092 H   0  0  0  0  0  0  0  0  0  0  0  0
  135.1235   82.7316  224.1005 H   0  0  0  0  0  0  0  0  0  0  0  0
  139.7274   78.9437  224.4761 H   0  0  0  0  0  0  0  0  0  0  0  0
  141.9687   77.8477  224.3791 H   0  0  0  0  0  0  0  0  0  0  0  0
  143.8065   78.8162  223.0398 H   0  0  0  0  0  0  0  0  0  0  0  0
  143.4470   80.9420  221.7522 H   0  0  0  0  0  0  0  0  0  0  0  0
  141.2048   82.0282  221.8542 H   0  0  0  0  0  0  0  0  0  0  0  0
  138.7947   81.9266  221.1207 H   0  0  0  0  0  0  0  0  0  0  0  0
  137.2986   75.8396  223.6014 H   0  0  0  0  0  0  0  0  0  0  0  0
  139.4463   74.8882  222.7534 H   0  0  0  0  0  0  0  0  0  0  0  0
  141.3661   75.1517  221.4206 H   0  0  0  0  0  0  0  0  0  0  0  0
  141.9741   78.7785  219.1791 H   0  0  0  0  0  0  0  0  0  0  0  0
  139.8412   79.6830  220.0475 H   0  0  0  0  0  0  0  0  0  0  0  0
  1  2  2  0
  2  3  1  0
  3  4  1  0
  4  5  1  0
  5  6  2  0
  5  7  1  0
  7  8  1  0
  8  9  1  0
  9 10  1  0
 10 11  1  0
 11 12  1  0
 12 13  1  0
 13 14  2  0
 14 15  1  0
 15 16  1  0
 16 17  2  0
 17 18  1  0
 18 19  2  0
 19 20  1  0
 20 21  2  0
 15 22  2  0
 22 23  1  0
  2 24  1  0
 24 25  2  0
 25 26  1  0
 26 27  2  0
 27 28  1  0
 28 29  2  0
 29 30  1  0
 29 31  1  0
 31 32  2  0
 32 33  1  0
 33 34  2  0
 12  7  1  0
 23 13  1  0
 34 24  1  0
 21 16  1  0
 33 27  1  0
  3 35  1  0
  4 36  1  0
  4 37  1  0
  8 38  1  0
  8 39  1  0
  9 40  1  0
  9 41  1  0
 10 42  1  0
 10 43  1  0
 11 44  1  0
 11 45  1  0
 12 46  1  6
 17 47  1  0
 18 48  1  0
 19 49  1  0
 20 50  1  0
 21 51  1  0
 22 52  1  0
 25 53  1  0
 26 54  1  0
 28 55  1  0
 31 56  1  0
 32 57  1  0
M  END
>  <smiles>  (17) 
O=C(NCC(=O)N1CCCC[C@H]1c1nc(-c2ccccc2)co1)c1ccc2cc(Cl)ccc2n1

>  <score_type>  (17) 
oracle

>  <origin>  (17) 
autodockgpu

>  <m_score__min__energy>  (17) 
-9.2699999999999996

>  <m_primary>  (17) 
energy

>  <rmsd>  (17) 
8.484449380513594

>  <m_score__min__rmsd>  (17) 
8.484449380513594

>  <meeko>  (17) 
{"free_energy": -6.75, "intermolecular_energy": -8.54, "internal_energy": -4.65, "cluster_size": 1, "cluster_id": 9, "rank_in_cluster": 1}

>  <energy>  (17) 
-8.92

>  <cluster_rmsd>  (17) 
0.22

>  <cluster>  (17) 
2

$$$$

     RDKit          3D

 57 61  0  0  0  0  0  0  0  0999 V2000
  136.8320   75.1180  221.0220 O   0  0  0  0  0  0  0  0  0  0  0  0
  137.8240   74.9500  221.8030 C   0  0  0  0  0  0  0  0  0  0  0  0
  137.9970   73.6490  222.3320 N   0  0  0  0  0  0  0  0  0  0  0  0
  137.0600   72.6140  221.9660 C   0  0  0  0  0  0  0  0  0  0  0  0
  136.9630   71.5530  222.9730 C   0  0  0  0  0  0  0  0  0  0  0  0
  135.8640   71.2680  223.5340 O   0  0  0  0  0  0  0  0  0  0  0  0
  138.1390   70.8380  223.3160 N   0  0  0  0  0  0  0  0  0  0  0  0
  138.2500   69.3900  223.1970 C   0  0  0  0  0  0  0  0  0  0  0  0
  138.2750   68.8340  224.5880 C   0  0  0  0  0  0  0  0  0  0  0  0
  139.3060   69.5600  225.3890 C   0  0  0  0  0  0  0  0  0  0  0  0
  140.1480   70.5280  224.6340 C   0  0  0  0  0  0  0  0  0  0  0  0
  139.3430   71.5170  223.8230 C   0  0  1  0  0  0  0  0  0  0  0  0
  140.1790   71.8510  222.6360 C   0  0  0  0  0  0  0  0  0  0  0  0
  140.8110   72.9880  222.3220 N   0  0  0  0  0  0  0  0  0  0  0  0
  141.4590   72.8420  221.1390 C   0  0  0  0  0  0  0  0  0  0  0  0
  142.2620   73.8420  220.4470 C   0  0  0  0  0  0  0  0  0  0  0  0
  143.5700   74.0320  220.8350 C   0  0  0  0  0  0  0  0  0  0  0  0
  144.2880   74.9940  220.1460 C   0  0  0  0  0  0  0  0  0  0  0  0
  143.7230   75.7320  219.1140 C   0  0  0  0  0  0  0  0  0  0  0  0
  142.3940   75.5190  218.7410 C   0  0  0  0  0  0  0  0  0  0  0  0
  141.6770   74.5590  219.4280 C   0  0  0  0  0  0  0  0  0  0  0  0
  141.1900   71.5500  220.7440 C   0  0  0  0  0  0  0  0  0  0  0  0
  140.4320   71.0050  221.6600 O   0  0  0  0  0  0  0  0  0  0  0  0
  138.7370   76.0390  222.1360 C   0  0  0  0  0  0  0  0  0  0  0  0
  140.0980   75.8230  221.9200 C   0  0  0  0  0  0  0  0  0  0  0  0
  141.0430   76.7930  222.2030 C   0  0  0  0  0  0  0  0  0  0  0  0
  140.5730   77.9870  222.7100 C   0  0  0  0  0  0  0  0  0  0  0  0
  141.5000   78.9700  223.0000 C   0  0  0  0  0  0  0  0  0  0  0  0
  141.0710   80.1960  223.5170 C   0  0  0  0  0  0  0  0  0  0  0  0
  142.2550   81.4300  223.8790 Cl  0  0  0  0  0  0  0  0  0  0  0  0
  139.7120   80.3840  223.7210 C   0  0  0  0  0  0  0  0  0  0  0  0
  138.7900   79.3850  223.4250 C   0  0  0  0  0  0  0  0  0  0  0  0
  139.2090   78.1700  222.9140 C   0  0  0  0  0  0  0  0  0  0  0  0
  138.3140   77.2080  222.6290 N   0  0  0  0  0  0  0  0  0  0  0  0
  138.8120   73.4920  222.9800 H   0  0  0  0  0  0  0  0  0  0  0  0
  136.0666   73.0687  221.8378 H   0  0  0  0  0  0  0  0  0  0  0  0
  137.4218   72.1542  221.0345 H   0  0  0  0  0  0  0  0  0  0  0  0
  137.3863   68.9894  222.6461 H   0  0  0  0  0  0  0  0  0  0  0  0
  139.1613   69.1111  222.6476 H   0  0  0  0  0  0  0  0  0  0  0  0
  137.2874   68.9650  225.0543 H   0  0  0  0  0  0  0  0  0  0  0  0
  138.5212   67.7625  224.5532 H   0  0  0  0  0  0  0  0  0  0  0  0
  138.7869   70.1134  226.1855 H   0  0  0  0  0  0  0  0  0  0  0  0
  139.9964   68.7875  225.7586 H   0  0  0  0  0  0  0  0  0  0  0  0
  140.7662   71.0868  225.3520 H   0  0  0  0  0  0  0  0  0  0  0  0
  140.7570   69.9464  223.9263 H   0  0  0  0  0  0  0  0  0  0  0  0
  139.0699   72.3989  224.4210 H   0  0  0  0  0  0  0  0  0  0  0  0
  144.0211   73.4486  221.6512 H   0  0  0  0  0  0  0  0  0  0  0  0
  145.3361   75.1793  220.4237 H   0  0  0  0  0  0  0  0  0  0  0  0
  144.3249   76.4877  218.5880 H   0  0  0  0  0  0  0  0  0  0  0  0
  141.9332   76.0971  217.9264 H   0  0  0  0  0  0  0  0  0  0  0  0
  140.6283   74.3655  219.1582 H   0  0  0  0  0  0  0  0  0  0  0  0
  141.5481   71.0644  219.8242 H   0  0  0  0  0  0  0  0  0  0  0  0
  140.4287   74.8557  221.5138 H   0  0  0  0  0  0  0  0  0  0  0  0
  142.1159   76.6208  222.0323 H   0  0  0  0  0  0  0  0  0  0  0  0
  142.5707   78.7886  222.8248 H   0  0  0  0  0  0  0  0  0  0  0  0
  139.3557   81.3430  224.1252 H   0  0  0  0  0  0  0  0  0  0  0  0
  137.7185   79.5630  223.5989 H   0  0  0  0  0  0  0  0  0  0  0  0
  1  2  2  0
  2  3  1  0
  3  4  1  0
  4  5  1  0
  5  6  2  0
  5  7  1  0
  7  8  1  0
  8  9  1  0
  9 10  1  0
 10 11  1  0
 11 12  1  0
 12 13  1  0
 13 14  2  0
 14 15  1  0
 15 16  1  0
 16 17  2  0
 17 18  1  0
 18 19  2  0
 19 20  1  0
 20 21  2  0
 15 22  2  0
 22 23  1  0
  2 24  1  0
 24 25  2  0
 25 26  1  0
 26 27  2  0
 27 28  1  0
 28 29  2  0
 29 30  1  0
 29 31  1  0
 31 32  2  0
 32 33  1  0
 33 34  2  0
 12  7  1  0
 23 13  1  0
 34 24  1  0
 21 16  1  0
 33 27  1  0
  3 35  1  0
  4 36  1  0
  4 37  1  0
  8 38  1  0
  8 39  1  0
  9 40  1  0
  9 41  1  0
 10 42  1  0
 10 43  1  0
 11 44  1  0
 11 45  1  0
 12 46  1  1
 17 47  1  0
 18 48  1  0
 19 49  1  0
 20 50  1  0
 21 51  1  0
 22 52  1  0
 25 53  1  0
 26 54  1  0
 28 55  1  0
 31 56  1  0
 32 57  1  0
M  END
>  <smiles>  (18) 
O=C(NCC(=O)N1CCCC[C@H]1c1nc(-c2ccccc2)co1)c1ccc2cc(Cl)ccc2n1

>  <score_type>  (18) 
oracle

>  <origin>  (18) 
autodockgpu

>  <m_score__min__energy>  (18) 
-9.2699999999999996

>  <m_primary>  (18) 
energy

>  <rmsd>  (18) 
7.97363532806009

>  <m_score__min__rmsd>  (18) 
7.97363532806009

>  <meeko>  (18) 
{"free_energy": -8.07, "intermolecular_energy": -9.86, "internal_energy": -2.96, "cluster_size": 15, "cluster_id": 4, "rank_in_cluster": 4}

>  <energy>  (18) 
-8.36

>  <cluster_rmsd>  (18) 
0.0

>  <cluster>  (18) 
3

$$$$

     RDKit          3D

 57 61  0  0  0  0  0  0  0  0999 V2000
  135.4080   74.7060  222.5310 O   0  0  0  0  0  0  0  0  0  0  0  0
  136.6790   74.6920  222.6100 C   0  0  0  0  0  0  0  0  0  0  0  0
  137.2960   73.4200  222.6470 N   0  0  0  0  0  0  0  0  0  0  0  0
  136.4680   72.2390  222.5970 C   0  0  0  0  0  0  0  0  0  0  0  0
  136.7580   71.2940  223.6790 C   0  0  0  0  0  0  0  0  0  0  0  0
  135.8920   71.0000  224.5550 O   0  0  0  0  0  0  0  0  0  0  0  0
  138.0480   70.7040  223.7330 N   0  0  0  0  0  0  0  0  0  0  0  0
  138.2930   69.3050  223.4090 C   0  0  0  0  0  0  0  0  0  0  0  0
  138.6220   68.6060  224.6930 C   0  0  0  0  0  0  0  0  0  0  0  0
  139.6920   69.3670  225.4060 C   0  0  0  0  0  0  0  0  0  0  0  0
  140.2780   70.5130  224.6570 C   0  0  0  0  0  0  0  0  0  0  0  0
  139.2400   71.4730  224.1230 C   0  0  1  0  0  0  0  0  0  0  0  0
  139.8140   72.0420  222.8710 C   0  0  0  0  0  0  0  0  0  0  0  0
  140.6930   73.0350  222.7020 N   0  0  0  0  0  0  0  0  0  0  0  0
  140.9330   73.2160  221.3780 C   0  0  0  0  0  0  0  0  0  0  0  0
  141.8270   74.1950  220.7730 C   0  0  0  0  0  0  0  0  0  0  0  0
  141.2870   75.3300  220.2080 C   0  0  0  0  0  0  0  0  0  0  0  0
  142.1780   76.2280  219.6460 C   0  0  0  0  0  0  0  0  0  0  0  0
  143.5490   76.0000  219.6500 C   0  0  0  0  0  0  0  0  0  0  0  0
  144.0680   74.8410  220.2290 C   0  0  0  0  0  0  0  0  0  0  0  0
  143.1800   73.9450  220.7900 C   0  0  0  0  0  0  0  0  0  0  0  0
  140.1520   72.2760  220.7440 C   0  0  0  0  0  0  0  0  0  0  0  0
  139.5100   71.6060  221.6660 O   0  0  0  0  0  0  0  0  0  0  0  0
  137.4620   75.9230  222.6580 C   0  0  0  0  0  0  0  0  0  0  0  0
  136.7610   77.1280  222.6910 C   0  0  0  0  0  0  0  0  0  0  0  0
  137.4120   78.3490  222.7380 C   0  0  0  0  0  0  0  0  0  0  0  0
  138.7910   78.3150  222.7500 C   0  0  0  0  0  0  0  0  0  0  0  0
  139.4610   79.5230  222.7970 C   0  0  0  0  0  0  0  0  0  0  0  0
  140.8590   79.5390  222.8110 C   0  0  0  0  0  0  0  0  0  0  0  0
  141.6930   81.0740  222.8690 Cl  0  0  0  0  0  0  0  0  0  0  0  0
  141.5310   78.3260  222.7770 C   0  0  0  0  0  0  0  0  0  0  0  0
  140.8440   77.1180  222.7300 C   0  0  0  0  0  0  0  0  0  0  0  0
  139.4610   77.0960  222.7160 C   0  0  0  0  0  0  0  0  0  0  0  0
  138.8000   75.9260  222.6710 N   0  0  0  0  0  0  0  0  0  0  0  0
  138.3470   73.3890  222.7120 H   0  0  0  0  0  0  0  0  0  0  0  0
  135.4142   72.5455  222.6715 H   0  0  0  0  0  0  0  0  0  0  0  0
  136.6788   71.7276  221.6462 H   0  0  0  0  0  0  0  0  0  0  0  0
  137.3947   68.8597  222.9565 H   0  0  0  0  0  0  0  0  0  0  0  0
  139.1186   69.2089  222.6885 H   0  0  0  0  0  0  0  0  0  0  0  0
  137.7232   68.5551  225.3251 H   0  0  0  0  0  0  0  0  0  0  0  0
  138.9737   67.5860  224.4791 H   0  0  0  0  0  0  0  0  0  0  0  0
  139.2631   69.7579  226.3405 H   0  0  0  0  0  0  0  0  0  0  0  0
  140.5165   68.6547  225.5572 H   0  0  0  0  0  0  0  0  0  0  0  0
  140.9489   71.0646  225.3320 H   0  0  0  0  0  0  0  0  0  0  0  0
  140.8121   70.0962  223.7904 H   0  0  0  0  0  0  0  0  0  0  0  0
  138.9811   72.2408  224.8669 H   0  0  0  0  0  0  0  0  0  0  0  0
  140.2024   75.5132  220.2038 H   0  0  0  0  0  0  0  0  0  0  0  0
  141.7902   77.1476  219.1834 H   0  0  0  0  0  0  0  0  0  0  0  0
  144.2279   76.7361  219.1949 H   0  0  0  0  0  0  0  0  0  0  0  0
  145.1508   74.6475  220.2381 H   0  0  0  0  0  0  0  0  0  0  0  0
  143.5577   73.0224  221.2550 H   0  0  0  0  0  0  0  0  0  0  0  0
  140.0807   72.1170  219.6579 H   0  0  0  0  0  0  0  0  0  0  0  0
  135.6612   77.1079  222.6794 H   0  0  0  0  0  0  0  0  0  0  0  0
  136.8574   79.2986  222.7645 H   0  0  0  0  0  0  0  0  0  0  0  0
  138.8971   80.4671  222.8232 H   0  0  0  0  0  0  0  0  0  0  0  0
  142.6309   78.3196  222.7874 H   0  0  0  0  0  0  0  0  0  0  0  0
  141.4049   76.1721  222.7037 H   0  0  0  0  0  0  0  0  0  0  0  0
  1  2  2  0
  2  3  1  0
  3  4  1  0
  4  5  1  0
  5  6  2  0
  5  7  1  0
  7  8  1  0
  8  9  1  0
  9 10  1  0
 10 11  1  0
 11 12  1  0
 12 13  1  0
 13 14  2  0
 14 15  1  0
 15 16  1  0
 16 17  2  0
 17 18  1  0
 18 19  2  0
 19 20  1  0
 20 21  2  0
 15 22  2  0
 22 23  1  0
  2 24  1  0
 24 25  2  0
 25 26  1  0
 26 27  2  0
 27 28  1  0
 28 29  2  0
 29 30  1  0
 29 31  1  0
 31 32  2  0
 32 33  1  0
 33 34  2  0
 12  7  1  0
 23 13  1  0
 34 24  1  0
 21 16  1  0
 33 27  1  0
  3 35  1  0
  4 36  1  0
  4 37  1  0
  8 38  1  0
  8 39  1  0
  9 40  1  0
  9 41  1  0
 10 42  1  0
 10 43  1  0
 11 44  1  0
 11 45  1  0
 12 46  1  1
 17 47  1  0
 18 48  1  0
 19 49  1  0
 20 50  1  0
 21 51  1  0
 22 52  1  0
 25 53  1  0
 26 54  1  0
 28 55  1  0
 31 56  1  0
 32 57  1  0
M  END
>  <smiles>  (19) 
O=C(NCC(=O)N1CCCC[C@H]1c1nc(-c2ccccc2)co1)c1ccc2cc(Cl)ccc2n1

>  <score_type>  (19) 
oracle

>  <origin>  (19) 
autodockgpu

>  <m_score__min__energy>  (19) 
-9.2699999999999996

>  <m_primary>  (19) 
energy

>  <rmsd>  (19) 
7.966563972940608

>  <m_score__min__rmsd>  (19) 
7.966563972940608

>  <meeko>  (19) 
{"free_energy": -7.64, "intermolecular_energy": -9.43, "internal_energy": -3.64, "cluster_size": 15, "cluster_id": 4, "rank_in_cluster": 9}

>  <energy>  (19) 
-8.32

>  <cluster_rmsd>  (19) 
0.28

>  <cluster>  (19) 
3

$$$$

     RDKit          3D

 57 61  0  0  0  0  0  0  0  0999 V2000
  138.0690   70.6980  220.9810 O   0  0  0  0  0  0  0  0  0  0  0  0
  138.4450   71.3240  222.0250 C   0  0  0  0  0  0  0  0  0  0  0  0
  138.4320   72.7370  221.9520 N   0  0  0  0  0  0  0  0  0  0  0  0
  138.0060   73.3710  220.7280 C   0  0  0  0  0  0  0  0  0  0  0  0
  138.8800   73.0610  219.5930 C   0  0  0  0  0  0  0  0  0  0  0  0
  138.4780   72.3660  218.6140 O   0  0  0  0  0  0  0  0  0  0  0  0
  140.2080   73.5610  219.6080 N   0  0  0  0  0  0  0  0  0  0  0  0
  140.8690   74.0910  218.4220 C   0  0  0  0  0  0  0  0  0  0  0  0
  141.9260   73.1050  218.0280 C   0  0  0  0  0  0  0  0  0  0  0  0
  142.7640   72.7800  219.2220 C   0  0  0  0  0  0  0  0  0  0  0  0
  142.4800   73.5780  220.4470 C   0  0  0  0  0  0  0  0  0  0  0  0
  141.0200   73.5790  220.8350 C   0  0  1  0  0  0  0  0  0  0  0  0
  140.7720   74.8920  221.4950 C   0  0  0  0  0  0  0  0  0  0  0  0
  141.4810   76.0250  221.4480 N   0  0  0  0  0  0  0  0  0  0  0  0
  140.8790   76.9750  222.2070 C   0  0  0  0  0  0  0  0  0  0  0  0
  141.3290   78.3450  222.4210 C   0  0  0  0  0  0  0  0  0  0  0  0
  141.3040   79.2280  221.3640 C   0  0  0  0  0  0  0  0  0  0  0  0
  141.7430   80.5150  221.6200 C   0  0  0  0  0  0  0  0  0  0  0  0
  142.1860   80.9030  222.8790 C   0  0  0  0  0  0  0  0  0  0  0  0
  142.2010   79.9860  223.9320 C   0  0  0  0  0  0  0  0  0  0  0  0
  141.7640   78.7020  223.6770 C   0  0  0  0  0  0  0  0  0  0  0  0
  139.7600   76.3610  222.7240 C   0  0  0  0  0  0  0  0  0  0  0  0
  139.7390   75.1320  222.2750 O   0  0  0  0  0  0  0  0  0  0  0  0
  138.8660   70.6240  223.2350 C   0  0  0  0  0  0  0  0  0  0  0  0
  138.5000   69.2840  223.3600 C   0  0  0  0  0  0  0  0  0  0  0  0
  138.8510   68.5330  224.4680 C   0  0  0  0  0  0  0  0  0  0  0  0
  139.5820   69.1770  225.4450 C   0  0  0  0  0  0  0  0  0  0  0  0
  139.9440   68.4460  226.5610 C   0  0  0  0  0  0  0  0  0  0  0  0
  140.6850   69.0550  227.5780 C   0  0  0  0  0  0  0  0  0  0  0  0
  141.1340   68.1190  228.9840 Cl  0  0  0  0  0  0  0  0  0  0  0  0
  141.0350   70.3890  227.4270 C   0  0  0  0  0  0  0  0  0  0  0  0
  140.6640   71.1120  226.2990 C   0  0  0  0  0  0  0  0  0  0  0  0
  139.9310   70.5150  225.2900 C   0  0  0  0  0  0  0  0  0  0  0  0
  139.5750   71.2180  224.2010 N   0  0  0  0  0  0  0  0  0  0  0  0
  138.7400   73.2710  222.8060 H   0  0  0  0  0  0  0  0  0  0  0  0
  136.9878   73.0289  220.4910 H   0  0  0  0  0  0  0  0  0  0  0  0
  138.0445   74.4586  220.8879 H   0  0  0  0  0  0  0  0  0  0  0  0
  140.1411   74.2099  217.6059 H   0  0  0  0  0  0  0  0  0  0  0  0
  141.3111   75.0769  218.6283 H   0  0  0  0  0  0  0  0  0  0  0  0
  141.4510   72.1873  217.6510 H   0  0  0  0  0  0  0  0  0  0  0  0
  142.5588   73.5370  217.2387 H   0  0  0  0  0  0  0  0  0  0  0  0
  142.6074   71.7189  219.4661 H   0  0  0  0  0  0  0  0  0  0  0  0
  143.7982   73.0246  218.9380 H   0  0  0  0  0  0  0  0  0  0  0  0
  143.0623   73.1576  221.2802 H   0  0  0  0  0  0  0  0  0  0  0  0
  142.7597   74.6193  220.2293 H   0  0  0  0  0  0  0  0  0  0  0  0
  140.7743   72.7197  221.4763 H   0  0  0  0  0  0  0  0  0  0  0  0
  140.9527   78.9252  220.3666 H   0  0  0  0  0  0  0  0  0  0  0  0
  141.7413   81.2523  220.8036 H   0  0  0  0  0  0  0  0  0  0  0  0
  142.5259   81.9357  223.0464 H   0  0  0  0  0  0  0  0  0  0  0  0
  142.5502   80.2779  224.9334 H   0  0  0  0  0  0  0  0  0  0  0  0
  141.7634   77.9564  224.4858 H   0  0  0  0  0  0  0  0  0  0  0  0
  139.0179   76.8206  223.3934 H   0  0  0  0  0  0  0  0  0  0  0  0
  137.9166   68.8114  222.5561 H   0  0  0  0  0  0  0  0  0  0  0  0
  138.5619   67.4761  224.5649 H   0  0  0  0  0  0  0  0  0  0  0  0
  139.6502   67.3896  226.6484 H   0  0  0  0  0  0  0  0  0  0  0  0
  141.6185   70.8852  228.2166 H   0  0  0  0  0  0  0  0  0  0  0  0
  140.9563   72.1686  226.2084 H   0  0  0  0  0  0  0  0  0  0  0  0
  1  2  2  0
  2  3  1  0
  3  4  1  0
  4  5  1  0
  5  6  2  0
  5  7  1  0
  7  8  1  0
  8  9  1  0
  9 10  1  0
 10 11  1  0
 11 12  1  0
 12 13  1  0
 13 14  2  0
 14 15  1  0
 15 16  1  0
 16 17  2  0
 17 18  1  0
 18 19  2  0
 19 20  1  0
 20 21  2  0
 15 22  2  0
 22 23  1  0
  2 24  1  0
 24 25  2  0
 25 26  1  0
 26 27  2  0
 27 28  1  0
 28 29  2  0
 29 30  1  0
 29 31  1  0
 31 32  2  0
 32 33  1  0
 33 34  2  0
 12  7  1  0
 23 13  1  0
 34 24  1  0
 21 16  1  0
 33 27  1  0
  3 35  1  0
  4 36  1  0
  4 37  1  0
  8 38  1  0
  8 39  1  0
  9 40  1  0
  9 41  1  0
 10 42  1  0
 10 43  1  0
 11 44  1  0
 11 45  1  0
 12 46  1  1
 17 47  1  0
 18 48  1  0
 19 49  1  0
 20 50  1  0
 21 51  1  0
 22 52  1  0
 25 53  1  0
 26 54  1  0
 28 55  1  0
 31 56  1  0
 32 57  1  0
M  END
>  <smiles>  (20) 
O=C(NCC(=O)N1CCCC[C@H]1c1nc(-c2ccccc2)co1)c1ccc2cc(Cl)ccc2n1

>  <score_type>  (20) 
oracle

>  <origin>  (20) 
autodockgpu

>  <m_score__min__energy>  (20) 
-9.2699999999999996

>  <m_primary>  (20) 
energy

>  <rmsd>  (20) 
2.953077114994396

>  <m_score__min__rmsd>  (20) 
2.953077114994396

>  <meeko>  (20) 
{"free_energy": -8.96, "intermolecular_energy": -10.75, "internal_energy": -2.69, "cluster_size": 13, "cluster_id": 1, "rank_in_cluster": 9}

>  <energy>  (20) 
-8.36

>  <cluster_rmsd>  (20) 
0.0

>  <cluster>  (20) 
4

$$$$

     RDKit          3D

 57 61  0  0  0  0  0  0  0  0999 V2000
  137.3470   71.0820  221.0790 O   0  0  0  0  0  0  0  0  0  0  0  0
  137.6630   71.6790  222.1590 C   0  0  0  0  0  0  0  0  0  0  0  0
  137.4570   73.0780  222.1900 N   0  0  0  0  0  0  0  0  0  0  0  0
  136.9140   73.7320  221.0240 C   0  0  0  0  0  0  0  0  0  0  0  0
  137.9490   74.1550  220.0760 C   0  0  0  0  0  0  0  0  0  0  0  0
  137.6580   74.7370  218.9890 O   0  0  0  0  0  0  0  0  0  0  0  0
  139.3070   73.8980  220.3990 N   0  0  0  0  0  0  0  0  0  0  0  0
  140.2410   73.2810  219.4660 C   0  0  0  0  0  0  0  0  0  0  0  0
  140.5250   71.9010  219.9740 C   0  0  0  0  0  0  0  0  0  0  0  0
  140.9090   71.9770  221.4160 C   0  0  0  0  0  0  0  0  0  0  0  0
  141.0660   73.3500  221.9710 C   0  0  0  0  0  0  0  0  0  0  0  0
  139.8720   74.2400  221.7140 C   0  0  1  0  0  0  0  0  0  0  0  0
  140.4090   75.6250  221.6040 C   0  0  0  0  0  0  0  0  0  0  0  0
  140.5310   76.5760  222.5360 N   0  0  0  0  0  0  0  0  0  0  0  0
  141.0770   77.6910  221.9870 C   0  0  0  0  0  0  0  0  0  0  0  0
  141.3750   78.9480  222.6610 C   0  0  0  0  0  0  0  0  0  0  0  0
  140.3330   79.7050  223.1510 C   0  0  0  0  0  0  0  0  0  0  0  0
  140.6700   80.8900  223.7820 C   0  0  0  0  0  0  0  0  0  0  0  0
  141.9910   81.2990  223.9180 C   0  0  0  0  0  0  0  0  0  0  0  0
  143.0270   80.5120  223.4120 C   0  0  0  0  0  0  0  0  0  0  0  0
  142.6920   79.3300  222.7820 C   0  0  0  0  0  0  0  0  0  0  0  0
  141.2840   77.3690  220.6640 C   0  0  0  0  0  0  0  0  0  0  0  0
  140.8750   76.1400  220.4850 O   0  0  0  0  0  0  0  0  0  0  0  0
  138.2090   70.9610  223.3060 C   0  0  0  0  0  0  0  0  0  0  0  0
  137.7570   69.6590  223.5210 C   0  0  0  0  0  0  0  0  0  0  0  0
  138.2150   68.8950  224.5810 C   0  0  0  0  0  0  0  0  0  0  0  0
  139.1410   69.4850  225.4150 C   0  0  0  0  0  0  0  0  0  0  0  0
  139.6120   68.7400  226.4800 C   0  0  0  0  0  0  0  0  0  0  0  0
  140.5510   69.2960  227.3530 C   0  0  0  0  0  0  0  0  0  0  0  0
  141.1360   68.3420  228.6960 Cl  0  0  0  0  0  0  0  0  0  0  0  0
  140.9830   70.5920  227.1150 C   0  0  0  0  0  0  0  0  0  0  0  0
  140.5010   71.3310  226.0400 C   0  0  0  0  0  0  0  0  0  0  0  0
  139.5720   70.7860  225.1730 C   0  0  0  0  0  0  0  0  0  0  0  0
  139.1080   71.5030  224.1350 N   0  0  0  0  0  0  0  0  0  0  0  0
  137.7130   73.5890  223.0750 H   0  0  0  0  0  0  0  0  0  0  0  0
  136.2345   73.0335  220.5138 H   0  0  0  0  0  0  0  0  0  0  0  0
  136.3888   74.6360  221.3659 H   0  0  0  0  0  0  0  0  0  0  0  0
  139.7929   73.2288  218.4628 H   0  0  0  0  0  0  0  0  0  0  0  0
  141.1675   73.8695  219.3933 H   0  0  0  0  0  0  0  0  0  0  0  0
  139.6258   71.2767  219.8652 H   0  0  0  0  0  0  0  0  0  0  0  0
  141.3483   71.4567  219.3955 H   0  0  0  0  0  0  0  0  0  0  0  0
  140.1315   71.4631  222.0003 H   0  0  0  0  0  0  0  0  0  0  0  0
  141.9022   71.5096  221.4868 H   0  0  0  0  0  0  0  0  0  0  0  0
  141.2155   73.2720  223.0580 H   0  0  0  0  0  0  0  0  0  0  0  0
  141.9284   73.8087  221.4652 H   0  0  0  0  0  0  0  0  0  0  0  0
  139.1133   74.1326  222.5032 H   0  0  0  0  0  0  0  0  0  0  0  0
  139.2862   79.3838  223.0460 H   0  0  0  0  0  0  0  0  0  0  0  0
  139.8693   81.5260  224.1873 H   0  0  0  0  0  0  0  0  0  0  0  0
  142.2213   82.2468  224.4265 H   0  0  0  0  0  0  0  0  0  0  0  0
  144.0771   80.8237  223.5121 H   0  0  0  0  0  0  0  0  0  0  0  0
  143.4853   78.6872  222.3727 H   0  0  0  0  0  0  0  0  0  0  0  0
  141.7158   78.0274  219.8959 H   0  0  0  0  0  0  0  0  0  0  0  0
  137.0173   69.2279  222.8303 H   0  0  0  0  0  0  0  0  0  0  0  0
  137.8578   67.8683  224.7494 H   0  0  0  0  0  0  0  0  0  0  0  0
  139.2492   67.7139  226.6396 H   0  0  0  0  0  0  0  0  0  0  0  0
  141.7229   71.0453  227.7911 H   0  0  0  0  0  0  0  0  0  0  0  0
  140.8618   72.3575  225.8781 H   0  0  0  0  0  0  0  0  0  0  0  0
  1  2  2  0
  2  3  1  0
  3  4  1  0
  4  5  1  0
  5  6  2  0
  5  7  1  0
  7  8  1  0
  8  9  1  0
  9 10  1  0
 10 11  1  0
 11 12  1  0
 12 13  1  0
 13 14  2  0
 14 15  1  0
 15 16  1  0
 16 17  2  0
 17 18  1  0
 18 19  2  0
 19 20  1  0
 20 21  2  0
 15 22  2  0
 22 23  1  0
  2 24  1  0
 24 25  2  0
 25 26  1  0
 26 27  2  0
 27 28  1  0
 28 29  2  0
 29 30  1  0
 29 31  1  0
 31 32  2  0
 32 33  1  0
 33 34  2  0
 12  7  1  0
 23 13  1  0
 34 24  1  0
 21 16  1  0
 33 27  1  0
  3 35  1  0
  4 36  1  0
  4 37  1  0
  8 38  1  0
  8 39  1  0
  9 40  1  0
  9 41  1  0
 10 42  1  0
 10 43  1  0
 11 44  1  0
 11 45  1  0
 12 46  1  1
 17 47  1  0
 18 48  1  0
 19 49  1  0
 20 50  1  0
 21 51  1  0
 22 52  1  0
 25 53  1  0
 26 54  1  0
 28 55  1  0
 31 56  1  0
 32 57  1  0
M  END
>  <smiles>  (21) 
O=C(NCC(=O)N1CCCC[C@H]1c1nc(-c2ccccc2)co1)c1ccc2cc(Cl)ccc2n1

>  <score_type>  (21) 
oracle

>  <origin>  (21) 
autodockgpu

>  <m_score__min__energy>  (21) 
-9.2699999999999996

>  <m_primary>  (21) 
energy

>  <rmsd>  (21) 
3.016108920242375

>  <m_score__min__rmsd>  (21) 
3.016108920242375

>  <meeko>  (21) 
{"free_energy": -8.83, "intermolecular_energy": -10.62, "internal_energy": -2.37, "cluster_size": 13, "cluster_id": 1, "rank_in_cluster": 11}

>  <energy>  (21) 
-8.11

>  <cluster_rmsd>  (21) 
1.04

>  <cluster>  (21) 
4

$$$$

     RDKit          3D

 57 61  0  0  0  0  0  0  0  0999 V2000
  140.0330   73.8670  220.4020 O   0  0  0  0  0  0  0  0  0  0  0  0
  139.6230   73.8480  221.6070 C   0  0  0  0  0  0  0  0  0  0  0  0
  139.1530   75.0740  222.1340 N   0  0  0  0  0  0  0  0  0  0  0  0
  139.1670   76.2480  221.2950 C   0  0  0  0  0  0  0  0  0  0  0  0
  139.4780   77.4740  222.0360 C   0  0  0  0  0  0  0  0  0  0  0  0
  138.7340   77.8910  222.9730 O   0  0  0  0  0  0  0  0  0  0  0  0
  140.6450   78.1990  221.6830 N   0  0  0  0  0  0  0  0  0  0  0  0
  141.6420   78.6210  222.6570 C   0  0  0  0  0  0  0  0  0  0  0  0
  141.5310   80.1090  222.7870 C   0  0  0  0  0  0  0  0  0  0  0  0
  141.5660   80.7240  221.4260 C   0  0  0  0  0  0  0  0  0  0  0  0
  141.8400   79.7890  220.3000 C   0  0  0  0  0  0  0  0  0  0  0  0
  140.9310   78.5820  220.2910 C   0  0  1  0  0  0  0  0  0  0  0  0
  141.7300   77.4730  219.6960 C   0  0  0  0  0  0  0  0  0  0  0  0
  142.5520   76.5960  220.2810 N   0  0  0  0  0  0  0  0  0  0  0  0
  143.0680   75.7560  219.3480 C   0  0  0  0  0  0  0  0  0  0  0  0
  144.0040   74.6610  219.5720 C   0  0  0  0  0  0  0  0  0  0  0  0
  144.3040   73.8160  218.5260 C   0  0  0  0  0  0  0  0  0  0  0  0
  145.1970   72.7930  218.7920 C   0  0  0  0  0  0  0  0  0  0  0  0
  145.7660   72.6230  220.0480 C   0  0  0  0  0  0  0  0  0  0  0  0
  145.4430   73.4940  221.0900 C   0  0  0  0  0  0  0  0  0  0  0  0
  144.5520   74.5160  220.8260 C   0  0  0  0  0  0  0  0  0  0  0  0
  142.5150   76.1670  218.1560 C   0  0  0  0  0  0  0  0  0  0  0  0
  141.7310   77.1830  218.4110 O   0  0  0  0  0  0  0  0  0  0  0  0
  139.6340   72.6270  222.4070 C   0  0  0  0  0  0  0  0  0  0  0  0
  138.8870   71.5460  221.9380 C   0  0  0  0  0  0  0  0  0  0  0  0
  138.8340   70.3450  222.6220 C   0  0  0  0  0  0  0  0  0  0  0  0
  139.5580   70.2680  223.7940 C   0  0  0  0  0  0  0  0  0  0  0  0
  139.5190   69.0770  224.4940 C   0  0  0  0  0  0  0  0  0  0  0  0
  140.2360   68.9520  225.6880 C   0  0  0  0  0  0  0  0  0  0  0  0
  140.1770   67.4400  226.5630 Cl  0  0  0  0  0  0  0  0  0  0  0  0
  140.9710   70.0410  226.1310 C   0  0  0  0  0  0  0  0  0  0  0  0
  141.0010   71.2340  225.4160 C   0  0  0  0  0  0  0  0  0  0  0  0
  140.2930   71.3640  224.2350 C   0  0  0  0  0  0  0  0  0  0  0  0
  140.3250   72.5180  223.5470 N   0  0  0  0  0  0  0  0  0  0  0  0
  138.8100   75.0770  223.1300 H   0  0  0  0  0  0  0  0  0  0  0  0
  139.9256   76.1099  220.5105 H   0  0  0  0  0  0  0  0  0  0  0  0
  138.1581   76.3642  220.8724 H   0  0  0  0  0  0  0  0  0  0  0  0
  141.4469   78.1421  223.6279 H   0  0  0  0  0  0  0  0  0  0  0  0
  142.6524   78.3314  222.3326 H   0  0  0  0  0  0  0  0  0  0  0  0
  140.5830   80.3655  223.2826 H   0  0  0  0  0  0  0  0  0  0  0  0
  142.3695   80.4915  223.3875 H   0  0  0  0  0  0  0  0  0  0  0  0
  140.5891   81.1954  221.2433 H   0  0  0  0  0  0  0  0  0  0  0  0
  142.4083   81.4314  221.4390 H   0  0  0  0  0  0  0  0  0  0  0  0
  141.7067   80.3336  219.3536 H   0  0  0  0  0  0  0  0  0  0  0  0
  142.8691   79.4211  220.4250 H   0  0  0  0  0  0  0  0  0  0  0  0
  139.9982   78.7851  219.7445 H   0  0  0  0  0  0  0  0  0  0  0  0
  143.8563   73.9479  217.5299 H   0  0  0  0  0  0  0  0  0  0  0  0
  145.4641   72.0941  217.9857 H   0  0  0  0  0  0  0  0  0  0  0  0
  146.4737   71.7990  220.2220 H   0  0  0  0  0  0  0  0  0  0  0  0
  145.8842   73.3703  222.0900 H   0  0  0  0  0  0  0  0  0  0  0  0
  144.2780   75.2203  221.6253 H   0  0  0  0  0  0  0  0  0  0  0  0
  142.6991   75.7214  217.1673 H   0  0  0  0  0  0  0  0  0  0  0  0
  138.3248   71.6518  220.9985 H   0  0  0  0  0  0  0  0  0  0  0  0
  138.2443   69.4941  222.2503 H   0  0  0  0  0  0  0  0  0  0  0  0
  138.9269   68.2316  224.1138 H   0  0  0  0  0  0  0  0  0  0  0  0
  141.5424   69.9600  227.0675 H   0  0  0  0  0  0  0  0  0  0  0  0
  141.5928   72.0811  225.7931 H   0  0  0  0  0  0  0  0  0  0  0  0
  1  2  2  0
  2  3  1  0
  3  4  1  0
  4  5  1  0
  5  6  2  0
  5  7  1  0
  7  8  1  0
  8  9  1  0
  9 10  1  0
 10 11  1  0
 11 12  1  0
 12 13  1  0
 13 14  2  0
 14 15  1  0
 15 16  1  0
 16 17  2  0
 17 18  1  0
 18 19  2  0
 19 20  1  0
 20 21  2  0
 15 22  2  0
 22 23  1  0
  2 24  1  0
 24 25  2  0
 25 26  1  0
 26 27  2  0
 27 28  1  0
 28 29  2  0
 29 30  1  0
 29 31  1  0
 31 32  2  0
 32 33  1  0
 33 34  2  0
 12  7  1  0
 23 13  1  0
 34 24  1  0
 21 16  1  0
 33 27  1  0
  3 35  1  0
  4 36  1  0
  4 37  1  0
  8 38  1  0
  8 39  1  0
  9 40  1  0
  9 41  1  0
 10 42  1  0
 10 43  1  0
 11 44  1  0
 11 45  1  0
 12 46  1  6
 17 47  1  0
 18 48  1  0
 19 49  1  0
 20 50  1  0
 21 51  1  0
 22 52  1  0
 25 53  1  0
 26 54  1  0
 28 55  1  0
 31 56  1  0
 32 57  1  0
M  END
>  <smiles>  (22) 
O=C(NCC(=O)N1CCCC[C@H]1c1nc(-c2ccccc2)co1)c1ccc2cc(Cl)ccc2n1

>  <score_type>  (22) 
oracle

>  <origin>  (22) 
autodockgpu

>  <m_score__min__energy>  (22) 
-9.2699999999999996

>  <m_primary>  (22) 
energy

>  <rmsd>  (22) 
5.640335859736449

>  <m_score__min__rmsd>  (22) 
5.640335859736449

>  <meeko>  (22) 
{"free_energy": -8.95, "intermolecular_energy": -10.74, "internal_energy": -2.18, "cluster_size": 4, "cluster_id": 2, "rank_in_cluster": 3}

>  <energy>  (22) 
-8.11

>  <cluster_rmsd>  (22) 
1.0

>  <cluster>  (22) 
4

$$$$

     RDKit          3D

 57 61  0  0  0  0  0  0  0  0999 V2000
  138.3380   70.8300  220.8410 O   0  0  0  0  0  0  0  0  0  0  0  0
  138.6540   71.4450  221.9100 C   0  0  0  0  0  0  0  0  0  0  0  0
  138.6210   72.8590  221.8590 N   0  0  0  0  0  0  0  0  0  0  0  0
  138.2410   73.5050  220.6260 C   0  0  0  0  0  0  0  0  0  0  0  0
  139.2100   73.2880  219.5480 C   0  0  0  0  0  0  0  0  0  0  0  0
  138.9530   72.5350  218.5630 O   0  0  0  0  0  0  0  0  0  0  0  0
  140.4640   73.9480  219.6250 N   0  0  0  0  0  0  0  0  0  0  0  0
  141.0810   74.6140  218.4860 C   0  0  0  0  0  0  0  0  0  0  0  0
  142.2620   73.7880  218.0770 C   0  0  0  0  0  0  0  0  0  0  0  0
  143.1060   73.5100  219.2790 C   0  0  0  0  0  0  0  0  0  0  0  0
  142.6960   74.2030  220.5310 C   0  0  0  0  0  0  0  0  0  0  0  0
  141.2380   74.0040  220.8760 C   0  0  1  0  0  0  0  0  0  0  0  0
  140.8130   75.2410  221.5890 C   0  0  0  0  0  0  0  0  0  0  0  0
  141.4510   76.4060  221.7450 N   0  0  0  0  0  0  0  0  0  0  0  0
  140.6820   77.2570  222.4710 C   0  0  0  0  0  0  0  0  0  0  0  0
  141.0110   78.6220  222.8620 C   0  0  0  0  0  0  0  0  0  0  0  0
  142.3310   79.0170  222.8600 C   0  0  0  0  0  0  0  0  0  0  0  0
  142.5890   80.3230  223.2390 C   0  0  0  0  0  0  0  0  0  0  0  0
  141.5710   81.1950  223.6040 C   0  0  0  0  0  0  0  0  0  0  0  0
  140.2420   80.7680  223.5970 C   0  0  0  0  0  0  0  0  0  0  0  0
  139.9840   79.4660  223.2190 C   0  0  0  0  0  0  0  0  0  0  0  0
  139.5360   76.5480  222.7520 C   0  0  0  0  0  0  0  0  0  0  0  0
  139.6580   75.3640  222.2110 O   0  0  0  0  0  0  0  0  0  0  0  0
  139.0310   70.7330  223.1280 C   0  0  0  0  0  0  0  0  0  0  0  0
  138.6640   69.3910  223.2250 C   0  0  0  0  0  0  0  0  0  0  0  0
  138.9740   68.6300  224.3380 C   0  0  0  0  0  0  0  0  0  0  0  0
  139.6670   69.2650  225.3490 C   0  0  0  0  0  0  0  0  0  0  0  0
  139.9880   68.5220  226.4700 C   0  0  0  0  0  0  0  0  0  0  0  0
  140.6890   69.1230  227.5200 C   0  0  0  0  0  0  0  0  0  0  0  0
  141.0870   68.1720  228.9320 Cl  0  0  0  0  0  0  0  0  0  0  0  0
  141.0420   70.4580  227.3970 C   0  0  0  0  0  0  0  0  0  0  0  0
  140.7120   71.1930  226.2630 C   0  0  0  0  0  0  0  0  0  0  0  0
  140.0190   70.6050  225.2210 C   0  0  0  0  0  0  0  0  0  0  0  0
  139.7020   71.3180  224.1260 N   0  0  0  0  0  0  0  0  0  0  0  0
  138.8790   73.3840  222.7340 H   0  0  0  0  0  0  0  0  0  0  0  0
  137.2661   73.1077  220.3072 H   0  0  0  0  0  0  0  0  0  0  0  0
  138.1978   74.5871  220.8191 H   0  0  0  0  0  0  0  0  0  0  0  0
  140.3632   74.6828  217.6553 H   0  0  0  0  0  0  0  0  0  0  0  0
  141.3916   75.6352  218.7517 H   0  0  0  0  0  0  0  0  0  0  0  0
  141.9147   72.8385  217.6435 H   0  0  0  0  0  0  0  0  0  0  0  0
  142.8538   74.3341  217.3276 H   0  0  0  0  0  0  0  0  0  0  0  0
  143.0783   72.4267  219.4680 H   0  0  0  0  0  0  0  0  0  0  0  0
  144.1074   73.8958  219.0374 H   0  0  0  0  0  0  0  0  0  0  0  0
  143.3067   73.8160  221.3600 H   0  0  0  0  0  0  0  0  0  0  0  0
  142.8482   75.2806  220.3711 H   0  0  0  0  0  0  0  0  0  0  0  0
  141.0861   73.0900  221.4689 H   0  0  0  0  0  0  0  0  0  0  0  0
  143.1393   78.3289  222.5716 H   0  0  0  0  0  0  0  0  0  0  0  0
  143.6292   80.6804  223.2515 H   0  0  0  0  0  0  0  0  0  0  0  0
  141.8132   82.2264  223.8998 H   0  0  0  0  0  0  0  0  0  0  0  0
  139.4261   81.4478  223.8837 H   0  0  0  0  0  0  0  0  0  0  0  0
  138.9471   79.0991  223.2028 H   0  0  0  0  0  0  0  0  0  0  0  0
  138.6727   76.9122  223.3282 H   0  0  0  0  0  0  0  0  0  0  0  0
  138.1134   68.9252  222.3944 H   0  0  0  0  0  0  0  0  0  0  0  0
  138.6828   67.5719  224.4135 H   0  0  0  0  0  0  0  0  0  0  0  0
  139.6936   67.4642  226.5354 H   0  0  0  0  0  0  0  0  0  0  0  0
  141.5946   70.9463  228.2132 H   0  0  0  0  0  0  0  0  0  0  0  0
  141.0049   72.2511  226.1947 H   0  0  0  0  0  0  0  0  0  0  0  0
  1  2  2  0
  2  3  1  0
  3  4  1  0
  4  5  1  0
  5  6  2  0
  5  7  1  0
  7  8  1  0
  8  9  1  0
  9 10  1  0
 10 11  1  0
 11 12  1  0
 12 13  1  0
 13 14  2  0
 14 15  1  0
 15 16  1  0
 16 17  2  0
 17 18  1  0
 18 19  2  0
 19 20  1  0
 20 21  2  0
 15 22  2  0
 22 23  1  0
  2 24  1  0
 24 25  2  0
 25 26  1  0
 26 27  2  0
 27 28  1  0
 28 29  2  0
 29 30  1  0
 29 31  1  0
 31 32  2  0
 32 33  1  0
 33 34  2  0
 12  7  1  0
 23 13  1  0
 34 24  1  0
 21 16  1  0
 33 27  1  0
  3 35  1  0
  4 36  1  0
  4 37  1  0
  8 38  1  0
  8 39  1  0
  9 40  1  0
  9 41  1  0
 10 42  1  0
 10 43  1  0
 11 44  1  0
 11 45  1  0
 12 46  1  1
 17 47  1  0
 18 48  1  0
 19 49  1  0
 20 50  1  0
 21 51  1  0
 22 52  1  0
 25 53  1  0
 26 54  1  0
 28 55  1  0
 31 56  1  0
 32 57  1  0
M  END
>  <smiles>  (23) 
O=C(NCC(=O)N1CCCC[C@H]1c1nc(-c2ccccc2)co1)c1ccc2cc(Cl)ccc2n1

>  <score_type>  (23) 
oracle

>  <origin>  (23) 
autodockgpu

>  <m_score__min__energy>  (23) 
-9.2699999999999996

>  <m_primary>  (23) 
energy

>  <rmsd>  (23) 
2.836102177064641

>  <m_score__min__rmsd>  (23) 
2.836102177064641

>  <meeko>  (23) 
{"free_energy": -9.02, "intermolecular_energy": -10.81, "internal_energy": -2.63, "cluster_size": 13, "cluster_id": 1, "rank_in_cluster": 5}

>  <energy>  (23) 
-8.07

>  <cluster_rmsd>  (23) 
1.12

>  <cluster>  (23) 
4

$$$$

     RDKit          3D

 57 61  0  0  0  0  0  0  0  0999 V2000
  136.0840   74.8190  221.5090 O   0  0  0  0  0  0  0  0  0  0  0  0
  137.2600   74.8640  221.9960 C   0  0  0  0  0  0  0  0  0  0  0  0
  137.8540   73.6240  222.3280 N   0  0  0  0  0  0  0  0  0  0  0  0
  137.1100   72.4090  222.1040 C   0  0  0  0  0  0  0  0  0  0  0  0
  137.1970   71.4720  223.2280 C   0  0  0  0  0  0  0  0  0  0  0  0
  136.2070   71.2470  223.9840 O   0  0  0  0  0  0  0  0  0  0  0  0
  138.4310   70.8110  223.4610 N   0  0  0  0  0  0  0  0  0  0  0  0
  138.6370   69.3960  223.1800 C   0  0  0  0  0  0  0  0  0  0  0  0
  138.7450   68.6950  224.4990 C   0  0  0  0  0  0  0  0  0  0  0  0
  139.7490   69.4020  225.3500 C   0  0  0  0  0  0  0  0  0  0  0  0
  140.4980   70.5050  224.6860 C   0  0  0  0  0  0  0  0  0  0  0  0
  139.6010   71.5150  224.0100 C   0  0  1  0  0  0  0  0  0  0  0  0
  140.3730   72.0360  222.8470 C   0  0  0  0  0  0  0  0  0  0  0  0
  140.6300   73.2970  222.4810 N   0  0  0  0  0  0  0  0  0  0  0  0
  141.3780   73.3030  221.3490 C   0  0  0  0  0  0  0  0  0  0  0  0
  141.8690   74.4690  220.6260 C   0  0  0  0  0  0  0  0  0  0  0  0
  143.2250   74.6010  220.4160 C   0  0  0  0  0  0  0  0  0  0  0  0
  143.6380   75.7270  219.7240 C   0  0  0  0  0  0  0  0  0  0  0  0
  142.7360   76.6780  219.2630 C   0  0  0  0  0  0  0  0  0  0  0  0
  141.3680   76.5180  219.4910 C   0  0  0  0  0  0  0  0  0  0  0  0
  140.9540   75.3950  220.1800 C   0  0  0  0  0  0  0  0  0  0  0  0
  141.5660   71.9740  221.0400 C   0  0  0  0  0  0  0  0  0  0  0  0
  140.9550   71.2640  221.9530 O   0  0  0  0  0  0  0  0  0  0  0  0
  137.9620   76.1280  222.1990 C   0  0  0  0  0  0  0  0  0  0  0  0
  137.2290   77.3030  222.0340 C   0  0  0  0  0  0  0  0  0  0  0  0
  137.8030   78.5510  222.2050 C   0  0  0  0  0  0  0  0  0  0  0  0
  139.1390   78.5750  222.5480 C   0  0  0  0  0  0  0  0  0  0  0  0
  139.7320   79.8110  222.7250 C   0  0  0  0  0  0  0  0  0  0  0  0
  141.0850   79.8860  223.0720 C   0  0  0  0  0  0  0  0  0  0  0  0
  141.8220   81.4560  223.2910 Cl  0  0  0  0  0  0  0  0  0  0  0  0
  141.7900   78.7030  223.2300 C   0  0  0  0  0  0  0  0  0  0  0  0
  141.1800   77.4660  223.0500 C   0  0  0  0  0  0  0  0  0  0  0  0
  139.8420   77.3850  222.7060 C   0  0  0  0  0  0  0  0  0  0  0  0
  139.2560   76.1880  222.5320 N   0  0  0  0  0  0  0  0  0  0  0  0
  138.8270   73.6430  222.7320 H   0  0  0  0  0  0  0  0  0  0  0  0
  136.0531   72.6688  221.9445 H   0  0  0  0  0  0  0  0  0  0  0  0
  137.5461   71.9119  221.2250 H   0  0  0  0  0  0  0  0  0  0  0  0
  137.7854   68.9970  222.6095 H   0  0  0  0  0  0  0  0  0  0  0  0
  139.5472   69.2448  222.5811 H   0  0  0  0  0  0  0  0  0  0  0  0
  137.7663   68.7029  225.0011 H   0  0  0  0  0  0  0  0  0  0  0  0
  139.0630   67.6541  224.3395 H   0  0  0  0  0  0  0  0  0  0  0  0
  139.2190   69.8267  226.2153 H   0  0  0  0  0  0  0  0  0  0  0  0
  140.5025   68.6456  225.6148 H   0  0  0  0  0  0  0  0  0  0  0  0
  141.0991   71.0256  225.4460 H   0  0  0  0  0  0  0  0  0  0  0  0
  141.1227   70.0493  223.9036 H   0  0  0  0  0  0  0  0  0  0  0  0
  139.2872   72.3043  224.7089 H   0  0  0  0  0  0  0  0  0  0  0  0
  143.9422   73.8503  220.7795 H   0  0  0  0  0  0  0  0  0  0  0  0
  144.7115   75.8729  219.5337 H   0  0  0  0  0  0  0  0  0  0  0  0
  143.1011   77.5601  218.7165 H   0  0  0  0  0  0  0  0  0  0  0  0
  140.6424   77.2632  219.1330 H   0  0  0  0  0  0  0  0  0  0  0  0
  139.8825   75.2392  220.3741 H   0  0  0  0  0  0  0  0  0  0  0  0
  142.1285   71.5806  220.1804 H   0  0  0  0  0  0  0  0  0  0  0  0
  136.1656   77.2362  221.7605 H   0  0  0  0  0  0  0  0  0  0  0  0
  137.2232   79.4766  222.0740 H   0  0  0  0  0  0  0  0  0  0  0  0
  139.1430   80.7307  222.5937 H   0  0  0  0  0  0  0  0  0  0  0  0
  142.8547   78.7434  223.5036 H   0  0  0  0  0  0  0  0  0  0  0  0
  141.7660   76.5445  223.1822 H   0  0  0  0  0  0  0  0  0  0  0  0
  1  2  2  0
  2  3  1  0
  3  4  1  0
  4  5  1  0
  5  6  2  0
  5  7  1  0
  7  8  1  0
  8  9  1  0
  9 10  1  0
 10 11  1  0
 11 12  1  0
 12 13  1  0
 13 14  2  0
 14 15  1  0
 15 16  1  0
 16 17  2  0
 17 18  1  0
 18 19  2  0
 19 20  1  0
 20 21  2  0
 15 22  2  0
 22 23  1  0
  2 24  1  0
 24 25  2  0
 25 26  1  0
 26 27  2  0
 27 28  1  0
 28 29  2  0
 29 30  1  0
 29 31  1  0
 31 32  2  0
 32 33  1  0
 33 34  2  0
 12  7  1  0
 23 13  1  0
 34 24  1  0
 21 16  1  0
 33 27  1  0
  3 35  1  0
  4 36  1  0
  4 37  1  0
  8 38  1  0
  8 39  1  0
  9 40  1  0
  9 41  1  0
 10 42  1  0
 10 43  1  0
 11 44  1  0
 11 45  1  0
 12 46  1  1
 17 47  1  0
 18 48  1  0
 19 49  1  0
 20 50  1  0
 21 51  1  0
 22 52  1  0
 25 53  1  0
 26 54  1  0
 28 55  1  0
 31 56  1  0
 32 57  1  0
M  END
>  <smiles>  (24) 
O=C(NCC(=O)N1CCCC[C@H]1c1nc(-c2ccccc2)co1)c1ccc2cc(Cl)ccc2n1

>  <score_type>  (24) 
oracle

>  <origin>  (24) 
autodockgpu

>  <m_score__min__energy>  (24) 
-9.2699999999999996

>  <m_primary>  (24) 
energy

>  <rmsd>  (24) 
7.840135071154142

>  <m_score__min__rmsd>  (24) 
7.840135071154142

>  <meeko>  (24) 
{"free_energy": -7.9, "intermolecular_energy": -9.69, "internal_energy": -3.81, "cluster_size": 15, "cluster_id": 4, "rank_in_cluster": 6}

>  <energy>  (24) 
-8.02

>  <cluster_rmsd>  (24) 
1.11

>  <cluster>  (24) 
4

$$$$

     RDKit          3D

 57 61  0  0  0  0  0  0  0  0999 V2000
  140.1650   74.1130  220.4480 O   0  0  0  0  0  0  0  0  0  0  0  0
  139.6770   74.0720  221.6240 C   0  0  0  0  0  0  0  0  0  0  0  0
  139.1920   75.2930  222.1490 N   0  0  0  0  0  0  0  0  0  0  0  0
  139.2780   76.4850  221.3420 C   0  0  0  0  0  0  0  0  0  0  0  0
  139.6960   77.6630  222.1090 C   0  0  0  0  0  0  0  0  0  0  0  0
  139.1720   77.9490  223.2260 O   0  0  0  0  0  0  0  0  0  0  0  0
  140.7140   78.4920  221.5720 N   0  0  0  0  0  0  0  0  0  0  0  0
  141.6370   79.2530  222.4030 C   0  0  0  0  0  0  0  0  0  0  0  0
  141.2720   80.6990  222.2590 C   0  0  0  0  0  0  0  0  0  0  0  0
  141.1800   81.0400  220.8070 C   0  0  0  0  0  0  0  0  0  0  0  0
  141.5960   79.9650  219.8640 C   0  0  0  0  0  0  0  0  0  0  0  0
  140.9100   78.6440  220.1210 C   0  0  1  0  0  0  0  0  0  0  0  0
  141.8790   77.5910  219.7060 C   0  0  0  0  0  0  0  0  0  0  0  0
  142.2990   76.5030  220.3600 N   0  0  0  0  0  0  0  0  0  0  0  0
  143.1910   75.8230  219.5960 C   0  0  0  0  0  0  0  0  0  0  0  0
  143.8820   74.5870  219.9410 C   0  0  0  0  0  0  0  0  0  0  0  0
  143.2600   73.3830  219.6910 C   0  0  0  0  0  0  0  0  0  0  0  0
  143.9590   72.2400  220.0380 C   0  0  0  0  0  0  0  0  0  0  0  0
  145.2250   72.2980  220.6090 C   0  0  0  0  0  0  0  0  0  0  0  0
  145.8310   73.5330  220.8510 C   0  0  0  0  0  0  0  0  0  0  0  0
  145.1350   74.6740  220.5050 C   0  0  0  0  0  0  0  0  0  0  0  0
  143.2950   76.5560  218.4350 C   0  0  0  0  0  0  0  0  0  0  0  0
  142.5020   77.5900  218.5450 O   0  0  0  0  0  0  0  0  0  0  0  0
  139.6190   72.8320  222.3920 C   0  0  0  0  0  0  0  0  0  0  0  0
  138.7450   71.8410  221.9440 C   0  0  0  0  0  0  0  0  0  0  0  0
  138.6180   70.6300  222.6020 C   0  0  0  0  0  0  0  0  0  0  0  0
  139.3990   70.4510  223.7260 C   0  0  0  0  0  0  0  0  0  0  0  0
  139.2880   69.2490  224.3980 C   0  0  0  0  0  0  0  0  0  0  0  0
  140.0580   69.0220  225.5430 C   0  0  0  0  0  0  0  0  0  0  0  0
  139.9060   67.4970  226.3840 Cl  0  0  0  0  0  0  0  0  0  0  0  0
  140.9180   70.0240  225.9660 C   0  0  0  0  0  0  0  0  0  0  0  0
  141.0200   71.2290  225.2790 C   0  0  0  0  0  0  0  0  0  0  0  0
  140.2600   71.4600  224.1470 C   0  0  0  0  0  0  0  0  0  0  0  0
  140.3610   72.6260  223.4860 N   0  0  0  0  0  0  0  0  0  0  0  0
  138.7860   75.2770  223.1210 H   0  0  0  0  0  0  0  0  0  0  0  0
  140.0080   76.3125  220.5374 H   0  0  0  0  0  0  0  0  0  0  0  0
  138.2726   76.6887  220.9448 H   0  0  0  0  0  0  0  0  0  0  0  0
  141.5414   78.9429  223.4540 H   0  0  0  0  0  0  0  0  0  0  0  0
  142.6775   79.0796  222.0912 H   0  0  0  0  0  0  0  0  0  0  0  0
  140.3013   80.8834  222.7425 H   0  0  0  0  0  0  0  0  0  0  0  0
  142.0406   81.3237  222.7375 H   0  0  0  0  0  0  0  0  0  0  0  0
  140.1336   81.2974  220.5859 H   0  0  0  0  0  0  0  0  0  0  0  0
  141.8861   81.8684  220.6480 H   0  0  0  0  0  0  0  0  0  0  0  0
  141.3581   80.2881  218.8398 H   0  0  0  0  0  0  0  0  0  0  0  0
  142.6746   79.8048  220.0091 H   0  0  0  0  0  0  0  0  0  0  0  0
  139.9490   78.5801  219.5897 H   0  0  0  0  0  0  0  0  0  0  0  0
  142.2586   73.3329  219.2385 H   0  0  0  0  0  0  0  0  0  0  0  0
  143.4994   71.2572  219.8567 H   0  0  0  0  0  0  0  0  0  0  0  0
  145.7513   71.3683  220.8711 H   0  0  0  0  0  0  0  0  0  0  0  0
  146.8318   73.5946  221.3033 H   0  0  0  0  0  0  0  0  0  0  0  0
  145.5857   75.6618  220.6816 H   0  0  0  0  0  0  0  0  0  0  0  0
  143.9309   76.3151  217.5703 H   0  0  0  0  0  0  0  0  0  0  0  0
  138.1408   72.0271  221.0439 H   0  0  0  0  0  0  0  0  0  0  0  0
  137.9292   69.8493  222.2470 H   0  0  0  0  0  0  0  0  0  0  0  0
  138.5972   68.4742  224.0341 H   0  0  0  0  0  0  0  0  0  0  0  0
  141.5326   69.8625  226.8639 H   0  0  0  0  0  0  0  0  0  0  0  0
  141.7113   72.0051  225.6393 H   0  0  0  0  0  0  0  0  0  0  0  0
  1  2  2  0
  2  3  1  0
  3  4  1  0
  4  5  1  0
  5  6  2  0
  5  7  1  0
  7  8  1  0
  8  9  1  0
  9 10  1  0
 10 11  1  0
 11 12  1  0
 12 13  1  0
 13 14  2  0
 14 15  1  0
 15 16  1  0
 16 17  2  0
 17 18  1  0
 18 19  2  0
 19 20  1  0
 20 21  2  0
 15 22  2  0
 22 23  1  0
  2 24  1  0
 24 25  2  0
 25 26  1  0
 26 27  2  0
 27 28  1  0
 28 29  2  0
 29 30  1  0
 29 31  1  0
 31 32  2  0
 32 33  1  0
 33 34  2  0
 12  7  1  0
 23 13  1  0
 34 24  1  0
 21 16  1  0
 33 27  1  0
  3 35  1  0
  4 36  1  0
  4 37  1  0
  8 38  1  0
  8 39  1  0
  9 40  1  0
  9 41  1  0
 10 42  1  0
 10 43  1  0
 11 44  1  0
 11 45  1  0
 12 46  1  6
 17 47  1  0
 18 48  1  0
 19 49  1  0
 20 50  1  0
 21 51  1  0
 22 52  1  0
 25 53  1  0
 26 54  1  0
 28 55  1  0
 31 56  1  0
 32 57  1  0
M  END
>  <smiles>  (25) 
O=C(NCC(=O)N1CCCC[C@H]1c1nc(-c2ccccc2)co1)c1ccc2cc(Cl)ccc2n1

>  <score_type>  (25) 
oracle

>  <origin>  (25) 
autodockgpu

>  <m_score__min__energy>  (25) 
-9.2699999999999996

>  <m_primary>  (25) 
energy

>  <rmsd>  (25) 
5.610590326639985

>  <m_score__min__rmsd>  (25) 
5.610590326639985

>  <meeko>  (25) 
{"free_energy": -8.92, "intermolecular_energy": -10.71, "internal_energy": -2.34, "cluster_size": 4, "cluster_id": 2, "rank_in_cluster": 4}

>  <energy>  (25) 
-7.9

>  <cluster_rmsd>  (25) 
1.1

>  <cluster>  (25) 
4

$$$$

     RDKit          3D

 57 61  0  0  0  0  0  0  0  0999 V2000
  142.7120   72.2570  220.7070 O   0  0  0  0  0  0  0  0  0  0  0  0
  142.3010   73.4370  220.9540 C   0  0  0  0  0  0  0  0  0  0  0  0
  143.2580   74.4730  220.8520 N   0  0  0  0  0  0  0  0  0  0  0  0
  144.6130   74.1410  220.4850 C   0  0  0  0  0  0  0  0  0  0  0  0
  144.7450   73.7650  219.0740 C   0  0  0  0  0  0  0  0  0  0  0  0
  145.7130   73.0620  218.6610 O   0  0  0  0  0  0  0  0  0  0  0  0
  143.7530   74.2100  218.1620 N   0  0  0  0  0  0  0  0  0  0  0  0
  142.7450   73.3260  217.5940 C   0  0  0  0  0  0  0  0  0  0  0  0
  143.0820   73.1430  216.1460 C   0  0  0  0  0  0  0  0  0  0  0  0
  143.2860   74.4830  215.5170 C   0  0  0  0  0  0  0  0  0  0  0  0
  142.9780   75.6560  216.3800 C   0  0  0  0  0  0  0  0  0  0  0  0
  143.6750   75.6120  217.7210 C   0  0  1  0  0  0  0  0  0  0  0  0
  142.7710   76.3130  218.6750 C   0  0  0  0  0  0  0  0  0  0  0  0
  143.0620   77.1410  219.6850 N   0  0  0  0  0  0  0  0  0  0  0  0
  141.9170   77.5480  220.2900 C   0  0  0  0  0  0  0  0  0  0  0  0
  141.7970   78.4500  221.4280 C   0  0  0  0  0  0  0  0  0  0  0  0
  141.4450   77.9310  222.6550 C   0  0  0  0  0  0  0  0  0  0  0  0
  141.3440   78.8310  223.7030 C   0  0  0  0  0  0  0  0  0  0  0  0
  141.5860   80.1880  223.5310 C   0  0  0  0  0  0  0  0  0  0  0  0
  141.9400   80.6860  222.2750 C   0  0  0  0  0  0  0  0  0  0  0  0
  142.0410   79.7890  221.2300 C   0  0  0  0  0  0  0  0  0  0  0  0
  140.9060   76.9220  219.5940 C   0  0  0  0  0  0  0  0  0  0  0  0
  141.4580   76.2050  218.6500 O   0  0  0  0  0  0  0  0  0  0  0  0
  140.9140   73.7090  221.3210 C   0  0  0  0  0  0  0  0  0  0  0  0
  139.9820   72.6950  221.1020 C   0  0  0  0  0  0  0  0  0  0  0  0
  138.6440   72.8550  221.4170 C   0  0  0  0  0  0  0  0  0  0  0  0
  138.2770   74.0700  221.9590 C   0  0  0  0  0  0  0  0  0  0  0  0
  136.9450   74.2510  222.2810 C   0  0  0  0  0  0  0  0  0  0  0  0
  136.5250   75.4660  222.8320 C   0  0  0  0  0  0  0  0  0  0  0  0
  134.8370   75.6810  223.2330 Cl  0  0  0  0  0  0  0  0  0  0  0  0
  137.4730   76.4570  223.0380 C   0  0  0  0  0  0  0  0  0  0  0  0
  138.8100   76.2600  222.7100 C   0  0  0  0  0  0  0  0  0  0  0  0
  139.2310   75.0610  222.1640 C   0  0  0  0  0  0  0  0  0  0  0  0
  140.5240   74.8750  221.8470 N   0  0  0  0  0  0  0  0  0  0  0  0
  142.9350   75.4560  221.0520 H   0  0  0  0  0  0  0  0  0  0  0  0
  145.2530   75.0148  220.6769 H   0  0  0  0  0  0  0  0  0  0  0  0
  144.9155   73.2724  221.0883 H   0  0  0  0  0  0  0  0  0  0  0  0
  142.7612   72.3549  218.1104 H   0  0  0  0  0  0  0  0  0  0  0  0
  141.7389   73.7555  217.7096 H   0  0  0  0  0  0  0  0  0  0  0  0
  144.0036   72.5494  216.0547 H   0  0  0  0  0  0  0  0  0  0  0  0
  142.2599   72.6172  215.6383 H   0  0  0  0  0  0  0  0  0  0  0  0
  144.3403   74.5558  215.2117 H   0  0  0  0  0  0  0  0  0  0  0  0
  142.5741   74.5322  214.6798 H   0  0  0  0  0  0  0  0  0  0  0  0
  143.2922   76.5691  215.8531 H   0  0  0  0  0  0  0  0  0  0  0  0
  141.8955   75.6414  216.5751 H   0  0  0  0  0  0  0  0  0  0  0  0
  144.6784   76.0597  217.6684 H   0  0  0  0  0  0  0  0  0  0  0  0
  141.2540   76.8568  222.7951 H   0  0  0  0  0  0  0  0  0  0  0  0
  141.0641   78.4605  224.7002 H   0  0  0  0  0  0  0  0  0  0  0  0
  141.4985   80.8730  224.3872 H   0  0  0  0  0  0  0  0  0  0  0  0
  142.1322   81.7584  222.1231 H   0  0  0  0  0  0  0  0  0  0  0  0
  142.3195   80.1492  220.2286 H   0  0  0  0  0  0  0  0  0  0  0  0
  139.8283   77.0096  219.7961 H   0  0  0  0  0  0  0  0  0  0  0  0
  140.3194   71.7426  220.6673 H   0  0  0  0  0  0  0  0  0  0  0  0
  137.9100   72.0542  221.2441 H   0  0  0  0  0  0  0  0  0  0  0  0
  136.2190   73.4436  222.1048 H   0  0  0  0  0  0  0  0  0  0  0  0
  137.1608   77.4192  223.4700 H   0  0  0  0  0  0  0  0  0  0  0  0
  139.5390   77.0647  222.8863 H   0  0  0  0  0  0  0  0  0  0  0  0
  1  2  2  0
  2  3  1  0
  3  4  1  0
  4  5  1  0
  5  6  2  0
  5  7  1  0
  7  8  1  0
  8  9  1  0
  9 10  1  0
 10 11  1  0
 11 12  1  0
 12 13  1  0
 13 14  2  0
 14 15  1  0
 15 16  1  0
 16 17  2  0
 17 18  1  0
 18 19  2  0
 19 20  1  0
 20 21  2  0
 15 22  2  0
 22 23  1  0
  2 24  1  0
 24 25  2  0
 25 26  1  0
 26 27  2  0
 27 28  1  0
 28 29  2  0
 29 30  1  0
 29 31  1  0
 31 32  2  0
 32 33  1  0
 33 34  2  0
 12  7  1  0
 23 13  1  0
 34 24  1  0
 21 16  1  0
 33 27  1  0
  3 35  1  0
  4 36  1  0
  4 37  1  0
  8 38  1  0
  8 39  1  0
  9 40  1  0
  9 41  1  0
 10 42  1  0
 10 43  1  0
 11 44  1  0
 11 45  1  0
 12 46  1  6
 17 47  1  0
 18 48  1  0
 19 49  1  0
 20 50  1  0
 21 51  1  0
 22 52  1  0
 25 53  1  0
 26 54  1  0
 28 55  1  0
 31 56  1  0
 32 57  1  0
M  END
>  <smiles>  (26) 
O=C(NCC(=O)N1CCCC[C@H]1c1nc(-c2ccccc2)co1)c1ccc2cc(Cl)ccc2n1

>  <score_type>  (26) 
oracle

>  <origin>  (26) 
autodockgpu

>  <m_score__min__energy>  (26) 
-9.2699999999999996

>  <m_primary>  (26) 
energy

>  <rmsd>  (26) 
5.194140054091064

>  <m_score__min__rmsd>  (26) 
5.194140054091064

>  <meeko>  (26) 
{"free_energy": -7.11, "intermolecular_energy": -8.9, "internal_energy": -3.97, "cluster_size": 1, "cluster_id": 7, "rank_in_cluster": 1}

>  <energy>  (26) 
-7.84

>  <cluster_rmsd>  (26) 
1.14

>  <cluster>  (26) 
4

$$$$

     RDKit          3D

 57 61  0  0  0  0  0  0  0  0999 V2000
  141.8740   78.0010  217.2220 O   0  0  0  0  0  0  0  0  0  0  0  0
  141.9710   78.2570  218.4660 C   0  0  0  0  0  0  0  0  0  0  0  0
  142.8790   77.4630  219.2050 N   0  0  0  0  0  0  0  0  0  0  0  0
  143.6240   76.4330  218.5230 C   0  0  0  0  0  0  0  0  0  0  0  0
  142.9380   75.1370  218.5280 C   0  0  0  0  0  0  0  0  0  0  0  0
  142.4610   74.6330  217.4690 O   0  0  0  0  0  0  0  0  0  0  0  0
  142.8140   74.4440  219.7600 N   0  0  0  0  0  0  0  0  0  0  0  0
  143.9610   74.0600  220.5720 C   0  0  0  0  0  0  0  0  0  0  0  0
  144.0880   72.5700  220.4810 C   0  0  0  0  0  0  0  0  0  0  0  0
  142.7640   71.9450  220.7830 C   0  0  0  0  0  0  0  0  0  0  0  0
  141.6960   72.8800  221.2330 C   0  0  0  0  0  0  0  0  0  0  0  0
  141.5040   74.0600  220.3090 C   0  0  1  0  0  0  0  0  0  0  0  0
  141.0520   75.1870  221.1720 C   0  0  0  0  0  0  0  0  0  0  0  0
  141.5620   76.4140  221.3200 N   0  0  0  0  0  0  0  0  0  0  0  0
  140.8220   77.1140  222.2170 C   0  0  0  0  0  0  0  0  0  0  0  0
  141.0420   78.4860  222.6590 C   0  0  0  0  0  0  0  0  0  0  0  0
  140.0020   79.1720  223.2470 C   0  0  0  0  0  0  0  0  0  0  0  0
  140.2640   80.4700  223.6480 C   0  0  0  0  0  0  0  0  0  0  0  0
  141.5110   81.0570  223.4690 C   0  0  0  0  0  0  0  0  0  0  0  0
  142.5470   80.3380  222.8690 C   0  0  0  0  0  0  0  0  0  0  0  0
  142.2870   79.0420  222.4690 C   0  0  0  0  0  0  0  0  0  0  0  0
  139.8270   76.2470  222.6100 C   0  0  0  0  0  0  0  0  0  0  0  0
  140.0040   75.1220  221.9670 O   0  0  0  0  0  0  0  0  0  0  0  0
  141.1880   79.3140  219.0990 C   0  0  0  0  0  0  0  0  0  0  0  0
  139.8480   79.0430  219.3740 C   0  0  0  0  0  0  0  0  0  0  0  0
  139.0230   79.9790  219.9730 C   0  0  0  0  0  0  0  0  0  0  0  0
  139.5930   81.1960  220.2850 C   0  0  0  0  0  0  0  0  0  0  0  0
  138.7880   82.1460  220.8850 C   0  0  0  0  0  0  0  0  0  0  0  0
  139.3200   83.3950  221.2190 C   0  0  0  0  0  0  0  0  0  0  0  0
  138.2890   84.5870  221.9750 Cl  0  0  0  0  0  0  0  0  0  0  0  0
  140.6560   83.6370  220.9350 C   0  0  0  0  0  0  0  0  0  0  0  0
  141.4550   82.6720  220.3320 C   0  0  0  0  0  0  0  0  0  0  0  0
  140.9340   81.4350  219.9980 C   0  0  0  0  0  0  0  0  0  0  0  0
  141.7090   80.5050  219.4150 N   0  0  0  0  0  0  0  0  0  0  0  0
  142.9720   77.6610  220.2360 H   0  0  0  0  0  0  0  0  0  0  0  0
  143.7794   76.7443  217.4795 H   0  0  0  0  0  0  0  0  0  0  0  0
  144.5770   76.3051  219.0572 H   0  0  0  0  0  0  0  0  0  0  0  0
  144.8729   74.5403  220.1876 H   0  0  0  0  0  0  0  0  0  0  0  0
  143.8246   74.3776  221.6163 H   0  0  0  0  0  0  0  0  0  0  0  0
  144.4046   72.2890  219.4657 H   0  0  0  0  0  0  0  0  0  0  0  0
  144.8370   72.2178  221.2055 H   0  0  0  0  0  0  0  0  0  0  0  0
  142.4111   71.4431  219.8700 H   0  0  0  0  0  0  0  0  0  0  0  0
  142.9403   71.2626  221.6275 H   0  0  0  0  0  0  0  0  0  0  0  0
  140.7482   72.3248  221.2913 H   0  0  0  0  0  0  0  0  0  0  0  0
  142.0043   73.2794  222.2105 H   0  0  0  0  0  0  0  0  0  0  0  0
  140.7971   73.8258  219.4994 H   0  0  0  0  0  0  0  0  0  0  0  0
  139.0135   78.7112  223.3904 H   0  0  0  0  0  0  0  0  0  0  0  0
  139.4619   81.0545  224.1224 H   0  0  0  0  0  0  0  0  0  0  0  0
  141.6825   82.0916  223.8011 H   0  0  0  0  0  0  0  0  0  0  0  0
  143.5388   80.7897  222.7197 H   0  0  0  0  0  0  0  0  0  0  0  0
  143.0821   78.4484  221.9941 H   0  0  0  0  0  0  0  0  0  0  0  0
  139.0274   76.4619  223.3342 H   0  0  0  0  0  0  0  0  0  0  0  0
  139.4355   78.0587  219.1076 H   0  0  0  0  0  0  0  0  0  0  0  0
  137.9662   79.7635  220.1894 H   0  0  0  0  0  0  0  0  0  0  0  0
  137.7329   81.9202  221.0989 H   0  0  0  0  0  0  0  0  0  0  0  0
  141.0927   84.6133  221.1923 H   0  0  0  0  0  0  0  0  0  0  0  0
  142.5110   82.8943  220.1186 H   0  0  0  0  0  0  0  0  0  0  0  0
  1  2  2  0
  2  3  1  0
  3  4  1  0
  4  5  1  0
  5  6  2  0
  5  7  1  0
  7  8  1  0
  8  9  1  0
  9 10  1  0
 10 11  1  0
 11 12  1  0
 12 13  1  0
 13 14  2  0
 14 15  1  0
 15 16  1  0
 16 17  2  0
 17 18  1  0
 18 19  2  0
 19 20  1  0
 20 21  2  0
 15 22  2  0
 22 23  1  0
  2 24  1  0
 24 25  2  0
 25 26  1  0
 26 27  2  0
 27 28  1  0
 28 29  2  0
 29 30  1  0
 29 31  1  0
 31 32  2  0
 32 33  1  0
 33 34  2  0
 12  7  1  0
 23 13  1  0
 34 24  1  0
 21 16  1  0
 33 27  1  0
  3 35  1  0
  4 36  1  0
  4 37  1  0
  8 38  1  0
  8 39  1  0
  9 40  1  0
  9 41  1  0
 10 42  1  0
 10 43  1  0
 11 44  1  0
 11 45  1  0
 12 46  1  6
 17 47  1  0
 18 48  1  0
 19 49  1  0
 20 50  1  0
 21 51  1  0
 22 52  1  0
 25 53  1  0
 26 54  1  0
 28 55  1  0
 31 56  1  0
 32 57  1  0
M  END
>  <smiles>  (27) 
O=C(NCC(=O)N1CCCC[C@H]1c1nc(-c2ccccc2)co1)c1ccc2cc(Cl)ccc2n1

>  <score_type>  (27) 
oracle

>  <origin>  (27) 
autodockgpu

>  <m_score__min__energy>  (27) 
-9.2699999999999996

>  <m_primary>  (27) 
energy

>  <rmsd>  (27) 
8.359251846656612

>  <m_score__min__rmsd>  (27) 
8.359251846656612

>  <meeko>  (27) 
{"free_energy": -6.86, "intermolecular_energy": -8.65, "internal_energy": -4.37, "cluster_size": 6, "cluster_id": 8, "rank_in_cluster": 2}

>  <energy>  (27) 
-7.77

>  <cluster_rmsd>  (27) 
1.47

>  <cluster>  (27) 
4

$$$$

     RDKit          3D

 57 61  0  0  0  0  0  0  0  0999 V2000
  138.8850   70.8100  221.1060 O   0  0  0  0  0  0  0  0  0  0  0  0
  139.0680   71.5760  222.1070 C   0  0  0  0  0  0  0  0  0  0  0  0
  138.7850   72.9480  221.9120 N   0  0  0  0  0  0  0  0  0  0  0  0
  138.3200   73.3900  220.6200 C   0  0  0  0  0  0  0  0  0  0  0  0
  139.2830   73.1240  219.5470 C   0  0  0  0  0  0  0  0  0  0  0  0
  139.1270   72.1630  218.7370 O   0  0  0  0  0  0  0  0  0  0  0  0
  140.4130   73.9750  219.4280 N   0  0  0  0  0  0  0  0  0  0  0  0
  140.7040   74.7410  218.2240 C   0  0  0  0  0  0  0  0  0  0  0  0
  141.9070   74.1180  217.5840 C   0  0  0  0  0  0  0  0  0  0  0  0
  142.9850   73.9680  218.6080 C   0  0  0  0  0  0  0  0  0  0  0  0
  142.7030   74.5760  219.9370 C   0  0  0  0  0  0  0  0  0  0  0  0
  141.3800   74.1430  220.5250 C   0  0  1  0  0  0  0  0  0  0  0  0
  140.9020   75.2900  221.3470 C   0  0  0  0  0  0  0  0  0  0  0  0
  141.4370   76.5030  221.5240 N   0  0  0  0  0  0  0  0  0  0  0  0
  140.6570   77.2310  222.3620 C   0  0  0  0  0  0  0  0  0  0  0  0
  140.8870   78.5990  222.8110 C   0  0  0  0  0  0  0  0  0  0  0  0
  142.1830   79.0460  222.9500 C   0  0  0  0  0  0  0  0  0  0  0  0
  142.3450   80.3520  223.3790 C   0  0  0  0  0  0  0  0  0  0  0  0
  141.2600   81.1740  223.6570 C   0  0  0  0  0  0  0  0  0  0  0  0
  139.9580   80.6940  223.5080 C   0  0  0  0  0  0  0  0  0  0  0  0
  139.7940   79.3910  223.0790 C   0  0  0  0  0  0  0  0  0  0  0  0
  139.6110   76.3970  222.6890 C   0  0  0  0  0  0  0  0  0  0  0  0
  139.7990   75.2620  222.0660 O   0  0  0  0  0  0  0  0  0  0  0  0
  139.5420   71.0670  223.3910 C   0  0  0  0  0  0  0  0  0  0  0  0
  140.3510   71.9080  224.1550 C   0  0  0  0  0  0  0  0  0  0  0  0
  140.8500   71.5190  225.3850 C   0  0  0  0  0  0  0  0  0  0  0  0
  140.5070   70.2560  225.8210 C   0  0  0  0  0  0  0  0  0  0  0  0
  140.9940   69.8470  227.0480 C   0  0  0  0  0  0  0  0  0  0  0  0
  140.6740   68.5740  227.5310 C   0  0  0  0  0  0  0  0  0  0  0  0
  141.2990   68.0700  229.0840 Cl  0  0  0  0  0  0  0  0  0  0  0  0
  139.8670   67.7590  226.7510 C   0  0  0  0  0  0  0  0  0  0  0  0
  139.3840   68.1840  225.5180 C   0  0  0  0  0  0  0  0  0  0  0  0
  139.6980   69.4410  225.0350 C   0  0  0  0  0  0  0  0  0  0  0  0
  139.2280   69.8480  223.8430 N   0  0  0  0  0  0  0  0  0  0  0  0
  138.9310   73.5960  222.7300 H   0  0  0  0  0  0  0  0  0  0  0  0
  137.3809   72.8668  220.3868 H   0  0  0  0  0  0  0  0  0  0  0  0
  138.1781   74.4794  220.6745 H   0  0  0  0  0  0  0  0  0  0  0  0
  139.8472   74.7010  217.5353 H   0  0  0  0  0  0  0  0  0  0  0  0
  140.8937   75.7966  218.4685 H   0  0  0  0  0  0  0  0  0  0  0  0
  141.6400   73.1291  217.1831 H   0  0  0  0  0  0  0  0  0  0  0  0
  142.2628   74.7583  216.7634 H   0  0  0  0  0  0  0  0  0  0  0  0
  143.1603   72.8926  218.7589 H   0  0  0  0  0  0  0  0  0  0  0  0
  143.8547   74.5106  218.2089 H   0  0  0  0  0  0  0  0  0  0  0  0
  143.5053   74.2851  220.6311 H   0  0  0  0  0  0  0  0  0  0  0  0
  142.6539   75.6654  219.7926 H   0  0  0  0  0  0  0  0  0  0  0  0
  141.4811   73.2114  221.1011 H   0  0  0  0  0  0  0  0  0  0  0  0
  143.0447   78.3982  222.7312 H   0  0  0  0  0  0  0  0  0  0  0  0
  143.3626   80.7507  223.5035 H   0  0  0  0  0  0  0  0  0  0  0  0
  141.4278   82.2070  223.9958 H   0  0  0  0  0  0  0  0  0  0  0  0
  139.0895   81.3331  223.7253 H   0  0  0  0  0  0  0  0  0  0  0  0
  138.7806   78.9830  222.9505 H   0  0  0  0  0  0  0  0  0  0  0  0
  138.7694   76.6411  223.3539 H   0  0  0  0  0  0  0  0  0  0  0  0
  140.5989   72.9077  223.7689 H   0  0  0  0  0  0  0  0  0  0  0  0
  141.4885   72.1836  225.9855 H   0  0  0  0  0  0  0  0  0  0  0  0
  141.6303   70.5195  227.6420 H   0  0  0  0  0  0  0  0  0  0  0  0
  139.6034   66.7551  227.1154 H   0  0  0  0  0  0  0  0  0  0  0  0
  138.7467   67.5144  224.9219 H   0  0  0  0  0  0  0  0  0  0  0  0
  1  2  2  0
  2  3  1  0
  3  4  1  0
  4  5  1  0
  5  6  2  0
  5  7  1  0
  7  8  1  0
  8  9  1  0
  9 10  1  0
 10 11  1  0
 11 12  1  0
 12 13  1  0
 13 14  2  0
 14 15  1  0
 15 16  1  0
 16 17  2  0
 17 18  1  0
 18 19  2  0
 19 20  1  0
 20 21  2  0
 15 22  2  0
 22 23  1  0
  2 24  1  0
 24 25  2  0
 25 26  1  0
 26 27  2  0
 27 28  1  0
 28 29  2  0
 29 30  1  0
 29 31  1  0
 31 32  2  0
 32 33  1  0
 33 34  2  0
 12  7  1  0
 23 13  1  0
 34 24  1  0
 21 16  1  0
 33 27  1  0
  3 35  1  0
  4 36  1  0
  4 37  1  0
  8 38  1  0
  8 39  1  0
  9 40  1  0
  9 41  1  0
 10 42  1  0
 10 43  1  0
 11 44  1  0
 11 45  1  0
 12 46  1  1
 17 47  1  0
 18 48  1  0
 19 49  1  0
 20 50  1  0
 21 51  1  0
 22 52  1  0
 25 53  1  0
 26 54  1  0
 28 55  1  0
 31 56  1  0
 32 57  1  0
M  END
>  <smiles>  (28) 
O=C(NCC(=O)N1CCCC[C@H]1c1nc(-c2ccccc2)co1)c1ccc2cc(Cl)ccc2n1

>  <score_type>  (28) 
oracle

>  <origin>  (28) 
autodockgpu

>  <m_score__min__energy>  (28) 
-9.2699999999999996

>  <m_primary>  (28) 
energy

>  <rmsd>  (28) 
3.279110326299728

>  <m_score__min__rmsd>  (28) 
3.279110326299728

>  <meeko>  (28) 
{"free_energy": -9.17, "intermolecular_energy": -10.96, "internal_energy": -2.39, "cluster_size": 13, "cluster_id": 1, "rank_in_cluster": 2}

>  <energy>  (28) 
-7.64

>  <cluster_rmsd>  (28) 
1.08

>  <cluster>  (28) 
4

$$$$

     RDKit          3D

 57 61  0  0  0  0  0  0  0  0999 V2000
  137.3520   71.0530  221.0800 O   0  0  0  0  0  0  0  0  0  0  0  0
  137.6590   71.6400  222.1680 C   0  0  0  0  0  0  0  0  0  0  0  0
  137.4480   73.0380  222.2130 N   0  0  0  0  0  0  0  0  0  0  0  0
  136.9110   73.7020  221.0500 C   0  0  0  0  0  0  0  0  0  0  0  0
  137.9390   74.0350  220.0590 C   0  0  0  0  0  0  0  0  0  0  0  0
  137.6410   74.5310  218.9330 O   0  0  0  0  0  0  0  0  0  0  0  0
  139.2970   73.7880  220.3870 N   0  0  0  0  0  0  0  0  0  0  0  0
  140.2370   73.1720  219.4600 C   0  0  0  0  0  0  0  0  0  0  0  0
  140.5290   71.7970  219.9760 C   0  0  0  0  0  0  0  0  0  0  0  0
  140.9100   71.8840  221.4180 C   0  0  0  0  0  0  0  0  0  0  0  0
  141.0570   73.2610  221.9660 C   0  0  0  0  0  0  0  0  0  0  0  0
  139.8570   74.1410  221.7010 C   0  0  1  0  0  0  0  0  0  0  0  0
  140.3860   75.5290  221.5850 C   0  0  0  0  0  0  0  0  0  0  0  0
  140.5020   76.4860  222.5130 N   0  0  0  0  0  0  0  0  0  0  0  0
  141.0410   77.6010  221.9580 C   0  0  0  0  0  0  0  0  0  0  0  0
  141.3310   78.8630  222.6260 C   0  0  0  0  0  0  0  0  0  0  0  0
  142.6450   79.2540  222.7720 C   0  0  0  0  0  0  0  0  0  0  0  0
  142.8650   80.4600  223.4140 C   0  0  0  0  0  0  0  0  0  0  0  0
  141.8190   81.2410  223.8890 C   0  0  0  0  0  0  0  0  0  0  0  0
  140.4970   80.8200  223.7270 C   0  0  0  0  0  0  0  0  0  0  0  0
  140.2760   79.6170  223.0860 C   0  0  0  0  0  0  0  0  0  0  0  0
  141.2500   77.2750  220.6360 C   0  0  0  0  0  0  0  0  0  0  0  0
  140.8490   76.0420  220.4630 O   0  0  0  0  0  0  0  0  0  0  0  0
  138.2000   70.9120  223.3120 C   0  0  0  0  0  0  0  0  0  0  0  0
  137.7810   69.5930  223.4880 C   0  0  0  0  0  0  0  0  0  0  0  0
  138.2370   68.8180  224.5410 C   0  0  0  0  0  0  0  0  0  0  0  0
  139.1270   69.4160  225.4090 C   0  0  0  0  0  0  0  0  0  0  0  0
  139.5950   68.6600  226.4670 C   0  0  0  0  0  0  0  0  0  0  0  0
  140.4980   69.2230  227.3740 C   0  0  0  0  0  0  0  0  0  0  0  0
  141.0810   68.2560  228.7080 Cl  0  0  0  0  0  0  0  0  0  0  0  0
  140.8980   70.5360  227.1750 C   0  0  0  0  0  0  0  0  0  0  0  0
  140.4190   71.2850  226.1050 C   0  0  0  0  0  0  0  0  0  0  0  0
  139.5250   70.7340  225.2050 C   0  0  0  0  0  0  0  0  0  0  0  0
  139.0640   71.4610  224.1730 N   0  0  0  0  0  0  0  0  0  0  0  0
  137.6970   73.5400  223.1050 H   0  0  0  0  0  0  0  0  0  0  0  0
  136.1699   73.0399  220.5784 H   0  0  0  0  0  0  0  0  0  0  0  0
  136.4591   74.6463  221.3877 H   0  0  0  0  0  0  0  0  0  0  0  0
  139.7916   73.1113  218.4560 H   0  0  0  0  0  0  0  0  0  0  0  0
  141.1598   73.7662  219.3864 H   0  0  0  0  0  0  0  0  0  0  0  0
  139.6341   71.1663  219.8693 H   0  0  0  0  0  0  0  0  0  0  0  0
  141.3560   71.3545  219.4013 H   0  0  0  0  0  0  0  0  0  0  0  0
  140.1350   71.3682  222.0039 H   0  0  0  0  0  0  0  0  0  0  0  0
  141.9064   71.4240  221.4928 H   0  0  0  0  0  0  0  0  0  0  0  0
  141.2046   73.1900  223.0537 H   0  0  0  0  0  0  0  0  0  0  0  0
  141.9178   73.7228  221.4603 H   0  0  0  0  0  0  0  0  0  0  0  0
  139.0966   74.0326  222.4884 H   0  0  0  0  0  0  0  0  0  0  0  0
  143.4762   78.6386  222.3972 H   0  0  0  0  0  0  0  0  0  0  0  0
  143.8985   80.8105  223.5522 H   0  0  0  0  0  0  0  0  0  0  0  0
  142.0325   82.1943  224.3945 H   0  0  0  0  0  0  0  0  0  0  0  0
  139.6585   81.4275  224.0983 H   0  0  0  0  0  0  0  0  0  0  0  0
  139.2463   79.2580  222.9417 H   0  0  0  0  0  0  0  0  0  0  0  0
  141.6771   77.9330  219.8649 H   0  0  0  0  0  0  0  0  0  0  0  0
  137.0695   69.1571  222.7712 H   0  0  0  0  0  0  0  0  0  0  0  0
  137.9063   67.7779  224.6785 H   0  0  0  0  0  0  0  0  0  0  0  0
  139.2588   67.6205  226.5949 H   0  0  0  0  0  0  0  0  0  0  0  0
  141.6089   70.9948  227.8780 H   0  0  0  0  0  0  0  0  0  0  0  0
  140.7542   72.3244  225.9736 H   0  0  0  0  0  0  0  0  0  0  0  0
  1  2  2  0
  2  3  1  0
  3  4  1  0
  4  5  1  0
  5  6  2  0
  5  7  1  0
  7  8  1  0
  8  9  1  0
  9 10  1  0
 10 11  1  0
 11 12  1  0
 12 13  1  0
 13 14  2  0
 14 15  1  0
 15 16  1  0
 16 17  2  0
 17 18  1  0
 18 19  2  0
 19 20  1  0
 20 21  2  0
 15 22  2  0
 22 23  1  0
  2 24  1  0
 24 25  2  0
 25 26  1  0
 26 27  2  0
 27 28  1  0
 28 29  2  0
 29 30  1  0
 29 31  1  0
 31 32  2  0
 32 33  1  0
 33 34  2  0
 12  7  1  0
 23 13  1  0
 34 24  1  0
 21 16  1  0
 33 27  1  0
  3 35  1  0
  4 36  1  0
  4 37  1  0
  8 38  1  0
  8 39  1  0
  9 40  1  0
  9 41  1  0
 10 42  1  0
 10 43  1  0
 11 44  1  0
 11 45  1  0
 12 46  1  1
 17 47  1  0
 18 48  1  0
 19 49  1  0
 20 50  1  0
 21 51  1  0
 22 52  1  0
 25 53  1  0
 26 54  1  0
 28 55  1  0
 31 56  1  0
 32 57  1  0
M  END
>  <smiles>  (29) 
O=C(NCC(=O)N1CCCC[C@H]1c1nc(-c2ccccc2)co1)c1ccc2cc(Cl)ccc2n1

>  <score_type>  (29) 
oracle

>  <origin>  (29) 
autodockgpu

>  <m_score__min__energy>  (29) 
-9.2699999999999996

>  <m_primary>  (29) 
energy

>  <rmsd>  (29) 
3.1946639360050386

>  <m_score__min__rmsd>  (29) 
3.1946639360050386

>  <meeko>  (29) 
{"free_energy": -8.77, "intermolecular_energy": -10.56, "internal_energy": -2.35, "cluster_size": 13, "cluster_id": 1, "rank_in_cluster": 12}

>  <energy>  (29) 
-7.57

>  <cluster_rmsd>  (29) 
1.05

>  <cluster>  (29) 
4

$$$$

     RDKit          3D

 57 61  0  0  0  0  0  0  0  0999 V2000
  135.3630   74.9150  222.5640 O   0  0  0  0  0  0  0  0  0  0  0  0
  136.6350   74.8960  222.6320 C   0  0  0  0  0  0  0  0  0  0  0  0
  137.2450   73.6210  222.6770 N   0  0  0  0  0  0  0  0  0  0  0  0
  136.4110   72.4440  222.6460 C   0  0  0  0  0  0  0  0  0  0  0  0
  137.0880   71.2820  222.0620 C   0  0  0  0  0  0  0  0  0  0  0  0
  136.6400   70.7000  221.0310 O   0  0  0  0  0  0  0  0  0  0  0  0
  138.2740   70.8100  222.6820 N   0  0  0  0  0  0  0  0  0  0  0  0
  138.7160   69.4250  222.5960 C   0  0  0  0  0  0  0  0  0  0  0  0
  138.5290   68.8170  223.9530 C   0  0  0  0  0  0  0  0  0  0  0  0
  139.1610   69.7000  224.9780 C   0  0  0  0  0  0  0  0  0  0  0  0
  139.9320   70.8580  224.4480 C   0  0  0  0  0  0  0  0  0  0  0  0
  139.1500   71.6980  223.4640 C   0  0  1  0  0  0  0  0  0  0  0  0
  140.1530   72.2570  222.5150 C   0  0  0  0  0  0  0  0  0  0  0  0
  140.3190   73.5110  222.0800 N   0  0  0  0  0  0  0  0  0  0  0  0
  141.3660   73.5640  221.2180 C   0  0  0  0  0  0  0  0  0  0  0  0
  141.8740   74.7390  220.5230 C   0  0  0  0  0  0  0  0  0  0  0  0
  143.2360   74.8920  220.3800 C   0  0  0  0  0  0  0  0  0  0  0  0
  143.6660   76.0260  219.7120 C   0  0  0  0  0  0  0  0  0  0  0  0
  142.7740   76.9650  219.2100 C   0  0  0  0  0  0  0  0  0  0  0  0
  141.3990   76.7850  219.3700 C   0  0  0  0  0  0  0  0  0  0  0  0
  140.9690   75.6540  220.0350 C   0  0  0  0  0  0  0  0  0  0  0  0
  141.8340   72.2700  221.1490 C   0  0  0  0  0  0  0  0  0  0  0  0
  141.0870   71.5350  221.9320 O   0  0  0  0  0  0  0  0  0  0  0  0
  137.4240   76.1240  222.6600 C   0  0  0  0  0  0  0  0  0  0  0  0
  136.7290   77.3330  222.6690 C   0  0  0  0  0  0  0  0  0  0  0  0
  137.3860   78.5510  222.6960 C   0  0  0  0  0  0  0  0  0  0  0  0
  138.7650   78.5100  222.7140 C   0  0  0  0  0  0  0  0  0  0  0  0
  139.4420   79.7140  222.7420 C   0  0  0  0  0  0  0  0  0  0  0  0
  140.8400   79.7240  222.7600 C   0  0  0  0  0  0  0  0  0  0  0  0
  141.6820   81.2550  222.7940 Cl  0  0  0  0  0  0  0  0  0  0  0  0
  141.5050   78.5070  222.7510 C   0  0  0  0  0  0  0  0  0  0  0  0
  140.8120   77.3020  222.7230 C   0  0  0  0  0  0  0  0  0  0  0  0
  139.4290   77.2860  222.7050 C   0  0  0  0  0  0  0  0  0  0  0  0
  138.7620   76.1200  222.6780 N   0  0  0  0  0  0  0  0  0  0  0  0
  138.2960   73.5860  222.7330 H   0  0  0  0  0  0  0  0  0  0  0  0
  136.1141   72.1966  223.6759 H   0  0  0  0  0  0  0  0  0  0  0  0
  135.5405   72.6721  222.0134 H   0  0  0  0  0  0  0  0  0  0  0  0
  138.1132   68.8821  221.8531 H   0  0  0  0  0  0  0  0  0  0  0  0
  139.7694   69.3691  222.2840 H   0  0  0  0  0  0  0  0  0  0  0  0
  137.4546   68.7164  224.1662 H   0  0  0  0  0  0  0  0  0  0  0  0
  138.9996   67.8231  223.9807 H   0  0  0  0  0  0  0  0  0  0  0  0
  138.3620   70.0934  225.6236 H   0  0  0  0  0  0  0  0  0  0  0  0
  139.8924   69.0700  225.5054 H   0  0  0  0  0  0  0  0  0  0  0  0
  140.2284   71.4962  225.2934 H   0  0  0  0  0  0  0  0  0  0  0  0
  140.8013   70.4516  223.9102 H   0  0  0  0  0  0  0  0  0  0  0  0
  138.5608   72.4732  223.9758 H   0  0  0  0  0  0  0  0  0  0  0  0
  143.9456   74.1508  220.7764 H   0  0  0  0  0  0  0  0  0  0  0  0
  144.7453   76.1880  219.5749 H   0  0  0  0  0  0  0  0  0  0  0  0
  143.1526   77.8540  218.6843 H   0  0  0  0  0  0  0  0  0  0  0  0
  140.6810   77.5208  218.9787 H   0  0  0  0  0  0  0  0  0  0  0  0
  139.8917   75.4824  220.1763 H   0  0  0  0  0  0  0  0  0  0  0  0
  142.6829   71.9182  220.5444 H   0  0  0  0  0  0  0  0  0  0  0  0
  135.6292   77.3183  222.6543 H   0  0  0  0  0  0  0  0  0  0  0  0
  136.8363   79.5038  222.7028 H   0  0  0  0  0  0  0  0  0  0  0  0
  138.8831   80.6614  222.7501 H   0  0  0  0  0  0  0  0  0  0  0  0
  142.6048   78.4948  222.7664 H   0  0  0  0  0  0  0  0  0  0  0  0
  141.3684   76.3531  222.7151 H   0  0  0  0  0  0  0  0  0  0  0  0
  1  2  2  0
  2  3  1  0
  3  4  1  0
  4  5  1  0
  5  6  2  0
  5  7  1  0
  7  8  1  0
  8  9  1  0
  9 10  1  0
 10 11  1  0
 11 12  1  0
 12 13  1  0
 13 14  2  0
 14 15  1  0
 15 16  1  0
 16 17  2  0
 17 18  1  0
 18 19  2  0
 19 20  1  0
 20 21  2  0
 15 22  2  0
 22 23  1  0
  2 24  1  0
 24 25  2  0
 25 26  1  0
 26 27  2  0
 27 28  1  0
 28 29  2  0
 29 30  1  0
 29 31  1  0
 31 32  2  0
 32 33  1  0
 33 34  2  0
 12  7  1  0
 23 13  1  0
 34 24  1  0
 21 16  1  0
 33 27  1  0
  3 35  1  0
  4 36  1  0
  4 37  1  0
  8 38  1  0
  8 39  1  0
  9 40  1  0
  9 41  1  0
 10 42  1  0
 10 43  1  0
 11 44  1  0
 11 45  1  0
 12 46  1  1
 17 47  1  0
 18 48  1  0
 19 49  1  0
 20 50  1  0
 21 51  1  0
 22 52  1  0
 25 53  1  0
 26 54  1  0
 28 55  1  0
 31 56  1  0
 32 57  1  0
M  END
>  <smiles>  (30) 
O=C(NCC(=O)N1CCCC[C@H]1c1nc(-c2ccccc2)co1)c1ccc2cc(Cl)ccc2n1

>  <score_type>  (30) 
oracle

>  <origin>  (30) 
autodockgpu

>  <m_score__min__energy>  (30) 
-9.2699999999999996

>  <m_primary>  (30) 
energy

>  <rmsd>  (30) 
7.712501806052224

>  <m_score__min__rmsd>  (30) 
7.712501806052224

>  <meeko>  (30) 
{"free_energy": -7.43, "intermolecular_energy": -9.22, "internal_energy": -3.58, "cluster_size": 15, "cluster_id": 4, "rank_in_cluster": 12}

>  <energy>  (30) 
-7.47

>  <cluster_rmsd>  (30) 
1.02

>  <cluster>  (30) 
4

$$$$

     RDKit          3D

 57 61  0  0  0  0  0  0  0  0999 V2000
  135.9980   74.8410  221.5900 O   0  0  0  0  0  0  0  0  0  0  0  0
  137.1800   74.8540  222.0670 C   0  0  0  0  0  0  0  0  0  0  0  0
  137.7650   73.5940  222.3350 N   0  0  0  0  0  0  0  0  0  0  0  0
  137.0070   72.3980  222.0610 C   0  0  0  0  0  0  0  0  0  0  0  0
  137.0580   71.4280  223.1600 C   0  0  0  0  0  0  0  0  0  0  0  0
  136.0350   71.1590  223.8570 O   0  0  0  0  0  0  0  0  0  0  0  0
  138.2920   70.7850  223.4380 N   0  0  0  0  0  0  0  0  0  0  0  0
  138.5070   69.3600  223.2290 C   0  0  0  0  0  0  0  0  0  0  0  0
  138.6060   68.7260  224.5830 C   0  0  0  0  0  0  0  0  0  0  0  0
  139.5990   69.4800  225.4070 C   0  0  0  0  0  0  0  0  0  0  0  0
  140.3490   70.5510  224.6950 C   0  0  0  0  0  0  0  0  0  0  0  0
  139.4530   71.5220  223.9610 C   0  0  1  0  0  0  0  0  0  0  0  0
  140.2340   71.9890  222.7810 C   0  0  0  0  0  0  0  0  0  0  0  0
  140.7030   73.2060  222.4870 N   0  0  0  0  0  0  0  0  0  0  0  0
  141.3640   73.1710  221.3020 C   0  0  0  0  0  0  0  0  0  0  0  0
  142.0200   74.2830  220.6280 C   0  0  0  0  0  0  0  0  0  0  0  0
  143.3880   74.2500  220.4630 C   0  0  0  0  0  0  0  0  0  0  0  0
  143.9610   75.3310  219.8170 C   0  0  0  0  0  0  0  0  0  0  0  0
  143.2010   76.3980  219.3550 C   0  0  0  0  0  0  0  0  0  0  0  0
  141.8160   76.4050  219.5350 C   0  0  0  0  0  0  0  0  0  0  0  0
  141.2430   75.3270  220.1800 C   0  0  0  0  0  0  0  0  0  0  0  0
  141.2750   71.8610  220.8860 C   0  0  0  0  0  0  0  0  0  0  0  0
  140.6000   71.2010  221.7910 O   0  0  0  0  0  0  0  0  0  0  0  0
  137.8950   76.1000  222.3230 C   0  0  0  0  0  0  0  0  0  0  0  0
  137.1350   77.2650  222.4310 C   0  0  0  0  0  0  0  0  0  0  0  0
  137.7190   78.4960  222.6730 C   0  0  0  0  0  0  0  0  0  0  0  0
  139.0930   78.5150  222.8020 C   0  0  0  0  0  0  0  0  0  0  0  0
  139.6970   79.7340  223.0450 C   0  0  0  0  0  0  0  0  0  0  0  0
  141.0870   79.8030  223.1830 C   0  0  0  0  0  0  0  0  0  0  0  0
  141.8370   81.3520  223.4880 Cl  0  0  0  0  0  0  0  0  0  0  0  0
  141.8170   78.6290  223.0710 C   0  0  0  0  0  0  0  0  0  0  0  0
  141.1960   77.4090  222.8270 C   0  0  0  0  0  0  0  0  0  0  0  0
  139.8220   77.3350  222.6890 C   0  0  0  0  0  0  0  0  0  0  0  0
  139.2250   76.1540  222.4530 N   0  0  0  0  0  0  0  0  0  0  0  0
  138.7420   73.5860  222.7300 H   0  0  0  0  0  0  0  0  0  0  0  0
  135.9575   72.6789  221.8887 H   0  0  0  0  0  0  0  0  0  0  0  0
  137.4521   71.9194  221.1762 H   0  0  0  0  0  0  0  0  0  0  0  0
  137.6626   68.9288  222.6713 H   0  0  0  0  0  0  0  0  0  0  0  0
  139.4231   69.1837  222.6463 H   0  0  0  0  0  0  0  0  0  0  0  0
  137.6226   68.7539  225.0751 H   0  0  0  0  0  0  0  0  0  0  0  0
  138.9304   67.6801  224.4786 H   0  0  0  0  0  0  0  0  0  0  0  0
  139.0590   69.9454  226.2447 H   0  0  0  0  0  0  0  0  0  0  0  0
  140.3531   68.7417  225.7172 H   0  0  0  0  0  0  0  0  0  0  0  0
  140.9413   71.1120  225.4329 H   0  0  0  0  0  0  0  0  0  0  0  0
  140.9825   70.0595  223.9420 H   0  0  0  0  0  0  0  0  0  0  0  0
  139.1284   72.3438  224.6162 H   0  0  0  0  0  0  0  0  0  0  0  0
  143.9936   73.4068  220.8266 H   0  0  0  0  0  0  0  0  0  0  0  0
  145.0503   75.3459  219.6648 H   0  0  0  0  0  0  0  0  0  0  0  0
  143.6917   77.2404  218.8456 H   0  0  0  0  0  0  0  0  0  0  0  0
  141.2012   77.2428  219.1743 H   0  0  0  0  0  0  0  0  0  0  0  0
  140.1546   75.3023  220.3374 H   0  0  0  0  0  0  0  0  0  0  0  0
  141.6961   71.4447  219.9590 H   0  0  0  0  0  0  0  0  0  0  0  0
  136.0423   77.2034  222.3208 H   0  0  0  0  0  0  0  0  0  0  0  0
  137.1182   79.4135  222.7583 H   0  0  0  0  0  0  0  0  0  0  0  0
  139.0874   80.6457  223.1295 H   0  0  0  0  0  0  0  0  0  0  0  0
  142.9113   78.6638  223.1775 H   0  0  0  0  0  0  0  0  0  0  0  0
  141.8027   76.4953  222.7431 H   0  0  0  0  0  0  0  0  0  0  0  0
  1  2  2  0
  2  3  1  0
  3  4  1  0
  4  5  1  0
  5  6  2  0
  5  7  1  0
  7  8  1  0
  8  9  1  0
  9 10  1  0
 10 11  1  0
 11 12  1  0
 12 13  1  0
 13 14  2  0
 14 15  1  0
 15 16  1  0
 16 17  2  0
 17 18  1  0
 18 19  2  0
 19 20  1  0
 20 21  2  0
 15 22  2  0
 22 23  1  0
  2 24  1  0
 24 25  2  0
 25 26  1  0
 26 27  2  0
 27 28  1  0
 28 29  2  0
 29 30  1  0
 29 31  1  0
 31 32  2  0
 32 33  1  0
 33 34  2  0
 12  7  1  0
 23 13  1  0
 34 24  1  0
 21 16  1  0
 33 27  1  0
  3 35  1  0
  4 36  1  0
  4 37  1  0
  8 38  1  0
  8 39  1  0
  9 40  1  0
  9 41  1  0
 10 42  1  0
 10 43  1  0
 11 44  1  0
 11 45  1  0
 12 46  1  1
 17 47  1  0
 18 48  1  0
 19 49  1  0
 20 50  1  0
 21 51  1  0
 22 52  1  0
 25 53  1  0
 26 54  1  0
 28 55  1  0
 31 56  1  0
 32 57  1  0
M  END
>  <smiles>  (31) 
O=C(NCC(=O)N1CCCC[C@H]1c1nc(-c2ccccc2)co1)c1ccc2cc(Cl)ccc2n1

>  <score_type>  (31) 
oracle

>  <origin>  (31) 
autodockgpu

>  <m_score__min__energy>  (31) 
-9.2699999999999996

>  <m_primary>  (31) 
energy

>  <rmsd>  (31) 
7.889198114028754

>  <m_score__min__rmsd>  (31) 
7.889198114028754

>  <meeko>  (31) 
{"free_energy": -8.11, "intermolecular_energy": -9.9, "internal_energy": -3.63, "cluster_size": 15, "cluster_id": 4, "rank_in_cluster": 2}

>  <energy>  (31) 
-7.43

>  <cluster_rmsd>  (31) 
1.31

>  <cluster>  (31) 
4

$$$$

     RDKit          3D

 57 61  0  0  0  0  0  0  0  0999 V2000
  136.8960   76.7500  222.1890 O   0  0  0  0  0  0  0  0  0  0  0  0
  136.9180   75.5790  222.6890 C   0  0  0  0  0  0  0  0  0  0  0  0
  137.9870   74.7420  222.2920 N   0  0  0  0  0  0  0  0  0  0  0  0
  138.9670   75.2520  221.3630 C   0  0  0  0  0  0  0  0  0  0  0  0
  140.3160   74.7420  221.6230 C   0  0  0  0  0  0  0  0  0  0  0  0
  141.2350   75.4900  222.0710 O   0  0  0  0  0  0  0  0  0  0  0  0
  140.5830   73.3740  221.3600 N   0  0  0  0  0  0  0  0  0  0  0  0
  141.9320   72.8420  221.2160 C   0  0  0  0  0  0  0  0  0  0  0  0
  142.1190   72.4950  219.7710 C   0  0  0  0  0  0  0  0  0  0  0  0
  140.9720   71.6520  219.3170 C   0  0  0  0  0  0  0  0  0  0  0  0
  140.0170   71.2320  220.3800 C   0  0  0  0  0  0  0  0  0  0  0  0
  139.5030   72.3850  221.2110 C   0  0  1  0  0  0  0  0  0  0  0  0
  139.2420   71.8260  222.5680 C   0  0  0  0  0  0  0  0  0  0  0  0
  140.0990   71.4600  223.5260 N   0  0  0  0  0  0  0  0  0  0  0  0
  139.4150   71.0040  224.6060 C   0  0  0  0  0  0  0  0  0  0  0  0
  139.9740   70.5100  225.8580 C   0  0  0  0  0  0  0  0  0  0  0  0
  140.4860   71.4150  226.7620 C   0  0  0  0  0  0  0  0  0  0  0  0
  141.0060   70.8930  227.9340 C   0  0  0  0  0  0  0  0  0  0  0  0
  141.0120   69.5280  228.1910 C   0  0  0  0  0  0  0  0  0  0  0  0
  140.4860   68.6340  227.2560 C   0  0  0  0  0  0  0  0  0  0  0  0
  139.9680   69.1530  226.0860 C   0  0  0  0  0  0  0  0  0  0  0  0
  138.0870   71.1130  224.2560 C   0  0  0  0  0  0  0  0  0  0  0  0
  138.0350   71.6030  223.0440 O   0  0  0  0  0  0  0  0  0  0  0  0
  135.8950   75.1200  223.6250 C   0  0  0  0  0  0  0  0  0  0  0  0
  135.1120   76.0930  224.2450 C   0  0  0  0  0  0  0  0  0  0  0  0
  134.1160   75.7610  225.1470 C   0  0  0  0  0  0  0  0  0  0  0  0
  133.9370   74.4170  225.4040 C   0  0  0  0  0  0  0  0  0  0  0  0
  132.9480   74.0620  226.3010 C   0  0  0  0  0  0  0  0  0  0  0  0
  132.7290   72.7130  226.5940 C   0  0  0  0  0  0  0  0  0  0  0  0
  131.4750   72.2790  227.7320 Cl  0  0  0  0  0  0  0  0  0  0  0  0
  133.5220   71.7670  225.9620 C   0  0  0  0  0  0  0  0  0  0  0  0
  134.5140   72.1380  225.0610 C   0  0  0  0  0  0  0  0  0  0  0  0
  134.7350   73.4710  224.7680 C   0  0  0  0  0  0  0  0  0  0  0  0
  135.6950   73.8260  223.8960 N   0  0  0  0  0  0  0  0  0  0  0  0
  138.0210   73.7700  222.6950 H   0  0  0  0  0  0  0  0  0  0  0  0
  138.6711   74.9599  220.3446 H   0  0  0  0  0  0  0  0  0  0  0  0
  138.9979   76.3452  221.4815 H   0  0  0  0  0  0  0  0  0  0  0  0
  142.6701   73.5986  221.5205 H   0  0  0  0  0  0  0  0  0  0  0  0
  142.0722   71.9555  221.8519 H   0  0  0  0  0  0  0  0  0  0  0  0
  142.1574   73.4174  219.1729 H   0  0  0  0  0  0  0  0  0  0  0  0
  143.0599   71.9399  219.6425 H   0  0  0  0  0  0  0  0  0  0  0  0
  140.4095   72.2241  218.5645 H   0  0  0  0  0  0  0  0  0  0  0  0
  141.4175   70.7233  218.9310 H   0  0  0  0  0  0  0  0  0  0  0  0
  139.1591   70.7359  219.9026 H   0  0  0  0  0  0  0  0  0  0  0  0
  140.5604   70.5580  221.0585 H   0  0  0  0  0  0  0  0  0  0  0  0
  138.6145   72.8457  220.7545 H   0  0  0  0  0  0  0  0  0  0  0  0
  140.4818   72.4968  226.5627 H   0  0  0  0  0  0  0  0  0  0  0  0
  141.4267   71.5793  228.6837 H   0  0  0  0  0  0  0  0  0  0  0  0
  141.4326   69.1498  229.1344 H   0  0  0  0  0  0  0  0  0  0  0  0
  140.4844   67.5505  227.4456 H   0  0  0  0  0  0  0  0  0  0  0  0
  139.5466   68.4752  225.3290 H   0  0  0  0  0  0  0  0  0  0  0  0
  137.2258   70.8377  224.8825 H   0  0  0  0  0  0  0  0  0  0  0  0
  135.2906   77.1529  224.0110 H   0  0  0  0  0  0  0  0  0  0  0  0
  133.4983   76.5297  225.6344 H   0  0  0  0  0  0  0  0  0  0  0  0
  132.3352   74.8381  226.7828 H   0  0  0  0  0  0  0  0  0  0  0  0
  133.3628   70.7002  226.1781 H   0  0  0  0  0  0  0  0  0  0  0  0
  135.1282   71.3643  224.5772 H   0  0  0  0  0  0  0  0  0  0  0  0
  1  2  2  0
  2  3  1  0
  3  4  1  0
  4  5  1  0
  5  6  2  0
  5  7  1  0
  7  8  1  0
  8  9  1  0
  9 10  1  0
 10 11  1  0
 11 12  1  0
 12 13  1  0
 13 14  2  0
 14 15  1  0
 15 16  1  0
 16 17  2  0
 17 18  1  0
 18 19  2  0
 19 20  1  0
 20 21  2  0
 15 22  2  0
 22 23  1  0
  2 24  1  0
 24 25  2  0
 25 26  1  0
 26 27  2  0
 27 28  1  0
 28 29  2  0
 29 30  1  0
 29 31  1  0
 31 32  2  0
 32 33  1  0
 33 34  2  0
 12  7  1  0
 23 13  1  0
 34 24  1  0
 21 16  1  0
 33 27  1  0
  3 35  1  0
  4 36  1  0
  4 37  1  0
  8 38  1  0
  8 39  1  0
  9 40  1  0
  9 41  1  0
 10 42  1  0
 10 43  1  0
 11 44  1  0
 11 45  1  0
 12 46  1  6
 17 47  1  0
 18 48  1  0
 19 49  1  0
 20 50  1  0
 21 51  1  0
 22 52  1  0
 25 53  1  0
 26 54  1  0
 28 55  1  0
 31 56  1  0
 32 57  1  0
M  END
>  <smiles>  (32) 
O=C(NCC(=O)N1CCCC[C@H]1c1nc(-c2ccccc2)co1)c1ccc2cc(Cl)ccc2n1

>  <score_type>  (32) 
oracle

>  <origin>  (32) 
autodockgpu

>  <m_score__min__energy>  (32) 
-9.2699999999999996

>  <m_primary>  (32) 
energy

>  <rmsd>  (32) 
8.363281312075342

>  <m_score__min__rmsd>  (32) 
8.363281312075342

>  <meeko>  (32) 
{"free_energy": -8.22, "intermolecular_energy": -10.01, "internal_energy": -2.94, "cluster_size": 2, "cluster_id": 5, "rank_in_cluster": 1}

>  <energy>  (32) 
-7.39

>  <cluster_rmsd>  (32) 
1.26

>  <cluster>  (32) 
4

$$$$

     RDKit          3D

 57 61  0  0  0  0  0  0  0  0999 V2000
  141.9640   78.2310  217.1750 O   0  0  0  0  0  0  0  0  0  0  0  0
  142.0580   78.4080  218.4320 C   0  0  0  0  0  0  0  0  0  0  0  0
  142.8560   77.4800  219.1420 N   0  0  0  0  0  0  0  0  0  0  0  0
  143.4990   76.4120  218.4170 C   0  0  0  0  0  0  0  0  0  0  0  0
  142.7480   75.1540  218.4720 C   0  0  0  0  0  0  0  0  0  0  0  0
  142.1780   74.6750  217.4470 O   0  0  0  0  0  0  0  0  0  0  0  0
  142.6670   74.4690  219.7120 N   0  0  0  0  0  0  0  0  0  0  0  0
  143.8420   74.0850  220.4830 C   0  0  0  0  0  0  0  0  0  0  0  0
  143.9580   72.5940  220.3970 C   0  0  0  0  0  0  0  0  0  0  0  0
  142.6430   71.9780  220.7520 C   0  0  0  0  0  0  0  0  0  0  0  0
  141.5970   72.9210  221.2360 C   0  0  0  0  0  0  0  0  0  0  0  0
  141.3760   74.0950  220.3120 C   0  0  1  0  0  0  0  0  0  0  0  0
  140.9620   75.2300  221.1830 C   0  0  0  0  0  0  0  0  0  0  0  0
  141.5130   76.4380  221.3410 N   0  0  0  0  0  0  0  0  0  0  0  0
  140.7970   77.1560  222.2430 C   0  0  0  0  0  0  0  0  0  0  0  0
  141.0630   78.5160  222.6960 C   0  0  0  0  0  0  0  0  0  0  0  0
  140.0930   79.1810  223.4140 C   0  0  0  0  0  0  0  0  0  0  0  0
  140.3970   80.4690  223.8200 C   0  0  0  0  0  0  0  0  0  0  0  0
  141.6160   81.0650  223.5220 C   0  0  0  0  0  0  0  0  0  0  0  0
  142.5800   80.3670  222.7920 C   0  0  0  0  0  0  0  0  0  0  0  0
  142.2790   79.0820  222.3870 C   0  0  0  0  0  0  0  0  0  0  0  0
  139.7730   76.3200  222.6300 C   0  0  0  0  0  0  0  0  0  0  0  0
  139.9120   75.1950  221.9770 O   0  0  0  0  0  0  0  0  0  0  0  0
  141.3810   79.5100  219.1090 C   0  0  0  0  0  0  0  0  0  0  0  0
  142.0470   80.7350  219.1640 C   0  0  0  0  0  0  0  0  0  0  0  0
  141.4890   81.8400  219.7820 C   0  0  0  0  0  0  0  0  0  0  0  0
  140.2400   81.6710  220.3440 C   0  0  0  0  0  0  0  0  0  0  0  0
  139.6640   82.7620  220.9660 C   0  0  0  0  0  0  0  0  0  0  0  0
  138.4000   82.6390  221.5500 C   0  0  0  0  0  0  0  0  0  0  0  0
  137.6850   84.0280  222.3350 Cl  0  0  0  0  0  0  0  0  0  0  0  0
  137.7610   81.4100  221.4800 C   0  0  0  0  0  0  0  0  0  0  0  0
  138.3520   80.3210  220.8500 C   0  0  0  0  0  0  0  0  0  0  0  0
  139.6030   80.4360  220.2720 C   0  0  0  0  0  0  0  0  0  0  0  0
  140.1710   79.3810  219.6640 N   0  0  0  0  0  0  0  0  0  0  0  0
  142.9450   77.6110  220.1830 H   0  0  0  0  0  0  0  0  0  0  0  0
  143.6016   76.7141  217.3643 H   0  0  0  0  0  0  0  0  0  0  0  0
  144.4769   76.2343  218.8883 H   0  0  0  0  0  0  0  0  0  0  0  0
  144.7410   74.5582  220.0614 H   0  0  0  0  0  0  0  0  0  0  0  0
  143.7468   74.4103  221.5295 H   0  0  0  0  0  0  0  0  0  0  0  0
  144.2352   72.3049  219.3725 H   0  0  0  0  0  0  0  0  0  0  0  0
  144.7317   72.2424  221.0954 H   0  0  0  0  0  0  0  0  0  0  0  0
  142.2537   71.4727  219.8558 H   0  0  0  0  0  0  0  0  0  0  0  0
  142.8474   71.2998  221.5936 H   0  0  0  0  0  0  0  0  0  0  0  0
  140.6495   72.3708  221.3339 H   0  0  0  0  0  0  0  0  0  0  0  0
  141.9436   73.3252  222.1985 H   0  0  0  0  0  0  0  0  0  0  0  0
  140.6382   73.8587  219.5311 H   0  0  0  0  0  0  0  0  0  0  0  0
  139.1267   78.7125  223.6523 H   0  0  0  0  0  0  0  0  0  0  0  0
  139.6515   81.0373  224.3955 H   0  0  0  0  0  0  0  0  0  0  0  0
  141.8224   82.0904  223.8624 H   0  0  0  0  0  0  0  0  0  0  0  0
  143.5490   80.8266  222.5473 H   0  0  0  0  0  0  0  0  0  0  0  0
  143.0180   78.5049  221.8118 H   0  0  0  0  0  0  0  0  0  0  0  0
  138.9815   76.5557  223.3567 H   0  0  0  0  0  0  0  0  0  0  0  0
  143.0421   80.8245  218.7038 H   0  0  0  0  0  0  0  0  0  0  0  0
  142.0148   82.8053  219.8233 H   0  0  0  0  0  0  0  0  0  0  0  0
  140.1978   83.7232  221.0015 H   0  0  0  0  0  0  0  0  0  0  0  0
  136.7652   81.2946  221.9327 H   0  0  0  0  0  0  0  0  0  0  0  0
  137.8198   79.3591  220.8109 H   0  0  0  0  0  0  0  0  0  0  0  0
  1  2  2  0
  2  3  1  0
  3  4  1  0
  4  5  1  0
  5  6  2  0
  5  7  1  0
  7  8  1  0
  8  9  1  0
  9 10  1  0
 10 11  1  0
 11 12  1  0
 12 13  1  0
 13 14  2  0
 14 15  1  0
 15 16  1  0
 16 17  2  0
 17 18  1  0
 18 19  2  0
 19 20  1  0
 20 21  2  0
 15 22  2  0
 22 23  1  0
  2 24  1  0
 24 25  2  0
 25 26  1  0
 26 27  2  0
 27 28  1  0
 28 29  2  0
 29 30  1  0
 29 31  1  0
 31 32  2  0
 32 33  1  0
 33 34  2  0
 12  7  1  0
 23 13  1  0
 34 24  1  0
 21 16  1  0
 33 27  1  0
  3 35  1  0
  4 36  1  0
  4 37  1  0
  8 38  1  0
  8 39  1  0
  9 40  1  0
  9 41  1  0
 10 42  1  0
 10 43  1  0
 11 44  1  0
 11 45  1  0
 12 46  1  6
 17 47  1  0
 18 48  1  0
 19 49  1  0
 20 50  1  0
 21 51  1  0
 22 52  1  0
 25 53  1  0
 26 54  1  0
 28 55  1  0
 31 56  1  0
 32 57  1  0
M  END
>  <smiles>  (33) 
O=C(NCC(=O)N1CCCC[C@H]1c1nc(-c2ccccc2)co1)c1ccc2cc(Cl)ccc2n1

>  <score_type>  (33) 
oracle

>  <origin>  (33) 
autodockgpu

>  <m_score__min__energy>  (33) 
-9.2699999999999996

>  <m_primary>  (33) 
energy

>  <rmsd>  (33) 
8.412369963257486

>  <m_score__min__rmsd>  (33) 
8.412369963257486

>  <meeko>  (33) 
{"free_energy": -6.91, "intermolecular_energy": -8.7, "internal_energy": -4.37, "cluster_size": 6, "cluster_id": 8, "rank_in_cluster": 1}

>  <energy>  (33) 
-7.39

>  <cluster_rmsd>  (33) 
1.32

>  <cluster>  (33) 
4

$$$$

     RDKit          3D

 57 61  0  0  0  0  0  0  0  0999 V2000
  140.1500   74.1120  220.4660 O   0  0  0  0  0  0  0  0  0  0  0  0
  139.6830   74.0700  221.6500 C   0  0  0  0  0  0  0  0  0  0  0  0
  139.2150   75.2910  222.1890 N   0  0  0  0  0  0  0  0  0  0  0  0
  139.2950   76.4870  221.3840 C   0  0  0  0  0  0  0  0  0  0  0  0
  139.6050   77.6830  222.1730 C   0  0  0  0  0  0  0  0  0  0  0  0
  138.9250   78.0020  223.1920 O   0  0  0  0  0  0  0  0  0  0  0  0
  140.6990   78.4920  221.7710 N   0  0  0  0  0  0  0  0  0  0  0  0
  141.6130   79.1180  222.7170 C   0  0  0  0  0  0  0  0  0  0  0  0
  141.3390   80.5910  222.6860 C   0  0  0  0  0  0  0  0  0  0  0  0
  141.3530   81.0630  221.2690 C   0  0  0  0  0  0  0  0  0  0  0  0
  141.7630   80.0530  220.2550 C   0  0  0  0  0  0  0  0  0  0  0  0
  140.9900   78.7590  220.3530 C   0  0  1  0  0  0  0  0  0  0  0  0
  141.9220   77.6890  219.8970 C   0  0  0  0  0  0  0  0  0  0  0  0
  142.2400   76.5240  220.4710 N   0  0  0  0  0  0  0  0  0  0  0  0
  143.1360   75.8600  219.6970 C   0  0  0  0  0  0  0  0  0  0  0  0
  143.7340   74.5580  219.9650 C   0  0  0  0  0  0  0  0  0  0  0  0
  143.0090   73.4210  219.6830 C   0  0  0  0  0  0  0  0  0  0  0  0
  143.6240   72.2110  219.9570 C   0  0  0  0  0  0  0  0  0  0  0  0
  144.9060   72.1410  220.4870 C   0  0  0  0  0  0  0  0  0  0  0  0
  145.6170   73.3110  220.7630 C   0  0  0  0  0  0  0  0  0  0  0  0
  145.0050   74.5190  220.4900 C   0  0  0  0  0  0  0  0  0  0  0  0
  143.3500   76.6840  218.6150 C   0  0  0  0  0  0  0  0  0  0  0  0
  142.6110   77.7510  218.7760 O   0  0  0  0  0  0  0  0  0  0  0  0
  139.6290   72.8270  222.4140 C   0  0  0  0  0  0  0  0  0  0  0  0
  138.7560   71.8360  221.9650 C   0  0  0  0  0  0  0  0  0  0  0  0
  138.6330   70.6220  222.6190 C   0  0  0  0  0  0  0  0  0  0  0  0
  139.4170   70.4410  223.7400 C   0  0  0  0  0  0  0  0  0  0  0  0
  139.3110   69.2360  224.4090 C   0  0  0  0  0  0  0  0  0  0  0  0
  140.0850   69.0060  225.5500 C   0  0  0  0  0  0  0  0  0  0  0  0
  139.9390   67.4780  226.3860 Cl  0  0  0  0  0  0  0  0  0  0  0  0
  140.9450   70.0090  225.9730 C   0  0  0  0  0  0  0  0  0  0  0  0
  141.0420   71.2170  225.2910 C   0  0  0  0  0  0  0  0  0  0  0  0
  140.2780   71.4500  224.1610 C   0  0  0  0  0  0  0  0  0  0  0  0
  140.3750   72.6180  223.5040 N   0  0  0  0  0  0  0  0  0  0  0  0
  138.8250   75.2750  223.1670 H   0  0  0  0  0  0  0  0  0  0  0  0
  140.0829   76.3502  220.6287 H   0  0  0  0  0  0  0  0  0  0  0  0
  138.3090   76.6416  220.9216 H   0  0  0  0  0  0  0  0  0  0  0  0
  141.4379   78.7229  223.7286 H   0  0  0  0  0  0  0  0  0  0  0  0
  142.6588   78.9087  222.4478 H   0  0  0  0  0  0  0  0  0  0  0  0
  140.3531   80.7914  223.1309 H   0  0  0  0  0  0  0  0  0  0  0  0
  142.1116   81.1230  223.2606 H   0  0  0  0  0  0  0  0  0  0  0  0
  140.3378   81.4026  221.0161 H   0  0  0  0  0  0  0  0  0  0  0  0
  142.1134   81.8567  221.2254 H   0  0  0  0  0  0  0  0  0  0  0  0
  141.6041   80.4795  219.2536 H   0  0  0  0  0  0  0  0  0  0  0  0
  142.8206   79.8152  220.4417 H   0  0  0  0  0  0  0  0  0  0  0  0
  140.0603   78.8012  219.7666 H   0  0  0  0  0  0  0  0  0  0  0  0
  141.9940   73.4717  219.2619 H   0  0  0  0  0  0  0  0  0  0  0  0
  143.0810   71.2773  219.7487 H   0  0  0  0  0  0  0  0  0  0  0  0
  145.3627   71.1611  220.6900 H   0  0  0  0  0  0  0  0  0  0  0  0
  146.6323   73.2718  221.1845 H   0  0  0  0  0  0  0  0  0  0  0  0
  145.5391   75.4587  220.6944 H   0  0  0  0  0  0  0  0  0  0  0  0
  144.0216   76.4814  217.7677 H   0  0  0  0  0  0  0  0  0  0  0  0
  138.1490   72.0242  221.0671 H   0  0  0  0  0  0  0  0  0  0  0  0
  137.9450   69.8411  222.2630 H   0  0  0  0  0  0  0  0  0  0  0  0
  138.6203   68.4612  224.0449 H   0  0  0  0  0  0  0  0  0  0  0  0
  141.5638   69.8451  226.8676 H   0  0  0  0  0  0  0  0  0  0  0  0
  141.7318   71.9938  225.6528 H   0  0  0  0  0  0  0  0  0  0  0  0
  1  2  2  0
  2  3  1  0
  3  4  1  0
  4  5  1  0
  5  6  2  0
  5  7  1  0
  7  8  1  0
  8  9  1  0
  9 10  1  0
 10 11  1  0
 11 12  1  0
 12 13  1  0
 13 14  2  0
 14 15  1  0
 15 16  1  0
 16 17  2  0
 17 18  1  0
 18 19  2  0
 19 20  1  0
 20 21  2  0
 15 22  2  0
 22 23  1  0
  2 24  1  0
 24 25  2  0
 25 26  1  0
 26 27  2  0
 27 28  1  0
 28 29  2  0
 29 30  1  0
 29 31  1  0
 31 32  2  0
 32 33  1  0
 33 34  2  0
 12  7  1  0
 23 13  1  0
 34 24  1  0
 21 16  1  0
 33 27  1  0
  3 35  1  0
  4 36  1  0
  4 37  1  0
  8 38  1  0
  8 39  1  0
  9 40  1  0
  9 41  1  0
 10 42  1  0
 10 43  1  0
 11 44  1  0
 11 45  1  0
 12 46  1  6
 17 47  1  0
 18 48  1  0
 19 49  1  0
 20 50  1  0
 21 51  1  0
 22 52  1  0
 25 53  1  0
 26 54  1  0
 28 55  1  0
 31 56  1  0
 32 57  1  0
M  END
>  <smiles>  (34) 
O=C(NCC(=O)N1CCCC[C@H]1c1nc(-c2ccccc2)co1)c1ccc2cc(Cl)ccc2n1

>  <score_type>  (34) 
oracle

>  <origin>  (34) 
autodockgpu

>  <m_score__min__energy>  (34) 
-9.2699999999999996

>  <m_primary>  (34) 
energy

>  <rmsd>  (34) 
5.631527345763539

>  <m_score__min__rmsd>  (34) 
5.631527345763539

>  <meeko>  (34) 
{"free_energy": -9.14, "intermolecular_energy": -10.93, "internal_energy": -2.37, "cluster_size": 4, "cluster_id": 2, "rank_in_cluster": 1}

>  <energy>  (34) 
-7.35

>  <cluster_rmsd>  (34) 
1.08

>  <cluster>  (34) 
4

$$$$

     RDKit          3D

 57 61  0  0  0  0  0  0  0  0999 V2000
  139.8280   74.6410  222.2580 O   0  0  0  0  0  0  0  0  0  0  0  0
  140.9490   74.9070  221.7150 C   0  0  0  0  0  0  0  0  0  0  0  0
  141.3210   76.2710  221.6710 N   0  0  0  0  0  0  0  0  0  0  0  0
  140.4290   77.2580  222.2290 C   0  0  0  0  0  0  0  0  0  0  0  0
  141.1380   78.4020  222.8100 C   0  0  0  0  0  0  0  0  0  0  0  0
  141.4420   78.4430  224.0390 O   0  0  0  0  0  0  0  0  0  0  0  0
  141.4870   79.4840  221.9590 N   0  0  0  0  0  0  0  0  0  0  0  0
  142.5210   80.4540  222.2930 C   0  0  0  0  0  0  0  0  0  0  0  0
  141.8310   81.7490  222.5940 C   0  0  0  0  0  0  0  0  0  0  0  0
  140.8880   82.0720  221.4810 C   0  0  0  0  0  0  0  0  0  0  0  0
  140.9430   81.1640  220.3020 C   0  0  0  0  0  0  0  0  0  0  0  0
  140.8190   79.7030  220.6660 C   0  0  1  0  0  0  0  0  0  0  0  0
  141.6050   78.9570  219.6440 C   0  0  0  0  0  0  0  0  0  0  0  0
  141.6960   77.6420  219.4200 N   0  0  0  0  0  0  0  0  0  0  0  0
  142.5340   77.4100  218.3780 C   0  0  0  0  0  0  0  0  0  0  0  0
  142.9030   76.1160  217.8180 C   0  0  0  0  0  0  0  0  0  0  0  0
  142.0660   75.0400  218.0170 C   0  0  0  0  0  0  0  0  0  0  0  0
  142.4630   73.8350  217.4650 C   0  0  0  0  0  0  0  0  0  0  0  0
  143.6450   73.7110  216.7450 C   0  0  0  0  0  0  0  0  0  0  0  0
  144.4750   74.8180  216.5600 C   0  0  0  0  0  0  0  0  0  0  0  0
  144.0790   76.0210  217.1100 C   0  0  0  0  0  0  0  0  0  0  0  0
  142.9520   78.6580  217.9740 C   0  0  0  0  0  0  0  0  0  0  0  0
  142.3770   79.5400  218.7500 O   0  0  0  0  0  0  0  0  0  0  0  0
  141.8080   73.8620  221.1670 C   0  0  0  0  0  0  0  0  0  0  0  0
  141.2290   72.6160  220.9280 C   0  0  0  0  0  0  0  0  0  0  0  0
  141.9580   71.5600  220.4100 C   0  0  0  0  0  0  0  0  0  0  0  0
  143.2900   71.8020  220.1410 C   0  0  0  0  0  0  0  0  0  0  0  0
  144.0380   70.7610  219.6220 C   0  0  0  0  0  0  0  0  0  0  0  0
  145.3920   70.9580  219.3350 C   0  0  0  0  0  0  0  0  0  0  0  0
  146.3250   69.6320  218.6800 Cl  0  0  0  0  0  0  0  0  0  0  0  0
  145.9420   72.2070  219.5820 C   0  0  0  0  0  0  0  0  0  0  0  0
  145.1770   73.2450  220.1040 C   0  0  0  0  0  0  0  0  0  0  0  0
  143.8380   73.0560  220.3910 C   0  0  0  0  0  0  0  0  0  0  0  0
  143.1020   74.0620  220.8950 N   0  0  0  0  0  0  0  0  0  0  0  0
  142.2450   76.5090  221.2250 H   0  0  0  0  0  0  0  0  0  0  0  0
  139.7664   77.6239  221.4308 H   0  0  0  0  0  0  0  0  0  0  0  0
  139.8640   76.7731  223.0387 H   0  0  0  0  0  0  0  0  0  0  0  0
  143.0864   80.1144  223.1733 H   0  0  0  0  0  0  0  0  0  0  0  0
  143.2295   80.5728  221.4600 H   0  0  0  0  0  0  0  0  0  0  0  0
  141.2708   81.6574  223.5362 H   0  0  0  0  0  0  0  0  0  0  0  0
  142.5767   82.5517  222.6920 H   0  0  0  0  0  0  0  0  0  0  0  0
  139.8653   82.0395  221.8848 H   0  0  0  0  0  0  0  0  0  0  0  0
  141.1909   83.0623  221.1102 H   0  0  0  0  0  0  0  0  0  0  0  0
  140.1192   81.4253  219.6215 H   0  0  0  0  0  0  0  0  0  0  0  0
  141.9282   81.3000  219.8320 H   0  0  0  0  0  0  0  0  0  0  0  0
  139.7659   79.3887  220.7140 H   0  0  0  0  0  0  0  0  0  0  0  0
  141.1293   75.1341  218.5860 H   0  0  0  0  0  0  0  0  0  0  0  0
  141.8245   72.9495  217.6000 H   0  0  0  0  0  0  0  0  0  0  0  0
  143.9277   72.7369  216.3192 H   0  0  0  0  0  0  0  0  0  0  0  0
  145.4146   74.7346  215.9941 H   0  0  0  0  0  0  0  0  0  0  0  0
  144.7101   76.9126  216.9808 H   0  0  0  0  0  0  0  0  0  0  0  0
  143.6448   78.8744  217.1474 H   0  0  0  0  0  0  0  0  0  0  0  0
  140.1634   72.4686  221.1576 H   0  0  0  0  0  0  0  0  0  0  0  0
  141.4994   70.5779  220.2222 H   0  0  0  0  0  0  0  0  0  0  0  0
  143.5700   69.7831  219.4359 H   0  0  0  0  0  0  0  0  0  0  0  0
  147.0054   72.3805  219.3605 H   0  0  0  0  0  0  0  0  0  0  0  0
  145.6415   74.2246  220.2900 H   0  0  0  0  0  0  0  0  0  0  0  0
  1  2  2  0
  2  3  1  0
  3  4  1  0
  4  5  1  0
  5  6  2  0
  5  7  1  0
  7  8  1  0
  8  9  1  0
  9 10  1  0
 10 11  1  0
 11 12  1  0
 12 13  1  0
 13 14  2  0
 14 15  1  0
 15 16  1  0
 16 17  2  0
 17 18  1  0
 18 19  2  0
 19 20  1  0
 20 21  2  0
 15 22  2  0
 22 23  1  0
  2 24  1  0
 24 25  2  0
 25 26  1  0
 26 27  2  0
 27 28  1  0
 28 29  2  0
 29 30  1  0
 29 31  1  0
 31 32  2  0
 32 33  1  0
 33 34  2  0
 12  7  1  0
 23 13  1  0
 34 24  1  0
 21 16  1  0
 33 27  1  0
  3 35  1  0
  4 36  1  0
  4 37  1  0
  8 38  1  0
  8 39  1  0
  9 40  1  0
  9 41  1  0
 10 42  1  0
 10 43  1  0
 11 44  1  0
 11 45  1  0
 12 46  1  1
 17 47  1  0
 18 48  1  0
 19 49  1  0
 20 50  1  0
 21 51  1  0
 22 52  1  0
 25 53  1  0
 26 54  1  0
 28 55  1  0
 31 56  1  0
 32 57  1  0
M  END
>  <smiles>  (35) 
O=C(NCC(=O)N1CCCC[C@H]1c1nc(-c2ccccc2)co1)c1ccc2cc(Cl)ccc2n1

>  <score_type>  (35) 
oracle

>  <origin>  (35) 
autodockgpu

>  <m_score__min__energy>  (35) 
-9.2699999999999996

>  <m_primary>  (35) 
energy

>  <rmsd>  (35) 
6.8600423019881

>  <m_score__min__rmsd>  (35) 
6.8600423019881

>  <meeko>  (35) 
{"free_energy": -7.36, "intermolecular_energy": -9.15, "internal_energy": -3.88, "cluster_size": 6, "cluster_id": 6, "rank_in_cluster": 2}

>  <energy>  (35) 
-8.22

>  <cluster_rmsd>  (35) 
0.0

>  <cluster>  (35) 
5

$$$$

     RDKit          3D

 57 61  0  0  0  0  0  0  0  0999 V2000
  135.9430   74.7580  221.5830 O   0  0  0  0  0  0  0  0  0  0  0  0
  137.1200   74.7760  222.0680 C   0  0  0  0  0  0  0  0  0  0  0  0
  137.7080   73.5200  222.3460 N   0  0  0  0  0  0  0  0  0  0  0  0
  136.9550   72.3200  222.0720 C   0  0  0  0  0  0  0  0  0  0  0  0
  137.0300   71.3400  223.1600 C   0  0  0  0  0  0  0  0  0  0  0  0
  136.0130   71.0340  223.8500 O   0  0  0  0  0  0  0  0  0  0  0  0
  138.2810   70.7300  223.4350 N   0  0  0  0  0  0  0  0  0  0  0  0
  138.5310   69.3090  223.2330 C   0  0  0  0  0  0  0  0  0  0  0  0
  138.6520   68.6850  224.5890 C   0  0  0  0  0  0  0  0  0  0  0  0
  139.6290   69.4680  225.4050 C   0  0  0  0  0  0  0  0  0  0  0  0
  140.3490   70.5550  224.6840 C   0  0  0  0  0  0  0  0  0  0  0  0
  139.4260   71.4990  223.9500 C   0  0  1  0  0  0  0  0  0  0  0  0
  140.1890   71.9790  222.7640 C   0  0  0  0  0  0  0  0  0  0  0  0
  140.7260   73.1780  222.5140 N   0  0  0  0  0  0  0  0  0  0  0  0
  141.3360   73.1650  221.3020 C   0  0  0  0  0  0  0  0  0  0  0  0
  142.0390   74.2690  220.6600 C   0  0  0  0  0  0  0  0  0  0  0  0
  143.4110   74.2100  220.5450 C   0  0  0  0  0  0  0  0  0  0  0  0
  144.0290   75.2830  219.9280 C   0  0  0  0  0  0  0  0  0  0  0  0
  143.3070   76.3680  219.4460 C   0  0  0  0  0  0  0  0  0  0  0  0
  141.9170   76.4020  219.5760 C   0  0  0  0  0  0  0  0  0  0  0  0
  141.2990   75.3310  220.1910 C   0  0  0  0  0  0  0  0  0  0  0  0
  141.1440   71.8890  220.8210 C   0  0  0  0  0  0  0  0  0  0  0  0
  140.4620   71.2250  221.7190 O   0  0  0  0  0  0  0  0  0  0  0  0
  137.8310   76.0260  222.3240 C   0  0  0  0  0  0  0  0  0  0  0  0
  137.0640   77.1840  222.4530 C   0  0  0  0  0  0  0  0  0  0  0  0
  137.6430   78.4170  222.6970 C   0  0  0  0  0  0  0  0  0  0  0  0
  139.0180   78.4450  222.8060 C   0  0  0  0  0  0  0  0  0  0  0  0
  139.6170   79.6660  223.0500 C   0  0  0  0  0  0  0  0  0  0  0  0
  141.0080   79.7440  223.1680 C   0  0  0  0  0  0  0  0  0  0  0  0
  141.7520   81.2960  223.4750 Cl  0  0  0  0  0  0  0  0  0  0  0  0
  141.7450   78.5770  223.0350 C   0  0  0  0  0  0  0  0  0  0  0  0
  141.1290   77.3540  222.7900 C   0  0  0  0  0  0  0  0  0  0  0  0
  139.7540   77.2710  222.6720 C   0  0  0  0  0  0  0  0  0  0  0  0
  139.1620   76.0880  222.4350 N   0  0  0  0  0  0  0  0  0  0  0  0
  138.6810   73.5150  222.7470 H   0  0  0  0  0  0  0  0  0  0  0  0
  135.9009   72.5942  221.9183 H   0  0  0  0  0  0  0  0  0  0  0  0
  137.3907   71.8535  221.1762 H   0  0  0  0  0  0  0  0  0  0  0  0
  137.6952   68.8537  222.6815 H   0  0  0  0  0  0  0  0  0  0  0  0
  139.4489   69.1528  222.6473 H   0  0  0  0  0  0  0  0  0  0  0  0
  137.6704   68.6904  225.0854 H   0  0  0  0  0  0  0  0  0  0  0  0
  139.0026   67.6472  224.4883 H   0  0  0  0  0  0  0  0  0  0  0  0
  139.0809   69.9237  226.2428 H   0  0  0  0  0  0  0  0  0  0  0  0
  140.4029   68.7506  225.7155 H   0  0  0  0  0  0  0  0  0  0  0  0
  140.9302   71.1343  225.4165 H   0  0  0  0  0  0  0  0  0  0  0  0
  140.9913   70.0760  223.9304 H   0  0  0  0  0  0  0  0  0  0  0  0
  139.0841   72.3154  224.6031 H   0  0  0  0  0  0  0  0  0  0  0  0
  143.9860   73.3526  220.9248 H   0  0  0  0  0  0  0  0  0  0  0  0
  145.1233   75.2771  219.8158 H   0  0  0  0  0  0  0  0  0  0  0  0
  143.8324   77.2034  218.9601 H   0  0  0  0  0  0  0  0  0  0  0  0
  141.3328   77.2550  219.2004 H   0  0  0  0  0  0  0  0  0  0  0  0
  140.2052   75.3264  220.3072 H   0  0  0  0  0  0  0  0  0  0  0  0
  141.4997   71.4984  219.8561 H   0  0  0  0  0  0  0  0  0  0  0  0
  135.9702   77.1153  222.3583 H   0  0  0  0  0  0  0  0  0  0  0  0
  137.0371   79.3294  222.7990 H   0  0  0  0  0  0  0  0  0  0  0  0
  139.0023   80.5726  223.1510 H   0  0  0  0  0  0  0  0  0  0  0  0
  142.8405   78.6192  223.1252 H   0  0  0  0  0  0  0  0  0  0  0  0
  141.7409   76.4455  222.6893 H   0  0  0  0  0  0  0  0  0  0  0  0
  1  2  2  0
  2  3  1  0
  3  4  1  0
  4  5  1  0
  5  6  2  0
  5  7  1  0
  7  8  1  0
  8  9  1  0
  9 10  1  0
 10 11  1  0
 11 12  1  0
 12 13  1  0
 13 14  2  0
 14 15  1  0
 15 16  1  0
 16 17  2  0
 17 18  1  0
 18 19  2  0
 19 20  1  0
 20 21  2  0
 15 22  2  0
 22 23  1  0
  2 24  1  0
 24 25  2  0
 25 26  1  0
 26 27  2  0
 27 28  1  0
 28 29  2  0
 29 30  1  0
 29 31  1  0
 31 32  2  0
 32 33  1  0
 33 34  2  0
 12  7  1  0
 23 13  1  0
 34 24  1  0
 21 16  1  0
 33 27  1  0
  3 35  1  0
  4 36  1  0
  4 37  1  0
  8 38  1  0
  8 39  1  0
  9 40  1  0
  9 41  1  0
 10 42  1  0
 10 43  1  0
 11 44  1  0
 11 45  1  0
 12 46  1  1
 17 47  1  0
 18 48  1  0
 19 49  1  0
 20 50  1  0
 21 51  1  0
 22 52  1  0
 25 53  1  0
 26 54  1  0
 28 55  1  0
 31 56  1  0
 32 57  1  0
M  END
>  <smiles>  (36) 
O=C(NCC(=O)N1CCCC[C@H]1c1nc(-c2ccccc2)co1)c1ccc2cc(Cl)ccc2n1

>  <score_type>  (36) 
oracle

>  <origin>  (36) 
autodockgpu

>  <m_score__min__energy>  (36) 
-9.2699999999999996

>  <m_primary>  (36) 
energy

>  <rmsd>  (36) 
7.88309001929105

>  <m_score__min__rmsd>  (36) 
7.88309001929105

>  <meeko>  (36) 
{"free_energy": -8.11, "intermolecular_energy": -9.9, "internal_energy": -3.59, "cluster_size": 15, "cluster_id": 4, "rank_in_cluster": 3}

>  <energy>  (36) 
-7.52

>  <cluster_rmsd>  (36) 
1.93

>  <cluster>  (36) 
5

$$$$

     RDKit          3D

 57 61  0  0  0  0  0  0  0  0999 V2000
  136.5130   74.2640  220.7330 O   0  0  0  0  0  0  0  0  0  0  0  0
  137.5030   74.4390  221.5160 C   0  0  0  0  0  0  0  0  0  0  0  0
  137.8500   73.3480  222.3460 N   0  0  0  0  0  0  0  0  0  0  0  0
  137.0810   72.1300  222.2610 C   0  0  0  0  0  0  0  0  0  0  0  0
  137.2680   71.2560  223.4230 C   0  0  0  0  0  0  0  0  0  0  0  0
  136.3160   70.9920  224.2160 O   0  0  0  0  0  0  0  0  0  0  0  0
  138.5540   70.7010  223.6510 N   0  0  0  0  0  0  0  0  0  0  0  0
  138.8460   69.2830  223.4870 C   0  0  0  0  0  0  0  0  0  0  0  0
  139.0620   68.7160  224.8560 C   0  0  0  0  0  0  0  0  0  0  0  0
  140.0510   69.5630  225.5880 C   0  0  0  0  0  0  0  0  0  0  0  0
  140.6900   70.6460  224.7910 C   0  0  0  0  0  0  0  0  0  0  0  0
  139.6950   71.5290  224.0740 C   0  0  1  0  0  0  0  0  0  0  0  0
  140.3760   71.9900  222.8320 C   0  0  0  0  0  0  0  0  0  0  0  0
  140.7170   73.2240  222.4460 N   0  0  0  0  0  0  0  0  0  0  0  0
  141.3250   73.1740  221.2330 C   0  0  0  0  0  0  0  0  0  0  0  0
  141.8450   74.2980  220.4640 C   0  0  0  0  0  0  0  0  0  0  0  0
  140.9640   75.0860  219.7560 C   0  0  0  0  0  0  0  0  0  0  0  0
  141.5110   76.1390  219.0420 C   0  0  0  0  0  0  0  0  0  0  0  0
  142.8760   76.3920  219.0380 C   0  0  0  0  0  0  0  0  0  0  0  0
  143.7460   75.5770  219.7650 C   0  0  0  0  0  0  0  0  0  0  0  0
  143.2020   74.5260  220.4770 C   0  0  0  0  0  0  0  0  0  0  0  0
  141.3370   71.8390  220.8970 C   0  0  0  0  0  0  0  0  0  0  0  0
  140.7680   71.1780  221.8710 O   0  0  0  0  0  0  0  0  0  0  0  0
  138.2420   75.6970  221.5560 C   0  0  0  0  0  0  0  0  0  0  0  0
  137.7660   76.7460  220.7710 C   0  0  0  0  0  0  0  0  0  0  0  0
  138.3950   77.9780  220.7400 C   0  0  0  0  0  0  0  0  0  0  0  0
  139.5200   78.1170  221.5270 C   0  0  0  0  0  0  0  0  0  0  0  0
  140.1650   79.3400  221.5130 C   0  0  0  0  0  0  0  0  0  0  0  0
  141.3100   79.5290  222.2930 C   0  0  0  0  0  0  0  0  0  0  0  0
  142.1150   81.0800  222.2630 Cl  0  0  0  0  0  0  0  0  0  0  0  0
  141.7610   78.4690  223.0650 C   0  0  0  0  0  0  0  0  0  0  0  0
  141.1020   77.2440  223.0700 C   0  0  0  0  0  0  0  0  0  0  0  0
  139.9700   77.0510  222.3000 C   0  0  0  0  0  0  0  0  0  0  0  0
  139.3360   75.8660  222.3080 N   0  0  0  0  0  0  0  0  0  0  0  0
  138.6660   73.4740  223.0000 H   0  0  0  0  0  0  0  0  0  0  0  0
  136.0153   72.3921  222.1866 H   0  0  0  0  0  0  0  0  0  0  0  0
  137.4297   71.5802  221.3744 H   0  0  0  0  0  0  0  0  0  0  0  0
  137.9997   68.7777  222.9986 H   0  0  0  0  0  0  0  0  0  0  0  0
  139.7366   69.1371  222.8581 H   0  0  0  0  0  0  0  0  0  0  0  0
  138.1087   68.7061  225.4047 H   0  0  0  0  0  0  0  0  0  0  0  0
  139.4448   67.6880  224.7741 H   0  0  0  0  0  0  0  0  0  0  0  0
  139.5319   70.0304  226.4378 H   0  0  0  0  0  0  0  0  0  0  0  0
  140.8667   68.8855  225.8806 H   0  0  0  0  0  0  0  0  0  0  0  0
  141.2871   71.2728  225.4697 H   0  0  0  0  0  0  0  0  0  0  0  0
  141.3087   70.1615  224.0212 H   0  0  0  0  0  0  0  0  0  0  0  0
  139.3581   72.3577  224.7141 H   0  0  0  0  0  0  0  0  0  0  0  0
  139.8818   74.8888  219.7578 H   0  0  0  0  0  0  0  0  0  0  0  0
  140.8447   76.7938  218.4613 H   0  0  0  0  0  0  0  0  0  0  0  0
  143.2741   77.2386  218.4593 H   0  0  0  0  0  0  0  0  0  0  0  0
  144.8296   75.7659  219.7705 H   0  0  0  0  0  0  0  0  0  0  0  0
  143.8598   73.8648  221.0601 H   0  0  0  0  0  0  0  0  0  0  0  0
  141.7511   71.4061  219.9745 H   0  0  0  0  0  0  0  0  0  0  0  0
  136.8653   76.5900  220.1592 H   0  0  0  0  0  0  0  0  0  0  0  0
  138.0176   78.8044  220.1198 H   0  0  0  0  0  0  0  0  0  0  0  0
  139.7789   80.1609  220.8908 H   0  0  0  0  0  0  0  0  0  0  0  0
  142.6590   78.5997  223.6867 H   0  0  0  0  0  0  0  0  0  0  0  0
  141.4849   76.4216  223.6921 H   0  0  0  0  0  0  0  0  0  0  0  0
  1  2  2  0
  2  3  1  0
  3  4  1  0
  4  5  1  0
  5  6  2  0
  5  7  1  0
  7  8  1  0
  8  9  1  0
  9 10  1  0
 10 11  1  0
 11 12  1  0
 12 13  1  0
 13 14  2  0
 14 15  1  0
 15 16  1  0
 16 17  2  0
 17 18  1  0
 18 19  2  0
 19 20  1  0
 20 21  2  0
 15 22  2  0
 22 23  1  0
  2 24  1  0
 24 25  2  0
 25 26  1  0
 26 27  2  0
 27 28  1  0
 28 29  2  0
 29 30  1  0
 29 31  1  0
 31 32  2  0
 32 33  1  0
 33 34  2  0
 12  7  1  0
 23 13  1  0
 34 24  1  0
 21 16  1  0
 33 27  1  0
  3 35  1  0
  4 36  1  0
  4 37  1  0
  8 38  1  0
  8 39  1  0
  9 40  1  0
  9 41  1  0
 10 42  1  0
 10 43  1  0
 11 44  1  0
 11 45  1  0
 12 46  1  1
 17 47  1  0
 18 48  1  0
 19 49  1  0
 20 50  1  0
 21 51  1  0
 22 52  1  0
 25 53  1  0
 26 54  1  0
 28 55  1  0
 31 56  1  0
 32 57  1  0
M  END
>  <smiles>  (37) 
O=C(NCC(=O)N1CCCC[C@H]1c1nc(-c2ccccc2)co1)c1ccc2cc(Cl)ccc2n1

>  <score_type>  (37) 
oracle

>  <origin>  (37) 
autodockgpu

>  <m_score__min__energy>  (37) 
-9.2699999999999996

>  <m_primary>  (37) 
energy

>  <rmsd>  (37) 
7.85159679586434

>  <m_score__min__rmsd>  (37) 
7.85159679586434

>  <meeko>  (37) 
{"free_energy": -7.35, "intermolecular_energy": -9.14, "internal_energy": -4.11, "cluster_size": 15, "cluster_id": 4, "rank_in_cluster": 15}

>  <energy>  (37) 
-8.01

>  <cluster_rmsd>  (37) 
0.0

>  <cluster>  (37) 
6

$$$$

     RDKit          3D

 57 61  0  0  0  0  0  0  0  0999 V2000
  136.5300   75.0170  220.9250 O   0  0  0  0  0  0  0  0  0  0  0  0
  137.5020   75.0240  221.7480 C   0  0  0  0  0  0  0  0  0  0  0  0
  137.8620   73.7770  222.3100 N   0  0  0  0  0  0  0  0  0  0  0  0
  137.1230   72.5980  221.9280 C   0  0  0  0  0  0  0  0  0  0  0  0
  137.1200   71.5660  222.9700 C   0  0  0  0  0  0  0  0  0  0  0  0
  136.0770   71.2940  223.6330 O   0  0  0  0  0  0  0  0  0  0  0  0
  138.3260   70.8650  223.2290 N   0  0  0  0  0  0  0  0  0  0  0  0
  138.4990   69.4490  222.9340 C   0  0  0  0  0  0  0  0  0  0  0  0
  138.5490   68.7280  224.2470 C   0  0  0  0  0  0  0  0  0  0  0  0
  139.5480   69.3950  225.1350 C   0  0  0  0  0  0  0  0  0  0  0  0
  140.3480   70.4830  224.5070 C   0  0  0  0  0  0  0  0  0  0  0  0
  139.5000   71.5280  223.8200 C   0  0  1  0  0  0  0  0  0  0  0  0
  140.3210   72.0400  222.6870 C   0  0  0  0  0  0  0  0  0  0  0  0
  140.6430   73.2960  222.3570 N   0  0  0  0  0  0  0  0  0  0  0  0
  141.4150   73.2940  221.2410 C   0  0  0  0  0  0  0  0  0  0  0  0
  141.9740   74.4530  220.5570 C   0  0  0  0  0  0  0  0  0  0  0  0
  143.3400   74.5350  220.3920 C   0  0  0  0  0  0  0  0  0  0  0  0
  143.8190   75.6560  219.7370 C   0  0  0  0  0  0  0  0  0  0  0  0
  142.9710   76.6510  219.2670 C   0  0  0  0  0  0  0  0  0  0  0  0
  141.5910   76.5420  219.4480 C   0  0  0  0  0  0  0  0  0  0  0  0
  141.1110   75.4240  220.1020 C   0  0  0  0  0  0  0  0  0  0  0  0
  141.5480   71.9650  220.9030 C   0  0  0  0  0  0  0  0  0  0  0  0
  140.8860   71.2630  221.7860 O   0  0  0  0  0  0  0  0  0  0  0  0
  138.2110   76.2530  222.0940 C   0  0  0  0  0  0  0  0  0  0  0  0
  137.4780   77.4390  222.0880 C   0  0  0  0  0  0  0  0  0  0  0  0
  138.0580   78.6560  222.4020 C   0  0  0  0  0  0  0  0  0  0  0  0
  139.4000   78.6370  222.7230 C   0  0  0  0  0  0  0  0  0  0  0  0
  140.0000   79.8410  223.0410 C   0  0  0  0  0  0  0  0  0  0  0  0
  141.3580   79.8720  223.3730 C   0  0  0  0  0  0  0  0  0  0  0  0
  142.1030   81.4020  223.7710 Cl  0  0  0  0  0  0  0  0  0  0  0  0
  142.0620   78.6770  223.3710 C   0  0  0  0  0  0  0  0  0  0  0  0
  141.4450   77.4730  223.0500 C   0  0  0  0  0  0  0  0  0  0  0  0
  140.1030   77.4360  222.7210 C   0  0  0  0  0  0  0  0  0  0  0  0
  139.5100   76.2700  222.4100 N   0  0  0  0  0  0  0  0  0  0  0  0
  138.6630   73.7640  222.9930 H   0  0  0  0  0  0  0  0  0  0  0  0
  136.0830   72.8880  221.7177 H   0  0  0  0  0  0  0  0  0  0  0  0
  137.6153   72.1717  221.0415 H   0  0  0  0  0  0  0  0  0  0  0  0
  137.6528   69.0824  222.3343 H   0  0  0  0  0  0  0  0  0  0  0  0
  139.4209   69.2788  222.3586 H   0  0  0  0  0  0  0  0  0  0  0  0
  137.5570   68.7580  224.7214 H   0  0  0  0  0  0  0  0  0  0  0  0
  138.8413   67.6803  224.0828 H   0  0  0  0  0  0  0  0  0  0  0  0
  139.0057   69.8251  225.9900 H   0  0  0  0  0  0  0  0  0  0  0  0
  140.2711   68.6136  225.4115 H   0  0  0  0  0  0  0  0  0  0  0  0
  140.9428   70.9757  225.2903 H   0  0  0  0  0  0  0  0  0  0  0  0
  140.9809   70.0188  223.7363 H   0  0  0  0  0  0  0  0  0  0  0  0
  139.1886   72.3177  224.5196 H   0  0  0  0  0  0  0  0  0  0  0  0
  144.0151   73.7493  220.7621 H   0  0  0  0  0  0  0  0  0  0  0  0
  144.9031   75.7623  219.5840 H   0  0  0  0  0  0  0  0  0  0  0  0
  143.3884   77.5279  218.7504 H   0  0  0  0  0  0  0  0  0  0  0  0
  140.9074   77.3219  219.0813 H   0  0  0  0  0  0  0  0  0  0  0  0
  140.0286   75.3086  220.2607 H   0  0  0  0  0  0  0  0  0  0  0  0
  142.1096   71.5663  220.0453 H   0  0  0  0  0  0  0  0  0  0  0  0
  136.4100   77.4067  221.8267 H   0  0  0  0  0  0  0  0  0  0  0  0
  137.4785   79.5910  222.3959 H   0  0  0  0  0  0  0  0  0  0  0  0
  139.4119   80.7705  223.0329 H   0  0  0  0  0  0  0  0  0  0  0  0
  143.1313   78.6818  223.6289 H   0  0  0  0  0  0  0  0  0  0  0  0
  142.0301   76.5416  223.0580 H   0  0  0  0  0  0  0  0  0  0  0  0
  1  2  2  0
  2  3  1  0
  3  4  1  0
  4  5  1  0
  5  6  2  0
  5  7  1  0
  7  8  1  0
  8  9  1  0
  9 10  1  0
 10 11  1  0
 11 12  1  0
 12 13  1  0
 13 14  2  0
 14 15  1  0
 15 16  1  0
 16 17  2  0
 17 18  1  0
 18 19  2  0
 19 20  1  0
 20 21  2  0
 15 22  2  0
 22 23  1  0
  2 24  1  0
 24 25  2  0
 25 26  1  0
 26 27  2  0
 27 28  1  0
 28 29  2  0
 29 30  1  0
 29 31  1  0
 31 32  2  0
 32 33  1  0
 33 34  2  0
 12  7  1  0
 23 13  1  0
 34 24  1  0
 21 16  1  0
 33 27  1  0
  3 35  1  0
  4 36  1  0
  4 37  1  0
  8 38  1  0
  8 39  1  0
  9 40  1  0
  9 41  1  0
 10 42  1  0
 10 43  1  0
 11 44  1  0
 11 45  1  0
 12 46  1  1
 17 47  1  0
 18 48  1  0
 19 49  1  0
 20 50  1  0
 21 51  1  0
 22 52  1  0
 25 53  1  0
 26 54  1  0
 28 55  1  0
 31 56  1  0
 32 57  1  0
M  END
>  <smiles>  (38) 
O=C(NCC(=O)N1CCCC[C@H]1c1nc(-c2ccccc2)co1)c1ccc2cc(Cl)ccc2n1

>  <score_type>  (38) 
oracle

>  <origin>  (38) 
autodockgpu

>  <m_score__min__energy>  (38) 
-9.2699999999999996

>  <m_primary>  (38) 
energy

>  <rmsd>  (38) 
7.811277372879529

>  <m_score__min__rmsd>  (38) 
7.811277372879529

>  <meeko>  (38) 
{"free_energy": -8.02, "intermolecular_energy": -9.81, "internal_energy": -3.68, "cluster_size": 15, "cluster_id": 4, "rank_in_cluster": 5}

>  <energy>  (38) 
-7.36

>  <cluster_rmsd>  (38) 
0.65

>  <cluster>  (38) 
6

$$$$

     RDKit          3D

 57 61  0  0  0  0  0  0  0  0999 V2000
  138.4120   70.8910  221.1990 O   0  0  0  0  0  0  0  0  0  0  0  0
  138.4750   71.5910  222.2620 C   0  0  0  0  0  0  0  0  0  0  0  0
  137.9030   72.8840  222.2010 N   0  0  0  0  0  0  0  0  0  0  0  0
  137.2980   73.3240  220.9670 C   0  0  0  0  0  0  0  0  0  0  0  0
  138.1520   74.2450  220.2120 C   0  0  0  0  0  0  0  0  0  0  0  0
  137.6680   75.2170  219.5600 O   0  0  0  0  0  0  0  0  0  0  0  0
  139.5540   74.0290  220.2220 N   0  0  0  0  0  0  0  0  0  0  0  0
  140.2930   73.5630  219.0570 C   0  0  0  0  0  0  0  0  0  0  0  0
  140.7190   72.1540  219.3380 C   0  0  0  0  0  0  0  0  0  0  0  0
  141.3910   72.1020  220.6720 C   0  0  0  0  0  0  0  0  0  0  0  0
  141.6170   73.4170  221.3340 C   0  0  0  0  0  0  0  0  0  0  0  0
  140.3690   74.2630  221.4260 C   0  0  1  0  0  0  0  0  0  0  0  0
  140.8280   75.6790  221.3650 C   0  0  0  0  0  0  0  0  0  0  0  0
  140.8240   76.6250  222.3110 N   0  0  0  0  0  0  0  0  0  0  0  0
  141.3410   77.7760  221.8110 C   0  0  0  0  0  0  0  0  0  0  0  0
  141.5130   79.0410  222.5140 C   0  0  0  0  0  0  0  0  0  0  0  0
  140.3970   79.7860  222.8280 C   0  0  0  0  0  0  0  0  0  0  0  0
  140.6150   80.9790  223.4950 C   0  0  0  0  0  0  0  0  0  0  0  0
  141.8930   81.4070  223.8340 C   0  0  0  0  0  0  0  0  0  0  0  0
  143.0060   80.6320  223.5030 C   0  0  0  0  0  0  0  0  0  0  0  0
  142.7890   79.4420  222.8380 C   0  0  0  0  0  0  0  0  0  0  0  0
  141.6630   77.4830  220.5040 C   0  0  0  0  0  0  0  0  0  0  0  0
  141.3430   76.2330  220.2870 O   0  0  0  0  0  0  0  0  0  0  0  0
  139.1020   71.0890  223.4810 C   0  0  0  0  0  0  0  0  0  0  0  0
  140.0900   71.8800  224.0670 C   0  0  0  0  0  0  0  0  0  0  0  0
  140.7430   71.4930  225.2230 C   0  0  0  0  0  0  0  0  0  0  0  0
  140.3690   70.2820  225.7690 C   0  0  0  0  0  0  0  0  0  0  0  0
  141.0080   69.8760  226.9250 C   0  0  0  0  0  0  0  0  0  0  0  0
  140.6630   68.6560  227.5160 C   0  0  0  0  0  0  0  0  0  0  0  0
  141.4810   68.1540  228.9770 Cl  0  0  0  0  0  0  0  0  0  0  0  0
  139.6780   67.8890  226.9120 C   0  0  0  0  0  0  0  0  0  0  0  0
  139.0420   68.3110  225.7490 C   0  0  0  0  0  0  0  0  0  0  0  0
  139.3790   69.5160  225.1600 C   0  0  0  0  0  0  0  0  0  0  0  0
  138.7630   69.9200  224.0360 N   0  0  0  0  0  0  0  0  0  0  0  0
  137.9460   73.4760  223.0700 H   0  0  0  0  0  0  0  0  0  0  0  0
  137.0935   72.4422  220.3420 H   0  0  0  0  0  0  0  0  0  0  0  0
  136.3753   73.8645  221.2250 H   0  0  0  0  0  0  0  0  0  0  0  0
  139.6489   73.5915  218.1658 H   0  0  0  0  0  0  0  0  0  0  0  0
  141.1659   74.2044  218.8656 H   0  0  0  0  0  0  0  0  0  0  0  0
  139.8368   71.4970  219.3443 H   0  0  0  0  0  0  0  0  0  0  0  0
  141.4174   71.8160  218.5583 H   0  0  0  0  0  0  0  0  0  0  0  0
  140.7678   71.4899  221.3406 H   0  0  0  0  0  0  0  0  0  0  0  0
  142.3915   71.6839  220.4872 H   0  0  0  0  0  0  0  0  0  0  0  0
  141.9913   73.2353  222.3523 H   0  0  0  0  0  0  0  0  0  0  0  0
  142.3410   73.9710  220.7185 H   0  0  0  0  0  0  0  0  0  0  0  0
  139.7944   74.0340  222.3356 H   0  0  0  0  0  0  0  0  0  0  0  0
  139.3841   79.4495  222.5620 H   0  0  0  0  0  0  0  0  0  0  0  0
  139.7523   81.6061  223.7644 H   0  0  0  0  0  0  0  0  0  0  0  0
  142.0282   82.3606  224.3654 H   0  0  0  0  0  0  0  0  0  0  0  0
  144.0233   80.9592  223.7638 H   0  0  0  0  0  0  0  0  0  0  0  0
  143.6449   78.8076  222.5642 H   0  0  0  0  0  0  0  0  0  0  0  0
  142.1087   78.1751  219.7744 H   0  0  0  0  0  0  0  0  0  0  0  0
  140.3571   72.8379  223.5968 H   0  0  0  0  0  0  0  0  0  0  0  0
  141.5213   72.1189  225.6841 H   0  0  0  0  0  0  0  0  0  0  0  0
  141.7846   70.5094  227.3785 H   0  0  0  0  0  0  0  0  0  0  0  0
  139.3936   66.9265  227.3621 H   0  0  0  0  0  0  0  0  0  0  0  0
  138.2640   67.6805  225.2937 H   0  0  0  0  0  0  0  0  0  0  0  0
  1  2  2  0
  2  3  1  0
  3  4  1  0
  4  5  1  0
  5  6  2  0
  5  7  1  0
  7  8  1  0
  8  9  1  0
  9 10  1  0
 10 11  1  0
 11 12  1  0
 12 13  1  0
 13 14  2  0
 14 15  1  0
 15 16  1  0
 16 17  2  0
 17 18  1  0
 18 19  2  0
 19 20  1  0
 20 21  2  0
 15 22  2  0
 22 23  1  0
  2 24  1  0
 24 25  2  0
 25 26  1  0
 26 27  2  0
 27 28  1  0
 28 29  2  0
 29 30  1  0
 29 31  1  0
 31 32  2  0
 32 33  1  0
 33 34  2  0
 12  7  1  0
 23 13  1  0
 34 24  1  0
 21 16  1  0
 33 27  1  0
  3 35  1  0
  4 36  1  0
  4 37  1  0
  8 38  1  0
  8 39  1  0
  9 40  1  0
  9 41  1  0
 10 42  1  0
 10 43  1  0
 11 44  1  0
 11 45  1  0
 12 46  1  1
 17 47  1  0
 18 48  1  0
 19 49  1  0
 20 50  1  0
 21 51  1  0
 22 52  1  0
 25 53  1  0
 26 54  1  0
 28 55  1  0
 31 56  1  0
 32 57  1  0
M  END
>  <smiles>  (39) 
O=C(NCC(=O)N1CCCC[C@H]1c1nc(-c2ccccc2)co1)c1ccc2cc(Cl)ccc2n1

>  <score_type>  (39) 
oracle

>  <origin>  (39) 
autodockgpu

>  <m_score__min__energy>  (39) 
-9.2699999999999996

>  <m_primary>  (39) 
energy

>  <rmsd>  (39) 
3.3280006149306187

>  <m_score__min__rmsd>  (39) 
3.3280006149306187

>  <meeko>  (39) 
{"free_energy": -8.97, "intermolecular_energy": -10.76, "internal_energy": -2.24, "cluster_size": 13, "cluster_id": 1, "rank_in_cluster": 8}

>  <energy>  (39) 
-6.74

>  <cluster_rmsd>  (39) 
1.51

>  <cluster>  (39) 
6

$$$$

     RDKit          3D

 57 61  0  0  0  0  0  0  0  0999 V2000
  135.0340   75.9540  224.7910 O   0  0  0  0  0  0  0  0  0  0  0  0
  135.5400   74.8830  224.3230 C   0  0  0  0  0  0  0  0  0  0  0  0
  136.5710   75.0380  223.3660 N   0  0  0  0  0  0  0  0  0  0  0  0
  136.9780   76.3690  222.9850 C   0  0  0  0  0  0  0  0  0  0  0  0
  137.7000   76.4000  221.7100 C   0  0  0  0  0  0  0  0  0  0  0  0
  137.1920   76.9130  220.6700 O   0  0  0  0  0  0  0  0  0  0  0  0
  139.0010   75.8370  221.6570 N   0  0  0  0  0  0  0  0  0  0  0  0
  140.1400   76.4030  222.3690 C   0  0  0  0  0  0  0  0  0  0  0  0
  141.0520   76.9980  221.3410 C   0  0  0  0  0  0  0  0  0  0  0  0
  141.3150   75.9870  220.2730 C   0  0  0  0  0  0  0  0  0  0  0  0
  140.7650   74.6260  220.5220 C   0  0  0  0  0  0  0  0  0  0  0  0
  139.2950   74.6280  220.8710 C   0  0  1  0  0  0  0  0  0  0  0  0
  139.0870   73.4640  221.7770 C   0  0  0  0  0  0  0  0  0  0  0  0
  139.8690   72.9800  222.7480 N   0  0  0  0  0  0  0  0  0  0  0  0
  139.2770   71.9000  223.3190 C   0  0  0  0  0  0  0  0  0  0  0  0
  139.7990   71.0860  224.4100 C   0  0  0  0  0  0  0  0  0  0  0  0
  140.8770   71.5500  225.1320 C   0  0  0  0  0  0  0  0  0  0  0  0
  141.3330   70.7390  226.1560 C   0  0  0  0  0  0  0  0  0  0  0  0
  140.7380   69.5170  226.4450 C   0  0  0  0  0  0  0  0  0  0  0  0
  139.6470   69.0710  225.6960 C   0  0  0  0  0  0  0  0  0  0  0  0
  139.1910   69.8800  224.6740 C   0  0  0  0  0  0  0  0  0  0  0  0
  138.0870   71.7480  222.6430 C   0  0  0  0  0  0  0  0  0  0  0  0
  138.0180   72.6950  221.7430 O   0  0  0  0  0  0  0  0  0  0  0  0
  135.0850   73.5630  224.7490 C   0  0  0  0  0  0  0  0  0  0  0  0
  134.1160   73.5120  225.7510 C   0  0  0  0  0  0  0  0  0  0  0  0
  133.6190   72.3100  226.2230 C   0  0  0  0  0  0  0  0  0  0  0  0
  134.1310   71.1620  225.6530 C   0  0  0  0  0  0  0  0  0  0  0  0
  133.6480   69.9500  226.1100 C   0  0  0  0  0  0  0  0  0  0  0  0
  134.1370   68.7600  225.5630 C   0  0  0  0  0  0  0  0  0  0  0  0
  133.5180   67.2340  226.1520 Cl  0  0  0  0  0  0  0  0  0  0  0  0
  135.1000   68.8400  224.5690 C   0  0  0  0  0  0  0  0  0  0  0  0
  135.5760   70.0670  224.1180 C   0  0  0  0  0  0  0  0  0  0  0  0
  135.0970   71.2470  224.6560 C   0  0  0  0  0  0  0  0  0  0  0  0
  135.5600   72.4310  224.2180 N   0  0  0  0  0  0  0  0  0  0  0  0
  137.0020   74.1630  222.9680 H   0  0  0  0  0  0  0  0  0  0  0  0
  136.0805   76.9988  222.8959 H   0  0  0  0  0  0  0  0  0  0  0  0
  137.6624   76.7407  223.7618 H   0  0  0  0  0  0  0  0  0  0  0  0
  139.7992   77.1820  223.0669 H   0  0  0  0  0  0  0  0  0  0  0  0
  140.6604   75.6290  222.9523 H   0  0  0  0  0  0  0  0  0  0  0  0
  140.5774   77.8860  220.8981 H   0  0  0  0  0  0  0  0  0  0  0  0
  142.0009   77.2908  221.8142 H   0  0  0  0  0  0  0  0  0  0  0  0
  140.8763   76.3626  219.3368 H   0  0  0  0  0  0  0  0  0  0  0  0
  142.4078   75.8665  220.2371 H   0  0  0  0  0  0  0  0  0  0  0  0
  140.9072   74.0210  219.6144 H   0  0  0  0  0  0  0  0  0  0  0  0
  141.3037   74.2110  221.3867 H   0  0  0  0  0  0  0  0  0  0  0  0
  138.6675   74.5896  219.9684 H   0  0  0  0  0  0  0  0  0  0  0  0
  141.3511   72.5164  224.9057 H   0  0  0  0  0  0  0  0  0  0  0  0
  142.1912   71.0711  226.7587 H   0  0  0  0  0  0  0  0  0  0  0  0
  141.1279   68.8986  227.2669 H   0  0  0  0  0  0  0  0  0  0  0  0
  139.1661   68.1058  225.9132 H   0  0  0  0  0  0  0  0  0  0  0  0
  138.3336   69.5574  224.0651 H   0  0  0  0  0  0  0  0  0  0  0  0
  137.3308   70.9705  222.8266 H   0  0  0  0  0  0  0  0  0  0  0  0
  133.7368   74.4524  226.1774 H   0  0  0  0  0  0  0  0  0  0  0  0
  132.8543   72.2713  227.0128 H   0  0  0  0  0  0  0  0  0  0  0  0
  132.8829   69.9221  226.8999 H   0  0  0  0  0  0  0  0  0  0  0  0
  135.4962   67.9137  224.1275 H   0  0  0  0  0  0  0  0  0  0  0  0
  136.3397   70.0985  223.3269 H   0  0  0  0  0  0  0  0  0  0  0  0
  1  2  2  0
  2  3  1  0
  3  4  1  0
  4  5  1  0
  5  6  2  0
  5  7  1  0
  7  8  1  0
  8  9  1  0
  9 10  1  0
 10 11  1  0
 11 12  1  0
 12 13  1  0
 13 14  2  0
 14 15  1  0
 15 16  1  0
 16 17  2  0
 17 18  1  0
 18 19  2  0
 19 20  1  0
 20 21  2  0
 15 22  2  0
 22 23  1  0
  2 24  1  0
 24 25  2  0
 25 26  1  0
 26 27  2  0
 27 28  1  0
 28 29  2  0
 29 30  1  0
 29 31  1  0
 31 32  2  0
 32 33  1  0
 33 34  2  0
 12  7  1  0
 23 13  1  0
 34 24  1  0
 21 16  1  0
 33 27  1  0
  3 35  1  0
  4 36  1  0
  4 37  1  0
  8 38  1  0
  8 39  1  0
  9 40  1  0
  9 41  1  0
 10 42  1  0
 10 43  1  0
 11 44  1  0
 11 45  1  0
 12 46  1  6
 17 47  1  0
 18 48  1  0
 19 49  1  0
 20 50  1  0
 21 51  1  0
 22 52  1  0
 25 53  1  0
 26 54  1  0
 28 55  1  0
 31 56  1  0
 32 57  1  0
M  END
>  <smiles>  (40) 
O=C(NCC(=O)N1CCCC[C@H]1c1nc(-c2ccccc2)co1)c1ccc2cc(Cl)ccc2n1

>  <score_type>  (40) 
oracle

>  <origin>  (40) 
autodockgpu

>  <m_score__min__energy>  (40) 
-9.2699999999999996

>  <m_primary>  (40) 
energy

>  <rmsd>  (40) 
7.589298527462703

>  <m_score__min__rmsd>  (40) 
7.589298527462703

>  <meeko>  (40) 
{"free_energy": -7.52, "intermolecular_energy": -9.31, "internal_energy": -3.53, "cluster_size": 2, "cluster_id": 5, "rank_in_cluster": 2}

>  <energy>  (40) 
-6.7

>  <cluster_rmsd>  (40) 
1.55

>  <cluster>  (40) 
6

$$$$

     RDKit          3D

 57 61  0  0  0  0  0  0  0  0999 V2000
  139.1120   75.6450  222.7880 O   0  0  0  0  0  0  0  0  0  0  0  0
  139.8270   75.8270  221.7490 C   0  0  0  0  0  0  0  0  0  0  0  0
  139.6010   77.0230  221.0290 N   0  0  0  0  0  0  0  0  0  0  0  0
  138.5960   77.9450  221.5000 C   0  0  0  0  0  0  0  0  0  0  0  0
  139.1660   79.1980  222.0040 C   0  0  0  0  0  0  0  0  0  0  0  0
  138.4350   80.1870  222.3040 O   0  0  0  0  0  0  0  0  0  0  0  0
  140.5740   79.2870  222.1540 N   0  0  0  0  0  0  0  0  0  0  0  0
  141.3250   78.4690  223.0980 C   0  0  0  0  0  0  0  0  0  0  0  0
  141.7940   79.3780  224.1930 C   0  0  0  0  0  0  0  0  0  0  0  0
  142.4700   80.5660  223.5900 C   0  0  0  0  0  0  0  0  0  0  0  0
  142.6570   80.5230  222.1130 C   0  0  0  0  0  0  0  0  0  0  0  0
  141.3840   80.2230  221.3570 C   0  0  1  0  0  0  0  0  0  0  0  0
  141.8000   79.4920  220.1270 C   0  0  0  0  0  0  0  0  0  0  0  0
  141.8400   78.1780  219.8800 N   0  0  0  0  0  0  0  0  0  0  0  0
  142.2860   77.9620  218.6170 C   0  0  0  0  0  0  0  0  0  0  0  0
  142.4750   76.6750  217.9590 C   0  0  0  0  0  0  0  0  0  0  0  0
  143.6930   76.3960  217.3770 C   0  0  0  0  0  0  0  0  0  0  0  0
  143.8190   75.1610  216.7660 C   0  0  0  0  0  0  0  0  0  0  0  0
  142.7750   74.2440  216.7390 C   0  0  0  0  0  0  0  0  0  0  0  0
  141.5520   74.5540  217.3370 C   0  0  0  0  0  0  0  0  0  0  0  0
  141.4250   75.7860  217.9470 C   0  0  0  0  0  0  0  0  0  0  0  0
  142.5180   79.2180  218.1020 C   0  0  0  0  0  0  0  0  0  0  0  0
  142.2160   80.0890  219.0300 O   0  0  0  0  0  0  0  0  0  0  0  0
  140.8290   74.8540  221.3230 C   0  0  0  0  0  0  0  0  0  0  0  0
  140.4380   73.5160  221.2620 C   0  0  0  0  0  0  0  0  0  0  0  0
  141.3140   72.5190  220.8690 C   0  0  0  0  0  0  0  0  0  0  0  0
  142.5940   72.9140  220.5400 C   0  0  0  0  0  0  0  0  0  0  0  0
  143.4850   71.9340  220.1450 C   0  0  0  0  0  0  0  0  0  0  0  0
  144.7950   72.2860  219.8020 C   0  0  0  0  0  0  0  0  0  0  0  0
  145.9100   71.0360  219.3050 Cl  0  0  0  0  0  0  0  0  0  0  0  0
  145.1550   73.6230  219.8710 C   0  0  0  0  0  0  0  0  0  0  0  0
  144.2480   74.5990  220.2700 C   0  0  0  0  0  0  0  0  0  0  0  0
  142.9520   74.2570  220.6110 C   0  0  0  0  0  0  0  0  0  0  0  0
  142.0780   75.2030  220.9970 N   0  0  0  0  0  0  0  0  0  0  0  0
  140.1830   77.1890  220.1670 H   0  0  0  0  0  0  0  0  0  0  0  0
  137.9154   78.1782  220.6679 H   0  0  0  0  0  0  0  0  0  0  0  0
  138.0685   77.4615  222.3355 H   0  0  0  0  0  0  0  0  0  0  0  0
  140.6785   77.6814  223.5124 H   0  0  0  0  0  0  0  0  0  0  0  0
  142.1772   77.9815  222.6020 H   0  0  0  0  0  0  0  0  0  0  0  0
  140.9319   79.7093  224.7906 H   0  0  0  0  0  0  0  0  0  0  0  0
  142.5011   78.8404  224.8418 H   0  0  0  0  0  0  0  0  0  0  0  0
  141.8674   81.4548  223.8285 H   0  0  0  0  0  0  0  0  0  0  0  0
  143.4824   80.5846  224.0197 H   0  0  0  0  0  0  0  0  0  0  0  0
  143.0381   81.5000  221.7809 H   0  0  0  0  0  0  0  0  0  0  0  0
  143.3630   79.7073  221.8981 H   0  0  0  0  0  0  0  0  0  0  0  0
  140.8180   81.1416  221.1428 H   0  0  0  0  0  0  0  0  0  0  0  0
  144.5224   77.1183  217.3973 H   0  0  0  0  0  0  0  0  0  0  0  0
  144.7737   74.8972  216.2875 H   0  0  0  0  0  0  0  0  0  0  0  0
  142.9127   73.2709  216.2449 H   0  0  0  0  0  0  0  0  0  0  0  0
  140.7160   73.8392  217.3226 H   0  0  0  0  0  0  0  0  0  0  0  0
  140.4745   76.0597  218.4284 H   0  0  0  0  0  0  0  0  0  0  0  0
  142.8901   79.4473  217.0926 H   0  0  0  0  0  0  0  0  0  0  0  0
  139.4066   73.2465  221.5333 H   0  0  0  0  0  0  0  0  0  0  0  0
  141.0049   71.4644  220.8214 H   0  0  0  0  0  0  0  0  0  0  0  0
  143.1657   70.8823  220.1005 H   0  0  0  0  0  0  0  0  0  0  0  0
  146.1805   73.9184  219.6043 H   0  0  0  0  0  0  0  0  0  0  0  0
  144.5641   75.6517  220.3147 H   0  0  0  0  0  0  0  0  0  0  0  0
  1  2  2  0
  2  3  1  0
  3  4  1  0
  4  5  1  0
  5  6  2  0
  5  7  1  0
  7  8  1  0
  8  9  1  0
  9 10  1  0
 10 11  1  0
 11 12  1  0
 12 13  1  0
 13 14  2  0
 14 15  1  0
 15 16  1  0
 16 17  2  0
 17 18  1  0
 18 19  2  0
 19 20  1  0
 20 21  2  0
 15 22  2  0
 22 23  1  0
  2 24  1  0
 24 25  2  0
 25 26  1  0
 26 27  2  0
 27 28  1  0
 28 29  2  0
 29 30  1  0
 29 31  1  0
 31 32  2  0
 32 33  1  0
 33 34  2  0
 12  7  1  0
 23 13  1  0
 34 24  1  0
 21 16  1  0
 33 27  1  0
  3 35  1  0
  4 36  1  0
  4 37  1  0
  8 38  1  0
  8 39  1  0
  9 40  1  0
  9 41  1  0
 10 42  1  0
 10 43  1  0
 11 44  1  0
 11 45  1  0
 12 46  1  6
 17 47  1  0
 18 48  1  0
 19 49  1  0
 20 50  1  0
 21 51  1  0
 22 52  1  0
 25 53  1  0
 26 54  1  0
 28 55  1  0
 31 56  1  0
 32 57  1  0
M  END
>  <smiles>  (41) 
O=C(NCC(=O)N1CCCC[C@H]1c1nc(-c2ccccc2)co1)c1ccc2cc(Cl)ccc2n1

>  <score_type>  (41) 
oracle

>  <origin>  (41) 
autodockgpu

>  <m_score__min__energy>  (41) 
-9.2699999999999996

>  <m_primary>  (41) 
energy

>  <rmsd>  (41) 
6.727918905838565

>  <m_score__min__rmsd>  (41) 
6.727918905838565

>  <meeko>  (41) 
{"free_energy": -6.7, "intermolecular_energy": -8.49, "internal_energy": -4.44, "cluster_size": 6, "cluster_id": 6, "rank_in_cluster": 4}

>  <energy>  (41) 
-6.68

>  <cluster_rmsd>  (41) 
1.53

>  <cluster>  (41) 
6

$$$$

     RDKit          3D

 57 61  0  0  0  0  0  0  0  0999 V2000
  137.6350   70.5740  221.3640 O   0  0  0  0  0  0  0  0  0  0  0  0
  137.7950   71.1600  222.4840 C   0  0  0  0  0  0  0  0  0  0  0  0
  137.3470   72.4990  222.5650 N   0  0  0  0  0  0  0  0  0  0  0  0
  136.7510   73.1090  221.4020 C   0  0  0  0  0  0  0  0  0  0  0  0
  137.6500   74.0540  220.7320 C   0  0  0  0  0  0  0  0  0  0  0  0
  137.2210   75.1290  220.2180 O   0  0  0  0  0  0  0  0  0  0  0  0
  139.0320   73.7410  220.6670 N   0  0  0  0  0  0  0  0  0  0  0  0
  139.6680   73.2060  219.4700 C   0  0  0  0  0  0  0  0  0  0  0  0
  140.0120   71.7760  219.7540 C   0  0  0  0  0  0  0  0  0  0  0  0
  140.7550   71.6970  221.0470 C   0  0  0  0  0  0  0  0  0  0  0  0
  141.1090   73.0030  221.6700 C   0  0  0  0  0  0  0  0  0  0  0  0
  139.9290   73.9350  221.8170 C   0  0  1  0  0  0  0  0  0  0  0  0
  140.4810   75.3150  221.7040 C   0  0  0  0  0  0  0  0  0  0  0  0
  140.4640   76.3220  222.5830 N   0  0  0  0  0  0  0  0  0  0  0  0
  141.0900   77.4040  222.0540 C   0  0  0  0  0  0  0  0  0  0  0  0
  141.2870   78.7020  222.6870 C   0  0  0  0  0  0  0  0  0  0  0  0
  142.5610   79.2220  222.7600 C   0  0  0  0  0  0  0  0  0  0  0  0
  142.6920   80.4570  223.3700 C   0  0  0  0  0  0  0  0  0  0  0  0
  141.5980   81.1430  223.8840 C   0  0  0  0  0  0  0  0  0  0  0  0
  140.3180   80.5910  223.7970 C   0  0  0  0  0  0  0  0  0  0  0  0
  140.1860   79.3590  223.1880 C   0  0  0  0  0  0  0  0  0  0  0  0
  141.4920   77.0030  220.7990 C   0  0  0  0  0  0  0  0  0  0  0  0
  141.1110   75.7630  220.6380 O   0  0  0  0  0  0  0  0  0  0  0  0
  138.4070   70.4870  223.6260 C   0  0  0  0  0  0  0  0  0  0  0  0
  138.2620   69.1020  223.7070 C   0  0  0  0  0  0  0  0  0  0  0  0
  138.8050   68.3720  224.7500 C   0  0  0  0  0  0  0  0  0  0  0  0
  139.4980   69.0840  225.7080 C   0  0  0  0  0  0  0  0  0  0  0  0
  140.0500   68.3750  226.7580 C   0  0  0  0  0  0  0  0  0  0  0  0
  140.7610   69.0520  227.7540 C   0  0  0  0  0  0  0  0  0  0  0  0
  141.4510   68.1430  229.0770 Cl  0  0  0  0  0  0  0  0  0  0  0  0
  140.8900   70.4290  227.6470 C   0  0  0  0  0  0  0  0  0  0  0  0
  140.3300   71.1300  226.5840 C   0  0  0  0  0  0  0  0  0  0  0  0
  139.6250   70.4650  225.5970 C   0  0  0  0  0  0  0  0  0  0  0  0
  139.0860   71.1460  224.5720 N   0  0  0  0  0  0  0  0  0  0  0  0
  137.4710   72.9990  223.4840 H   0  0  0  0  0  0  0  0  0  0  0  0
  136.4801   72.3162  220.6892 H   0  0  0  0  0  0  0  0  0  0  0  0
  135.8692   73.6734  221.7394 H   0  0  0  0  0  0  0  0  0  0  0  0
  138.9761   73.2651  218.6169 H   0  0  0  0  0  0  0  0  0  0  0  0
  140.5700   73.7820  219.2159 H   0  0  0  0  0  0  0  0  0  0  0  0
  139.0886   71.1823  219.8235 H   0  0  0  0  0  0  0  0  0  0  0  0
  140.6393   71.3787  218.9425 H   0  0  0  0  0  0  0  0  0  0  0  0
  140.1314   71.1398  221.7616 H   0  0  0  0  0  0  0  0  0  0  0  0
  141.7119   71.2074  220.8132 H   0  0  0  0  0  0  0  0  0  0  0  0
  141.5287   72.8110  222.6685 H   0  0  0  0  0  0  0  0  0  0  0  0
  141.8323   73.4961  221.0038 H   0  0  0  0  0  0  0  0  0  0  0  0
  139.3931   73.7598  222.7615 H   0  0  0  0  0  0  0  0  0  0  0  0
  143.4296   78.6828  222.3540 H   0  0  0  0  0  0  0  0  0  0  0  0
  143.6915   80.9092  223.4505 H   0  0  0  0  0  0  0  0  0  0  0  0
  141.7407   82.1239  224.3609 H   0  0  0  0  0  0  0  0  0  0  0  0
  139.4428   81.1210  224.2009 H   0  0  0  0  0  0  0  0  0  0  0  0
  139.1910   78.8978  223.1023 H   0  0  0  0  0  0  0  0  0  0  0  0
  142.0356   77.6157  220.0648 H   0  0  0  0  0  0  0  0  0  0  0  0
  137.7009   68.5758  222.9207 H   0  0  0  0  0  0  0  0  0  0  0  0
  138.6901   67.2798  224.8123 H   0  0  0  0  0  0  0  0  0  0  0  0
  139.9306   67.2827  226.8101 H   0  0  0  0  0  0  0  0  0  0  0  0
  141.4474   70.9787  228.4198 H   0  0  0  0  0  0  0  0  0  0  0  0
  140.4488   72.2221  226.5278 H   0  0  0  0  0  0  0  0  0  0  0  0
  1  2  2  0
  2  3  1  0
  3  4  1  0
  4  5  1  0
  5  6  2  0
  5  7  1  0
  7  8  1  0
  8  9  1  0
  9 10  1  0
 10 11  1  0
 11 12  1  0
 12 13  1  0
 13 14  2  0
 14 15  1  0
 15 16  1  0
 16 17  2  0
 17 18  1  0
 18 19  2  0
 19 20  1  0
 20 21  2  0
 15 22  2  0
 22 23  1  0
  2 24  1  0
 24 25  2  0
 25 26  1  0
 26 27  2  0
 27 28  1  0
 28 29  2  0
 29 30  1  0
 29 31  1  0
 31 32  2  0
 32 33  1  0
 33 34  2  0
 12  7  1  0
 23 13  1  0
 34 24  1  0
 21 16  1  0
 33 27  1  0
  3 35  1  0
  4 36  1  0
  4 37  1  0
  8 38  1  0
  8 39  1  0
  9 40  1  0
  9 41  1  0
 10 42  1  0
 10 43  1  0
 11 44  1  0
 11 45  1  0
 12 46  1  1
 17 47  1  0
 18 48  1  0
 19 49  1  0
 20 50  1  0
 21 51  1  0
 22 52  1  0
 25 53  1  0
 26 54  1  0
 28 55  1  0
 31 56  1  0
 32 57  1  0
M  END
>  <smiles>  (42) 
O=C(NCC(=O)N1CCCC[C@H]1c1nc(-c2ccccc2)co1)c1ccc2cc(Cl)ccc2n1

>  <score_type>  (42) 
oracle

>  <origin>  (42) 
autodockgpu

>  <m_score__min__energy>  (42) 
-9.2699999999999996

>  <m_primary>  (42) 
energy

>  <rmsd>  (42) 
3.176606769729238

>  <m_score__min__rmsd>  (42) 
3.176606769729238

>  <meeko>  (42) 
{"free_energy": -8.93, "intermolecular_energy": -10.72, "internal_energy": -2.45, "cluster_size": 13, "cluster_id": 1, "rank_in_cluster": 10}

>  <energy>  (42) 
-6.63

>  <cluster_rmsd>  (42) 
1.55

>  <cluster>  (42) 
6

$$$$

     RDKit          3D

 57 61  0  0  0  0  0  0  0  0999 V2000
  137.8840   73.0110  220.6120 O   0  0  0  0  0  0  0  0  0  0  0  0
  137.8130   73.4830  221.7930 C   0  0  0  0  0  0  0  0  0  0  0  0
  137.3370   72.6050  222.7960 N   0  0  0  0  0  0  0  0  0  0  0  0
  136.9670   71.2600  222.4300 C   0  0  0  0  0  0  0  0  0  0  0  0
  137.2040   70.2920  223.5060 C   0  0  0  0  0  0  0  0  0  0  0  0
  136.2560   69.6380  224.0320 O   0  0  0  0  0  0  0  0  0  0  0  0
  138.5350   70.0960  223.9560 N   0  0  0  0  0  0  0  0  0  0  0  0
  139.1320   68.7770  224.1140 C   0  0  0  0  0  0  0  0  0  0  0  0
  139.2780   68.5310  225.5840 C   0  0  0  0  0  0  0  0  0  0  0  0
  139.9650   69.6990  226.2120 C   0  0  0  0  0  0  0  0  0  0  0  0
  140.4660   70.7370  225.2700 C   0  0  0  0  0  0  0  0  0  0  0  0
  139.4140   71.2250  224.3010 C   0  0  1  0  0  0  0  0  0  0  0  0
  140.1440   71.5970  223.0560 C   0  0  0  0  0  0  0  0  0  0  0  0
  140.8170   72.7130  222.7550 N   0  0  0  0  0  0  0  0  0  0  0  0
  141.3260   72.6180  221.5010 C   0  0  0  0  0  0  0  0  0  0  0  0
  142.1200   73.6170  220.7970 C   0  0  0  0  0  0  0  0  0  0  0  0
  141.4720   74.6200  220.1100 C   0  0  0  0  0  0  0  0  0  0  0  0
  142.2730   75.5420  219.4580 C   0  0  0  0  0  0  0  0  0  0  0  0
  143.6600   75.4650  219.4920 C   0  0  0  0  0  0  0  0  0  0  0  0
  144.2900   74.4360  220.1960 C   0  0  0  0  0  0  0  0  0  0  0  0
  143.4920   73.5160  220.8470 C   0  0  0  0  0  0  0  0  0  0  0  0
  140.9280   71.3790  221.0490 C   0  0  0  0  0  0  0  0  0  0  0  0
  140.2330   70.8140  222.0020 O   0  0  0  0  0  0  0  0  0  0  0  0
  138.2030   74.8560  222.1000 C   0  0  0  0  0  0  0  0  0  0  0  0
  137.1810   75.7880  222.2790 C   0  0  0  0  0  0  0  0  0  0  0  0
  137.4470   77.1140  222.5730 C   0  0  0  0  0  0  0  0  0  0  0  0
  138.7760   77.4690  222.6820 C   0  0  0  0  0  0  0  0  0  0  0  0
  139.0650   78.7880  222.9760 C   0  0  0  0  0  0  0  0  0  0  0  0
  140.3970   79.1950  223.0960 C   0  0  0  0  0  0  0  0  0  0  0  0
  140.7470   80.8670  223.4670 Cl  0  0  0  0  0  0  0  0  0  0  0  0
  141.3930   78.2480  222.9140 C   0  0  0  0  0  0  0  0  0  0  0  0
  141.0880   76.9230  222.6180 C   0  0  0  0  0  0  0  0  0  0  0  0
  139.7720   76.5140  222.4980 C   0  0  0  0  0  0  0  0  0  0  0  0
  139.4810   75.2330  222.2130 N   0  0  0  0  0  0  0  0  0  0  0  0
  137.2710   72.9790  223.7780 H   0  0  0  0  0  0  0  0  0  0  0  0
  135.8970   71.2470  222.1751 H   0  0  0  0  0  0  0  0  0  0  0  0
  137.5940   70.9652  221.5756 H   0  0  0  0  0  0  0  0  0  0  0  0
  138.4802   68.0121  223.6667 H   0  0  0  0  0  0  0  0  0  0  0  0
  140.1088   68.7273  223.6106 H   0  0  0  0  0  0  0  0  0  0  0  0
  138.2834   68.4026  226.0360 H   0  0  0  0  0  0  0  0  0  0  0  0
  139.8726   67.6203  225.7488 H   0  0  0  0  0  0  0  0  0  0  0  0
  139.2530   70.1809  226.8981 H   0  0  0  0  0  0  0  0  0  0  0  0
  140.8570   69.2901  226.7091 H   0  0  0  0  0  0  0  0  0  0  0  0
  140.8255   71.5956  225.8561 H   0  0  0  0  0  0  0  0  0  0  0  0
  141.2676   70.2758  224.6744 H   0  0  0  0  0  0  0  0  0  0  0  0
  138.8316   72.0563  224.7249 H   0  0  0  0  0  0  0  0  0  0  0  0
  140.3743   74.6850  220.0810 H   0  0  0  0  0  0  0  0  0  0  0  0
  141.7974   76.3596  218.8965 H   0  0  0  0  0  0  0  0  0  0  0  0
  144.2639   76.2168  218.9628 H   0  0  0  0  0  0  0  0  0  0  0  0
  145.3869   74.3609  220.2307 H   0  0  0  0  0  0  0  0  0  0  0  0
  143.9573   72.6943  221.4111 H   0  0  0  0  0  0  0  0  0  0  0  0
  141.1539   70.9436  220.0644 H   0  0  0  0  0  0  0  0  0  0  0  0
  136.1353   75.4603  222.1840 H   0  0  0  0  0  0  0  0  0  0  0  0
  136.6397   77.8479  222.7127 H   0  0  0  0  0  0  0  0  0  0  0  0
  138.2507   79.5143  223.1150 H   0  0  0  0  0  0  0  0  0  0  0  0
  142.4466   78.5504  223.0055 H   0  0  0  0  0  0  0  0  0  0  0  0
  141.9003   76.1946  222.4782 H   0  0  0  0  0  0  0  0  0  0  0  0
  1  2  2  0
  2  3  1  0
  3  4  1  0
  4  5  1  0
  5  6  2  0
  5  7  1  0
  7  8  1  0
  8  9  1  0
  9 10  1  0
 10 11  1  0
 11 12  1  0
 12 13  1  0
 13 14  2  0
 14 15  1  0
 15 16  1  0
 16 17  2  0
 17 18  1  0
 18 19  2  0
 19 20  1  0
 20 21  2  0
 15 22  2  0
 22 23  1  0
  2 24  1  0
 24 25  2  0
 25 26  1  0
 26 27  2  0
 27 28  1  0
 28 29  2  0
 29 30  1  0
 29 31  1  0
 31 32  2  0
 32 33  1  0
 33 34  2  0
 12  7  1  0
 23 13  1  0
 34 24  1  0
 21 16  1  0
 33 27  1  0
  3 35  1  0
  4 36  1  0
  4 37  1  0
  8 38  1  0
  8 39  1  0
  9 40  1  0
  9 41  1  0
 10 42  1  0
 10 43  1  0
 11 44  1  0
 11 45  1  0
 12 46  1  1
 17 47  1  0
 18 48  1  0
 19 49  1  0
 20 50  1  0
 21 51  1  0
 22 52  1  0
 25 53  1  0
 26 54  1  0
 28 55  1  0
 31 56  1  0
 32 57  1  0
M  END
>  <smiles>  (43) 
O=C(NCC(=O)N1CCCC[C@H]1c1nc(-c2ccccc2)co1)c1ccc2cc(Cl)ccc2n1

>  <score_type>  (43) 
oracle

>  <origin>  (43) 
autodockgpu

>  <m_score__min__energy>  (43) 
-9.2699999999999996

>  <m_primary>  (43) 
energy

>  <rmsd>  (43) 
7.982890193712157

>  <m_score__min__rmsd>  (43) 
7.982890193712157

>  <meeko>  (43) 
{"free_energy": -8.36, "intermolecular_energy": -10.15, "internal_energy": -3.02, "cluster_size": 15, "cluster_id": 4, "rank_in_cluster": 1}

>  <energy>  (43) 
-7.11

>  <cluster_rmsd>  (43) 
0.0

>  <cluster>  (43) 
7

$$$$

     RDKit          3D

 57 61  0  0  0  0  0  0  0  0999 V2000
  140.3610   73.9000  221.9890 O   0  0  0  0  0  0  0  0  0  0  0  0
  140.7740   75.0830  221.7600 C   0  0  0  0  0  0  0  0  0  0  0  0
  141.9990   75.2000  221.0630 N   0  0  0  0  0  0  0  0  0  0  0  0
  142.6930   74.0010  220.6620 C   0  0  0  0  0  0  0  0  0  0  0  0
  143.7110   74.2490  219.6360 C   0  0  0  0  0  0  0  0  0  0  0  0
  144.9120   73.8790  219.7880 O   0  0  0  0  0  0  0  0  0  0  0  0
  143.3230   74.9210  218.4480 N   0  0  0  0  0  0  0  0  0  0  0  0
  142.5500   74.2820  217.3920 C   0  0  0  0  0  0  0  0  0  0  0  0
  143.4690   74.0950  216.2240 C   0  0  0  0  0  0  0  0  0  0  0  0
  144.1480   75.3920  215.9210 C   0  0  0  0  0  0  0  0  0  0  0  0
  143.6780   76.5660  216.7070 C   0  0  0  0  0  0  0  0  0  0  0  0
  143.6780   76.3270  218.1990 C   0  0  1  0  0  0  0  0  0  0  0  0
  142.5680   77.1560  218.7470 C   0  0  0  0  0  0  0  0  0  0  0  0
  142.5590   78.4370  219.1290 N   0  0  0  0  0  0  0  0  0  0  0  0
  141.3200   78.7780  219.5660 C   0  0  0  0  0  0  0  0  0  0  0  0
  140.8910   80.0770  220.0680 C   0  0  0  0  0  0  0  0  0  0  0  0
  139.5720   80.4460  219.9210 C   0  0  0  0  0  0  0  0  0  0  0  0
  139.2170   81.6900  220.4140 C   0  0  0  0  0  0  0  0  0  0  0  0
  140.1410   82.5270  221.0280 C   0  0  0  0  0  0  0  0  0  0  0  0
  141.4720   82.1270  221.1630 C   0  0  0  0  0  0  0  0  0  0  0  0
  141.8260   80.8860  220.6720 C   0  0  0  0  0  0  0  0  0  0  0  0
  140.5680   77.6320  219.4300 C   0  0  0  0  0  0  0  0  0  0  0  0
  141.3470   76.7010  218.9420 O   0  0  0  0  0  0  0  0  0  0  0  0
  140.0240   76.2590  222.1930 C   0  0  0  0  0  0  0  0  0  0  0  0
  138.6320   76.1800  222.1610 C   0  0  0  0  0  0  0  0  0  0  0  0
  137.8330   77.2400  222.5510 C   0  0  0  0  0  0  0  0  0  0  0  0
  138.4820   78.3810  222.9740 C   0  0  0  0  0  0  0  0  0  0  0  0
  137.7030   79.4520  223.3690 C   0  0  0  0  0  0  0  0  0  0  0  0
  138.3150   80.6310  223.8050 C   0  0  0  0  0  0  0  0  0  0  0  0
  137.3170   81.9780  224.3000 Cl  0  0  0  0  0  0  0  0  0  0  0  0
  139.7010   80.6830  223.8270 C   0  0  0  0  0  0  0  0  0  0  0  0
  140.4730   79.5970  223.4270 C   0  0  0  0  0  0  0  0  0  0  0  0
  139.8720   78.4290  222.9940 C   0  0  0  0  0  0  0  0  0  0  0  0
  140.6220   77.3810  222.6080 N   0  0  0  0  0  0  0  0  0  0  0  0
  142.3560   76.1710  220.8650 H   0  0  0  0  0  0  0  0  0  0  0  0
  143.1834   73.5667  221.5457 H   0  0  0  0  0  0  0  0  0  0  0  0
  141.9482   73.3162  220.2304 H   0  0  0  0  0  0  0  0  0  0  0  0
  142.1747   73.3071  217.7365 H   0  0  0  0  0  0  0  0  0  0  0  0
  141.6835   74.8996  217.1131 H   0  0  0  0  0  0  0  0  0  0  0  0
  144.2236   73.3327  216.4678 H   0  0  0  0  0  0  0  0  0  0  0  0
  142.8911   73.7665  215.3476 H   0  0  0  0  0  0  0  0  0  0  0  0
  145.2232   75.2640  216.1150 H   0  0  0  0  0  0  0  0  0  0  0  0
  143.9078   75.6182  214.8716 H   0  0  0  0  0  0  0  0  0  0  0  0
  144.3389   77.4182  216.4902 H   0  0  0  0  0  0  0  0  0  0  0  0
  142.6373   76.7612  216.4090 H   0  0  0  0  0  0  0  0  0  0  0  0
  144.6548   76.5657  218.6450 H   0  0  0  0  0  0  0  0  0  0  0  0
  138.8379   79.7856  219.4364 H   0  0  0  0  0  0  0  0  0  0  0  0
  138.1739   82.0255  220.3170 H   0  0  0  0  0  0  0  0  0  0  0  0
  139.8226   83.5085  221.4092 H   0  0  0  0  0  0  0  0  0  0  0  0
  142.2147   82.7797  221.6451 H   0  0  0  0  0  0  0  0  0  0  0  0
  142.8662   80.5405  220.7646 H   0  0  0  0  0  0  0  0  0  0  0  0
  139.5040   77.5198  219.6856 H   0  0  0  0  0  0  0  0  0  0  0  0
  138.1565   75.2499  221.8164 H   0  0  0  0  0  0  0  0  0  0  0  0
  136.7352   77.1759  222.5250 H   0  0  0  0  0  0  0  0  0  0  0  0
  136.6059   79.3772  223.3405 H   0  0  0  0  0  0  0  0  0  0  0  0
  140.2001   81.6021  224.1678 H   0  0  0  0  0  0  0  0  0  0  0  0
  141.5704   79.6678  223.4553 H   0  0  0  0  0  0  0  0  0  0  0  0
  1  2  2  0
  2  3  1  0
  3  4  1  0
  4  5  1  0
  5  6  2  0
  5  7  1  0
  7  8  1  0
  8  9  1  0
  9 10  1  0
 10 11  1  0
 11 12  1  0
 12 13  1  0
 13 14  2  0
 14 15  1  0
 15 16  1  0
 16 17  2  0
 17 18  1  0
 18 19  2  0
 19 20  1  0
 20 21  2  0
 15 22  2  0
 22 23  1  0
  2 24  1  0
 24 25  2  0
 25 26  1  0
 26 27  2  0
 27 28  1  0
 28 29  2  0
 29 30  1  0
 29 31  1  0
 31 32  2  0
 32 33  1  0
 33 34  2  0
 12  7  1  0
 23 13  1  0
 34 24  1  0
 21 16  1  0
 33 27  1  0
  3 35  1  0
  4 36  1  0
  4 37  1  0
  8 38  1  0
  8 39  1  0
  9 40  1  0
  9 41  1  0
 10 42  1  0
 10 43  1  0
 11 44  1  0
 11 45  1  0
 12 46  1  1
 17 47  1  0
 18 48  1  0
 19 49  1  0
 20 50  1  0
 21 51  1  0
 22 52  1  0
 25 53  1  0
 26 54  1  0
 28 55  1  0
 31 56  1  0
 32 57  1  0
M  END
>  <smiles>  (44) 
O=C(NCC(=O)N1CCCC[C@H]1c1nc(-c2ccccc2)co1)c1ccc2cc(Cl)ccc2n1

>  <score_type>  (44) 
oracle

>  <origin>  (44) 
autodockgpu

>  <m_score__min__energy>  (44) 
-9.2699999999999996

>  <m_primary>  (44) 
energy

>  <rmsd>  (44) 
6.033579581697764

>  <m_score__min__rmsd>  (44) 
6.033579581697764

>  <meeko>  (44) 
{"free_energy": -6.43, "intermolecular_energy": -8.22, "internal_energy": -4.28, "cluster_size": 6, "cluster_id": 8, "rank_in_cluster": 6}

>  <energy>  (44) 
-6.91

>  <cluster_rmsd>  (44) 
0.0

>  <cluster>  (44) 
8

$$$$

     RDKit          3D

 57 61  0  0  0  0  0  0  0  0999 V2000
  138.0750   70.8790  221.2570 O   0  0  0  0  0  0  0  0  0  0  0  0
  138.0310   71.3590  222.4360 C   0  0  0  0  0  0  0  0  0  0  0  0
  137.4060   72.6200  222.5810 N   0  0  0  0  0  0  0  0  0  0  0  0
  136.8680   73.2730  221.4130 C   0  0  0  0  0  0  0  0  0  0  0  0
  137.7250   74.3570  220.9220 C   0  0  0  0  0  0  0  0  0  0  0  0
  137.2870   75.5360  220.7780 O   0  0  0  0  0  0  0  0  0  0  0  0
  139.0750   74.0600  220.6060 N   0  0  0  0  0  0  0  0  0  0  0  0
  139.5070   73.6520  219.2750 C   0  0  0  0  0  0  0  0  0  0  0  0
  139.8770   72.2030  219.3560 C   0  0  0  0  0  0  0  0  0  0  0  0
  140.8160   71.9990  220.4990 C   0  0  0  0  0  0  0  0  0  0  0  0
  141.2780   73.2370  221.1860 C   0  0  0  0  0  0  0  0  0  0  0  0
  140.1470   74.1430  221.6120 C   0  0  1  0  0  0  0  0  0  0  0  0
  140.6870   75.5300  221.5510 C   0  0  0  0  0  0  0  0  0  0  0  0
  140.6210   76.5190  222.4490 N   0  0  0  0  0  0  0  0  0  0  0  0
  141.2570   77.6180  221.9700 C   0  0  0  0  0  0  0  0  0  0  0  0
  141.4110   78.9040  222.6370 C   0  0  0  0  0  0  0  0  0  0  0  0
  140.2890   79.5470  223.1130 C   0  0  0  0  0  0  0  0  0  0  0  0
  140.4910   80.7660  223.7370 C   0  0  0  0  0  0  0  0  0  0  0  0
  141.7580   81.3170  223.8800 C   0  0  0  0  0  0  0  0  0  0  0  0
  142.8780   80.6430  223.3870 C   0  0  0  0  0  0  0  0  0  0  0  0
  142.6780   79.4270  222.7650 C   0  0  0  0  0  0  0  0  0  0  0  0
  141.7190   77.2470  220.7270 C   0  0  0  0  0  0  0  0  0  0  0  0
  141.3590   76.0060  220.5230 O   0  0  0  0  0  0  0  0  0  0  0  0
  138.5950   70.6480  223.5790 C   0  0  0  0  0  0  0  0  0  0  0  0
  138.3720   69.2730  223.6530 C   0  0  0  0  0  0  0  0  0  0  0  0
  138.8650   68.5100  224.6970 C   0  0  0  0  0  0  0  0  0  0  0  0
  139.5890   69.1780  225.6630 C   0  0  0  0  0  0  0  0  0  0  0  0
  140.0920   68.4350  226.7150 C   0  0  0  0  0  0  0  0  0  0  0  0
  140.8320   69.0670  227.7190 C   0  0  0  0  0  0  0  0  0  0  0  0
  141.4590   68.1150  229.0430 Cl  0  0  0  0  0  0  0  0  0  0  0  0
  141.0380   70.4350  227.6200 C   0  0  0  0  0  0  0  0  0  0  0  0
  140.5270   71.1700  226.5560 C   0  0  0  0  0  0  0  0  0  0  0  0
  139.7940   70.5500  225.5600 C   0  0  0  0  0  0  0  0  0  0  0  0
  139.3020   71.2640  224.5330 N   0  0  0  0  0  0  0  0  0  0  0  0
  137.3610   73.0320  223.5490 H   0  0  0  0  0  0  0  0  0  0  0  0
  136.7541   72.5258  220.6138 H   0  0  0  0  0  0  0  0  0  0  0  0
  135.9027   73.7172  221.6973 H   0  0  0  0  0  0  0  0  0  0  0  0
  138.6888   73.7926  218.5533 H   0  0  0  0  0  0  0  0  0  0  0  0
  140.3628   74.2560  218.9393 H   0  0  0  0  0  0  0  0  0  0  0  0
  138.9704   71.6000  219.5126 H   0  0  0  0  0  0  0  0  0  0  0  0
  140.3626   71.8927  218.4190 H   0  0  0  0  0  0  0  0  0  0  0  0
  140.3089   71.3685  221.2442 H   0  0  0  0  0  0  0  0  0  0  0  0
  141.7185   71.5421  220.0669 H   0  0  0  0  0  0  0  0  0  0  0  0
  141.8488   72.9473  222.0806 H   0  0  0  0  0  0  0  0  0  0  0  0
  141.8913   73.7989  220.4661 H   0  0  0  0  0  0  0  0  0  0  0  0
  139.7676   73.8709  222.6080 H   0  0  0  0  0  0  0  0  0  0  0  0
  139.2840   79.1136  223.0027 H   0  0  0  0  0  0  0  0  0  0  0  0
  139.6227   81.3144  224.1311 H   0  0  0  0  0  0  0  0  0  0  0  0
  141.8799   82.2875  224.3832 H   0  0  0  0  0  0  0  0  0  0  0  0
  143.8873   81.0678  223.4912 H   0  0  0  0  0  0  0  0  0  0  0  0
  143.5396   78.8704  222.3677 H   0  0  0  0  0  0  0  0  0  0  0  0
  142.2884   77.8803  220.0308 H   0  0  0  0  0  0  0  0  0  0  0  0
  137.7886   68.7820  222.8602 H   0  0  0  0  0  0  0  0  0  0  0  0
  138.6886   67.4257  224.7538 H   0  0  0  0  0  0  0  0  0  0  0  0
  139.9107   67.3511  226.7619 H   0  0  0  0  0  0  0  0  0  0  0  0
  141.6182   70.9496  228.4001 H   0  0  0  0  0  0  0  0  0  0  0  0
  140.7072   72.2540  226.5058 H   0  0  0  0  0  0  0  0  0  0  0  0
  1  2  2  0
  2  3  1  0
  3  4  1  0
  4  5  1  0
  5  6  2  0
  5  7  1  0
  7  8  1  0
  8  9  1  0
  9 10  1  0
 10 11  1  0
 11 12  1  0
 12 13  1  0
 13 14  2  0
 14 15  1  0
 15 16  1  0
 16 17  2  0
 17 18  1  0
 18 19  2  0
 19 20  1  0
 20 21  2  0
 15 22  2  0
 22 23  1  0
  2 24  1  0
 24 25  2  0
 25 26  1  0
 26 27  2  0
 27 28  1  0
 28 29  2  0
 29 30  1  0
 29 31  1  0
 31 32  2  0
 32 33  1  0
 33 34  2  0
 12  7  1  0
 23 13  1  0
 34 24  1  0
 21 16  1  0
 33 27  1  0
  3 35  1  0
  4 36  1  0
  4 37  1  0
  8 38  1  0
  8 39  1  0
  9 40  1  0
  9 41  1  0
 10 42  1  0
 10 43  1  0
 11 44  1  0
 11 45  1  0
 12 46  1  1
 17 47  1  0
 18 48  1  0
 19 49  1  0
 20 50  1  0
 21 51  1  0
 22 52  1  0
 25 53  1  0
 26 54  1  0
 28 55  1  0
 31 56  1  0
 32 57  1  0
M  END
>  <smiles>  (45) 
O=C(NCC(=O)N1CCCC[C@H]1c1nc(-c2ccccc2)co1)c1ccc2cc(Cl)ccc2n1

>  <score_type>  (45) 
oracle

>  <origin>  (45) 
autodockgpu

>  <m_score__min__energy>  (45) 
-9.2699999999999996

>  <m_primary>  (45) 
energy

>  <rmsd>  (45) 
2.802858288311289

>  <m_score__min__rmsd>  (45) 
2.802858288311289

>  <meeko>  (45) 
{"free_energy": -8.99, "intermolecular_energy": -10.78, "internal_energy": -2.31, "cluster_size": 13, "cluster_id": 1, "rank_in_cluster": 6}

>  <energy>  (45) 
-6.86

>  <cluster_rmsd>  (45) 
0.62

>  <cluster>  (45) 
8

$$$$

     RDKit          3D

 57 61  0  0  0  0  0  0  0  0999 V2000
  138.9960   70.8160  221.1130 O   0  0  0  0  0  0  0  0  0  0  0  0
  139.1210   71.5650  222.1360 C   0  0  0  0  0  0  0  0  0  0  0  0
  138.7690   72.9250  221.9700 N   0  0  0  0  0  0  0  0  0  0  0  0
  138.3020   73.3740  220.6810 C   0  0  0  0  0  0  0  0  0  0  0  0
  139.2690   73.1270  219.6070 C   0  0  0  0  0  0  0  0  0  0  0  0
  139.0650   72.2510  218.7160 O   0  0  0  0  0  0  0  0  0  0  0  0
  140.4600   73.8990  219.5810 N   0  0  0  0  0  0  0  0  0  0  0  0
  140.9210   74.6050  218.3930 C   0  0  0  0  0  0  0  0  0  0  0  0
  142.1370   73.8840  217.8950 C   0  0  0  0  0  0  0  0  0  0  0  0
  143.0950   73.6990  219.0270 C   0  0  0  0  0  0  0  0  0  0  0  0
  142.7240   74.3670  220.3050 C   0  0  0  0  0  0  0  0  0  0  0  0
  141.3220   74.0400  220.7650 C   0  0  1  0  0  0  0  0  0  0  0  0
  140.8430   75.2420  221.5040 C   0  0  0  0  0  0  0  0  0  0  0  0
  141.4310   76.4290  221.6880 N   0  0  0  0  0  0  0  0  0  0  0  0
  140.6260   77.2310  222.4300 C   0  0  0  0  0  0  0  0  0  0  0  0
  140.8950   78.6000  222.8510 C   0  0  0  0  0  0  0  0  0  0  0  0
  142.2040   79.0070  222.9980 C   0  0  0  0  0  0  0  0  0  0  0  0
  142.4050   80.3160  223.4010 C   0  0  0  0  0  0  0  0  0  0  0  0
  141.3440   81.1790  223.6460 C   0  0  0  0  0  0  0  0  0  0  0  0
  140.0280   80.7400  223.4890 C   0  0  0  0  0  0  0  0  0  0  0  0
  139.8270   79.4340  223.0870 C   0  0  0  0  0  0  0  0  0  0  0  0
  139.5090   76.4680  222.6910 C   0  0  0  0  0  0  0  0  0  0  0  0
  139.6830   75.3030  222.1240 O   0  0  0  0  0  0  0  0  0  0  0  0
  139.6010   71.0490  223.4150 C   0  0  0  0  0  0  0  0  0  0  0  0
  140.4130   71.8870  224.1800 C   0  0  0  0  0  0  0  0  0  0  0  0
  140.9170   71.4920  225.4060 C   0  0  0  0  0  0  0  0  0  0  0  0
  140.5770   70.2250  225.8360 C   0  0  0  0  0  0  0  0  0  0  0  0
  141.0690   69.8100  227.0590 C   0  0  0  0  0  0  0  0  0  0  0  0
  140.7530   68.5340  227.5360 C   0  0  0  0  0  0  0  0  0  0  0  0
  141.3840   68.0220  229.0840 Cl  0  0  0  0  0  0  0  0  0  0  0  0
  139.9440   67.7230  226.7550 C   0  0  0  0  0  0  0  0  0  0  0  0
  139.4550   68.1540  225.5270 C   0  0  0  0  0  0  0  0  0  0  0  0
  139.7650   69.4140  225.0490 C   0  0  0  0  0  0  0  0  0  0  0  0
  139.2910   69.8270  223.8610 N   0  0  0  0  0  0  0  0  0  0  0  0
  138.8670   73.5580  222.8060 H   0  0  0  0  0  0  0  0  0  0  0  0
  137.3683   72.8439  220.4416 H   0  0  0  0  0  0  0  0  0  0  0  0
  138.1499   74.4615  220.7451 H   0  0  0  0  0  0  0  0  0  0  0  0
  140.1364   74.5983  217.6221 H   0  0  0  0  0  0  0  0  0  0  0  0
  141.1567   75.6535  218.6278 H   0  0  0  0  0  0  0  0  0  0  0  0
  141.8447   72.9016  217.4958 H   0  0  0  0  0  0  0  0  0  0  0  0
  142.6152   74.4719  217.0977 H   0  0  0  0  0  0  0  0  0  0  0  0
  143.1819   72.6201  219.2228 H   0  0  0  0  0  0  0  0  0  0  0  0
  144.0342   74.1719  218.7041 H   0  0  0  0  0  0  0  0  0  0  0  0
  143.4309   74.0467  221.0845 H   0  0  0  0  0  0  0  0  0  0  0  0
  142.7647   75.4521  220.1294 H   0  0  0  0  0  0  0  0  0  0  0  0
  141.3019   73.1226  221.3717 H   0  0  0  0  0  0  0  0  0  0  0  0
  143.0460   78.3261  222.8048 H   0  0  0  0  0  0  0  0  0  0  0  0
  143.4337   80.6833  223.5309 H   0  0  0  0  0  0  0  0  0  0  0  0
  141.5418   82.2129  223.9651 H   0  0  0  0  0  0  0  0  0  0  0  0
  139.1786   81.4126  223.6793 H   0  0  0  0  0  0  0  0  0  0  0  0
  138.8022   79.0569  222.9542 H   0  0  0  0  0  0  0  0  0  0  0  0
  138.6293   76.7824  223.2718 H   0  0  0  0  0  0  0  0  0  0  0  0
  140.6589   72.8887  223.7978 H   0  0  0  0  0  0  0  0  0  0  0  0
  141.5566   72.1541  226.0081 H   0  0  0  0  0  0  0  0  0  0  0  0
  141.7062   70.4803  227.6545 H   0  0  0  0  0  0  0  0  0  0  0  0
  139.6834   66.7167  227.1148 H   0  0  0  0  0  0  0  0  0  0  0  0
  138.8158   67.4867  224.9303 H   0  0  0  0  0  0  0  0  0  0  0  0
  1  2  2  0
  2  3  1  0
  3  4  1  0
  4  5  1  0
  5  6  2  0
  5  7  1  0
  7  8  1  0
  8  9  1  0
  9 10  1  0
 10 11  1  0
 11 12  1  0
 12 13  1  0
 13 14  2  0
 14 15  1  0
 15 16  1  0
 16 17  2  0
 17 18  1  0
 18 19  2  0
 19 20  1  0
 20 21  2  0
 15 22  2  0
 22 23  1  0
  2 24  1  0
 24 25  2  0
 25 26  1  0
 26 27  2  0
 27 28  1  0
 28 29  2  0
 29 30  1  0
 29 31  1  0
 31 32  2  0
 32 33  1  0
 33 34  2  0
 12  7  1  0
 23 13  1  0
 34 24  1  0
 21 16  1  0
 33 27  1  0
  3 35  1  0
  4 36  1  0
  4 37  1  0
  8 38  1  0
  8 39  1  0
  9 40  1  0
  9 41  1  0
 10 42  1  0
 10 43  1  0
 11 44  1  0
 11 45  1  0
 12 46  1  1
 17 47  1  0
 18 48  1  0
 19 49  1  0
 20 50  1  0
 21 51  1  0
 22 52  1  0
 25 53  1  0
 26 54  1  0
 28 55  1  0
 31 56  1  0
 32 57  1  0
M  END
>  <smiles>  (46) 
O=C(NCC(=O)N1CCCC[C@H]1c1nc(-c2ccccc2)co1)c1ccc2cc(Cl)ccc2n1

>  <score_type>  (46) 
oracle

>  <origin>  (46) 
autodockgpu

>  <m_score__min__energy>  (46) 
-9.2699999999999996

>  <m_primary>  (46) 
energy

>  <rmsd>  (46) 
3.34262019840067

>  <m_score__min__rmsd>  (46) 
3.34262019840067

>  <meeko>  (46) 
{"free_energy": -9.27, "intermolecular_energy": -11.06, "internal_energy": -2.4, "cluster_size": 13, "cluster_id": 1, "rank_in_cluster": 1}

>  <energy>  (46) 
-6.82

>  <cluster_rmsd>  (46) 
1.92

>  <cluster>  (46) 
8

$$$$

     RDKit          3D

 57 61  0  0  0  0  0  0  0  0999 V2000
  136.0330   75.9900  221.6510 O   0  0  0  0  0  0  0  0  0  0  0  0
  137.1990   75.8320  222.1390 C   0  0  0  0  0  0  0  0  0  0  0  0
  137.6380   74.4970  222.3040 N   0  0  0  0  0  0  0  0  0  0  0  0
  136.7610   73.4190  221.9180 C   0  0  0  0  0  0  0  0  0  0  0  0
  136.6310   72.3920  222.9570 C   0  0  0  0  0  0  0  0  0  0  0  0
  135.7160   72.4430  223.8310 O   0  0  0  0  0  0  0  0  0  0  0  0
  137.5620   71.3220  222.9690 N   0  0  0  0  0  0  0  0  0  0  0  0
  137.3320   70.0630  222.2730 C   0  0  0  0  0  0  0  0  0  0  0  0
  137.0900   69.0180  223.3190 C   0  0  0  0  0  0  0  0  0  0  0  0
  138.1830   69.0770  224.3350 C   0  0  0  0  0  0  0  0  0  0  0  0
  139.3020   70.0110  224.0270 C   0  0  0  0  0  0  0  0  0  0  0  0
  138.8400   71.4100  223.6950 C   0  0  1  0  0  0  0  0  0  0  0  0
  139.8410   71.9560  222.7370 C   0  0  0  0  0  0  0  0  0  0  0  0
  140.0730   73.2190  222.3620 N   0  0  0  0  0  0  0  0  0  0  0  0
  141.0890   73.2520  221.4630 C   0  0  0  0  0  0  0  0  0  0  0  0
  141.6480   74.4300  220.8100 C   0  0  0  0  0  0  0  0  0  0  0  0
  142.9840   74.4350  220.4740 C   0  0  0  0  0  0  0  0  0  0  0  0
  143.4640   75.5770  219.8570 C   0  0  0  0  0  0  0  0  0  0  0  0
  142.6440   76.6660  219.5880 C   0  0  0  0  0  0  0  0  0  0  0  0
  141.2930   76.6340  219.9400 C   0  0  0  0  0  0  0  0  0  0  0  0
  140.8130   75.4940  220.5560 C   0  0  0  0  0  0  0  0  0  0  0  0
  141.4680   71.9380  221.3070 C   0  0  0  0  0  0  0  0  0  0  0  0
  140.7040   71.2100  222.0800 O   0  0  0  0  0  0  0  0  0  0  0  0
  138.0400   76.9650  222.5110 C   0  0  0  0  0  0  0  0  0  0  0  0
  137.4080   78.1910  222.7210 C   0  0  0  0  0  0  0  0  0  0  0  0
  138.1180   79.3250  223.0760 C   0  0  0  0  0  0  0  0  0  0  0  0
  139.4830   79.1830  223.2130 C   0  0  0  0  0  0  0  0  0  0  0  0
  140.2120   80.3030  223.5680 C   0  0  0  0  0  0  0  0  0  0  0  0
  141.5990   80.2080  223.7180 C   0  0  0  0  0  0  0  0  0  0  0  0
  142.5060   81.6330  224.1660 Cl  0  0  0  0  0  0  0  0  0  0  0  0
  142.2000   78.9780  223.5030 C   0  0  0  0  0  0  0  0  0  0  0  0
  141.4550   77.8590  223.1470 C   0  0  0  0  0  0  0  0  0  0  0  0
  140.0830   77.9460  222.9960 C   0  0  0  0  0  0  0  0  0  0  0  0
  139.3660   76.8630  222.6520 N   0  0  0  0  0  0  0  0  0  0  0  0
  138.6000   74.3470  222.7070 H   0  0  0  0  0  0  0  0  0  0  0  0
  135.7644   73.8347  221.7082 H   0  0  0  0  0  0  0  0  0  0  0  0
  137.1980   72.9384  221.0303 H   0  0  0  0  0  0  0  0  0  0  0  0
  136.4537   70.1500  221.6165 H   0  0  0  0  0  0  0  0  0  0  0  0
  138.1976   69.7978  221.6481 H   0  0  0  0  0  0  0  0  0  0  0  0
  136.1226   69.2044  223.8082 H   0  0  0  0  0  0  0  0  0  0  0  0
  137.0747   68.0229  222.8504 H   0  0  0  0  0  0  0  0  0  0  0  0
  137.7382   69.3866  225.2922 H   0  0  0  0  0  0  0  0  0  0  0  0
  138.6286   68.0715  224.3545 H   0  0  0  0  0  0  0  0  0  0  0  0
  139.9656   70.0614  224.9029 H   0  0  0  0  0  0  0  0  0  0  0  0
  139.8173   69.6191  223.1377 H   0  0  0  0  0  0  0  0  0  0  0  0
  138.7310   72.0230  224.6019 H   0  0  0  0  0  0  0  0  0  0  0  0
  143.6362   73.5748  220.6854 H   0  0  0  0  0  0  0  0  0  0  0  0
  144.5252   75.6239  219.5713 H   0  0  0  0  0  0  0  0  0  0  0  0
  143.0608   77.5570  219.0957 H   0  0  0  0  0  0  0  0  0  0  0  0
  140.6322   77.4888  219.7336 H   0  0  0  0  0  0  0  0  0  0  0  0
  139.7535   75.4365  220.8461 H   0  0  0  0  0  0  0  0  0  0  0  0
  142.2690   71.5670  220.6507 H   0  0  0  0  0  0  0  0  0  0  0  0
  136.3166   78.2582  222.6013 H   0  0  0  0  0  0  0  0  0  0  0  0
  137.6185   80.2911  223.2406 H   0  0  0  0  0  0  0  0  0  0  0  0
  139.7032   81.2644  223.7317 H   0  0  0  0  0  0  0  0  0  0  0  0
  143.2902   78.8847  223.6164 H   0  0  0  0  0  0  0  0  0  0  0  0
  141.9614   76.8962  222.9841 H   0  0  0  0  0  0  0  0  0  0  0  0
  1  2  2  0
  2  3  1  0
  3  4  1  0
  4  5  1  0
  5  6  2  0
  5  7  1  0
  7  8  1  0
  8  9  1  0
  9 10  1  0
 10 11  1  0
 11 12  1  0
 12 13  1  0
 13 14  2  0
 14 15  1  0
 15 16  1  0
 16 17  2  0
 17 18  1  0
 18 19  2  0
 19 20  1  0
 20 21  2  0
 15 22  2  0
 22 23  1  0
  2 24  1  0
 24 25  2  0
 25 26  1  0
 26 27  2  0
 27 28  1  0
 28 29  2  0
 29 30  1  0
 29 31  1  0
 31 32  2  0
 32 33  1  0
 33 34  2  0
 12  7  1  0
 23 13  1  0
 34 24  1  0
 21 16  1  0
 33 27  1  0
  3 35  1  0
  4 36  1  0
  4 37  1  0
  8 38  1  0
  8 39  1  0
  9 40  1  0
  9 41  1  0
 10 42  1  0
 10 43  1  0
 11 44  1  0
 11 45  1  0
 12 46  1  1
 17 47  1  0
 18 48  1  0
 19 49  1  0
 20 50  1  0
 21 51  1  0
 22 52  1  0
 25 53  1  0
 26 54  1  0
 28 55  1  0
 31 56  1  0
 32 57  1  0
M  END
>  <smiles>  (47) 
O=C(NCC(=O)N1CCCC[C@H]1c1nc(-c2ccccc2)co1)c1ccc2cc(Cl)ccc2n1

>  <score_type>  (47) 
oracle

>  <origin>  (47) 
autodockgpu

>  <m_score__min__energy>  (47) 
-9.2699999999999996

>  <m_primary>  (47) 
energy

>  <rmsd>  (47) 
7.91993104511608

>  <m_score__min__rmsd>  (47) 
7.91993104511608

>  <meeko>  (47) 
{"free_energy": -7.77, "intermolecular_energy": -9.56, "internal_energy": -3.53, "cluster_size": 15, "cluster_id": 4, "rank_in_cluster": 8}

>  <energy>  (47) 
-6.81

>  <cluster_rmsd>  (47) 
1.91

>  <cluster>  (47) 
8

$$$$

     RDKit          3D

 57 61  0  0  0  0  0  0  0  0999 V2000
  138.0730   70.7880  220.8460 O   0  0  0  0  0  0  0  0  0  0  0  0
  138.3980   71.4120  221.9080 C   0  0  0  0  0  0  0  0  0  0  0  0
  138.3180   72.8240  221.8600 N   0  0  0  0  0  0  0  0  0  0  0  0
  137.8850   73.4590  220.6390 C   0  0  0  0  0  0  0  0  0  0  0  0
  138.8070   73.2330  219.5220 C   0  0  0  0  0  0  0  0  0  0  0  0
  138.4170   72.7240  218.4300 O   0  0  0  0  0  0  0  0  0  0  0  0
  140.1680   73.5990  219.6860 N   0  0  0  0  0  0  0  0  0  0  0  0
  141.0110   74.0330  218.5790 C   0  0  0  0  0  0  0  0  0  0  0  0
  142.0010   72.9380  218.3230 C   0  0  0  0  0  0  0  0  0  0  0  0
  142.6590   72.5600  219.6100 C   0  0  0  0  0  0  0  0  0  0  0  0
  142.3180   73.4100  220.7840 C   0  0  0  0  0  0  0  0  0  0  0  0
  140.8310   73.5650  220.9990 C   0  0  1  0  0  0  0  0  0  0  0  0
  140.6430   74.9100  221.6110 C   0  0  0  0  0  0  0  0  0  0  0  0
  141.4490   75.9780  221.6040 N   0  0  0  0  0  0  0  0  0  0  0  0
  140.8700   76.9960  222.2900 C   0  0  0  0  0  0  0  0  0  0  0  0
  141.4170   78.3270  222.5170 C   0  0  0  0  0  0  0  0  0  0  0  0
  141.7300   78.7090  223.8040 C   0  0  0  0  0  0  0  0  0  0  0  0
  142.2460   79.9830  223.9640 C   0  0  0  0  0  0  0  0  0  0  0  0
  142.4420   80.8370  222.8860 C   0  0  0  0  0  0  0  0  0  0  0  0
  142.1160   80.4240  221.5930 C   0  0  0  0  0  0  0  0  0  0  0  0
  141.6010   79.1530  221.4310 C   0  0  0  0  0  0  0  0  0  0  0  0
  139.6610   76.4920  222.7180 C   0  0  0  0  0  0  0  0  0  0  0  0
  139.5720   75.2590  222.2930 O   0  0  0  0  0  0  0  0  0  0  0  0
  138.8290   70.7110  223.1130 C   0  0  0  0  0  0  0  0  0  0  0  0
  138.4520   69.3740  223.2470 C   0  0  0  0  0  0  0  0  0  0  0  0
  138.8120   68.6230  224.3520 C   0  0  0  0  0  0  0  0  0  0  0  0
  139.5620   69.2620  225.3170 C   0  0  0  0  0  0  0  0  0  0  0  0
  139.9330   68.5300  226.4300 C   0  0  0  0  0  0  0  0  0  0  0  0
  140.6940   69.1350  227.4350 C   0  0  0  0  0  0  0  0  0  0  0  0
  141.1540   68.1980  228.8370 Cl  0  0  0  0  0  0  0  0  0  0  0  0
  141.0540   70.4650  227.2760 C   0  0  0  0  0  0  0  0  0  0  0  0
  140.6750   71.1890  226.1510 C   0  0  0  0  0  0  0  0  0  0  0  0
  139.9220   70.5960  225.1540 C   0  0  0  0  0  0  0  0  0  0  0  0
  139.5570   71.3000  224.0680 N   0  0  0  0  0  0  0  0  0  0  0  0
  138.5830   73.3560  222.7290 H   0  0  0  0  0  0  0  0  0  0  0  0
  136.8975   73.0586  220.3659 H   0  0  0  0  0  0  0  0  0  0  0  0
  137.8495   74.5427  220.8244 H   0  0  0  0  0  0  0  0  0  0  0  0
  140.3975   74.2041  217.6822 H   0  0  0  0  0  0  0  0  0  0  0  0
  141.5238   74.9749  218.8235 H   0  0  0  0  0  0  0  0  0  0  0  0
  141.4820   72.0632  217.9043 H   0  0  0  0  0  0  0  0  0  0  0  0
  142.7607   73.2864  217.6078 H   0  0  0  0  0  0  0  0  0  0  0  0
  142.3695   71.5255  219.8464 H   0  0  0  0  0  0  0  0  0  0  0  0
  143.7383   72.6950  219.4457 H   0  0  0  0  0  0  0  0  0  0  0  0
  142.7550   72.9532  221.6842 H   0  0  0  0  0  0  0  0  0  0  0  0
  142.7247   74.4132  220.5884 H   0  0  0  0  0  0  0  0  0  0  0  0
  140.4272   72.7495  221.6169 H   0  0  0  0  0  0  0  0  0  0  0  0
  141.5774   78.0354  224.6602 H   0  0  0  0  0  0  0  0  0  0  0  0
  142.5087   80.3296  224.9744 H   0  0  0  0  0  0  0  0  0  0  0  0
  142.8557   81.8426  223.0519 H   0  0  0  0  0  0  0  0  0  0  0  0
  142.2647   81.0901  220.7303 H   0  0  0  0  0  0  0  0  0  0  0  0
  141.3352   78.7971  220.4247 H   0  0  0  0  0  0  0  0  0  0  0  0
  138.9066   77.0303  223.3106 H   0  0  0  0  0  0  0  0  0  0  0  0
  137.8526   68.9047  222.4530 H   0  0  0  0  0  0  0  0  0  0  0  0
  138.5148   67.5690  224.4556 H   0  0  0  0  0  0  0  0  0  0  0  0
  139.6308   67.4765  226.5243 H   0  0  0  0  0  0  0  0  0  0  0  0
  141.6522   70.9576  228.0567 H   0  0  0  0  0  0  0  0  0  0  0  0
  140.9766   72.2423  226.0532 H   0  0  0  0  0  0  0  0  0  0  0  0
  1  2  2  0
  2  3  1  0
  3  4  1  0
  4  5  1  0
  5  6  2  0
  5  7  1  0
  7  8  1  0
  8  9  1  0
  9 10  1  0
 10 11  1  0
 11 12  1  0
 12 13  1  0
 13 14  2  0
 14 15  1  0
 15 16  1  0
 16 17  2  0
 17 18  1  0
 18 19  2  0
 19 20  1  0
 20 21  2  0
 15 22  2  0
 22 23  1  0
  2 24  1  0
 24 25  2  0
 25 26  1  0
 26 27  2  0
 27 28  1  0
 28 29  2  0
 29 30  1  0
 29 31  1  0
 31 32  2  0
 32 33  1  0
 33 34  2  0
 12  7  1  0
 23 13  1  0
 34 24  1  0
 21 16  1  0
 33 27  1  0
  3 35  1  0
  4 36  1  0
  4 37  1  0
  8 38  1  0
  8 39  1  0
  9 40  1  0
  9 41  1  0
 10 42  1  0
 10 43  1  0
 11 44  1  0
 11 45  1  0
 12 46  1  1
 17 47  1  0
 18 48  1  0
 19 49  1  0
 20 50  1  0
 21 51  1  0
 22 52  1  0
 25 53  1  0
 26 54  1  0
 28 55  1  0
 31 56  1  0
 32 57  1  0
M  END
>  <smiles>  (48) 
O=C(NCC(=O)N1CCCC[C@H]1c1nc(-c2ccccc2)co1)c1ccc2cc(Cl)ccc2n1

>  <score_type>  (48) 
oracle

>  <origin>  (48) 
autodockgpu

>  <m_score__min__energy>  (48) 
-9.2699999999999996

>  <m_primary>  (48) 
energy

>  <rmsd>  (48) 
2.836052295749536

>  <m_score__min__rmsd>  (48) 
2.836052295749536

>  <meeko>  (48) 
{"free_energy": -9.09, "intermolecular_energy": -10.88, "internal_energy": -2.67, "cluster_size": 13, "cluster_id": 1, "rank_in_cluster": 3}

>  <energy>  (48) 
-6.8

>  <cluster_rmsd>  (48) 
0.62

>  <cluster>  (48) 
8

$$$$

     RDKit          3D

 57 61  0  0  0  0  0  0  0  0999 V2000
  139.1580   75.6340  222.7710 O   0  0  0  0  0  0  0  0  0  0  0  0
  139.8240   75.7720  221.6950 C   0  0  0  0  0  0  0  0  0  0  0  0
  139.5460   76.9260  220.9240 N   0  0  0  0  0  0  0  0  0  0  0  0
  138.5460   77.8550  221.3910 C   0  0  0  0  0  0  0  0  0  0  0  0
  139.1200   78.9900  222.1200 C   0  0  0  0  0  0  0  0  0  0  0  0
  138.3900   79.8790  222.6480 O   0  0  0  0  0  0  0  0  0  0  0  0
  140.5320   79.0790  222.2270 N   0  0  0  0  0  0  0  0  0  0  0  0
  141.3130   78.2440  223.1310 C   0  0  0  0  0  0  0  0  0  0  0  0
  141.8140   79.1310  224.2290 C   0  0  0  0  0  0  0  0  0  0  0  0
  142.4700   80.3320  223.6290 C   0  0  0  0  0  0  0  0  0  0  0  0
  142.6110   80.3190  222.1470 C   0  0  0  0  0  0  0  0  0  0  0  0
  141.3160   80.0320  221.4240 C   0  0  1  0  0  0  0  0  0  0  0  0
  141.6940   79.3260  220.1680 C   0  0  0  0  0  0  0  0  0  0  0  0
  141.8310   78.0180  219.9240 N   0  0  0  0  0  0  0  0  0  0  0  0
  142.1910   77.8270  218.6300 C   0  0  0  0  0  0  0  0  0  0  0  0
  142.4400   76.5540  217.9650 C   0  0  0  0  0  0  0  0  0  0  0  0
  143.6810   76.3230  217.4120 C   0  0  0  0  0  0  0  0  0  0  0  0
  143.8640   75.0990  216.7920 C   0  0  0  0  0  0  0  0  0  0  0  0
  142.8520   74.1490  216.7290 C   0  0  0  0  0  0  0  0  0  0  0  0
  141.6040   74.4110  217.2980 C   0  0  0  0  0  0  0  0  0  0  0  0
  141.4200   75.6320  217.9170 C   0  0  0  0  0  0  0  0  0  0  0  0
  142.2680   79.0930  218.0920 C   0  0  0  0  0  0  0  0  0  0  0  0
  141.9660   79.9450  219.0370 O   0  0  0  0  0  0  0  0  0  0  0  0
  140.8250   74.7950  221.2760 C   0  0  0  0  0  0  0  0  0  0  0  0
  140.4140   73.4670  221.1580 C   0  0  0  0  0  0  0  0  0  0  0  0
  141.2860   72.4670  220.7670 C   0  0  0  0  0  0  0  0  0  0  0  0
  142.5850   72.8480  220.4990 C   0  0  0  0  0  0  0  0  0  0  0  0
  143.4730   71.8650  220.1060 C   0  0  0  0  0  0  0  0  0  0  0  0
  144.8010   72.2020  219.8240 C   0  0  0  0  0  0  0  0  0  0  0  0
  145.9130   70.9480  219.3300 Cl  0  0  0  0  0  0  0  0  0  0  0  0
  145.1820   73.5300  219.9500 C   0  0  0  0  0  0  0  0  0  0  0  0
  144.2770   74.5090  220.3450 C   0  0  0  0  0  0  0  0  0  0  0  0
  142.9630   74.1810  220.6260 C   0  0  0  0  0  0  0  0  0  0  0  0
  142.0920   75.1310  221.0080 N   0  0  0  0  0  0  0  0  0  0  0  0
  140.0890   77.0560  220.0300 H   0  0  0  0  0  0  0  0  0  0  0  0
  137.9911   78.2397  220.5226 H   0  0  0  0  0  0  0  0  0  0  0  0
  137.8899   77.3123  222.0874 H   0  0  0  0  0  0  0  0  0  0  0  0
  140.6807   77.4468  223.5490 H   0  0  0  0  0  0  0  0  0  0  0  0
  142.1505   77.7688  222.5992 H   0  0  0  0  0  0  0  0  0  0  0  0
  140.9703   79.4488  224.8592 H   0  0  0  0  0  0  0  0  0  0  0  0
  142.5409   78.5818  224.8454 H   0  0  0  0  0  0  0  0  0  0  0  0
  141.8743   81.2149  223.9039 H   0  0  0  0  0  0  0  0  0  0  0  0
  143.4953   80.3434  224.0272 H   0  0  0  0  0  0  0  0  0  0  0  0
  142.9805   81.3032  221.8232 H   0  0  0  0  0  0  0  0  0  0  0  0
  143.3107   79.5087  221.8943 H   0  0  0  0  0  0  0  0  0  0  0  0
  140.7433   80.9539  221.2450 H   0  0  0  0  0  0  0  0  0  0  0  0
  144.4846   77.0726  217.4608 H   0  0  0  0  0  0  0  0  0  0  0  0
  144.8389   74.8718  216.3360 H   0  0  0  0  0  0  0  0  0  0  0  0
  143.0347   73.1865  216.2288 H   0  0  0  0  0  0  0  0  0  0  0  0
  140.7933   73.6687  217.2547 H   0  0  0  0  0  0  0  0  0  0  0  0
  140.4489   75.8694  218.3759 H   0  0  0  0  0  0  0  0  0  0  0  0
  142.5353   79.3422  217.0545 H   0  0  0  0  0  0  0  0  0  0  0  0
  139.3686   73.2083  221.3819 H   0  0  0  0  0  0  0  0  0  0  0  0
  140.9603   71.4204  220.6743 H   0  0  0  0  0  0  0  0  0  0  0  0
  143.1369   70.8215  220.0153 H   0  0  0  0  0  0  0  0  0  0  0  0
  146.2221   73.8145  219.7328 H   0  0  0  0  0  0  0  0  0  0  0  0
  144.6091   75.5538  220.4348 H   0  0  0  0  0  0  0  0  0  0  0  0
  1  2  2  0
  2  3  1  0
  3  4  1  0
  4  5  1  0
  5  6  2  0
  5  7  1  0
  7  8  1  0
  8  9  1  0
  9 10  1  0
 10 11  1  0
 11 12  1  0
 12 13  1  0
 13 14  2  0
 14 15  1  0
 15 16  1  0
 16 17  2  0
 17 18  1  0
 18 19  2  0
 19 20  1  0
 20 21  2  0
 15 22  2  0
 22 23  1  0
  2 24  1  0
 24 25  2  0
 25 26  1  0
 26 27  2  0
 27 28  1  0
 28 29  2  0
 29 30  1  0
 29 31  1  0
 31 32  2  0
 32 33  1  0
 33 34  2  0
 12  7  1  0
 23 13  1  0
 34 24  1  0
 21 16  1  0
 33 27  1  0
  3 35  1  0
  4 36  1  0
  4 37  1  0
  8 38  1  0
  8 39  1  0
  9 40  1  0
  9 41  1  0
 10 42  1  0
 10 43  1  0
 11 44  1  0
 11 45  1  0
 12 46  1  6
 17 47  1  0
 18 48  1  0
 19 49  1  0
 20 50  1  0
 21 51  1  0
 22 52  1  0
 25 53  1  0
 26 54  1  0
 28 55  1  0
 31 56  1  0
 32 57  1  0
M  END
>  <smiles>  (49) 
O=C(NCC(=O)N1CCCC[C@H]1c1nc(-c2ccccc2)co1)c1ccc2cc(Cl)ccc2n1

>  <score_type>  (49) 
oracle

>  <origin>  (49) 
autodockgpu

>  <m_score__min__energy>  (49) 
-9.2699999999999996

>  <m_primary>  (49) 
energy

>  <rmsd>  (49) 
6.702033206302439

>  <m_score__min__rmsd>  (49) 
6.702033206302439

>  <meeko>  (49) 
{"free_energy": -6.68, "intermolecular_energy": -8.47, "internal_energy": -4.48, "cluster_size": 6, "cluster_id": 6, "rank_in_cluster": 5}

>  <energy>  (49) 
-6.43

>  <cluster_rmsd>  (49) 
1.8

>  <cluster>  (49) 
8

$$$$

     RDKit          3D

 57 61  0  0  0  0  0  0  0  0999 V2000
  135.9730   74.8850  221.6080 O   0  0  0  0  0  0  0  0  0  0  0  0
  137.1690   74.9270  222.0420 C   0  0  0  0  0  0  0  0  0  0  0  0
  137.7740   73.6850  222.3460 N   0  0  0  0  0  0  0  0  0  0  0  0
  137.0170   72.4720  222.1520 C   0  0  0  0  0  0  0  0  0  0  0  0
  137.1090   71.5550  223.2930 C   0  0  0  0  0  0  0  0  0  0  0  0
  136.1360   71.3770  224.0830 O   0  0  0  0  0  0  0  0  0  0  0  0
  138.3270   70.8580  223.5020 N   0  0  0  0  0  0  0  0  0  0  0  0
  138.4920   69.4420  223.1990 C   0  0  0  0  0  0  0  0  0  0  0  0
  138.5970   68.7200  224.5070 C   0  0  0  0  0  0  0  0  0  0  0  0
  139.6300   69.3890  225.3550 C   0  0  0  0  0  0  0  0  0  0  0  0
  140.4000   70.4800  224.6960 C   0  0  0  0  0  0  0  0  0  0  0  0
  139.5220   71.5230  224.0450 C   0  0  1  0  0  0  0  0  0  0  0  0
  140.2940   72.0390  222.8800 C   0  0  0  0  0  0  0  0  0  0  0  0
  140.6020   73.2960  222.5410 N   0  0  0  0  0  0  0  0  0  0  0  0
  141.3260   73.2980  221.3930 C   0  0  0  0  0  0  0  0  0  0  0  0
  141.8550   74.4600  220.6900 C   0  0  0  0  0  0  0  0  0  0  0  0
  143.2110   74.5370  220.4560 C   0  0  0  0  0  0  0  0  0  0  0  0
  143.6620   75.6600  219.7850 C   0  0  0  0  0  0  0  0  0  0  0  0
  142.7950   76.6620  219.3660 C   0  0  0  0  0  0  0  0  0  0  0  0
  141.4260   76.5580  219.6170 C   0  0  0  0  0  0  0  0  0  0  0  0
  140.9750   75.4380  220.2870 C   0  0  0  0  0  0  0  0  0  0  0  0
  141.4460   71.9710  221.0470 C   0  0  0  0  0  0  0  0  0  0  0  0
  140.8220   71.2650  221.9550 O   0  0  0  0  0  0  0  0  0  0  0  0
  137.8830   76.1880  222.2180 C   0  0  0  0  0  0  0  0  0  0  0  0
  137.1640   77.3660  222.0140 C   0  0  0  0  0  0  0  0  0  0  0  0
  137.7500   78.6110  222.1560 C   0  0  0  0  0  0  0  0  0  0  0  0
  139.0830   78.6310  222.5100 C   0  0  0  0  0  0  0  0  0  0  0  0
  139.6880   79.8650  222.6580 C   0  0  0  0  0  0  0  0  0  0  0  0
  141.0380   79.9360  223.0150 C   0  0  0  0  0  0  0  0  0  0  0  0
  141.7910   81.5030  223.1970 Cl  0  0  0  0  0  0  0  0  0  0  0  0
  141.7290   78.7500  223.2110 C   0  0  0  0  0  0  0  0  0  0  0  0
  141.1070   77.5150  223.0590 C   0  0  0  0  0  0  0  0  0  0  0  0
  139.7730   77.4390  222.7060 C   0  0  0  0  0  0  0  0  0  0  0  0
  139.1750   76.2430  222.5600 N   0  0  0  0  0  0  0  0  0  0  0  0
  138.7630   73.7000  222.7070 H   0  0  0  0  0  0  0  0  0  0  0  0
  135.9606   72.7378  221.9992 H   0  0  0  0  0  0  0  0  0  0  0  0
  137.4388   71.9551  221.2774 H   0  0  0  0  0  0  0  0  0  0  0  0
  137.6234   69.0736  222.6335 H   0  0  0  0  0  0  0  0  0  0  0  0
  139.3907   69.2752  222.5870 H   0  0  0  0  0  0  0  0  0  0  0  0
  137.6250   68.7467  225.0213 H   0  0  0  0  0  0  0  0  0  0  0  0
  138.8851   67.6733  224.3297 H   0  0  0  0  0  0  0  0  0  0  0  0
  139.1220   69.8163  226.2321 H   0  0  0  0  0  0  0  0  0  0  0  0
  140.3661   68.6095  225.6010 H   0  0  0  0  0  0  0  0  0  0  0  0
  141.0246   70.9739  225.4549 H   0  0  0  0  0  0  0  0  0  0  0  0
  141.0021   70.0183  223.8996 H   0  0  0  0  0  0  0  0  0  0  0  0
  139.2377   72.3110  224.7579 H   0  0  0  0  0  0  0  0  0  0  0  0
  143.9001   73.7456  220.7860 H   0  0  0  0  0  0  0  0  0  0  0  0
  144.7374   75.7625  219.5774 H   0  0  0  0  0  0  0  0  0  0  0  0
  143.1893   77.5406  218.8344 H   0  0  0  0  0  0  0  0  0  0  0  0
  140.7282   77.3435  219.2913 H   0  0  0  0  0  0  0  0  0  0  0  0
  139.9017   75.3265  220.5007 H   0  0  0  0  0  0  0  0  0  0  0  0
  141.9719   71.5753  220.1656 H   0  0  0  0  0  0  0  0  0  0  0  0
  136.1025   77.3031  221.7327 H   0  0  0  0  0  0  0  0  0  0  0  0
  137.1814   79.5387  221.9947 H   0  0  0  0  0  0  0  0  0  0  0  0
  139.1101   80.7868  222.4957 H   0  0  0  0  0  0  0  0  0  0  0  0
  142.7917   78.7864  223.4927 H   0  0  0  0  0  0  0  0  0  0  0  0
  141.6817   76.5912  223.2212 H   0  0  0  0  0  0  0  0  0  0  0  0
  1  2  2  0
  2  3  1  0
  3  4  1  0
  4  5  1  0
  5  6  2  0
  5  7  1  0
  7  8  1  0
  8  9  1  0
  9 10  1  0
 10 11  1  0
 11 12  1  0
 12 13  1  0
 13 14  2  0
 14 15  1  0
 15 16  1  0
 16 17  2  0
 17 18  1  0
 18 19  2  0
 19 20  1  0
 20 21  2  0
 15 22  2  0
 22 23  1  0
  2 24  1  0
 24 25  2  0
 25 26  1  0
 26 27  2  0
 27 28  1  0
 28 29  2  0
 29 30  1  0
 29 31  1  0
 31 32  2  0
 32 33  1  0
 33 34  2  0
 12  7  1  0
 23 13  1  0
 34 24  1  0
 21 16  1  0
 33 27  1  0
  3 35  1  0
  4 36  1  0
  4 37  1  0
  8 38  1  0
  8 39  1  0
  9 40  1  0
  9 41  1  0
 10 42  1  0
 10 43  1  0
 11 44  1  0
 11 45  1  0
 12 46  1  1
 17 47  1  0
 18 48  1  0
 19 49  1  0
 20 50  1  0
 21 51  1  0
 22 52  1  0
 25 53  1  0
 26 54  1  0
 28 55  1  0
 31 56  1  0
 32 57  1  0
M  END
>  <smiles>  (50) 
O=C(NCC(=O)N1CCCC[C@H]1c1nc(-c2ccccc2)co1)c1ccc2cc(Cl)ccc2n1

>  <score_type>  (50) 
oracle

>  <origin>  (50) 
autodockgpu

>  <m_score__min__energy>  (50) 
-9.2699999999999996

>  <m_primary>  (50) 
energy

>  <rmsd>  (50) 
7.872791505583726

>  <m_score__min__rmsd>  (50) 
7.872791505583726

>  <meeko>  (50) 
{"free_energy": -7.84, "intermolecular_energy": -9.63, "internal_energy": -3.82, "cluster_size": 15, "cluster_id": 4, "rank_in_cluster": 7}

>  <energy>  (50) 
-6.75

>  <cluster_rmsd>  (50) 
0.0

>  <cluster>  (50) 
9

$$$$
