
     RDKit          3D

 63 66  0  0  0  0  0  0  0  0999 V2000
  138.0960   80.7680  224.4360 C   0  0  0  0  0  0  0  0  0  0  0  0
  137.7150   80.4690  223.0110 C   0  0  0  0  0  0  0  0  0  0  0  0
  137.9590   79.0480  222.6230 C   0  0  0  0  0  0  0  0  0  0  0  0
  136.9230   78.3120  222.6320 O   0  0  0  0  0  0  0  0  0  0  0  0
  139.2540   78.5570  222.2730 N   0  0  0  0  0  0  0  0  0  0  0  0
  140.4640   79.2480  222.4820 C   0  0  0  0  0  0  0  0  0  0  0  0
  141.2060   79.0200  223.6320 C   0  0  0  0  0  0  0  0  0  0  0  0
  142.4090   79.6940  223.8740 C   0  0  0  0  0  0  0  0  0  0  0  0
  142.9180   80.6110  222.9880 C   0  0  0  0  0  0  0  0  0  0  0  0
  142.1930   80.8440  221.8450 C   0  0  0  0  0  0  0  0  0  0  0  0
  140.9940   80.1740  221.6030 C   0  0  0  0  0  0  0  0  0  0  0  0
  139.2820   77.2210  221.6930 C   0  0  0  0  0  0  0  0  0  0  0  0
  139.4300   76.1520  222.7190 C   0  0  0  0  0  0  0  0  0  0  0  0
  139.5850   74.7900  222.0570 C   0  0  0  0  0  0  0  0  0  0  0  0
  140.5830   74.8190  221.0340 N   0  0  0  0  0  0  0  0  0  0  0  0
  141.4490   73.6760  220.8860 C   0  0  0  0  0  0  0  0  0  0  0  0
  142.3680   73.6740  219.9890 O   0  0  0  0  0  0  0  0  0  0  0  0
  141.3670   72.4630  221.7100 C   0  0  2  0  0  0  0  0  0  0  0  0
  142.3390   71.5210  221.1300 N   0  0  0  0  0  0  0  0  0  0  0  0
  140.0030   71.8060  221.7190 C   0  0  0  0  0  0  0  0  0  0  0  0
  139.8730   71.1820  223.0850 C   0  0  0  0  0  0  0  0  0  0  0  0
  139.1090   70.0520  223.2930 C   0  0  0  0  0  0  0  0  0  0  0  0
  139.0500   69.5540  224.5770 C   0  0  0  0  0  0  0  0  0  0  0  0
  139.7230   70.1450  225.6420 C   0  0  0  0  0  0  0  0  0  0  0  0
  139.6470   69.6250  226.9190 C   0  0  0  0  0  0  0  0  0  0  0  0
  140.3330   70.2410  227.9610 C   0  0  0  0  0  0  0  0  0  0  0  0
  141.0940   71.3710  227.7410 C   0  0  0  0  0  0  0  0  0  0  0  0
  141.1670   71.8870  226.4640 C   0  0  0  0  0  0  0  0  0  0  0  0
  140.4850   71.2810  225.4110 C   0  0  0  0  0  0  0  0  0  0  0  0
  140.5650   71.8090  224.1230 C   0  0  0  0  0  0  0  0  0  0  0  0
  140.8200   75.9020  220.1100 C   0  0  0  0  0  0  0  0  0  0  0  0
  140.0590   77.1110  220.4290 C   0  0  0  0  0  0  0  0  0  0  0  0
  137.4163   80.2346  225.1169 H   0  0  0  0  0  0  0  0  0  0  0  0
  139.1295   80.4374  224.6163 H   0  0  0  0  0  0  0  0  0  0  0  0
  138.0206   81.8505  224.6163 H   0  0  0  0  0  0  0  0  0  0  0  0
  136.6447   80.6879  222.8819 H   0  0  0  0  0  0  0  0  0  0  0  0
  138.3459   81.0973  222.3651 H   0  0  0  0  0  0  0  0  0  0  0  0
  140.8403   78.2922  224.3713 H   0  0  0  0  0  0  0  0  0  0  0  0
  142.9624   79.4827  224.8009 H   0  0  0  0  0  0  0  0  0  0  0  0
  143.8645   81.1358  223.1848 H   0  0  0  0  0  0  0  0  0  0  0  0
  142.5643   81.5713  221.1080 H   0  0  0  0  0  0  0  0  0  0  0  0
  140.4471   80.3915  220.6737 H   0  0  0  0  0  0  0  0  0  0  0  0
  138.2773   77.0121  221.2968 H   0  0  0  0  0  0  0  0  0  0  0  0
  140.3200   76.3595  223.3312 H   0  0  0  0  0  0  0  0  0  0  0  0
  138.5285   76.1388  223.3492 H   0  0  0  0  0  0  0  0  0  0  0  0
  139.8752   74.0522  222.8195 H   0  0  0  0  0  0  0  0  0  0  0  0
  138.6241   74.5171  221.5963 H   0  0  0  0  0  0  0  0  0  0  0  0
  141.5709   72.7360  222.7559 H   0  0  0  0  0  0  0  0  0  0  0  0
  142.1280   71.4360  220.1030 H   0  0  0  0  0  0  0  0  0  0  0  0
  143.2670   72.0090  221.1910 H   0  0  0  0  0  0  0  0  0  0  0  0
  139.2132   72.5550  221.5605 H   0  0  0  0  0  0  0  0  0  0  0  0
  139.9003   71.0615  220.9158 H   0  0  0  0  0  0  0  0  0  0  0  0
  138.5682   69.5676  222.4666 H   0  0  0  0  0  0  0  0  0  0  0  0
  138.4471   68.6538  224.7673 H   0  0  0  0  0  0  0  0  0  0  0  0
  139.0449   68.7249  227.1122 H   0  0  0  0  0  0  0  0  0  0  0  0
  140.2678   69.8209  228.9755 H   0  0  0  0  0  0  0  0  0  0  0  0
  141.6333   71.8521  228.5702 H   0  0  0  0  0  0  0  0  0  0  0  0
  141.7704   72.7870  226.2748 H   0  0  0  0  0  0  0  0  0  0  0  0
  141.1663   72.7090  223.9269 H   0  0  0  0  0  0  0  0  0  0  0  0
  141.8918   76.1488  220.1286 H   0  0  0  0  0  0  0  0  0  0  0  0
  140.4907   75.5617  219.1171 H   0  0  0  0  0  0  0  0  0  0  0  0
  140.7803   77.9415  220.4330 H   0  0  0  0  0  0  0  0  0  0  0  0
  139.2704   77.1074  219.6621 H   0  0  0  0  0  0  0  0  0  0  0  0
  1  2  1  0
  2  3  1  0
  3  4  2  0
  3  5  1  0
  5  6  1  0
  6  7  2  0
  7  8  1  0
  8  9  2  0
  9 10  1  0
 10 11  2  0
  5 12  1  0
 12 13  1  0
 13 14  1  0
 14 15  1  0
 15 16  1  0
 16 17  2  0
 16 18  1  0
 18 19  1  0
 18 20  1  0
 20 21  1  0
 21 22  2  0
 22 23  1  0
 23 24  2  0
 24 25  1  0
 25 26  2  0
 26 27  1  0
 27 28  2  0
 28 29  1  0
 29 30  2  0
 15 31  1  0
 31 32  1  0
 11  6  1  0
 32 12  1  0
 30 21  1  0
 29 24  1  0
  1 33  1  0
  1 34  1  0
  1 35  1  0
  2 36  1  0
  2 37  1  0
  7 38  1  0
  8 39  1  0
  9 40  1  0
 10 41  1  0
 11 42  1  0
 12 43  1  0
 13 44  1  0
 13 45  1  0
 14 46  1  0
 14 47  1  0
 18 48  1  1
 19 49  1  0
 19 50  1  0
 20 51  1  0
 20 52  1  0
 22 53  1  0
 23 54  1  0
 25 55  1  0
 26 56  1  0
 27 57  1  0
 28 58  1  0
 30 59  1  0
 31 60  1  0
 31 61  1  0
 32 62  1  0
 32 63  1  0
M  END
>  <smiles>  (1) 
CCC(=O)N(c1ccccc1)C1CCN(C(=O)[C@H](N)Cc2ccc3ccccc3c2)CC1

>  <score_type>  (1) 
oracle

>  <origin>  (1) 
autodockgpu

>  <m_score__min__energy>  (1) 
-8.6799999999999997

>  <m_primary>  (1) 
energy

>  <rmsd>  (1) 
5.845138355578416

>  <m_score__min__rmsd>  (1) 
5.845138355578416

>  <meeko>  (1) 
{"free_energy": -8.04, "intermolecular_energy": -10.43, "internal_energy": -2.85, "cluster_size": 34, "cluster_id": 3, "rank_in_cluster": 11}

>  <energy>  (1) 
-8.68

>  <cluster_rmsd>  (1) 
0.0

>  <cluster>  (1) 
1

$$$$

     RDKit          3D

 63 66  0  0  0  0  0  0  0  0999 V2000
  138.0210   80.7760  224.3700 C   0  0  0  0  0  0  0  0  0  0  0  0
  137.8450   80.8200  222.8760 C   0  0  0  0  0  0  0  0  0  0  0  0
  137.9990   79.4840  222.2280 C   0  0  0  0  0  0  0  0  0  0  0  0
  136.9200   78.9870  221.7760 O   0  0  0  0  0  0  0  0  0  0  0  0
  139.2590   78.8180  222.1250 N   0  0  0  0  0  0  0  0  0  0  0  0
  140.4990   79.3740  222.4970 C   0  0  0  0  0  0  0  0  0  0  0  0
  140.9910   79.1830  223.7800 C   0  0  0  0  0  0  0  0  0  0  0  0
  142.2170   79.7260  224.1840 C   0  0  0  0  0  0  0  0  0  0  0  0
  142.9950   80.4730  223.3330 C   0  0  0  0  0  0  0  0  0  0  0  0
  142.5190   80.6670  222.0610 C   0  0  0  0  0  0  0  0  0  0  0  0
  141.2970   80.1270  221.6570 C   0  0  0  0  0  0  0  0  0  0  0  0
  139.2070   77.4490  221.6300 C   0  0  0  0  0  0  0  0  0  0  0  0
  139.3570   76.4390  222.7140 C   0  0  0  0  0  0  0  0  0  0  0  0
  139.4270   75.0340  222.1330 C   0  0  0  0  0  0  0  0  0  0  0  0
  140.3770   74.9570  221.0690 N   0  0  0  0  0  0  0  0  0  0  0  0
  141.1880   73.7700  220.9560 C   0  0  0  0  0  0  0  0  0  0  0  0
  142.0640   73.6740  220.0220 O   0  0  0  0  0  0  0  0  0  0  0  0
  141.0950   72.6160  221.8580 C   0  0  2  0  0  0  0  0  0  0  0  0
  142.0570   71.6270  221.3400 N   0  0  0  0  0  0  0  0  0  0  0  0
  139.7250   71.9740  221.9110 C   0  0  0  0  0  0  0  0  0  0  0  0
  139.6650   71.2740  223.2450 C   0  0  0  0  0  0  0  0  0  0  0  0
  138.9620   70.0990  223.4140 C   0  0  0  0  0  0  0  0  0  0  0  0
  138.9660   69.5340  224.6700 C   0  0  0  0  0  0  0  0  0  0  0  0
  139.6410   70.1010  225.7460 C   0  0  0  0  0  0  0  0  0  0  0  0
  139.6280   69.5140  226.9960 C   0  0  0  0  0  0  0  0  0  0  0  0
  140.3150   70.1080  228.0500 C   0  0  0  0  0  0  0  0  0  0  0  0
  141.0150   71.2840  227.8690 C   0  0  0  0  0  0  0  0  0  0  0  0
  141.0250   71.8670  226.6190 C   0  0  0  0  0  0  0  0  0  0  0  0
  140.3410   71.2840  225.5550 C   0  0  0  0  0  0  0  0  0  0  0  0
  140.3580   71.8810  224.2950 C   0  0  0  0  0  0  0  0  0  0  0  0
  140.6160   75.9700  220.0690 C   0  0  0  0  0  0  0  0  0  0  0  0
  139.9200   77.2280  220.3440 C   0  0  0  0  0  0  0  0  0  0  0  0
  137.0651   81.0150  224.8590 H   0  0  0  0  0  0  0  0  0  0  0  0
  138.3454   79.7691  224.6715 H   0  0  0  0  0  0  0  0  0  0  0  0
  138.7811   81.5118  224.6715 H   0  0  0  0  0  0  0  0  0  0  0  0
  136.8381   81.2030  222.6534 H   0  0  0  0  0  0  0  0  0  0  0  0
  138.6329   81.4728  222.4723 H   0  0  0  0  0  0  0  0  0  0  0  0
  140.4039   78.5907  224.4973 H   0  0  0  0  0  0  0  0  0  0  0  0
  142.5670   79.5494  225.2118 H   0  0  0  0  0  0  0  0  0  0  0  0
  143.9569   80.8968  223.6571 H   0  0  0  0  0  0  0  0  0  0  0  0
  143.1108   81.2585  221.3470 H   0  0  0  0  0  0  0  0  0  0  0  0
  140.9550   80.3083  220.6273 H   0  0  0  0  0  0  0  0  0  0  0  0
  138.1777   77.2602  221.2910 H   0  0  0  0  0  0  0  0  0  0  0  0
  140.2811   76.6448  223.2741 H   0  0  0  0  0  0  0  0  0  0  0  0
  138.4846   76.5033  223.3810 H   0  0  0  0  0  0  0  0  0  0  0  0
  139.7216   74.3324  222.9274 H   0  0  0  0  0  0  0  0  0  0  0  0
  138.4360   74.7754  221.7318 H   0  0  0  0  0  0  0  0  0  0  0  0
  141.3029   72.9561  222.8832 H   0  0  0  0  0  0  0  0  0  0  0  0
  141.8290   71.4590  220.3270 H   0  0  0  0  0  0  0  0  0  0  0  0
  142.9860   72.1180  221.3450 H   0  0  0  0  0  0  0  0  0  0  0  0
  138.9379   72.7393  221.8417 H   0  0  0  0  0  0  0  0  0  0  0  0
  139.5660   71.2773  221.0748 H   0  0  0  0  0  0  0  0  0  0  0  0
  138.4198   69.6319  222.5786 H   0  0  0  0  0  0  0  0  0  0  0  0
  138.4130   68.5964  224.8287 H   0  0  0  0  0  0  0  0  0  0  0  0
  139.0747   68.5772  227.1582 H   0  0  0  0  0  0  0  0  0  0  0  0
  140.3002   69.6335  229.0423 H   0  0  0  0  0  0  0  0  0  0  0  0
  141.5555   71.7481  228.7072 H   0  0  0  0  0  0  0  0  0  0  0  0
  141.5798   72.8035  226.4606 H   0  0  0  0  0  0  0  0  0  0  0  0
  140.9101   72.8180  224.1300 H   0  0  0  0  0  0  0  0  0  0  0  0
  141.6967   76.1706  220.0261 H   0  0  0  0  0  0  0  0  0  0  0  0
  140.2288   75.5844  219.1143 H   0  0  0  0  0  0  0  0  0  0  0  0
  140.6738   78.0251  220.2645 H   0  0  0  0  0  0  0  0  0  0  0  0
  139.0974   77.2113  219.6138 H   0  0  0  0  0  0  0  0  0  0  0  0
  1  2  1  0
  2  3  1  0
  3  4  2  0
  3  5  1  0
  5  6  1  0
  6  7  2  0
  7  8  1  0
  8  9  2  0
  9 10  1  0
 10 11  2  0
  5 12  1  0
 12 13  1  0
 13 14  1  0
 14 15  1  0
 15 16  1  0
 16 17  2  0
 16 18  1  0
 18 19  1  0
 18 20  1  0
 20 21  1  0
 21 22  2  0
 22 23  1  0
 23 24  2  0
 24 25  1  0
 25 26  2  0
 26 27  1  0
 27 28  2  0
 28 29  1  0
 29 30  2  0
 15 31  1  0
 31 32  1  0
 11  6  1  0
 32 12  1  0
 30 21  1  0
 29 24  1  0
  1 33  1  0
  1 34  1  0
  1 35  1  0
  2 36  1  0
  2 37  1  0
  7 38  1  0
  8 39  1  0
  9 40  1  0
 10 41  1  0
 11 42  1  0
 12 43  1  0
 13 44  1  0
 13 45  1  0
 14 46  1  0
 14 47  1  0
 18 48  1  1
 19 49  1  0
 19 50  1  0
 20 51  1  0
 20 52  1  0
 22 53  1  0
 23 54  1  0
 25 55  1  0
 26 56  1  0
 27 57  1  0
 28 58  1  0
 30 59  1  0
 31 60  1  0
 31 61  1  0
 32 62  1  0
 32 63  1  0
M  END
>  <smiles>  (2) 
CCC(=O)N(c1ccccc1)C1CCN(C(=O)[C@H](N)Cc2ccc3ccccc3c2)CC1

>  <score_type>  (2) 
oracle

>  <origin>  (2) 
autodockgpu

>  <m_score__min__energy>  (2) 
-8.6799999999999997

>  <m_primary>  (2) 
energy

>  <rmsd>  (2) 
5.779591765571133

>  <m_score__min__rmsd>  (2) 
5.779591765571133

>  <meeko>  (2) 
{"free_energy": -8.0, "intermolecular_energy": -10.38, "internal_energy": -2.82, "cluster_size": 34, "cluster_id": 3, "rank_in_cluster": 16}

>  <energy>  (2) 
-8.15

>  <cluster_rmsd>  (2) 
1.44

>  <cluster>  (2) 
1

$$$$

     RDKit          3D

 63 66  0  0  0  0  0  0  0  0999 V2000
  143.6580   75.9870  219.6710 C   0  0  0  0  0  0  0  0  0  0  0  0
  142.8510   76.7580  218.6620 C   0  0  0  0  0  0  0  0  0  0  0  0
  142.0280   77.8430  219.2730 C   0  0  0  0  0  0  0  0  0  0  0  0
  141.8810   78.8720  218.5420 O   0  0  0  0  0  0  0  0  0  0  0  0
  141.4530   77.7330  220.5760 N   0  0  0  0  0  0  0  0  0  0  0  0
  141.6750   78.6350  221.6360 C   0  0  0  0  0  0  0  0  0  0  0  0
  141.3620   78.2690  222.9380 C   0  0  0  0  0  0  0  0  0  0  0  0
  141.5640   79.1420  224.0140 C   0  0  0  0  0  0  0  0  0  0  0  0
  142.0820   80.4020  223.8380 C   0  0  0  0  0  0  0  0  0  0  0  0
  142.3960   80.7750  222.5550 C   0  0  0  0  0  0  0  0  0  0  0  0
  142.1950   79.9060  221.4810 C   0  0  0  0  0  0  0  0  0  0  0  0
  140.5470   76.6090  220.7700 C   0  0  0  0  0  0  0  0  0  0  0  0
  141.0760   75.6030  221.7310 C   0  0  0  0  0  0  0  0  0  0  0  0
  140.1580   74.3900  221.8000 C   0  0  0  0  0  0  0  0  0  0  0  0
  139.8400   73.9040  220.4950 N   0  0  0  0  0  0  0  0  0  0  0  0
  139.7570   72.4780  220.2940 C   0  0  0  0  0  0  0  0  0  0  0  0
  139.4900   72.0050  219.1310 O   0  0  0  0  0  0  0  0  0  0  0  0
  139.9630   71.4810  221.3510 C   0  0  2  0  0  0  0  0  0  0  0  0
  140.1280   70.1920  220.6570 N   0  0  0  0  0  0  0  0  0  0  0  0
  138.8130   71.3600  222.3280 C   0  0  0  0  0  0  0  0  0  0  0  0
  139.4500   71.0200  223.6510 C   0  0  0  0  0  0  0  0  0  0  0  0
  140.3300   71.8820  224.2720 C   0  0  0  0  0  0  0  0  0  0  0  0
  140.8610   71.4840  225.4800 C   0  0  0  0  0  0  0  0  0  0  0  0
  140.5430   70.2680  226.0740 C   0  0  0  0  0  0  0  0  0  0  0  0
  141.0900   69.8920  227.2860 C   0  0  0  0  0  0  0  0  0  0  0  0
  140.7500   68.6680  227.8530 C   0  0  0  0  0  0  0  0  0  0  0  0
  139.8680   67.8140  227.2220 C   0  0  0  0  0  0  0  0  0  0  0  0
  139.3240   68.1920  226.0120 C   0  0  0  0  0  0  0  0  0  0  0  0
  139.6570   69.4150  225.4330 C   0  0  0  0  0  0  0  0  0  0  0  0
  139.1010   69.7890  224.2100 C   0  0  0  0  0  0  0  0  0  0  0  0
  139.5860   74.7120  219.3260 C   0  0  0  0  0  0  0  0  0  0  0  0
  139.8800   76.1310  219.5300 C   0  0  0  0  0  0  0  0  0  0  0  0
  143.3518   76.2795  220.6862 H   0  0  0  0  0  0  0  0  0  0  0  0
  143.4857   74.9095  219.5322 H   0  0  0  0  0  0  0  0  0  0  0  0
  144.7265   76.2083  219.5322 H   0  0  0  0  0  0  0  0  0  0  0  0
  143.5409   77.2101  217.9343 H   0  0  0  0  0  0  0  0  0  0  0  0
  142.1568   76.0487  218.1876 H   0  0  0  0  0  0  0  0  0  0  0  0
  140.9453   77.2691  223.1290 H   0  0  0  0  0  0  0  0  0  0  0  0
  141.3004   78.8094  225.0289 H   0  0  0  0  0  0  0  0  0  0  0  0
  142.2383   81.0823  224.6881 H   0  0  0  0  0  0  0  0  0  0  0  0
  142.8132   81.7758  222.3698 H   0  0  0  0  0  0  0  0  0  0  0  0
  142.4615   80.2470  220.4697 H   0  0  0  0  0  0  0  0  0  0  0  0
  139.6639   76.9859  221.3068 H   0  0  0  0  0  0  0  0  0  0  0  0
  142.0755   75.2812  221.4033 H   0  0  0  0  0  0  0  0  0  0  0  0
  141.1311   76.0621  222.7291 H   0  0  0  0  0  0  0  0  0  0  0  0
  140.6605   73.5923  222.3667 H   0  0  0  0  0  0  0  0  0  0  0  0
  139.2231   74.6903  222.2957 H   0  0  0  0  0  0  0  0  0  0  0  0
  140.8320   71.7848  221.9531 H   0  0  0  0  0  0  0  0  0  0  0  0
  139.2300   69.9870  220.1470 H   0  0  0  0  0  0  0  0  0  0  0  0
  140.8440   70.3710  219.9100 H   0  0  0  0  0  0  0  0  0  0  0  0
  138.2646   72.3110  222.3974 H   0  0  0  0  0  0  0  0  0  0  0  0
  138.0865   70.5961  222.0140 H   0  0  0  0  0  0  0  0  0  0  0  0
  140.5974   72.8489  223.8208 H   0  0  0  0  0  0  0  0  0  0  0  0
  141.5644   72.1552  225.9945 H   0  0  0  0  0  0  0  0  0  0  0  0
  141.7944   70.5606  227.8025 H   0  0  0  0  0  0  0  0  0  0  0  0
  141.1903   68.3765  228.8180 H   0  0  0  0  0  0  0  0  0  0  0  0
  139.6033   66.8479  227.6766 H   0  0  0  0  0  0  0  0  0  0  0  0
  138.6198   67.5208  225.4986 H   0  0  0  0  0  0  0  0  0  0  0  0
  138.3960   69.1223  223.6919 H   0  0  0  0  0  0  0  0  0  0  0  0
  140.2122   74.3404  218.5016 H   0  0  0  0  0  0  0  0  0  0  0  0
  138.5127   74.6302  219.0995 H   0  0  0  0  0  0  0  0  0  0  0  0
  140.5218   76.4400  218.6918 H   0  0  0  0  0  0  0  0  0  0  0  0
  138.8766   76.5743  219.6114 H   0  0  0  0  0  0  0  0  0  0  0  0
  1  2  1  0
  2  3  1  0
  3  4  2  0
  3  5  1  0
  5  6  1  0
  6  7  2  0
  7  8  1  0
  8  9  2  0
  9 10  1  0
 10 11  2  0
  5 12  1  0
 12 13  1  0
 13 14  1  0
 14 15  1  0
 15 16  1  0
 16 17  2  0
 16 18  1  0
 18 19  1  0
 18 20  1  0
 20 21  1  0
 21 22  2  0
 22 23  1  0
 23 24  2  0
 24 25  1  0
 25 26  2  0
 26 27  1  0
 27 28  2  0
 28 29  1  0
 29 30  2  0
 15 31  1  0
 31 32  1  0
 11  6  1  0
 32 12  1  0
 30 21  1  0
 29 24  1  0
  1 33  1  0
  1 34  1  0
  1 35  1  0
  2 36  1  0
  2 37  1  0
  7 38  1  0
  8 39  1  0
  9 40  1  0
 10 41  1  0
 11 42  1  0
 12 43  1  0
 13 44  1  0
 13 45  1  0
 14 46  1  0
 14 47  1  0
 18 48  1  1
 19 49  1  0
 19 50  1  0
 20 51  1  0
 20 52  1  0
 22 53  1  0
 23 54  1  0
 25 55  1  0
 26 56  1  0
 27 57  1  0
 28 58  1  0
 30 59  1  0
 31 60  1  0
 31 61  1  0
 32 62  1  0
 32 63  1  0
M  END
>  <smiles>  (3) 
CCC(=O)N(c1ccccc1)C1CCN(C(=O)[C@H](N)Cc2ccc3ccccc3c2)CC1

>  <score_type>  (3) 
oracle

>  <origin>  (3) 
autodockgpu

>  <m_score__min__energy>  (3) 
-8.6799999999999997

>  <m_primary>  (3) 
energy

>  <rmsd>  (3) 
6.530828650940721

>  <m_score__min__rmsd>  (3) 
6.530828650940721

>  <meeko>  (3) 
{"free_energy": -8.06, "intermolecular_energy": -10.45, "internal_energy": -2.58, "cluster_size": 14, "cluster_id": 1, "rank_in_cluster": 4}

>  <energy>  (3) 
-8.1

>  <cluster_rmsd>  (3) 
1.99

>  <cluster>  (3) 
1

$$$$

     RDKit          3D

 63 66  0  0  0  0  0  0  0  0999 V2000
  142.2070   80.3020  218.9470 C   0  0  0  0  0  0  0  0  0  0  0  0
  141.9400   78.8840  218.5200 C   0  0  0  0  0  0  0  0  0  0  0  0
  142.1950   77.8870  219.6010 C   0  0  0  0  0  0  0  0  0  0  0  0
  143.1460   77.0790  219.3630 O   0  0  0  0  0  0  0  0  0  0  0  0
  141.4290   77.8450  220.8070 N   0  0  0  0  0  0  0  0  0  0  0  0
  141.4490   78.8330  221.8120 C   0  0  0  0  0  0  0  0  0  0  0  0
  140.2580   79.3290  222.3240 C   0  0  0  0  0  0  0  0  0  0  0  0
  140.2420   80.3140  223.3180 C   0  0  0  0  0  0  0  0  0  0  0  0
  141.3990   80.8400  223.8380 C   0  0  0  0  0  0  0  0  0  0  0  0
  142.5840   80.3560  223.3400 C   0  0  0  0  0  0  0  0  0  0  0  0
  142.6020   79.3740  222.3490 C   0  0  0  0  0  0  0  0  0  0  0  0
  140.5460   76.6960  220.9500 C   0  0  0  0  0  0  0  0  0  0  0  0
  141.0560   75.6970  221.9290 C   0  0  0  0  0  0  0  0  0  0  0  0
  140.1690   74.4600  221.9460 C   0  0  0  0  0  0  0  0  0  0  0  0
  139.9260   73.9750  220.6240 N   0  0  0  0  0  0  0  0  0  0  0  0
  139.8920   72.5490  220.4110 C   0  0  0  0  0  0  0  0  0  0  0  0
  139.6940   72.0770  219.2330 O   0  0  0  0  0  0  0  0  0  0  0  0
  140.0750   71.5490  221.4700 C   0  0  2  0  0  0  0  0  0  0  0  0
  140.2280   70.2580  220.7770 N   0  0  0  0  0  0  0  0  0  0  0  0
  138.9140   71.4450  222.4360 C   0  0  0  0  0  0  0  0  0  0  0  0
  139.5300   71.0520  223.7550 C   0  0  0  0  0  0  0  0  0  0  0  0
  140.4390   71.8650  224.3990 C   0  0  0  0  0  0  0  0  0  0  0  0
  140.9470   71.4200  225.6010 C   0  0  0  0  0  0  0  0  0  0  0  0
  140.5790   70.2040  226.1660 C   0  0  0  0  0  0  0  0  0  0  0  0
  141.1040   69.7810  227.3710 C   0  0  0  0  0  0  0  0  0  0  0  0
  140.7130   68.5580  227.9090 C   0  0  0  0  0  0  0  0  0  0  0  0
  139.8030   67.7530  227.2550 C   0  0  0  0  0  0  0  0  0  0  0  0
  139.2810   68.1790  226.0510 C   0  0  0  0  0  0  0  0  0  0  0  0
  139.6640   69.4000  225.5010 C   0  0  0  0  0  0  0  0  0  0  0  0
  139.1300   69.8230  224.2840 C   0  0  0  0  0  0  0  0  0  0  0  0
  139.7070   74.7840  219.4490 C   0  0  0  0  0  0  0  0  0  0  0  0
  139.9510   76.2090  219.6760 C   0  0  0  0  0  0  0  0  0  0  0  0
  142.2176   80.3583  220.0455 H   0  0  0  0  0  0  0  0  0  0  0  0
  143.1819   80.6259  218.5538 H   0  0  0  0  0  0  0  0  0  0  0  0
  141.4167   80.9583  218.5538 H   0  0  0  0  0  0  0  0  0  0  0  0
  140.8871   78.8040  218.2118 H   0  0  0  0  0  0  0  0  0  0  0  0
  142.6304   78.6554  217.6947 H   0  0  0  0  0  0  0  0  0  0  0  0
  139.3042   78.9386  221.9394 H   0  0  0  0  0  0  0  0  0  0  0  0
  139.2742   80.6776  223.6938 H   0  0  0  0  0  0  0  0  0  0  0  0
  141.3777   81.6146  224.6187 H   0  0  0  0  0  0  0  0  0  0  0  0
  143.5348   80.7492  223.7290 H   0  0  0  0  0  0  0  0  0  0  0  0
  143.5742   79.0155  221.9797 H   0  0  0  0  0  0  0  0  0  0  0  0
  139.6285   77.0456  221.4459 H   0  0  0  0  0  0  0  0  0  0  0  0
  142.0783   75.4046  221.6473 H   0  0  0  0  0  0  0  0  0  0  0  0
  141.0514   76.1496  222.9315 H   0  0  0  0  0  0  0  0  0  0  0  0
  140.6653   73.6716  222.5309 H   0  0  0  0  0  0  0  0  0  0  0  0
  139.2038   74.7321  222.3980 H   0  0  0  0  0  0  0  0  0  0  0  0
  140.9429   71.8397  222.0801 H   0  0  0  0  0  0  0  0  0  0  0  0
  139.3420   70.0780  220.2390 H   0  0  0  0  0  0  0  0  0  0  0  0
  140.9730   70.4190  220.0550 H   0  0  0  0  0  0  0  0  0  0  0  0
  138.3981   72.4125  222.5244 H   0  0  0  0  0  0  0  0  0  0  0  0
  138.1636   70.7146  222.0992 H   0  0  0  0  0  0  0  0  0  0  0  0
  140.7466   72.8303  223.9706 H   0  0  0  0  0  0  0  0  0  0  0  0
  141.6723   72.0521  226.1342 H   0  0  0  0  0  0  0  0  0  0  0  0
  141.8309   70.4101  227.9056 H   0  0  0  0  0  0  0  0  0  0  0  0
  141.1357   68.2286  228.8696 H   0  0  0  0  0  0  0  0  0  0  0  0
  139.4988   66.7879  227.6863 H   0  0  0  0  0  0  0  0  0  0  0  0
  138.5542   67.5472  225.5194 H   0  0  0  0  0  0  0  0  0  0  0  0
  138.4026   69.1962  223.7473 H   0  0  0  0  0  0  0  0  0  0  0  0
  140.3829   74.4359  218.6541 H   0  0  0  0  0  0  0  0  0  0  0  0
  138.6488   74.6742  219.1694 H   0  0  0  0  0  0  0  0  0  0  0  0
  140.6223   76.5424  218.8709 H   0  0  0  0  0  0  0  0  0  0  0  0
  138.9328   76.6235  219.7132 H   0  0  0  0  0  0  0  0  0  0  0  0
  1  2  1  0
  2  3  1  0
  3  4  2  0
  3  5  1  0
  5  6  1  0
  6  7  2  0
  7  8  1  0
  8  9  2  0
  9 10  1  0
 10 11  2  0
  5 12  1  0
 12 13  1  0
 13 14  1  0
 14 15  1  0
 15 16  1  0
 16 17  2  0
 16 18  1  0
 18 19  1  0
 18 20  1  0
 20 21  1  0
 21 22  2  0
 22 23  1  0
 23 24  2  0
 24 25  1  0
 25 26  2  0
 26 27  1  0
 27 28  2  0
 28 29  1  0
 29 30  2  0
 15 31  1  0
 31 32  1  0
 11  6  1  0
 32 12  1  0
 30 21  1  0
 29 24  1  0
  1 33  1  0
  1 34  1  0
  1 35  1  0
  2 36  1  0
  2 37  1  0
  7 38  1  0
  8 39  1  0
  9 40  1  0
 10 41  1  0
 11 42  1  0
 12 43  1  0
 13 44  1  0
 13 45  1  0
 14 46  1  0
 14 47  1  0
 18 48  1  1
 19 49  1  0
 19 50  1  0
 20 51  1  0
 20 52  1  0
 22 53  1  0
 23 54  1  0
 25 55  1  0
 26 56  1  0
 27 57  1  0
 28 58  1  0
 30 59  1  0
 31 60  1  0
 31 61  1  0
 32 62  1  0
 32 63  1  0
M  END
>  <smiles>  (4) 
CCC(=O)N(c1ccccc1)C1CCN(C(=O)[C@H](N)Cc2ccc3ccccc3c2)CC1

>  <score_type>  (4) 
oracle

>  <origin>  (4) 
autodockgpu

>  <m_score__min__energy>  (4) 
-8.6799999999999997

>  <m_primary>  (4) 
energy

>  <rmsd>  (4) 
6.495452985185902

>  <m_score__min__rmsd>  (4) 
6.495452985185902

>  <meeko>  (4) 
{"free_energy": -7.82, "intermolecular_energy": -10.2, "internal_energy": -2.77, "cluster_size": 14, "cluster_id": 1, "rank_in_cluster": 11}

>  <energy>  (4) 
-8.06

>  <cluster_rmsd>  (4) 
1.55

>  <cluster>  (4) 
1

$$$$

     RDKit          3D

 63 66  0  0  0  0  0  0  0  0999 V2000
  138.0180   80.6480  224.3120 C   0  0  0  0  0  0  0  0  0  0  0  0
  137.7170   80.7180  222.8390 C   0  0  0  0  0  0  0  0  0  0  0  0
  137.9100   79.4150  222.1370 C   0  0  0  0  0  0  0  0  0  0  0  0
  136.8550   78.9290  221.6230 O   0  0  0  0  0  0  0  0  0  0  0  0
  139.1800   78.7660  222.0530 N   0  0  0  0  0  0  0  0  0  0  0  0
  140.4110   79.3480  222.4180 C   0  0  0  0  0  0  0  0  0  0  0  0
  141.0200   80.2720  221.5810 C   0  0  0  0  0  0  0  0  0  0  0  0
  142.2440   80.8650  221.9100 C   0  0  0  0  0  0  0  0  0  0  0  0
  142.9050   80.5660  223.0770 C   0  0  0  0  0  0  0  0  0  0  0  0
  142.3110   79.6540  223.9140 C   0  0  0  0  0  0  0  0  0  0  0  0
  141.0910   79.0620  223.5870 C   0  0  0  0  0  0  0  0  0  0  0  0
  139.1520   77.3880  221.5830 C   0  0  0  0  0  0  0  0  0  0  0  0
  139.3220   76.4010  222.6850 C   0  0  0  0  0  0  0  0  0  0  0  0
  139.4160   74.9870  222.1300 C   0  0  0  0  0  0  0  0  0  0  0  0
  140.3650   74.9070  221.0660 N   0  0  0  0  0  0  0  0  0  0  0  0
  141.1970   73.7330  220.9730 C   0  0  0  0  0  0  0  0  0  0  0  0
  142.0730   73.6340  220.0400 O   0  0  0  0  0  0  0  0  0  0  0  0
  141.1250   72.5930  221.8960 C   0  0  2  0  0  0  0  0  0  0  0  0
  142.0710   71.5940  221.3700 N   0  0  0  0  0  0  0  0  0  0  0  0
  139.7560   71.9570  221.9960 C   0  0  0  0  0  0  0  0  0  0  0  0
  139.7520   71.2290  223.3170 C   0  0  0  0  0  0  0  0  0  0  0  0
  139.1520   69.9950  223.4600 C   0  0  0  0  0  0  0  0  0  0  0  0
  139.2000   69.4080  224.7060 C   0  0  0  0  0  0  0  0  0  0  0  0
  139.8190   70.0110  225.7950 C   0  0  0  0  0  0  0  0  0  0  0  0
  139.8530   69.4010  227.0340 C   0  0  0  0  0  0  0  0  0  0  0  0
  140.4820   70.0320  228.1030 C   0  0  0  0  0  0  0  0  0  0  0  0
  141.0780   71.2670  227.9480 C   0  0  0  0  0  0  0  0  0  0  0  0
  141.0430   71.8730  226.7090 C   0  0  0  0  0  0  0  0  0  0  0  0
  140.4160   71.2530  225.6300 C   0  0  0  0  0  0  0  0  0  0  0  0
  140.3850   71.8730  224.3810 C   0  0  0  0  0  0  0  0  0  0  0  0
  140.5840   75.9050  220.0470 C   0  0  0  0  0  0  0  0  0  0  0  0
  139.8670   77.1560  220.2990 C   0  0  0  0  0  0  0  0  0  0  0  0
  137.1027   80.8609  224.8838 H   0  0  0  0  0  0  0  0  0  0  0  0
  138.3822   79.6412  224.5644 H   0  0  0  0  0  0  0  0  0  0  0  0
  138.7891   81.3908  224.5644 H   0  0  0  0  0  0  0  0  0  0  0  0
  136.6709   81.0328  222.7105 H   0  0  0  0  0  0  0  0  0  0  0  0
  138.4220   81.4362  222.3950 H   0  0  0  0  0  0  0  0  0  0  0  0
  140.5285   80.5451  220.6355 H   0  0  0  0  0  0  0  0  0  0  0  0
  142.6898   81.5913  221.2145 H   0  0  0  0  0  0  0  0  0  0  0  0
  143.8669   81.0362  223.3293 H   0  0  0  0  0  0  0  0  0  0  0  0
  142.8059   79.3855  224.8590 H   0  0  0  0  0  0  0  0  0  0  0  0
  140.6518   78.3375  224.2886 H   0  0  0  0  0  0  0  0  0  0  0  0
  138.1258   77.1748  221.2490 H   0  0  0  0  0  0  0  0  0  0  0  0
  140.2433   76.6335  223.2392 H   0  0  0  0  0  0  0  0  0  0  0  0
  138.4498   76.4620  223.3525 H   0  0  0  0  0  0  0  0  0  0  0  0
  139.7244   74.3057  222.9366 H   0  0  0  0  0  0  0  0  0  0  0  0
  138.4290   74.7035  221.7357 H   0  0  0  0  0  0  0  0  0  0  0  0
  141.3606   72.9485  222.9100 H   0  0  0  0  0  0  0  0  0  0  0  0
  141.8220   71.4180  220.3630 H   0  0  0  0  0  0  0  0  0  0  0  0
  143.0030   72.0790  221.3520 H   0  0  0  0  0  0  0  0  0  0  0  0
  138.9709   72.7272  221.9780 H   0  0  0  0  0  0  0  0  0  0  0  0
  139.5557   71.2792  221.1531 H   0  0  0  0  0  0  0  0  0  0  0  0
  138.6550   69.4993  222.6131 H   0  0  0  0  0  0  0  0  0  0  0  0
  138.7298   68.4232  224.8443 H   0  0  0  0  0  0  0  0  0  0  0  0
  139.3829   68.4166  227.1756 H   0  0  0  0  0  0  0  0  0  0  0  0
  140.5045   69.5391  229.0861 H   0  0  0  0  0  0  0  0  0  0  0  0
  141.5726   71.7599  228.7979 H   0  0  0  0  0  0  0  0  0  0  0  0
  141.5154   72.8568  226.5714 H   0  0  0  0  0  0  0  0  0  0  0  0
  140.8538   72.8576  224.2364 H   0  0  0  0  0  0  0  0  0  0  0  0
  141.6610   76.1235  219.9979 H   0  0  0  0  0  0  0  0  0  0  0  0
  140.2011   75.4946  219.1010 H   0  0  0  0  0  0  0  0  0  0  0  0
  140.6068   77.9644  220.2034 H   0  0  0  0  0  0  0  0  0  0  0  0
  139.0442   77.1123  219.5703 H   0  0  0  0  0  0  0  0  0  0  0  0
  1  2  1  0
  2  3  1  0
  3  4  2  0
  3  5  1  0
  5  6  1  0
  6  7  2  0
  7  8  1  0
  8  9  2  0
  9 10  1  0
 10 11  2  0
  5 12  1  0
 12 13  1  0
 13 14  1  0
 14 15  1  0
 15 16  1  0
 16 17  2  0
 16 18  1  0
 18 19  1  0
 18 20  1  0
 20 21  1  0
 21 22  2  0
 22 23  1  0
 23 24  2  0
 24 25  1  0
 25 26  2  0
 26 27  1  0
 27 28  2  0
 28 29  1  0
 29 30  2  0
 15 31  1  0
 31 32  1  0
 11  6  1  0
 32 12  1  0
 30 21  1  0
 29 24  1  0
  1 33  1  0
  1 34  1  0
  1 35  1  0
  2 36  1  0
  2 37  1  0
  7 38  1  0
  8 39  1  0
  9 40  1  0
 10 41  1  0
 11 42  1  0
 12 43  1  0
 13 44  1  0
 13 45  1  0
 14 46  1  0
 14 47  1  0
 18 48  1  1
 19 49  1  0
 19 50  1  0
 20 51  1  0
 20 52  1  0
 22 53  1  0
 23 54  1  0
 25 55  1  0
 26 56  1  0
 27 57  1  0
 28 58  1  0
 30 59  1  0
 31 60  1  0
 31 61  1  0
 32 62  1  0
 32 63  1  0
M  END
>  <smiles>  (5) 
CCC(=O)N(c1ccccc1)C1CCN(C(=O)[C@H](N)Cc2ccc3ccccc3c2)CC1

>  <score_type>  (5) 
oracle

>  <origin>  (5) 
autodockgpu

>  <m_score__min__energy>  (5) 
-8.6799999999999997

>  <m_primary>  (5) 
energy

>  <rmsd>  (5) 
5.832130543505504

>  <m_score__min__rmsd>  (5) 
5.832130543505504

>  <meeko>  (5) 
{"free_energy": -7.96, "intermolecular_energy": -10.35, "internal_energy": -2.8, "cluster_size": 34, "cluster_id": 3, "rank_in_cluster": 23}

>  <energy>  (5) 
-8.02

>  <cluster_rmsd>  (5) 
1.61

>  <cluster>  (5) 
1

$$$$

     RDKit          3D

 63 66  0  0  0  0  0  0  0  0999 V2000
  137.9650   81.5240  223.1530 C   0  0  0  0  0  0  0  0  0  0  0  0
  137.8050   80.1330  223.7030 C   0  0  0  0  0  0  0  0  0  0  0  0
  138.0030   79.0680  222.6750 C   0  0  0  0  0  0  0  0  0  0  0  0
  136.9300   78.6150  222.1680 O   0  0  0  0  0  0  0  0  0  0  0  0
  139.2970   78.5970  222.2950 N   0  0  0  0  0  0  0  0  0  0  0  0
  140.5030   79.2970  222.4940 C   0  0  0  0  0  0  0  0  0  0  0  0
  141.2830   79.0380  223.6130 C   0  0  0  0  0  0  0  0  0  0  0  0
  142.4830   79.7200  223.8450 C   0  0  0  0  0  0  0  0  0  0  0  0
  142.9520   80.6780  222.9790 C   0  0  0  0  0  0  0  0  0  0  0  0
  142.1900   80.9420  221.8680 C   0  0  0  0  0  0  0  0  0  0  0  0
  140.9930   80.2640  221.6360 C   0  0  0  0  0  0  0  0  0  0  0  0
  139.3300   77.2710  221.6930 C   0  0  0  0  0  0  0  0  0  0  0  0
  139.4220   76.1820  222.7050 C   0  0  0  0  0  0  0  0  0  0  0  0
  139.5850   74.8300  222.0250 C   0  0  0  0  0  0  0  0  0  0  0  0
  140.6220   74.8620  221.0430 N   0  0  0  0  0  0  0  0  0  0  0  0
  141.4770   73.7090  220.9090 C   0  0  0  0  0  0  0  0  0  0  0  0
  142.4300   73.7090  220.0480 O   0  0  0  0  0  0  0  0  0  0  0  0
  141.3460   72.4840  221.7070 C   0  0  2  0  0  0  0  0  0  0  0  0
  142.2480   71.5020  221.0820 N   0  0  0  0  0  0  0  0  0  0  0  0
  139.9470   71.9050  221.7370 C   0  0  0  0  0  0  0  0  0  0  0  0
  139.8170   71.2520  223.0890 C   0  0  0  0  0  0  0  0  0  0  0  0
  139.0510   70.1180  223.2740 C   0  0  0  0  0  0  0  0  0  0  0  0
  138.9930   69.5940  224.5470 C   0  0  0  0  0  0  0  0  0  0  0  0
  139.6650   70.1610  225.6230 C   0  0  0  0  0  0  0  0  0  0  0  0
  139.5900   69.6160  226.8900 C   0  0  0  0  0  0  0  0  0  0  0  0
  140.2760   70.2090  227.9450 C   0  0  0  0  0  0  0  0  0  0  0  0
  141.0380   71.3430  227.7480 C   0  0  0  0  0  0  0  0  0  0  0  0
  141.1120   71.8850  226.4820 C   0  0  0  0  0  0  0  0  0  0  0  0
  140.4290   71.3020  225.4170 C   0  0  0  0  0  0  0  0  0  0  0  0
  140.5090   71.8570  224.1400 C   0  0  0  0  0  0  0  0  0  0  0  0
  140.9100   75.9570  220.1480 C   0  0  0  0  0  0  0  0  0  0  0  0
  140.1540   77.1710  220.4590 C   0  0  0  0  0  0  0  0  0  0  0  0
  138.0473   82.2397  223.9842 H   0  0  0  0  0  0  0  0  0  0  0  0
  138.8746   81.5721  222.5363 H   0  0  0  0  0  0  0  0  0  0  0  0
  137.0901   81.7773  222.5363 H   0  0  0  0  0  0  0  0  0  0  0  0
  138.5438   79.9868  224.5047 H   0  0  0  0  0  0  0  0  0  0  0  0
  136.7725   80.0438  224.0717 H   0  0  0  0  0  0  0  0  0  0  0  0
  140.9496   78.2781  224.3351 H   0  0  0  0  0  0  0  0  0  0  0  0
  143.0672   79.4823  224.7462 H   0  0  0  0  0  0  0  0  0  0  0  0
  143.8962   81.2099  223.1675 H   0  0  0  0  0  0  0  0  0  0  0  0
  142.5292   81.7014  221.1481 H   0  0  0  0  0  0  0  0  0  0  0  0
  140.4150   80.5090  220.7328 H   0  0  0  0  0  0  0  0  0  0  0  0
  138.3390   77.0840  221.2537 H   0  0  0  0  0  0  0  0  0  0  0  0
  140.2894   76.3660  223.3560 H   0  0  0  0  0  0  0  0  0  0  0  0
  138.4959   76.1707  223.2985 H   0  0  0  0  0  0  0  0  0  0  0  0
  139.8350   74.0750  222.7849 H   0  0  0  0  0  0  0  0  0  0  0  0
  138.6395   74.5794  221.5219 H   0  0  0  0  0  0  0  0  0  0  0  0
  141.5909   72.7207  222.7529 H   0  0  0  0  0  0  0  0  0  0  0  0
  142.0350   71.4830  220.0520 H   0  0  0  0  0  0  0  0  0  0  0  0
  143.2090   71.9170  221.1660 H   0  0  0  0  0  0  0  0  0  0  0  0
  139.1975   72.7016  221.6200 H   0  0  0  0  0  0  0  0  0  0  0  0
  139.7811   71.1897  220.9179 H   0  0  0  0  0  0  0  0  0  0  0  0
  138.5087   69.6516  222.4383 H   0  0  0  0  0  0  0  0  0  0  0  0
  138.3902   68.6900  224.7185 H   0  0  0  0  0  0  0  0  0  0  0  0
  138.9874   68.7125  227.0649 H   0  0  0  0  0  0  0  0  0  0  0  0
  140.2103   69.7679  228.9506 H   0  0  0  0  0  0  0  0  0  0  0  0
  141.5774   71.8068  228.5870 H   0  0  0  0  0  0  0  0  0  0  0  0
  141.7170   72.7877  226.3113 H   0  0  0  0  0  0  0  0  0  0  0  0
  141.1103   72.7609  223.9629 H   0  0  0  0  0  0  0  0  0  0  0  0
  141.9836   76.1878  220.2123 H   0  0  0  0  0  0  0  0  0  0  0  0
  140.6152   75.6387  219.1372 H   0  0  0  0  0  0  0  0  0  0  0  0
  140.8861   77.9907  220.5058 H   0  0  0  0  0  0  0  0  0  0  0  0
  139.3958   77.1916  219.6624 H   0  0  0  0  0  0  0  0  0  0  0  0
  1  2  1  0
  2  3  1  0
  3  4  2  0
  3  5  1  0
  5  6  1  0
  6  7  2  0
  7  8  1  0
  8  9  2  0
  9 10  1  0
 10 11  2  0
  5 12  1  0
 12 13  1  0
 13 14  1  0
 14 15  1  0
 15 16  1  0
 16 17  2  0
 16 18  1  0
 18 19  1  0
 18 20  1  0
 20 21  1  0
 21 22  2  0
 22 23  1  0
 23 24  2  0
 24 25  1  0
 25 26  2  0
 26 27  1  0
 27 28  2  0
 28 29  1  0
 29 30  2  0
 15 31  1  0
 31 32  1  0
 11  6  1  0
 32 12  1  0
 30 21  1  0
 29 24  1  0
  1 33  1  0
  1 34  1  0
  1 35  1  0
  2 36  1  0
  2 37  1  0
  7 38  1  0
  8 39  1  0
  9 40  1  0
 10 41  1  0
 11 42  1  0
 12 43  1  0
 13 44  1  0
 13 45  1  0
 14 46  1  0
 14 47  1  0
 18 48  1  1
 19 49  1  0
 19 50  1  0
 20 51  1  0
 20 52  1  0
 22 53  1  0
 23 54  1  0
 25 55  1  0
 26 56  1  0
 27 57  1  0
 28 58  1  0
 30 59  1  0
 31 60  1  0
 31 61  1  0
 32 62  1  0
 32 63  1  0
M  END
>  <smiles>  (6) 
CCC(=O)N(c1ccccc1)C1CCN(C(=O)[C@H](N)Cc2ccc3ccccc3c2)CC1

>  <score_type>  (6) 
oracle

>  <origin>  (6) 
autodockgpu

>  <m_score__min__energy>  (6) 
-8.6799999999999997

>  <m_primary>  (6) 
energy

>  <rmsd>  (6) 
5.801922108646375

>  <m_score__min__rmsd>  (6) 
5.801922108646375

>  <meeko>  (6) 
{"free_energy": -7.98, "intermolecular_energy": -10.37, "internal_energy": -2.76, "cluster_size": 34, "cluster_id": 3, "rank_in_cluster": 21}

>  <energy>  (6) 
-8.01

>  <cluster_rmsd>  (6) 
1.44

>  <cluster>  (6) 
1

$$$$

     RDKit          3D

 63 66  0  0  0  0  0  0  0  0999 V2000
  145.1530   73.8770  220.5520 C   0  0  0  0  0  0  0  0  0  0  0  0
  143.6710   73.6510  220.4280 C   0  0  0  0  0  0  0  0  0  0  0  0
  142.9200   74.8800  220.0370 C   0  0  0  0  0  0  0  0  0  0  0  0
  143.4500   75.5480  219.0960 O   0  0  0  0  0  0  0  0  0  0  0  0
  141.7020   75.2740  220.6730 N   0  0  0  0  0  0  0  0  0  0  0  0
  141.4240   76.5690  221.1530 C   0  0  0  0  0  0  0  0  0  0  0  0
  141.8280   77.6820  220.4290 C   0  0  0  0  0  0  0  0  0  0  0  0
  141.5730   78.9830  220.8800 C   0  0  0  0  0  0  0  0  0  0  0  0
  140.9110   79.2250  222.0590 C   0  0  0  0  0  0  0  0  0  0  0  0
  140.5050   78.1320  222.7830 C   0  0  0  0  0  0  0  0  0  0  0  0
  140.7580   76.8350  222.3350 C   0  0  0  0  0  0  0  0  0  0  0  0
  140.6850   74.2370  220.7780 C   0  0  0  0  0  0  0  0  0  0  0  0
  140.9180   73.3170  221.9250 C   0  0  0  0  0  0  0  0  0  0  0  0
  139.9070   72.1790  221.9150 C   0  0  0  0  0  0  0  0  0  0  0  0
  139.8260   71.5660  220.6270 N   0  0  0  0  0  0  0  0  0  0  0  0
  139.6670   70.1350  220.5560 C   0  0  0  0  0  0  0  0  0  0  0  0
  139.6080   69.5480  219.4160 O   0  0  0  0  0  0  0  0  0  0  0  0
  139.5660   69.2540  221.7260 C   0  0  2  0  0  0  0  0  0  0  0  0
  139.3560   67.8990  221.1890 N   0  0  0  0  0  0  0  0  0  0  0  0
  138.4220   69.5870  222.6600 C   0  0  0  0  0  0  0  0  0  0  0  0
  139.0080   69.5140  224.0480 C   0  0  0  0  0  0  0  0  0  0  0  0
  138.9850   68.3460  224.7810 C   0  0  0  0  0  0  0  0  0  0  0  0
  139.5460   68.3780  226.0400 C   0  0  0  0  0  0  0  0  0  0  0  0
  140.1170   69.5260  226.5780 C   0  0  0  0  0  0  0  0  0  0  0  0
  140.6720   69.5310  227.8430 C   0  0  0  0  0  0  0  0  0  0  0  0
  141.2370   70.6970  228.3490 C   0  0  0  0  0  0  0  0  0  0  0  0
  141.2540   71.8600  227.6060 C   0  0  0  0  0  0  0  0  0  0  0  0
  140.6980   71.8510  226.3430 C   0  0  0  0  0  0  0  0  0  0  0  0
  140.1290   70.6900  225.8230 C   0  0  0  0  0  0  0  0  0  0  0  0
  139.5710   70.6910  224.5450 C   0  0  0  0  0  0  0  0  0  0  0  0
  139.8880   72.2480  219.3570 C   0  0  0  0  0  0  0  0  0  0  0  0
  140.2510   73.6610  219.4770 C   0  0  0  0  0  0  0  0  0  0  0  0
  145.4297   73.9192  221.6158 H   0  0  0  0  0  0  0  0  0  0  0  0
  145.6919   73.0507  220.0654 H   0  0  0  0  0  0  0  0  0  0  0  0
  145.4211   74.8264  220.0654 H   0  0  0  0  0  0  0  0  0  0  0  0
  143.4978   72.8778  219.6650 H   0  0  0  0  0  0  0  0  0  0  0  0
  143.3030   73.3439  221.4181 H   0  0  0  0  0  0  0  0  0  0  0  0
  142.3615   77.5387  219.4778 H   0  0  0  0  0  0  0  0  0  0  0  0
  141.9124   79.8352  220.2730 H   0  0  0  0  0  0  0  0  0  0  0  0
  140.7149   80.2497  222.4075 H   0  0  0  0  0  0  0  0  0  0  0  0
  139.9709   78.2811  223.7330 H   0  0  0  0  0  0  0  0  0  0  0  0
  140.4132   75.9890  222.9477 H   0  0  0  0  0  0  0  0  0  0  0  0
  139.7448   74.7264  221.0723 H   0  0  0  0  0  0  0  0  0  0  0  0
  141.9330   72.8991  221.8525 H   0  0  0  0  0  0  0  0  0  0  0  0
  140.8047   73.8830  222.8614 H   0  0  0  0  0  0  0  0  0  0  0  0
  140.2121   71.4225  222.6530 H   0  0  0  0  0  0  0  0  0  0  0  0
  138.9184   72.5915  222.1653 H   0  0  0  0  0  0  0  0  0  0  0  0
  140.4808   69.3644  222.3268 H   0  0  0  0  0  0  0  0  0  0  0  0
  138.5270   67.9370  220.5420 H   0  0  0  0  0  0  0  0  0  0  0  0
  140.1880   67.7140  220.5750 H   0  0  0  0  0  0  0  0  0  0  0  0
  138.0395   70.5980  222.4558 H   0  0  0  0  0  0  0  0  0  0  0  0
  137.5757   68.8955  222.5350 H   0  0  0  0  0  0  0  0  0  0  0  0
  138.5371   67.4259  224.3774 H   0  0  0  0  0  0  0  0  0  0  0  0
  139.5417   67.4582  226.6432 H   0  0  0  0  0  0  0  0  0  0  0  0
  140.6671   68.6135  228.4498 H   0  0  0  0  0  0  0  0  0  0  0  0
  141.6772   70.6921  229.3571 H   0  0  0  0  0  0  0  0  0  0  0  0
  141.7028   72.7779  228.0134 H   0  0  0  0  0  0  0  0  0  0  0  0
  140.7040   72.7708  225.7398 H   0  0  0  0  0  0  0  0  0  0  0  0
  139.5744   71.6073  223.9363 H   0  0  0  0  0  0  0  0  0  0  0  0
  140.6381   71.7468  218.7276 H   0  0  0  0  0  0  0  0  0  0  0  0
  138.8818   72.2060  218.9146 H   0  0  0  0  0  0  0  0  0  0  0  0
  141.0757   73.8323  218.7695 H   0  0  0  0  0  0  0  0  0  0  0  0
  139.2932   74.1709  219.2966 H   0  0  0  0  0  0  0  0  0  0  0  0
  1  2  1  0
  2  3  1  0
  3  4  2  0
  3  5  1  0
  5  6  1  0
  6  7  2  0
  7  8  1  0
  8  9  2  0
  9 10  1  0
 10 11  2  0
  5 12  1  0
 12 13  1  0
 13 14  1  0
 14 15  1  0
 15 16  1  0
 16 17  2  0
 16 18  1  0
 18 19  1  0
 18 20  1  0
 20 21  1  0
 21 22  2  0
 22 23  1  0
 23 24  2  0
 24 25  1  0
 25 26  2  0
 26 27  1  0
 27 28  2  0
 28 29  1  0
 29 30  2  0
 15 31  1  0
 31 32  1  0
 11  6  1  0
 32 12  1  0
 30 21  1  0
 29 24  1  0
  1 33  1  0
  1 34  1  0
  1 35  1  0
  2 36  1  0
  2 37  1  0
  7 38  1  0
  8 39  1  0
  9 40  1  0
 10 41  1  0
 11 42  1  0
 12 43  1  0
 13 44  1  0
 13 45  1  0
 14 46  1  0
 14 47  1  0
 18 48  1  1
 19 49  1  0
 19 50  1  0
 20 51  1  0
 20 52  1  0
 22 53  1  0
 23 54  1  0
 25 55  1  0
 26 56  1  0
 27 57  1  0
 28 58  1  0
 30 59  1  0
 31 60  1  0
 31 61  1  0
 32 62  1  0
 32 63  1  0
M  END
>  <smiles>  (7) 
CCC(=O)N(c1ccccc1)C1CCN(C(=O)[C@H](N)Cc2ccc3ccccc3c2)CC1

>  <score_type>  (7) 
oracle

>  <origin>  (7) 
autodockgpu

>  <m_score__min__energy>  (7) 
-8.6799999999999997

>  <m_primary>  (7) 
energy

>  <rmsd>  (7) 
8.508112754524682

>  <m_score__min__rmsd>  (7) 
8.508112754524682

>  <meeko>  (7) 
{"free_energy": -7.61, "intermolecular_energy": -10.0, "internal_energy": -2.74, "cluster_size": 1, "cluster_id": 4, "rank_in_cluster": 1}

>  <energy>  (7) 
-7.95

>  <cluster_rmsd>  (7) 
1.23

>  <cluster>  (7) 
1

$$$$

     RDKit          3D

 63 66  0  0  0  0  0  0  0  0999 V2000
  138.0910   80.7890  224.4120 C   0  0  0  0  0  0  0  0  0  0  0  0
  137.7320   80.4390  222.9930 C   0  0  0  0  0  0  0  0  0  0  0  0
  138.0140   79.0150  222.6500 C   0  0  0  0  0  0  0  0  0  0  0  0
  137.0020   78.2490  222.6920 O   0  0  0  0  0  0  0  0  0  0  0  0
  139.3200   78.5510  222.3020 N   0  0  0  0  0  0  0  0  0  0  0  0
  140.5180   79.2520  222.5480 C   0  0  0  0  0  0  0  0  0  0  0  0
  140.9670   80.2020  221.6410 C   0  0  0  0  0  0  0  0  0  0  0  0
  142.1550   80.9120  221.8500 C   0  0  0  0  0  0  0  0  0  0  0  0
  142.9370   80.7070  222.9610 C   0  0  0  0  0  0  0  0  0  0  0  0
  142.5020   79.7710  223.8660 C   0  0  0  0  0  0  0  0  0  0  0  0
  141.3180   79.0620  223.6580 C   0  0  0  0  0  0  0  0  0  0  0  0
  139.3750   77.2340  221.6830 C   0  0  0  0  0  0  0  0  0  0  0  0
  139.4670   76.1330  222.6810 C   0  0  0  0  0  0  0  0  0  0  0  0
  139.6520   74.7910  221.9860 C   0  0  0  0  0  0  0  0  0  0  0  0
  140.7010   74.8480  221.0170 N   0  0  0  0  0  0  0  0  0  0  0  0
  141.5700   73.7060  220.8780 C   0  0  0  0  0  0  0  0  0  0  0  0
  142.5340   73.7280  220.0290 O   0  0  0  0  0  0  0  0  0  0  0  0
  141.4430   72.4690  221.6580 C   0  0  2  0  0  0  0  0  0  0  0  0
  142.3730   71.5100  221.0390 N   0  0  0  0  0  0  0  0  0  0  0  0
  140.0540   71.8680  221.6520 C   0  0  0  0  0  0  0  0  0  0  0  0
  139.8910   71.2310  223.0090 C   0  0  0  0  0  0  0  0  0  0  0  0
  139.1080   70.1100  223.1920 C   0  0  0  0  0  0  0  0  0  0  0  0
  139.0210   69.6000  224.4700 C   0  0  0  0  0  0  0  0  0  0  0  0
  139.6820   70.1710  225.5520 C   0  0  0  0  0  0  0  0  0  0  0  0
  139.5770   69.6400  226.8230 C   0  0  0  0  0  0  0  0  0  0  0  0
  140.2530   70.2360  227.8830 C   0  0  0  0  0  0  0  0  0  0  0  0
  141.0330   71.3580  227.6880 C   0  0  0  0  0  0  0  0  0  0  0  0
  141.1350   71.8850  226.4170 C   0  0  0  0  0  0  0  0  0  0  0  0
  140.4630   71.2990  225.3460 C   0  0  0  0  0  0  0  0  0  0  0  0
  140.5730   71.8390  224.0650 C   0  0  0  0  0  0  0  0  0  0  0  0
  140.9880   75.9580  220.1400 C   0  0  0  0  0  0  0  0  0  0  0  0
  140.2150   77.1590  220.4580 C   0  0  0  0  0  0  0  0  0  0  0  0
  137.4783   80.1917  225.1032 H   0  0  0  0  0  0  0  0  0  0  0  0
  139.1555   80.5725  224.5850 H   0  0  0  0  0  0  0  0  0  0  0  0
  137.9016   81.8587  224.5850 H   0  0  0  0  0  0  0  0  0  0  0  0
  136.6581   80.6277  222.8473 H   0  0  0  0  0  0  0  0  0  0  0  0
  138.3541   81.0633  222.3348 H   0  0  0  0  0  0  0  0  0  0  0  0
  140.3747   80.4018  220.7359 H   0  0  0  0  0  0  0  0  0  0  0  0
  142.4716   81.6553  221.1035 H   0  0  0  0  0  0  0  0  0  0  0  0
  143.8701   81.2679  223.1182 H   0  0  0  0  0  0  0  0  0  0  0  0
  143.0968   79.5764  224.7706 H   0  0  0  0  0  0  0  0  0  0  0  0
  141.0088   78.3207  224.4096 H   0  0  0  0  0  0  0  0  0  0  0  0
  138.3914   77.0428  221.2291 H   0  0  0  0  0  0  0  0  0  0  0  0
  140.3250   76.3175  223.3442 H   0  0  0  0  0  0  0  0  0  0  0  0
  138.5340   76.1043  223.2631 H   0  0  0  0  0  0  0  0  0  0  0  0
  139.9009   74.0288  222.7391 H   0  0  0  0  0  0  0  0  0  0  0  0
  138.7153   74.5359  221.4688 H   0  0  0  0  0  0  0  0  0  0  0  0
  141.6630   72.6958  222.7116 H   0  0  0  0  0  0  0  0  0  0  0  0
  142.1800   71.4990  220.0050 H   0  0  0  0  0  0  0  0  0  0  0  0
  143.3260   71.9400  221.1460 H   0  0  0  0  0  0  0  0  0  0  0  0
  139.2961   72.6506  221.5000 H   0  0  0  0  0  0  0  0  0  0  0  0
  139.9258   71.1389  220.8383 H   0  0  0  0  0  0  0  0  0  0  0  0
  138.5744   69.6417  222.3518 H   0  0  0  0  0  0  0  0  0  0  0  0
  138.4039   68.7055  224.6406 H   0  0  0  0  0  0  0  0  0  0  0  0
  138.9593   68.7466  226.9969 H   0  0  0  0  0  0  0  0  0  0  0  0
  140.1645   69.8065  228.8918 H   0  0  0  0  0  0  0  0  0  0  0  0
  141.5640   71.8238  228.5312 H   0  0  0  0  0  0  0  0  0  0  0  0
  141.7540   72.7783  226.2471 H   0  0  0  0  0  0  0  0  0  0  0  0
  141.1894   72.7328  223.8886 H   0  0  0  0  0  0  0  0  0  0  0  0
  142.0581   76.1996  220.2206 H   0  0  0  0  0  0  0  0  0  0  0  0
  140.7093   75.6502  219.1214 H   0  0  0  0  0  0  0  0  0  0  0  0
  140.9374   77.9859  220.5245 H   0  0  0  0  0  0  0  0  0  0  0  0
  139.4660   77.1815  219.6527 H   0  0  0  0  0  0  0  0  0  0  0  0
  1  2  1  0
  2  3  1  0
  3  4  2  0
  3  5  1  0
  5  6  1  0
  6  7  2  0
  7  8  1  0
  8  9  2  0
  9 10  1  0
 10 11  2  0
  5 12  1  0
 12 13  1  0
 13 14  1  0
 14 15  1  0
 15 16  1  0
 16 17  2  0
 16 18  1  0
 18 19  1  0
 18 20  1  0
 20 21  1  0
 21 22  2  0
 22 23  1  0
 23 24  2  0
 24 25  1  0
 25 26  2  0
 26 27  1  0
 27 28  2  0
 28 29  1  0
 29 30  2  0
 15 31  1  0
 31 32  1  0
 11  6  1  0
 32 12  1  0
 30 21  1  0
 29 24  1  0
  1 33  1  0
  1 34  1  0
  1 35  1  0
  2 36  1  0
  2 37  1  0
  7 38  1  0
  8 39  1  0
  9 40  1  0
 10 41  1  0
 11 42  1  0
 12 43  1  0
 13 44  1  0
 13 45  1  0
 14 46  1  0
 14 47  1  0
 18 48  1  1
 19 49  1  0
 19 50  1  0
 20 51  1  0
 20 52  1  0
 22 53  1  0
 23 54  1  0
 25 55  1  0
 26 56  1  0
 27 57  1  0
 28 58  1  0
 30 59  1  0
 31 60  1  0
 31 61  1  0
 32 62  1  0
 32 63  1  0
M  END
>  <smiles>  (8) 
CCC(=O)N(c1ccccc1)C1CCN(C(=O)[C@H](N)Cc2ccc3ccccc3c2)CC1

>  <score_type>  (8) 
oracle

>  <origin>  (8) 
autodockgpu

>  <m_score__min__energy>  (8) 
-8.6799999999999997

>  <m_primary>  (8) 
energy

>  <rmsd>  (8) 
5.795864506017513

>  <m_score__min__rmsd>  (8) 
5.795864506017513

>  <meeko>  (8) 
{"free_energy": -8.1, "intermolecular_energy": -10.49, "internal_energy": -2.78, "cluster_size": 34, "cluster_id": 3, "rank_in_cluster": 3}

>  <energy>  (8) 
-7.91

>  <cluster_rmsd>  (8) 
1.68

>  <cluster>  (8) 
1

$$$$

     RDKit          3D

 63 66  0  0  0  0  0  0  0  0999 V2000
  143.0470   75.2250  219.6350 C   0  0  0  0  0  0  0  0  0  0  0  0
  143.3190   76.6940  219.4530 C   0  0  0  0  0  0  0  0  0  0  0  0
  142.0890   77.5340  219.5450 C   0  0  0  0  0  0  0  0  0  0  0  0
  141.7020   78.0300  218.4420 O   0  0  0  0  0  0  0  0  0  0  0  0
  141.4030   77.7630  220.7780 N   0  0  0  0  0  0  0  0  0  0  0  0
  141.6920   78.8060  221.6810 C   0  0  0  0  0  0  0  0  0  0  0  0
  141.8690   80.1010  221.2150 C   0  0  0  0  0  0  0  0  0  0  0  0
  142.1620   81.1590  222.0840 C   0  0  0  0  0  0  0  0  0  0  0  0
  142.2890   80.9720  223.4390 C   0  0  0  0  0  0  0  0  0  0  0  0
  142.1140   79.6950  223.9110 C   0  0  0  0  0  0  0  0  0  0  0  0
  141.8230   78.6390  223.0470 C   0  0  0  0  0  0  0  0  0  0  0  0
  140.3070   76.8490  221.0660 C   0  0  0  0  0  0  0  0  0  0  0  0
  140.7280   75.6910  221.9020 C   0  0  0  0  0  0  0  0  0  0  0  0
  139.5830   74.7020  222.0650 C   0  0  0  0  0  0  0  0  0  0  0  0
  138.9870   74.3820  220.8070 N   0  0  0  0  0  0  0  0  0  0  0  0
  138.5640   73.0240  220.5720 C   0  0  0  0  0  0  0  0  0  0  0  0
  138.0400   72.6970  219.4460 O   0  0  0  0  0  0  0  0  0  0  0  0
  138.6880   71.9370  221.5510 C   0  0  2  0  0  0  0  0  0  0  0  0
  137.9140   72.3690  222.7270 N   0  0  0  0  0  0  0  0  0  0  0  0
  140.1090   71.6500  221.9870 C   0  0  0  0  0  0  0  0  0  0  0  0
  139.9870   71.0370  223.3590 C   0  0  0  0  0  0  0  0  0  0  0  0
  139.3140   69.8500  223.5630 C   0  0  0  0  0  0  0  0  0  0  0  0
  139.2560   69.3680  224.8530 C   0  0  0  0  0  0  0  0  0  0  0  0
  139.8400   70.0290  225.9270 C   0  0  0  0  0  0  0  0  0  0  0  0
  139.7660   69.5250  227.2110 C   0  0  0  0  0  0  0  0  0  0  0  0
  140.3630   70.2120  228.2630 C   0  0  0  0  0  0  0  0  0  0  0  0
  141.0320   71.3990  228.0480 C   0  0  0  0  0  0  0  0  0  0  0  0
  141.1040   71.9000  226.7640 C   0  0  0  0  0  0  0  0  0  0  0  0
  140.5110   71.2230  225.7010 C   0  0  0  0  0  0  0  0  0  0  0  0
  140.5890   71.7360  224.4070 C   0  0  0  0  0  0  0  0  0  0  0  0
  138.7590   75.3010  219.7180 C   0  0  0  0  0  0  0  0  0  0  0  0
  139.3850   76.6080  219.9240 C   0  0  0  0  0  0  0  0  0  0  0  0
  143.0036   74.9904  220.7088 H   0  0  0  0  0  0  0  0  0  0  0  0
  142.0862   74.9690  219.1646 H   0  0  0  0  0  0  0  0  0  0  0  0
  143.8524   74.6419  219.1646 H   0  0  0  0  0  0  0  0  0  0  0  0
  144.0235   77.0186  220.2329 H   0  0  0  0  0  0  0  0  0  0  0  0
  143.7322   76.8278  218.4424 H   0  0  0  0  0  0  0  0  0  0  0  0
  141.7769   80.3011  220.1373 H   0  0  0  0  0  0  0  0  0  0  0  0
  142.2944   82.1693  221.6697 H   0  0  0  0  0  0  0  0  0  0  0  0
  142.5205   81.8080  224.1153 H   0  0  0  0  0  0  0  0  0  0  0  0
  142.2048   79.5008  224.9899 H   0  0  0  0  0  0  0  0  0  0  0  0
  141.6924   77.6321  223.4701 H   0  0  0  0  0  0  0  0  0  0  0  0
  139.6125   77.3702  221.7413 H   0  0  0  0  0  0  0  0  0  0  0  0
  141.5761   75.1851  221.4175 H   0  0  0  0  0  0  0  0  0  0  0  0
  141.0214   76.0599  222.8959 H   0  0  0  0  0  0  0  0  0  0  0  0
  139.9695   73.7795  222.5228 H   0  0  0  0  0  0  0  0  0  0  0  0
  138.8156   75.1634  222.7040 H   0  0  0  0  0  0  0  0  0  0  0  0
  138.3259   71.0069  221.0885 H   0  0  0  0  0  0  0  0  0  0  0  0
  138.5690   72.8800  223.3710 H   0  0  0  0  0  0  0  0  0  0  0  0
  137.2460   73.0950  222.3660 H   0  0  0  0  0  0  0  0  0  0  0  0
  140.5908   70.9466  221.2920 H   0  0  0  0  0  0  0  0  0  0  0  0
  140.7269   72.5600  221.9974 H   0  0  0  0  0  0  0  0  0  0  0  0
  138.8423   69.3096  222.7290 H   0  0  0  0  0  0  0  0  0  0  0  0
  138.7263   68.4223  225.0399 H   0  0  0  0  0  0  0  0  0  0  0  0
  139.2351   68.5806  227.4016 H   0  0  0  0  0  0  0  0  0  0  0  0
  140.3006   69.8024  229.2820 H   0  0  0  0  0  0  0  0  0  0  0  0
  141.5001   71.9370  228.8855 H   0  0  0  0  0  0  0  0  0  0  0  0
  141.6358   72.8448  226.5780 H   0  0  0  0  0  0  0  0  0  0  0  0
  141.1187   72.6805  224.2139 H   0  0  0  0  0  0  0  0  0  0  0  0
  139.1672   74.8594  218.7970 H   0  0  0  0  0  0  0  0  0  0  0  0
  137.6734   75.4659  219.6521 H   0  0  0  0  0  0  0  0  0  0  0  0
  139.9565   76.8275  219.0101 H   0  0  0  0  0  0  0  0  0  0  0  0
  138.5258   77.2493  220.1699 H   0  0  0  0  0  0  0  0  0  0  0  0
  1  2  1  0
  2  3  1  0
  3  4  2  0
  3  5  1  0
  5  6  1  0
  6  7  2  0
  7  8  1  0
  8  9  2  0
  9 10  1  0
 10 11  2  0
  5 12  1  0
 12 13  1  0
 13 14  1  0
 14 15  1  0
 15 16  1  0
 16 17  2  0
 16 18  1  0
 18 19  1  0
 18 20  1  0
 20 21  1  0
 21 22  2  0
 22 23  1  0
 23 24  2  0
 24 25  1  0
 25 26  2  0
 26 27  1  0
 27 28  2  0
 28 29  1  0
 29 30  2  0
 15 31  1  0
 31 32  1  0
 11  6  1  0
 32 12  1  0
 30 21  1  0
 29 24  1  0
  1 33  1  0
  1 34  1  0
  1 35  1  0
  2 36  1  0
  2 37  1  0
  7 38  1  0
  8 39  1  0
  9 40  1  0
 10 41  1  0
 11 42  1  0
 12 43  1  0
 13 44  1  0
 13 45  1  0
 14 46  1  0
 14 47  1  0
 18 48  1  6
 19 49  1  0
 19 50  1  0
 20 51  1  0
 20 52  1  0
 22 53  1  0
 23 54  1  0
 25 55  1  0
 26 56  1  0
 27 57  1  0
 28 58  1  0
 30 59  1  0
 31 60  1  0
 31 61  1  0
 32 62  1  0
 32 63  1  0
M  END
>  <smiles>  (9) 
CCC(=O)N(c1ccccc1)C1CCN(C(=O)[C@H](N)Cc2ccc3ccccc3c2)CC1

>  <score_type>  (9) 
oracle

>  <origin>  (9) 
autodockgpu

>  <m_score__min__energy>  (9) 
-8.6799999999999997

>  <m_primary>  (9) 
energy

>  <rmsd>  (9) 
6.276308007621502

>  <m_score__min__rmsd>  (9) 
6.276308007621502

>  <meeko>  (9) 
{"free_energy": -8.68, "intermolecular_energy": -11.07, "internal_energy": -1.72, "cluster_size": 14, "cluster_id": 1, "rank_in_cluster": 1}

>  <energy>  (9) 
-7.9

>  <cluster_rmsd>  (9) 
1.7

>  <cluster>  (9) 
1

$$$$

     RDKit          3D

 63 66  0  0  0  0  0  0  0  0999 V2000
  137.3810   81.7900  223.0410 C   0  0  0  0  0  0  0  0  0  0  0  0
  137.6500   80.7770  221.9620 C   0  0  0  0  0  0  0  0  0  0  0  0
  138.0100   79.4300  222.4960 C   0  0  0  0  0  0  0  0  0  0  0  0
  137.0650   78.8290  223.0950 O   0  0  0  0  0  0  0  0  0  0  0  0
  139.3140   78.8650  222.3460 N   0  0  0  0  0  0  0  0  0  0  0  0
  140.5100   79.4680  222.7830 C   0  0  0  0  0  0  0  0  0  0  0  0
  141.7240   78.8200  222.6000 C   0  0  0  0  0  0  0  0  0  0  0  0
  142.9300   79.3860  223.0270 C   0  0  0  0  0  0  0  0  0  0  0  0
  142.9770   80.6110  223.6470 C   0  0  0  0  0  0  0  0  0  0  0  0
  141.7830   81.2630  223.8330 C   0  0  0  0  0  0  0  0  0  0  0  0
  140.5800   80.6980  223.4090 C   0  0  0  0  0  0  0  0  0  0  0  0
  139.3600   77.5500  221.7230 C   0  0  0  0  0  0  0  0  0  0  0  0
  139.4640   76.4460  222.7170 C   0  0  0  0  0  0  0  0  0  0  0  0
  139.6410   75.1060  222.0160 C   0  0  0  0  0  0  0  0  0  0  0  0
  140.6770   75.1650  221.0340 N   0  0  0  0  0  0  0  0  0  0  0  0
  141.5440   74.0240  220.8810 C   0  0  0  0  0  0  0  0  0  0  0  0
  142.4970   74.0470  220.0200 O   0  0  0  0  0  0  0  0  0  0  0  0
  141.4260   72.7850  221.6590 C   0  0  2  0  0  0  0  0  0  0  0  0
  142.4190   71.8590  221.0880 N   0  0  0  0  0  0  0  0  0  0  0  0
  140.0620   72.1320  221.5920 C   0  0  0  0  0  0  0  0  0  0  0  0
  139.9000   71.4130  222.9070 C   0  0  0  0  0  0  0  0  0  0  0  0
  139.1050   70.2910  223.0240 C   0  0  0  0  0  0  0  0  0  0  0  0
  139.0200   69.7020  224.2670 C   0  0  0  0  0  0  0  0  0  0  0  0
  139.6950   70.1950  225.3780 C   0  0  0  0  0  0  0  0  0  0  0  0
  139.5920   69.5850  226.6130 C   0  0  0  0  0  0  0  0  0  0  0  0
  140.2820   70.1050  227.7040 C   0  0  0  0  0  0  0  0  0  0  0  0
  141.0740   71.2270  227.5750 C   0  0  0  0  0  0  0  0  0  0  0  0
  141.1750   71.8330  226.3400 C   0  0  0  0  0  0  0  0  0  0  0  0
  140.4890   71.3240  225.2390 C   0  0  0  0  0  0  0  0  0  0  0  0
  140.5970   71.9430  223.9940 C   0  0  0  0  0  0  0  0  0  0  0  0
  140.9530   76.2780  220.1570 C   0  0  0  0  0  0  0  0  0  0  0  0
  140.1850   77.4780  220.4870 C   0  0  0  0  0  0  0  0  0  0  0  0
  137.5064   81.3179  224.0266 H   0  0  0  0  0  0  0  0  0  0  0  0
  138.0880   82.6269  222.9427 H   0  0  0  0  0  0  0  0  0  0  0  0
  136.3519   82.1659  222.9427 H   0  0  0  0  0  0  0  0  0  0  0  0
  136.7463   80.6775  221.3428 H   0  0  0  0  0  0  0  0  0  0  0  0
  138.5111   81.1391  221.3812 H   0  0  0  0  0  0  0  0  0  0  0  0
  141.7380   77.8368  222.1069 H   0  0  0  0  0  0  0  0  0  0  0  0
  143.8673   78.8345  222.8616 H   0  0  0  0  0  0  0  0  0  0  0  0
  143.9291   81.0501  223.9797 H   0  0  0  0  0  0  0  0  0  0  0  0
  141.7749   82.2471  224.3244 H   0  0  0  0  0  0  0  0  0  0  0  0
  139.6473   81.2554  223.5803 H   0  0  0  0  0  0  0  0  0  0  0  0
  138.3706   77.3605  221.2813 H   0  0  0  0  0  0  0  0  0  0  0  0
  140.3297   76.6288  223.3705 H   0  0  0  0  0  0  0  0  0  0  0  0
  138.5380   76.4155  223.3100 H   0  0  0  0  0  0  0  0  0  0  0  0
  139.8998   74.3421  222.7640 H   0  0  0  0  0  0  0  0  0  0  0  0
  138.6978   74.8525  221.5099 H   0  0  0  0  0  0  0  0  0  0  0  0
  141.5877   73.0233  222.7206 H   0  0  0  0  0  0  0  0  0  0  0  0
  142.2480   71.8080  220.0510 H   0  0  0  0  0  0  0  0  0  0  0  0
  143.3450   72.3420  221.2000 H   0  0  0  0  0  0  0  0  0  0  0  0
  139.2765   72.8922  221.4692 H   0  0  0  0  0  0  0  0  0  0  0  0
  139.9775   71.4459  220.7364 H   0  0  0  0  0  0  0  0  0  0  0  0
  138.5608   69.8830  222.1595 H   0  0  0  0  0  0  0  0  0  0  0  0
  138.3930   68.8059  224.3849 H   0  0  0  0  0  0  0  0  0  0  0  0
  138.9652   68.6892  226.7341 H   0  0  0  0  0  0  0  0  0  0  0  0
  140.1945   69.6137  228.6843 H   0  0  0  0  0  0  0  0  0  0  0  0
  141.6160   71.6317  228.4425 H   0  0  0  0  0  0  0  0  0  0  0  0
  141.8039   72.7278  226.2229 H   0  0  0  0  0  0  0  0  0  0  0  0
  141.2240   72.8383  223.8701 H   0  0  0  0  0  0  0  0  0  0  0  0
  142.0241   76.5191  220.2252 H   0  0  0  0  0  0  0  0  0  0  0  0
  140.6610   75.9730  219.1413 H   0  0  0  0  0  0  0  0  0  0  0  0
  140.9085   78.3044  220.5466 H   0  0  0  0  0  0  0  0  0  0  0  0
  139.4263   77.5031  219.6909 H   0  0  0  0  0  0  0  0  0  0  0  0
  1  2  1  0
  2  3  1  0
  3  4  2  0
  3  5  1  0
  5  6  1  0
  6  7  2  0
  7  8  1  0
  8  9  2  0
  9 10  1  0
 10 11  2  0
  5 12  1  0
 12 13  1  0
 13 14  1  0
 14 15  1  0
 15 16  1  0
 16 17  2  0
 16 18  1  0
 18 19  1  0
 18 20  1  0
 20 21  1  0
 21 22  2  0
 22 23  1  0
 23 24  2  0
 24 25  1  0
 25 26  2  0
 26 27  1  0
 27 28  2  0
 28 29  1  0
 29 30  2  0
 15 31  1  0
 31 32  1  0
 11  6  1  0
 32 12  1  0
 30 21  1  0
 29 24  1  0
  1 33  1  0
  1 34  1  0
  1 35  1  0
  2 36  1  0
  2 37  1  0
  7 38  1  0
  8 39  1  0
  9 40  1  0
 10 41  1  0
 11 42  1  0
 12 43  1  0
 13 44  1  0
 13 45  1  0
 14 46  1  0
 14 47  1  0
 18 48  1  1
 19 49  1  0
 19 50  1  0
 20 51  1  0
 20 52  1  0
 22 53  1  0
 23 54  1  0
 25 55  1  0
 26 56  1  0
 27 57  1  0
 28 58  1  0
 30 59  1  0
 31 60  1  0
 31 61  1  0
 32 62  1  0
 32 63  1  0
M  END
>  <smiles>  (10) 
CCC(=O)N(c1ccccc1)C1CCN(C(=O)[C@H](N)Cc2ccc3ccccc3c2)CC1

>  <score_type>  (10) 
oracle

>  <origin>  (10) 
autodockgpu

>  <m_score__min__energy>  (10) 
-8.6799999999999997

>  <m_primary>  (10) 
energy

>  <rmsd>  (10) 
5.552045842898556

>  <m_score__min__rmsd>  (10) 
5.552045842898556

>  <meeko>  (10) 
{"free_energy": -7.93, "intermolecular_energy": -10.31, "internal_energy": -2.56, "cluster_size": 34, "cluster_id": 3, "rank_in_cluster": 30}

>  <energy>  (10) 
-7.86

>  <cluster_rmsd>  (10) 
1.7

>  <cluster>  (10) 
1

$$$$

     RDKit          3D

 63 66  0  0  0  0  0  0  0  0999 V2000
  138.0860   80.8720  224.1820 C   0  0  0  0  0  0  0  0  0  0  0  0
  137.2690   79.8210  223.4780 C   0  0  0  0  0  0  0  0  0  0  0  0
  137.8430   79.4150  222.1610 C   0  0  0  0  0  0  0  0  0  0  0  0
  137.1060   79.6760  221.1600 O   0  0  0  0  0  0  0  0  0  0  0  0
  139.1180   78.7830  222.0390 N   0  0  0  0  0  0  0  0  0  0  0  0
  140.3500   79.3740  222.3830 C   0  0  0  0  0  0  0  0  0  0  0  0
  141.0270   78.9610  223.5220 C   0  0  0  0  0  0  0  0  0  0  0  0
  142.2490   79.5310  223.8960 C   0  0  0  0  0  0  0  0  0  0  0  0
  142.8420   80.5260  223.1580 C   0  0  0  0  0  0  0  0  0  0  0  0
  142.1820   80.9430  222.0290 C   0  0  0  0  0  0  0  0  0  0  0  0
  140.9640   80.3760  221.6540 C   0  0  0  0  0  0  0  0  0  0  0  0
  139.0940   77.4100  221.5520 C   0  0  0  0  0  0  0  0  0  0  0  0
  139.2750   76.4110  222.6400 C   0  0  0  0  0  0  0  0  0  0  0  0
  139.3730   75.0040  222.0670 C   0  0  0  0  0  0  0  0  0  0  0  0
  140.3170   74.9430  220.9970 N   0  0  0  0  0  0  0  0  0  0  0  0
  141.1540   73.7740  220.8850 C   0  0  0  0  0  0  0  0  0  0  0  0
  142.0250   73.6920  219.9450 O   0  0  0  0  0  0  0  0  0  0  0  0
  141.0940   72.6230  221.7940 C   0  0  2  0  0  0  0  0  0  0  0  0
  142.1060   71.6720  221.3000 N   0  0  0  0  0  0  0  0  0  0  0  0
  139.7510   71.9250  221.8280 C   0  0  0  0  0  0  0  0  0  0  0  0
  139.6840   71.2620  223.1810 C   0  0  0  0  0  0  0  0  0  0  0  0
  138.9370   70.1200  223.3890 C   0  0  0  0  0  0  0  0  0  0  0  0
  138.9370   69.5870  224.6600 C   0  0  0  0  0  0  0  0  0  0  0  0
  139.6490   70.1540  225.7110 C   0  0  0  0  0  0  0  0  0  0  0  0
  139.6310   69.6000  226.9760 C   0  0  0  0  0  0  0  0  0  0  0  0
  140.3570   70.1930  228.0050 C   0  0  0  0  0  0  0  0  0  0  0  0
  141.0990   71.3350  227.7850 C   0  0  0  0  0  0  0  0  0  0  0  0
  141.1140   71.8860  226.5200 C   0  0  0  0  0  0  0  0  0  0  0  0
  140.3930   71.3030  225.4810 C   0  0  0  0  0  0  0  0  0  0  0  0
  140.4140   71.8670  224.2050 C   0  0  0  0  0  0  0  0  0  0  0  0
  140.5250   75.9550  219.9890 C   0  0  0  0  0  0  0  0  0  0  0  0
  139.8020   77.1980  220.2610 C   0  0  0  0  0  0  0  0  0  0  0  0
  137.9874   80.7451  225.2702 H   0  0  0  0  0  0  0  0  0  0  0  0
  139.1428   80.7681  223.8950 H   0  0  0  0  0  0  0  0  0  0  0  0
  137.7246   81.8705  223.8950 H   0  0  0  0  0  0  0  0  0  0  0  0
  137.2117   78.9321  224.1235 H   0  0  0  0  0  0  0  0  0  0  0  0
  136.2769   80.2542  223.2828 H   0  0  0  0  0  0  0  0  0  0  0  0
  140.5923   78.1662  224.1460 H   0  0  0  0  0  0  0  0  0  0  0  0
  142.7492   79.1718  224.8075 H   0  0  0  0  0  0  0  0  0  0  0  0
  143.8030   80.9690  223.4583 H   0  0  0  0  0  0  0  0  0  0  0  0
  142.6214   81.7384  221.4090 H   0  0  0  0  0  0  0  0  0  0  0  0
  140.4715   80.7410  220.7406 H   0  0  0  0  0  0  0  0  0  0  0  0
  138.0670   77.1951  221.2217 H   0  0  0  0  0  0  0  0  0  0  0  0
  140.1982   76.6413  223.1919 H   0  0  0  0  0  0  0  0  0  0  0  0
  138.4062   76.4593  223.3130 H   0  0  0  0  0  0  0  0  0  0  0  0
  139.6893   74.3142  222.8634 H   0  0  0  0  0  0  0  0  0  0  0  0
  138.3854   74.7198  221.6747 H   0  0  0  0  0  0  0  0  0  0  0  0
  141.2698   72.9777  222.8203 H   0  0  0  0  0  0  0  0  0  0  0  0
  141.8880   71.4690  220.2920 H   0  0  0  0  0  0  0  0  0  0  0  0
  143.0090   72.2090  221.2940 H   0  0  0  0  0  0  0  0  0  0  0  0
  138.9347   72.6535  221.7146 H   0  0  0  0  0  0  0  0  0  0  0  0
  139.6442   71.1989  221.0086 H   0  0  0  0  0  0  0  0  0  0  0  0
  138.3648   69.6541  222.5732 H   0  0  0  0  0  0  0  0  0  0  0  0
  138.3501   68.6764  224.8506 H   0  0  0  0  0  0  0  0  0  0  0  0
  139.0433   68.6907  227.1702 H   0  0  0  0  0  0  0  0  0  0  0  0
  140.3388   69.7441  229.0091 H   0  0  0  0  0  0  0  0  0  0  0  0
  141.6689   71.7984  228.6039 H   0  0  0  0  0  0  0  0  0  0  0  0
  141.7021   72.7960  226.3302 H   0  0  0  0  0  0  0  0  0  0  0  0
  140.9990   72.7776  224.0085 H   0  0  0  0  0  0  0  0  0  0  0  0
  141.6004   76.1805  219.9369 H   0  0  0  0  0  0  0  0  0  0  0  0
  140.1399   75.5543  219.0397 H   0  0  0  0  0  0  0  0  0  0  0  0
  140.5362   78.0121  220.1705 H   0  0  0  0  0  0  0  0  0  0  0  0
  138.9747   77.1578  219.5372 H   0  0  0  0  0  0  0  0  0  0  0  0
  1  2  1  0
  2  3  1  0
  3  4  2  0
  3  5  1  0
  5  6  1  0
  6  7  2  0
  7  8  1  0
  8  9  2  0
  9 10  1  0
 10 11  2  0
  5 12  1  0
 12 13  1  0
 13 14  1  0
 14 15  1  0
 15 16  1  0
 16 17  2  0
 16 18  1  0
 18 19  1  0
 18 20  1  0
 20 21  1  0
 21 22  2  0
 22 23  1  0
 23 24  2  0
 24 25  1  0
 25 26  2  0
 26 27  1  0
 27 28  2  0
 28 29  1  0
 29 30  2  0
 15 31  1  0
 31 32  1  0
 11  6  1  0
 32 12  1  0
 30 21  1  0
 29 24  1  0
  1 33  1  0
  1 34  1  0
  1 35  1  0
  2 36  1  0
  2 37  1  0
  7 38  1  0
  8 39  1  0
  9 40  1  0
 10 41  1  0
 11 42  1  0
 12 43  1  0
 13 44  1  0
 13 45  1  0
 14 46  1  0
 14 47  1  0
 18 48  1  1
 19 49  1  0
 19 50  1  0
 20 51  1  0
 20 52  1  0
 22 53  1  0
 23 54  1  0
 25 55  1  0
 26 56  1  0
 27 57  1  0
 28 58  1  0
 30 59  1  0
 31 60  1  0
 31 61  1  0
 32 62  1  0
 32 63  1  0
M  END
>  <smiles>  (11) 
CCC(=O)N(c1ccccc1)C1CCN(C(=O)[C@H](N)Cc2ccc3ccccc3c2)CC1

>  <score_type>  (11) 
oracle

>  <origin>  (11) 
autodockgpu

>  <m_score__min__energy>  (11) 
-8.6799999999999997

>  <m_primary>  (11) 
energy

>  <rmsd>  (11) 
5.777180534131926

>  <m_score__min__rmsd>  (11) 
5.777180534131926

>  <meeko>  (11) 
{"free_energy": -7.94, "intermolecular_energy": -10.32, "internal_energy": -2.82, "cluster_size": 34, "cluster_id": 3, "rank_in_cluster": 28}

>  <energy>  (11) 
-7.82

>  <cluster_rmsd>  (11) 
1.73

>  <cluster>  (11) 
1

$$$$

     RDKit          3D

 63 66  0  0  0  0  0  0  0  0999 V2000
  142.1900   80.3260  218.9320 C   0  0  0  0  0  0  0  0  0  0  0  0
  141.9320   78.9040  218.5120 C   0  0  0  0  0  0  0  0  0  0  0  0
  142.1670   77.9160  219.6060 C   0  0  0  0  0  0  0  0  0  0  0  0
  143.1170   77.1020  219.3900 O   0  0  0  0  0  0  0  0  0  0  0  0
  141.3820   77.8880  220.8000 N   0  0  0  0  0  0  0  0  0  0  0  0
  141.3830   78.8900  221.7910 C   0  0  0  0  0  0  0  0  0  0  0  0
  142.5820   79.3330  222.3320 C   0  0  0  0  0  0  0  0  0  0  0  0
  142.6200   80.3220  223.3210 C   0  0  0  0  0  0  0  0  0  0  0  0
  141.4750   80.9060  223.8070 C   0  0  0  0  0  0  0  0  0  0  0  0
  140.2830   80.4770  223.2790 C   0  0  0  0  0  0  0  0  0  0  0  0
  140.2440   79.4900  222.2930 C   0  0  0  0  0  0  0  0  0  0  0  0
  140.5010   76.7370  220.9460 C   0  0  0  0  0  0  0  0  0  0  0  0
  141.0080   75.7460  221.9340 C   0  0  0  0  0  0  0  0  0  0  0  0
  140.1240   74.5070  221.9550 C   0  0  0  0  0  0  0  0  0  0  0  0
  139.8910   74.0130  220.6350 N   0  0  0  0  0  0  0  0  0  0  0  0
  139.8610   72.5860  220.4310 C   0  0  0  0  0  0  0  0  0  0  0  0
  139.6710   72.1050  219.2560 O   0  0  0  0  0  0  0  0  0  0  0  0
  140.0410   71.5930  221.4980 C   0  0  2  0  0  0  0  0  0  0  0  0
  140.1650   70.2930  220.8170 N   0  0  0  0  0  0  0  0  0  0  0  0
  138.8900   71.5170  222.4790 C   0  0  0  0  0  0  0  0  0  0  0  0
  139.5110   71.1000  223.7880 C   0  0  0  0  0  0  0  0  0  0  0  0
  140.4430   71.8900  224.4290 C   0  0  0  0  0  0  0  0  0  0  0  0
  140.9550   71.4240  225.6210 C   0  0  0  0  0  0  0  0  0  0  0  0
  140.5690   70.2110  226.1800 C   0  0  0  0  0  0  0  0  0  0  0  0
  141.0980   69.7670  227.3770 C   0  0  0  0  0  0  0  0  0  0  0  0
  140.6880   68.5480  227.9080 C   0  0  0  0  0  0  0  0  0  0  0  0
  139.7550   67.7660  227.2570 C   0  0  0  0  0  0  0  0  0  0  0  0
  139.2290   68.2130  226.0620 C   0  0  0  0  0  0  0  0  0  0  0  0
  139.6310   69.4310  225.5190 C   0  0  0  0  0  0  0  0  0  0  0  0
  139.0930   69.8750  224.3100 C   0  0  0  0  0  0  0  0  0  0  0  0
  139.6750   74.8140  219.4540 C   0  0  0  0  0  0  0  0  0  0  0  0
  139.9150   76.2410  219.6720 C   0  0  0  0  0  0  0  0  0  0  0  0
  142.2012   80.3877  220.0302 H   0  0  0  0  0  0  0  0  0  0  0  0
  143.1624   80.6545  218.5364 H   0  0  0  0  0  0  0  0  0  0  0  0
  141.3950   80.9752  218.5364 H   0  0  0  0  0  0  0  0  0  0  0  0
  140.8852   78.8206  218.1845 H   0  0  0  0  0  0  0  0  0  0  0  0
  142.6382   78.6691  217.7020 H   0  0  0  0  0  0  0  0  0  0  0  0
  143.5258   78.8957  221.9743 H   0  0  0  0  0  0  0  0  0  0  0  0
  143.5939   80.6410  223.7207 H   0  0  0  0  0  0  0  0  0  0  0  0
  141.5122   81.6829  224.5848 H   0  0  0  0  0  0  0  0  0  0  0  0
  139.3422   80.9187  223.6392 H   0  0  0  0  0  0  0  0  0  0  0  0
  139.2659   79.1767  221.8991 H   0  0  0  0  0  0  0  0  0  0  0  0
  139.5799   77.0865  221.4353 H   0  0  0  0  0  0  0  0  0  0  0  0
  142.0324   75.4541  221.6596 H   0  0  0  0  0  0  0  0  0  0  0  0
  140.9970   76.2054  222.9334 H   0  0  0  0  0  0  0  0  0  0  0  0
  140.6186   73.7240  222.5485 H   0  0  0  0  0  0  0  0  0  0  0  0
  139.1554   74.7791  222.3998 H   0  0  0  0  0  0  0  0  0  0  0  0
  140.9210   71.8759  222.0943 H   0  0  0  0  0  0  0  0  0  0  0  0
  139.2760   70.1280  220.2800 H   0  0  0  0  0  0  0  0  0  0  0  0
  140.9130   70.4320  220.0920 H   0  0  0  0  0  0  0  0  0  0  0  0
  138.4031   72.4983  222.5787 H   0  0  0  0  0  0  0  0  0  0  0  0
  138.1151   70.8097  222.1486 H   0  0  0  0  0  0  0  0  0  0  0  0
  140.7646   72.8531  224.0058 H   0  0  0  0  0  0  0  0  0  0  0  0
  141.6990   72.0366  226.1513 H   0  0  0  0  0  0  0  0  0  0  0  0
  141.8426   70.3768  227.9096 H   0  0  0  0  0  0  0  0  0  0  0  0
  141.1139   68.2020  228.8614 H   0  0  0  0  0  0  0  0  0  0  0  0
  139.4364   66.8034  227.6834 H   0  0  0  0  0  0  0  0  0  0  0  0
  138.4842   67.6007  225.5326 H   0  0  0  0  0  0  0  0  0  0  0  0
  138.3486   69.2668  223.7752 H   0  0  0  0  0  0  0  0  0  0  0  0
  140.3548   74.4621  218.6640 H   0  0  0  0  0  0  0  0  0  0  0  0
  138.6180   74.7003  219.1714 H   0  0  0  0  0  0  0  0  0  0  0  0
  140.5908   76.5700  218.8688 H   0  0  0  0  0  0  0  0  0  0  0  0
  138.8960   76.6545  219.6993 H   0  0  0  0  0  0  0  0  0  0  0  0
  1  2  1  0
  2  3  1  0
  3  4  2  0
  3  5  1  0
  5  6  1  0
  6  7  2  0
  7  8  1  0
  8  9  2  0
  9 10  1  0
 10 11  2  0
  5 12  1  0
 12 13  1  0
 13 14  1  0
 14 15  1  0
 15 16  1  0
 16 17  2  0
 16 18  1  0
 18 19  1  0
 18 20  1  0
 20 21  1  0
 21 22  2  0
 22 23  1  0
 23 24  2  0
 24 25  1  0
 25 26  2  0
 26 27  1  0
 27 28  2  0
 28 29  1  0
 29 30  2  0
 15 31  1  0
 31 32  1  0
 11  6  1  0
 32 12  1  0
 30 21  1  0
 29 24  1  0
  1 33  1  0
  1 34  1  0
  1 35  1  0
  2 36  1  0
  2 37  1  0
  7 38  1  0
  8 39  1  0
  9 40  1  0
 10 41  1  0
 11 42  1  0
 12 43  1  0
 13 44  1  0
 13 45  1  0
 14 46  1  0
 14 47  1  0
 18 48  1  1
 19 49  1  0
 19 50  1  0
 20 51  1  0
 20 52  1  0
 22 53  1  0
 23 54  1  0
 25 55  1  0
 26 56  1  0
 27 57  1  0
 28 58  1  0
 30 59  1  0
 31 60  1  0
 31 61  1  0
 32 62  1  0
 32 63  1  0
M  END
>  <smiles>  (12) 
CCC(=O)N(c1ccccc1)C1CCN(C(=O)[C@H](N)Cc2ccc3ccccc3c2)CC1

>  <score_type>  (12) 
oracle

>  <origin>  (12) 
autodockgpu

>  <m_score__min__energy>  (12) 
-8.6799999999999997

>  <m_primary>  (12) 
energy

>  <rmsd>  (12) 
6.472554646835927

>  <m_score__min__rmsd>  (12) 
6.472554646835927

>  <meeko>  (12) 
{"free_energy": -7.82, "intermolecular_energy": -10.2, "internal_energy": -2.78, "cluster_size": 14, "cluster_id": 1, "rank_in_cluster": 12}

>  <energy>  (12) 
-7.82

>  <cluster_rmsd>  (12) 
1.71

>  <cluster>  (12) 
1

$$$$

     RDKit          3D

 63 66  0  0  0  0  0  0  0  0999 V2000
  138.0590   80.8260  224.3780 C   0  0  0  0  0  0  0  0  0  0  0  0
  137.7140   80.4850  222.9530 C   0  0  0  0  0  0  0  0  0  0  0  0
  137.9890   79.0590  222.6070 C   0  0  0  0  0  0  0  0  0  0  0  0
  136.9690   78.3030  222.6300 O   0  0  0  0  0  0  0  0  0  0  0  0
  139.2950   78.5850  222.2770 N   0  0  0  0  0  0  0  0  0  0  0  0
  140.4950   79.2790  222.5310 C   0  0  0  0  0  0  0  0  0  0  0  0
  140.9520   80.2320  221.6320 C   0  0  0  0  0  0  0  0  0  0  0  0
  142.1420   80.9360  221.8500 C   0  0  0  0  0  0  0  0  0  0  0  0
  142.9180   80.7220  222.9630 C   0  0  0  0  0  0  0  0  0  0  0  0
  142.4750   79.7820  223.8610 C   0  0  0  0  0  0  0  0  0  0  0  0
  141.2900   79.0790  223.6440 C   0  0  0  0  0  0  0  0  0  0  0  0
  139.3480   77.2630  221.6670 C   0  0  0  0  0  0  0  0  0  0  0  0
  139.4330   76.1690  222.6720 C   0  0  0  0  0  0  0  0  0  0  0  0
  139.6170   74.8220  221.9870 C   0  0  0  0  0  0  0  0  0  0  0  0
  140.6680   74.8690  221.0210 N   0  0  0  0  0  0  0  0  0  0  0  0
  141.5340   73.7240  220.8920 C   0  0  0  0  0  0  0  0  0  0  0  0
  142.5010   73.7370  220.0470 O   0  0  0  0  0  0  0  0  0  0  0  0
  141.4010   72.4920  221.6800 C   0  0  2  0  0  0  0  0  0  0  0  0
  142.2750   71.5040  221.0260 N   0  0  0  0  0  0  0  0  0  0  0  0
  139.9950   71.9340  221.7320 C   0  0  0  0  0  0  0  0  0  0  0  0
  139.8930   71.2390  223.0660 C   0  0  0  0  0  0  0  0  0  0  0  0
  139.2130   70.0460  223.2090 C   0  0  0  0  0  0  0  0  0  0  0  0
  139.1740   69.4860  224.4680 C   0  0  0  0  0  0  0  0  0  0  0  0
  139.7850   70.0750  225.5690 C   0  0  0  0  0  0  0  0  0  0  0  0
  139.7310   69.4930  226.8210 C   0  0  0  0  0  0  0  0  0  0  0  0
  140.3540   70.1090  227.9020 C   0  0  0  0  0  0  0  0  0  0  0  0
  141.0310   71.3020  227.7470 C   0  0  0  0  0  0  0  0  0  0  0  0
  141.0830   71.8800  226.4950 C   0  0  0  0  0  0  0  0  0  0  0  0
  140.4630   71.2750  225.4040 C   0  0  0  0  0  0  0  0  0  0  0  0
  140.5210   71.8670  224.1430 C   0  0  0  0  0  0  0  0  0  0  0  0
  140.9620   75.9730  220.1380 C   0  0  0  0  0  0  0  0  0  0  0  0
  140.1920   77.1780  220.4450 C   0  0  0  0  0  0  0  0  0  0  0  0
  137.4448   80.2189  225.0593 H   0  0  0  0  0  0  0  0  0  0  0  0
  139.1235   80.6154  224.5580 H   0  0  0  0  0  0  0  0  0  0  0  0
  137.8608   81.8929  224.5580 H   0  0  0  0  0  0  0  0  0  0  0  0
  136.6435   80.6829  222.7954 H   0  0  0  0  0  0  0  0  0  0  0  0
  138.3487   81.1072  222.3049 H   0  0  0  0  0  0  0  0  0  0  0  0
  140.3645   80.4394  220.7255 H   0  0  0  0  0  0  0  0  0  0  0  0
  142.4650   81.6819  221.1089 H   0  0  0  0  0  0  0  0  0  0  0  0
  143.8524   81.2786  223.1277 H   0  0  0  0  0  0  0  0  0  0  0  0
  143.0650   79.5800  224.7671 H   0  0  0  0  0  0  0  0  0  0  0  0
  140.9749   78.3343  224.3897 H   0  0  0  0  0  0  0  0  0  0  0  0
  138.3654   77.0708  221.2115 H   0  0  0  0  0  0  0  0  0  0  0  0
  140.2888   76.3556  223.3374 H   0  0  0  0  0  0  0  0  0  0  0  0
  138.4976   76.1467  223.2504 H   0  0  0  0  0  0  0  0  0  0  0  0
  139.8621   74.0647  222.7462 H   0  0  0  0  0  0  0  0  0  0  0  0
  138.6811   74.5659  221.4688 H   0  0  0  0  0  0  0  0  0  0  0  0
  141.6708   72.7133  222.7232 H   0  0  0  0  0  0  0  0  0  0  0  0
  142.0580   71.5160  219.9970 H   0  0  0  0  0  0  0  0  0  0  0  0
  143.2470   71.8920  221.1170 H   0  0  0  0  0  0  0  0  0  0  0  0
  139.2555   72.7453  221.6625 H   0  0  0  0  0  0  0  0  0  0  0  0
  139.7942   71.2484  220.8955 H   0  0  0  0  0  0  0  0  0  0  0  0
  138.7218   69.5616  222.3522 H   0  0  0  0  0  0  0  0  0  0  0  0
  138.6382   68.5354  224.6069 H   0  0  0  0  0  0  0  0  0  0  0  0
  139.1955   68.5427  226.9632 H   0  0  0  0  0  0  0  0  0  0  0  0
  140.3063   69.6382  228.8950 H   0  0  0  0  0  0  0  0  0  0  0  0
  141.5205   71.7835  228.6064 H   0  0  0  0  0  0  0  0  0  0  0  0
  141.6204   72.8298  226.3568 H   0  0  0  0  0  0  0  0  0  0  0  0
  141.0553   72.8176  223.9985 H   0  0  0  0  0  0  0  0  0  0  0  0
  142.0326   76.2117  220.2214 H   0  0  0  0  0  0  0  0  0  0  0  0
  140.6862   75.6596  219.1203 H   0  0  0  0  0  0  0  0  0  0  0  0
  140.9166   78.0032  220.5086 H   0  0  0  0  0  0  0  0  0  0  0  0
  139.4461   77.1980  219.6368 H   0  0  0  0  0  0  0  0  0  0  0  0
  1  2  1  0
  2  3  1  0
  3  4  2  0
  3  5  1  0
  5  6  1  0
  6  7  2  0
  7  8  1  0
  8  9  2  0
  9 10  1  0
 10 11  2  0
  5 12  1  0
 12 13  1  0
 13 14  1  0
 14 15  1  0
 15 16  1  0
 16 17  2  0
 16 18  1  0
 18 19  1  0
 18 20  1  0
 20 21  1  0
 21 22  2  0
 22 23  1  0
 23 24  2  0
 24 25  1  0
 25 26  2  0
 26 27  1  0
 27 28  2  0
 28 29  1  0
 29 30  2  0
 15 31  1  0
 31 32  1  0
 11  6  1  0
 32 12  1  0
 30 21  1  0
 29 24  1  0
  1 33  1  0
  1 34  1  0
  1 35  1  0
  2 36  1  0
  2 37  1  0
  7 38  1  0
  8 39  1  0
  9 40  1  0
 10 41  1  0
 11 42  1  0
 12 43  1  0
 13 44  1  0
 13 45  1  0
 14 46  1  0
 14 47  1  0
 18 48  1  1
 19 49  1  0
 19 50  1  0
 20 51  1  0
 20 52  1  0
 22 53  1  0
 23 54  1  0
 25 55  1  0
 26 56  1  0
 27 57  1  0
 28 58  1  0
 30 59  1  0
 31 60  1  0
 31 61  1  0
 32 62  1  0
 32 63  1  0
M  END
>  <smiles>  (13) 
CCC(=O)N(c1ccccc1)C1CCN(C(=O)[C@H](N)Cc2ccc3ccccc3c2)CC1

>  <score_type>  (13) 
oracle

>  <origin>  (13) 
autodockgpu

>  <m_score__min__energy>  (13) 
-8.6799999999999997

>  <m_primary>  (13) 
energy

>  <rmsd>  (13) 
5.790994082102899

>  <m_score__min__rmsd>  (13) 
5.790994082102899

>  <meeko>  (13) 
{"free_energy": -8.14, "intermolecular_energy": -10.52, "internal_energy": -2.7, "cluster_size": 34, "cluster_id": 3, "rank_in_cluster": 1}

>  <energy>  (13) 
-7.73

>  <cluster_rmsd>  (13) 
1.67

>  <cluster>  (13) 
1

$$$$

     RDKit          3D

 63 66  0  0  0  0  0  0  0  0999 V2000
  138.1090   80.7960  224.3760 C   0  0  0  0  0  0  0  0  0  0  0  0
  137.7600   80.4760  222.9480 C   0  0  0  0  0  0  0  0  0  0  0  0
  138.0280   79.0540  222.5820 C   0  0  0  0  0  0  0  0  0  0  0  0
  137.0020   78.3040  222.5860 O   0  0  0  0  0  0  0  0  0  0  0  0
  139.3340   78.5750  222.2560 N   0  0  0  0  0  0  0  0  0  0  0  0
  140.5350   79.2660  222.5120 C   0  0  0  0  0  0  0  0  0  0  0  0
  140.9980   80.2140  221.6110 C   0  0  0  0  0  0  0  0  0  0  0  0
  142.1900   80.9140  221.8310 C   0  0  0  0  0  0  0  0  0  0  0  0
  142.9610   80.7010  222.9480 C   0  0  0  0  0  0  0  0  0  0  0  0
  142.5120   79.7660  223.8470 C   0  0  0  0  0  0  0  0  0  0  0  0
  141.3240   79.0670  223.6290 C   0  0  0  0  0  0  0  0  0  0  0  0
  139.3840   77.2520  221.6470 C   0  0  0  0  0  0  0  0  0  0  0  0
  139.4680   76.1590  222.6540 C   0  0  0  0  0  0  0  0  0  0  0  0
  139.6490   74.8110  221.9690 C   0  0  0  0  0  0  0  0  0  0  0  0
  140.7000   74.8560  221.0020 N   0  0  0  0  0  0  0  0  0  0  0  0
  141.5640   73.7090  220.8740 C   0  0  0  0  0  0  0  0  0  0  0  0
  142.5300   73.7190  220.0270 O   0  0  0  0  0  0  0  0  0  0  0  0
  141.4300   72.4790  221.6640 C   0  0  2  0  0  0  0  0  0  0  0  0
  142.3500   71.5070  221.0480 N   0  0  0  0  0  0  0  0  0  0  0  0
  140.0360   71.8890  221.6670 C   0  0  0  0  0  0  0  0  0  0  0  0
  139.8820   71.2430  223.0210 C   0  0  0  0  0  0  0  0  0  0  0  0
  139.1200   70.1060  223.1970 C   0  0  0  0  0  0  0  0  0  0  0  0
  139.0390   69.5880  224.4720 C   0  0  0  0  0  0  0  0  0  0  0  0
  139.6860   70.1670  225.5580 C   0  0  0  0  0  0  0  0  0  0  0  0
  139.5880   69.6280  226.8260 C   0  0  0  0  0  0  0  0  0  0  0  0
  140.2490   70.2320  227.8910 C   0  0  0  0  0  0  0  0  0  0  0  0
  141.0080   71.3690  227.7030 C   0  0  0  0  0  0  0  0  0  0  0  0
  141.1040   71.9040  226.4350 C   0  0  0  0  0  0  0  0  0  0  0  0
  140.4460   71.3100  225.3600 C   0  0  0  0  0  0  0  0  0  0  0  0
  140.5490   71.8580  224.0820 C   0  0  0  0  0  0  0  0  0  0  0  0
  140.9940   75.9570  220.1180 C   0  0  0  0  0  0  0  0  0  0  0  0
  140.2260   77.1650  220.4240 C   0  0  0  0  0  0  0  0  0  0  0  0
  137.4685   80.2087  225.0504 H   0  0  0  0  0  0  0  0  0  0  0  0
  139.1638   80.5446  224.5608 H   0  0  0  0  0  0  0  0  0  0  0  0
  137.9498   81.8686  224.5608 H   0  0  0  0  0  0  0  0  0  0  0  0
  136.6901   80.6807  222.7952 H   0  0  0  0  0  0  0  0  0  0  0  0
  138.3963   81.1041  222.3072 H   0  0  0  0  0  0  0  0  0  0  0  0
  140.4143   80.4205  220.7018 H   0  0  0  0  0  0  0  0  0  0  0  0
  142.5188   81.6558  221.0883 H   0  0  0  0  0  0  0  0  0  0  0  0
  143.8965   81.2551  223.1145 H   0  0  0  0  0  0  0  0  0  0  0  0
  143.0989   79.5641  224.7552 H   0  0  0  0  0  0  0  0  0  0  0  0
  141.0024   78.3273  224.3769 H   0  0  0  0  0  0  0  0  0  0  0  0
  138.4010   77.0597  221.1922 H   0  0  0  0  0  0  0  0  0  0  0  0
  140.3248   76.3447  223.3183 H   0  0  0  0  0  0  0  0  0  0  0  0
  138.5336   76.1391  223.2341 H   0  0  0  0  0  0  0  0  0  0  0  0
  139.8931   74.0534  222.7282 H   0  0  0  0  0  0  0  0  0  0  0  0
  138.7123   74.5564  221.4515 H   0  0  0  0  0  0  0  0  0  0  0  0
  141.6560   72.7121  222.7150 H   0  0  0  0  0  0  0  0  0  0  0  0
  142.1570   71.4950  220.0140 H   0  0  0  0  0  0  0  0  0  0  0  0
  143.3070   71.9270  221.1540 H   0  0  0  0  0  0  0  0  0  0  0  0
  139.2828   72.6786  221.5286 H   0  0  0  0  0  0  0  0  0  0  0  0
  139.8936   71.1674  220.8490 H   0  0  0  0  0  0  0  0  0  0  0  0
  138.5977   69.6316  222.3531 H   0  0  0  0  0  0  0  0  0  0  0  0
  138.4389   68.6809  224.6367 H   0  0  0  0  0  0  0  0  0  0  0  0
  138.9877   68.7217  226.9937 H   0  0  0  0  0  0  0  0  0  0  0  0
  140.1653   69.7967  228.8977 H   0  0  0  0  0  0  0  0  0  0  0  0
  141.5277   71.8408  228.5499 H   0  0  0  0  0  0  0  0  0  0  0  0
  141.7066   72.8095  226.2708 H   0  0  0  0  0  0  0  0  0  0  0  0
  141.1488   72.7643  223.9118 H   0  0  0  0  0  0  0  0  0  0  0  0
  142.0651   76.1940  220.1995 H   0  0  0  0  0  0  0  0  0  0  0  0
  140.7158   75.6424  219.1013 H   0  0  0  0  0  0  0  0  0  0  0  0
  140.9520   77.9891  220.4857 H   0  0  0  0  0  0  0  0  0  0  0  0
  139.4795   77.1862  219.6163 H   0  0  0  0  0  0  0  0  0  0  0  0
  1  2  1  0
  2  3  1  0
  3  4  2  0
  3  5  1  0
  5  6  1  0
  6  7  2  0
  7  8  1  0
  8  9  2  0
  9 10  1  0
 10 11  2  0
  5 12  1  0
 12 13  1  0
 13 14  1  0
 14 15  1  0
 15 16  1  0
 16 17  2  0
 16 18  1  0
 18 19  1  0
 18 20  1  0
 20 21  1  0
 21 22  2  0
 22 23  1  0
 23 24  2  0
 24 25  1  0
 25 26  2  0
 26 27  1  0
 27 28  2  0
 28 29  1  0
 29 30  2  0
 15 31  1  0
 31 32  1  0
 11  6  1  0
 32 12  1  0
 30 21  1  0
 29 24  1  0
  1 33  1  0
  1 34  1  0
  1 35  1  0
  2 36  1  0
  2 37  1  0
  7 38  1  0
  8 39  1  0
  9 40  1  0
 10 41  1  0
 11 42  1  0
 12 43  1  0
 13 44  1  0
 13 45  1  0
 14 46  1  0
 14 47  1  0
 18 48  1  1
 19 49  1  0
 19 50  1  0
 20 51  1  0
 20 52  1  0
 22 53  1  0
 23 54  1  0
 25 55  1  0
 26 56  1  0
 27 57  1  0
 28 58  1  0
 30 59  1  0
 31 60  1  0
 31 61  1  0
 32 62  1  0
 32 63  1  0
M  END
>  <smiles>  (14) 
CCC(=O)N(c1ccccc1)C1CCN(C(=O)[C@H](N)Cc2ccc3ccccc3c2)CC1

>  <score_type>  (14) 
oracle

>  <origin>  (14) 
autodockgpu

>  <m_score__min__energy>  (14) 
-8.6799999999999997

>  <m_primary>  (14) 
energy

>  <rmsd>  (14) 
5.7879424099374965

>  <m_score__min__rmsd>  (14) 
5.7879424099374965

>  <meeko>  (14) 
{"free_energy": -8.1, "intermolecular_energy": -10.49, "internal_energy": -2.76, "cluster_size": 34, "cluster_id": 3, "rank_in_cluster": 4}

>  <energy>  (14) 
-7.73

>  <cluster_rmsd>  (14) 
1.35

>  <cluster>  (14) 
1

$$$$

     RDKit          3D

 63 66  0  0  0  0  0  0  0  0999 V2000
  138.0290   80.7060  224.4740 C   0  0  0  0  0  0  0  0  0  0  0  0
  137.6980   80.5890  223.0100 C   0  0  0  0  0  0  0  0  0  0  0  0
  137.8830   79.2080  222.4740 C   0  0  0  0  0  0  0  0  0  0  0  0
  136.8050   78.5630  222.2890 O   0  0  0  0  0  0  0  0  0  0  0  0
  139.1710   78.6570  222.1950 N   0  0  0  0  0  0  0  0  0  0  0  0
  140.3980   79.3070  222.4380 C   0  0  0  0  0  0  0  0  0  0  0  0
  141.1050   79.0450  223.6030 C   0  0  0  0  0  0  0  0  0  0  0  0
  142.3240   79.6760  223.8800 C   0  0  0  0  0  0  0  0  0  0  0  0
  142.8820   80.5850  223.0140 C   0  0  0  0  0  0  0  0  0  0  0  0
  142.1920   80.8520  221.8580 C   0  0  0  0  0  0  0  0  0  0  0  0
  140.9770   80.2230  221.5820 C   0  0  0  0  0  0  0  0  0  0  0  0
  139.1720   77.3050  221.6530 C   0  0  0  0  0  0  0  0  0  0  0  0
  139.3350   76.2640  222.7050 C   0  0  0  0  0  0  0  0  0  0  0  0
  139.4600   74.8820  222.0780 C   0  0  0  0  0  0  0  0  0  0  0  0
  140.4310   74.8720  221.0300 N   0  0  0  0  0  0  0  0  0  0  0  0
  141.2810   73.7160  220.8930 C   0  0  0  0  0  0  0  0  0  0  0  0
  142.1770   73.6790  219.9730 O   0  0  0  0  0  0  0  0  0  0  0  0
  141.2090   72.5280  221.7520 C   0  0  2  0  0  0  0  0  0  0  0  0
  142.1810   71.5720  221.1940 N   0  0  0  0  0  0  0  0  0  0  0  0
  139.8480   71.8670  221.7900 C   0  0  0  0  0  0  0  0  0  0  0  0
  139.7560   71.2240  223.1500 C   0  0  0  0  0  0  0  0  0  0  0  0
  139.0160   70.0790  223.3600 C   0  0  0  0  0  0  0  0  0  0  0  0
  138.9930   69.5640  224.6380 C   0  0  0  0  0  0  0  0  0  0  0  0
  139.6770   70.1530  225.6960 C   0  0  0  0  0  0  0  0  0  0  0  0
  139.6370   69.6170  226.9680 C   0  0  0  0  0  0  0  0  0  0  0  0
  140.3350   70.2310  228.0040 C   0  0  0  0  0  0  0  0  0  0  0  0
  141.0720   71.3760  227.7820 C   0  0  0  0  0  0  0  0  0  0  0  0
  141.1090   71.9090  226.5100 C   0  0  0  0  0  0  0  0  0  0  0  0
  140.4160   71.3040  225.4640 C   0  0  0  0  0  0  0  0  0  0  0  0
  140.4600   71.8500  224.1810 C   0  0  0  0  0  0  0  0  0  0  0  0
  140.6550   75.9260  220.0700 C   0  0  0  0  0  0  0  0  0  0  0  0
  139.9150   77.1510  220.3730 C   0  0  0  0  0  0  0  0  0  0  0  0
  137.1588   80.3984  225.0724 H   0  0  0  0  0  0  0  0  0  0  0  0
  138.8844   80.0557  224.7096 H   0  0  0  0  0  0  0  0  0  0  0  0
  138.2857   81.7493  224.7096 H   0  0  0  0  0  0  0  0  0  0  0  0
  136.6480   80.8828  222.8643 H   0  0  0  0  0  0  0  0  0  0  0  0
  138.3906   81.2469  222.4646 H   0  0  0  0  0  0  0  0  0  0  0  0
  140.6977   78.3237  224.3268 H   0  0  0  0  0  0  0  0  0  0  0  0
  142.8492   79.4374  224.8166 H   0  0  0  0  0  0  0  0  0  0  0  0
  143.8400   81.0773  223.2374 H   0  0  0  0  0  0  0  0  0  0  0  0
  142.6034   81.5737  221.1370 H   0  0  0  0  0  0  0  0  0  0  0  0
  140.4588   80.4672  220.6430 H   0  0  0  0  0  0  0  0  0  0  0  0
  138.1558   77.0952  221.2880 H   0  0  0  0  0  0  0  0  0  0  0  0
  140.2421   76.4793  223.2889 H   0  0  0  0  0  0  0  0  0  0  0  0
  138.4496   76.2781  223.3575 H   0  0  0  0  0  0  0  0  0  0  0  0
  139.7627   74.1630  222.8535 H   0  0  0  0  0  0  0  0  0  0  0  0
  138.4850   74.6061  221.6499 H   0  0  0  0  0  0  0  0  0  0  0  0
  141.4190   72.8328  222.7878 H   0  0  0  0  0  0  0  0  0  0  0  0
  141.9560   71.4470  220.1750 H   0  0  0  0  0  0  0  0  0  0  0  0
  143.1050   72.0700  221.2230 H   0  0  0  0  0  0  0  0  0  0  0  0
  139.0523   72.6158  221.6632 H   0  0  0  0  0  0  0  0  0  0  0  0
  139.7260   71.1327  220.9801 H   0  0  0  0  0  0  0  0  0  0  0  0
  138.4657   69.5958  222.5393 H   0  0  0  0  0  0  0  0  0  0  0  0
  138.4104   68.6507  224.8289 H   0  0  0  0  0  0  0  0  0  0  0  0
  139.0536   68.7050  227.1625 H   0  0  0  0  0  0  0  0  0  0  0  0
  140.2985   69.7971  229.0142 H   0  0  0  0  0  0  0  0  0  0  0  0
  141.6210   71.8560  228.6055 H   0  0  0  0  0  0  0  0  0  0  0  0
  141.6923   72.8220  226.3197 H   0  0  0  0  0  0  0  0  0  0  0  0
  141.0420   72.7623  223.9838 H   0  0  0  0  0  0  0  0  0  0  0  0
  141.7293   76.1618  220.0546 H   0  0  0  0  0  0  0  0  0  0  0  0
  140.2969   75.5613  219.0960 H   0  0  0  0  0  0  0  0  0  0  0  0
  140.6443   77.9736  220.3347 H   0  0  0  0  0  0  0  0  0  0  0  0
  139.1070   77.1342  219.6268 H   0  0  0  0  0  0  0  0  0  0  0  0
  1  2  1  0
  2  3  1  0
  3  4  2  0
  3  5  1  0
  5  6  1  0
  6  7  2  0
  7  8  1  0
  8  9  2  0
  9 10  1  0
 10 11  2  0
  5 12  1  0
 12 13  1  0
 13 14  1  0
 14 15  1  0
 15 16  1  0
 16 17  2  0
 16 18  1  0
 18 19  1  0
 18 20  1  0
 20 21  1  0
 21 22  2  0
 22 23  1  0
 23 24  2  0
 24 25  1  0
 25 26  2  0
 26 27  1  0
 27 28  2  0
 28 29  1  0
 29 30  2  0
 15 31  1  0
 31 32  1  0
 11  6  1  0
 32 12  1  0
 30 21  1  0
 29 24  1  0
  1 33  1  0
  1 34  1  0
  1 35  1  0
  2 36  1  0
  2 37  1  0
  7 38  1  0
  8 39  1  0
  9 40  1  0
 10 41  1  0
 11 42  1  0
 12 43  1  0
 13 44  1  0
 13 45  1  0
 14 46  1  0
 14 47  1  0
 18 48  1  1
 19 49  1  0
 19 50  1  0
 20 51  1  0
 20 52  1  0
 22 53  1  0
 23 54  1  0
 25 55  1  0
 26 56  1  0
 27 57  1  0
 28 58  1  0
 30 59  1  0
 31 60  1  0
 31 61  1  0
 32 62  1  0
 32 63  1  0
M  END
>  <smiles>  (15) 
CCC(=O)N(c1ccccc1)C1CCN(C(=O)[C@H](N)Cc2ccc3ccccc3c2)CC1

>  <score_type>  (15) 
oracle

>  <origin>  (15) 
autodockgpu

>  <m_score__min__energy>  (15) 
-8.6799999999999997

>  <m_primary>  (15) 
energy

>  <rmsd>  (15) 
5.821711424116692

>  <m_score__min__rmsd>  (15) 
5.821711424116692

>  <meeko>  (15) 
{"free_energy": -8.01, "intermolecular_energy": -10.4, "internal_energy": -2.85, "cluster_size": 34, "cluster_id": 3, "rank_in_cluster": 13}

>  <energy>  (15) 
-8.21

>  <cluster_rmsd>  (15) 
0.0

>  <cluster>  (15) 
2

$$$$

     RDKit          3D

 63 66  0  0  0  0  0  0  0  0999 V2000
  137.9580   80.7760  224.2160 C   0  0  0  0  0  0  0  0  0  0  0  0
  137.8950   80.9090  222.7190 C   0  0  0  0  0  0  0  0  0  0  0  0
  138.0540   79.6070  222.0060 C   0  0  0  0  0  0  0  0  0  0  0  0
  137.0210   79.2170  221.3780 O   0  0  0  0  0  0  0  0  0  0  0  0
  139.2710   78.8590  222.0300 N   0  0  0  0  0  0  0  0  0  0  0  0
  140.5150   79.3560  222.4680 C   0  0  0  0  0  0  0  0  0  0  0  0
  141.3390   80.0430  221.5880 C   0  0  0  0  0  0  0  0  0  0  0  0
  142.5840   80.5440  221.9870 C   0  0  0  0  0  0  0  0  0  0  0  0
  143.0530   80.3840  223.2680 C   0  0  0  0  0  0  0  0  0  0  0  0
  142.2460   79.7060  224.1480 C   0  0  0  0  0  0  0  0  0  0  0  0
  141.0060   79.2060  223.7510 C   0  0  0  0  0  0  0  0  0  0  0  0
  139.1650   77.4730  221.5970 C   0  0  0  0  0  0  0  0  0  0  0  0
  139.4340   76.5050  222.6960 C   0  0  0  0  0  0  0  0  0  0  0  0
  139.4400   75.0780  222.1650 C   0  0  0  0  0  0  0  0  0  0  0  0
  140.2670   74.9570  221.0070 N   0  0  0  0  0  0  0  0  0  0  0  0
  141.0610   73.7630  220.8520 C   0  0  0  0  0  0  0  0  0  0  0  0
  141.8300   73.6270  219.8320 O   0  0  0  0  0  0  0  0  0  0  0  0
  141.0680   72.6440  221.8020 C   0  0  2  0  0  0  0  0  0  0  0  0
  142.0640   71.6890  221.2860 N   0  0  0  0  0  0  0  0  0  0  0  0
  139.7390   71.9310  221.9340 C   0  0  0  0  0  0  0  0  0  0  0  0
  139.8160   71.1890  223.2450 C   0  0  0  0  0  0  0  0  0  0  0  0
  139.3450   69.8980  223.3730 C   0  0  0  0  0  0  0  0  0  0  0  0
  139.4590   69.3020  224.6100 C   0  0  0  0  0  0  0  0  0  0  0  0
  140.0210   69.9500  225.7050 C   0  0  0  0  0  0  0  0  0  0  0  0
  140.1230   69.3290  226.9350 C   0  0  0  0  0  0  0  0  0  0  0  0
  140.6910   70.0060  228.0100 C   0  0  0  0  0  0  0  0  0  0  0  0
  141.1590   71.2970  227.8700 C   0  0  0  0  0  0  0  0  0  0  0  0
  141.0560   71.9130  226.6400 C   0  0  0  0  0  0  0  0  0  0  0  0
  140.4880   71.2470  225.5550 C   0  0  0  0  0  0  0  0  0  0  0  0
  140.3880   71.8780  224.3150 C   0  0  0  0  0  0  0  0  0  0  0  0
  140.3950   75.9300  219.9490 C   0  0  0  0  0  0  0  0  0  0  0  0
  139.7330   77.2000  220.2490 C   0  0  0  0  0  0  0  0  0  0  0  0
  137.5316   81.6764  224.6824 H   0  0  0  0  0  0  0  0  0  0  0  0
  137.3825   79.8928  224.5302 H   0  0  0  0  0  0  0  0  0  0  0  0
  139.0059   80.6616  224.5302 H   0  0  0  0  0  0  0  0  0  0  0  0
  136.9202   81.3399  222.4469 H   0  0  0  0  0  0  0  0  0  0  0  0
  138.7317   81.5540  222.4125 H   0  0  0  0  0  0  0  0  0  0  0  0
  141.0058   80.1978  220.5512 H   0  0  0  0  0  0  0  0  0  0  0  0
  143.2040   81.0809  221.2539 H   0  0  0  0  0  0  0  0  0  0  0  0
  144.0316   80.7814  223.5753 H   0  0  0  0  0  0  0  0  0  0  0  0
  142.5833   79.5546  225.1840 H   0  0  0  0  0  0  0  0  0  0  0  0
  140.3930   78.6697  224.4903 H   0  0  0  0  0  0  0  0  0  0  0  0
  138.1047   77.2753  221.3807 H   0  0  0  0  0  0  0  0  0  0  0  0
  140.4141   76.7285  223.1425 H   0  0  0  0  0  0  0  0  0  0  0  0
  138.6407   76.5982  223.4522 H   0  0  0  0  0  0  0  0  0  0  0  0
  139.8205   74.4061  222.9484 H   0  0  0  0  0  0  0  0  0  0  0  0
  138.4109   74.8080  221.8855 H   0  0  0  0  0  0  0  0  0  0  0  0
  141.2953   73.0368  222.8040 H   0  0  0  0  0  0  0  0  0  0  0  0
  141.7780   71.4250  220.3090 H   0  0  0  0  0  0  0  0  0  0  0  0
  142.9500   72.2440  221.1830 H   0  0  0  0  0  0  0  0  0  0  0  0
  138.9121   72.6563  221.9494 H   0  0  0  0  0  0  0  0  0  0  0  0
  139.5508   71.2529  221.0886 H   0  0  0  0  0  0  0  0  0  0  0  0
  138.8964   69.3660  222.5212 H   0  0  0  0  0  0  0  0  0  0  0  0
  139.0911   68.2731  224.7366 H   0  0  0  0  0  0  0  0  0  0  0  0
  139.7555   68.3003  227.0644 H   0  0  0  0  0  0  0  0  0  0  0  0
  140.7682   69.5047  228.9861 H   0  0  0  0  0  0  0  0  0  0  0  0
  141.6064   71.8256  228.7246 H   0  0  0  0  0  0  0  0  0  0  0  0
  141.4262   72.9411  226.5139 H   0  0  0  0  0  0  0  0  0  0  0  0
  140.7556   72.9062  224.1823 H   0  0  0  0  0  0  0  0  0  0  0  0
  141.4645   76.1247  219.7809 H   0  0  0  0  0  0  0  0  0  0  0  0
  139.9058   75.5095  219.0580 H   0  0  0  0  0  0  0  0  0  0  0  0
  140.4731   77.9906  220.0565 H   0  0  0  0  0  0  0  0  0  0  0  0
  138.8355   77.1586  219.6143 H   0  0  0  0  0  0  0  0  0  0  0  0
  1  2  1  0
  2  3  1  0
  3  4  2  0
  3  5  1  0
  5  6  1  0
  6  7  2  0
  7  8  1  0
  8  9  2  0
  9 10  1  0
 10 11  2  0
  5 12  1  0
 12 13  1  0
 13 14  1  0
 14 15  1  0
 15 16  1  0
 16 17  2  0
 16 18  1  0
 18 19  1  0
 18 20  1  0
 20 21  1  0
 21 22  2  0
 22 23  1  0
 23 24  2  0
 24 25  1  0
 25 26  2  0
 26 27  1  0
 27 28  2  0
 28 29  1  0
 29 30  2  0
 15 31  1  0
 31 32  1  0
 11  6  1  0
 32 12  1  0
 30 21  1  0
 29 24  1  0
  1 33  1  0
  1 34  1  0
  1 35  1  0
  2 36  1  0
  2 37  1  0
  7 38  1  0
  8 39  1  0
  9 40  1  0
 10 41  1  0
 11 42  1  0
 12 43  1  0
 13 44  1  0
 13 45  1  0
 14 46  1  0
 14 47  1  0
 18 48  1  1
 19 49  1  0
 19 50  1  0
 20 51  1  0
 20 52  1  0
 22 53  1  0
 23 54  1  0
 25 55  1  0
 26 56  1  0
 27 57  1  0
 28 58  1  0
 30 59  1  0
 31 60  1  0
 31 61  1  0
 32 62  1  0
 32 63  1  0
M  END
>  <smiles>  (16) 
CCC(=O)N(c1ccccc1)C1CCN(C(=O)[C@H](N)Cc2ccc3ccccc3c2)CC1

>  <score_type>  (16) 
oracle

>  <origin>  (16) 
autodockgpu

>  <m_score__min__energy>  (16) 
-8.6799999999999997

>  <m_primary>  (16) 
energy

>  <rmsd>  (16) 
5.794301716920706

>  <m_score__min__rmsd>  (16) 
5.794301716920706

>  <meeko>  (16) 
{"free_energy": -7.84, "intermolecular_energy": -10.23, "internal_energy": -2.83, "cluster_size": 34, "cluster_id": 3, "rank_in_cluster": 34}

>  <energy>  (16) 
-8.14

>  <cluster_rmsd>  (16) 
0.0

>  <cluster>  (16) 
3

$$$$

     RDKit          3D

 63 66  0  0  0  0  0  0  0  0999 V2000
  142.4780   81.4070  217.7600 C   0  0  0  0  0  0  0  0  0  0  0  0
  141.4860   80.7720  218.6960 C   0  0  0  0  0  0  0  0  0  0  0  0
  141.9860   79.5080  219.3130 C   0  0  0  0  0  0  0  0  0  0  0  0
  142.7950   78.8500  218.5900 O   0  0  0  0  0  0  0  0  0  0  0  0
  141.5820   79.0740  220.6140 N   0  0  0  0  0  0  0  0  0  0  0  0
  141.7970   79.7920  221.8070 C   0  0  0  0  0  0  0  0  0  0  0  0
  140.7780   80.5630  222.3480 C   0  0  0  0  0  0  0  0  0  0  0  0
  140.9580   81.2930  223.5290 C   0  0  0  0  0  0  0  0  0  0  0  0
  142.1490   81.2840  224.2130 C   0  0  0  0  0  0  0  0  0  0  0  0
  143.1640   80.5230  223.6880 C   0  0  0  0  0  0  0  0  0  0  0  0
  142.9860   79.7960  222.5110 C   0  0  0  0  0  0  0  0  0  0  0  0
  140.8660   77.8070  220.6590 C   0  0  0  0  0  0  0  0  0  0  0  0
  141.0960   77.0610  221.9260 C   0  0  0  0  0  0  0  0  0  0  0  0
  140.4350   75.6910  221.8710 C   0  0  0  0  0  0  0  0  0  0  0  0
  140.7700   74.9990  220.6670 N   0  0  0  0  0  0  0  0  0  0  0  0
  141.0030   73.5780  220.7340 C   0  0  0  0  0  0  0  0  0  0  0  0
  141.3230   72.9260  219.6750 O   0  0  0  0  0  0  0  0  0  0  0  0
  140.9020   72.7790  221.9610 C   0  0  2  0  0  0  0  0  0  0  0  0
  141.5810   71.5060  221.6660 N   0  0  0  0  0  0  0  0  0  0  0  0
  139.4830   72.4810  222.3970 C   0  0  0  0  0  0  0  0  0  0  0  0
  139.6120   71.4560  223.4950 C   0  0  0  0  0  0  0  0  0  0  0  0
  139.1640   70.1620  223.3330 C   0  0  0  0  0  0  0  0  0  0  0  0
  139.3250   69.2970  224.3940 C   0  0  0  0  0  0  0  0  0  0  0  0
  139.9130   69.6840  225.5940 C   0  0  0  0  0  0  0  0  0  0  0  0
  140.0620   68.7970  226.6420 C   0  0  0  0  0  0  0  0  0  0  0  0
  140.6550   69.2180  227.8290 C   0  0  0  0  0  0  0  0  0  0  0  0
  141.1000   70.5150  227.9800 C   0  0  0  0  0  0  0  0  0  0  0  0
  140.9490   71.3980  226.9300 C   0  0  0  0  0  0  0  0  0  0  0  0
  140.3560   70.9910  225.7370 C   0  0  0  0  0  0  0  0  0  0  0  0
  140.2080   71.8900  224.6810 C   0  0  0  0  0  0  0  0  0  0  0  0
  140.9050   75.5900  219.3570 C   0  0  0  0  0  0  0  0  0  0  0  0
  140.8610   77.0530  219.3760 C   0  0  0  0  0  0  0  0  0  0  0  0
  143.2632   81.9096  218.3438 H   0  0  0  0  0  0  0  0  0  0  0  0
  142.9323   80.6314  217.1259 H   0  0  0  0  0  0  0  0  0  0  0  0
  141.9638   82.1443  217.1259 H   0  0  0  0  0  0  0  0  0  0  0  0
  141.2568   81.4868  219.5001 H   0  0  0  0  0  0  0  0  0  0  0  0
  140.5948   80.5167  218.1039 H   0  0  0  0  0  0  0  0  0  0  0  0
  139.8050   80.6016  221.8364 H   0  0  0  0  0  0  0  0  0  0  0  0
  140.1217   81.8908  223.9203 H   0  0  0  0  0  0  0  0  0  0  0  0
  142.2836   81.8607  225.1400 H   0  0  0  0  0  0  0  0  0  0  0  0
  144.1345   80.4860  224.2046 H   0  0  0  0  0  0  0  0  0  0  0  0
  143.8276   79.2008  222.1270 H   0  0  0  0  0  0  0  0  0  0  0  0
  139.7926   78.0370  220.7286 H   0  0  0  0  0  0  0  0  0  0  0  0
  142.1779   76.9341  222.0791 H   0  0  0  0  0  0  0  0  0  0  0  0
  140.6574   77.6322  222.7575 H   0  0  0  0  0  0  0  0  0  0  0  0
  140.7730   75.0956  222.7320 H   0  0  0  0  0  0  0  0  0  0  0  0
  139.3443   75.8313  221.8978 H   0  0  0  0  0  0  0  0  0  0  0  0
  141.3516   73.3495  222.7871 H   0  0  0  0  0  0  0  0  0  0  0  0
  141.0410   71.0260  220.9000 H   0  0  0  0  0  0  0  0  0  0  0  0
  142.5020   71.7760  221.2390 H   0  0  0  0  0  0  0  0  0  0  0  0
  138.9967   73.3922  222.7755 H   0  0  0  0  0  0  0  0  0  0  0  0
  138.8660   72.1141  221.5635 H   0  0  0  0  0  0  0  0  0  0  0  0
  138.6962   69.8328  222.3934 H   0  0  0  0  0  0  0  0  0  0  0  0
  138.9747   68.2597  224.2877 H   0  0  0  0  0  0  0  0  0  0  0  0
  139.7125   67.7591  226.5389 H   0  0  0  0  0  0  0  0  0  0  0  0
  140.7705   68.5056  228.6592 H   0  0  0  0  0  0  0  0  0  0  0  0
  141.5673   70.8400  228.9213 H   0  0  0  0  0  0  0  0  0  0  0  0
  141.3009   72.4348  227.0364 H   0  0  0  0  0  0  0  0  0  0  0  0
  140.5566   72.9285  224.7812 H   0  0  0  0  0  0  0  0  0  0  0  0
  141.8681   75.2749  218.9291 H   0  0  0  0  0  0  0  0  0  0  0  0
  140.0519   75.2456  218.7540 H   0  0  0  0  0  0  0  0  0  0  0  0
  141.7369   77.3988  218.8075 H   0  0  0  0  0  0  0  0  0  0  0  0
  139.8596   77.2683  218.9749 H   0  0  0  0  0  0  0  0  0  0  0  0
  1  2  1  0
  2  3  1  0
  3  4  2  0
  3  5  1  0
  5  6  1  0
  6  7  2  0
  7  8  1  0
  8  9  2  0
  9 10  1  0
 10 11  2  0
  5 12  1  0
 12 13  1  0
 13 14  1  0
 14 15  1  0
 15 16  1  0
 16 17  2  0
 16 18  1  0
 18 19  1  0
 18 20  1  0
 20 21  1  0
 21 22  2  0
 22 23  1  0
 23 24  2  0
 24 25  1  0
 25 26  2  0
 26 27  1  0
 27 28  2  0
 28 29  1  0
 29 30  2  0
 15 31  1  0
 31 32  1  0
 11  6  1  0
 32 12  1  0
 30 21  1  0
 29 24  1  0
  1 33  1  0
  1 34  1  0
  1 35  1  0
  2 36  1  0
  2 37  1  0
  7 38  1  0
  8 39  1  0
  9 40  1  0
 10 41  1  0
 11 42  1  0
 12 43  1  0
 13 44  1  0
 13 45  1  0
 14 46  1  0
 14 47  1  0
 18 48  1  1
 19 49  1  0
 19 50  1  0
 20 51  1  0
 20 52  1  0
 22 53  1  0
 23 54  1  0
 25 55  1  0
 26 56  1  0
 27 57  1  0
 28 58  1  0
 30 59  1  0
 31 60  1  0
 31 61  1  0
 32 62  1  0
 32 63  1  0
M  END
>  <smiles>  (17) 
CCC(=O)N(c1ccccc1)C1CCN(C(=O)[C@H](N)Cc2ccc3ccccc3c2)CC1

>  <score_type>  (17) 
oracle

>  <origin>  (17) 
autodockgpu

>  <m_score__min__energy>  (17) 
-8.6799999999999997

>  <m_primary>  (17) 
energy

>  <rmsd>  (17) 
5.6790236283274576

>  <m_score__min__rmsd>  (17) 
5.6790236283274576

>  <meeko>  (17) 
{"free_energy": -8.1, "intermolecular_energy": -10.49, "internal_energy": -2.52, "cluster_size": 14, "cluster_id": 1, "rank_in_cluster": 3}

>  <energy>  (17) 
-8.11

>  <cluster_rmsd>  (17) 
0.1

>  <cluster>  (17) 
3

$$$$

     RDKit          3D

 63 66  0  0  0  0  0  0  0  0999 V2000
  142.4930   78.4950  217.2380 C   0  0  0  0  0  0  0  0  0  0  0  0
  142.1070   78.8890  218.6380 C   0  0  0  0  0  0  0  0  0  0  0  0
  142.1990   77.7620  219.6130 C   0  0  0  0  0  0  0  0  0  0  0  0
  143.0670   76.8810  219.3230 O   0  0  0  0  0  0  0  0  0  0  0  0
  141.3740   77.6810  220.7760 N   0  0  0  0  0  0  0  0  0  0  0  0
  141.3180   78.6520  221.7960 C   0  0  0  0  0  0  0  0  0  0  0  0
  142.4390   79.4160  222.0930 C   0  0  0  0  0  0  0  0  0  0  0  0
  142.4200   80.3840  223.1030 C   0  0  0  0  0  0  0  0  0  0  0  0
  141.2950   80.6300  223.8510 C   0  0  0  0  0  0  0  0  0  0  0  0
  140.1800   79.8820  223.5670 C   0  0  0  0  0  0  0  0  0  0  0  0
  140.1970   78.9160  222.5600 C   0  0  0  0  0  0  0  0  0  0  0  0
  140.5140   76.5080  220.8560 C   0  0  0  0  0  0  0  0  0  0  0  0
  140.9020   75.5850  221.9570 C   0  0  0  0  0  0  0  0  0  0  0  0
  140.0600   74.3170  221.9170 C   0  0  0  0  0  0  0  0  0  0  0  0
  140.0320   73.7520  220.6060 N   0  0  0  0  0  0  0  0  0  0  0  0
  140.0720   72.3170  220.4750 C   0  0  0  0  0  0  0  0  0  0  0  0
  140.0660   71.7740  219.3110 O   0  0  0  0  0  0  0  0  0  0  0  0
  140.1250   71.3840  221.6070 C   0  0  2  0  0  0  0  0  0  0  0  0
  140.3070   70.0470  221.0150 N   0  0  0  0  0  0  0  0  0  0  0  0
  138.8750   71.3670  222.4610 C   0  0  0  0  0  0  0  0  0  0  0  0
  139.2810   70.6930  223.7470 C   0  0  0  0  0  0  0  0  0  0  0  0
  139.0920   69.3410  223.9450 C   0  0  0  0  0  0  0  0  0  0  0  0
  139.4960   68.8160  225.1540 C   0  0  0  0  0  0  0  0  0  0  0  0
  140.0720   69.5910  226.1540 C   0  0  0  0  0  0  0  0  0  0  0  0
  140.4680   69.0400  227.3570 C   0  0  0  0  0  0  0  0  0  0  0  0
  141.0420   69.8450  228.3350 C   0  0  0  0  0  0  0  0  0  0  0  0
  141.2250   71.1970  228.1260 C   0  0  0  0  0  0  0  0  0  0  0  0
  140.8290   71.7440  226.9230 C   0  0  0  0  0  0  0  0  0  0  0  0
  140.2520   70.9500  225.9350 C   0  0  0  0  0  0  0  0  0  0  0  0
  139.8550   71.5120  224.7210 C   0  0  0  0  0  0  0  0  0  0  0  0
  139.9650   74.4870  219.3650 C   0  0  0  0  0  0  0  0  0  0  0  0
  140.1310   75.9300  219.5400 C   0  0  0  0  0  0  0  0  0  0  0  0
  143.2623   77.7097  217.2770 H   0  0  0  0  0  0  0  0  0  0  0  0
  141.6079   78.1151  216.7068 H   0  0  0  0  0  0  0  0  0  0  0  0
  142.8910   79.3722  216.7068 H   0  0  0  0  0  0  0  0  0  0  0  0
  142.7768   79.6953  218.9715 H   0  0  0  0  0  0  0  0  0  0  0  0
  141.0555   79.2107  218.6087 H   0  0  0  0  0  0  0  0  0  0  0  0
  143.3644   79.2562  221.5202 H   0  0  0  0  0  0  0  0  0  0  0  0
  143.3324   80.9647  223.3036 H   0  0  0  0  0  0  0  0  0  0  0  0
  141.2878   81.3932  224.6431 H   0  0  0  0  0  0  0  0  0  0  0  0
  139.2573   80.0467  224.1428 H   0  0  0  0  0  0  0  0  0  0  0  0
  139.2798   78.3406  222.3662 H   0  0  0  0  0  0  0  0  0  0  0  0
  139.5225   76.8480  221.1897 H   0  0  0  0  0  0  0  0  0  0  0  0
  141.9633   75.3175  221.8470 H   0  0  0  0  0  0  0  0  0  0  0  0
  140.7341   76.0912  222.9191 H   0  0  0  0  0  0  0  0  0  0  0  0
  140.4870   73.5816  222.6147 H   0  0  0  0  0  0  0  0  0  0  0  0
  139.0303   74.5757  222.2048 H   0  0  0  0  0  0  0  0  0  0  0  0
  140.9388   71.6960  222.2782 H   0  0  0  0  0  0  0  0  0  0  0  0
  139.4950   69.8710  220.3700 H   0  0  0  0  0  0  0  0  0  0  0  0
  141.1500   70.1330  220.3940 H   0  0  0  0  0  0  0  0  0  0  0  0
  138.5278   72.3923  222.6563 H   0  0  0  0  0  0  0  0  0  0  0  0
  138.0467   70.8395  221.9652 H   0  0  0  0  0  0  0  0  0  0  0  0
  138.6372   68.7073  223.1694 H   0  0  0  0  0  0  0  0  0  0  0  0
  139.3569   67.7399  225.3348 H   0  0  0  0  0  0  0  0  0  0  0  0
  140.3294   67.9645  227.5415 H   0  0  0  0  0  0  0  0  0  0  0  0
  141.3550   69.3974  229.2898 H   0  0  0  0  0  0  0  0  0  0  0  0
  141.6787   71.8273  228.9050 H   0  0  0  0  0  0  0  0  0  0  0  0
  140.9706   72.8197  226.7421 H   0  0  0  0  0  0  0  0  0  0  0  0
  139.9926   72.5872  224.5338 H   0  0  0  0  0  0  0  0  0  0  0  0
  140.7607   74.1218  218.6990 H   0  0  0  0  0  0  0  0  0  0  0  0
  138.9634   74.3222  218.9412 H   0  0  0  0  0  0  0  0  0  0  0  0
  140.9054   76.2437  218.8245 H   0  0  0  0  0  0  0  0  0  0  0  0
  139.1071   76.3074  219.4015 H   0  0  0  0  0  0  0  0  0  0  0  0
  1  2  1  0
  2  3  1  0
  3  4  2  0
  3  5  1  0
  5  6  1  0
  6  7  2  0
  7  8  1  0
  8  9  2  0
  9 10  1  0
 10 11  2  0
  5 12  1  0
 12 13  1  0
 13 14  1  0
 14 15  1  0
 15 16  1  0
 16 17  2  0
 16 18  1  0
 18 19  1  0
 18 20  1  0
 20 21  1  0
 21 22  2  0
 22 23  1  0
 23 24  2  0
 24 25  1  0
 25 26  2  0
 26 27  1  0
 27 28  2  0
 28 29  1  0
 29 30  2  0
 15 31  1  0
 31 32  1  0
 11  6  1  0
 32 12  1  0
 30 21  1  0
 29 24  1  0
  1 33  1  0
  1 34  1  0
  1 35  1  0
  2 36  1  0
  2 37  1  0
  7 38  1  0
  8 39  1  0
  9 40  1  0
 10 41  1  0
 11 42  1  0
 12 43  1  0
 13 44  1  0
 13 45  1  0
 14 46  1  0
 14 47  1  0
 18 48  1  1
 19 49  1  0
 19 50  1  0
 20 51  1  0
 20 52  1  0
 22 53  1  0
 23 54  1  0
 25 55  1  0
 26 56  1  0
 27 57  1  0
 28 58  1  0
 30 59  1  0
 31 60  1  0
 31 61  1  0
 32 62  1  0
 32 63  1  0
M  END
>  <smiles>  (18) 
CCC(=O)N(c1ccccc1)C1CCN(C(=O)[C@H](N)Cc2ccc3ccccc3c2)CC1

>  <score_type>  (18) 
oracle

>  <origin>  (18) 
autodockgpu

>  <m_score__min__energy>  (18) 
-8.6799999999999997

>  <m_primary>  (18) 
energy

>  <rmsd>  (18) 
6.7039856748780515

>  <m_score__min__rmsd>  (18) 
6.7039856748780515

>  <meeko>  (18) 
{"free_energy": -7.86, "intermolecular_energy": -10.24, "internal_energy": -2.72, "cluster_size": 14, "cluster_id": 1, "rank_in_cluster": 10}

>  <energy>  (18) 
-8.1

>  <cluster_rmsd>  (18) 
0.09

>  <cluster>  (18) 
3

$$$$

     RDKit          3D

 63 66  0  0  0  0  0  0  0  0999 V2000
  137.9620   81.5090  223.0880 C   0  0  0  0  0  0  0  0  0  0  0  0
  137.8260   80.1360  223.6900 C   0  0  0  0  0  0  0  0  0  0  0  0
  138.0420   79.0370  222.7030 C   0  0  0  0  0  0  0  0  0  0  0  0
  136.9770   78.5230  222.2420 O   0  0  0  0  0  0  0  0  0  0  0  0
  139.3450   78.5990  222.3110 N   0  0  0  0  0  0  0  0  0  0  0  0
  140.5360   79.3220  222.5180 C   0  0  0  0  0  0  0  0  0  0  0  0
  141.3350   79.0470  223.6190 C   0  0  0  0  0  0  0  0  0  0  0  0
  142.5220   79.7500  223.8590 C   0  0  0  0  0  0  0  0  0  0  0  0
  142.9580   80.7440  223.0180 C   0  0  0  0  0  0  0  0  0  0  0  0
  142.1770   81.0240  221.9240 C   0  0  0  0  0  0  0  0  0  0  0  0
  140.9940   80.3250  221.6850 C   0  0  0  0  0  0  0  0  0  0  0  0
  139.4030   77.2850  221.6870 C   0  0  0  0  0  0  0  0  0  0  0  0
  139.4790   76.1790  222.6810 C   0  0  0  0  0  0  0  0  0  0  0  0
  139.6700   74.8400  221.9820 C   0  0  0  0  0  0  0  0  0  0  0  0
  140.7310   74.8980  221.0270 N   0  0  0  0  0  0  0  0  0  0  0  0
  141.5980   73.7540  220.8940 C   0  0  0  0  0  0  0  0  0  0  0  0
  142.5730   73.7770  220.0570 O   0  0  0  0  0  0  0  0  0  0  0  0
  141.4580   72.5140  221.6670 C   0  0  2  0  0  0  0  0  0  0  0  0
  142.3790   71.5490  221.0430 N   0  0  0  0  0  0  0  0  0  0  0  0
  140.0620   71.9270  221.6560 C   0  0  0  0  0  0  0  0  0  0  0  0
  139.8890   71.2920  223.0130 C   0  0  0  0  0  0  0  0  0  0  0  0
  139.0780   70.1910  223.1960 C   0  0  0  0  0  0  0  0  0  0  0  0
  138.9830   69.6800  224.4730 C   0  0  0  0  0  0  0  0  0  0  0  0
  139.6630   70.2300  225.5540 C   0  0  0  0  0  0  0  0  0  0  0  0
  139.5500   69.6990  226.8240 C   0  0  0  0  0  0  0  0  0  0  0  0
  140.2460   70.2750  227.8820 C   0  0  0  0  0  0  0  0  0  0  0  0
  141.0550   71.3760  227.6860 C   0  0  0  0  0  0  0  0  0  0  0  0
  141.1650   71.9040  226.4160 C   0  0  0  0  0  0  0  0  0  0  0  0
  140.4740   71.3380  225.3470 C   0  0  0  0  0  0  0  0  0  0  0  0
  140.5920   71.8780  224.0670 C   0  0  0  0  0  0  0  0  0  0  0  0
  141.0320   76.0110  220.1590 C   0  0  0  0  0  0  0  0  0  0  0  0
  140.2590   77.2130  220.4720 C   0  0  0  0  0  0  0  0  0  0  0  0
  138.0360   82.2562  223.8919 H   0  0  0  0  0  0  0  0  0  0  0  0
  138.8685   81.5485  222.4661 H   0  0  0  0  0  0  0  0  0  0  0  0
  137.0809   81.7256  222.4661 H   0  0  0  0  0  0  0  0  0  0  0  0
  138.5674   80.0327  224.4960 H   0  0  0  0  0  0  0  0  0  0  0  0
  136.7951   80.0430  224.0623 H   0  0  0  0  0  0  0  0  0  0  0  0
  141.0282   78.2572  224.3205 H   0  0  0  0  0  0  0  0  0  0  0  0
  143.1220   79.4989  224.7461 H   0  0  0  0  0  0  0  0  0  0  0  0
  143.8919   81.2919  223.2122 H   0  0  0  0  0  0  0  0  0  0  0  0
  142.4896   81.8130  221.2242 H   0  0  0  0  0  0  0  0  0  0  0  0
  140.4003   80.5830  220.7956 H   0  0  0  0  0  0  0  0  0  0  0  0
  138.4244   77.0991  221.2203 H   0  0  0  0  0  0  0  0  0  0  0  0
  140.3285   76.3582  223.3565 H   0  0  0  0  0  0  0  0  0  0  0  0
  138.5384   76.1498  223.2505 H   0  0  0  0  0  0  0  0  0  0  0  0
  139.9073   74.0738  222.7347 H   0  0  0  0  0  0  0  0  0  0  0  0
  138.7394   74.5903  221.4513 H   0  0  0  0  0  0  0  0  0  0  0  0
  141.6795   72.7323  222.7221 H   0  0  0  0  0  0  0  0  0  0  0  0
  142.1900   71.5500  220.0080 H   0  0  0  0  0  0  0  0  0  0  0  0
  143.3360   71.9660  221.1590 H   0  0  0  0  0  0  0  0  0  0  0  0
  139.3125   72.7172  221.5016 H   0  0  0  0  0  0  0  0  0  0  0  0
  139.9284   71.1995  220.8418 H   0  0  0  0  0  0  0  0  0  0  0  0
  138.5292   69.7390  222.3567 H   0  0  0  0  0  0  0  0  0  0  0  0
  138.3433   68.8015  224.6436 H   0  0  0  0  0  0  0  0  0  0  0  0
  138.9103   68.8214  226.9988 H   0  0  0  0  0  0  0  0  0  0  0  0
  140.1501   69.8463  228.8905 H   0  0  0  0  0  0  0  0  0  0  0  0
  141.6026   71.8248  228.5278 H   0  0  0  0  0  0  0  0  0  0  0  0
  141.8056   72.7818  226.2457 H   0  0  0  0  0  0  0  0  0  0  0  0
  141.2314   72.7553  223.8898 H   0  0  0  0  0  0  0  0  0  0  0  0
  142.1017   76.2489  220.2542 H   0  0  0  0  0  0  0  0  0  0  0  0
  140.7648   75.7084  219.1358 H   0  0  0  0  0  0  0  0  0  0  0  0
  140.9831   78.0372  220.5516 H   0  0  0  0  0  0  0  0  0  0  0  0
  139.5208   77.2419  219.6570 H   0  0  0  0  0  0  0  0  0  0  0  0
  1  2  1  0
  2  3  1  0
  3  4  2  0
  3  5  1  0
  5  6  1  0
  6  7  2  0
  7  8  1  0
  8  9  2  0
  9 10  1  0
 10 11  2  0
  5 12  1  0
 12 13  1  0
 13 14  1  0
 14 15  1  0
 15 16  1  0
 16 17  2  0
 16 18  1  0
 18 19  1  0
 18 20  1  0
 20 21  1  0
 21 22  2  0
 22 23  1  0
 23 24  2  0
 24 25  1  0
 25 26  2  0
 26 27  1  0
 27 28  2  0
 28 29  1  0
 29 30  2  0
 15 31  1  0
 31 32  1  0
 11  6  1  0
 32 12  1  0
 30 21  1  0
 29 24  1  0
  1 33  1  0
  1 34  1  0
  1 35  1  0
  2 36  1  0
  2 37  1  0
  7 38  1  0
  8 39  1  0
  9 40  1  0
 10 41  1  0
 11 42  1  0
 12 43  1  0
 13 44  1  0
 13 45  1  0
 14 46  1  0
 14 47  1  0
 18 48  1  1
 19 49  1  0
 19 50  1  0
 20 51  1  0
 20 52  1  0
 22 53  1  0
 23 54  1  0
 25 55  1  0
 26 56  1  0
 27 57  1  0
 28 58  1  0
 30 59  1  0
 31 60  1  0
 31 61  1  0
 32 62  1  0
 32 63  1  0
M  END
>  <smiles>  (19) 
CCC(=O)N(c1ccccc1)C1CCN(C(=O)[C@H](N)Cc2ccc3ccccc3c2)CC1

>  <score_type>  (19) 
oracle

>  <origin>  (19) 
autodockgpu

>  <m_score__min__energy>  (19) 
-8.6799999999999997

>  <m_primary>  (19) 
energy

>  <rmsd>  (19) 
5.754509844270182

>  <m_score__min__rmsd>  (19) 
5.754509844270182

>  <meeko>  (19) 
{"free_energy": -7.96, "intermolecular_energy": -10.35, "internal_energy": -2.78, "cluster_size": 34, "cluster_id": 3, "rank_in_cluster": 24}

>  <energy>  (19) 
-8.1

>  <cluster_rmsd>  (19) 
0.08

>  <cluster>  (19) 
3

$$$$

     RDKit          3D

 63 66  0  0  0  0  0  0  0  0999 V2000
  138.1140   80.8070  224.3690 C   0  0  0  0  0  0  0  0  0  0  0  0
  137.7420   80.4610  222.9530 C   0  0  0  0  0  0  0  0  0  0  0  0
  138.0160   79.0360  222.6030 C   0  0  0  0  0  0  0  0  0  0  0  0
  136.9970   78.2790  222.6280 O   0  0  0  0  0  0  0  0  0  0  0  0
  139.3220   78.5630  222.2700 N   0  0  0  0  0  0  0  0  0  0  0  0
  140.5220   79.2580  222.5220 C   0  0  0  0  0  0  0  0  0  0  0  0
  140.9850   80.1990  221.6120 C   0  0  0  0  0  0  0  0  0  0  0  0
  142.1750   80.9040  221.8270 C   0  0  0  0  0  0  0  0  0  0  0  0
  142.9450   80.7020  222.9470 C   0  0  0  0  0  0  0  0  0  0  0  0
  142.4970   79.7750  223.8540 C   0  0  0  0  0  0  0  0  0  0  0  0
  141.3110   79.0710  223.6410 C   0  0  0  0  0  0  0  0  0  0  0  0
  139.3750   77.2420  221.6600 C   0  0  0  0  0  0  0  0  0  0  0  0
  139.4620   76.1470  222.6650 C   0  0  0  0  0  0  0  0  0  0  0  0
  139.6450   74.8000  221.9790 C   0  0  0  0  0  0  0  0  0  0  0  0
  140.6950   74.8480  221.0120 N   0  0  0  0  0  0  0  0  0  0  0  0
  141.5620   73.7030  220.8810 C   0  0  0  0  0  0  0  0  0  0  0  0
  142.5270   73.7170  220.0340 O   0  0  0  0  0  0  0  0  0  0  0  0
  141.4300   72.4710  221.6690 C   0  0  2  0  0  0  0  0  0  0  0  0
  142.3560   71.5040  221.0550 N   0  0  0  0  0  0  0  0  0  0  0  0
  140.0380   71.8760  221.6680 C   0  0  0  0  0  0  0  0  0  0  0  0
  139.8800   71.2350  223.0240 C   0  0  0  0  0  0  0  0  0  0  0  0
  139.1000   70.1110  223.2050 C   0  0  0  0  0  0  0  0  0  0  0  0
  139.0160   69.5970  224.4810 C   0  0  0  0  0  0  0  0  0  0  0  0
  139.6780   70.1660  225.5630 C   0  0  0  0  0  0  0  0  0  0  0  0
  139.5770   69.6310  226.8330 C   0  0  0  0  0  0  0  0  0  0  0  0
  140.2530   70.2260  227.8930 C   0  0  0  0  0  0  0  0  0  0  0  0
  141.0300   71.3500  227.7010 C   0  0  0  0  0  0  0  0  0  0  0  0
  141.1280   71.8810  226.4310 C   0  0  0  0  0  0  0  0  0  0  0  0
  140.4560   71.2970  225.3600 C   0  0  0  0  0  0  0  0  0  0  0  0
  140.5620   71.8410  224.0800 C   0  0  0  0  0  0  0  0  0  0  0  0
  140.9870   75.9520  220.1280 C   0  0  0  0  0  0  0  0  0  0  0  0
  140.2170   77.1570  220.4370 C   0  0  0  0  0  0  0  0  0  0  0  0
  137.4899   80.2265  225.0644 H   0  0  0  0  0  0  0  0  0  0  0  0
  139.1737   80.5661  224.5390 H   0  0  0  0  0  0  0  0  0  0  0  0
  137.9504   81.8814  224.5390 H   0  0  0  0  0  0  0  0  0  0  0  0
  136.6676   80.6537  222.8170 H   0  0  0  0  0  0  0  0  0  0  0  0
  138.3614   81.0844  222.2914 H   0  0  0  0  0  0  0  0  0  0  0  0
  140.4024   80.3952  220.6998 H   0  0  0  0  0  0  0  0  0  0  0  0
  142.5029   81.6403  221.0784 H   0  0  0  0  0  0  0  0  0  0  0  0
  143.8796   81.2590  223.1094 H   0  0  0  0  0  0  0  0  0  0  0  0
  143.0829   79.5834  224.7650 H   0  0  0  0  0  0  0  0  0  0  0  0
  140.9910   78.3368  224.3951 H   0  0  0  0  0  0  0  0  0  0  0  0
  138.3916   77.0503  221.2058 H   0  0  0  0  0  0  0  0  0  0  0  0
  140.3190   76.3335  223.3289 H   0  0  0  0  0  0  0  0  0  0  0  0
  138.5277   76.1244  223.2451 H   0  0  0  0  0  0  0  0  0  0  0  0
  139.8909   74.0422  222.7375 H   0  0  0  0  0  0  0  0  0  0  0  0
  138.7085   74.5439  221.4619 H   0  0  0  0  0  0  0  0  0  0  0  0
  141.6516   72.7032  222.7211 H   0  0  0  0  0  0  0  0  0  0  0  0
  142.1620   71.4880  220.0220 H   0  0  0  0  0  0  0  0  0  0  0  0
  143.3100   71.9310  221.1600 H   0  0  0  0  0  0  0  0  0  0  0  0
  139.2826   72.6624  221.5229 H   0  0  0  0  0  0  0  0  0  0  0  0
  139.9019   71.1506  220.8524 H   0  0  0  0  0  0  0  0  0  0  0  0
  138.5665   69.6438  222.3641 H   0  0  0  0  0  0  0  0  0  0  0  0
  138.4007   68.7010  224.6500 H   0  0  0  0  0  0  0  0  0  0  0  0
  138.9624   68.7352  227.0056 H   0  0  0  0  0  0  0  0  0  0  0  0
  140.1668   69.7935  228.9007 H   0  0  0  0  0  0  0  0  0  0  0  0
  141.5615   71.8143  228.5448 H   0  0  0  0  0  0  0  0  0  0  0  0
  141.7444   72.7764  226.2625 H   0  0  0  0  0  0  0  0  0  0  0  0
  141.1758   72.7369  223.9050 H   0  0  0  0  0  0  0  0  0  0  0  0
  142.0577   76.1910  220.2090 H   0  0  0  0  0  0  0  0  0  0  0  0
  140.7093   75.6385  219.1108 H   0  0  0  0  0  0  0  0  0  0  0  0
  140.9416   77.9822  220.4997 H   0  0  0  0  0  0  0  0  0  0  0  0
  139.4696   77.1767  219.6302 H   0  0  0  0  0  0  0  0  0  0  0  0
  1  2  1  0
  2  3  1  0
  3  4  2  0
  3  5  1  0
  5  6  1  0
  6  7  2  0
  7  8  1  0
  8  9  2  0
  9 10  1  0
 10 11  2  0
  5 12  1  0
 12 13  1  0
 13 14  1  0
 14 15  1  0
 15 16  1  0
 16 17  2  0
 16 18  1  0
 18 19  1  0
 18 20  1  0
 20 21  1  0
 21 22  2  0
 22 23  1  0
 23 24  2  0
 24 25  1  0
 25 26  2  0
 26 27  1  0
 27 28  2  0
 28 29  1  0
 29 30  2  0
 15 31  1  0
 31 32  1  0
 11  6  1  0
 32 12  1  0
 30 21  1  0
 29 24  1  0
  1 33  1  0
  1 34  1  0
  1 35  1  0
  2 36  1  0
  2 37  1  0
  7 38  1  0
  8 39  1  0
  9 40  1  0
 10 41  1  0
 11 42  1  0
 12 43  1  0
 13 44  1  0
 13 45  1  0
 14 46  1  0
 14 47  1  0
 18 48  1  1
 19 49  1  0
 19 50  1  0
 20 51  1  0
 20 52  1  0
 22 53  1  0
 23 54  1  0
 25 55  1  0
 26 56  1  0
 27 57  1  0
 28 58  1  0
 30 59  1  0
 31 60  1  0
 31 61  1  0
 32 62  1  0
 32 63  1  0
M  END
>  <smiles>  (20) 
CCC(=O)N(c1ccccc1)C1CCN(C(=O)[C@H](N)Cc2ccc3ccccc3c2)CC1

>  <score_type>  (20) 
oracle

>  <origin>  (20) 
autodockgpu

>  <m_score__min__energy>  (20) 
-8.6799999999999997

>  <m_primary>  (20) 
energy

>  <rmsd>  (20) 
5.795964159651999

>  <m_score__min__rmsd>  (20) 
5.795964159651999

>  <meeko>  (20) 
{"free_energy": -8.1, "intermolecular_energy": -10.49, "internal_energy": -2.78, "cluster_size": 34, "cluster_id": 3, "rank_in_cluster": 6}

>  <energy>  (20) 
-8.1

>  <cluster_rmsd>  (20) 
0.07

>  <cluster>  (20) 
3

$$$$

     RDKit          3D

 63 66  0  0  0  0  0  0  0  0999 V2000
  138.0560   80.8330  224.3970 C   0  0  0  0  0  0  0  0  0  0  0  0
  137.8740   80.6620  222.9130 C   0  0  0  0  0  0  0  0  0  0  0  0
  138.0360   79.2490  222.4590 C   0  0  0  0  0  0  0  0  0  0  0  0
  136.9460   78.6200  222.2870 O   0  0  0  0  0  0  0  0  0  0  0  0
  139.3150   78.6530  222.2380 N   0  0  0  0  0  0  0  0  0  0  0  0
  140.5510   79.2540  222.5500 C   0  0  0  0  0  0  0  0  0  0  0  0
  141.0580   79.1750  223.8400 C   0  0  0  0  0  0  0  0  0  0  0  0
  142.2790   79.7660  224.1860 C   0  0  0  0  0  0  0  0  0  0  0  0
  143.0390   80.4510  223.2700 C   0  0  0  0  0  0  0  0  0  0  0  0
  142.5490   80.5350  221.9900 C   0  0  0  0  0  0  0  0  0  0  0  0
  141.3310   79.9470  221.6440 C   0  0  0  0  0  0  0  0  0  0  0  0
  139.2940   77.3080  221.6800 C   0  0  0  0  0  0  0  0  0  0  0  0
  139.4540   76.2530  222.7180 C   0  0  0  0  0  0  0  0  0  0  0  0
  139.5550   74.8770  222.0750 C   0  0  0  0  0  0  0  0  0  0  0  0
  140.5150   74.8670  221.0170 N   0  0  0  0  0  0  0  0  0  0  0  0
  141.3500   73.7020  220.8580 C   0  0  0  0  0  0  0  0  0  0  0  0
  142.2360   73.6640  219.9290 O   0  0  0  0  0  0  0  0  0  0  0  0
  141.2710   72.5050  221.7050 C   0  0  2  0  0  0  0  0  0  0  0  0
  142.2300   71.5460  221.1300 N   0  0  0  0  0  0  0  0  0  0  0  0
  139.9030   71.8570  221.7430 C   0  0  0  0  0  0  0  0  0  0  0  0
  139.8110   71.2050  223.0990 C   0  0  0  0  0  0  0  0  0  0  0  0
  139.0990   70.0390  223.2940 C   0  0  0  0  0  0  0  0  0  0  0  0
  139.0730   69.5180  224.5690 C   0  0  0  0  0  0  0  0  0  0  0  0
  139.7270   70.1200  225.6390 C   0  0  0  0  0  0  0  0  0  0  0  0
  139.6840   69.5770  226.9080 C   0  0  0  0  0  0  0  0  0  0  0  0
  140.3500   70.2060  227.9560 C   0  0  0  0  0  0  0  0  0  0  0  0
  141.0590   71.3720  227.7490 C   0  0  0  0  0  0  0  0  0  0  0  0
  141.0990   71.9110  226.4800 C   0  0  0  0  0  0  0  0  0  0  0  0
  140.4360   71.2930  225.4220 C   0  0  0  0  0  0  0  0  0  0  0  0
  140.4830   71.8450  224.1420 C   0  0  0  0  0  0  0  0  0  0  0  0
  140.7430   75.9290  220.0670 C   0  0  0  0  0  0  0  0  0  0  0  0
  140.0220   77.1600  220.3920 C   0  0  0  0  0  0  0  0  0  0  0  0
  137.3550   80.1744  224.9307 H   0  0  0  0  0  0  0  0  0  0  0  0
  139.0880   80.5702  224.6725 H   0  0  0  0  0  0  0  0  0  0  0  0
  137.8580   81.8794  224.6725 H   0  0  0  0  0  0  0  0  0  0  0  0
  136.8632   81.0020  222.6434 H   0  0  0  0  0  0  0  0  0  0  0  0
  138.6560   81.2560  222.4174 H   0  0  0  0  0  0  0  0  0  0  0  0
  140.4863   78.6348  224.6090 H   0  0  0  0  0  0  0  0  0  0  0  0
  142.6400   79.6792  225.2214 H   0  0  0  0  0  0  0  0  0  0  0  0
  143.9979   80.9120  223.5493 H   0  0  0  0  0  0  0  0  0  0  0  0
  143.1258   81.0746  221.2245 H   0  0  0  0  0  0  0  0  0  0  0  0
  140.9773   80.0392  220.6065 H   0  0  0  0  0  0  0  0  0  0  0  0
  138.2719   77.1152  221.3220 H   0  0  0  0  0  0  0  0  0  0  0  0
  140.3695   76.4500  223.2951 H   0  0  0  0  0  0  0  0  0  0  0  0
  138.5750   76.2709  223.3791 H   0  0  0  0  0  0  0  0  0  0  0  0
  139.8567   74.1457  222.8393 H   0  0  0  0  0  0  0  0  0  0  0  0
  138.5723   74.6177  221.6542 H   0  0  0  0  0  0  0  0  0  0  0  0
  141.4899   72.7957  222.7431 H   0  0  0  0  0  0  0  0  0  0  0  0
  141.9970   71.4340  220.1100 H   0  0  0  0  0  0  0  0  0  0  0  0
  143.1590   72.0340  221.1570 H   0  0  0  0  0  0  0  0  0  0  0  0
  139.1141   72.6145  221.6251 H   0  0  0  0  0  0  0  0  0  0  0  0
  139.7699   71.1304  220.9280 H   0  0  0  0  0  0  0  0  0  0  0  0
  138.5729   69.5450  222.4639 H   0  0  0  0  0  0  0  0  0  0  0  0
  138.5126   68.5886  224.7482 H   0  0  0  0  0  0  0  0  0  0  0  0
  139.1238   68.6481  227.0905 H   0  0  0  0  0  0  0  0  0  0  0  0
  140.3107   69.7674  228.9640 H   0  0  0  0  0  0  0  0  0  0  0  0
  141.5833   71.8631  228.5820 H   0  0  0  0  0  0  0  0  0  0  0  0
  141.6609   72.8396  226.3013 H   0  0  0  0  0  0  0  0  0  0  0  0
  141.0429   72.7735  223.9565 H   0  0  0  0  0  0  0  0  0  0  0  0
  141.8201   76.1510  220.0432 H   0  0  0  0  0  0  0  0  0  0  0  0
  140.3703   75.5804  219.0925 H   0  0  0  0  0  0  0  0  0  0  0  0
  140.7617   77.9734  220.3565 H   0  0  0  0  0  0  0  0  0  0  0  0
  139.2067   77.1628  219.6536 H   0  0  0  0  0  0  0  0  0  0  0  0
  1  2  1  0
  2  3  1  0
  3  4  2  0
  3  5  1  0
  5  6  1  0
  6  7  2  0
  7  8  1  0
  8  9  2  0
  9 10  1  0
 10 11  2  0
  5 12  1  0
 12 13  1  0
 13 14  1  0
 14 15  1  0
 15 16  1  0
 16 17  2  0
 16 18  1  0
 18 19  1  0
 18 20  1  0
 20 21  1  0
 21 22  2  0
 22 23  1  0
 23 24  2  0
 24 25  1  0
 25 26  2  0
 26 27  1  0
 27 28  2  0
 28 29  1  0
 29 30  2  0
 15 31  1  0
 31 32  1  0
 11  6  1  0
 32 12  1  0
 30 21  1  0
 29 24  1  0
  1 33  1  0
  1 34  1  0
  1 35  1  0
  2 36  1  0
  2 37  1  0
  7 38  1  0
  8 39  1  0
  9 40  1  0
 10 41  1  0
 11 42  1  0
 12 43  1  0
 13 44  1  0
 13 45  1  0
 14 46  1  0
 14 47  1  0
 18 48  1  1
 19 49  1  0
 19 50  1  0
 20 51  1  0
 20 52  1  0
 22 53  1  0
 23 54  1  0
 25 55  1  0
 26 56  1  0
 27 57  1  0
 28 58  1  0
 30 59  1  0
 31 60  1  0
 31 61  1  0
 32 62  1  0
 32 63  1  0
M  END
>  <smiles>  (21) 
CCC(=O)N(c1ccccc1)C1CCN(C(=O)[C@H](N)Cc2ccc3ccccc3c2)CC1

>  <score_type>  (21) 
oracle

>  <origin>  (21) 
autodockgpu

>  <m_score__min__energy>  (21) 
-8.6799999999999997

>  <m_primary>  (21) 
energy

>  <rmsd>  (21) 
5.811406541969682

>  <m_score__min__rmsd>  (21) 
5.811406541969682

>  <meeko>  (21) 
{"free_energy": -8.04, "intermolecular_energy": -10.43, "internal_energy": -2.83, "cluster_size": 34, "cluster_id": 3, "rank_in_cluster": 12}

>  <energy>  (21) 
-8.1

>  <cluster_rmsd>  (21) 
0.08

>  <cluster>  (21) 
3

$$$$

     RDKit          3D

 63 66  0  0  0  0  0  0  0  0999 V2000
  146.3060   73.6870  221.3450 C   0  0  0  0  0  0  0  0  0  0  0  0
  145.9950   72.6860  220.2650 C   0  0  0  0  0  0  0  0  0  0  0  0
  145.3070   73.2890  219.0850 C   0  0  0  0  0  0  0  0  0  0  0  0
  145.9380   73.1740  217.9880 O   0  0  0  0  0  0  0  0  0  0  0  0
  144.0420   73.9450  219.1840 N   0  0  0  0  0  0  0  0  0  0  0  0
  143.5790   74.9450  218.3050 C   0  0  0  0  0  0  0  0  0  0  0  0
  143.2390   74.6220  216.9990 C   0  0  0  0  0  0  0  0  0  0  0  0
  142.7820   75.5910  216.0990 C   0  0  0  0  0  0  0  0  0  0  0  0
  142.6450   76.9090  216.4590 C   0  0  0  0  0  0  0  0  0  0  0  0
  142.9780   77.2410  217.7490 C   0  0  0  0  0  0  0  0  0  0  0  0
  143.4340   76.2760  218.6480 C   0  0  0  0  0  0  0  0  0  0  0  0
  143.1810   73.4880  220.2660 C   0  0  0  0  0  0  0  0  0  0  0  0
  142.4140   72.2620  219.9130 C   0  0  0  0  0  0  0  0  0  0  0  0
  141.4370   71.9010  221.0230 C   0  0  0  0  0  0  0  0  0  0  0  0
  140.6610   73.0330  221.4210 N   0  0  0  0  0  0  0  0  0  0  0  0
  139.2700   72.8330  221.7440 C   0  0  0  0  0  0  0  0  0  0  0  0
  138.5370   73.8300  222.0890 O   0  0  0  0  0  0  0  0  0  0  0  0
  138.5900   71.5320  221.7070 C   0  0  2  0  0  0  0  0  0  0  0  0
  137.5420   71.6010  222.7400 N   0  0  0  0  0  0  0  0  0  0  0  0
  139.4880   70.3510  222.0080 C   0  0  0  0  0  0  0  0  0  0  0  0
  139.4920   70.2280  223.5110 C   0  0  0  0  0  0  0  0  0  0  0  0
  138.7260   69.2820  224.1610 C   0  0  0  0  0  0  0  0  0  0  0  0
  138.7950   69.2470  225.5370 C   0  0  0  0  0  0  0  0  0  0  0  0
  139.5950   70.1170  226.2700 C   0  0  0  0  0  0  0  0  0  0  0  0
  139.6460   70.0600  227.6490 C   0  0  0  0  0  0  0  0  0  0  0  0
  140.4580   70.9460  228.3510 C   0  0  0  0  0  0  0  0  0  0  0  0
  141.2200   71.8880  227.6900 C   0  0  0  0  0  0  0  0  0  0  0  0
  141.1660   71.9410  226.3130 C   0  0  0  0  0  0  0  0  0  0  0  0
  140.3570   71.0610  225.5970 C   0  0  0  0  0  0  0  0  0  0  0  0
  140.3100   71.1220  224.2050 C   0  0  0  0  0  0  0  0  0  0  0  0
  141.1360   74.3910  221.5370 C   0  0  0  0  0  0  0  0  0  0  0  0
  142.4880   74.5760  221.0070 C   0  0  0  0  0  0  0  0  0  0  0  0
  146.1610   73.2202  222.3304 H   0  0  0  0  0  0  0  0  0  0  0  0
  147.3499   74.0197  221.2470 H   0  0  0  0  0  0  0  0  0  0  0  0
  145.6345   74.5527  221.2470 H   0  0  0  0  0  0  0  0  0  0  0  0
  146.9383   72.2330  219.9260 H   0  0  0  0  0  0  0  0  0  0  0  0
  145.3108   71.9408  220.6969 H   0  0  0  0  0  0  0  0  0  0  0  0
  143.3310   73.5786  216.6630 H   0  0  0  0  0  0  0  0  0  0  0  0
  142.5250   75.2881  215.0732 H   0  0  0  0  0  0  0  0  0  0  0  0
  142.2846   77.6650  215.7458 H   0  0  0  0  0  0  0  0  0  0  0  0
  142.8837   78.2859  218.0796 H   0  0  0  0  0  0  0  0  0  0  0  0
  143.6885   76.5875  219.6718 H   0  0  0  0  0  0  0  0  0  0  0  0
  143.8324   73.1178  221.0714 H   0  0  0  0  0  0  0  0  0  0  0  0
  141.8542   72.4414  218.9833 H   0  0  0  0  0  0  0  0  0  0  0  0
  143.1201   71.4293  219.7784 H   0  0  0  0  0  0  0  0  0  0  0  0
  140.7607   71.1120  220.6623 H   0  0  0  0  0  0  0  0  0  0  0  0
  142.0134   71.5524  221.8926 H   0  0  0  0  0  0  0  0  0  0  0  0
  138.2103   71.3639  220.6884 H   0  0  0  0  0  0  0  0  0  0  0  0
  137.8640   72.2770  223.4780 H   0  0  0  0  0  0  0  0  0  0  0  0
  136.7220   72.0610  222.2700 H   0  0  0  0  0  0  0  0  0  0  0  0
  139.0882   69.4356  221.5474 H   0  0  0  0  0  0  0  0  0  0  0  0
  140.5017   70.4930  221.6051 H   0  0  0  0  0  0  0  0  0  0  0  0
  138.0855   68.5833  223.6028 H   0  0  0  0  0  0  0  0  0  0  0  0
  138.1933   68.5012  226.0771 H   0  0  0  0  0  0  0  0  0  0  0  0
  139.0455   69.3152  228.1919 H   0  0  0  0  0  0  0  0  0  0  0  0
  140.4930   70.8947  229.4492 H   0  0  0  0  0  0  0  0  0  0  0  0
  141.8595   72.5846  228.2520 H   0  0  0  0  0  0  0  0  0  0  0  0
  141.7686   72.6866  225.7736 H   0  0  0  0  0  0  0  0  0  0  0  0
  140.9101   71.8655  223.6599 H   0  0  0  0  0  0  0  0  0  0  0  0
  140.4504   75.0497  220.9838 H   0  0  0  0  0  0  0  0  0  0  0  0
  141.1687   74.6356  222.6090 H   0  0  0  0  0  0  0  0  0  0  0  0
  142.4400   75.4369  220.3239 H   0  0  0  0  0  0  0  0  0  0  0  0
  143.0933   74.6667  221.9210 H   0  0  0  0  0  0  0  0  0  0  0  0
  1  2  1  0
  2  3  1  0
  3  4  2  0
  3  5  1  0
  5  6  1  0
  6  7  2  0
  7  8  1  0
  8  9  2  0
  9 10  1  0
 10 11  2  0
  5 12  1  0
 12 13  1  0
 13 14  1  0
 14 15  1  0
 15 16  1  0
 16 17  2  0
 16 18  1  0
 18 19  1  0
 18 20  1  0
 20 21  1  0
 21 22  2  0
 22 23  1  0
 23 24  2  0
 24 25  1  0
 25 26  2  0
 26 27  1  0
 27 28  2  0
 28 29  1  0
 29 30  2  0
 15 31  1  0
 31 32  1  0
 11  6  1  0
 32 12  1  0
 30 21  1  0
 29 24  1  0
  1 33  1  0
  1 34  1  0
  1 35  1  0
  2 36  1  0
  2 37  1  0
  7 38  1  0
  8 39  1  0
  9 40  1  0
 10 41  1  0
 11 42  1  0
 12 43  1  0
 13 44  1  0
 13 45  1  0
 14 46  1  0
 14 47  1  0
 18 48  1  6
 19 49  1  0
 19 50  1  0
 20 51  1  0
 20 52  1  0
 22 53  1  0
 23 54  1  0
 25 55  1  0
 26 56  1  0
 27 57  1  0
 28 58  1  0
 30 59  1  0
 31 60  1  0
 31 61  1  0
 32 62  1  0
 32 63  1  0
M  END
>  <smiles>  (22) 
CCC(=O)N(c1ccccc1)C1CCN(C(=O)[C@H](N)Cc2ccc3ccccc3c2)CC1

>  <score_type>  (22) 
oracle

>  <origin>  (22) 
autodockgpu

>  <m_score__min__energy>  (22) 
-8.6799999999999997

>  <m_primary>  (22) 
energy

>  <rmsd>  (22) 
7.522375496137532

>  <m_score__min__rmsd>  (22) 
7.522375496137532

>  <meeko>  (22) 
{"free_energy": -8.21, "intermolecular_energy": -10.6, "internal_energy": -2.0, "cluster_size": 1, "cluster_id": 2, "rank_in_cluster": 1}

>  <energy>  (22) 
-8.09

>  <cluster_rmsd>  (22) 
0.11

>  <cluster>  (22) 
3

$$$$

     RDKit          3D

 63 66  0  0  0  0  0  0  0  0999 V2000
  143.4450   76.3080  219.7080 C   0  0  0  0  0  0  0  0  0  0  0  0
  142.9630   77.3240  218.7080 C   0  0  0  0  0  0  0  0  0  0  0  0
  141.8740   78.1980  219.2360 C   0  0  0  0  0  0  0  0  0  0  0  0
  141.4250   79.0460  218.4040 O   0  0  0  0  0  0  0  0  0  0  0  0
  141.3790   78.0890  220.5710 N   0  0  0  0  0  0  0  0  0  0  0  0
  141.6610   78.9930  221.6150 C   0  0  0  0  0  0  0  0  0  0  0  0
  141.8260   80.3440  221.3400 C   0  0  0  0  0  0  0  0  0  0  0  0
  142.1130   81.2680  222.3500 C   0  0  0  0  0  0  0  0  0  0  0  0
  142.2460   80.8890  223.6640 C   0  0  0  0  0  0  0  0  0  0  0  0
  142.0840   79.5560  223.9480 C   0  0  0  0  0  0  0  0  0  0  0  0
  141.7980   78.6330  222.9420 C   0  0  0  0  0  0  0  0  0  0  0  0
  140.4880   76.9640  220.8210 C   0  0  0  0  0  0  0  0  0  0  0  0
  141.0400   76.0020  221.8140 C   0  0  0  0  0  0  0  0  0  0  0  0
  140.1370   74.7830  221.9420 C   0  0  0  0  0  0  0  0  0  0  0  0
  139.8080   74.2420  220.6620 N   0  0  0  0  0  0  0  0  0  0  0  0
  139.7390   72.8090  220.5190 C   0  0  0  0  0  0  0  0  0  0  0  0
  139.4630   72.2870  219.3780 O   0  0  0  0  0  0  0  0  0  0  0  0
  139.9690   71.8560  221.6110 C   0  0  2  0  0  0  0  0  0  0  0  0
  140.0900   70.5350  220.9700 N   0  0  0  0  0  0  0  0  0  0  0  0
  138.8540   71.7970  222.6330 C   0  0  0  0  0  0  0  0  0  0  0  0
  139.4770   71.1930  223.8660 C   0  0  0  0  0  0  0  0  0  0  0  0
  140.4310   71.8690  224.5990 C   0  0  0  0  0  0  0  0  0  0  0  0
  140.9420   71.2350  225.7110 C   0  0  0  0  0  0  0  0  0  0  0  0
  140.5350   69.9650  226.1030 C   0  0  0  0  0  0  0  0  0  0  0  0
  141.0640   69.3520  227.2220 C   0  0  0  0  0  0  0  0  0  0  0  0
  140.6320   68.0800  227.5870 C   0  0  0  0  0  0  0  0  0  0  0  0
  139.6770   67.4140  226.8470 C   0  0  0  0  0  0  0  0  0  0  0  0
  139.1510   68.0300  225.7300 C   0  0  0  0  0  0  0  0  0  0  0  0
  139.5740   69.3020  225.3520 C   0  0  0  0  0  0  0  0  0  0  0  0
  139.0370   69.9170  224.2220 C   0  0  0  0  0  0  0  0  0  0  0  0
  139.5310   75.0000  219.4650 C   0  0  0  0  0  0  0  0  0  0  0  0
  139.8110   76.4290  219.6090 C   0  0  0  0  0  0  0  0  0  0  0  0
  143.2671   76.6831  220.7266 H   0  0  0  0  0  0  0  0  0  0  0  0
  142.8987   75.3641  219.5642 H   0  0  0  0  0  0  0  0  0  0  0  0
  144.5216   76.1341  219.5642 H   0  0  0  0  0  0  0  0  0  0  0  0
  143.8125   77.9601  218.4187 H   0  0  0  0  0  0  0  0  0  0  0  0
  142.5512   76.7699  217.8516 H   0  0  0  0  0  0  0  0  0  0  0  0
  141.7286   80.6962  220.3025 H   0  0  0  0  0  0  0  0  0  0  0  0
  142.2358   82.3285  222.0848 H   0  0  0  0  0  0  0  0  0  0  0  0
  142.4722   81.6212  224.4531 H   0  0  0  0  0  0  0  0  0  0  0  0
  142.1814   79.2094  224.9874 H   0  0  0  0  0  0  0  0  0  0  0  0
  141.6765   77.5747  223.2164 H   0  0  0  0  0  0  0  0  0  0  0  0
  139.6080   77.3536  221.3537 H   0  0  0  0  0  0  0  0  0  0  0  0
  142.0390   75.6785  221.4865 H   0  0  0  0  0  0  0  0  0  0  0  0
  141.1019   76.5005  222.7926 H   0  0  0  0  0  0  0  0  0  0  0  0
  140.6556   74.0138  222.5332 H   0  0  0  0  0  0  0  0  0  0  0  0
  139.2048   75.0929  222.4370 H   0  0  0  0  0  0  0  0  0  0  0  0
  140.8640   72.1718  222.1671 H   0  0  0  0  0  0  0  0  0  0  0  0
  139.1790   70.3320  220.4850 H   0  0  0  0  0  0  0  0  0  0  0  0
  140.7980   70.6640  220.2050 H   0  0  0  0  0  0  0  0  0  0  0  0
  138.4745   72.8068  222.8481 H   0  0  0  0  0  0  0  0  0  0  0  0
  137.9988   71.2058  222.2737 H   0  0  0  0  0  0  0  0  0  0  0  0
  140.7701   72.8740  224.3074 H   0  0  0  0  0  0  0  0  0  0  0  0
  141.7024   71.7548  226.3124 H   0  0  0  0  0  0  0  0  0  0  0  0
  141.8260   69.8685  227.8242 H   0  0  0  0  0  0  0  0  0  0  0  0
  141.0587   67.5985  228.4792 H   0  0  0  0  0  0  0  0  0  0  0  0
  139.3407   66.4092  227.1424 H   0  0  0  0  0  0  0  0  0  0  0  0
  138.3886   67.5104  225.1310 H   0  0  0  0  0  0  0  0  0  0  0  0
  138.2752   69.4026  223.6178 H   0  0  0  0  0  0  0  0  0  0  0  0
  140.1518   74.6028  218.6484 H   0  0  0  0  0  0  0  0  0  0  0  0
  138.4561   74.8974  219.2549 H   0  0  0  0  0  0  0  0  0  0  0  0
  140.4388   76.7116  218.7511 H   0  0  0  0  0  0  0  0  0  0  0  0
  138.8035   76.8638  219.6859 H   0  0  0  0  0  0  0  0  0  0  0  0
  1  2  1  0
  2  3  1  0
  3  4  2  0
  3  5  1  0
  5  6  1  0
  6  7  2  0
  7  8  1  0
  8  9  2  0
  9 10  1  0
 10 11  2  0
  5 12  1  0
 12 13  1  0
 13 14  1  0
 14 15  1  0
 15 16  1  0
 16 17  2  0
 16 18  1  0
 18 19  1  0
 18 20  1  0
 20 21  1  0
 21 22  2  0
 22 23  1  0
 23 24  2  0
 24 25  1  0
 25 26  2  0
 26 27  1  0
 27 28  2  0
 28 29  1  0
 29 30  2  0
 15 31  1  0
 31 32  1  0
 11  6  1  0
 32 12  1  0
 30 21  1  0
 29 24  1  0
  1 33  1  0
  1 34  1  0
  1 35  1  0
  2 36  1  0
  2 37  1  0
  7 38  1  0
  8 39  1  0
  9 40  1  0
 10 41  1  0
 11 42  1  0
 12 43  1  0
 13 44  1  0
 13 45  1  0
 14 46  1  0
 14 47  1  0
 18 48  1  1
 19 49  1  0
 19 50  1  0
 20 51  1  0
 20 52  1  0
 22 53  1  0
 23 54  1  0
 25 55  1  0
 26 56  1  0
 27 57  1  0
 28 58  1  0
 30 59  1  0
 31 60  1  0
 31 61  1  0
 32 62  1  0
 32 63  1  0
M  END
>  <smiles>  (23) 
CCC(=O)N(c1ccccc1)C1CCN(C(=O)[C@H](N)Cc2ccc3ccccc3c2)CC1

>  <score_type>  (23) 
oracle

>  <origin>  (23) 
autodockgpu

>  <m_score__min__energy>  (23) 
-8.6799999999999997

>  <m_primary>  (23) 
energy

>  <rmsd>  (23) 
6.344745581493995

>  <m_score__min__rmsd>  (23) 
6.344745581493995

>  <meeko>  (23) 
{"free_energy": -8.01, "intermolecular_energy": -10.4, "internal_energy": -2.57, "cluster_size": 14, "cluster_id": 1, "rank_in_cluster": 6}

>  <energy>  (23) 
-8.09

>  <cluster_rmsd>  (23) 
0.13

>  <cluster>  (23) 
3

$$$$

     RDKit          3D

 63 66  0  0  0  0  0  0  0  0999 V2000
  137.9950   80.8330  224.2260 C   0  0  0  0  0  0  0  0  0  0  0  0
  137.2620   79.9200  223.2800 C   0  0  0  0  0  0  0  0  0  0  0  0
  138.0330   79.6180  222.0380 C   0  0  0  0  0  0  0  0  0  0  0  0
  137.5010   80.0470  220.9670 O   0  0  0  0  0  0  0  0  0  0  0  0
  139.2690   78.9020  222.0540 N   0  0  0  0  0  0  0  0  0  0  0  0
  140.5000   79.4250  222.4960 C   0  0  0  0  0  0  0  0  0  0  0  0
  141.2880   80.1750  221.6330 C   0  0  0  0  0  0  0  0  0  0  0  0
  142.5190   80.7050  222.0370 C   0  0  0  0  0  0  0  0  0  0  0  0
  143.0110   80.5120  223.3050 C   0  0  0  0  0  0  0  0  0  0  0  0
  142.2400   79.7730  224.1680 C   0  0  0  0  0  0  0  0  0  0  0  0
  141.0130   79.2430  223.7660 C   0  0  0  0  0  0  0  0  0  0  0  0
  139.1980   77.5180  221.6060 C   0  0  0  0  0  0  0  0  0  0  0  0
  139.3660   76.5440  222.7200 C   0  0  0  0  0  0  0  0  0  0  0  0
  139.4150   75.1190  222.1850 C   0  0  0  0  0  0  0  0  0  0  0  0
  140.3410   75.0010  221.1030 N   0  0  0  0  0  0  0  0  0  0  0  0
  141.1430   73.8060  221.0130 C   0  0  0  0  0  0  0  0  0  0  0  0
  141.9980   73.6720  220.0640 O   0  0  0  0  0  0  0  0  0  0  0  0
  141.0630   72.6820  221.9540 C   0  0  2  0  0  0  0  0  0  0  0  0
  142.0140   71.6750  221.4540 N   0  0  0  0  0  0  0  0  0  0  0  0
  139.6920   72.0470  222.0520 C   0  0  0  0  0  0  0  0  0  0  0  0
  139.7060   71.2710  223.3450 C   0  0  0  0  0  0  0  0  0  0  0  0
  139.1340   70.0200  223.4430 C   0  0  0  0  0  0  0  0  0  0  0  0
  139.1960   69.3890  224.6670 C   0  0  0  0  0  0  0  0  0  0  0  0
  139.8030   69.9650  225.7770 C   0  0  0  0  0  0  0  0  0  0  0  0
  139.8510   69.3110  226.9930 C   0  0  0  0  0  0  0  0  0  0  0  0
  140.4670   69.9160  228.0840 C   0  0  0  0  0  0  0  0  0  0  0  0
  141.0360   71.1690  227.9740 C   0  0  0  0  0  0  0  0  0  0  0  0
  140.9860   71.8190  226.7580 C   0  0  0  0  0  0  0  0  0  0  0  0
  140.3720   71.2250  225.6580 C   0  0  0  0  0  0  0  0  0  0  0  0
  140.3260   71.8890  224.4320 C   0  0  0  0  0  0  0  0  0  0  0  0
  140.5640   75.9780  220.0650 C   0  0  0  0  0  0  0  0  0  0  0  0
  139.8810   77.2490  220.3130 C   0  0  0  0  0  0  0  0  0  0  0  0
  137.7655   80.5472  225.2631 H   0  0  0  0  0  0  0  0  0  0  0  0
  139.0779   80.7472  224.0531 H   0  0  0  0  0  0  0  0  0  0  0  0
  137.6772   81.8718  224.0531 H   0  0  0  0  0  0  0  0  0  0  0  0
  137.0520   78.9736  223.7999 H   0  0  0  0  0  0  0  0  0  0  0  0
  136.3404   80.4373  222.9749 H   0  0  0  0  0  0  0  0  0  0  0  0
  140.9363   80.3571  220.6068 H   0  0  0  0  0  0  0  0  0  0  0  0
  143.1092   81.2928  221.3186 H   0  0  0  0  0  0  0  0  0  0  0  0
  143.9797   80.9309  223.6152 H   0  0  0  0  0  0  0  0  0  0  0  0
  142.5955   79.5956  225.1938 H   0  0  0  0  0  0  0  0  0  0  0  0
  140.4299   78.6557  224.4907 H   0  0  0  0  0  0  0  0  0  0  0  0
  138.1606   77.3253  221.2952 H   0  0  0  0  0  0  0  0  0  0  0  0
  140.3034   76.7624  223.2525 H   0  0  0  0  0  0  0  0  0  0  0  0
  138.5090   76.6364  223.4034 H   0  0  0  0  0  0  0  0  0  0  0  0
  139.7234   74.4425  222.9957 H   0  0  0  0  0  0  0  0  0  0  0  0
  138.4138   74.8530  221.8151 H   0  0  0  0  0  0  0  0  0  0  0  0
  141.2893   73.0543  222.9640 H   0  0  0  0  0  0  0  0  0  0  0  0
  141.7650   71.4700  220.4530 H   0  0  0  0  0  0  0  0  0  0  0  0
  142.9430   72.1640  221.4220 H   0  0  0  0  0  0  0  0  0  0  0  0
  138.9098   72.8201  222.0747 H   0  0  0  0  0  0  0  0  0  0  0  0
  139.4756   71.4015  221.1880 H   0  0  0  0  0  0  0  0  0  0  0  0
  138.6475   69.5445  222.5786 H   0  0  0  0  0  0  0  0  0  0  0  0
  138.7473   68.3899  224.7695 H   0  0  0  0  0  0  0  0  0  0  0  0
  139.4023   68.3122  227.0986 H   0  0  0  0  0  0  0  0  0  0  0  0
  140.5011   69.3881  229.0485 H   0  0  0  0  0  0  0  0  0  0  0  0
  141.5210   71.6411  228.8411 H   0  0  0  0  0  0  0  0  0  0  0  0
  141.4361   72.8175  226.6562 H   0  0  0  0  0  0  0  0  0  0  0  0
  140.7732   72.8881  224.3233 H   0  0  0  0  0  0  0  0  0  0  0  0
  141.6446   76.1702  219.9921 H   0  0  0  0  0  0  0  0  0  0  0  0
  140.1543   75.5633  219.1322 H   0  0  0  0  0  0  0  0  0  0  0  0
  140.6373   78.0383  220.1900 H   0  0  0  0  0  0  0  0  0  0  0  0
  139.0421   77.2124  219.6024 H   0  0  0  0  0  0  0  0  0  0  0  0
  1  2  1  0
  2  3  1  0
  3  4  2  0
  3  5  1  0
  5  6  1  0
  6  7  2  0
  7  8  1  0
  8  9  2  0
  9 10  1  0
 10 11  2  0
  5 12  1  0
 12 13  1  0
 13 14  1  0
 14 15  1  0
 15 16  1  0
 16 17  2  0
 16 18  1  0
 18 19  1  0
 18 20  1  0
 20 21  1  0
 21 22  2  0
 22 23  1  0
 23 24  2  0
 24 25  1  0
 25 26  2  0
 26 27  1  0
 27 28  2  0
 28 29  1  0
 29 30  2  0
 15 31  1  0
 31 32  1  0
 11  6  1  0
 32 12  1  0
 30 21  1  0
 29 24  1  0
  1 33  1  0
  1 34  1  0
  1 35  1  0
  2 36  1  0
  2 37  1  0
  7 38  1  0
  8 39  1  0
  9 40  1  0
 10 41  1  0
 11 42  1  0
 12 43  1  0
 13 44  1  0
 13 45  1  0
 14 46  1  0
 14 47  1  0
 18 48  1  1
 19 49  1  0
 19 50  1  0
 20 51  1  0
 20 52  1  0
 22 53  1  0
 23 54  1  0
 25 55  1  0
 26 56  1  0
 27 57  1  0
 28 58  1  0
 30 59  1  0
 31 60  1  0
 31 61  1  0
 32 62  1  0
 32 63  1  0
M  END
>  <smiles>  (24) 
CCC(=O)N(c1ccccc1)C1CCN(C(=O)[C@H](N)Cc2ccc3ccccc3c2)CC1

>  <score_type>  (24) 
oracle

>  <origin>  (24) 
autodockgpu

>  <m_score__min__energy>  (24) 
-8.6799999999999997

>  <m_primary>  (24) 
energy

>  <rmsd>  (24) 
5.775258581510875

>  <m_score__min__rmsd>  (24) 
5.775258581510875

>  <meeko>  (24) 
{"free_energy": -7.96, "intermolecular_energy": -10.35, "internal_energy": -2.79, "cluster_size": 34, "cluster_id": 3, "rank_in_cluster": 22}

>  <energy>  (24) 
-8.08

>  <cluster_rmsd>  (24) 
0.18

>  <cluster>  (24) 
3

$$$$

     RDKit          3D

 63 66  0  0  0  0  0  0  0  0999 V2000
  137.4670   80.5290  224.2300 C   0  0  0  0  0  0  0  0  0  0  0  0
  137.0590   79.8340  222.9590 C   0  0  0  0  0  0  0  0  0  0  0  0
  138.1220   79.8510  221.9120 C   0  0  0  0  0  0  0  0  0  0  0  0
  137.8690   80.5910  220.9110 O   0  0  0  0  0  0  0  0  0  0  0  0
  139.3280   79.0920  222.0270 N   0  0  0  0  0  0  0  0  0  0  0  0
  140.5410   79.5790  222.5530 C   0  0  0  0  0  0  0  0  0  0  0  0
  141.7340   78.9280  222.2700 C   0  0  0  0  0  0  0  0  0  0  0  0
  142.9560   79.3800  222.7810 C   0  0  0  0  0  0  0  0  0  0  0  0
  143.0390   80.4890  223.5870 C   0  0  0  0  0  0  0  0  0  0  0  0
  141.8660   81.1420  223.8740 C   0  0  0  0  0  0  0  0  0  0  0  0
  140.6470   80.6920  223.3650 C   0  0  0  0  0  0  0  0  0  0  0  0
  139.2420   77.7060  221.5890 C   0  0  0  0  0  0  0  0  0  0  0  0
  139.4130   76.7380  222.7080 C   0  0  0  0  0  0  0  0  0  0  0  0
  139.4460   75.3100  222.1820 C   0  0  0  0  0  0  0  0  0  0  0  0
  140.3600   75.1770  221.0920 N   0  0  0  0  0  0  0  0  0  0  0  0
  141.1510   73.9750  221.0020 C   0  0  0  0  0  0  0  0  0  0  0  0
  141.9960   73.8280  220.0460 O   0  0  0  0  0  0  0  0  0  0  0  0
  141.0720   72.8580  221.9520 C   0  0  2  0  0  0  0  0  0  0  0  0
  142.1200   71.9090  221.5410 N   0  0  0  0  0  0  0  0  0  0  0  0
  139.7410   72.1360  221.9560 C   0  0  0  0  0  0  0  0  0  0  0  0
  139.7380   71.3160  223.2210 C   0  0  0  0  0  0  0  0  0  0  0  0
  139.1310   70.0790  223.2790 C   0  0  0  0  0  0  0  0  0  0  0  0
  139.1810   69.4040  224.4800 C   0  0  0  0  0  0  0  0  0  0  0  0
  139.8090   69.9230  225.6060 C   0  0  0  0  0  0  0  0  0  0  0  0
  139.8440   69.2260  226.7980 C   0  0  0  0  0  0  0  0  0  0  0  0
  140.4830   69.7750  227.9060 C   0  0  0  0  0  0  0  0  0  0  0  0
  141.0870   71.0140  227.8360 C   0  0  0  0  0  0  0  0  0  0  0  0
  141.0490   71.7070  226.6440 C   0  0  0  0  0  0  0  0  0  0  0  0
  140.4130   71.1700  225.5270 C   0  0  0  0  0  0  0  0  0  0  0  0
  140.3810   71.8780  224.3260 C   0  0  0  0  0  0  0  0  0  0  0  0
  140.5800   76.1460  220.0450 C   0  0  0  0  0  0  0  0  0  0  0  0
  139.9100   77.4230  220.2910 C   0  0  0  0  0  0  0  0  0  0  0  0
  137.1230   79.9430  225.0950 H   0  0  0  0  0  0  0  0  0  0  0  0
  138.5626   80.6213  224.2620 H   0  0  0  0  0  0  0  0  0  0  0  0
  137.0136   81.5307  224.2620 H   0  0  0  0  0  0  0  0  0  0  0  0
  136.8176   78.7871  223.1951 H   0  0  0  0  0  0  0  0  0  0  0  0
  136.1924   80.3768  222.5536 H   0  0  0  0  0  0  0  0  0  0  0  0
  141.7185   78.0348  221.6282 H   0  0  0  0  0  0  0  0  0  0  0  0
  143.8759   78.8316  222.5300 H   0  0  0  0  0  0  0  0  0  0  0  0
  144.0030   80.8386  223.9851 H   0  0  0  0  0  0  0  0  0  0  0  0
  141.8873   82.0350  224.5160 H   0  0  0  0  0  0  0  0  0  0  0  0
  139.7322   81.2466  223.6210 H   0  0  0  0  0  0  0  0  0  0  0  0
  138.2002   77.5194  221.2894 H   0  0  0  0  0  0  0  0  0  0  0  0
  140.3570   76.9526  223.2303 H   0  0  0  0  0  0  0  0  0  0  0  0
  138.5633   76.8415  223.3988 H   0  0  0  0  0  0  0  0  0  0  0  0
  139.7571   74.6365  222.9942 H   0  0  0  0  0  0  0  0  0  0  0  0
  138.4392   75.0498  221.8233 H   0  0  0  0  0  0  0  0  0  0  0  0
  141.1970   73.2556  222.9700 H   0  0  0  0  0  0  0  0  0  0  0  0
  141.9260   71.6300  220.5450 H   0  0  0  0  0  0  0  0  0  0  0  0
  143.0060   72.4730  221.5100 H   0  0  0  0  0  0  0  0  0  0  0  0
  138.9110   72.8578  221.9626 H   0  0  0  0  0  0  0  0  0  0  0  0
  139.6109   71.5101  221.0608 H   0  0  0  0  0  0  0  0  0  0  0  0
  138.6268   69.6479  222.4015 H   0  0  0  0  0  0  0  0  0  0  0  0
  138.7047   68.4149  224.5499 H   0  0  0  0  0  0  0  0  0  0  0  0
  139.3671   68.2375  226.8716 H   0  0  0  0  0  0  0  0  0  0  0  0
  140.5070   69.2131  228.8514 H   0  0  0  0  0  0  0  0  0  0  0  0
  141.5901   71.4415  228.7158 H   0  0  0  0  0  0  0  0  0  0  0  0
  141.5266   72.6955  226.5746 H   0  0  0  0  0  0  0  0  0  0  0  0
  140.8564   72.8670  224.2500 H   0  0  0  0  0  0  0  0  0  0  0  0
  141.6613   76.3293  219.9600 H   0  0  0  0  0  0  0  0  0  0  0  0
  140.1574   75.7284  219.1193 H   0  0  0  0  0  0  0  0  0  0  0  0
  140.6712   78.2054  220.1552 H   0  0  0  0  0  0  0  0  0  0  0  0
  139.0638   77.3883  219.5890 H   0  0  0  0  0  0  0  0  0  0  0  0
  1  2  1  0
  2  3  1  0
  3  4  2  0
  3  5  1  0
  5  6  1  0
  6  7  2  0
  7  8  1  0
  8  9  2  0
  9 10  1  0
 10 11  2  0
  5 12  1  0
 12 13  1  0
 13 14  1  0
 14 15  1  0
 15 16  1  0
 16 17  2  0
 16 18  1  0
 18 19  1  0
 18 20  1  0
 20 21  1  0
 21 22  2  0
 22 23  1  0
 23 24  2  0
 24 25  1  0
 25 26  2  0
 26 27  1  0
 27 28  2  0
 28 29  1  0
 29 30  2  0
 15 31  1  0
 31 32  1  0
 11  6  1  0
 32 12  1  0
 30 21  1  0
 29 24  1  0
  1 33  1  0
  1 34  1  0
  1 35  1  0
  2 36  1  0
  2 37  1  0
  7 38  1  0
  8 39  1  0
  9 40  1  0
 10 41  1  0
 11 42  1  0
 12 43  1  0
 13 44  1  0
 13 45  1  0
 14 46  1  0
 14 47  1  0
 18 48  1  1
 19 49  1  0
 19 50  1  0
 20 51  1  0
 20 52  1  0
 22 53  1  0
 23 54  1  0
 25 55  1  0
 26 56  1  0
 27 57  1  0
 28 58  1  0
 30 59  1  0
 31 60  1  0
 31 61  1  0
 32 62  1  0
 32 63  1  0
M  END
>  <smiles>  (25) 
CCC(=O)N(c1ccccc1)C1CCN(C(=O)[C@H](N)Cc2ccc3ccccc3c2)CC1

>  <score_type>  (25) 
oracle

>  <origin>  (25) 
autodockgpu

>  <m_score__min__energy>  (25) 
-8.6799999999999997

>  <m_primary>  (25) 
energy

>  <rmsd>  (25) 
5.632613295578998

>  <m_score__min__rmsd>  (25) 
5.632613295578998

>  <meeko>  (25) 
{"free_energy": -7.99, "intermolecular_energy": -10.37, "internal_energy": -2.71, "cluster_size": 34, "cluster_id": 3, "rank_in_cluster": 19}

>  <energy>  (25) 
-8.05

>  <cluster_rmsd>  (25) 
0.23

>  <cluster>  (25) 
3

$$$$

     RDKit          3D

 63 66  0  0  0  0  0  0  0  0999 V2000
  138.1350   80.9010  224.1250 C   0  0  0  0  0  0  0  0  0  0  0  0
  137.4440   79.7530  223.4390 C   0  0  0  0  0  0  0  0  0  0  0  0
  138.0710   79.3850  222.1350 C   0  0  0  0  0  0  0  0  0  0  0  0
  137.3780   79.6780  221.1120 O   0  0  0  0  0  0  0  0  0  0  0  0
  139.3490   78.7520  222.0470 N   0  0  0  0  0  0  0  0  0  0  0  0
  140.5670   79.3290  222.4580 C   0  0  0  0  0  0  0  0  0  0  0  0
  141.0390   79.1140  223.7460 C   0  0  0  0  0  0  0  0  0  0  0  0
  142.2420   79.6770  224.1890 C   0  0  0  0  0  0  0  0  0  0  0  0
  143.0160   80.4680  223.3760 C   0  0  0  0  0  0  0  0  0  0  0  0
  142.5600   80.6870  222.1000 C   0  0  0  0  0  0  0  0  0  0  0  0
  141.3610   80.1270  221.6560 C   0  0  0  0  0  0  0  0  0  0  0  0
  139.3420   77.3940  221.5210 C   0  0  0  0  0  0  0  0  0  0  0  0
  139.4500   76.3620  222.5890 C   0  0  0  0  0  0  0  0  0  0  0  0
  139.5690   74.9710  221.9830 C   0  0  0  0  0  0  0  0  0  0  0  0
  140.5740   74.9300  220.9680 N   0  0  0  0  0  0  0  0  0  0  0  0
  141.4060   73.7570  220.8720 C   0  0  0  0  0  0  0  0  0  0  0  0
  142.3310   73.6910  219.9830 O   0  0  0  0  0  0  0  0  0  0  0  0
  141.2820   72.5810  221.7430 C   0  0  2  0  0  0  0  0  0  0  0  0
  142.2360   71.5910  221.2130 N   0  0  0  0  0  0  0  0  0  0  0  0
  139.9020   71.9610  221.7610 C   0  0  0  0  0  0  0  0  0  0  0  0
  139.7920   71.2750  223.0990 C   0  0  0  0  0  0  0  0  0  0  0  0
  139.0510   70.1230  223.2620 C   0  0  0  0  0  0  0  0  0  0  0  0
  139.0100   69.5690  224.5240 C   0  0  0  0  0  0  0  0  0  0  0  0
  139.6780   70.1260  225.6090 C   0  0  0  0  0  0  0  0  0  0  0  0
  139.6200   69.5510  226.8630 C   0  0  0  0  0  0  0  0  0  0  0  0
  140.3020   70.1340  227.9270 C   0  0  0  0  0  0  0  0  0  0  0  0
  141.0400   71.2870  227.7520 C   0  0  0  0  0  0  0  0  0  0  0  0
  141.0940   71.8580  226.4980 C   0  0  0  0  0  0  0  0  0  0  0  0
  140.4170   71.2850  225.4240 C   0  0  0  0  0  0  0  0  0  0  0  0
  140.4790   71.8700  224.1590 C   0  0  0  0  0  0  0  0  0  0  0  0
  140.8500   75.9680  220.0040 C   0  0  0  0  0  0  0  0  0  0  0  0
  140.1230   77.2100  220.2690 C   0  0  0  0  0  0  0  0  0  0  0  0
  138.0596   80.7757  225.2152 H   0  0  0  0  0  0  0  0  0  0  0  0
  139.1947   80.9199  223.8305 H   0  0  0  0  0  0  0  0  0  0  0  0
  137.6557   81.8463  223.8305 H   0  0  0  0  0  0  0  0  0  0  0  0
  137.4782   78.8768  224.1032 H   0  0  0  0  0  0  0  0  0  0  0  0
  136.4123   80.0708  223.2280 H   0  0  0  0  0  0  0  0  0  0  0  0
  140.4540   78.4866  224.4346 H   0  0  0  0  0  0  0  0  0  0  0  0
  142.5768   79.4800  225.2181 H   0  0  0  0  0  0  0  0  0  0  0  0
  143.9599   80.9068  223.7317 H   0  0  0  0  0  0  0  0  0  0  0  0
  143.1496   81.3146  221.4156 H   0  0  0  0  0  0  0  0  0  0  0  0
  141.0345   80.3291  220.6252 H   0  0  0  0  0  0  0  0  0  0  0  0
  138.3340   77.2004  221.1254 H   0  0  0  0  0  0  0  0  0  0  0  0
  140.3412   76.5670  223.2004 H   0  0  0  0  0  0  0  0  0  0  0  0
  138.5435   76.4004  223.2109 H   0  0  0  0  0  0  0  0  0  0  0  0
  139.8320   74.2560  222.7765 H   0  0  0  0  0  0  0  0  0  0  0  0
  138.6036   74.7082  221.5259 H   0  0  0  0  0  0  0  0  0  0  0  0
  141.4806   72.8906  222.7797 H   0  0  0  0  0  0  0  0  0  0  0  0
  142.0360   71.4710  220.1880 H   0  0  0  0  0  0  0  0  0  0  0  0
  143.1760   72.0560  221.2680 H   0  0  0  0  0  0  0  0  0  0  0  0
  139.1293   72.7375  221.6614 H   0  0  0  0  0  0  0  0  0  0  0  0
  139.7567   71.2589  220.9268 H   0  0  0  0  0  0  0  0  0  0  0  0
  138.5140   69.6644  222.4186 H   0  0  0  0  0  0  0  0  0  0  0  0
  138.4257   68.6499  224.6786 H   0  0  0  0  0  0  0  0  0  0  0  0
  139.0352   68.6328  227.0210 H   0  0  0  0  0  0  0  0  0  0  0  0
  140.2521   69.6687  228.9225 H   0  0  0  0  0  0  0  0  0  0  0  0
  141.5757   71.7425  228.5979 H   0  0  0  0  0  0  0  0  0  0  0  0
  141.6787   72.7769  226.3440 H   0  0  0  0  0  0  0  0  0  0  0  0
  141.0620   72.7889  223.9986 H   0  0  0  0  0  0  0  0  0  0  0  0
  141.9285   76.1837  220.0219 H   0  0  0  0  0  0  0  0  0  0  0  0
  140.5183   75.5986  219.0224 H   0  0  0  0  0  0  0  0  0  0  0  0
  140.8684   78.0186  220.2450 H   0  0  0  0  0  0  0  0  0  0  0  0
  139.3391   77.1978  219.4974 H   0  0  0  0  0  0  0  0  0  0  0  0
  1  2  1  0
  2  3  1  0
  3  4  2  0
  3  5  1  0
  5  6  1  0
  6  7  2  0
  7  8  1  0
  8  9  2  0
  9 10  1  0
 10 11  2  0
  5 12  1  0
 12 13  1  0
 13 14  1  0
 14 15  1  0
 15 16  1  0
 16 17  2  0
 16 18  1  0
 18 19  1  0
 18 20  1  0
 20 21  1  0
 21 22  2  0
 22 23  1  0
 23 24  2  0
 24 25  1  0
 25 26  2  0
 26 27  1  0
 27 28  2  0
 28 29  1  0
 29 30  2  0
 15 31  1  0
 31 32  1  0
 11  6  1  0
 32 12  1  0
 30 21  1  0
 29 24  1  0
  1 33  1  0
  1 34  1  0
  1 35  1  0
  2 36  1  0
  2 37  1  0
  7 38  1  0
  8 39  1  0
  9 40  1  0
 10 41  1  0
 11 42  1  0
 12 43  1  0
 13 44  1  0
 13 45  1  0
 14 46  1  0
 14 47  1  0
 18 48  1  1
 19 49  1  0
 19 50  1  0
 20 51  1  0
 20 52  1  0
 22 53  1  0
 23 54  1  0
 25 55  1  0
 26 56  1  0
 27 57  1  0
 28 58  1  0
 30 59  1  0
 31 60  1  0
 31 61  1  0
 32 62  1  0
 32 63  1  0
M  END
>  <smiles>  (26) 
CCC(=O)N(c1ccccc1)C1CCN(C(=O)[C@H](N)Cc2ccc3ccccc3c2)CC1

>  <score_type>  (26) 
oracle

>  <origin>  (26) 
autodockgpu

>  <m_score__min__energy>  (26) 
-8.6799999999999997

>  <m_primary>  (26) 
energy

>  <rmsd>  (26) 
5.743315427326519

>  <m_score__min__rmsd>  (26) 
5.743315427326519

>  <meeko>  (26) 
{"free_energy": -7.99, "intermolecular_energy": -10.38, "internal_energy": -2.79, "cluster_size": 34, "cluster_id": 3, "rank_in_cluster": 17}

>  <energy>  (26) 
-8.04

>  <cluster_rmsd>  (26) 
0.11

>  <cluster>  (26) 
3

$$$$

     RDKit          3D

 63 66  0  0  0  0  0  0  0  0999 V2000
  138.0530   80.7350  224.4860 C   0  0  0  0  0  0  0  0  0  0  0  0
  137.6990   80.6230  223.0280 C   0  0  0  0  0  0  0  0  0  0  0  0
  137.8830   79.2460  222.4820 C   0  0  0  0  0  0  0  0  0  0  0  0
  136.8040   78.6060  222.2840 O   0  0  0  0  0  0  0  0  0  0  0  0
  139.1720   78.6930  222.2070 N   0  0  0  0  0  0  0  0  0  0  0  0
  140.3990   79.3410  222.4530 C   0  0  0  0  0  0  0  0  0  0  0  0
  141.1200   79.0520  223.6030 C   0  0  0  0  0  0  0  0  0  0  0  0
  142.3390   79.6810  223.8820 C   0  0  0  0  0  0  0  0  0  0  0  0
  142.8840   80.6140  223.0350 C   0  0  0  0  0  0  0  0  0  0  0  0
  142.1810   80.9080  221.8940 C   0  0  0  0  0  0  0  0  0  0  0  0
  140.9650   80.2820  221.6140 C   0  0  0  0  0  0  0  0  0  0  0  0
  139.1720   77.3410  221.6650 C   0  0  0  0  0  0  0  0  0  0  0  0
  139.3120   76.2990  222.7190 C   0  0  0  0  0  0  0  0  0  0  0  0
  139.4380   74.9170  222.0950 C   0  0  0  0  0  0  0  0  0  0  0  0
  140.4250   74.9000  221.0620 N   0  0  0  0  0  0  0  0  0  0  0  0
  141.2690   73.7380  220.9380 C   0  0  0  0  0  0  0  0  0  0  0  0
  142.1790   73.6940  220.0320 O   0  0  0  0  0  0  0  0  0  0  0  0
  141.1760   72.5510  221.7970 C   0  0  2  0  0  0  0  0  0  0  0  0
  142.1060   71.5660  221.2190 N   0  0  0  0  0  0  0  0  0  0  0  0
  139.7950   71.9330  221.8600 C   0  0  0  0  0  0  0  0  0  0  0  0
  139.7200   71.2660  223.2100 C   0  0  0  0  0  0  0  0  0  0  0  0
  138.9910   70.1110  223.4050 C   0  0  0  0  0  0  0  0  0  0  0  0
  138.9820   69.5740  224.6740 C   0  0  0  0  0  0  0  0  0  0  0  0
  139.6690   70.1510  225.7370 C   0  0  0  0  0  0  0  0  0  0  0  0
  139.6430   69.5940  227.0000 C   0  0  0  0  0  0  0  0  0  0  0  0
  140.3420   70.1970  228.0410 C   0  0  0  0  0  0  0  0  0  0  0  0
  141.0670   71.3530  227.8340 C   0  0  0  0  0  0  0  0  0  0  0  0
  141.0900   71.9070  226.5710 C   0  0  0  0  0  0  0  0  0  0  0  0
  140.3950   71.3140  225.5200 C   0  0  0  0  0  0  0  0  0  0  0  0
  140.4250   71.8810  224.2460 C   0  0  0  0  0  0  0  0  0  0  0  0
  140.6700   75.9520  220.1050 C   0  0  0  0  0  0  0  0  0  0  0  0
  139.9340   77.1820  220.3970 C   0  0  0  0  0  0  0  0  0  0  0  0
  137.1811   80.4591  225.0972 H   0  0  0  0  0  0  0  0  0  0  0  0
  138.8893   80.0576  224.7134 H   0  0  0  0  0  0  0  0  0  0  0  0
  138.3474   81.7702  224.7134 H   0  0  0  0  0  0  0  0  0  0  0  0
  136.6451   80.9114  222.9010 H   0  0  0  0  0  0  0  0  0  0  0  0
  138.3790   81.2874  222.4747 H   0  0  0  0  0  0  0  0  0  0  0  0
  140.7239   78.3106  224.3126 H   0  0  0  0  0  0  0  0  0  0  0  0
  142.8756   79.4203  224.8062 H   0  0  0  0  0  0  0  0  0  0  0  0
  143.8423   81.1044  223.2612 H   0  0  0  0  0  0  0  0  0  0  0  0
  142.5824   81.6497  221.1877 H   0  0  0  0  0  0  0  0  0  0  0  0
  140.4356   80.5487  220.6874 H   0  0  0  0  0  0  0  0  0  0  0  0
  138.1600   77.1383  221.2846 H   0  0  0  0  0  0  0  0  0  0  0  0
  140.2112   76.5086  223.3170 H   0  0  0  0  0  0  0  0  0  0  0  0
  138.4163   76.3187  223.3573 H   0  0  0  0  0  0  0  0  0  0  0  0
  139.7242   74.1966  222.8754 H   0  0  0  0  0  0  0  0  0  0  0  0
  138.4680   74.6472  221.6518 H   0  0  0  0  0  0  0  0  0  0  0  0
  141.4155   72.8470  222.8290 H   0  0  0  0  0  0  0  0  0  0  0  0
  141.8730   71.4680  220.1980 H   0  0  0  0  0  0  0  0  0  0  0  0
  143.0500   72.0250  221.2530 H   0  0  0  0  0  0  0  0  0  0  0  0
  139.0208   72.7093  221.7700 H   0  0  0  0  0  0  0  0  0  0  0  0
  139.6267   71.2197  221.0397 H   0  0  0  0  0  0  0  0  0  0  0  0
  138.4387   69.6374  222.5799 H   0  0  0  0  0  0  0  0  0  0  0  0
  138.4088   68.6525  224.8535 H   0  0  0  0  0  0  0  0  0  0  0  0
  139.0696   68.6734  227.1833 H   0  0  0  0  0  0  0  0  0  0  0  0
  140.3164   69.7457  229.0438 H   0  0  0  0  0  0  0  0  0  0  0  0
  141.6170   71.8244  228.6619 H   0  0  0  0  0  0  0  0  0  0  0  0
  141.6641   72.8281  226.3919 H   0  0  0  0  0  0  0  0  0  0  0  0
  140.9974   72.8017  224.0599 H   0  0  0  0  0  0  0  0  0  0  0  0
  141.7460   76.1805  220.1050 H   0  0  0  0  0  0  0  0  0  0  0  0
  140.3236   75.5894  219.1260 H   0  0  0  0  0  0  0  0  0  0  0  0
  140.6697   77.9994  220.3706 H   0  0  0  0  0  0  0  0  0  0  0  0
  139.1377   77.1710  219.6382 H   0  0  0  0  0  0  0  0  0  0  0  0
  1  2  1  0
  2  3  1  0
  3  4  2  0
  3  5  1  0
  5  6  1  0
  6  7  2  0
  7  8  1  0
  8  9  2  0
  9 10  1  0
 10 11  2  0
  5 12  1  0
 12 13  1  0
 13 14  1  0
 14 15  1  0
 15 16  1  0
 16 17  2  0
 16 18  1  0
 18 19  1  0
 18 20  1  0
 20 21  1  0
 21 22  2  0
 22 23  1  0
 23 24  2  0
 24 25  1  0
 25 26  2  0
 26 27  1  0
 27 28  2  0
 28 29  1  0
 29 30  2  0
 15 31  1  0
 31 32  1  0
 11  6  1  0
 32 12  1  0
 30 21  1  0
 29 24  1  0
  1 33  1  0
  1 34  1  0
  1 35  1  0
  2 36  1  0
  2 37  1  0
  7 38  1  0
  8 39  1  0
  9 40  1  0
 10 41  1  0
 11 42  1  0
 12 43  1  0
 13 44  1  0
 13 45  1  0
 14 46  1  0
 14 47  1  0
 18 48  1  1
 19 49  1  0
 19 50  1  0
 20 51  1  0
 20 52  1  0
 22 53  1  0
 23 54  1  0
 25 55  1  0
 26 56  1  0
 27 57  1  0
 28 58  1  0
 30 59  1  0
 31 60  1  0
 31 61  1  0
 32 62  1  0
 32 63  1  0
M  END
>  <smiles>  (27) 
CCC(=O)N(c1ccccc1)C1CCN(C(=O)[C@H](N)Cc2ccc3ccccc3c2)CC1

>  <score_type>  (27) 
oracle

>  <origin>  (27) 
autodockgpu

>  <m_score__min__energy>  (27) 
-8.6799999999999997

>  <m_primary>  (27) 
energy

>  <rmsd>  (27) 
5.810995496209409

>  <m_score__min__rmsd>  (27) 
5.810995496209409

>  <meeko>  (27) 
{"free_energy": -8.05, "intermolecular_energy": -10.44, "internal_energy": -2.82, "cluster_size": 34, "cluster_id": 3, "rank_in_cluster": 10}

>  <energy>  (27) 
-8.04

>  <cluster_rmsd>  (27) 
0.23

>  <cluster>  (27) 
3

$$$$

     RDKit          3D

 63 66  0  0  0  0  0  0  0  0999 V2000
  142.5640   79.2820  218.1590 C   0  0  0  0  0  0  0  0  0  0  0  0
  142.3150   77.7980  218.2070 C   0  0  0  0  0  0  0  0  0  0  0  0
  142.5960   77.1980  219.5450 C   0  0  0  0  0  0  0  0  0  0  0  0
  143.7150   76.6040  219.6350 O   0  0  0  0  0  0  0  0  0  0  0  0
  141.6770   77.2850  220.6360 N   0  0  0  0  0  0  0  0  0  0  0  0
  141.6170   78.3480  221.5590 C   0  0  0  0  0  0  0  0  0  0  0  0
  141.4470   78.0870  222.9120 C   0  0  0  0  0  0  0  0  0  0  0  0
  141.3770   79.1190  223.8550 C   0  0  0  0  0  0  0  0  0  0  0  0
  141.4720   80.4400  223.4930 C   0  0  0  0  0  0  0  0  0  0  0  0
  141.6410   80.7110  222.1580 C   0  0  0  0  0  0  0  0  0  0  0  0
  141.7110   79.6840  221.2160 C   0  0  0  0  0  0  0  0  0  0  0  0
  140.7250   76.1880  220.7430 C   0  0  0  0  0  0  0  0  0  0  0  0
  141.0480   75.2520  221.8540 C   0  0  0  0  0  0  0  0  0  0  0  0
  140.1040   74.0580  221.8430 C   0  0  0  0  0  0  0  0  0  0  0  0
  140.0140   73.4780  220.5400 N   0  0  0  0  0  0  0  0  0  0  0  0
  139.9350   72.0420  220.4310 C   0  0  0  0  0  0  0  0  0  0  0  0
  139.8700   71.4850  219.2760 O   0  0  0  0  0  0  0  0  0  0  0  0
  139.9240   71.1250  221.5770 C   0  0  2  0  0  0  0  0  0  0  0  0
  140.0320   69.7710  221.0050 N   0  0  0  0  0  0  0  0  0  0  0  0
  138.6680   71.1940  222.4200 C   0  0  0  0  0  0  0  0  0  0  0  0
  139.0730   70.6800  223.7780 C   0  0  0  0  0  0  0  0  0  0  0  0
  138.6880   69.4310  224.2220 C   0  0  0  0  0  0  0  0  0  0  0  0
  139.1070   69.0490  225.4780 C   0  0  0  0  0  0  0  0  0  0  0  0
  139.8860   69.8660  226.2900 C   0  0  0  0  0  0  0  0  0  0  0  0
  140.2920   69.4580  227.5460 C   0  0  0  0  0  0  0  0  0  0  0  0
  141.0710   70.3010  228.3320 C   0  0  0  0  0  0  0  0  0  0  0  0
  141.4490   71.5480  227.8780 C   0  0  0  0  0  0  0  0  0  0  0  0
  141.0410   71.9520  226.6230 C   0  0  0  0  0  0  0  0  0  0  0  0
  140.2610   71.1180  225.8250 C   0  0  0  0  0  0  0  0  0  0  0  0
  139.8540   71.5350  224.5580 C   0  0  0  0  0  0  0  0  0  0  0  0
  139.9940   74.1980  219.2900 C   0  0  0  0  0  0  0  0  0  0  0  0
  140.2800   75.6250  219.4400 C   0  0  0  0  0  0  0  0  0  0  0  0
  142.6301   79.6760  219.1839 H   0  0  0  0  0  0  0  0  0  0  0  0
  143.5077   79.4785  217.6290 H   0  0  0  0  0  0  0  0  0  0  0  0
  141.7361   79.7757  217.6290 H   0  0  0  0  0  0  0  0  0  0  0  0
  141.2606   77.6120  217.9548 H   0  0  0  0  0  0  0  0  0  0  0  0
  143.0009   77.3277  217.4870 H   0  0  0  0  0  0  0  0  0  0  0  0
  141.3653   77.0438  223.2511 H   0  0  0  0  0  0  0  0  0  0  0  0
  141.2420   78.8644  224.9166 H   0  0  0  0  0  0  0  0  0  0  0  0
  141.4152   81.2456  224.2398 H   0  0  0  0  0  0  0  0  0  0  0  0
  141.7227   81.7562  221.8249 H   0  0  0  0  0  0  0  0  0  0  0  0
  141.8465   79.9482  220.1569 H   0  0  0  0  0  0  0  0  0  0  0  0
  139.7690   76.6132  221.0823 H   0  0  0  0  0  0  0  0  0  0  0  0
  142.0821   74.8958  221.7370 H   0  0  0  0  0  0  0  0  0  0  0  0
  140.9337   75.7845  222.8097 H   0  0  0  0  0  0  0  0  0  0  0  0
  140.4771   73.3000  222.5474 H   0  0  0  0  0  0  0  0  0  0  0  0
  139.1027   74.4049  222.1381 H   0  0  0  0  0  0  0  0  0  0  0  0
  140.7488   71.3986  222.2514 H   0  0  0  0  0  0  0  0  0  0  0  0
  139.2070   69.6270  220.3690 H   0  0  0  0  0  0  0  0  0  0  0  0
  140.8730   69.8030  220.3780 H   0  0  0  0  0  0  0  0  0  0  0  0
  138.3085   72.2311  222.4919 H   0  0  0  0  0  0  0  0  0  0  0  0
  137.8486   70.6030  221.9850 H   0  0  0  0  0  0  0  0  0  0  0  0
  138.0714   68.7672  223.5982 H   0  0  0  0  0  0  0  0  0  0  0  0
  138.8133   68.0576  225.8535 H   0  0  0  0  0  0  0  0  0  0  0  0
  139.9995   68.4673  227.9242 H   0  0  0  0  0  0  0  0  0  0  0  0
  141.3905   69.9684  229.3307 H   0  0  0  0  0  0  0  0  0  0  0  0
  142.0650   72.2088  228.5056 H   0  0  0  0  0  0  0  0  0  0  0  0
  141.3350   72.9437  226.2486 H   0  0  0  0  0  0  0  0  0  0  0  0
  140.1447   72.5254  224.1778 H   0  0  0  0  0  0  0  0  0  0  0  0
  140.7494   73.7588  218.6218 H   0  0  0  0  0  0  0  0  0  0  0  0
  138.9771   74.1107  218.8797 H   0  0  0  0  0  0  0  0  0  0  0  0
  141.0689   75.8633  218.7114 H   0  0  0  0  0  0  0  0  0  0  0  0
  139.2893   76.0839  219.3059 H   0  0  0  0  0  0  0  0  0  0  0  0
  1  2  1  0
  2  3  1  0
  3  4  2  0
  3  5  1  0
  5  6  1  0
  6  7  2  0
  7  8  1  0
  8  9  2  0
  9 10  1  0
 10 11  2  0
  5 12  1  0
 12 13  1  0
 13 14  1  0
 14 15  1  0
 15 16  1  0
 16 17  2  0
 16 18  1  0
 18 19  1  0
 18 20  1  0
 20 21  1  0
 21 22  2  0
 22 23  1  0
 23 24  2  0
 24 25  1  0
 25 26  2  0
 26 27  1  0
 27 28  2  0
 28 29  1  0
 29 30  2  0
 15 31  1  0
 31 32  1  0
 11  6  1  0
 32 12  1  0
 30 21  1  0
 29 24  1  0
  1 33  1  0
  1 34  1  0
  1 35  1  0
  2 36  1  0
  2 37  1  0
  7 38  1  0
  8 39  1  0
  9 40  1  0
 10 41  1  0
 11 42  1  0
 12 43  1  0
 13 44  1  0
 13 45  1  0
 14 46  1  0
 14 47  1  0
 18 48  1  1
 19 49  1  0
 19 50  1  0
 20 51  1  0
 20 52  1  0
 22 53  1  0
 23 54  1  0
 25 55  1  0
 26 56  1  0
 27 57  1  0
 28 58  1  0
 30 59  1  0
 31 60  1  0
 31 61  1  0
 32 62  1  0
 32 63  1  0
M  END
>  <smiles>  (28) 
CCC(=O)N(c1ccccc1)C1CCN(C(=O)[C@H](N)Cc2ccc3ccccc3c2)CC1

>  <score_type>  (28) 
oracle

>  <origin>  (28) 
autodockgpu

>  <m_score__min__energy>  (28) 
-8.6799999999999997

>  <m_primary>  (28) 
energy

>  <rmsd>  (28) 
6.921152366387999

>  <m_score__min__rmsd>  (28) 
6.921152366387999

>  <meeko>  (28) 
{"free_energy": -7.9, "intermolecular_energy": -10.29, "internal_energy": -2.61, "cluster_size": 14, "cluster_id": 1, "rank_in_cluster": 9}

>  <energy>  (28) 
-8.01

>  <cluster_rmsd>  (28) 
0.21

>  <cluster>  (28) 
3

$$$$

     RDKit          3D

 63 66  0  0  0  0  0  0  0  0999 V2000
  143.7010   75.9130  219.7480 C   0  0  0  0  0  0  0  0  0  0  0  0
  142.8510   76.6750  218.7690 C   0  0  0  0  0  0  0  0  0  0  0  0
  142.1220   77.8200  219.3900 C   0  0  0  0  0  0  0  0  0  0  0  0
  142.0970   78.8770  218.6860 O   0  0  0  0  0  0  0  0  0  0  0  0
  141.5020   77.7320  220.6740 N   0  0  0  0  0  0  0  0  0  0  0  0
  141.6980   78.6460  221.7300 C   0  0  0  0  0  0  0  0  0  0  0  0
  142.1480   79.9310  221.4630 C   0  0  0  0  0  0  0  0  0  0  0  0
  142.3580   80.8620  222.4880 C   0  0  0  0  0  0  0  0  0  0  0  0
  142.1300   80.5530  223.8060 C   0  0  0  0  0  0  0  0  0  0  0  0
  141.6840   79.2850  224.0820 C   0  0  0  0  0  0  0  0  0  0  0  0
  141.4740   78.3560  223.0620 C   0  0  0  0  0  0  0  0  0  0  0  0
  140.5780   76.6210  220.8510 C   0  0  0  0  0  0  0  0  0  0  0  0
  141.0220   75.6660  221.9040 C   0  0  0  0  0  0  0  0  0  0  0  0
  140.0950   74.4600  221.9600 C   0  0  0  0  0  0  0  0  0  0  0  0
  139.8830   73.9050  220.6610 N   0  0  0  0  0  0  0  0  0  0  0  0
  139.8100   72.4710  220.5300 C   0  0  0  0  0  0  0  0  0  0  0  0
  139.6370   71.9370  219.3740 O   0  0  0  0  0  0  0  0  0  0  0  0
  139.9240   71.5300  221.6500 C   0  0  2  0  0  0  0  0  0  0  0  0
  140.0920   70.2010  221.0400 N   0  0  0  0  0  0  0  0  0  0  0  0
  138.7140   71.4950  222.5600 C   0  0  0  0  0  0  0  0  0  0  0  0
  139.1610   70.7390  223.7850 C   0  0  0  0  0  0  0  0  0  0  0  0
  139.0190   69.3700  223.8820 C   0  0  0  0  0  0  0  0  0  0  0  0
  139.4570   68.7680  225.0420 C   0  0  0  0  0  0  0  0  0  0  0  0
  140.0230   69.4840  226.0910 C   0  0  0  0  0  0  0  0  0  0  0  0
  140.4530   68.8560  227.2430 C   0  0  0  0  0  0  0  0  0  0  0  0
  141.0150   69.6030  228.2740 C   0  0  0  0  0  0  0  0  0  0  0  0
  141.1510   70.9720  228.1660 C   0  0  0  0  0  0  0  0  0  0  0  0
  140.7200   71.5960  227.0140 C   0  0  0  0  0  0  0  0  0  0  0  0
  140.1550   70.8600  225.9750 C   0  0  0  0  0  0  0  0  0  0  0  0
  139.7220   71.4990  224.8130 C   0  0  0  0  0  0  0  0  0  0  0  0
  139.7300   74.6500  219.4340 C   0  0  0  0  0  0  0  0  0  0  0  0
  140.0130   76.0780  219.5870 C   0  0  0  0  0  0  0  0  0  0  0  0
  143.4055   76.1779  220.7739 H   0  0  0  0  0  0  0  0  0  0  0  0
  143.5601   74.8331  219.5931 H   0  0  0  0  0  0  0  0  0  0  0  0
  144.7591   76.1706  219.5931 H   0  0  0  0  0  0  0  0  0  0  0  0
  143.5006   77.0652  217.9717 H   0  0  0  0  0  0  0  0  0  0  0  0
  142.0942   75.9774  218.3810 H   0  0  0  0  0  0  0  0  0  0  0  0
  142.3445   80.2255  220.4215 H   0  0  0  0  0  0  0  0  0  0  0  0
  142.7158   81.8696  222.2296 H   0  0  0  0  0  0  0  0  0  0  0  0
  142.2975   81.2895  224.6057 H   0  0  0  0  0  0  0  0  0  0  0  0
  141.4887   78.9958  225.1252 H   0  0  0  0  0  0  0  0  0  0  0  0
  141.1152   77.3512  223.3297 H   0  0  0  0  0  0  0  0  0  0  0  0
  139.6556   77.0267  221.2921 H   0  0  0  0  0  0  0  0  0  0  0  0
  142.0433   75.3265  221.6766 H   0  0  0  0  0  0  0  0  0  0  0  0
  140.9984   76.1765  222.8781 H   0  0  0  0  0  0  0  0  0  0  0  0
  140.5443   73.6930  222.6080 H   0  0  0  0  0  0  0  0  0  0  0  0
  139.1239   74.7880  222.3591 H   0  0  0  0  0  0  0  0  0  0  0  0
  140.7648   71.8439  222.2860 H   0  0  0  0  0  0  0  0  0  0  0  0
  139.2270   69.9950  220.4780 H   0  0  0  0  0  0  0  0  0  0  0  0
  140.8660   70.3150  220.3380 H   0  0  0  0  0  0  0  0  0  0  0  0
  138.4040   72.5157  222.8286 H   0  0  0  0  0  0  0  0  0  0  0  0
  137.8495   71.0176  222.0755 H   0  0  0  0  0  0  0  0  0  0  0  0
  138.5738   68.7822  223.0658 H   0  0  0  0  0  0  0  0  0  0  0  0
  139.3547   67.6773  225.1419 H   0  0  0  0  0  0  0  0  0  0  0  0
  140.3514   67.7655  227.3458 H   0  0  0  0  0  0  0  0  0  0  0  0
  141.3557   69.0948  229.1882 H   0  0  0  0  0  0  0  0  0  0  0  0
  141.5958   71.5560  228.9852 H   0  0  0  0  0  0  0  0  0  0  0  0
  140.8235   72.6866  226.9146 H   0  0  0  0  0  0  0  0  0  0  0  0
  139.8215   72.5894  224.7079 H   0  0  0  0  0  0  0  0  0  0  0  0
  140.4203   74.2352  218.6848 H   0  0  0  0  0  0  0  0  0  0  0  0
  138.6787   74.5566  219.1240 H   0  0  0  0  0  0  0  0  0  0  0  0
  140.7231   76.3422  218.7895 H   0  0  0  0  0  0  0  0  0  0  0  0
  139.0083   76.5251  219.5624 H   0  0  0  0  0  0  0  0  0  0  0  0
  1  2  1  0
  2  3  1  0
  3  4  2  0
  3  5  1  0
  5  6  1  0
  6  7  2  0
  7  8  1  0
  8  9  2  0
  9 10  1  0
 10 11  2  0
  5 12  1  0
 12 13  1  0
 13 14  1  0
 14 15  1  0
 15 16  1  0
 16 17  2  0
 16 18  1  0
 18 19  1  0
 18 20  1  0
 20 21  1  0
 21 22  2  0
 22 23  1  0
 23 24  2  0
 24 25  1  0
 25 26  2  0
 26 27  1  0
 27 28  2  0
 28 29  1  0
 29 30  2  0
 15 31  1  0
 31 32  1  0
 11  6  1  0
 32 12  1  0
 30 21  1  0
 29 24  1  0
  1 33  1  0
  1 34  1  0
  1 35  1  0
  2 36  1  0
  2 37  1  0
  7 38  1  0
  8 39  1  0
  9 40  1  0
 10 41  1  0
 11 42  1  0
 12 43  1  0
 13 44  1  0
 13 45  1  0
 14 46  1  0
 14 47  1  0
 18 48  1  1
 19 49  1  0
 19 50  1  0
 20 51  1  0
 20 52  1  0
 22 53  1  0
 23 54  1  0
 25 55  1  0
 26 56  1  0
 27 57  1  0
 28 58  1  0
 30 59  1  0
 31 60  1  0
 31 61  1  0
 32 62  1  0
 32 63  1  0
M  END
>  <smiles>  (29) 
CCC(=O)N(c1ccccc1)C1CCN(C(=O)[C@H](N)Cc2ccc3ccccc3c2)CC1

>  <score_type>  (29) 
oracle

>  <origin>  (29) 
autodockgpu

>  <m_score__min__energy>  (29) 
-8.6799999999999997

>  <m_primary>  (29) 
energy

>  <rmsd>  (29) 
6.634936035527089

>  <m_score__min__rmsd>  (29) 
6.634936035527089

>  <meeko>  (29) 
{"free_energy": -8.15, "intermolecular_energy": -10.53, "internal_energy": -2.47, "cluster_size": 14, "cluster_id": 1, "rank_in_cluster": 2}

>  <energy>  (29) 
-8.01

>  <cluster_rmsd>  (29) 
0.51

>  <cluster>  (29) 
3

$$$$

     RDKit          3D

 63 66  0  0  0  0  0  0  0  0999 V2000
  138.0680   80.8100  224.4240 C   0  0  0  0  0  0  0  0  0  0  0  0
  137.7350   80.4680  222.9970 C   0  0  0  0  0  0  0  0  0  0  0  0
  137.9990   79.0380  222.6580 C   0  0  0  0  0  0  0  0  0  0  0  0
  136.9780   78.2840  222.7080 O   0  0  0  0  0  0  0  0  0  0  0  0
  139.2990   78.5570  222.3090 N   0  0  0  0  0  0  0  0  0  0  0  0
  140.5050   79.2460  222.5450 C   0  0  0  0  0  0  0  0  0  0  0  0
  140.9640   80.1810  221.6270 C   0  0  0  0  0  0  0  0  0  0  0  0
  142.1610   80.8790  221.8270 C   0  0  0  0  0  0  0  0  0  0  0  0
  142.9420   80.6770  222.9390 C   0  0  0  0  0  0  0  0  0  0  0  0
  142.4980   79.7550  223.8540 C   0  0  0  0  0  0  0  0  0  0  0  0
  141.3050   79.0580  223.6560 C   0  0  0  0  0  0  0  0  0  0  0  0
  139.3360   77.2350  221.7000 C   0  0  0  0  0  0  0  0  0  0  0  0
  139.4490   76.1420  222.7040 C   0  0  0  0  0  0  0  0  0  0  0  0
  139.6150   74.7940  222.0150 C   0  0  0  0  0  0  0  0  0  0  0  0
  140.6410   74.8410  221.0210 N   0  0  0  0  0  0  0  0  0  0  0  0
  141.5040   73.6960  220.8710 C   0  0  0  0  0  0  0  0  0  0  0  0
  142.4480   73.7090  219.9990 O   0  0  0  0  0  0  0  0  0  0  0  0
  141.3930   72.4660  221.6630 C   0  0  2  0  0  0  0  0  0  0  0  0
  142.3130   71.5020  221.0350 N   0  0  0  0  0  0  0  0  0  0  0  0
  140.0050   71.8630  221.6880 C   0  0  0  0  0  0  0  0  0  0  0  0
  139.8760   71.2170  223.0440 C   0  0  0  0  0  0  0  0  0  0  0  0
  139.1360   70.0670  223.2300 C   0  0  0  0  0  0  0  0  0  0  0  0
  139.0780   69.5510  224.5070 C   0  0  0  0  0  0  0  0  0  0  0  0
  139.7260   70.1430  225.5850 C   0  0  0  0  0  0  0  0  0  0  0  0
  139.6500   69.6050  226.8550 C   0  0  0  0  0  0  0  0  0  0  0  0
  140.3120   70.2230  227.9120 C   0  0  0  0  0  0  0  0  0  0  0  0
  141.0490   71.3730  227.7140 C   0  0  0  0  0  0  0  0  0  0  0  0
  141.1220   71.9070  226.4440 C   0  0  0  0  0  0  0  0  0  0  0  0
  140.4640   71.2990  225.3770 C   0  0  0  0  0  0  0  0  0  0  0  0
  140.5440   71.8460  224.0960 C   0  0  0  0  0  0  0  0  0  0  0  0
  140.9100   75.9440  220.1300 C   0  0  0  0  0  0  0  0  0  0  0  0
  140.1470   77.1490  220.4560 C   0  0  0  0  0  0  0  0  0  0  0  0
  137.4630   80.1887  225.1007 H   0  0  0  0  0  0  0  0  0  0  0  0
  139.1357   80.6191  224.6072 H   0  0  0  0  0  0  0  0  0  0  0  0
  137.8487   81.8722  224.6072 H   0  0  0  0  0  0  0  0  0  0  0  0
  136.6683   80.6764  222.8273 H   0  0  0  0  0  0  0  0  0  0  0  0
  138.3832   81.0815  222.3540 H   0  0  0  0  0  0  0  0  0  0  0  0
  140.3728   80.3781  220.7206 H   0  0  0  0  0  0  0  0  0  0  0  0
  142.4855   81.6102  221.0720 H   0  0  0  0  0  0  0  0  0  0  0  0
  143.8812   81.2294  223.0895 H   0  0  0  0  0  0  0  0  0  0  0  0
  143.0928   79.5621  224.7590 H   0  0  0  0  0  0  0  0  0  0  0  0
  140.9884   78.3286  224.4161 H   0  0  0  0  0  0  0  0  0  0  0  0
  138.3414   77.0416  221.2717 H   0  0  0  0  0  0  0  0  0  0  0  0
  140.3226   76.3297  223.3455 H   0  0  0  0  0  0  0  0  0  0  0  0
  138.5300   76.1199  223.3080 H   0  0  0  0  0  0  0  0  0  0  0  0
  139.8801   74.0371  222.7679 H   0  0  0  0  0  0  0  0  0  0  0  0
  138.6658   74.5372  221.5220 H   0  0  0  0  0  0  0  0  0  0  0  0
  141.6322   72.7025  222.7103 H   0  0  0  0  0  0  0  0  0  0  0  0
  142.1000   71.4810  220.0050 H   0  0  0  0  0  0  0  0  0  0  0  0
  143.2660   71.9350  221.1200 H   0  0  0  0  0  0  0  0  0  0  0  0
  139.2426   72.6456  221.5600 H   0  0  0  0  0  0  0  0  0  0  0  0
  139.8579   71.1388  220.8732 H   0  0  0  0  0  0  0  0  0  0  0  0
  138.6133   69.5815  222.3927 H   0  0  0  0  0  0  0  0  0  0  0  0
  138.4956   68.6340  224.6799 H   0  0  0  0  0  0  0  0  0  0  0  0
  139.0668   68.6890  227.0308 H   0  0  0  0  0  0  0  0  0  0  0  0
  140.2468   69.7883  228.9203 H   0  0  0  0  0  0  0  0  0  0  0  0
  141.5693   71.8556  228.5545 H   0  0  0  0  0  0  0  0  0  0  0  0
  141.7062   72.8230  226.2719 H   0  0  0  0  0  0  0  0  0  0  0  0
  141.1264   72.7619  223.9172 H   0  0  0  0  0  0  0  0  0  0  0  0
  141.9821   76.1839  220.1847 H   0  0  0  0  0  0  0  0  0  0  0  0
  140.6074   75.6293  219.1204 H   0  0  0  0  0  0  0  0  0  0  0  0
  140.8722   77.9750  220.4990 H   0  0  0  0  0  0  0  0  0  0  0  0
  139.3796   77.1670  219.6681 H   0  0  0  0  0  0  0  0  0  0  0  0
  1  2  1  0
  2  3  1  0
  3  4  2  0
  3  5  1  0
  5  6  1  0
  6  7  2  0
  7  8  1  0
  8  9  2  0
  9 10  1  0
 10 11  2  0
  5 12  1  0
 12 13  1  0
 13 14  1  0
 14 15  1  0
 15 16  1  0
 16 17  2  0
 16 18  1  0
 18 19  1  0
 18 20  1  0
 20 21  1  0
 21 22  2  0
 22 23  1  0
 23 24  2  0
 24 25  1  0
 25 26  2  0
 26 27  1  0
 27 28  2  0
 28 29  1  0
 29 30  2  0
 15 31  1  0
 31 32  1  0
 11  6  1  0
 32 12  1  0
 30 21  1  0
 29 24  1  0
  1 33  1  0
  1 34  1  0
  1 35  1  0
  2 36  1  0
  2 37  1  0
  7 38  1  0
  8 39  1  0
  9 40  1  0
 10 41  1  0
 11 42  1  0
 12 43  1  0
 13 44  1  0
 13 45  1  0
 14 46  1  0
 14 47  1  0
 18 48  1  1
 19 49  1  0
 19 50  1  0
 20 51  1  0
 20 52  1  0
 22 53  1  0
 23 54  1  0
 25 55  1  0
 26 56  1  0
 27 57  1  0
 28 58  1  0
 30 59  1  0
 31 60  1  0
 31 61  1  0
 32 62  1  0
 32 63  1  0
M  END
>  <smiles>  (30) 
CCC(=O)N(c1ccccc1)C1CCN(C(=O)[C@H](N)Cc2ccc3ccccc3c2)CC1

>  <score_type>  (30) 
oracle

>  <origin>  (30) 
autodockgpu

>  <m_score__min__energy>  (30) 
-8.6799999999999997

>  <m_primary>  (30) 
energy

>  <rmsd>  (30) 
5.812504401966012

>  <m_score__min__rmsd>  (30) 
5.812504401966012

>  <meeko>  (30) 
{"free_energy": -8.1, "intermolecular_energy": -10.49, "internal_energy": -2.8, "cluster_size": 34, "cluster_id": 3, "rank_in_cluster": 5}

>  <energy>  (30) 
-8.0

>  <cluster_rmsd>  (30) 
0.2

>  <cluster>  (30) 
3

$$$$

     RDKit          3D

 63 66  0  0  0  0  0  0  0  0999 V2000
  142.1850   80.3390  218.9280 C   0  0  0  0  0  0  0  0  0  0  0  0
  141.9050   78.9290  218.4820 C   0  0  0  0  0  0  0  0  0  0  0  0
  142.1810   77.9130  219.5410 C   0  0  0  0  0  0  0  0  0  0  0  0
  143.1500   77.1330  219.2860 O   0  0  0  0  0  0  0  0  0  0  0  0
  141.4130   77.8250  220.7420 N   0  0  0  0  0  0  0  0  0  0  0  0
  141.4180   78.7830  221.7760 C   0  0  0  0  0  0  0  0  0  0  0  0
  140.2200   79.2170  222.3280 C   0  0  0  0  0  0  0  0  0  0  0  0
  140.1880   80.1710  223.3510 C   0  0  0  0  0  0  0  0  0  0  0  0
  141.3360   80.7260  223.8620 C   0  0  0  0  0  0  0  0  0  0  0  0
  142.5260   80.3040  223.3250 C   0  0  0  0  0  0  0  0  0  0  0  0
  142.5600   79.3530  222.3050 C   0  0  0  0  0  0  0  0  0  0  0  0
  140.5460   76.6600  220.8500 C   0  0  0  0  0  0  0  0  0  0  0  0
  140.9340   75.7550  221.9670 C   0  0  0  0  0  0  0  0  0  0  0  0
  140.0830   74.4930  221.9560 C   0  0  0  0  0  0  0  0  0  0  0  0
  140.0440   73.9020  220.6560 N   0  0  0  0  0  0  0  0  0  0  0  0
  140.0750   72.4640  220.5540 C   0  0  0  0  0  0  0  0  0  0  0  0
  140.0580   71.8990  219.4010 O   0  0  0  0  0  0  0  0  0  0  0  0
  140.1270   71.5530  221.7040 C   0  0  2  0  0  0  0  0  0  0  0  0
  140.3020   70.2050  221.1370 N   0  0  0  0  0  0  0  0  0  0  0  0
  138.8800   71.5590  222.5620 C   0  0  0  0  0  0  0  0  0  0  0  0
  139.2460   70.7810  223.8000 C   0  0  0  0  0  0  0  0  0  0  0  0
  139.0230   69.4220  223.8910 C   0  0  0  0  0  0  0  0  0  0  0  0
  139.3910   68.7980  225.0640 C   0  0  0  0  0  0  0  0  0  0  0  0
  139.9650   69.4820  226.1300 C   0  0  0  0  0  0  0  0  0  0  0  0
  140.3240   68.8310  227.2940 C   0  0  0  0  0  0  0  0  0  0  0  0
  140.8970   69.5470  228.3410 C   0  0  0  0  0  0  0  0  0  0  0  0
  141.1150   70.9050  228.2380 C   0  0  0  0  0  0  0  0  0  0  0  0
  140.7540   71.5510  227.0730 C   0  0  0  0  0  0  0  0  0  0  0  0
  140.1790   70.8480  226.0180 C   0  0  0  0  0  0  0  0  0  0  0  0
  139.8190   71.5090  224.8440 C   0  0  0  0  0  0  0  0  0  0  0  0
  139.9760   74.6130  219.4020 C   0  0  0  0  0  0  0  0  0  0  0  0
  140.1520   76.0580  219.5470 C   0  0  0  0  0  0  0  0  0  0  0  0
  142.1934   80.3811  220.0272 H   0  0  0  0  0  0  0  0  0  0  0  0
  143.1641   80.6583  218.5414 H   0  0  0  0  0  0  0  0  0  0  0  0
  141.4022   81.0081  218.5414 H   0  0  0  0  0  0  0  0  0  0  0  0
  140.8455   78.8566  218.1952 H   0  0  0  0  0  0  0  0  0  0  0  0
  142.5763   78.7130  217.6378 H   0  0  0  0  0  0  0  0  0  0  0  0
  139.2737   78.8009  221.9521 H   0  0  0  0  0  0  0  0  0  0  0  0
  139.2156   80.4856  223.7578 H   0  0  0  0  0  0  0  0  0  0  0  0
  141.3027   81.4757  224.6663 H   0  0  0  0  0  0  0  0  0  0  0  0
  143.4694   80.7228  223.7053 H   0  0  0  0  0  0  0  0  0  0  0  0
  143.5370   79.0439  221.9051 H   0  0  0  0  0  0  0  0  0  0  0  0
  139.5592   77.0142  221.1829 H   0  0  0  0  0  0  0  0  0  0  0  0
  141.9927   75.4778  221.8562 H   0  0  0  0  0  0  0  0  0  0  0  0
  140.7754   76.2807  222.9201 H   0  0  0  0  0  0  0  0  0  0  0  0
  140.5082   73.7684  222.6660 H   0  0  0  0  0  0  0  0  0  0  0  0
  139.0567   74.7650  222.2436 H   0  0  0  0  0  0  0  0  0  0  0  0
  140.9437   71.8737  222.3675 H   0  0  0  0  0  0  0  0  0  0  0  0
  139.4860   70.0190  220.4990 H   0  0  0  0  0  0  0  0  0  0  0  0
  141.1430   70.2750  220.5120 H   0  0  0  0  0  0  0  0  0  0  0  0
  138.5973   72.5893  222.8238 H   0  0  0  0  0  0  0  0  0  0  0  0
  138.0197   71.1164  222.0386 H   0  0  0  0  0  0  0  0  0  0  0  0
  138.5700   68.8596  223.0613 H   0  0  0  0  0  0  0  0  0  0  0  0
  139.2238   67.7151  225.1606 H   0  0  0  0  0  0  0  0  0  0  0  0
  140.1573   67.7483  227.3934 H   0  0  0  0  0  0  0  0  0  0  0  0
  141.1804   69.0217  229.2650 H   0  0  0  0  0  0  0  0  0  0  0  0
  141.5687   71.4635  229.0700 H   0  0  0  0  0  0  0  0  0  0  0  0
  140.9226   72.6338  226.9770 H   0  0  0  0  0  0  0  0  0  0  0  0
  139.9847   72.5916  224.7419 H   0  0  0  0  0  0  0  0  0  0  0  0
  140.7662   74.2296  218.7397 H   0  0  0  0  0  0  0  0  0  0  0  0
  138.9710   74.4468  218.9868 H   0  0  0  0  0  0  0  0  0  0  0  0
  140.9245   76.3523  218.8213 H   0  0  0  0  0  0  0  0  0  0  0  0
  139.1298   76.4392  219.4062 H   0  0  0  0  0  0  0  0  0  0  0  0
  1  2  1  0
  2  3  1  0
  3  4  2  0
  3  5  1  0
  5  6  1  0
  6  7  2  0
  7  8  1  0
  8  9  2  0
  9 10  1  0
 10 11  2  0
  5 12  1  0
 12 13  1  0
 13 14  1  0
 14 15  1  0
 15 16  1  0
 16 17  2  0
 16 18  1  0
 18 19  1  0
 18 20  1  0
 20 21  1  0
 21 22  2  0
 22 23  1  0
 23 24  2  0
 24 25  1  0
 25 26  2  0
 26 27  1  0
 27 28  2  0
 28 29  1  0
 29 30  2  0
 15 31  1  0
 31 32  1  0
 11  6  1  0
 32 12  1  0
 30 21  1  0
 29 24  1  0
  1 33  1  0
  1 34  1  0
  1 35  1  0
  2 36  1  0
  2 37  1  0
  7 38  1  0
  8 39  1  0
  9 40  1  0
 10 41  1  0
 11 42  1  0
 12 43  1  0
 13 44  1  0
 13 45  1  0
 14 46  1  0
 14 47  1  0
 18 48  1  1
 19 49  1  0
 19 50  1  0
 20 51  1  0
 20 52  1  0
 22 53  1  0
 23 54  1  0
 25 55  1  0
 26 56  1  0
 27 57  1  0
 28 58  1  0
 30 59  1  0
 31 60  1  0
 31 61  1  0
 32 62  1  0
 32 63  1  0
M  END
>  <smiles>  (31) 
CCC(=O)N(c1ccccc1)C1CCN(C(=O)[C@H](N)Cc2ccc3ccccc3c2)CC1

>  <score_type>  (31) 
oracle

>  <origin>  (31) 
autodockgpu

>  <m_score__min__energy>  (31) 
-8.6799999999999997

>  <m_primary>  (31) 
energy

>  <rmsd>  (31) 
6.596659301242971

>  <m_score__min__rmsd>  (31) 
6.596659301242971

>  <meeko>  (31) 
{"free_energy": -7.91, "intermolecular_energy": -10.3, "internal_energy": -2.74, "cluster_size": 14, "cluster_id": 1, "rank_in_cluster": 8}

>  <energy>  (31) 
-8.0

>  <cluster_rmsd>  (31) 
0.37

>  <cluster>  (31) 
3

$$$$

     RDKit          3D

 63 66  0  0  0  0  0  0  0  0999 V2000
  142.5760   79.9100  218.1970 C   0  0  0  0  0  0  0  0  0  0  0  0
  141.7100   78.6900  218.3590 C   0  0  0  0  0  0  0  0  0  0  0  0
  142.1600   77.7920  219.4630 C   0  0  0  0  0  0  0  0  0  0  0  0
  143.1810   77.0880  219.1900 O   0  0  0  0  0  0  0  0  0  0  0  0
  141.4930   77.7290  220.7250 N   0  0  0  0  0  0  0  0  0  0  0  0
  141.6480   78.6640  221.7680 C   0  0  0  0  0  0  0  0  0  0  0  0
  142.0120   79.9730  221.4820 C   0  0  0  0  0  0  0  0  0  0  0  0
  142.1800   80.9250  222.4930 C   0  0  0  0  0  0  0  0  0  0  0  0
  141.9930   80.6170  223.8180 C   0  0  0  0  0  0  0  0  0  0  0  0
  141.6310   79.3260  224.1140 C   0  0  0  0  0  0  0  0  0  0  0  0
  141.4640   78.3750  223.1070 C   0  0  0  0  0  0  0  0  0  0  0  0
  140.5640   76.6200  220.8900 C   0  0  0  0  0  0  0  0  0  0  0  0
  141.0520   75.6000  221.8590 C   0  0  0  0  0  0  0  0  0  0  0  0
  140.1120   74.4030  221.8980 C   0  0  0  0  0  0  0  0  0  0  0  0
  139.8200   73.9280  220.5830 N   0  0  0  0  0  0  0  0  0  0  0  0
  139.7190   72.5050  220.3740 C   0  0  0  0  0  0  0  0  0  0  0  0
  139.4740   72.0410  219.2010 O   0  0  0  0  0  0  0  0  0  0  0  0
  139.8810   71.4990  221.4300 C   0  0  2  0  0  0  0  0  0  0  0  0
  139.9190   70.1980  220.7400 N   0  0  0  0  0  0  0  0  0  0  0  0
  138.7590   71.4740  222.4460 C   0  0  0  0  0  0  0  0  0  0  0  0
  139.4090   71.0730  223.7460 C   0  0  0  0  0  0  0  0  0  0  0  0
  140.3420   71.8780  224.3660 C   0  0  0  0  0  0  0  0  0  0  0  0
  140.8810   71.4260  225.5510 C   0  0  0  0  0  0  0  0  0  0  0  0
  140.5200   70.2110  226.1240 C   0  0  0  0  0  0  0  0  0  0  0  0
  141.0760   69.7810  227.3130 C   0  0  0  0  0  0  0  0  0  0  0  0
  140.6910   68.5600  227.8590 C   0  0  0  0  0  0  0  0  0  0  0  0
  139.7560   67.7630  227.2290 C   0  0  0  0  0  0  0  0  0  0  0  0
  139.2040   68.1960  226.0420 C   0  0  0  0  0  0  0  0  0  0  0  0
  139.5800   69.4160  225.4840 C   0  0  0  0  0  0  0  0  0  0  0  0
  139.0150   69.8460  224.2830 C   0  0  0  0  0  0  0  0  0  0  0  0
  139.6090   74.7450  219.4120 C   0  0  0  0  0  0  0  0  0  0  0  0
  139.9210   76.1580  219.6300 C   0  0  0  0  0  0  0  0  0  0  0  0
  142.8516   80.2983  219.1886 H   0  0  0  0  0  0  0  0  0  0  0  0
  143.4871   79.6419  217.6420 H   0  0  0  0  0  0  0  0  0  0  0  0
  142.0223   80.6816  217.6420 H   0  0  0  0  0  0  0  0  0  0  0  0
  140.6815   79.0171  218.5716 H   0  0  0  0  0  0  0  0  0  0  0  0
  141.7758   78.1158  217.4231 H   0  0  0  0  0  0  0  0  0  0  0  0
  142.1722   80.2687  220.4347 H   0  0  0  0  0  0  0  0  0  0  0  0
  142.4703   81.9499  222.2187 H   0  0  0  0  0  0  0  0  0  0  0  0
  142.1273   81.3712  224.6074 H   0  0  0  0  0  0  0  0  0  0  0  0
  141.4699   79.0367  225.1630 H   0  0  0  0  0  0  0  0  0  0  0  0
  141.1738   77.3525  223.3905 H   0  0  0  0  0  0  0  0  0  0  0  0
  139.6741   77.0099  221.4058 H   0  0  0  0  0  0  0  0  0  0  0  0
  142.0539   75.2628  221.5547 H   0  0  0  0  0  0  0  0  0  0  0  0
  141.0902   76.0530  222.8607 H   0  0  0  0  0  0  0  0  0  0  0  0
  140.5857   73.5943  222.4739 H   0  0  0  0  0  0  0  0  0  0  0  0
  139.1696   74.7175  222.3702 H   0  0  0  0  0  0  0  0  0  0  0  0
  140.7917   71.7351  222.0000 H   0  0  0  0  0  0  0  0  0  0  0  0
  139.0100   70.0840  220.2240 H   0  0  0  0  0  0  0  0  0  0  0  0
  140.6570   70.3000  219.9990 H   0  0  0  0  0  0  0  0  0  0  0  0
  138.2985   72.4689  222.5362 H   0  0  0  0  0  0  0  0  0  0  0  0
  137.9582   70.7780  222.1558 H   0  0  0  0  0  0  0  0  0  0  0  0
  140.6438   72.8425  223.9317 H   0  0  0  0  0  0  0  0  0  0  0  0
  141.6265   72.0510  226.0643 H   0  0  0  0  0  0  0  0  0  0  0  0
  141.8227   70.4032  227.8281 H   0  0  0  0  0  0  0  0  0  0  0  0
  141.1383   68.2250  228.8065 H   0  0  0  0  0  0  0  0  0  0  0  0
  139.4566   66.7992  227.6665 H   0  0  0  0  0  0  0  0  0  0  0  0
  138.4580   67.5708  225.5296 H   0  0  0  0  0  0  0  0  0  0  0  0
  138.2682   69.2259  223.7655 H   0  0  0  0  0  0  0  0  0  0  0  0
  140.2497   74.3666  218.6019 H   0  0  0  0  0  0  0  0  0  0  0  0
  138.5405   74.6820  219.1581 H   0  0  0  0  0  0  0  0  0  0  0  0
  140.5893   76.4598  218.8101 H   0  0  0  0  0  0  0  0  0  0  0  0
  138.9233   76.6177  219.6875 H   0  0  0  0  0  0  0  0  0  0  0  0
  1  2  1  0
  2  3  1  0
  3  4  2  0
  3  5  1  0
  5  6  1  0
  6  7  2  0
  7  8  1  0
  8  9  2  0
  9 10  1  0
 10 11  2  0
  5 12  1  0
 12 13  1  0
 13 14  1  0
 14 15  1  0
 15 16  1  0
 16 17  2  0
 16 18  1  0
 18 19  1  0
 18 20  1  0
 20 21  1  0
 21 22  2  0
 22 23  1  0
 23 24  2  0
 24 25  1  0
 25 26  2  0
 26 27  1  0
 27 28  2  0
 28 29  1  0
 29 30  2  0
 15 31  1  0
 31 32  1  0
 11  6  1  0
 32 12  1  0
 30 21  1  0
 29 24  1  0
  1 33  1  0
  1 34  1  0
  1 35  1  0
  2 36  1  0
  2 37  1  0
  7 38  1  0
  8 39  1  0
  9 40  1  0
 10 41  1  0
 11 42  1  0
 12 43  1  0
 13 44  1  0
 13 45  1  0
 14 46  1  0
 14 47  1  0
 18 48  1  1
 19 49  1  0
 19 50  1  0
 20 51  1  0
 20 52  1  0
 22 53  1  0
 23 54  1  0
 25 55  1  0
 26 56  1  0
 27 57  1  0
 28 58  1  0
 30 59  1  0
 31 60  1  0
 31 61  1  0
 32 62  1  0
 32 63  1  0
M  END
>  <smiles>  (32) 
CCC(=O)N(c1ccccc1)C1CCN(C(=O)[C@H](N)Cc2ccc3ccccc3c2)CC1

>  <score_type>  (32) 
oracle

>  <origin>  (32) 
autodockgpu

>  <m_score__min__energy>  (32) 
-8.6799999999999997

>  <m_primary>  (32) 
energy

>  <rmsd>  (32) 
6.534583870144674

>  <m_score__min__rmsd>  (32) 
6.534583870144674

>  <meeko>  (32) 
{"free_energy": -8.02, "intermolecular_energy": -10.41, "internal_energy": -2.62, "cluster_size": 14, "cluster_id": 1, "rank_in_cluster": 5}

>  <energy>  (32) 
-7.99

>  <cluster_rmsd>  (32) 
0.46

>  <cluster>  (32) 
3

$$$$

     RDKit          3D

 63 66  0  0  0  0  0  0  0  0999 V2000
  142.5910   79.9290  218.2570 C   0  0  0  0  0  0  0  0  0  0  0  0
  142.4640   78.4670  218.5920 C   0  0  0  0  0  0  0  0  0  0  0  0
  141.3000   78.1660  219.4780 C   0  0  0  0  0  0  0  0  0  0  0  0
  140.2140   77.9310  218.8630 O   0  0  0  0  0  0  0  0  0  0  0  0
  141.4030   78.1470  220.9030 N   0  0  0  0  0  0  0  0  0  0  0  0
  141.6720   79.2710  221.7090 C   0  0  0  0  0  0  0  0  0  0  0  0
  141.0490   80.4820  221.4440 C   0  0  0  0  0  0  0  0  0  0  0  0
  141.2980   81.6200  222.2200 C   0  0  0  0  0  0  0  0  0  0  0  0
  142.1680   81.5970  223.2830 C   0  0  0  0  0  0  0  0  0  0  0  0
  142.7890   80.4040  223.5550 C   0  0  0  0  0  0  0  0  0  0  0  0
  142.5430   79.2690  222.7820 C   0  0  0  0  0  0  0  0  0  0  0  0
  141.1670   76.8540  221.5310 C   0  0  0  0  0  0  0  0  0  0  0  0
  141.3530   75.7150  220.5920 C   0  0  0  0  0  0  0  0  0  0  0  0
  140.9700   74.4010  221.2580 C   0  0  0  0  0  0  0  0  0  0  0  0
  139.6920   74.4900  221.8890 N   0  0  0  0  0  0  0  0  0  0  0  0
  138.8110   73.3500  221.8210 C   0  0  0  0  0  0  0  0  0  0  0  0
  137.6470   73.4010  222.3620 O   0  0  0  0  0  0  0  0  0  0  0  0
  139.1450   72.0850  221.1570 C   0  0  2  0  0  0  0  0  0  0  0  0
  138.0610   71.1510  221.5090 N   0  0  0  0  0  0  0  0  0  0  0  0
  140.4630   71.4800  221.5920 C   0  0  0  0  0  0  0  0  0  0  0  0
  140.2120   70.9360  222.9750 C   0  0  0  0  0  0  0  0  0  0  0  0
  139.5460   69.7440  223.1730 C   0  0  0  0  0  0  0  0  0  0  0  0
  139.3650   69.3280  224.4750 C   0  0  0  0  0  0  0  0  0  0  0  0
  139.8220   70.0590  225.5660 C   0  0  0  0  0  0  0  0  0  0  0  0
  139.6270   69.6200  226.8610 C   0  0  0  0  0  0  0  0  0  0  0  0
  140.0980   70.3760  227.9300 C   0  0  0  0  0  0  0  0  0  0  0  0
  140.7630   71.5670  227.7200 C   0  0  0  0  0  0  0  0  0  0  0  0
  140.9560   72.0020  226.4250 C   0  0  0  0  0  0  0  0  0  0  0  0
  140.4890   71.2560  225.3450 C   0  0  0  0  0  0  0  0  0  0  0  0
  140.6890   71.7040  224.0400 C   0  0  0  0  0  0  0  0  0  0  0  0
  139.1760   75.6320  222.6050 C   0  0  0  0  0  0  0  0  0  0  0  0
  140.0150   76.8240  222.4720 C   0  0  0  0  0  0  0  0  0  0  0  0
  142.6419   80.5151  219.1865 H   0  0  0  0  0  0  0  0  0  0  0  0
  143.5067   80.0924  217.6699 H   0  0  0  0  0  0  0  0  0  0  0  0
  141.7172   80.2479  217.6699 H   0  0  0  0  0  0  0  0  0  0  0  0
  142.3457   77.9026  217.6553 H   0  0  0  0  0  0  0  0  0  0  0  0
  143.3740   78.1760  219.1372 H   0  0  0  0  0  0  0  0  0  0  0  0
  140.3423   80.5495  220.6038 H   0  0  0  0  0  0  0  0  0  0  0  0
  140.7825   82.5594  221.9717 H   0  0  0  0  0  0  0  0  0  0  0  0
  142.3583   82.4950  223.8891 H   0  0  0  0  0  0  0  0  0  0  0  0
  143.4934   80.3414  224.3976 H   0  0  0  0  0  0  0  0  0  0  0  0
  143.0636   78.3342  223.0370 H   0  0  0  0  0  0  0  0  0  0  0  0
  141.9820   76.6835  222.2498 H   0  0  0  0  0  0  0  0  0  0  0  0
  140.7187   75.8695  219.7067 H   0  0  0  0  0  0  0  0  0  0  0  0
  142.4121   75.6675  220.2988 H   0  0  0  0  0  0  0  0  0  0  0  0
  140.9382   73.6090  220.4952 H   0  0  0  0  0  0  0  0  0  0  0  0
  141.7212   74.1712  222.0280 H   0  0  0  0  0  0  0  0  0  0  0  0
  139.2473   72.2738  220.0782 H   0  0  0  0  0  0  0  0  0  0  0  0
  137.9140   71.2100  222.5490 H   0  0  0  0  0  0  0  0  0  0  0  0
  137.1950   71.5590  221.0760 H   0  0  0  0  0  0  0  0  0  0  0  0
  140.7606   70.6717  220.9079 H   0  0  0  0  0  0  0  0  0  0  0  0
  141.2772   72.2196  221.5831 H   0  0  0  0  0  0  0  0  0  0  0  0
  139.1742   69.1491  222.3257 H   0  0  0  0  0  0  0  0  0  0  0  0
  138.8380   68.3800  224.6580 H   0  0  0  0  0  0  0  0  0  0  0  0
  139.0994   68.6729  227.0472 H   0  0  0  0  0  0  0  0  0  0  0  0
  139.9379   70.0190  228.9581 H   0  0  0  0  0  0  0  0  0  0  0  0
  141.1327   72.1590  228.5702 H   0  0  0  0  0  0  0  0  0  0  0  0
  141.4849   72.9492  226.2430 H   0  0  0  0  0  0  0  0  0  0  0  0
  141.2161   72.6509  223.8512 H   0  0  0  0  0  0  0  0  0  0  0  0
  138.1738   75.8648  222.2159 H   0  0  0  0  0  0  0  0  0  0  0  0
  139.1537   75.3657  223.6720 H   0  0  0  0  0  0  0  0  0  0  0  0
  139.3462   77.6443  222.1724 H   0  0  0  0  0  0  0  0  0  0  0  0
  140.5062   76.8825  223.4545 H   0  0  0  0  0  0  0  0  0  0  0  0
  1  2  1  0
  2  3  1  0
  3  4  2  0
  3  5  1  0
  5  6  1  0
  6  7  2  0
  7  8  1  0
  8  9  2  0
  9 10  1  0
 10 11  2  0
  5 12  1  0
 12 13  1  0
 13 14  1  0
 14 15  1  0
 15 16  1  0
 16 17  2  0
 16 18  1  0
 18 19  1  0
 18 20  1  0
 20 21  1  0
 21 22  2  0
 22 23  1  0
 23 24  2  0
 24 25  1  0
 25 26  2  0
 26 27  1  0
 27 28  2  0
 28 29  1  0
 29 30  2  0
 15 31  1  0
 31 32  1  0
 11  6  1  0
 32 12  1  0
 30 21  1  0
 29 24  1  0
  1 33  1  0
  1 34  1  0
  1 35  1  0
  2 36  1  0
  2 37  1  0
  7 38  1  0
  8 39  1  0
  9 40  1  0
 10 41  1  0
 11 42  1  0
 12 43  1  0
 13 44  1  0
 13 45  1  0
 14 46  1  0
 14 47  1  0
 18 48  1  6
 19 49  1  0
 19 50  1  0
 20 51  1  0
 20 52  1  0
 22 53  1  0
 23 54  1  0
 25 55  1  0
 26 56  1  0
 27 57  1  0
 28 58  1  0
 30 59  1  0
 31 60  1  0
 31 61  1  0
 32 62  1  0
 32 63  1  0
M  END
>  <smiles>  (33) 
CCC(=O)N(c1ccccc1)C1CCN(C(=O)[C@H](N)Cc2ccc3ccccc3c2)CC1

>  <score_type>  (33) 
oracle

>  <origin>  (33) 
autodockgpu

>  <m_score__min__energy>  (33) 
-8.6799999999999997

>  <m_primary>  (33) 
energy

>  <rmsd>  (33) 
5.91407682585235

>  <m_score__min__rmsd>  (33) 
5.91407682585235

>  <meeko>  (33) 
{"free_energy": -7.95, "intermolecular_energy": -10.34, "internal_energy": -2.52, "cluster_size": 14, "cluster_id": 1, "rank_in_cluster": 7}

>  <energy>  (33) 
-7.99

>  <cluster_rmsd>  (33) 
0.22

>  <cluster>  (33) 
3

$$$$

     RDKit          3D

 63 66  0  0  0  0  0  0  0  0999 V2000
  138.0050   80.7840  224.3630 C   0  0  0  0  0  0  0  0  0  0  0  0
  137.7850   80.5880  222.8870 C   0  0  0  0  0  0  0  0  0  0  0  0
  137.9780   79.1740  222.4470 C   0  0  0  0  0  0  0  0  0  0  0  0
  136.9020   78.5260  222.2600 O   0  0  0  0  0  0  0  0  0  0  0  0
  139.2710   78.5980  222.2550 N   0  0  0  0  0  0  0  0  0  0  0  0
  140.4900   79.2130  222.6040 C   0  0  0  0  0  0  0  0  0  0  0  0
  141.1960   79.9460  221.6600 C   0  0  0  0  0  0  0  0  0  0  0  0
  142.4120   80.5650  221.9700 C   0  0  0  0  0  0  0  0  0  0  0  0
  142.9690   80.4820  223.2230 C   0  0  0  0  0  0  0  0  0  0  0  0
  142.2800   79.7610  224.1660 C   0  0  0  0  0  0  0  0  0  0  0  0
  141.0680   79.1420  223.8580 C   0  0  0  0  0  0  0  0  0  0  0  0
  139.2830   77.2570  221.6870 C   0  0  0  0  0  0  0  0  0  0  0  0
  139.4350   76.1960  222.7210 C   0  0  0  0  0  0  0  0  0  0  0  0
  139.5720   74.8270  222.0690 C   0  0  0  0  0  0  0  0  0  0  0  0
  140.5570   74.8390  221.0340 N   0  0  0  0  0  0  0  0  0  0  0  0
  141.4130   73.6880  220.8860 C   0  0  0  0  0  0  0  0  0  0  0  0
  142.3200   73.6710  219.9780 O   0  0  0  0  0  0  0  0  0  0  0  0
  141.3320   72.4840  221.7220 C   0  0  2  0  0  0  0  0  0  0  0  0
  142.3180   71.5440  221.1630 N   0  0  0  0  0  0  0  0  0  0  0  0
  139.9740   71.8150  221.7230 C   0  0  0  0  0  0  0  0  0  0  0  0
  139.8440   71.1820  223.0850 C   0  0  0  0  0  0  0  0  0  0  0  0
  139.0770   70.0530  223.2870 C   0  0  0  0  0  0  0  0  0  0  0  0
  139.0200   69.5460  224.5670 C   0  0  0  0  0  0  0  0  0  0  0  0
  139.6960   70.1280  225.6340 C   0  0  0  0  0  0  0  0  0  0  0  0
  139.6220   69.6000  226.9090 C   0  0  0  0  0  0  0  0  0  0  0  0
  140.3120   70.2070  227.9540 C   0  0  0  0  0  0  0  0  0  0  0  0
  141.0760   71.3360  227.7400 C   0  0  0  0  0  0  0  0  0  0  0  0
  141.1480   71.8600  226.4650 C   0  0  0  0  0  0  0  0  0  0  0  0
  140.4620   71.2630  225.4100 C   0  0  0  0  0  0  0  0  0  0  0  0
  140.5410   71.8000  224.1250 C   0  0  0  0  0  0  0  0  0  0  0  0
  140.7910   75.9120  220.0980 C   0  0  0  0  0  0  0  0  0  0  0  0
  140.0440   77.1290  220.4150 C   0  0  0  0  0  0  0  0  0  0  0  0
  137.2992   80.1552  224.9256 H   0  0  0  0  0  0  0  0  0  0  0  0
  139.0357   80.4994  224.6211 H   0  0  0  0  0  0  0  0  0  0  0  0
  137.8408   81.8406  224.6211 H   0  0  0  0  0  0  0  0  0  0  0  0
  136.7566   80.8930  222.6431 H   0  0  0  0  0  0  0  0  0  0  0  0
  138.5327   81.1995  222.3606 H   0  0  0  0  0  0  0  0  0  0  0  0
  140.7893   80.0427  220.6426 H   0  0  0  0  0  0  0  0  0  0  0  0
  142.9367   81.1341  221.1884 H   0  0  0  0  0  0  0  0  0  0  0  0
  143.9250   80.9718  223.4601 H   0  0  0  0  0  0  0  0  0  0  0  0
  142.6905   79.6695  225.1824 H   0  0  0  0  0  0  0  0  0  0  0  0
  140.5510   78.5740  224.6455 H   0  0  0  0  0  0  0  0  0  0  0  0
  138.2722   77.0528  221.3040 H   0  0  0  0  0  0  0  0  0  0  0  0
  140.3337   76.4021  223.3209 H   0  0  0  0  0  0  0  0  0  0  0  0
  138.5411   76.1953  223.3620 H   0  0  0  0  0  0  0  0  0  0  0  0
  139.8660   74.0938  222.8345 H   0  0  0  0  0  0  0  0  0  0  0  0
  138.6035   74.5577  221.6223 H   0  0  0  0  0  0  0  0  0  0  0  0
  141.5218   72.7706  222.7669 H   0  0  0  0  0  0  0  0  0  0  0  0
  142.1110   71.4350  220.1370 H   0  0  0  0  0  0  0  0  0  0  0  0
  143.2390   72.0460  221.2150 H   0  0  0  0  0  0  0  0  0  0  0  0
  139.1782   72.5580  221.5658 H   0  0  0  0  0  0  0  0  0  0  0  0
  139.8811   71.0738  220.9155 H   0  0  0  0  0  0  0  0  0  0  0  0
  138.5323   69.5763  222.4587 H   0  0  0  0  0  0  0  0  0  0  0  0
  138.4161   68.6455  224.7522 H   0  0  0  0  0  0  0  0  0  0  0  0
  139.0179   68.7003  227.0977 H   0  0  0  0  0  0  0  0  0  0  0  0
  140.2474   69.7804  228.9658 H   0  0  0  0  0  0  0  0  0  0  0  0
  141.6184   71.8103  228.5712 H   0  0  0  0  0  0  0  0  0  0  0  0
  141.7540   72.7592  226.2800 H   0  0  0  0  0  0  0  0  0  0  0  0
  141.1449   72.6992  223.9334 H   0  0  0  0  0  0  0  0  0  0  0  0
  141.8648   76.1505  220.1015 H   0  0  0  0  0  0  0  0  0  0  0  0
  140.4467   75.5656  219.1124 H   0  0  0  0  0  0  0  0  0  0  0  0
  140.7719   77.9536  220.4028 H   0  0  0  0  0  0  0  0  0  0  0  0
  139.2461   77.1245  219.6578 H   0  0  0  0  0  0  0  0  0  0  0  0
  1  2  1  0
  2  3  1  0
  3  4  2  0
  3  5  1  0
  5  6  1  0
  6  7  2  0
  7  8  1  0
  8  9  2  0
  9 10  1  0
 10 11  2  0
  5 12  1  0
 12 13  1  0
 13 14  1  0
 14 15  1  0
 15 16  1  0
 16 17  2  0
 16 18  1  0
 18 19  1  0
 18 20  1  0
 20 21  1  0
 21 22  2  0
 22 23  1  0
 23 24  2  0
 24 25  1  0
 25 26  2  0
 26 27  1  0
 27 28  2  0
 28 29  1  0
 29 30  2  0
 15 31  1  0
 31 32  1  0
 11  6  1  0
 32 12  1  0
 30 21  1  0
 29 24  1  0
  1 33  1  0
  1 34  1  0
  1 35  1  0
  2 36  1  0
  2 37  1  0
  7 38  1  0
  8 39  1  0
  9 40  1  0
 10 41  1  0
 11 42  1  0
 12 43  1  0
 13 44  1  0
 13 45  1  0
 14 46  1  0
 14 47  1  0
 18 48  1  1
 19 49  1  0
 19 50  1  0
 20 51  1  0
 20 52  1  0
 22 53  1  0
 23 54  1  0
 25 55  1  0
 26 56  1  0
 27 57  1  0
 28 58  1  0
 30 59  1  0
 31 60  1  0
 31 61  1  0
 32 62  1  0
 32 63  1  0
M  END
>  <smiles>  (34) 
CCC(=O)N(c1ccccc1)C1CCN(C(=O)[C@H](N)Cc2ccc3ccccc3c2)CC1

>  <score_type>  (34) 
oracle

>  <origin>  (34) 
autodockgpu

>  <m_score__min__energy>  (34) 
-8.6799999999999997

>  <m_primary>  (34) 
energy

>  <rmsd>  (34) 
5.831534925481655

>  <m_score__min__rmsd>  (34) 
5.831534925481655

>  <meeko>  (34) 
{"free_energy": -8.0, "intermolecular_energy": -10.38, "internal_energy": -2.84, "cluster_size": 34, "cluster_id": 3, "rank_in_cluster": 15}

>  <energy>  (34) 
-7.99

>  <cluster_rmsd>  (34) 
0.85

>  <cluster>  (34) 
3

$$$$

     RDKit          3D

 63 66  0  0  0  0  0  0  0  0999 V2000
  137.9260   80.5730  224.2480 C   0  0  0  0  0  0  0  0  0  0  0  0
  137.8120   80.8430  222.7720 C   0  0  0  0  0  0  0  0  0  0  0  0
  138.0590   79.6340  221.9320 C   0  0  0  0  0  0  0  0  0  0  0  0
  137.0920   79.3060  221.1780 O   0  0  0  0  0  0  0  0  0  0  0  0
  139.2860   78.9030  221.9770 N   0  0  0  0  0  0  0  0  0  0  0  0
  140.5170   79.4190  222.4300 C   0  0  0  0  0  0  0  0  0  0  0  0
  140.9710   79.1170  223.7070 C   0  0  0  0  0  0  0  0  0  0  0  0
  142.1860   79.6170  224.1910 C   0  0  0  0  0  0  0  0  0  0  0  0
  142.9910   80.4290  223.4300 C   0  0  0  0  0  0  0  0  0  0  0  0
  142.5530   80.7330  222.1650 C   0  0  0  0  0  0  0  0  0  0  0  0
  141.3420   80.2360  221.6810 C   0  0  0  0  0  0  0  0  0  0  0  0
  139.2060   77.5140  221.5490 C   0  0  0  0  0  0  0  0  0  0  0  0
  139.3680   76.5540  222.6750 C   0  0  0  0  0  0  0  0  0  0  0  0
  139.4070   75.1220  222.1600 C   0  0  0  0  0  0  0  0  0  0  0  0
  140.3320   74.9830  221.0800 N   0  0  0  0  0  0  0  0  0  0  0  0
  141.1260   73.7810  221.0060 C   0  0  0  0  0  0  0  0  0  0  0  0
  141.9800   73.6290  220.0590 O   0  0  0  0  0  0  0  0  0  0  0  0
  141.0380   72.6710  221.9630 C   0  0  2  0  0  0  0  0  0  0  0  0
  142.0480   71.6900  221.5290 N   0  0  0  0  0  0  0  0  0  0  0  0
  139.6870   71.9880  222.0040 C   0  0  0  0  0  0  0  0  0  0  0  0
  139.6410   71.2810  223.3350 C   0  0  0  0  0  0  0  0  0  0  0  0
  138.9530   70.0960  223.5000 C   0  0  0  0  0  0  0  0  0  0  0  0
  138.9680   69.5250  224.7540 C   0  0  0  0  0  0  0  0  0  0  0  0
  139.6400   70.0940  225.8300 C   0  0  0  0  0  0  0  0  0  0  0  0
  139.6390   69.5000  227.0770 C   0  0  0  0  0  0  0  0  0  0  0  0
  140.3220   70.0980  228.1320 C   0  0  0  0  0  0  0  0  0  0  0  0
  141.0070   71.2830  227.9550 C   0  0  0  0  0  0  0  0  0  0  0  0
  141.0060   71.8730  226.7080 C   0  0  0  0  0  0  0  0  0  0  0  0
  140.3250   71.2860  225.6430 C   0  0  0  0  0  0  0  0  0  0  0  0
  140.3300   71.8900  224.3860 C   0  0  0  0  0  0  0  0  0  0  0  0
  140.5610   75.9440  220.0290 C   0  0  0  0  0  0  0  0  0  0  0  0
  139.8880   77.2230  220.2590 C   0  0  0  0  0  0  0  0  0  0  0  0
  137.5581   81.4443  224.8096 H   0  0  0  0  0  0  0  0  0  0  0  0
  137.3242   79.6893  224.5067 H   0  0  0  0  0  0  0  0  0  0  0  0
  138.9790   80.3880  224.5067 H   0  0  0  0  0  0  0  0  0  0  0  0
  136.7978   81.2135  222.5617 H   0  0  0  0  0  0  0  0  0  0  0  0
  138.5840   81.5831  222.5146 H   0  0  0  0  0  0  0  0  0  0  0  0
  140.3613   78.4692  224.3541 H   0  0  0  0  0  0  0  0  0  0  0  0
  142.5050   79.3519  225.2098 H   0  0  0  0  0  0  0  0  0  0  0  0
  143.9442   80.8184  223.8169 H   0  0  0  0  0  0  0  0  0  0  0  0
  143.1674   81.3798  221.5214 H   0  0  0  0  0  0  0  0  0  0  0  0
  141.0314   80.5059  220.6609 H   0  0  0  0  0  0  0  0  0  0  0  0
  138.1668   77.3241  221.2425 H   0  0  0  0  0  0  0  0  0  0  0  0
  140.3072   76.7732  223.2040 H   0  0  0  0  0  0  0  0  0  0  0  0
  138.5117   76.6613  223.3571 H   0  0  0  0  0  0  0  0  0  0  0  0
  139.7108   74.4546  222.9800 H   0  0  0  0  0  0  0  0  0  0  0  0
  138.4040   74.8576  221.7939 H   0  0  0  0  0  0  0  0  0  0  0  0
  141.1996   73.0685  222.9758 H   0  0  0  0  0  0  0  0  0  0  0  0
  141.8380   71.4370  220.5290 H   0  0  0  0  0  0  0  0  0  0  0  0
  142.9540   72.2200  221.5040 H   0  0  0  0  0  0  0  0  0  0  0  0
  138.8777   72.7296  221.9331 H   0  0  0  0  0  0  0  0  0  0  0  0
  139.5533   71.2909  221.1636 H   0  0  0  0  0  0  0  0  0  0  0  0
  138.4142   69.6262  222.6639 H   0  0  0  0  0  0  0  0  0  0  0  0
  138.4262   68.5805  224.9101 H   0  0  0  0  0  0  0  0  0  0  0  0
  139.0988   68.5551  227.2361 H   0  0  0  0  0  0  0  0  0  0  0  0
  140.3158   69.6188  229.1221 H   0  0  0  0  0  0  0  0  0  0  0  0
  141.5446   71.7491  228.7939 H   0  0  0  0  0  0  0  0  0  0  0  0
  141.5486   72.8171  226.5525 H   0  0  0  0  0  0  0  0  0  0  0  0
  140.8701   72.8346  224.2244 H   0  0  0  0  0  0  0  0  0  0  0  0
  141.6430   76.1273  219.9528 H   0  0  0  0  0  0  0  0  0  0  0  0
  140.1470   75.5193  219.1026 H   0  0  0  0  0  0  0  0  0  0  0  0
  140.6503   78.0048  220.1261 H   0  0  0  0  0  0  0  0  0  0  0  0
  139.0496   77.1840  219.5480 H   0  0  0  0  0  0  0  0  0  0  0  0
  1  2  1  0
  2  3  1  0
  3  4  2  0
  3  5  1  0
  5  6  1  0
  6  7  2  0
  7  8  1  0
  8  9  2  0
  9 10  1  0
 10 11  2  0
  5 12  1  0
 12 13  1  0
 13 14  1  0
 14 15  1  0
 15 16  1  0
 16 17  2  0
 16 18  1  0
 18 19  1  0
 18 20  1  0
 20 21  1  0
 21 22  2  0
 22 23  1  0
 23 24  2  0
 24 25  1  0
 25 26  2  0
 26 27  1  0
 27 28  2  0
 28 29  1  0
 29 30  2  0
 15 31  1  0
 31 32  1  0
 11  6  1  0
 32 12  1  0
 30 21  1  0
 29 24  1  0
  1 33  1  0
  1 34  1  0
  1 35  1  0
  2 36  1  0
  2 37  1  0
  7 38  1  0
  8 39  1  0
  9 40  1  0
 10 41  1  0
 11 42  1  0
 12 43  1  0
 13 44  1  0
 13 45  1  0
 14 46  1  0
 14 47  1  0
 18 48  1  1
 19 49  1  0
 19 50  1  0
 20 51  1  0
 20 52  1  0
 22 53  1  0
 23 54  1  0
 25 55  1  0
 26 56  1  0
 27 57  1  0
 28 58  1  0
 30 59  1  0
 31 60  1  0
 31 61  1  0
 32 62  1  0
 32 63  1  0
M  END
>  <smiles>  (35) 
CCC(=O)N(c1ccccc1)C1CCN(C(=O)[C@H](N)Cc2ccc3ccccc3c2)CC1

>  <score_type>  (35) 
oracle

>  <origin>  (35) 
autodockgpu

>  <m_score__min__energy>  (35) 
-8.6799999999999997

>  <m_primary>  (35) 
energy

>  <rmsd>  (35) 
5.782124838950385

>  <m_score__min__rmsd>  (35) 
5.782124838950385

>  <meeko>  (35) 
{"free_energy": -7.92, "intermolecular_energy": -10.31, "internal_energy": -2.81, "cluster_size": 34, "cluster_id": 3, "rank_in_cluster": 31}

>  <energy>  (35) 
-7.98

>  <cluster_rmsd>  (35) 
0.42

>  <cluster>  (35) 
3

$$$$

     RDKit          3D

 63 66  0  0  0  0  0  0  0  0999 V2000
  138.0780   80.9000  224.1970 C   0  0  0  0  0  0  0  0  0  0  0  0
  137.3620   79.8070  223.4490 C   0  0  0  0  0  0  0  0  0  0  0  0
  138.0090   79.4650  222.1480 C   0  0  0  0  0  0  0  0  0  0  0  0
  137.3530   79.8210  221.1200 O   0  0  0  0  0  0  0  0  0  0  0  0
  139.2650   78.7880  222.0670 N   0  0  0  0  0  0  0  0  0  0  0  0
  140.5040   79.3360  222.4550 C   0  0  0  0  0  0  0  0  0  0  0  0
  140.9740   79.1470  223.7470 C   0  0  0  0  0  0  0  0  0  0  0  0
  142.1980   79.6820  224.1670 C   0  0  0  0  0  0  0  0  0  0  0  0
  142.9960   80.4180  223.3250 C   0  0  0  0  0  0  0  0  0  0  0  0
  142.5410   80.6100  222.0440 C   0  0  0  0  0  0  0  0  0  0  0  0
  141.3220   80.0780  221.6240 C   0  0  0  0  0  0  0  0  0  0  0  0
  139.2090   77.4180  221.5760 C   0  0  0  0  0  0  0  0  0  0  0  0
  139.3750   76.4110  222.6600 C   0  0  0  0  0  0  0  0  0  0  0  0
  139.4400   75.0050  222.0820 C   0  0  0  0  0  0  0  0  0  0  0  0
  140.3770   74.9270  221.0060 N   0  0  0  0  0  0  0  0  0  0  0  0
  141.1890   73.7420  220.8860 C   0  0  0  0  0  0  0  0  0  0  0  0
  142.0530   73.6440  219.9410 O   0  0  0  0  0  0  0  0  0  0  0  0
  141.1090   72.5890  221.7910 C   0  0  2  0  0  0  0  0  0  0  0  0
  142.0250   71.5790  221.2330 N   0  0  0  0  0  0  0  0  0  0  0  0
  139.7280   71.9780  221.9040 C   0  0  0  0  0  0  0  0  0  0  0  0
  139.7250   71.2440  223.2200 C   0  0  0  0  0  0  0  0  0  0  0  0
  139.1250   70.0090  223.3580 C   0  0  0  0  0  0  0  0  0  0  0  0
  139.1740   69.4150  224.6010 C   0  0  0  0  0  0  0  0  0  0  0  0
  139.7940   70.0120  225.6930 C   0  0  0  0  0  0  0  0  0  0  0  0
  139.8280   69.3960  226.9280 C   0  0  0  0  0  0  0  0  0  0  0  0
  140.4580   70.0220  228.0000 C   0  0  0  0  0  0  0  0  0  0  0  0
  141.0550   71.2570  227.8510 C   0  0  0  0  0  0  0  0  0  0  0  0
  141.0180   71.8700  226.6150 C   0  0  0  0  0  0  0  0  0  0  0  0
  140.3910   71.2550  225.5340 C   0  0  0  0  0  0  0  0  0  0  0  0
  140.3590   71.8820  224.2880 C   0  0  0  0  0  0  0  0  0  0  0  0
  140.6010   75.9380  220.0010 C   0  0  0  0  0  0  0  0  0  0  0  0
  139.9070   77.1950  220.2810 C   0  0  0  0  0  0  0  0  0  0  0  0
  137.9700   80.7352  225.2792 H   0  0  0  0  0  0  0  0  0  0  0  0
  139.1448   80.8895  223.9291 H   0  0  0  0  0  0  0  0  0  0  0  0
  137.6422   81.8738  223.9291 H   0  0  0  0  0  0  0  0  0  0  0  0
  137.3448   78.9053  224.0789 H   0  0  0  0  0  0  0  0  0  0  0  0
  136.3492   80.1730  223.2247 H   0  0  0  0  0  0  0  0  0  0  0  0
  140.3708   78.5632  224.4579 H   0  0  0  0  0  0  0  0  0  0  0  0
  142.5302   79.5079  225.2011 H   0  0  0  0  0  0  0  0  0  0  0  0
  143.9565   80.8348  223.6621 H   0  0  0  0  0  0  0  0  0  0  0  0
  143.1484   81.1936  221.3366 H   0  0  0  0  0  0  0  0  0  0  0  0
  140.9981   80.2564  220.5880 H   0  0  0  0  0  0  0  0  0  0  0  0
  138.1757   77.2270  221.2507 H   0  0  0  0  0  0  0  0  0  0  0  0
  140.3059   76.6198  223.2075 H   0  0  0  0  0  0  0  0  0  0  0  0
  138.5112   76.4753  223.3380 H   0  0  0  0  0  0  0  0  0  0  0  0
  139.7458   74.3060  222.8744 H   0  0  0  0  0  0  0  0  0  0  0  0
  138.4444   74.7435  221.6941 H   0  0  0  0  0  0  0  0  0  0  0  0
  141.3689   72.9237  222.8061 H   0  0  0  0  0  0  0  0  0  0  0  0
  141.7580   71.4270  220.2270 H   0  0  0  0  0  0  0  0  0  0  0  0
  142.9670   72.0440  221.2110 H   0  0  0  0  0  0  0  0  0  0  0  0
  138.9576   72.7631  221.8989 H   0  0  0  0  0  0  0  0  0  0  0  0
  139.5053   71.3084  221.0602 H   0  0  0  0  0  0  0  0  0  0  0  0
  138.6270   69.5176  222.5091 H   0  0  0  0  0  0  0  0  0  0  0  0
  138.7039   68.4295  224.7343 H   0  0  0  0  0  0  0  0  0  0  0  0
  139.3576   68.4111  227.0649 H   0  0  0  0  0  0  0  0  0  0  0  0
  140.4802   69.5245  228.9808 H   0  0  0  0  0  0  0  0  0  0  0  0
  141.5519   71.7446  228.7027 H   0  0  0  0  0  0  0  0  0  0  0  0
  141.4889   72.8552  226.4822 H   0  0  0  0  0  0  0  0  0  0  0  0
  140.8277   72.8673  224.1487 H   0  0  0  0  0  0  0  0  0  0  0  0
  141.6807   76.1404  219.9437 H   0  0  0  0  0  0  0  0  0  0  0  0
  140.2017   75.5492  219.0526 H   0  0  0  0  0  0  0  0  0  0  0  0
  140.6586   77.9930  220.1904 H   0  0  0  0  0  0  0  0  0  0  0  0
  139.0758   77.1756  219.5608 H   0  0  0  0  0  0  0  0  0  0  0  0
  1  2  1  0
  2  3  1  0
  3  4  2  0
  3  5  1  0
  5  6  1  0
  6  7  2  0
  7  8  1  0
  8  9  2  0
  9 10  1  0
 10 11  2  0
  5 12  1  0
 12 13  1  0
 13 14  1  0
 14 15  1  0
 15 16  1  0
 16 17  2  0
 16 18  1  0
 18 19  1  0
 18 20  1  0
 20 21  1  0
 21 22  2  0
 22 23  1  0
 23 24  2  0
 24 25  1  0
 25 26  2  0
 26 27  1  0
 27 28  2  0
 28 29  1  0
 29 30  2  0
 15 31  1  0
 31 32  1  0
 11  6  1  0
 32 12  1  0
 30 21  1  0
 29 24  1  0
  1 33  1  0
  1 34  1  0
  1 35  1  0
  2 36  1  0
  2 37  1  0
  7 38  1  0
  8 39  1  0
  9 40  1  0
 10 41  1  0
 11 42  1  0
 12 43  1  0
 13 44  1  0
 13 45  1  0
 14 46  1  0
 14 47  1  0
 18 48  1  1
 19 49  1  0
 19 50  1  0
 20 51  1  0
 20 52  1  0
 22 53  1  0
 23 54  1  0
 25 55  1  0
 26 56  1  0
 27 57  1  0
 28 58  1  0
 30 59  1  0
 31 60  1  0
 31 61  1  0
 32 62  1  0
 32 63  1  0
M  END
>  <smiles>  (36) 
CCC(=O)N(c1ccccc1)C1CCN(C(=O)[C@H](N)Cc2ccc3ccccc3c2)CC1

>  <score_type>  (36) 
oracle

>  <origin>  (36) 
autodockgpu

>  <m_score__min__energy>  (36) 
-8.6799999999999997

>  <m_primary>  (36) 
energy

>  <rmsd>  (36) 
5.788643605923933

>  <m_score__min__rmsd>  (36) 
5.788643605923933

>  <meeko>  (36) 
{"free_energy": -8.01, "intermolecular_energy": -10.39, "internal_energy": -2.78, "cluster_size": 34, "cluster_id": 3, "rank_in_cluster": 14}

>  <energy>  (36) 
-7.98

>  <cluster_rmsd>  (36) 
0.27

>  <cluster>  (36) 
3

$$$$

     RDKit          3D

 63 66  0  0  0  0  0  0  0  0999 V2000
  138.0600   80.7440  224.4640 C   0  0  0  0  0  0  0  0  0  0  0  0
  137.5990   80.4070  223.0710 C   0  0  0  0  0  0  0  0  0  0  0  0
  137.8950   78.9970  222.6800 C   0  0  0  0  0  0  0  0  0  0  0  0
  136.8910   78.2190  222.7040 O   0  0  0  0  0  0  0  0  0  0  0  0
  139.2040   78.5590  222.3100 N   0  0  0  0  0  0  0  0  0  0  0  0
  140.3900   79.2880  222.5230 C   0  0  0  0  0  0  0  0  0  0  0  0
  141.1890   79.0130  223.6240 C   0  0  0  0  0  0  0  0  0  0  0  0
  142.3710   79.7220  223.8690 C   0  0  0  0  0  0  0  0  0  0  0  0
  142.8020   80.7240  223.0350 C   0  0  0  0  0  0  0  0  0  0  0  0
  142.0210   81.0050  221.9410 C   0  0  0  0  0  0  0  0  0  0  0  0
  140.8420   80.2990  221.6960 C   0  0  0  0  0  0  0  0  0  0  0  0
  139.2750   77.2360  221.7040 C   0  0  0  0  0  0  0  0  0  0  0  0
  139.3730   76.1460  222.7120 C   0  0  0  0  0  0  0  0  0  0  0  0
  139.5760   74.8000  222.0300 C   0  0  0  0  0  0  0  0  0  0  0  0
  140.6290   74.8580  221.0660 N   0  0  0  0  0  0  0  0  0  0  0  0
  141.5100   73.7240  220.9410 C   0  0  0  0  0  0  0  0  0  0  0  0
  142.4780   73.7480  220.0970 O   0  0  0  0  0  0  0  0  0  0  0  0
  141.3930   72.4940  221.7330 C   0  0  2  0  0  0  0  0  0  0  0  0
  142.3200   71.5310  221.1130 N   0  0  0  0  0  0  0  0  0  0  0  0
  140.0040   71.8890  221.7430 C   0  0  0  0  0  0  0  0  0  0  0  0
  139.8700   71.2270  223.0910 C   0  0  0  0  0  0  0  0  0  0  0  0
  139.1410   70.0670  223.2570 C   0  0  0  0  0  0  0  0  0  0  0  0
  139.0760   69.5360  224.5270 C   0  0  0  0  0  0  0  0  0  0  0  0
  139.7080   70.1220  225.6180 C   0  0  0  0  0  0  0  0  0  0  0  0
  139.6270   69.5690  226.8810 C   0  0  0  0  0  0  0  0  0  0  0  0
  140.2720   70.1820  227.9510 C   0  0  0  0  0  0  0  0  0  0  0  0
  140.9980   71.3420  227.7730 C   0  0  0  0  0  0  0  0  0  0  0  0
  141.0770   71.8910  226.5100 C   0  0  0  0  0  0  0  0  0  0  0  0
  140.4350   71.2890  225.4300 C   0  0  0  0  0  0  0  0  0  0  0  0
  140.5210   71.8510  224.1560 C   0  0  0  0  0  0  0  0  0  0  0  0
  140.9090   75.9630  220.1800 C   0  0  0  0  0  0  0  0  0  0  0  0
  140.1220   77.1590  220.4830 C   0  0  0  0  0  0  0  0  0  0  0  0
  137.3976   80.2598  225.1966 H   0  0  0  0  0  0  0  0  0  0  0  0
  139.0897   80.3842  224.6066 H   0  0  0  0  0  0  0  0  0  0  0  0
  138.0296   81.8343  224.6066 H   0  0  0  0  0  0  0  0  0  0  0  0
  136.5119   80.5649  223.0145 H   0  0  0  0  0  0  0  0  0  0  0  0
  138.1474   81.0612  222.3773 H   0  0  0  0  0  0  0  0  0  0  0  0
  140.8860   78.2182  224.3214 H   0  0  0  0  0  0  0  0  0  0  0  0
  142.9717   79.4691  224.7551 H   0  0  0  0  0  0  0  0  0  0  0  0
  143.7317   81.2771  223.2344 H   0  0  0  0  0  0  0  0  0  0  0  0
  142.3297   81.7998  221.2460 H   0  0  0  0  0  0  0  0  0  0  0  0
  140.2476   80.5582  220.8074 H   0  0  0  0  0  0  0  0  0  0  0  0
  138.2955   77.0293  221.2481 H   0  0  0  0  0  0  0  0  0  0  0  0
  140.2253   76.3456  223.3782 H   0  0  0  0  0  0  0  0  0  0  0  0
  138.4374   76.1127  223.2895 H   0  0  0  0  0  0  0  0  0  0  0  0
  139.8288   74.0474  222.7914 H   0  0  0  0  0  0  0  0  0  0  0  0
  138.6447   74.5313  221.5099 H   0  0  0  0  0  0  0  0  0  0  0  0
  141.6218   72.7304  222.7827 H   0  0  0  0  0  0  0  0  0  0  0  0
  142.1240   71.5180  220.0800 H   0  0  0  0  0  0  0  0  0  0  0  0
  143.2730   71.9600  221.2170 H   0  0  0  0  0  0  0  0  0  0  0  0
  139.2414   72.6722  221.6205 H   0  0  0  0  0  0  0  0  0  0  0  0
  139.8610   71.1749  220.9186 H   0  0  0  0  0  0  0  0  0  0  0  0
  138.6320   69.5853  222.4091 H   0  0  0  0  0  0  0  0  0  0  0  0
  138.5010   68.6114  224.6839 H   0  0  0  0  0  0  0  0  0  0  0  0
  139.0529   68.6444  227.0411 H   0  0  0  0  0  0  0  0  0  0  0  0
  140.2021   69.7352  228.9537 H   0  0  0  0  0  0  0  0  0  0  0  0
  141.5050   71.8207  228.6237 H   0  0  0  0  0  0  0  0  0  0  0  0
  141.6535   72.8147  226.3538 H   0  0  0  0  0  0  0  0  0  0  0  0
  141.0951   72.7750  223.9929 H   0  0  0  0  0  0  0  0  0  0  0  0
  141.9762   76.2163  220.2636 H   0  0  0  0  0  0  0  0  0  0  0  0
  140.6386   75.6429  219.1629 H   0  0  0  0  0  0  0  0  0  0  0  0
  140.8354   77.9940  220.5454 H   0  0  0  0  0  0  0  0  0  0  0  0
  139.3769   77.1668  219.6738 H   0  0  0  0  0  0  0  0  0  0  0  0
  1  2  1  0
  2  3  1  0
  3  4  2  0
  3  5  1  0
  5  6  1  0
  6  7  2  0
  7  8  1  0
  8  9  2  0
  9 10  1  0
 10 11  2  0
  5 12  1  0
 12 13  1  0
 13 14  1  0
 14 15  1  0
 15 16  1  0
 16 17  2  0
 16 18  1  0
 18 19  1  0
 18 20  1  0
 20 21  1  0
 21 22  2  0
 22 23  1  0
 23 24  2  0
 24 25  1  0
 25 26  2  0
 26 27  1  0
 27 28  2  0
 28 29  1  0
 29 30  2  0
 15 31  1  0
 31 32  1  0
 11  6  1  0
 32 12  1  0
 30 21  1  0
 29 24  1  0
  1 33  1  0
  1 34  1  0
  1 35  1  0
  2 36  1  0
  2 37  1  0
  7 38  1  0
  8 39  1  0
  9 40  1  0
 10 41  1  0
 11 42  1  0
 12 43  1  0
 13 44  1  0
 13 45  1  0
 14 46  1  0
 14 47  1  0
 18 48  1  1
 19 49  1  0
 19 50  1  0
 20 51  1  0
 20 52  1  0
 22 53  1  0
 23 54  1  0
 25 55  1  0
 26 56  1  0
 27 57  1  0
 28 58  1  0
 30 59  1  0
 31 60  1  0
 31 61  1  0
 32 62  1  0
 32 63  1  0
M  END
>  <smiles>  (37) 
CCC(=O)N(c1ccccc1)C1CCN(C(=O)[C@H](N)Cc2ccc3ccccc3c2)CC1

>  <score_type>  (37) 
oracle

>  <origin>  (37) 
autodockgpu

>  <m_score__min__energy>  (37) 
-8.6799999999999997

>  <m_primary>  (37) 
energy

>  <rmsd>  (37) 
5.815550543819859

>  <m_score__min__rmsd>  (37) 
5.815550543819859

>  <meeko>  (37) 
{"free_energy": -8.11, "intermolecular_energy": -10.5, "internal_energy": -2.77, "cluster_size": 34, "cluster_id": 3, "rank_in_cluster": 2}

>  <energy>  (37) 
-7.96

>  <cluster_rmsd>  (37) 
0.59

>  <cluster>  (37) 
3

$$$$

     RDKit          3D

 63 66  0  0  0  0  0  0  0  0999 V2000
  138.0570   81.4880  222.9630 C   0  0  0  0  0  0  0  0  0  0  0  0
  137.8070   80.1430  223.5910 C   0  0  0  0  0  0  0  0  0  0  0  0
  138.0160   79.0050  222.6470 C   0  0  0  0  0  0  0  0  0  0  0  0
  136.9470   78.4910  222.1930 O   0  0  0  0  0  0  0  0  0  0  0  0
  139.3150   78.5330  222.2870 N   0  0  0  0  0  0  0  0  0  0  0  0
  140.5200   79.2260  222.5180 C   0  0  0  0  0  0  0  0  0  0  0  0
  140.9900   80.1360  221.5820 C   0  0  0  0  0  0  0  0  0  0  0  0
  142.1860   80.8380  221.7770 C   0  0  0  0  0  0  0  0  0  0  0  0
  142.9540   80.6630  222.9020 C   0  0  0  0  0  0  0  0  0  0  0  0
  142.4980   79.7660  223.8360 C   0  0  0  0  0  0  0  0  0  0  0  0
  141.3070   79.0650  223.6430 C   0  0  0  0  0  0  0  0  0  0  0  0
  139.3540   77.2140  221.6690 C   0  0  0  0  0  0  0  0  0  0  0  0
  139.4710   76.1150  222.6670 C   0  0  0  0  0  0  0  0  0  0  0  0
  139.6390   74.7720  221.9700 C   0  0  0  0  0  0  0  0  0  0  0  0
  140.6630   74.8270  220.9750 N   0  0  0  0  0  0  0  0  0  0  0  0
  141.5290   73.6850  220.8170 C   0  0  0  0  0  0  0  0  0  0  0  0
  142.4710   73.7050  219.9440 O   0  0  0  0  0  0  0  0  0  0  0  0
  141.4210   72.4490  221.6020 C   0  0  2  0  0  0  0  0  0  0  0  0
  142.3510   71.4950  220.9740 N   0  0  0  0  0  0  0  0  0  0  0  0
  140.0360   71.8370  221.6160 C   0  0  0  0  0  0  0  0  0  0  0  0
  139.8960   71.2030  222.9770 C   0  0  0  0  0  0  0  0  0  0  0  0
  139.1530   70.0560  223.1660 C   0  0  0  0  0  0  0  0  0  0  0  0
  139.0840   69.5510  224.4470 C   0  0  0  0  0  0  0  0  0  0  0  0
  139.7240   70.1500  225.5250 C   0  0  0  0  0  0  0  0  0  0  0  0
  139.6380   69.6230  226.7990 C   0  0  0  0  0  0  0  0  0  0  0  0
  140.2930   70.2490  227.8560 C   0  0  0  0  0  0  0  0  0  0  0  0
  141.0330   71.3960  227.6540 C   0  0  0  0  0  0  0  0  0  0  0  0
  141.1170   71.9190  226.3800 C   0  0  0  0  0  0  0  0  0  0  0  0
  140.4660   71.3040  225.3130 C   0  0  0  0  0  0  0  0  0  0  0  0
  140.5570   71.8400  224.0290 C   0  0  0  0  0  0  0  0  0  0  0  0
  140.9290   75.9350  220.0900 C   0  0  0  0  0  0  0  0  0  0  0  0
  140.1640   77.1370  220.4240 C   0  0  0  0  0  0  0  0  0  0  0  0
  138.1970   82.2410  223.7526 H   0  0  0  0  0  0  0  0  0  0  0  0
  138.9614   81.4388  222.3388 H   0  0  0  0  0  0  0  0  0  0  0  0
  137.1953   81.7671  222.3388 H   0  0  0  0  0  0  0  0  0  0  0  0
  138.4931   80.0216  224.4422 H   0  0  0  0  0  0  0  0  0  0  0  0
  136.7526   80.1191  223.9035 H   0  0  0  0  0  0  0  0  0  0  0  0
  140.4090   80.3103  220.6644 H   0  0  0  0  0  0  0  0  0  0  0  0
  142.5197   81.5496  221.0074 H   0  0  0  0  0  0  0  0  0  0  0  0
  143.8930   81.2170  223.0483 H   0  0  0  0  0  0  0  0  0  0  0  0
  143.0819   79.5969  224.7528 H   0  0  0  0  0  0  0  0  0  0  0  0
  140.9811   78.3553  224.4177 H   0  0  0  0  0  0  0  0  0  0  0  0
  138.3595   77.0215  221.2401 H   0  0  0  0  0  0  0  0  0  0  0  0
  140.3451   76.3010  223.3084 H   0  0  0  0  0  0  0  0  0  0  0  0
  138.5530   76.0873  223.2724 H   0  0  0  0  0  0  0  0  0  0  0  0
  139.9070   74.0113  222.7180 H   0  0  0  0  0  0  0  0  0  0  0  0
  138.6896   74.5161  221.4768 H   0  0  0  0  0  0  0  0  0  0  0  0
  141.6523   72.6807  222.6521 H   0  0  0  0  0  0  0  0  0  0  0  0
  142.1390   71.4740  219.9440 H   0  0  0  0  0  0  0  0  0  0  0  0
  143.3000   71.9370  221.0610 H   0  0  0  0  0  0  0  0  0  0  0  0
  139.2701   72.6132  221.4717 H   0  0  0  0  0  0  0  0  0  0  0  0
  139.9026   71.1045  220.8062 H   0  0  0  0  0  0  0  0  0  0  0  0
  138.6365   69.5643  222.3285 H   0  0  0  0  0  0  0  0  0  0  0  0
  138.4984   68.6366  224.6228 H   0  0  0  0  0  0  0  0  0  0  0  0
  139.0523   68.7093  226.9782 H   0  0  0  0  0  0  0  0  0  0  0  0
  140.2195   69.8228  228.8674 H   0  0  0  0  0  0  0  0  0  0  0  0
  141.5472   71.8851  228.4944 H   0  0  0  0  0  0  0  0  0  0  0  0
  141.7048   72.8321  226.2048 H   0  0  0  0  0  0  0  0  0  0  0  0
  141.1423   72.7534  223.8471 H   0  0  0  0  0  0  0  0  0  0  0  0
  142.0008   76.1764  220.1447 H   0  0  0  0  0  0  0  0  0  0  0  0
  140.6259   75.6254  219.0789 H   0  0  0  0  0  0  0  0  0  0  0  0
  140.8878   77.9640  220.4714 H   0  0  0  0  0  0  0  0  0  0  0  0
  139.3959   77.1585  219.6368 H   0  0  0  0  0  0  0  0  0  0  0  0
  1  2  1  0
  2  3  1  0
  3  4  2  0
  3  5  1  0
  5  6  1  0
  6  7  2  0
  7  8  1  0
  8  9  2  0
  9 10  1  0
 10 11  2  0
  5 12  1  0
 12 13  1  0
 13 14  1  0
 14 15  1  0
 15 16  1  0
 16 17  2  0
 16 18  1  0
 18 19  1  0
 18 20  1  0
 20 21  1  0
 21 22  2  0
 22 23  1  0
 23 24  2  0
 24 25  1  0
 25 26  2  0
 26 27  1  0
 27 28  2  0
 28 29  1  0
 29 30  2  0
 15 31  1  0
 31 32  1  0
 11  6  1  0
 32 12  1  0
 30 21  1  0
 29 24  1  0
  1 33  1  0
  1 34  1  0
  1 35  1  0
  2 36  1  0
  2 37  1  0
  7 38  1  0
  8 39  1  0
  9 40  1  0
 10 41  1  0
 11 42  1  0
 12 43  1  0
 13 44  1  0
 13 45  1  0
 14 46  1  0
 14 47  1  0
 18 48  1  1
 19 49  1  0
 19 50  1  0
 20 51  1  0
 20 52  1  0
 22 53  1  0
 23 54  1  0
 25 55  1  0
 26 56  1  0
 27 57  1  0
 28 58  1  0
 30 59  1  0
 31 60  1  0
 31 61  1  0
 32 62  1  0
 32 63  1  0
M  END
>  <smiles>  (38) 
CCC(=O)N(c1ccccc1)C1CCN(C(=O)[C@H](N)Cc2ccc3ccccc3c2)CC1

>  <score_type>  (38) 
oracle

>  <origin>  (38) 
autodockgpu

>  <m_score__min__energy>  (38) 
-8.6799999999999997

>  <m_primary>  (38) 
energy

>  <rmsd>  (38) 
5.8064319512077205

>  <m_score__min__rmsd>  (38) 
5.8064319512077205

>  <meeko>  (38) 
{"free_energy": -7.95, "intermolecular_energy": -10.33, "internal_energy": -2.78, "cluster_size": 34, "cluster_id": 3, "rank_in_cluster": 26}

>  <energy>  (38) 
-7.96

>  <cluster_rmsd>  (38) 
0.36

>  <cluster>  (38) 
3

$$$$

     RDKit          3D

 63 66  0  0  0  0  0  0  0  0999 V2000
  136.5670   80.9500  223.3850 C   0  0  0  0  0  0  0  0  0  0  0  0
  137.8160   80.1590  223.6650 C   0  0  0  0  0  0  0  0  0  0  0  0
  138.0290   79.0360  222.7050 C   0  0  0  0  0  0  0  0  0  0  0  0
  136.9620   78.5030  222.2690 O   0  0  0  0  0  0  0  0  0  0  0  0
  139.3300   78.5970  222.3100 N   0  0  0  0  0  0  0  0  0  0  0  0
  140.5220   79.3210  222.5100 C   0  0  0  0  0  0  0  0  0  0  0  0
  141.3170   79.0610  223.6170 C   0  0  0  0  0  0  0  0  0  0  0  0
  142.5050   79.7650  223.8490 C   0  0  0  0  0  0  0  0  0  0  0  0
  142.9450   80.7460  222.9950 C   0  0  0  0  0  0  0  0  0  0  0  0
  142.1670   81.0120  221.8950 C   0  0  0  0  0  0  0  0  0  0  0  0
  140.9830   80.3110  221.6630 C   0  0  0  0  0  0  0  0  0  0  0  0
  139.3860   77.2800  221.6910 C   0  0  0  0  0  0  0  0  0  0  0  0
  139.4670   76.1780  222.6900 C   0  0  0  0  0  0  0  0  0  0  0  0
  139.6550   74.8360  221.9960 C   0  0  0  0  0  0  0  0  0  0  0  0
  140.7120   74.8910  221.0360 N   0  0  0  0  0  0  0  0  0  0  0  0
  141.5790   73.7470  220.9040 C   0  0  0  0  0  0  0  0  0  0  0  0
  142.5500   73.7660  220.0640 O   0  0  0  0  0  0  0  0  0  0  0  0
  141.4430   72.5100  221.6830 C   0  0  2  0  0  0  0  0  0  0  0  0
  142.3480   71.5370  221.0490 N   0  0  0  0  0  0  0  0  0  0  0  0
  140.0440   71.9320  221.6950 C   0  0  0  0  0  0  0  0  0  0  0  0
  139.8950   71.2820  223.0480 C   0  0  0  0  0  0  0  0  0  0  0  0
  139.1280   70.1490  223.2250 C   0  0  0  0  0  0  0  0  0  0  0  0
  139.0520   69.6280  224.4980 C   0  0  0  0  0  0  0  0  0  0  0  0
  139.7090   70.1990  225.5830 C   0  0  0  0  0  0  0  0  0  0  0  0
  139.6150   69.6570  226.8500 C   0  0  0  0  0  0  0  0  0  0  0  0
  140.2860   70.2550  227.9120 C   0  0  0  0  0  0  0  0  0  0  0  0
  141.0490   71.3890  227.7240 C   0  0  0  0  0  0  0  0  0  0  0  0
  141.1400   71.9270  226.4570 C   0  0  0  0  0  0  0  0  0  0  0  0
  140.4730   71.3400  225.3840 C   0  0  0  0  0  0  0  0  0  0  0  0
  140.5710   71.8910  224.1060 C   0  0  0  0  0  0  0  0  0  0  0  0
  141.0090   76.0000  220.1620 C   0  0  0  0  0  0  0  0  0  0  0  0
  140.2370   77.2030  220.4730 C   0  0  0  0  0  0  0  0  0  0  0  0
  136.0996   81.2460  224.3357 H   0  0  0  0  0  0  0  0  0  0  0  0
  136.8247   81.8499  222.8073 H   0  0  0  0  0  0  0  0  0  0  0  0
  135.8636   80.3323  222.8073 H   0  0  0  0  0  0  0  0  0  0  0  0
  138.6799   80.8375  223.6064 H   0  0  0  0  0  0  0  0  0  0  0  0
  137.7049   79.7165  224.6659 H   0  0  0  0  0  0  0  0  0  0  0  0
  141.0065   78.2829  224.3298 H   0  0  0  0  0  0  0  0  0  0  0  0
  143.1027   79.5253  224.7408 H   0  0  0  0  0  0  0  0  0  0  0  0
  143.8795   81.2947  223.1836 H   0  0  0  0  0  0  0  0  0  0  0  0
  142.4825   81.7907  221.1850 H   0  0  0  0  0  0  0  0  0  0  0  0
  140.3918   80.5566  220.7685 H   0  0  0  0  0  0  0  0  0  0  0  0
  138.4056   77.0919  221.2290 H   0  0  0  0  0  0  0  0  0  0  0  0
  140.3196   76.3604  223.3606 H   0  0  0  0  0  0  0  0  0  0  0  0
  138.5291   76.1512  223.2641 H   0  0  0  0  0  0  0  0  0  0  0  0
  139.8960   74.0730  222.7508 H   0  0  0  0  0  0  0  0  0  0  0  0
  138.7221   74.5832  221.4708 H   0  0  0  0  0  0  0  0  0  0  0  0
  141.6821   72.7306  222.7338 H   0  0  0  0  0  0  0  0  0  0  0  0
  142.1470   71.5390  220.0160 H   0  0  0  0  0  0  0  0  0  0  0  0
  143.3100   71.9460  221.1520 H   0  0  0  0  0  0  0  0  0  0  0  0
  139.2966   72.7286  221.5656 H   0  0  0  0  0  0  0  0  0  0  0  0
  139.8890   71.2148  220.8755 H   0  0  0  0  0  0  0  0  0  0  0  0
  138.5980   69.6801  222.3828 H   0  0  0  0  0  0  0  0  0  0  0  0
  138.4474   68.7240  224.6631 H   0  0  0  0  0  0  0  0  0  0  0  0
  139.0104   68.7537  227.0191 H   0  0  0  0  0  0  0  0  0  0  0  0
  140.2069   69.8166  228.9178 H   0  0  0  0  0  0  0  0  0  0  0  0
  141.5755   71.8559  228.5695 H   0  0  0  0  0  0  0  0  0  0  0  0
  141.7462   72.8299  226.2920 H   0  0  0  0  0  0  0  0  0  0  0  0
  141.1740   72.7948  223.9344 H   0  0  0  0  0  0  0  0  0  0  0  0
  142.0791   76.2387  220.2516 H   0  0  0  0  0  0  0  0  0  0  0  0
  140.7376   75.6929  219.1412 H   0  0  0  0  0  0  0  0  0  0  0  0
  140.9612   78.0278  220.5462 H   0  0  0  0  0  0  0  0  0  0  0  0
  139.4955   77.2282  219.6609 H   0  0  0  0  0  0  0  0  0  0  0  0
  1  2  1  0
  2  3  1  0
  3  4  2  0
  3  5  1  0
  5  6  1  0
  6  7  2  0
  7  8  1  0
  8  9  2  0
  9 10  1  0
 10 11  2  0
  5 12  1  0
 12 13  1  0
 13 14  1  0
 14 15  1  0
 15 16  1  0
 16 17  2  0
 16 18  1  0
 18 19  1  0
 18 20  1  0
 20 21  1  0
 21 22  2  0
 22 23  1  0
 23 24  2  0
 24 25  1  0
 25 26  2  0
 26 27  1  0
 27 28  2  0
 28 29  1  0
 29 30  2  0
 15 31  1  0
 31 32  1  0
 11  6  1  0
 32 12  1  0
 30 21  1  0
 29 24  1  0
  1 33  1  0
  1 34  1  0
  1 35  1  0
  2 36  1  0
  2 37  1  0
  7 38  1  0
  8 39  1  0
  9 40  1  0
 10 41  1  0
 11 42  1  0
 12 43  1  0
 13 44  1  0
 13 45  1  0
 14 46  1  0
 14 47  1  0
 18 48  1  1
 19 49  1  0
 19 50  1  0
 20 51  1  0
 20 52  1  0
 22 53  1  0
 23 54  1  0
 25 55  1  0
 26 56  1  0
 27 57  1  0
 28 58  1  0
 30 59  1  0
 31 60  1  0
 31 61  1  0
 32 62  1  0
 32 63  1  0
M  END
>  <smiles>  (39) 
CCC(=O)N(c1ccccc1)C1CCN(C(=O)[C@H](N)Cc2ccc3ccccc3c2)CC1

>  <score_type>  (39) 
oracle

>  <origin>  (39) 
autodockgpu

>  <m_score__min__energy>  (39) 
-8.6799999999999997

>  <m_primary>  (39) 
energy

>  <rmsd>  (39) 
5.769261809939595

>  <m_score__min__rmsd>  (39) 
5.769261809939595

>  <meeko>  (39) 
{"free_energy": -7.94, "intermolecular_energy": -10.32, "internal_energy": -2.7, "cluster_size": 34, "cluster_id": 3, "rank_in_cluster": 27}

>  <energy>  (39) 
-7.96

>  <cluster_rmsd>  (39) 
0.27

>  <cluster>  (39) 
3

$$$$

     RDKit          3D

 63 66  0  0  0  0  0  0  0  0999 V2000
  138.0830   80.7340  224.4670 C   0  0  0  0  0  0  0  0  0  0  0  0
  137.5810   80.3820  223.0920 C   0  0  0  0  0  0  0  0  0  0  0  0
  137.8840   78.9750  222.6980 C   0  0  0  0  0  0  0  0  0  0  0  0
  136.8860   78.1900  222.7280 O   0  0  0  0  0  0  0  0  0  0  0  0
  139.1940   78.5460  222.3200 N   0  0  0  0  0  0  0  0  0  0  0  0
  140.3770   79.2830  222.5290 C   0  0  0  0  0  0  0  0  0  0  0  0
  141.1880   79.0020  223.6190 C   0  0  0  0  0  0  0  0  0  0  0  0
  142.3670   79.7170  223.8600 C   0  0  0  0  0  0  0  0  0  0  0  0
  142.7820   80.7320  223.0330 C   0  0  0  0  0  0  0  0  0  0  0  0
  141.9880   81.0190  221.9500 C   0  0  0  0  0  0  0  0  0  0  0  0
  140.8120   80.3070  221.7090 C   0  0  0  0  0  0  0  0  0  0  0  0
  139.2700   77.2270  221.7080 C   0  0  0  0  0  0  0  0  0  0  0  0
  139.3770   76.1330  222.7120 C   0  0  0  0  0  0  0  0  0  0  0  0
  139.5850   74.7910  222.0250 C   0  0  0  0  0  0  0  0  0  0  0  0
  140.6340   74.8580  221.0580 N   0  0  0  0  0  0  0  0  0  0  0  0
  141.5210   73.7290  220.9270 C   0  0  0  0  0  0  0  0  0  0  0  0
  142.4870   73.7620  220.0800 O   0  0  0  0  0  0  0  0  0  0  0  0
  141.4120   72.4950  221.7140 C   0  0  2  0  0  0  0  0  0  0  0  0
  142.3650   71.5490  221.1070 N   0  0  0  0  0  0  0  0  0  0  0  0
  140.0340   71.8680  221.7010 C   0  0  0  0  0  0  0  0  0  0  0  0
  139.8770   71.2300  223.0580 C   0  0  0  0  0  0  0  0  0  0  0  0
  139.0960   70.1070  223.2430 C   0  0  0  0  0  0  0  0  0  0  0  0
  139.0130   69.5960  224.5200 C   0  0  0  0  0  0  0  0  0  0  0  0
  139.6760   70.1670  225.6010 C   0  0  0  0  0  0  0  0  0  0  0  0
  139.5760   69.6350  226.8710 C   0  0  0  0  0  0  0  0  0  0  0  0
  140.2540   70.2310  227.9300 C   0  0  0  0  0  0  0  0  0  0  0  0
  141.0320   71.3530  227.7330 C   0  0  0  0  0  0  0  0  0  0  0  0
  141.1300   71.8820  226.4630 C   0  0  0  0  0  0  0  0  0  0  0  0
  140.4560   71.2960  225.3940 C   0  0  0  0  0  0  0  0  0  0  0  0
  140.5610   71.8370  224.1130 C   0  0  0  0  0  0  0  0  0  0  0  0
  140.9060   75.9680  220.1760 C   0  0  0  0  0  0  0  0  0  0  0  0
  140.1140   77.1590  220.4850 C   0  0  0  0  0  0  0  0  0  0  0  0
  137.4297   80.2759  225.2242 H   0  0  0  0  0  0  0  0  0  0  0  0
  139.1087   80.3563  224.5907 H   0  0  0  0  0  0  0  0  0  0  0  0
  138.0774   81.8270  224.5907 H   0  0  0  0  0  0  0  0  0  0  0  0
  136.4904   80.5238  223.0711 H   0  0  0  0  0  0  0  0  0  0  0  0
  138.0970   81.0400  222.3772 H   0  0  0  0  0  0  0  0  0  0  0  0
  140.8974   78.1976  224.3108 H   0  0  0  0  0  0  0  0  0  0  0  0
  142.9787   79.4585  224.7369 H   0  0  0  0  0  0  0  0  0  0  0  0
  143.7092   81.2902  223.2295 H   0  0  0  0  0  0  0  0  0  0  0  0
  142.2838   81.8236  221.2608 H   0  0  0  0  0  0  0  0  0  0  0  0
  140.2062   80.5719  220.8299 H   0  0  0  0  0  0  0  0  0  0  0  0
  138.2905   77.0179  221.2532 H   0  0  0  0  0  0  0  0  0  0  0  0
  140.2302   76.3347  223.3763 H   0  0  0  0  0  0  0  0  0  0  0  0
  138.4431   76.0925  223.2919 H   0  0  0  0  0  0  0  0  0  0  0  0
  139.8445   74.0372  222.7830 H   0  0  0  0  0  0  0  0  0  0  0  0
  138.6534   74.5189  221.5071 H   0  0  0  0  0  0  0  0  0  0  0  0
  141.6204   72.7321  222.7677 H   0  0  0  0  0  0  0  0  0  0  0  0
  142.1770   71.5270  220.0720 H   0  0  0  0  0  0  0  0  0  0  0  0
  143.3070   71.9990  221.2160 H   0  0  0  0  0  0  0  0  0  0  0  0
  139.2622   72.6360  221.5443 H   0  0  0  0  0  0  0  0  0  0  0  0
  139.9231   71.1361  220.8874 H   0  0  0  0  0  0  0  0  0  0  0  0
  138.5609   69.6384  222.4039 H   0  0  0  0  0  0  0  0  0  0  0  0
  138.3976   68.7005  224.6913 H   0  0  0  0  0  0  0  0  0  0  0  0
  138.9605   68.7402  227.0457 H   0  0  0  0  0  0  0  0  0  0  0  0
  140.1683   69.8012  228.9389 H   0  0  0  0  0  0  0  0  0  0  0  0
  141.5655   71.8182  228.5750 H   0  0  0  0  0  0  0  0  0  0  0  0
  141.7472   72.7764  226.2924 H   0  0  0  0  0  0  0  0  0  0  0  0
  141.1758   72.7318  223.9358 H   0  0  0  0  0  0  0  0  0  0  0  0
  141.9721   76.2264  220.2581 H   0  0  0  0  0  0  0  0  0  0  0  0
  140.6343   75.6504  219.1585 H   0  0  0  0  0  0  0  0  0  0  0  0
  140.8234   77.9973  220.5487 H   0  0  0  0  0  0  0  0  0  0  0  0
  139.3671   77.1664  219.6775 H   0  0  0  0  0  0  0  0  0  0  0  0
  1  2  1  0
  2  3  1  0
  3  4  2  0
  3  5  1  0
  5  6  1  0
  6  7  2  0
  7  8  1  0
  8  9  2  0
  9 10  1  0
 10 11  2  0
  5 12  1  0
 12 13  1  0
 13 14  1  0
 14 15  1  0
 15 16  1  0
 16 17  2  0
 16 18  1  0
 18 19  1  0
 18 20  1  0
 20 21  1  0
 21 22  2  0
 22 23  1  0
 23 24  2  0
 24 25  1  0
 25 26  2  0
 26 27  1  0
 27 28  2  0
 28 29  1  0
 29 30  2  0
 15 31  1  0
 31 32  1  0
 11  6  1  0
 32 12  1  0
 30 21  1  0
 29 24  1  0
  1 33  1  0
  1 34  1  0
  1 35  1  0
  2 36  1  0
  2 37  1  0
  7 38  1  0
  8 39  1  0
  9 40  1  0
 10 41  1  0
 11 42  1  0
 12 43  1  0
 13 44  1  0
 13 45  1  0
 14 46  1  0
 14 47  1  0
 18 48  1  1
 19 49  1  0
 19 50  1  0
 20 51  1  0
 20 52  1  0
 22 53  1  0
 23 54  1  0
 25 55  1  0
 26 56  1  0
 27 57  1  0
 28 58  1  0
 30 59  1  0
 31 60  1  0
 31 61  1  0
 32 62  1  0
 32 63  1  0
M  END
>  <smiles>  (40) 
CCC(=O)N(c1ccccc1)C1CCN(C(=O)[C@H](N)Cc2ccc3ccccc3c2)CC1

>  <score_type>  (40) 
oracle

>  <origin>  (40) 
autodockgpu

>  <m_score__min__energy>  (40) 
-8.6799999999999997

>  <m_primary>  (40) 
energy

>  <rmsd>  (40) 
5.809194279913703

>  <m_score__min__rmsd>  (40) 
5.809194279913703

>  <meeko>  (40) 
{"free_energy": -8.09, "intermolecular_energy": -10.47, "internal_energy": -2.79, "cluster_size": 34, "cluster_id": 3, "rank_in_cluster": 8}

>  <energy>  (40) 
-7.96

>  <cluster_rmsd>  (40) 
0.61

>  <cluster>  (40) 
3

$$$$

     RDKit          3D

 63 66  0  0  0  0  0  0  0  0999 V2000
  142.8240   75.3180  218.8150 C   0  0  0  0  0  0  0  0  0  0  0  0
  143.3230   76.6420  219.3280 C   0  0  0  0  0  0  0  0  0  0  0  0
  142.2350   77.6460  219.5210 C   0  0  0  0  0  0  0  0  0  0  0  0
  142.0070   78.3810  218.5100 O   0  0  0  0  0  0  0  0  0  0  0  0
  141.5090   77.7690  220.7450 N   0  0  0  0  0  0  0  0  0  0  0  0
  141.6690   78.8130  221.6780 C   0  0  0  0  0  0  0  0  0  0  0  0
  141.7520   80.1280  221.2420 C   0  0  0  0  0  0  0  0  0  0  0  0
  141.9170   81.1890  222.1400 C   0  0  0  0  0  0  0  0  0  0  0  0
  142.0030   80.9850  223.4960 C   0  0  0  0  0  0  0  0  0  0  0  0
  141.9210   79.6890  223.9390 C   0  0  0  0  0  0  0  0  0  0  0  0
  141.7570   78.6300  223.0450 C   0  0  0  0  0  0  0  0  0  0  0  0
  140.5120   76.7350  220.9910 C   0  0  0  0  0  0  0  0  0  0  0  0
  141.0270   75.6320  221.8480 C   0  0  0  0  0  0  0  0  0  0  0  0
  139.9960   74.5190  221.9670 C   0  0  0  0  0  0  0  0  0  0  0  0
  139.4930   74.1350  220.6860 N   0  0  0  0  0  0  0  0  0  0  0  0
  139.2380   72.7380  220.4390 C   0  0  0  0  0  0  0  0  0  0  0  0
  138.8020   72.3540  219.2930 O   0  0  0  0  0  0  0  0  0  0  0  0
  139.4440   71.6710  221.4260 C   0  0  2  0  0  0  0  0  0  0  0  0
  139.2100   70.4080  220.7040 N   0  0  0  0  0  0  0  0  0  0  0  0
  138.5050   71.7300  222.6130 C   0  0  0  0  0  0  0  0  0  0  0  0
  139.2900   71.1600  223.7680 C   0  0  0  0  0  0  0  0  0  0  0  0
  140.3460   71.8460  224.3320 C   0  0  0  0  0  0  0  0  0  0  0  0
  141.0020   71.2440  225.3840 C   0  0  0  0  0  0  0  0  0  0  0  0
  140.6400   69.9960  225.8780 C   0  0  0  0  0  0  0  0  0  0  0  0
  141.3150   69.4150  226.9340 C   0  0  0  0  0  0  0  0  0  0  0  0
  140.9250   68.1650  227.4050 C   0  0  0  0  0  0  0  0  0  0  0  0
  139.8680   67.4880  226.8320 C   0  0  0  0  0  0  0  0  0  0  0  0
  139.1960   68.0720  225.7780 C   0  0  0  0  0  0  0  0  0  0  0  0
  139.5760   69.3230  225.2960 C   0  0  0  0  0  0  0  0  0  0  0  0
  138.8900   69.9050  224.2310 C   0  0  0  0  0  0  0  0  0  0  0  0
  139.2080   75.0230  219.5850 C   0  0  0  0  0  0  0  0  0  0  0  0
  139.6720   76.3920  219.8120 C   0  0  0  0  0  0  0  0  0  0  0  0
  142.5778   74.6647  219.6650 H   0  0  0  0  0  0  0  0  0  0  0  0
  141.9243   75.4776  218.2025 H   0  0  0  0  0  0  0  0  0  0  0  0
  143.6052   74.8441  218.2025 H   0  0  0  0  0  0  0  0  0  0  0  0
  143.8218   76.4769  220.2944 H   0  0  0  0  0  0  0  0  0  0  0  0
  144.0112   77.0472  218.5716 H   0  0  0  0  0  0  0  0  0  0  0  0
  141.6865   80.3416  220.1649 H   0  0  0  0  0  0  0  0  0  0  0  0
  141.9796   82.2152  221.7490 H   0  0  0  0  0  0  0  0  0  0  0  0
  142.1319   81.8239  224.1958 H   0  0  0  0  0  0  0  0  0  0  0  0
  141.9856   79.4812  225.0172 H   0  0  0  0  0  0  0  0  0  0  0  0
  141.6952   77.6072  223.4450 H   0  0  0  0  0  0  0  0  0  0  0  0
  139.7348   77.1724  221.6349 H   0  0  0  0  0  0  0  0  0  0  0  0
  141.9466   75.2264  221.4011 H   0  0  0  0  0  0  0  0  0  0  0  0
  141.2351   76.0309  222.8518 H   0  0  0  0  0  0  0  0  0  0  0  0
  140.4655   73.6458  222.4436 H   0  0  0  0  0  0  0  0  0  0  0  0
  139.1553   74.8892  222.5722 H   0  0  0  0  0  0  0  0  0  0  0  0
  140.4568   71.7717  221.8433 H   0  0  0  0  0  0  0  0  0  0  0  0
  138.2300   70.4350  220.3240 H   0  0  0  0  0  0  0  0  0  0  0  0
  139.8420   70.4490  219.8660 H   0  0  0  0  0  0  0  0  0  0  0  0
  138.2120   72.7695  222.8216 H   0  0  0  0  0  0  0  0  0  0  0  0
  137.5766   71.1689  222.4306 H   0  0  0  0  0  0  0  0  0  0  0  0
  140.6520   72.8338  223.9570 H   0  0  0  0  0  0  0  0  0  0  0  0
  141.8460   71.7723  225.8516 H   0  0  0  0  0  0  0  0  0  0  0  0
  142.1604   69.9402  227.4024 H   0  0  0  0  0  0  0  0  0  0  0  0
  141.4675   67.7098  228.2467 H   0  0  0  0  0  0  0  0  0  0  0  0
  139.5663   66.4997  227.2091 H   0  0  0  0  0  0  0  0  0  0  0  0
  138.3505   67.5440  225.3128 H   0  0  0  0  0  0  0  0  0  0  0  0
  138.0440   69.3819  223.7612 H   0  0  0  0  0  0  0  0  0  0  0  0
  139.7021   74.6316  218.6836 H   0  0  0  0  0  0  0  0  0  0  0  0
  138.1145   75.0634  219.4731 H   0  0  0  0  0  0  0  0  0  0  0  0
  140.2528   76.6760  218.9220 H   0  0  0  0  0  0  0  0  0  0  0  0
  138.7360   76.9313  220.0192 H   0  0  0  0  0  0  0  0  0  0  0  0
  1  2  1  0
  2  3  1  0
  3  4  2  0
  3  5  1  0
  5  6  1  0
  6  7  2  0
  7  8  1  0
  8  9  2  0
  9 10  1  0
 10 11  2  0
  5 12  1  0
 12 13  1  0
 13 14  1  0
 14 15  1  0
 15 16  1  0
 16 17  2  0
 16 18  1  0
 18 19  1  0
 18 20  1  0
 20 21  1  0
 21 22  2  0
 22 23  1  0
 23 24  2  0
 24 25  1  0
 25 26  2  0
 26 27  1  0
 27 28  2  0
 28 29  1  0
 29 30  2  0
 15 31  1  0
 31 32  1  0
 11  6  1  0
 32 12  1  0
 30 21  1  0
 29 24  1  0
  1 33  1  0
  1 34  1  0
  1 35  1  0
  2 36  1  0
  2 37  1  0
  7 38  1  0
  8 39  1  0
  9 40  1  0
 10 41  1  0
 11 42  1  0
 12 43  1  0
 13 44  1  0
 13 45  1  0
 14 46  1  0
 14 47  1  0
 18 48  1  1
 19 49  1  0
 19 50  1  0
 20 51  1  0
 20 52  1  0
 22 53  1  0
 23 54  1  0
 25 55  1  0
 26 56  1  0
 27 57  1  0
 28 58  1  0
 30 59  1  0
 31 60  1  0
 31 61  1  0
 32 62  1  0
 32 63  1  0
M  END
>  <smiles>  (41) 
CCC(=O)N(c1ccccc1)C1CCN(C(=O)[C@H](N)Cc2ccc3ccccc3c2)CC1

>  <score_type>  (41) 
oracle

>  <origin>  (41) 
autodockgpu

>  <m_score__min__energy>  (41) 
-8.6799999999999997

>  <m_primary>  (41) 
energy

>  <rmsd>  (41) 
6.455305641619223

>  <m_score__min__rmsd>  (41) 
6.455305641619223

>  <meeko>  (41) 
{"free_energy": -7.73, "intermolecular_energy": -10.11, "internal_energy": -2.85, "cluster_size": 14, "cluster_id": 1, "rank_in_cluster": 14}

>  <energy>  (41) 
-7.95

>  <cluster_rmsd>  (41) 
0.25

>  <cluster>  (41) 
3

$$$$

     RDKit          3D

 63 66  0  0  0  0  0  0  0  0999 V2000
  138.0510   80.8210  224.3270 C   0  0  0  0  0  0  0  0  0  0  0  0
  137.7840   80.4740  222.8870 C   0  0  0  0  0  0  0  0  0  0  0  0
  138.0280   79.0350  222.5740 C   0  0  0  0  0  0  0  0  0  0  0  0
  136.9880   78.3060  222.5870 O   0  0  0  0  0  0  0  0  0  0  0  0
  139.3290   78.5200  222.2840 N   0  0  0  0  0  0  0  0  0  0  0  0
  140.5410   79.1770  222.5740 C   0  0  0  0  0  0  0  0  0  0  0  0
  141.0790   79.1160  223.8520 C   0  0  0  0  0  0  0  0  0  0  0  0
  142.2770   79.7620  224.1750 C   0  0  0  0  0  0  0  0  0  0  0  0
  142.9830   80.4880  223.2470 C   0  0  0  0  0  0  0  0  0  0  0  0
  142.4620   80.5550  221.9790 C   0  0  0  0  0  0  0  0  0  0  0  0
  141.2670   79.9120  221.6550 C   0  0  0  0  0  0  0  0  0  0  0  0
  139.3590   77.1950  221.6780 C   0  0  0  0  0  0  0  0  0  0  0  0
  139.4870   76.1050  222.6840 C   0  0  0  0  0  0  0  0  0  0  0  0
  139.6460   74.7560  221.9970 C   0  0  0  0  0  0  0  0  0  0  0  0
  140.6570   74.8010  220.9890 N   0  0  0  0  0  0  0  0  0  0  0  0
  141.5190   73.6560  220.8300 C   0  0  0  0  0  0  0  0  0  0  0  0
  142.4500   73.6680  219.9450 O   0  0  0  0  0  0  0  0  0  0  0  0
  141.4210   72.4280  221.6280 C   0  0  2  0  0  0  0  0  0  0  0  0
  142.3610   71.4760  221.0120 N   0  0  0  0  0  0  0  0  0  0  0  0
  140.0420   71.8040  221.6440 C   0  0  0  0  0  0  0  0  0  0  0  0
  139.9130   71.1600  223.0020 C   0  0  0  0  0  0  0  0  0  0  0  0
  139.1950   69.9960  223.1840 C   0  0  0  0  0  0  0  0  0  0  0  0
  139.1350   69.4840  224.4620 C   0  0  0  0  0  0  0  0  0  0  0  0
  139.7600   70.0920  225.5450 C   0  0  0  0  0  0  0  0  0  0  0  0
  139.6840   69.5580  226.8160 C   0  0  0  0  0  0  0  0  0  0  0  0
  140.3230   70.1930  227.8770 C   0  0  0  0  0  0  0  0  0  0  0  0
  141.0380   71.3570  227.6820 C   0  0  0  0  0  0  0  0  0  0  0  0
  141.1120   71.8880  226.4100 C   0  0  0  0  0  0  0  0  0  0  0  0
  140.4770   71.2630  225.3400 C   0  0  0  0  0  0  0  0  0  0  0  0
  140.5580   71.8070  224.0580 C   0  0  0  0  0  0  0  0  0  0  0  0
  140.9120   75.9010  220.0900 C   0  0  0  0  0  0  0  0  0  0  0  0
  140.1520   77.1070  220.4230 C   0  0  0  0  0  0  0  0  0  0  0  0
  137.5110   80.1191  224.9795 H   0  0  0  0  0  0  0  0  0  0  0  0
  139.1304   80.7510  224.5270 H   0  0  0  0  0  0  0  0  0  0  0  0
  137.7068   81.8464  224.5270 H   0  0  0  0  0  0  0  0  0  0  0  0
  136.7334   80.7079  222.6600 H   0  0  0  0  0  0  0  0  0  0  0  0
  138.4805   81.0646  222.2738 H   0  0  0  0  0  0  0  0  0  0  0  0
  140.5503   78.5457  224.6300 H   0  0  0  0  0  0  0  0  0  0  0  0
  142.6648   79.6864  225.2016 H   0  0  0  0  0  0  0  0  0  0  0  0
  143.9244   80.9934  223.5085 H   0  0  0  0  0  0  0  0  0  0  0  0
  142.9959   81.1256  221.2048 H   0  0  0  0  0  0  0  0  0  0  0  0
  140.8867   79.9931  220.6260 H   0  0  0  0  0  0  0  0  0  0  0  0
  138.3590   76.9980  221.2643 H   0  0  0  0  0  0  0  0  0  0  0  0
  140.3687   76.2960  223.3134 H   0  0  0  0  0  0  0  0  0  0  0  0
  138.5761   76.0833  223.3003 H   0  0  0  0  0  0  0  0  0  0  0  0
  139.9230   74.0020  222.7485 H   0  0  0  0  0  0  0  0  0  0  0  0
  138.6904   74.4965  221.5179 H   0  0  0  0  0  0  0  0  0  0  0  0
  141.6480   72.6726  222.6762 H   0  0  0  0  0  0  0  0  0  0  0  0
  142.1450   71.4340  219.9840 H   0  0  0  0  0  0  0  0  0  0  0  0
  143.3040   71.9330  221.0870 H   0  0  0  0  0  0  0  0  0  0  0  0
  139.2688   72.5744  221.5078 H   0  0  0  0  0  0  0  0  0  0  0  0
  139.9118   71.0754  220.8303 H   0  0  0  0  0  0  0  0  0  0  0  0
  138.6910   69.4970  222.3432 H   0  0  0  0  0  0  0  0  0  0  0  0
  138.5693   68.5561  224.6323 H   0  0  0  0  0  0  0  0  0  0  0  0
  139.1185   68.6307  226.9901 H   0  0  0  0  0  0  0  0  0  0  0  0
  140.2570   69.7604  228.8862 H   0  0  0  0  0  0  0  0  0  0  0  0
  141.5403   71.8531  228.5256 H   0  0  0  0  0  0  0  0  0  0  0  0
  141.6789   72.8152  226.2398 H   0  0  0  0  0  0  0  0  0  0  0  0
  141.1230   72.7341  223.8812 H   0  0  0  0  0  0  0  0  0  0  0  0
  141.9846   76.1422  220.1283 H   0  0  0  0  0  0  0  0  0  0  0  0
  140.5953   75.5823  219.0859 H   0  0  0  0  0  0  0  0  0  0  0  0
  140.8767   77.9340  220.4533 H   0  0  0  0  0  0  0  0  0  0  0  0
  139.3738   77.1226  219.6457 H   0  0  0  0  0  0  0  0  0  0  0  0
  1  2  1  0
  2  3  1  0
  3  4  2  0
  3  5  1  0
  5  6  1  0
  6  7  2  0
  7  8  1  0
  8  9  2  0
  9 10  1  0
 10 11  2  0
  5 12  1  0
 12 13  1  0
 13 14  1  0
 14 15  1  0
 15 16  1  0
 16 17  2  0
 16 18  1  0
 18 19  1  0
 18 20  1  0
 20 21  1  0
 21 22  2  0
 22 23  1  0
 23 24  2  0
 24 25  1  0
 25 26  2  0
 26 27  1  0
 27 28  2  0
 28 29  1  0
 29 30  2  0
 15 31  1  0
 31 32  1  0
 11  6  1  0
 32 12  1  0
 30 21  1  0
 29 24  1  0
  1 33  1  0
  1 34  1  0
  1 35  1  0
  2 36  1  0
  2 37  1  0
  7 38  1  0
  8 39  1  0
  9 40  1  0
 10 41  1  0
 11 42  1  0
 12 43  1  0
 13 44  1  0
 13 45  1  0
 14 46  1  0
 14 47  1  0
 18 48  1  1
 19 49  1  0
 19 50  1  0
 20 51  1  0
 20 52  1  0
 22 53  1  0
 23 54  1  0
 25 55  1  0
 26 56  1  0
 27 57  1  0
 28 58  1  0
 30 59  1  0
 31 60  1  0
 31 61  1  0
 32 62  1  0
 32 63  1  0
M  END
>  <smiles>  (42) 
CCC(=O)N(c1ccccc1)C1CCN(C(=O)[C@H](N)Cc2ccc3ccccc3c2)CC1

>  <score_type>  (42) 
oracle

>  <origin>  (42) 
autodockgpu

>  <m_score__min__energy>  (42) 
-8.6799999999999997

>  <m_primary>  (42) 
energy

>  <rmsd>  (42) 
5.83610280715241

>  <m_score__min__rmsd>  (42) 
5.83610280715241

>  <meeko>  (42) 
{"free_energy": -8.08, "intermolecular_energy": -10.47, "internal_energy": -2.78, "cluster_size": 34, "cluster_id": 3, "rank_in_cluster": 9}

>  <energy>  (42) 
-7.94

>  <cluster_rmsd>  (42) 
0.29

>  <cluster>  (42) 
3

$$$$

     RDKit          3D

 63 66  0  0  0  0  0  0  0  0999 V2000
  138.0440   80.8510  224.4020 C   0  0  0  0  0  0  0  0  0  0  0  0
  137.8480   80.6860  222.9190 C   0  0  0  0  0  0  0  0  0  0  0  0
  138.0160   79.2760  222.4580 C   0  0  0  0  0  0  0  0  0  0  0  0
  136.9290   78.6500  222.2610 O   0  0  0  0  0  0  0  0  0  0  0  0
  139.2990   78.6800  222.2550 N   0  0  0  0  0  0  0  0  0  0  0  0
  140.5300   79.2760  222.5950 C   0  0  0  0  0  0  0  0  0  0  0  0
  141.2560   79.9690  221.6360 C   0  0  0  0  0  0  0  0  0  0  0  0
  142.4840   80.5680  221.9380 C   0  0  0  0  0  0  0  0  0  0  0  0
  143.0340   80.5040  223.1950 C   0  0  0  0  0  0  0  0  0  0  0  0
  142.3240   79.8220  224.1520 C   0  0  0  0  0  0  0  0  0  0  0  0
  141.1000   79.2240  223.8530 C   0  0  0  0  0  0  0  0  0  0  0  0
  139.2860   77.3390  221.6870 C   0  0  0  0  0  0  0  0  0  0  0  0
  139.4430   76.2760  222.7170 C   0  0  0  0  0  0  0  0  0  0  0  0
  139.5540   74.9060  222.0630 C   0  0  0  0  0  0  0  0  0  0  0  0
  140.5210   74.9080  221.0110 N   0  0  0  0  0  0  0  0  0  0  0  0
  141.3600   73.7470  220.8480 C   0  0  0  0  0  0  0  0  0  0  0  0
  142.2520   73.7200  219.9240 O   0  0  0  0  0  0  0  0  0  0  0  0
  141.2810   72.5440  221.6840 C   0  0  2  0  0  0  0  0  0  0  0  0
  142.2550   71.5970  221.1150 N   0  0  0  0  0  0  0  0  0  0  0  0
  139.9180   71.8830  221.6990 C   0  0  0  0  0  0  0  0  0  0  0  0
  139.8070   71.2340  223.0550 C   0  0  0  0  0  0  0  0  0  0  0  0
  139.0770   70.0790  223.2460 C   0  0  0  0  0  0  0  0  0  0  0  0
  139.0340   69.5600  224.5220 C   0  0  0  0  0  0  0  0  0  0  0  0
  139.6880   70.1540  225.5960 C   0  0  0  0  0  0  0  0  0  0  0  0
  139.6280   69.6130  226.8650 C   0  0  0  0  0  0  0  0  0  0  0  0
  140.2950   70.2340  227.9170 C   0  0  0  0  0  0  0  0  0  0  0  0
  141.0220   71.3890  227.7150 C   0  0  0  0  0  0  0  0  0  0  0  0
  141.0790   71.9260  226.4450 C   0  0  0  0  0  0  0  0  0  0  0  0
  140.4160   71.3160  225.3830 C   0  0  0  0  0  0  0  0  0  0  0  0
  140.4800   71.8660  224.1030 C   0  0  0  0  0  0  0  0  0  0  0  0
  140.7510   75.9790  220.0710 C   0  0  0  0  0  0  0  0  0  0  0  0
  140.0220   77.2040  220.4020 C   0  0  0  0  0  0  0  0  0  0  0  0
  137.3100   80.2330  224.9399 H   0  0  0  0  0  0  0  0  0  0  0  0
  139.0611   80.5332  224.6750 H   0  0  0  0  0  0  0  0  0  0  0  0
  137.9042   81.9074  224.6750 H   0  0  0  0  0  0  0  0  0  0  0  0
  136.8320   81.0197  222.6612 H   0  0  0  0  0  0  0  0  0  0  0  0
  138.6198   81.2885  222.4177 H   0  0  0  0  0  0  0  0  0  0  0  0
  140.8564   80.0492  220.6143 H   0  0  0  0  0  0  0  0  0  0  0  0
  143.0248   81.1060  221.1454 H   0  0  0  0  0  0  0  0  0  0  0  0
  143.9998   80.9778  223.4246 H   0  0  0  0  0  0  0  0  0  0  0  0
  142.7276   79.7459  225.1724 H   0  0  0  0  0  0  0  0  0  0  0  0
  140.5660   78.6886  224.6518 H   0  0  0  0  0  0  0  0  0  0  0  0
  138.2664   77.1452  221.3225 H   0  0  0  0  0  0  0  0  0  0  0  0
  140.3536   76.4717  223.3021 H   0  0  0  0  0  0  0  0  0  0  0  0
  138.5594   76.2848  223.3721 H   0  0  0  0  0  0  0  0  0  0  0  0
  139.8536   74.1696  222.8232 H   0  0  0  0  0  0  0  0  0  0  0  0
  138.5751   74.6468  221.6334 H   0  0  0  0  0  0  0  0  0  0  0  0
  141.4844   72.8297  222.7266 H   0  0  0  0  0  0  0  0  0  0  0  0
  142.0360   71.4890  220.0920 H   0  0  0  0  0  0  0  0  0  0  0  0
  143.1800   72.0940  221.1570 H   0  0  0  0  0  0  0  0  0  0  0  0
  139.1244   72.6328  221.5643 H   0  0  0  0  0  0  0  0  0  0  0  0
  139.8068   71.1528  220.8839 H   0  0  0  0  0  0  0  0  0  0  0  0
  138.5500   69.5915  222.4126 H   0  0  0  0  0  0  0  0  0  0  0  0
  138.4592   68.6388  224.6980 H   0  0  0  0  0  0  0  0  0  0  0  0
  139.0536   68.6922  227.0443 H   0  0  0  0  0  0  0  0  0  0  0  0
  140.2417   69.7971  228.9251 H   0  0  0  0  0  0  0  0  0  0  0  0
  141.5470   71.8734  228.5515 H   0  0  0  0  0  0  0  0  0  0  0  0
  141.6548   72.8466  226.2695 H   0  0  0  0  0  0  0  0  0  0  0  0
  141.0537   72.7867  223.9210 H   0  0  0  0  0  0  0  0  0  0  0  0
  141.8272   76.2060  220.0563 H   0  0  0  0  0  0  0  0  0  0  0  0
  140.3870   75.6371  219.0909 H   0  0  0  0  0  0  0  0  0  0  0  0
  140.7579   78.0212  220.3769 H   0  0  0  0  0  0  0  0  0  0  0  0
  139.2105   77.2081  219.6594 H   0  0  0  0  0  0  0  0  0  0  0  0
  1  2  1  0
  2  3  1  0
  3  4  2  0
  3  5  1  0
  5  6  1  0
  6  7  2  0
  7  8  1  0
  8  9  2  0
  9 10  1  0
 10 11  2  0
  5 12  1  0
 12 13  1  0
 13 14  1  0
 14 15  1  0
 15 16  1  0
 16 17  2  0
 16 18  1  0
 18 19  1  0
 18 20  1  0
 20 21  1  0
 21 22  2  0
 22 23  1  0
 23 24  2  0
 24 25  1  0
 25 26  2  0
 26 27  1  0
 27 28  2  0
 28 29  1  0
 29 30  2  0
 15 31  1  0
 31 32  1  0
 11  6  1  0
 32 12  1  0
 30 21  1  0
 29 24  1  0
  1 33  1  0
  1 34  1  0
  1 35  1  0
  2 36  1  0
  2 37  1  0
  7 38  1  0
  8 39  1  0
  9 40  1  0
 10 41  1  0
 11 42  1  0
 12 43  1  0
 13 44  1  0
 13 45  1  0
 14 46  1  0
 14 47  1  0
 18 48  1  1
 19 49  1  0
 19 50  1  0
 20 51  1  0
 20 52  1  0
 22 53  1  0
 23 54  1  0
 25 55  1  0
 26 56  1  0
 27 57  1  0
 28 58  1  0
 30 59  1  0
 31 60  1  0
 31 61  1  0
 32 62  1  0
 32 63  1  0
M  END
>  <smiles>  (43) 
CCC(=O)N(c1ccccc1)C1CCN(C(=O)[C@H](N)Cc2ccc3ccccc3c2)CC1

>  <score_type>  (43) 
oracle

>  <origin>  (43) 
autodockgpu

>  <m_score__min__energy>  (43) 
-8.6799999999999997

>  <m_primary>  (43) 
energy

>  <rmsd>  (43) 
5.773154710920697

>  <m_score__min__rmsd>  (43) 
5.773154710920697

>  <meeko>  (43) 
{"free_energy": -7.99, "intermolecular_energy": -10.38, "internal_energy": -2.84, "cluster_size": 34, "cluster_id": 3, "rank_in_cluster": 18}

>  <energy>  (43) 
-7.94

>  <cluster_rmsd>  (43) 
0.49

>  <cluster>  (43) 
3

$$$$

     RDKit          3D

 63 66  0  0  0  0  0  0  0  0999 V2000
  143.3220   75.2920  219.7610 C   0  0  0  0  0  0  0  0  0  0  0  0
  143.3360   76.7500  219.3860 C   0  0  0  0  0  0  0  0  0  0  0  0
  141.9980   77.4010  219.5090 C   0  0  0  0  0  0  0  0  0  0  0  0
  141.6290   78.0500  218.4820 O   0  0  0  0  0  0  0  0  0  0  0  0
  141.2000   77.3030  220.6900 N   0  0  0  0  0  0  0  0  0  0  0  0
  141.1680   78.2580  221.7250 C   0  0  0  0  0  0  0  0  0  0  0  0
  140.0230   78.4110  222.4960 C   0  0  0  0  0  0  0  0  0  0  0  0
  139.9550   79.3540  223.5280 C   0  0  0  0  0  0  0  0  0  0  0  0
  141.0140   80.1740  223.8330 C   0  0  0  0  0  0  0  0  0  0  0  0
  142.1510   80.0320  223.0780 C   0  0  0  0  0  0  0  0  0  0  0  0
  142.2210   79.0920  222.0490 C   0  0  0  0  0  0  0  0  0  0  0  0
  140.3420   76.1290  220.7720 C   0  0  0  0  0  0  0  0  0  0  0  0
  140.7150   75.2210  221.8920 C   0  0  0  0  0  0  0  0  0  0  0  0
  139.8760   73.9510  221.8550 C   0  0  0  0  0  0  0  0  0  0  0  0
  139.8710   73.3680  220.5510 N   0  0  0  0  0  0  0  0  0  0  0  0
  139.9180   71.9310  220.4410 C   0  0  0  0  0  0  0  0  0  0  0  0
  139.9320   71.3720  219.2850 O   0  0  0  0  0  0  0  0  0  0  0  0
  139.9540   71.0130  221.5860 C   0  0  2  0  0  0  0  0  0  0  0  0
  140.1660   69.6720  221.0170 N   0  0  0  0  0  0  0  0  0  0  0  0
  138.6840   70.9940  222.4110 C   0  0  0  0  0  0  0  0  0  0  0  0
  139.1040   70.5080  223.7750 C   0  0  0  0  0  0  0  0  0  0  0  0
  138.7830   69.2420  224.2210 C   0  0  0  0  0  0  0  0  0  0  0  0
  139.2110   68.8880  225.4830 C   0  0  0  0  0  0  0  0  0  0  0  0
  139.9370   69.7500  226.2980 C   0  0  0  0  0  0  0  0  0  0  0  0
  140.3530   69.3700  227.5590 C   0  0  0  0  0  0  0  0  0  0  0  0
  141.0780   70.2580  228.3480 C   0  0  0  0  0  0  0  0  0  0  0  0
  141.3930   71.5210  227.8910 C   0  0  0  0  0  0  0  0  0  0  0  0
  140.9750   71.8970  226.6300 C   0  0  0  0  0  0  0  0  0  0  0  0
  140.2480   71.0190  225.8300 C   0  0  0  0  0  0  0  0  0  0  0  0
  139.8310   71.4070  224.5570 C   0  0  0  0  0  0  0  0  0  0  0  0
  139.8230   74.0860  219.3000 C   0  0  0  0  0  0  0  0  0  0  0  0
  139.9820   75.5320  219.4580 C   0  0  0  0  0  0  0  0  0  0  0  0
  143.3211   75.1952  220.8567 H   0  0  0  0  0  0  0  0  0  0  0  0
  142.4193   74.8164  219.3501 H   0  0  0  0  0  0  0  0  0  0  0  0
  144.2155   74.7991  219.3501 H   0  0  0  0  0  0  0  0  0  0  0  0
  144.0421   77.2743  220.0467 H   0  0  0  0  0  0  0  0  0  0  0  0
  143.6348   76.8132  218.3292 H   0  0  0  0  0  0  0  0  0  0  0  0
  139.1487   77.7759  222.2907 H   0  0  0  0  0  0  0  0  0  0  0  0
  139.0267   79.4410  224.1117 H   0  0  0  0  0  0  0  0  0  0  0  0
  140.9533   80.9119  224.6465 H   0  0  0  0  0  0  0  0  0  0  0  0
  143.0222   80.6701  223.2875 H   0  0  0  0  0  0  0  0  0  0  0  0
  143.1537   79.0116  221.4715 H   0  0  0  0  0  0  0  0  0  0  0  0
  139.3446   76.4711  221.0852 H   0  0  0  0  0  0  0  0  0  0  0  0
  141.7784   74.9544  221.8023 H   0  0  0  0  0  0  0  0  0  0  0  0
  140.5315   75.7394  222.8447 H   0  0  0  0  0  0  0  0  0  0  0  0
  140.2924   73.2259  222.5697 H   0  0  0  0  0  0  0  0  0  0  0  0
  138.8412   74.2116  222.1219 H   0  0  0  0  0  0  0  0  0  0  0  0
  140.7479   71.3422  222.2725 H   0  0  0  0  0  0  0  0  0  0  0  0
  139.3660   69.4730  220.3620 H   0  0  0  0  0  0  0  0  0  0  0  0
  141.0170   69.7620  220.4080 H   0  0  0  0  0  0  0  0  0  0  0  0
  138.2525   72.0036  222.4776 H   0  0  0  0  0  0  0  0  0  0  0  0
  137.9139   70.3480  221.9642 H   0  0  0  0  0  0  0  0  0  0  0  0
  138.2087   68.5434  223.5948 H   0  0  0  0  0  0  0  0  0  0  0  0
  138.9685   67.8836  225.8603 H   0  0  0  0  0  0  0  0  0  0  0  0
  140.1115   68.3665  227.9393 H   0  0  0  0  0  0  0  0  0  0  0  0
  141.4049   69.9481  229.3515 H   0  0  0  0  0  0  0  0  0  0  0  0
  141.9674   72.2166  228.5205 H   0  0  0  0  0  0  0  0  0  0  0  0
  141.2189   72.9012  226.2531 H   0  0  0  0  0  0  0  0  0  0  0  0
  140.0721   72.4095  224.1738 H   0  0  0  0  0  0  0  0  0  0  0  0
  140.6308   73.7143  218.6525 H   0  0  0  0  0  0  0  0  0  0  0  0
  138.8290   73.9127  218.8620 H   0  0  0  0  0  0  0  0  0  0  0  0
  140.7670   75.8383  218.7509 H   0  0  0  0  0  0  0  0  0  0  0  0
  138.9594   75.9043  219.2979 H   0  0  0  0  0  0  0  0  0  0  0  0
  1  2  1  0
  2  3  1  0
  3  4  2  0
  3  5  1  0
  5  6  1  0
  6  7  2  0
  7  8  1  0
  8  9  2  0
  9 10  1  0
 10 11  2  0
  5 12  1  0
 12 13  1  0
 13 14  1  0
 14 15  1  0
 15 16  1  0
 16 17  2  0
 16 18  1  0
 18 19  1  0
 18 20  1  0
 20 21  1  0
 21 22  2  0
 22 23  1  0
 23 24  2  0
 24 25  1  0
 25 26  2  0
 26 27  1  0
 27 28  2  0
 28 29  1  0
 29 30  2  0
 15 31  1  0
 31 32  1  0
 11  6  1  0
 32 12  1  0
 30 21  1  0
 29 24  1  0
  1 33  1  0
  1 34  1  0
  1 35  1  0
  2 36  1  0
  2 37  1  0
  7 38  1  0
  8 39  1  0
  9 40  1  0
 10 41  1  0
 11 42  1  0
 12 43  1  0
 13 44  1  0
 13 45  1  0
 14 46  1  0
 14 47  1  0
 18 48  1  1
 19 49  1  0
 19 50  1  0
 20 51  1  0
 20 52  1  0
 22 53  1  0
 23 54  1  0
 25 55  1  0
 26 56  1  0
 27 57  1  0
 28 58  1  0
 30 59  1  0
 31 60  1  0
 31 61  1  0
 32 62  1  0
 32 63  1  0
M  END
>  <smiles>  (44) 
CCC(=O)N(c1ccccc1)C1CCN(C(=O)[C@H](N)Cc2ccc3ccccc3c2)CC1

>  <score_type>  (44) 
oracle

>  <origin>  (44) 
autodockgpu

>  <m_score__min__energy>  (44) 
-8.6799999999999997

>  <m_primary>  (44) 
energy

>  <rmsd>  (44) 
7.018527536227749

>  <m_score__min__rmsd>  (44) 
7.018527536227749

>  <meeko>  (44) 
{"free_energy": -7.73, "intermolecular_energy": -10.12, "internal_energy": -2.83, "cluster_size": 14, "cluster_id": 1, "rank_in_cluster": 13}

>  <energy>  (44) 
-7.93

>  <cluster_rmsd>  (44) 
0.53

>  <cluster>  (44) 
3

$$$$

     RDKit          3D

 63 66  0  0  0  0  0  0  0  0999 V2000
  138.0370   80.8480  224.2190 C   0  0  0  0  0  0  0  0  0  0  0  0
  137.2920   79.9620  223.2570 C   0  0  0  0  0  0  0  0  0  0  0  0
  138.0610   79.6680  222.0120 C   0  0  0  0  0  0  0  0  0  0  0  0
  137.5310   80.1080  220.9460 O   0  0  0  0  0  0  0  0  0  0  0  0
  139.2950   78.9480  222.0220 N   0  0  0  0  0  0  0  0  0  0  0  0
  140.5340   79.4720  222.4410 C   0  0  0  0  0  0  0  0  0  0  0  0
  141.0100   79.1990  223.7160 C   0  0  0  0  0  0  0  0  0  0  0  0
  142.2330   79.7080  224.1680 C   0  0  0  0  0  0  0  0  0  0  0  0
  143.0250   80.5020  223.3750 C   0  0  0  0  0  0  0  0  0  0  0  0
  142.5650   80.7790  222.1110 C   0  0  0  0  0  0  0  0  0  0  0  0
  141.3460   80.2720  221.6600 C   0  0  0  0  0  0  0  0  0  0  0  0
  139.2140   77.5580  221.5930 C   0  0  0  0  0  0  0  0  0  0  0  0
  139.3980   76.5980  222.7150 C   0  0  0  0  0  0  0  0  0  0  0  0
  139.4350   75.1670  222.1970 C   0  0  0  0  0  0  0  0  0  0  0  0
  140.3430   75.0330  221.1030 N   0  0  0  0  0  0  0  0  0  0  0  0
  141.1410   73.8340  221.0150 C   0  0  0  0  0  0  0  0  0  0  0  0
  141.9800   73.6870  220.0540 O   0  0  0  0  0  0  0  0  0  0  0  0
  141.0730   72.7230  221.9710 C   0  0  2  0  0  0  0  0  0  0  0  0
  142.0110   71.7050  221.4680 N   0  0  0  0  0  0  0  0  0  0  0  0
  139.7020   72.0940  222.1010 C   0  0  0  0  0  0  0  0  0  0  0  0
  139.7580   71.2760  223.3660 C   0  0  0  0  0  0  0  0  0  0  0  0
  139.2590   69.9910  223.4190 C   0  0  0  0  0  0  0  0  0  0  0  0
  139.3560   69.3220  224.6200 C   0  0  0  0  0  0  0  0  0  0  0  0
  139.9270   69.8930  225.7520 C   0  0  0  0  0  0  0  0  0  0  0  0
  140.0110   69.2010  226.9440 C   0  0  0  0  0  0  0  0  0  0  0  0
  140.5900   69.8020  228.0570 C   0  0  0  0  0  0  0  0  0  0  0  0
  141.0860   71.0880  227.9930 C   0  0  0  0  0  0  0  0  0  0  0  0
  141.0000   71.7760  226.8000 C   0  0  0  0  0  0  0  0  0  0  0  0
  140.4230   71.1870  225.6780 C   0  0  0  0  0  0  0  0  0  0  0  0
  140.3410   71.8900  224.4760 C   0  0  0  0  0  0  0  0  0  0  0  0
  140.5520   75.9970  220.0490 C   0  0  0  0  0  0  0  0  0  0  0  0
  139.8770   77.2720  220.2920 C   0  0  0  0  0  0  0  0  0  0  0  0
  137.7919   80.5565  225.2510 H   0  0  0  0  0  0  0  0  0  0  0  0
  139.1192   80.7395  224.0545 H   0  0  0  0  0  0  0  0  0  0  0  0
  137.7444   81.8955  224.0545 H   0  0  0  0  0  0  0  0  0  0  0  0
  137.0660   79.0108  223.7611 H   0  0  0  0  0  0  0  0  0  0  0  0
  136.3793   80.4985  222.9584 H   0  0  0  0  0  0  0  0  0  0  0  0
  140.4111   78.5668  224.3880 H   0  0  0  0  0  0  0  0  0  0  0  0
  142.5693   79.4653  225.1868 H   0  0  0  0  0  0  0  0  0  0  0  0
  143.9853   80.8985  223.7364 H   0  0  0  0  0  0  0  0  0  0  0  0
  143.1680   81.4114  221.4428 H   0  0  0  0  0  0  0  0  0  0  0  0
  141.0175   80.5195  220.6398 H   0  0  0  0  0  0  0  0  0  0  0  0
  138.1711   77.3632  221.3024 H   0  0  0  0  0  0  0  0  0  0  0  0
  140.3445   76.8206  223.2294 H   0  0  0  0  0  0  0  0  0  0  0  0
  138.5525   76.7008  223.4111 H   0  0  0  0  0  0  0  0  0  0  0  0
  139.7543   74.4997  223.0111 H   0  0  0  0  0  0  0  0  0  0  0  0
  138.4275   74.8994  221.8459 H   0  0  0  0  0  0  0  0  0  0  0  0
  141.3182   73.1085  222.9716 H   0  0  0  0  0  0  0  0  0  0  0  0
  141.7420   71.4860  220.4750 H   0  0  0  0  0  0  0  0  0  0  0  0
  142.9410   72.1920  221.4100 H   0  0  0  0  0  0  0  0  0  0  0  0
  138.9273   72.8711  222.1786 H   0  0  0  0  0  0  0  0  0  0  0  0
  139.4485   71.4783  221.2254 H   0  0  0  0  0  0  0  0  0  0  0  0
  138.8015   69.5188  222.5371 H   0  0  0  0  0  0  0  0  0  0  0  0
  138.9662   68.2955  224.6857 H   0  0  0  0  0  0  0  0  0  0  0  0
  139.6203   68.1751  227.0134 H   0  0  0  0  0  0  0  0  0  0  0  0
  140.6534   69.2435  229.0026 H   0  0  0  0  0  0  0  0  0  0  0  0
  141.5420   71.5566  228.8776 H   0  0  0  0  0  0  0  0  0  0  0  0
  141.3918   72.8018  226.7346 H   0  0  0  0  0  0  0  0  0  0  0  0
  140.7311   72.9160  224.4036 H   0  0  0  0  0  0  0  0  0  0  0  0
  141.6318   76.1852  219.9564 H   0  0  0  0  0  0  0  0  0  0  0  0
  140.1262   75.5720  219.1281 H   0  0  0  0  0  0  0  0  0  0  0  0
  140.6335   78.0575  220.1484 H   0  0  0  0  0  0  0  0  0  0  0  0
  139.0275   77.2300  219.5945 H   0  0  0  0  0  0  0  0  0  0  0  0
  1  2  1  0
  2  3  1  0
  3  4  2  0
  3  5  1  0
  5  6  1  0
  6  7  2  0
  7  8  1  0
  8  9  2  0
  9 10  1  0
 10 11  2  0
  5 12  1  0
 12 13  1  0
 13 14  1  0
 14 15  1  0
 15 16  1  0
 16 17  2  0
 16 18  1  0
 18 19  1  0
 18 20  1  0
 20 21  1  0
 21 22  2  0
 22 23  1  0
 23 24  2  0
 24 25  1  0
 25 26  2  0
 26 27  1  0
 27 28  2  0
 28 29  1  0
 29 30  2  0
 15 31  1  0
 31 32  1  0
 11  6  1  0
 32 12  1  0
 30 21  1  0
 29 24  1  0
  1 33  1  0
  1 34  1  0
  1 35  1  0
  2 36  1  0
  2 37  1  0
  7 38  1  0
  8 39  1  0
  9 40  1  0
 10 41  1  0
 11 42  1  0
 12 43  1  0
 13 44  1  0
 13 45  1  0
 14 46  1  0
 14 47  1  0
 18 48  1  1
 19 49  1  0
 19 50  1  0
 20 51  1  0
 20 52  1  0
 22 53  1  0
 23 54  1  0
 25 55  1  0
 26 56  1  0
 27 57  1  0
 28 58  1  0
 30 59  1  0
 31 60  1  0
 31 61  1  0
 32 62  1  0
 32 63  1  0
M  END
>  <smiles>  (45) 
CCC(=O)N(c1ccccc1)C1CCN(C(=O)[C@H](N)Cc2ccc3ccccc3c2)CC1

>  <score_type>  (45) 
oracle

>  <origin>  (45) 
autodockgpu

>  <m_score__min__energy>  (45) 
-8.6799999999999997

>  <m_primary>  (45) 
energy

>  <rmsd>  (45) 
5.75669726753912

>  <m_score__min__rmsd>  (45) 
5.75669726753912

>  <meeko>  (45) 
{"free_energy": -7.96, "intermolecular_energy": -10.34, "internal_energy": -2.76, "cluster_size": 34, "cluster_id": 3, "rank_in_cluster": 25}

>  <energy>  (45) 
-7.93

>  <cluster_rmsd>  (45) 
0.63

>  <cluster>  (45) 
3

$$$$

     RDKit          3D

 63 66  0  0  0  0  0  0  0  0999 V2000
  138.0380   80.7950  224.4230 C   0  0  0  0  0  0  0  0  0  0  0  0
  137.6110   80.4550  223.0200 C   0  0  0  0  0  0  0  0  0  0  0  0
  137.8950   79.0380  222.6470 C   0  0  0  0  0  0  0  0  0  0  0  0
  136.8800   78.2750  222.6540 O   0  0  0  0  0  0  0  0  0  0  0  0
  139.2050   78.5780  222.3100 N   0  0  0  0  0  0  0  0  0  0  0  0
  140.3980   79.2860  222.5570 C   0  0  0  0  0  0  0  0  0  0  0  0
  140.8010   80.2940  221.6920 C   0  0  0  0  0  0  0  0  0  0  0  0
  141.9830   81.0130  221.9030 C   0  0  0  0  0  0  0  0  0  0  0  0
  142.8040   80.7610  222.9740 C   0  0  0  0  0  0  0  0  0  0  0  0
  142.4160   79.7660  223.8380 C   0  0  0  0  0  0  0  0  0  0  0  0
  141.2380   79.0480  223.6280 C   0  0  0  0  0  0  0  0  0  0  0  0
  139.2690   77.2560  221.7020 C   0  0  0  0  0  0  0  0  0  0  0  0
  139.3700   76.1640  222.7090 C   0  0  0  0  0  0  0  0  0  0  0  0
  139.5650   74.8180  222.0240 C   0  0  0  0  0  0  0  0  0  0  0  0
  140.6120   74.8750  221.0540 N   0  0  0  0  0  0  0  0  0  0  0  0
  141.4900   73.7380  220.9230 C   0  0  0  0  0  0  0  0  0  0  0  0
  142.4530   73.7600  220.0730 O   0  0  0  0  0  0  0  0  0  0  0  0
  141.3730   72.5070  221.7140 C   0  0  2  0  0  0  0  0  0  0  0  0
  142.3100   71.5490  221.1010 N   0  0  0  0  0  0  0  0  0  0  0  0
  139.9880   71.8950  221.7140 C   0  0  0  0  0  0  0  0  0  0  0  0
  139.8420   71.2460  223.0670 C   0  0  0  0  0  0  0  0  0  0  0  0
  139.0730   70.1140  223.2460 C   0  0  0  0  0  0  0  0  0  0  0  0
  139.0000   69.5930  224.5200 C   0  0  0  0  0  0  0  0  0  0  0  0
  139.6620   70.1630  225.6030 C   0  0  0  0  0  0  0  0  0  0  0  0
  139.5710   69.6210  226.8700 C   0  0  0  0  0  0  0  0  0  0  0  0
  140.2470   70.2170  227.9300 C   0  0  0  0  0  0  0  0  0  0  0  0
  141.0130   71.3490  227.7390 C   0  0  0  0  0  0  0  0  0  0  0  0
  141.1000   71.8870  226.4720 C   0  0  0  0  0  0  0  0  0  0  0  0
  140.4290   71.3020  225.4010 C   0  0  0  0  0  0  0  0  0  0  0  0
  140.5240   71.8530  224.1240 C   0  0  0  0  0  0  0  0  0  0  0  0
  140.8900   75.9800  220.1680 C   0  0  0  0  0  0  0  0  0  0  0  0
  140.1090   77.1780  220.4770 C   0  0  0  0  0  0  0  0  0  0  0  0
  137.3859   80.2758  225.1407 H   0  0  0  0  0  0  0  0  0  0  0  0
  139.0795   80.4762  224.5767 H   0  0  0  0  0  0  0  0  0  0  0  0
  137.9606   81.8815  224.5767 H   0  0  0  0  0  0  0  0  0  0  0  0
  136.5285   80.6297  222.9318 H   0  0  0  0  0  0  0  0  0  0  0  0
  138.1893   81.0953  222.3377 H   0  0  0  0  0  0  0  0  0  0  0  0
  140.1759   80.5336  220.8192 H   0  0  0  0  0  0  0  0  0  0  0  0
  142.2622   81.8028  221.1901 H   0  0  0  0  0  0  0  0  0  0  0  0
  143.7315   81.3306  223.1333 H   0  0  0  0  0  0  0  0  0  0  0  0
  143.0443   79.5313  224.7099 H   0  0  0  0  0  0  0  0  0  0  0  0
  140.9667   78.2594  224.3453 H   0  0  0  0  0  0  0  0  0  0  0  0
  138.2865   77.0528  221.2510 H   0  0  0  0  0  0  0  0  0  0  0  0
  140.2269   76.3604  223.3702 H   0  0  0  0  0  0  0  0  0  0  0  0
  138.4379   76.1328  223.2922 H   0  0  0  0  0  0  0  0  0  0  0  0
  139.8205   74.0637  222.7828 H   0  0  0  0  0  0  0  0  0  0  0  0
  138.6298   74.5521  221.5095 H   0  0  0  0  0  0  0  0  0  0  0  0
  141.5923   72.7445  222.7654 H   0  0  0  0  0  0  0  0  0  0  0  0
  142.1160   71.5290  220.0680 H   0  0  0  0  0  0  0  0  0  0  0  0
  143.2590   71.9880  221.2040 H   0  0  0  0  0  0  0  0  0  0  0  0
  139.2227   72.6728  221.5748 H   0  0  0  0  0  0  0  0  0  0  0  0
  139.8583   71.1719  220.8953 H   0  0  0  0  0  0  0  0  0  0  0  0
  138.5396   69.6462  222.4054 H   0  0  0  0  0  0  0  0  0  0  0  0
  138.3940   68.6903  224.6873 H   0  0  0  0  0  0  0  0  0  0  0  0
  138.9648   68.7192  227.0409 H   0  0  0  0  0  0  0  0  0  0  0  0
  140.1697   69.7791  228.9361 H   0  0  0  0  0  0  0  0  0  0  0  0
  141.5447   71.8139  228.5823 H   0  0  0  0  0  0  0  0  0  0  0  0
  141.7068   72.7892  226.3054 H   0  0  0  0  0  0  0  0  0  0  0  0
  141.1290   72.7552  223.9508 H   0  0  0  0  0  0  0  0  0  0  0  0
  141.9585   76.2298  220.2455 H   0  0  0  0  0  0  0  0  0  0  0  0
  140.6122   75.6620  219.1523 H   0  0  0  0  0  0  0  0  0  0  0  0
  140.8256   78.0104  220.5370 H   0  0  0  0  0  0  0  0  0  0  0  0
  139.3597   77.1897  219.6717 H   0  0  0  0  0  0  0  0  0  0  0  0
  1  2  1  0
  2  3  1  0
  3  4  2  0
  3  5  1  0
  5  6  1  0
  6  7  2  0
  7  8  1  0
  8  9  2  0
  9 10  1  0
 10 11  2  0
  5 12  1  0
 12 13  1  0
 13 14  1  0
 14 15  1  0
 15 16  1  0
 16 17  2  0
 16 18  1  0
 18 19  1  0
 18 20  1  0
 20 21  1  0
 21 22  2  0
 22 23  1  0
 23 24  2  0
 24 25  1  0
 25 26  2  0
 26 27  1  0
 27 28  2  0
 28 29  1  0
 29 30  2  0
 15 31  1  0
 31 32  1  0
 11  6  1  0
 32 12  1  0
 30 21  1  0
 29 24  1  0
  1 33  1  0
  1 34  1  0
  1 35  1  0
  2 36  1  0
  2 37  1  0
  7 38  1  0
  8 39  1  0
  9 40  1  0
 10 41  1  0
 11 42  1  0
 12 43  1  0
 13 44  1  0
 13 45  1  0
 14 46  1  0
 14 47  1  0
 18 48  1  1
 19 49  1  0
 19 50  1  0
 20 51  1  0
 20 52  1  0
 22 53  1  0
 23 54  1  0
 25 55  1  0
 26 56  1  0
 27 57  1  0
 28 58  1  0
 30 59  1  0
 31 60  1  0
 31 61  1  0
 32 62  1  0
 32 63  1  0
M  END
>  <smiles>  (46) 
CCC(=O)N(c1ccccc1)C1CCN(C(=O)[C@H](N)Cc2ccc3ccccc3c2)CC1

>  <score_type>  (46) 
oracle

>  <origin>  (46) 
autodockgpu

>  <m_score__min__energy>  (46) 
-8.6799999999999997

>  <m_primary>  (46) 
energy

>  <rmsd>  (46) 
5.796458721467073

>  <m_score__min__rmsd>  (46) 
5.796458721467073

>  <meeko>  (46) 
{"free_energy": -8.09, "intermolecular_energy": -10.47, "internal_energy": -2.78, "cluster_size": 34, "cluster_id": 3, "rank_in_cluster": 7}

>  <energy>  (46) 
-7.92

>  <cluster_rmsd>  (46) 
0.52

>  <cluster>  (46) 
3

$$$$

     RDKit          3D

 63 66  0  0  0  0  0  0  0  0999 V2000
  138.0300   80.8840  224.2610 C   0  0  0  0  0  0  0  0  0  0  0  0
  137.3010   79.8370  223.4610 C   0  0  0  0  0  0  0  0  0  0  0  0
  137.9820   79.4990  222.1770 C   0  0  0  0  0  0  0  0  0  0  0  0
  137.3690   79.8880  221.1340 O   0  0  0  0  0  0  0  0  0  0  0  0
  139.2230   78.7920  222.1250 N   0  0  0  0  0  0  0  0  0  0  0  0
  140.4660   79.3130  222.5360 C   0  0  0  0  0  0  0  0  0  0  0  0
  141.2690   79.9940  221.6310 C   0  0  0  0  0  0  0  0  0  0  0  0
  142.5120   80.5180  222.0030 C   0  0  0  0  0  0  0  0  0  0  0  0
  143.0020   80.3880  223.2800 C   0  0  0  0  0  0  0  0  0  0  0  0
  142.2160   79.7180  224.1840 C   0  0  0  0  0  0  0  0  0  0  0  0
  140.9770   79.1940  223.8140 C   0  0  0  0  0  0  0  0  0  0  0  0
  139.1450   77.4210  221.6400 C   0  0  0  0  0  0  0  0  0  0  0  0
  139.3780   76.4170  222.7150 C   0  0  0  0  0  0  0  0  0  0  0  0
  139.4160   75.0100  222.1360 C   0  0  0  0  0  0  0  0  0  0  0  0
  140.2890   74.9350  221.0070 N   0  0  0  0  0  0  0  0  0  0  0  0
  141.0970   73.7520  220.8420 C   0  0  0  0  0  0  0  0  0  0  0  0
  141.9060   73.6570  219.8490 O   0  0  0  0  0  0  0  0  0  0  0  0
  141.0760   72.6010  221.7520 C   0  0  2  0  0  0  0  0  0  0  0  0
  142.1420   71.7000  221.2820 N   0  0  0  0  0  0  0  0  0  0  0  0
  139.7680   71.8380  221.7620 C   0  0  0  0  0  0  0  0  0  0  0  0
  139.6840   71.2110  223.1300 C   0  0  0  0  0  0  0  0  0  0  0  0
  138.9260   70.0820  223.3630 C   0  0  0  0  0  0  0  0  0  0  0  0
  138.9120   69.5820  224.6470 C   0  0  0  0  0  0  0  0  0  0  0  0
  139.6210   70.1690  225.6880 C   0  0  0  0  0  0  0  0  0  0  0  0
  139.5890   69.6480  226.9670 C   0  0  0  0  0  0  0  0  0  0  0  0
  140.3120   70.2610  227.9860 C   0  0  0  0  0  0  0  0  0  0  0  0
  141.0670   71.3900  227.7420 C   0  0  0  0  0  0  0  0  0  0  0  0
  141.0960   71.9080  226.4630 C   0  0  0  0  0  0  0  0  0  0  0  0
  140.3770   71.3040  225.4340 C   0  0  0  0  0  0  0  0  0  0  0  0
  140.4130   71.8350  224.1440 C   0  0  0  0  0  0  0  0  0  0  0  0
  140.4500   75.9450  219.9890 C   0  0  0  0  0  0  0  0  0  0  0  0
  139.7670   77.1990  220.3070 C   0  0  0  0  0  0  0  0  0  0  0  0
  137.8927   80.6868  225.3344 H   0  0  0  0  0  0  0  0  0  0  0  0
  139.1020   80.8518  224.0165 H   0  0  0  0  0  0  0  0  0  0  0  0
  137.6278   81.8782  224.0165 H   0  0  0  0  0  0  0  0  0  0  0  0
  137.2256   78.9228  224.0680 H   0  0  0  0  0  0  0  0  0  0  0  0
  136.3123   80.2479  223.2086 H   0  0  0  0  0  0  0  0  0  0  0  0
  140.9195   80.1248  220.5962 H   0  0  0  0  0  0  0  0  0  0  0  0
  143.1142   81.0493  221.2514 H   0  0  0  0  0  0  0  0  0  0  0  0
  143.9803   80.8023  223.5651 H   0  0  0  0  0  0  0  0  0  0  0  0
  142.5691   79.5920  225.2182 H   0  0  0  0  0  0  0  0  0  0  0  0
  140.3818   78.6637  224.5720 H   0  0  0  0  0  0  0  0  0  0  0  0
  138.0958   77.2239  221.3747 H   0  0  0  0  0  0  0  0  0  0  0  0
  140.3380   76.6311  223.2075 H   0  0  0  0  0  0  0  0  0  0  0  0
  138.5548   76.4788  223.4419 H   0  0  0  0  0  0  0  0  0  0  0  0
  139.7711   74.3138  222.9101 H   0  0  0  0  0  0  0  0  0  0  0  0
  138.4008   74.7429  221.8074 H   0  0  0  0  0  0  0  0  0  0  0  0
  141.2145   72.9662  222.7803 H   0  0  0  0  0  0  0  0  0  0  0  0
  141.9300   71.4480  220.2830 H   0  0  0  0  0  0  0  0  0  0  0  0
  143.0090   72.2930  221.2480 H   0  0  0  0  0  0  0  0  0  0  0  0
  138.9218   72.5217  221.5988 H   0  0  0  0  0  0  0  0  0  0  0  0
  139.7268   71.0841  220.9620 H   0  0  0  0  0  0  0  0  0  0  0  0
  138.3553   69.6000  222.5556 H   0  0  0  0  0  0  0  0  0  0  0  0
  138.3155   68.6818  224.8564 H   0  0  0  0  0  0  0  0  0  0  0  0
  138.9922   68.7488  227.1800 H   0  0  0  0  0  0  0  0  0  0  0  0
  140.2811   69.8391  229.0014 H   0  0  0  0  0  0  0  0  0  0  0  0
  141.6358   71.8688  228.5527 H   0  0  0  0  0  0  0  0  0  0  0  0
  141.6934   72.8076  226.2539 H   0  0  0  0  0  0  0  0  0  0  0  0
  141.0086   72.7344  223.9287 H   0  0  0  0  0  0  0  0  0  0  0  0
  141.5236   76.1525  219.8693 H   0  0  0  0  0  0  0  0  0  0  0  0
  139.9990   75.5526  219.0656 H   0  0  0  0  0  0  0  0  0  0  0  0
  140.5078   78.0007  220.1712 H   0  0  0  0  0  0  0  0  0  0  0  0
  138.8951   77.1738  219.6368 H   0  0  0  0  0  0  0  0  0  0  0  0
  1  2  1  0
  2  3  1  0
  3  4  2  0
  3  5  1  0
  5  6  1  0
  6  7  2  0
  7  8  1  0
  8  9  2  0
  9 10  1  0
 10 11  2  0
  5 12  1  0
 12 13  1  0
 13 14  1  0
 14 15  1  0
 15 16  1  0
 16 17  2  0
 16 18  1  0
 18 19  1  0
 18 20  1  0
 20 21  1  0
 21 22  2  0
 22 23  1  0
 23 24  2  0
 24 25  1  0
 25 26  2  0
 26 27  1  0
 27 28  2  0
 28 29  1  0
 29 30  2  0
 15 31  1  0
 31 32  1  0
 11  6  1  0
 32 12  1  0
 30 21  1  0
 29 24  1  0
  1 33  1  0
  1 34  1  0
  1 35  1  0
  2 36  1  0
  2 37  1  0
  7 38  1  0
  8 39  1  0
  9 40  1  0
 10 41  1  0
 11 42  1  0
 12 43  1  0
 13 44  1  0
 13 45  1  0
 14 46  1  0
 14 47  1  0
 18 48  1  1
 19 49  1  0
 19 50  1  0
 20 51  1  0
 20 52  1  0
 22 53  1  0
 23 54  1  0
 25 55  1  0
 26 56  1  0
 27 57  1  0
 28 58  1  0
 30 59  1  0
 31 60  1  0
 31 61  1  0
 32 62  1  0
 32 63  1  0
M  END
>  <smiles>  (47) 
CCC(=O)N(c1ccccc1)C1CCN(C(=O)[C@H](N)Cc2ccc3ccccc3c2)CC1

>  <score_type>  (47) 
oracle

>  <origin>  (47) 
autodockgpu

>  <m_score__min__energy>  (47) 
-8.6799999999999997

>  <m_primary>  (47) 
energy

>  <rmsd>  (47) 
5.786729549535047

>  <m_score__min__rmsd>  (47) 
5.786729549535047

>  <meeko>  (47) 
{"free_energy": -7.88, "intermolecular_energy": -10.27, "internal_energy": -2.86, "cluster_size": 34, "cluster_id": 3, "rank_in_cluster": 32}

>  <energy>  (47) 
-7.88

>  <cluster_rmsd>  (47) 
0.54

>  <cluster>  (47) 
3

$$$$

     RDKit          3D

 63 66  0  0  0  0  0  0  0  0999 V2000
  135.9780   77.2380  222.8900 C   0  0  0  0  0  0  0  0  0  0  0  0
  136.5640   78.3140  222.0160 C   0  0  0  0  0  0  0  0  0  0  0  0
  137.7780   78.9530  222.6050 C   0  0  0  0  0  0  0  0  0  0  0  0
  137.5390   79.9310  223.3790 O   0  0  0  0  0  0  0  0  0  0  0  0
  139.1030   78.5000  222.3180 N   0  0  0  0  0  0  0  0  0  0  0  0
  140.2820   79.2120  222.6150 C   0  0  0  0  0  0  0  0  0  0  0  0
  140.3580   80.5730  222.3540 C   0  0  0  0  0  0  0  0  0  0  0  0
  141.5150   81.3100  222.6300 C   0  0  0  0  0  0  0  0  0  0  0  0
  142.6340   80.7270  223.1750 C   0  0  0  0  0  0  0  0  0  0  0  0
  142.5700   79.3810  223.4390 C   0  0  0  0  0  0  0  0  0  0  0  0
  141.4170   78.6450  223.1620 C   0  0  0  0  0  0  0  0  0  0  0  0
  139.1970   77.1820  221.7050 C   0  0  0  0  0  0  0  0  0  0  0  0
  139.3430   76.0910  222.7070 C   0  0  0  0  0  0  0  0  0  0  0  0
  139.5680   74.7540  222.0160 C   0  0  0  0  0  0  0  0  0  0  0  0
  140.5990   74.8430  221.0320 N   0  0  0  0  0  0  0  0  0  0  0  0
  141.5080   73.7330  220.8860 C   0  0  0  0  0  0  0  0  0  0  0  0
  142.4580   73.7850  220.0230 O   0  0  0  0  0  0  0  0  0  0  0  0
  141.4370   72.4970  221.6750 C   0  0  2  0  0  0  0  0  0  0  0  0
  142.4390   71.5900  221.0860 N   0  0  0  0  0  0  0  0  0  0  0  0
  140.0880   71.8120  221.6420 C   0  0  0  0  0  0  0  0  0  0  0  0
  139.9290   71.1830  223.0030 C   0  0  0  0  0  0  0  0  0  0  0  0
  139.1540   70.0570  223.1930 C   0  0  0  0  0  0  0  0  0  0  0  0
  139.0690   69.5550  224.4740 C   0  0  0  0  0  0  0  0  0  0  0  0
  139.7270   70.1360  225.5520 C   0  0  0  0  0  0  0  0  0  0  0  0
  139.6250   69.6130  226.8260 C   0  0  0  0  0  0  0  0  0  0  0  0
  140.2970   70.2200  227.8830 C   0  0  0  0  0  0  0  0  0  0  0  0
  141.0700   71.3450  227.6810 C   0  0  0  0  0  0  0  0  0  0  0  0
  141.1680   71.8650  226.4070 C   0  0  0  0  0  0  0  0  0  0  0  0
  140.5010   71.2680  225.3400 C   0  0  0  0  0  0  0  0  0  0  0  0
  140.6070   71.8010  224.0560 C   0  0  0  0  0  0  0  0  0  0  0  0
  140.8330   75.9580  220.1460 C   0  0  0  0  0  0  0  0  0  0  0  0
  140.0210   77.1320  220.4680 C   0  0  0  0  0  0  0  0  0  0  0  0
  136.1233   77.5048  223.9472 H   0  0  0  0  0  0  0  0  0  0  0  0
  134.9024   77.1410  222.6808 H   0  0  0  0  0  0  0  0  0  0  0  0
  136.4800   76.2818  222.6808 H   0  0  0  0  0  0  0  0  0  0  0  0
  136.8380   77.8681  221.0485 H   0  0  0  0  0  0  0  0  0  0  0  0
  135.8011   79.0990  221.9075 H   0  0  0  0  0  0  0  0  0  0  0  0
  139.4869   81.0851  221.9193 H   0  0  0  0  0  0  0  0  0  0  0  0
  141.5294   82.3865  222.4044 H   0  0  0  0  0  0  0  0  0  0  0  0
  143.5401   81.3124  223.3900 H   0  0  0  0  0  0  0  0  0  0  0  0
  143.4427   78.8740  223.8764 H   0  0  0  0  0  0  0  0  0  0  0  0
  141.4117   77.5686  223.3886 H   0  0  0  0  0  0  0  0  0  0  0  0
  138.2149   76.9509  221.2668 H   0  0  0  0  0  0  0  0  0  0  0  0
  140.2024   76.3106  223.3576 H   0  0  0  0  0  0  0  0  0  0  0  0
  138.4199   76.0310  223.3022 H   0  0  0  0  0  0  0  0  0  0  0  0
  139.8558   74.0058  222.7692 H   0  0  0  0  0  0  0  0  0  0  0  0
  138.6340   74.4626  221.5134 H   0  0  0  0  0  0  0  0  0  0  0  0
  141.6170   72.7459  222.7312 H   0  0  0  0  0  0  0  0  0  0  0  0
  142.2540   71.5400  220.0520 H   0  0  0  0  0  0  0  0  0  0  0  0
  143.3570   72.0900  221.1880 H   0  0  0  0  0  0  0  0  0  0  0  0
  139.2880   72.5447  221.4601 H   0  0  0  0  0  0  0  0  0  0  0  0
  140.0257   71.0666  220.8354 H   0  0  0  0  0  0  0  0  0  0  0  0
  138.6250   69.5790  222.3553 H   0  0  0  0  0  0  0  0  0  0  0  0
  138.4560   68.6588  224.6503 H   0  0  0  0  0  0  0  0  0  0  0  0
  139.0128   68.7169  227.0054 H   0  0  0  0  0  0  0  0  0  0  0  0
  140.2106   69.7965  228.8945 H   0  0  0  0  0  0  0  0  0  0  0  0
  141.5988   71.8189  228.5211 H   0  0  0  0  0  0  0  0  0  0  0  0
  141.7803   72.7619  226.2318 H   0  0  0  0  0  0  0  0  0  0  0  0
  141.2175   72.6978  223.8745 H   0  0  0  0  0  0  0  0  0  0  0  0
  141.8945   76.2390  220.2108 H   0  0  0  0  0  0  0  0  0  0  0  0
  140.5516   75.6345  219.1330 H   0  0  0  0  0  0  0  0  0  0  0  0
  140.7131   77.9854  220.5195 H   0  0  0  0  0  0  0  0  0  0  0  0
  139.2606   77.1234  219.6732 H   0  0  0  0  0  0  0  0  0  0  0  0
  1  2  1  0
  2  3  1  0
  3  4  2  0
  3  5  1  0
  5  6  1  0
  6  7  2  0
  7  8  1  0
  8  9  2  0
  9 10  1  0
 10 11  2  0
  5 12  1  0
 12 13  1  0
 13 14  1  0
 14 15  1  0
 15 16  1  0
 16 17  2  0
 16 18  1  0
 18 19  1  0
 18 20  1  0
 20 21  1  0
 21 22  2  0
 22 23  1  0
 23 24  2  0
 24 25  1  0
 25 26  2  0
 26 27  1  0
 27 28  2  0
 28 29  1  0
 29 30  2  0
 15 31  1  0
 31 32  1  0
 11  6  1  0
 32 12  1  0
 30 21  1  0
 29 24  1  0
  1 33  1  0
  1 34  1  0
  1 35  1  0
  2 36  1  0
  2 37  1  0
  7 38  1  0
  8 39  1  0
  9 40  1  0
 10 41  1  0
 11 42  1  0
 12 43  1  0
 13 44  1  0
 13 45  1  0
 14 46  1  0
 14 47  1  0
 18 48  1  1
 19 49  1  0
 19 50  1  0
 20 51  1  0
 20 52  1  0
 22 53  1  0
 23 54  1  0
 25 55  1  0
 26 56  1  0
 27 57  1  0
 28 58  1  0
 30 59  1  0
 31 60  1  0
 31 61  1  0
 32 62  1  0
 32 63  1  0
M  END
>  <smiles>  (48) 
CCC(=O)N(c1ccccc1)C1CCN(C(=O)[C@H](N)Cc2ccc3ccccc3c2)CC1

>  <score_type>  (48) 
oracle

>  <origin>  (48) 
autodockgpu

>  <m_score__min__energy>  (48) 
-8.6799999999999997

>  <m_primary>  (48) 
energy

>  <rmsd>  (48) 
5.820513595369068

>  <m_score__min__rmsd>  (48) 
5.820513595369068

>  <meeko>  (48) 
{"free_energy": -7.85, "intermolecular_energy": -10.23, "internal_energy": -2.81, "cluster_size": 34, "cluster_id": 3, "rank_in_cluster": 33}

>  <energy>  (48) 
-7.85

>  <cluster_rmsd>  (48) 
0.72

>  <cluster>  (48) 
3

$$$$

     RDKit          3D

 63 66  0  0  0  0  0  0  0  0999 V2000
  138.0550   80.9010  224.2510 C   0  0  0  0  0  0  0  0  0  0  0  0
  137.3430   79.8300  223.4690 C   0  0  0  0  0  0  0  0  0  0  0  0
  138.0110   79.5060  222.1740 C   0  0  0  0  0  0  0  0  0  0  0  0
  137.3820   79.8970  221.1420 O   0  0  0  0  0  0  0  0  0  0  0  0
  139.2560   78.8090  222.1030 N   0  0  0  0  0  0  0  0  0  0  0  0
  140.5020   79.3400  222.4920 C   0  0  0  0  0  0  0  0  0  0  0  0
  140.9670   79.1480  223.7860 C   0  0  0  0  0  0  0  0  0  0  0  0
  142.1970   79.6670  224.2080 C   0  0  0  0  0  0  0  0  0  0  0  0
  143.0070   80.3900  223.3660 C   0  0  0  0  0  0  0  0  0  0  0  0
  142.5580   80.5850  222.0830 C   0  0  0  0  0  0  0  0  0  0  0  0
  141.3320   80.0690  221.6620 C   0  0  0  0  0  0  0  0  0  0  0  0
  139.1810   77.4370  221.6220 C   0  0  0  0  0  0  0  0  0  0  0  0
  139.3870   76.4350  222.7040 C   0  0  0  0  0  0  0  0  0  0  0  0
  139.4300   75.0260  222.1310 C   0  0  0  0  0  0  0  0  0  0  0  0
  140.3260   74.9420  221.0220 N   0  0  0  0  0  0  0  0  0  0  0  0
  141.1320   73.7550  220.8780 C   0  0  0  0  0  0  0  0  0  0  0  0
  141.9600   73.6520  219.9020 O   0  0  0  0  0  0  0  0  0  0  0  0
  141.0850   72.6070  221.7910 C   0  0  2  0  0  0  0  0  0  0  0  0
  142.1170   71.6720  221.3100 N   0  0  0  0  0  0  0  0  0  0  0  0
  139.7550   71.8850  221.8190 C   0  0  0  0  0  0  0  0  0  0  0  0
  139.6880   71.2280  223.1740 C   0  0  0  0  0  0  0  0  0  0  0  0
  138.9640   70.0720  223.3810 C   0  0  0  0  0  0  0  0  0  0  0  0
  138.9630   69.5450  224.6550 C   0  0  0  0  0  0  0  0  0  0  0  0
  139.6530   70.1320  225.7100 C   0  0  0  0  0  0  0  0  0  0  0  0
  139.6350   69.5840  226.9770 C   0  0  0  0  0  0  0  0  0  0  0  0
  140.3370   70.1970  228.0100 C   0  0  0  0  0  0  0  0  0  0  0  0
  141.0580   71.3530  227.7910 C   0  0  0  0  0  0  0  0  0  0  0  0
  141.0730   71.8980  226.5230 C   0  0  0  0  0  0  0  0  0  0  0  0
  140.3740   71.2950  225.4800 C   0  0  0  0  0  0  0  0  0  0  0  0
  140.3960   71.8530  224.2020 C   0  0  0  0  0  0  0  0  0  0  0  0
  140.5130   75.9470  220.0030 C   0  0  0  0  0  0  0  0  0  0  0  0
  139.8300   77.2070  220.3030 C   0  0  0  0  0  0  0  0  0  0  0  0
  137.9301   80.7132  225.3276 H   0  0  0  0  0  0  0  0  0  0  0  0
  139.1255   80.8890  223.9984 H   0  0  0  0  0  0  0  0  0  0  0  0
  137.6296   81.8835  223.9984 H   0  0  0  0  0  0  0  0  0  0  0  0
  137.3051   78.9168  224.0811 H   0  0  0  0  0  0  0  0  0  0  0  0
  136.3384   80.2106  223.2327 H   0  0  0  0  0  0  0  0  0  0  0  0
  140.3543   78.5743  224.4969 H   0  0  0  0  0  0  0  0  0  0  0  0
  142.5242   79.4909  225.2433 H   0  0  0  0  0  0  0  0  0  0  0  0
  143.9722   80.7946  223.7046 H   0  0  0  0  0  0  0  0  0  0  0  0
  143.1753   81.1577  221.3752 H   0  0  0  0  0  0  0  0  0  0  0  0
  141.0125   80.2503  220.6251 H   0  0  0  0  0  0  0  0  0  0  0  0
  138.1360   77.2451  221.3373 H   0  0  0  0  0  0  0  0  0  0  0  0
  140.3378   76.6460  223.2154 H   0  0  0  0  0  0  0  0  0  0  0  0
  138.5489   76.5030  223.4133 H   0  0  0  0  0  0  0  0  0  0  0  0
  139.7646   74.3308  222.9150 H   0  0  0  0  0  0  0  0  0  0  0  0
  138.4206   74.7633  221.7815 H   0  0  0  0  0  0  0  0  0  0  0  0
  141.2462   72.9702  222.8167 H   0  0  0  0  0  0  0  0  0  0  0  0
  141.8980   71.4440  220.3070 H   0  0  0  0  0  0  0  0  0  0  0  0
  143.0060   72.2310  221.2870 H   0  0  0  0  0  0  0  0  0  0  0  0
  138.9267   72.5981  221.6951 H   0  0  0  0  0  0  0  0  0  0  0  0
  139.6687   71.1523  221.0031 H   0  0  0  0  0  0  0  0  0  0  0  0
  138.4097   69.5900  222.5622 H   0  0  0  0  0  0  0  0  0  0  0  0
  138.3935   68.6232  224.8445 H   0  0  0  0  0  0  0  0  0  0  0  0
  139.0656   68.6628  227.1698 H   0  0  0  0  0  0  0  0  0  0  0  0
  140.3170   69.7535  229.0164 H   0  0  0  0  0  0  0  0  0  0  0  0
  141.6111   71.8317  228.6125 H   0  0  0  0  0  0  0  0  0  0  0  0
  141.6436   72.8192  226.3340 H   0  0  0  0  0  0  0  0  0  0  0  0
  140.9643   72.7743  224.0065 H   0  0  0  0  0  0  0  0  0  0  0  0
  141.5899   76.1481  219.9038 H   0  0  0  0  0  0  0  0  0  0  0  0
  140.0786   75.5534  219.0722 H   0  0  0  0  0  0  0  0  0  0  0  0
  140.5782   78.0040  220.1805 H   0  0  0  0  0  0  0  0  0  0  0  0
  138.9723   77.1845  219.6146 H   0  0  0  0  0  0  0  0  0  0  0  0
  1  2  1  0
  2  3  1  0
  3  4  2  0
  3  5  1  0
  5  6  1  0
  6  7  2  0
  7  8  1  0
  8  9  2  0
  9 10  1  0
 10 11  2  0
  5 12  1  0
 12 13  1  0
 13 14  1  0
 14 15  1  0
 15 16  1  0
 16 17  2  0
 16 18  1  0
 18 19  1  0
 18 20  1  0
 20 21  1  0
 21 22  2  0
 22 23  1  0
 23 24  2  0
 24 25  1  0
 25 26  2  0
 26 27  1  0
 27 28  2  0
 28 29  1  0
 29 30  2  0
 15 31  1  0
 31 32  1  0
 11  6  1  0
 32 12  1  0
 30 21  1  0
 29 24  1  0
  1 33  1  0
  1 34  1  0
  1 35  1  0
  2 36  1  0
  2 37  1  0
  7 38  1  0
  8 39  1  0
  9 40  1  0
 10 41  1  0
 11 42  1  0
 12 43  1  0
 13 44  1  0
 13 45  1  0
 14 46  1  0
 14 47  1  0
 18 48  1  1
 19 49  1  0
 19 50  1  0
 20 51  1  0
 20 52  1  0
 22 53  1  0
 23 54  1  0
 25 55  1  0
 26 56  1  0
 27 57  1  0
 28 58  1  0
 30 59  1  0
 31 60  1  0
 31 61  1  0
 32 62  1  0
 32 63  1  0
M  END
>  <smiles>  (49) 
CCC(=O)N(c1ccccc1)C1CCN(C(=O)[C@H](N)Cc2ccc3ccccc3c2)CC1

>  <score_type>  (49) 
oracle

>  <origin>  (49) 
autodockgpu

>  <m_score__min__energy>  (49) 
-8.6799999999999997

>  <m_primary>  (49) 
energy

>  <rmsd>  (49) 
5.78412493207937

>  <m_score__min__rmsd>  (49) 
5.78412493207937

>  <meeko>  (49) 
{"free_energy": -7.93, "intermolecular_energy": -10.32, "internal_energy": -2.84, "cluster_size": 34, "cluster_id": 3, "rank_in_cluster": 29}

>  <energy>  (49) 
-7.84

>  <cluster_rmsd>  (49) 
0.48

>  <cluster>  (49) 
3

$$$$

     RDKit          3D

 63 66  0  0  0  0  0  0  0  0999 V2000
  137.9890   80.7220  224.3030 C   0  0  0  0  0  0  0  0  0  0  0  0
  137.8610   80.8230  222.8070 C   0  0  0  0  0  0  0  0  0  0  0  0
  138.0360   79.5130  222.1120 C   0  0  0  0  0  0  0  0  0  0  0  0
  136.9880   79.0710  221.5460 O   0  0  0  0  0  0  0  0  0  0  0  0
  139.2810   78.8140  222.0880 N   0  0  0  0  0  0  0  0  0  0  0  0
  140.5160   79.3480  222.5090 C   0  0  0  0  0  0  0  0  0  0  0  0
  141.3120   80.0490  221.6150 C   0  0  0  0  0  0  0  0  0  0  0  0
  142.5470   80.5880  221.9980 C   0  0  0  0  0  0  0  0  0  0  0  0
  143.0320   80.4520  223.2750 C   0  0  0  0  0  0  0  0  0  0  0  0
  142.2520   79.7620  224.1700 C   0  0  0  0  0  0  0  0  0  0  0  0
  141.0220   79.2240  223.7890 C   0  0  0  0  0  0  0  0  0  0  0  0
  139.2190   77.4360  221.6210 C   0  0  0  0  0  0  0  0  0  0  0  0
  139.3990   76.4480  222.7200 C   0  0  0  0  0  0  0  0  0  0  0  0
  139.4570   75.0320  222.1650 C   0  0  0  0  0  0  0  0  0  0  0  0
  140.3790   74.9360  221.0780 N   0  0  0  0  0  0  0  0  0  0  0  0
  141.1890   73.7480  220.9680 C   0  0  0  0  0  0  0  0  0  0  0  0
  142.0410   73.6340  220.0130 O   0  0  0  0  0  0  0  0  0  0  0  0
  141.1210   72.6100  221.8930 C   0  0  2  0  0  0  0  0  0  0  0  0
  142.0220   71.5880  221.3350 N   0  0  0  0  0  0  0  0  0  0  0  0
  139.7400   72.0090  222.0420 C   0  0  0  0  0  0  0  0  0  0  0  0
  139.7780   71.2430  223.3400 C   0  0  0  0  0  0  0  0  0  0  0  0
  139.2590   69.9690  223.4430 C   0  0  0  0  0  0  0  0  0  0  0  0
  139.3400   69.3490  224.6720 C   0  0  0  0  0  0  0  0  0  0  0  0
  139.9160   69.9580  225.7820 C   0  0  0  0  0  0  0  0  0  0  0  0
  139.9840   69.3140  227.0020 C   0  0  0  0  0  0  0  0  0  0  0  0
  140.5670   69.9520  228.0920 C   0  0  0  0  0  0  0  0  0  0  0  0
  141.0840   71.2270  227.9770 C   0  0  0  0  0  0  0  0  0  0  0  0
  141.0130   71.8660  226.7570 C   0  0  0  0  0  0  0  0  0  0  0  0
  140.4310   71.2400  225.6570 C   0  0  0  0  0  0  0  0  0  0  0  0
  140.3650   71.8940  224.4270 C   0  0  0  0  0  0  0  0  0  0  0  0
  140.5900   75.9290  220.0530 C   0  0  0  0  0  0  0  0  0  0  0  0
  139.8990   77.1910  220.3210 C   0  0  0  0  0  0  0  0  0  0  0  0
  137.2108   81.3360  224.7799 H   0  0  0  0  0  0  0  0  0  0  0  0
  137.8686   79.6730  224.6113 H   0  0  0  0  0  0  0  0  0  0  0  0
  138.9812   81.0832  224.6113 H   0  0  0  0  0  0  0  0  0  0  0  0
  136.8616   81.2152  222.5673 H   0  0  0  0  0  0  0  0  0  0  0  0
  138.6619   81.4896  222.4546 H   0  0  0  0  0  0  0  0  0  0  0  0
  140.9650   80.1850  220.5801 H   0  0  0  0  0  0  0  0  0  0  0  0
  143.1449   81.1356  221.2546 H   0  0  0  0  0  0  0  0  0  0  0  0
  144.0031   80.8772  223.5685 H   0  0  0  0  0  0  0  0  0  0  0  0
  142.6025   79.6312  225.2044 H   0  0  0  0  0  0  0  0  0  0  0  0
  140.4305   78.6784  224.5389 H   0  0  0  0  0  0  0  0  0  0  0  0
  138.1818   77.2390  221.3120 H   0  0  0  0  0  0  0  0  0  0  0  0
  140.3368   76.6662  223.2520 H   0  0  0  0  0  0  0  0  0  0  0  0
  138.5440   76.5239  223.4079 H   0  0  0  0  0  0  0  0  0  0  0  0
  139.7740   74.3467  222.9649 H   0  0  0  0  0  0  0  0  0  0  0  0
  138.4564   74.7637  221.7952 H   0  0  0  0  0  0  0  0  0  0  0  0
  141.4015   72.9588  222.8978 H   0  0  0  0  0  0  0  0  0  0  0  0
  141.7380   71.4230  220.3360 H   0  0  0  0  0  0  0  0  0  0  0  0
  142.9660   72.0460  221.2900 H   0  0  0  0  0  0  0  0  0  0  0  0
  138.9776   72.8008  222.0840 H   0  0  0  0  0  0  0  0  0  0  0  0
  139.4801   71.3620  221.1912 H   0  0  0  0  0  0  0  0  0  0  0  0
  138.7987   69.4675  222.5789 H   0  0  0  0  0  0  0  0  0  0  0  0
  138.9330   68.3327  224.7788 H   0  0  0  0  0  0  0  0  0  0  0  0
  139.5776   68.2977  227.1116 H   0  0  0  0  0  0  0  0  0  0  0  0
  140.6169   69.4327  229.0604 H   0  0  0  0  0  0  0  0  0  0  0  0
  141.5445   71.7244  228.8433 H   0  0  0  0  0  0  0  0  0  0  0  0
  141.4208   72.8821  226.6512 H   0  0  0  0  0  0  0  0  0  0  0  0
  140.7704   72.9103  224.3145 H   0  0  0  0  0  0  0  0  0  0  0  0
  141.6688   76.1303  219.9782 H   0  0  0  0  0  0  0  0  0  0  0  0
  140.1790   75.5241  219.1165 H   0  0  0  0  0  0  0  0  0  0  0  0
  140.6489   77.9875  220.2064 H   0  0  0  0  0  0  0  0  0  0  0  0
  139.0579   77.1590  219.6128 H   0  0  0  0  0  0  0  0  0  0  0  0
  1  2  1  0
  2  3  1  0
  3  4  2  0
  3  5  1  0
  5  6  1  0
  6  7  2  0
  7  8  1  0
  8  9  2  0
  9 10  1  0
 10 11  2  0
  5 12  1  0
 12 13  1  0
 13 14  1  0
 14 15  1  0
 15 16  1  0
 16 17  2  0
 16 18  1  0
 18 19  1  0
 18 20  1  0
 20 21  1  0
 21 22  2  0
 22 23  1  0
 23 24  2  0
 24 25  1  0
 25 26  2  0
 26 27  1  0
 27 28  2  0
 28 29  1  0
 29 30  2  0
 15 31  1  0
 31 32  1  0
 11  6  1  0
 32 12  1  0
 30 21  1  0
 29 24  1  0
  1 33  1  0
  1 34  1  0
  1 35  1  0
  2 36  1  0
  2 37  1  0
  7 38  1  0
  8 39  1  0
  9 40  1  0
 10 41  1  0
 11 42  1  0
 12 43  1  0
 13 44  1  0
 13 45  1  0
 14 46  1  0
 14 47  1  0
 18 48  1  1
 19 49  1  0
 19 50  1  0
 20 51  1  0
 20 52  1  0
 22 53  1  0
 23 54  1  0
 25 55  1  0
 26 56  1  0
 27 57  1  0
 28 58  1  0
 30 59  1  0
 31 60  1  0
 31 61  1  0
 32 62  1  0
 32 63  1  0
M  END
>  <smiles>  (50) 
CCC(=O)N(c1ccccc1)C1CCN(C(=O)[C@H](N)Cc2ccc3ccccc3c2)CC1

>  <score_type>  (50) 
oracle

>  <origin>  (50) 
autodockgpu

>  <m_score__min__energy>  (50) 
-8.6799999999999997

>  <m_primary>  (50) 
energy

>  <rmsd>  (50) 
5.814796200382346

>  <m_score__min__rmsd>  (50) 
5.814796200382346

>  <meeko>  (50) 
{"free_energy": -7.98, "intermolecular_energy": -10.37, "internal_energy": -2.77, "cluster_size": 34, "cluster_id": 3, "rank_in_cluster": 20}

>  <energy>  (50) 
-7.61

>  <cluster_rmsd>  (50) 
0.0

>  <cluster>  (50) 
4

$$$$
