
     RDKit          3D

 68 73  0  0  0  0  0  0  0  0999 V2000
  146.3110   68.6090  219.3350 C   0  0  0  0  0  0  0  0  0  0  0  0
  145.1200   67.8850  219.3090 C   0  0  0  0  0  0  0  0  0  0  0  0
  143.8960   68.5360  219.2980 C   0  0  0  0  0  0  0  0  0  0  0  0
  143.8350   69.9310  219.3100 C   0  0  0  0  0  0  0  0  0  0  0  0
  145.0070   70.6530  219.3360 C   0  0  0  0  0  0  0  0  0  0  0  0
  146.2270   69.9880  219.3480 C   0  0  0  0  0  0  0  0  0  0  0  0
  145.0610   72.1360  219.3510 C   0  0  0  0  0  0  0  0  0  0  0  0
  143.7360   72.6400  218.8340 C   0  0  0  0  0  0  0  0  0  0  0  0
  142.6920   71.9840  219.5690 N   0  0  0  0  0  0  0  0  0  0  0  0
  141.8850   72.6370  220.5140 C   0  0  0  0  0  0  0  0  0  0  0  0
  141.1230   72.0040  221.4260 N   0  0  0  0  0  0  0  0  0  0  0  0
  140.3620   72.6650  222.3220 C   0  0  0  0  0  0  0  0  0  0  0  0
  139.5540   71.9960  223.2850 N   0  0  0  0  0  0  0  0  0  0  0  0
  139.9150   70.7380  223.8970 C   0  0  0  0  0  0  0  0  0  0  0  0
  139.3400   70.5580  225.2600 C   0  0  0  0  0  0  0  0  0  0  0  0
  140.4170   70.8200  226.2870 C   0  0  0  0  0  0  0  0  0  0  0  0
  141.4190   69.6920  226.2840 C   0  0  0  0  0  0  0  0  0  0  0  0
  140.6790   68.4550  226.7630 C   0  0  0  0  0  0  0  0  0  0  0  0
  139.5830   68.1080  225.8150 C   0  0  0  0  0  0  0  0  0  0  0  0
  138.6790   69.2290  225.4280 C   0  0  0  0  0  0  0  0  0  0  0  0
  140.3340   74.0140  222.3370 N   0  0  0  0  0  0  0  0  0  0  0  0
  141.0880   74.6690  221.4340 C   0  0  0  0  0  0  0  0  0  0  0  0
  141.0710   76.1120  221.4340 N   0  0  0  0  0  0  0  0  0  0  0  0
  141.0990   76.7540  220.1520 C   0  0  0  0  0  0  0  0  0  0  0  0
  141.8800   78.0730  220.2080 C   0  0  0  0  0  0  0  0  0  0  0  0
  141.3460   78.8990  221.3490 C   0  0  0  0  0  0  0  0  0  0  0  0
  141.2530   80.2660  221.2260 C   0  0  0  0  0  0  0  0  0  0  0  0
  140.7540   81.0120  222.2910 C   0  0  0  0  0  0  0  0  0  0  0  0
  140.3530   80.3850  223.4700 C   0  0  0  0  0  0  0  0  0  0  0  0
  140.4640   79.0130  223.5480 C   0  0  0  0  0  0  0  0  0  0  0  0
  140.9590   78.2470  222.4970 C   0  0  0  0  0  0  0  0  0  0  0  0
  141.0290   76.7920  222.7040 C   0  0  0  0  0  0  0  0  0  0  0  0
  141.8500   73.9850  220.5390 N   0  0  0  0  0  0  0  0  0  0  0  0
  142.4870   70.5590  219.2960 C   0  0  0  0  0  0  0  0  0  0  0  0
  147.2856   68.0991  219.3448 H   0  0  0  0  0  0  0  0  0  0  0  0
  145.1517   66.7855  219.2971 H   0  0  0  0  0  0  0  0  0  0  0  0
  142.9658   67.9491  219.2797 H   0  0  0  0  0  0  0  0  0  0  0  0
  147.1551   70.5780  219.3685 H   0  0  0  0  0  0  0  0  0  0  0  0
  145.2259   72.4961  220.3772 H   0  0  0  0  0  0  0  0  0  0  0  0
  145.8875   72.5013  218.7238 H   0  0  0  0  0  0  0  0  0  0  0  0
  143.6681   73.7281  218.9805 H   0  0  0  0  0  0  0  0  0  0  0  0
  143.6391   72.4245  217.7597 H   0  0  0  0  0  0  0  0  0  0  0  0
  138.6470   72.4960  223.5280 H   0  0  0  0  0  0  0  0  0  0  0  0
  139.5534   69.9212  223.2551 H   0  0  0  0  0  0  0  0  0  0  0  0
  141.0099   70.7296  224.0021 H   0  0  0  0  0  0  0  0  0  0  0  0
  138.5332   71.2903  225.4106 H   0  0  0  0  0  0  0  0  0  0  0  0
  140.9293   71.7629  226.0450 H   0  0  0  0  0  0  0  0  0  0  0  0
  139.9561   70.8906  227.2833 H   0  0  0  0  0  0  0  0  0  0  0  0
  141.8079   69.5321  225.2675 H   0  0  0  0  0  0  0  0  0  0  0  0
  142.2756   69.9197  226.9355 H   0  0  0  0  0  0  0  0  0  0  0  0
  141.3836   67.6127  226.8269 H   0  0  0  0  0  0  0  0  0  0  0  0
  140.2445   68.6590  227.7527 H   0  0  0  0  0  0  0  0  0  0  0  0
  140.0433   67.7136  224.8971 H   0  0  0  0  0  0  0  0  0  0  0  0
  138.9484   67.3827  226.3454 H   0  0  0  0  0  0  0  0  0  0  0  0
  138.2009   68.9649  224.4732 H   0  0  0  0  0  0  0  0  0  0  0  0
  137.9698   69.3469  226.2606 H   0  0  0  0  0  0  0  0  0  0  0  0
  141.5802   76.0829  219.4253 H   0  0  0  0  0  0  0  0  0  0  0  0
  140.0643   76.9748  219.8508 H   0  0  0  0  0  0  0  0  0  0  0  0
  142.9480   77.8648  220.3692 H   0  0  0  0  0  0  0  0  0  0  0  0
  141.7628   78.6199  219.2608 H   0  0  0  0  0  0  0  0  0  0  0  0
  141.5690   80.7640  220.2975 H   0  0  0  0  0  0  0  0  0  0  0  0
  140.6756   82.1055  222.2012 H   0  0  0  0  0  0  0  0  0  0  0  0
  139.9589   80.9690  224.3148 H   0  0  0  0  0  0  0  0  0  0  0  0
  140.1505   78.5065  224.4728 H   0  0  0  0  0  0  0  0  0  0  0  0
  141.9363   76.5493  223.2767 H   0  0  0  0  0  0  0  0  0  0  0  0
  140.1373   76.4641  223.2584 H   0  0  0  0  0  0  0  0  0  0  0  0
  141.8502   70.1105  220.0728 H   0  0  0  0  0  0  0  0  0  0  0  0
  141.9857   70.4062  218.3289 H   0  0  0  0  0  0  0  0  0  0  0  0
  1  2  2  0
  2  3  1  0
  3  4  2  0
  4  5  1  0
  5  6  2  0
  5  7  1  0
  7  8  1  0
  8  9  1  0
  9 10  1  0
 10 11  2  0
 11 12  1  0
 12 13  1  0
 13 14  1  0
 14 15  1  0
 15 16  1  0
 16 17  1  0
 17 18  1  0
 18 19  1  0
 19 20  1  0
 12 21  2  0
 21 22  1  0
 22 23  1  0
 23 24  1  0
 24 25  1  0
 25 26  1  0
 26 27  2  0
 27 28  1  0
 28 29  2  0
 29 30  1  0
 30 31  2  0
 31 32  1  0
 22 33  2  0
  9 34  1  0
  6  1  1  0
 33 10  1  0
 34  4  1  0
 20 15  1  0
 32 23  1  0
 31 26  1  0
  1 35  1  0
  2 36  1  0
  3 37  1  0
  6 38  1  0
  7 39  1  0
  7 40  1  0
  8 41  1  0
  8 42  1  0
 13 43  1  0
 14 44  1  0
 14 45  1  0
 15 46  1  0
 16 47  1  0
 16 48  1  0
 17 49  1  0
 17 50  1  0
 18 51  1  0
 18 52  1  0
 19 53  1  0
 19 54  1  0
 20 55  1  0
 20 56  1  0
 24 57  1  0
 24 58  1  0
 25 59  1  0
 25 60  1  0
 27 61  1  0
 28 62  1  0
 29 63  1  0
 30 64  1  0
 32 65  1  0
 32 66  1  0
 34 67  1  0
 34 68  1  0
M  END
>  <smiles>  (1) 
c1ccc2c(c1)CCN(c1nc(NCC3CCCCC3)nc(N3CCc4ccccc4C3)n1)C2

>  <score_type>  (1) 
oracle

>  <origin>  (1) 
autodockgpu

>  <m_score__min__energy>  (1) 
-10.220000000000001

>  <m_primary>  (1) 
energy

>  <rmsd>  (1) 
10.366000536784062

>  <m_score__min__rmsd>  (1) 
10.366000536784062

>  <meeko>  (1) 
{"free_energy": -9.84, "intermolecular_energy": -11.33, "internal_energy": -0.96, "cluster_size": 20, "cluster_id": 1, "rank_in_cluster": 13}

>  <energy>  (1) 
-10.22

>  <cluster_rmsd>  (1) 
0.0

>  <cluster>  (1) 
1

$$$$

     RDKit          3D

 68 73  0  0  0  0  0  0  0  0999 V2000
  140.7030   79.8770  223.4620 C   0  0  0  0  0  0  0  0  0  0  0  0
  141.7380   79.8090  222.5300 C   0  0  0  0  0  0  0  0  0  0  0  0
  141.8330   78.7380  221.6550 C   0  0  0  0  0  0  0  0  0  0  0  0
  140.8920   77.7070  221.6910 C   0  0  0  0  0  0  0  0  0  0  0  0
  139.8670   77.7670  222.6090 C   0  0  0  0  0  0  0  0  0  0  0  0
  139.7840   78.8450  223.4810 C   0  0  0  0  0  0  0  0  0  0  0  0
  138.8140   76.7290  222.7370 C   0  0  0  0  0  0  0  0  0  0  0  0
  138.7800   75.9610  221.4380 C   0  0  0  0  0  0  0  0  0  0  0  0
  140.1180   75.5450  221.1310 N   0  0  0  0  0  0  0  0  0  0  0  0
  140.5500   74.2110  221.2090 C   0  0  0  0  0  0  0  0  0  0  0  0
  141.2780   73.5930  220.2600 N   0  0  0  0  0  0  0  0  0  0  0  0
  141.6780   72.3100  220.3690 C   0  0  0  0  0  0  0  0  0  0  0  0
  142.4460   71.6570  219.3640 N   0  0  0  0  0  0  0  0  0  0  0  0
  143.8210   71.2520  219.5440 C   0  0  0  0  0  0  0  0  0  0  0  0
  144.8020   72.2370  219.0040 C   0  0  0  0  0  0  0  0  0  0  0  0
  145.9810   72.3200  219.9440 C   0  0  0  0  0  0  0  0  0  0  0  0
  145.5830   73.0310  221.2140 C   0  0  0  0  0  0  0  0  0  0  0  0
  145.2580   74.4630  220.8230 C   0  0  0  0  0  0  0  0  0  0  0  0
  144.1000   74.4950  219.8870 C   0  0  0  0  0  0  0  0  0  0  0  0
  144.1790   73.5650  218.7240 C   0  0  0  0  0  0  0  0  0  0  0  0
  141.3550   71.5820  221.4580 N   0  0  0  0  0  0  0  0  0  0  0  0
  140.6270   72.1780  222.4210 C   0  0  0  0  0  0  0  0  0  0  0  0
  140.2710   71.4140  223.5930 N   0  0  0  0  0  0  0  0  0  0  0  0
  139.4980   70.2270  223.3740 C   0  0  0  0  0  0  0  0  0  0  0  0
  138.5190   69.9800  224.5300 C   0  0  0  0  0  0  0  0  0  0  0  0
  139.2830   70.0420  225.8270 C   0  0  0  0  0  0  0  0  0  0  0  0
  138.9550   69.1960  226.8610 C   0  0  0  0  0  0  0  0  0  0  0  0
  139.6750   69.2670  228.0510 C   0  0  0  0  0  0  0  0  0  0  0  0
  140.7160   70.1830  228.1980 C   0  0  0  0  0  0  0  0  0  0  0  0
  141.0090   71.0110  227.1350 C   0  0  0  0  0  0  0  0  0  0  0  0
  140.3040   70.9580  225.9360 C   0  0  0  0  0  0  0  0  0  0  0  0
  140.7120   71.8950  224.8780 C   0  0  0  0  0  0  0  0  0  0  0  0
  140.2330   73.4730  222.2930 N   0  0  0  0  0  0  0  0  0  0  0  0
  141.0590   76.5920  220.7210 C   0  0  0  0  0  0  0  0  0  0  0  0
  140.6207   80.7240  224.1590 H   0  0  0  0  0  0  0  0  0  0  0  0
  142.4869   80.6136  222.4887 H   0  0  0  0  0  0  0  0  0  0  0  0
  142.6563   78.7000  220.9265 H   0  0  0  0  0  0  0  0  0  0  0  0
  138.9607   78.8783  224.2098 H   0  0  0  0  0  0  0  0  0  0  0  0
  139.0534   76.0506  223.5691 H   0  0  0  0  0  0  0  0  0  0  0  0
  137.8364   77.1895  222.9427 H   0  0  0  0  0  0  0  0  0  0  0  0
  138.1303   75.0796  221.5429 H   0  0  0  0  0  0  0  0  0  0  0  0
  138.3833   76.5946  220.6310 H   0  0  0  0  0  0  0  0  0  0  0  0
  141.9270   71.4830  218.4520 H   0  0  0  0  0  0  0  0  0  0  0  0
  144.0096   71.1257  220.6203 H   0  0  0  0  0  0  0  0  0  0  0  0
  143.9601   70.3144  218.9858 H   0  0  0  0  0  0  0  0  0  0  0  0
  145.1633   71.8885  218.0252 H   0  0  0  0  0  0  0  0  0  0  0  0
  146.3238   71.3037  220.1882 H   0  0  0  0  0  0  0  0  0  0  0  0
  146.7914   72.8814  219.4561 H   0  0  0  0  0  0  0  0  0  0  0  0
  144.7000   72.5488  221.6588 H   0  0  0  0  0  0  0  0  0  0  0  0
  146.3910   72.9958  221.9596 H   0  0  0  0  0  0  0  0  0  0  0  0
  145.0094   75.0381  221.7271 H   0  0  0  0  0  0  0  0  0  0  0  0
  146.1332   74.9041  220.3235 H   0  0  0  0  0  0  0  0  0  0  0  0
  143.1958   74.2424  220.4602 H   0  0  0  0  0  0  0  0  0  0  0  0
  144.0902   75.5082  219.4588 H   0  0  0  0  0  0  0  0  0  0  0  0
  143.1558   73.3894  218.3604 H   0  0  0  0  0  0  0  0  0  0  0  0
  144.8328   74.0562  217.9883 H   0  0  0  0  0  0  0  0  0  0  0  0
  138.9287   70.3371  222.4392 H   0  0  0  0  0  0  0  0  0  0  0  0
  140.1856   69.3706  223.3113 H   0  0  0  0  0  0  0  0  0  0  0  0
  137.7356   70.7522  224.5239 H   0  0  0  0  0  0  0  0  0  0  0  0
  138.0465   68.9929  224.4185 H   0  0  0  0  0  0  0  0  0  0  0  0
  138.1341   68.4723  226.7492 H   0  0  0  0  0  0  0  0  0  0  0  0
  139.4200   68.5940  228.8829 H   0  0  0  0  0  0  0  0  0  0  0  0
  141.2876   70.2434  229.1359 H   0  0  0  0  0  0  0  0  0  0  0  0
  141.8278   71.7382  227.2381 H   0  0  0  0  0  0  0  0  0  0  0  0
  140.2626   72.8802  225.0715 H   0  0  0  0  0  0  0  0  0  0  0  0
  141.8089   71.9780  224.8741 H   0  0  0  0  0  0  0  0  0  0  0  0
  142.0904   76.2108  220.7528 H   0  0  0  0  0  0  0  0  0  0  0  0
  140.8623   76.9252  219.6913 H   0  0  0  0  0  0  0  0  0  0  0  0
  1  2  2  0
  2  3  1  0
  3  4  2  0
  4  5  1  0
  5  6  2  0
  5  7  1  0
  7  8  1  0
  8  9  1  0
  9 10  1  0
 10 11  2  0
 11 12  1  0
 12 13  1  0
 13 14  1  0
 14 15  1  0
 15 16  1  0
 16 17  1  0
 17 18  1  0
 18 19  1  0
 19 20  1  0
 12 21  2  0
 21 22  1  0
 22 23  1  0
 23 24  1  0
 24 25  1  0
 25 26  1  0
 26 27  2  0
 27 28  1  0
 28 29  2  0
 29 30  1  0
 30 31  2  0
 31 32  1  0
 22 33  2  0
  9 34  1  0
  6  1  1  0
 33 10  1  0
 34  4  1  0
 20 15  1  0
 32 23  1  0
 31 26  1  0
  1 35  1  0
  2 36  1  0
  3 37  1  0
  6 38  1  0
  7 39  1  0
  7 40  1  0
  8 41  1  0
  8 42  1  0
 13 43  1  0
 14 44  1  0
 14 45  1  0
 15 46  1  0
 16 47  1  0
 16 48  1  0
 17 49  1  0
 17 50  1  0
 18 51  1  0
 18 52  1  0
 19 53  1  0
 19 54  1  0
 20 55  1  0
 20 56  1  0
 24 57  1  0
 24 58  1  0
 25 59  1  0
 25 60  1  0
 27 61  1  0
 28 62  1  0
 29 63  1  0
 30 64  1  0
 32 65  1  0
 32 66  1  0
 34 67  1  0
 34 68  1  0
M  END
>  <smiles>  (2) 
c1ccc2c(c1)CCN(c1nc(NCC3CCCCC3)nc(N3CCc4ccccc4C3)n1)C2

>  <score_type>  (2) 
oracle

>  <origin>  (2) 
autodockgpu

>  <m_score__min__energy>  (2) 
-10.220000000000001

>  <m_primary>  (2) 
energy

>  <rmsd>  (2) 
4.934733700487868

>  <m_score__min__rmsd>  (2) 
4.934733700487868

>  <meeko>  (2) 
{"free_energy": -9.8, "intermolecular_energy": -11.29, "internal_energy": -1.54, "cluster_size": 23, "cluster_id": 2, "rank_in_cluster": 5}

>  <energy>  (2) 
-10.18

>  <cluster_rmsd>  (2) 
0.67

>  <cluster>  (2) 
1

$$$$

     RDKit          3D

 68 73  0  0  0  0  0  0  0  0999 V2000
  140.8590   80.4590  223.5640 C   0  0  0  0  0  0  0  0  0  0  0  0
  142.0850   80.1650  222.9700 C   0  0  0  0  0  0  0  0  0  0  0  0
  142.2450   79.0180  222.2090 C   0  0  0  0  0  0  0  0  0  0  0  0
  141.1800   78.1350  222.0230 C   0  0  0  0  0  0  0  0  0  0  0  0
  139.9650   78.4190  222.6060 C   0  0  0  0  0  0  0  0  0  0  0  0
  139.8180   79.5720  223.3670 C   0  0  0  0  0  0  0  0  0  0  0  0
  138.7670   77.5540  222.4760 C   0  0  0  0  0  0  0  0  0  0  0  0
  138.9690   76.6850  221.2590 C   0  0  0  0  0  0  0  0  0  0  0  0
  140.2560   76.0610  221.3660 N   0  0  0  0  0  0  0  0  0  0  0  0
  140.4330   74.6920  221.6250 C   0  0  0  0  0  0  0  0  0  0  0  0
  139.6040   73.9510  222.3840 N   0  0  0  0  0  0  0  0  0  0  0  0
  139.8030   72.6370  222.6090 C   0  0  0  0  0  0  0  0  0  0  0  0
  138.9270   71.8540  223.4140 N   0  0  0  0  0  0  0  0  0  0  0  0
  139.2510   70.5310  223.8950 C   0  0  0  0  0  0  0  0  0  0  0  0
  139.0840   70.3820  225.3690 C   0  0  0  0  0  0  0  0  0  0  0  0
  140.3280   70.8910  226.0580 C   0  0  0  0  0  0  0  0  0  0  0  0
  141.4730   69.9340  225.8360 C   0  0  0  0  0  0  0  0  0  0  0  0
  141.1010   68.6430  226.5460 C   0  0  0  0  0  0  0  0  0  0  0  0
  139.8740   68.0530  225.9400 C   0  0  0  0  0  0  0  0  0  0  0  0
  138.7250   68.9870  225.7620 C   0  0  0  0  0  0  0  0  0  0  0  0
  140.8650   72.0020  222.0700 N   0  0  0  0  0  0  0  0  0  0  0  0
  141.7090   72.7220  221.3080 C   0  0  0  0  0  0  0  0  0  0  0  0
  142.8510   72.0600  220.7240 N   0  0  0  0  0  0  0  0  0  0  0  0
  144.0900   72.7820  220.7440 C   0  0  0  0  0  0  0  0  0  0  0  0
  144.9310   72.4770  219.4980 C   0  0  0  0  0  0  0  0  0  0  0  0
  145.0390   70.9820  219.3460 C   0  0  0  0  0  0  0  0  0  0  0  0
  146.2080   70.4170  218.8900 C   0  0  0  0  0  0  0  0  0  0  0  0
  146.2890   69.0340  218.7590 C   0  0  0  0  0  0  0  0  0  0  0  0
  145.2010   68.2240  219.0850 C   0  0  0  0  0  0  0  0  0  0  0  0
  144.0500   68.8340  219.5390 C   0  0  0  0  0  0  0  0  0  0  0  0
  143.9460   70.2150  219.6780 C   0  0  0  0  0  0  0  0  0  0  0  0
  142.6640   70.7430  220.1700 C   0  0  0  0  0  0  0  0  0  0  0  0
  141.4910   74.0470  221.0920 N   0  0  0  0  0  0  0  0  0  0  0  0
  141.4270   76.9260  221.1930 C   0  0  0  0  0  0  0  0  0  0  0  0
  140.7245   81.3673  224.1697 H   0  0  0  0  0  0  0  0  0  0  0  0
  142.9344   80.8505  223.1067 H   0  0  0  0  0  0  0  0  0  0  0  0
  143.2197   78.8015  221.7475 H   0  0  0  0  0  0  0  0  0  0  0  0
  138.8420   79.7855  223.8273 H   0  0  0  0  0  0  0  0  0  0  0  0
  138.6573   76.9261  223.3725 H   0  0  0  0  0  0  0  0  0  0  0  0
  137.8570   78.1632  222.3720 H   0  0  0  0  0  0  0  0  0  0  0  0
  138.1840   75.9156  221.2157 H   0  0  0  0  0  0  0  0  0  0  0  0
  138.9148   77.2925  220.3436 H   0  0  0  0  0  0  0  0  0  0  0  0
  137.9990   72.3200  223.6410 H   0  0  0  0  0  0  0  0  0  0  0  0
  138.5923   69.8063  223.3940 H   0  0  0  0  0  0  0  0  0  0  0  0
  140.3124   70.3526  223.6677 H   0  0  0  0  0  0  0  0  0  0  0  0
  138.2307   70.9925  225.6995 H   0  0  0  0  0  0  0  0  0  0  0  0
  140.5932   71.8767  225.6481 H   0  0  0  0  0  0  0  0  0  0  0  0
  140.1329   70.9742  227.1374 H   0  0  0  0  0  0  0  0  0  0  0  0
  141.6111   69.7498  224.7604 H   0  0  0  0  0  0  0  0  0  0  0  0
  142.4158   70.3448  226.2262 H   0  0  0  0  0  0  0  0  0  0  0  0
  141.9309   67.9268  226.4547 H   0  0  0  0  0  0  0  0  0  0  0  0
  140.9061   68.8618  227.6063 H   0  0  0  0  0  0  0  0  0  0  0  0
  140.1435   67.6568  224.9499 H   0  0  0  0  0  0  0  0  0  0  0  0
  139.5290   67.2865  226.6496 H   0  0  0  0  0  0  0  0  0  0  0  0
  138.0700   68.5731  224.9812 H   0  0  0  0  0  0  0  0  0  0  0  0
  138.2450   69.0658  226.7486 H   0  0  0  0  0  0  0  0  0  0  0  0
  143.8761   73.8605  220.7771 H   0  0  0  0  0  0  0  0  0  0  0  0
  144.6593   72.4715  221.6326 H   0  0  0  0  0  0  0  0  0  0  0  0
  144.4455   72.9059  218.6090 H   0  0  0  0  0  0  0  0  0  0  0  0
  145.9333   72.9177  219.6037 H   0  0  0  0  0  0  0  0  0  0  0  0
  147.0687   71.0515  218.6320 H   0  0  0  0  0  0  0  0  0  0  0  0
  147.2200   68.5750  218.3949 H   0  0  0  0  0  0  0  0  0  0  0  0
  145.2592   67.1303  218.9830 H   0  0  0  0  0  0  0  0  0  0  0  0
  143.1845   68.2074  219.8002 H   0  0  0  0  0  0  0  0  0  0  0  0
  141.9487   70.7972  219.3361 H   0  0  0  0  0  0  0  0  0  0  0  0
  142.2760   70.0748  220.9529 H   0  0  0  0  0  0  0  0  0  0  0  0
  142.3360   76.4090  221.5343 H   0  0  0  0  0  0  0  0  0  0  0  0
  141.5754   77.1908  220.1357 H   0  0  0  0  0  0  0  0  0  0  0  0
  1  2  2  0
  2  3  1  0
  3  4  2  0
  4  5  1  0
  5  6  2  0
  5  7  1  0
  7  8  1  0
  8  9  1  0
  9 10  1  0
 10 11  2  0
 11 12  1  0
 12 13  1  0
 13 14  1  0
 14 15  1  0
 15 16  1  0
 16 17  1  0
 17 18  1  0
 18 19  1  0
 19 20  1  0
 12 21  2  0
 21 22  1  0
 22 23  1  0
 23 24  1  0
 24 25  1  0
 25 26  1  0
 26 27  2  0
 27 28  1  0
 28 29  2  0
 29 30  1  0
 30 31  2  0
 31 32  1  0
 22 33  2  0
  9 34  1  0
  6  1  1  0
 33 10  1  0
 34  4  1  0
 20 15  1  0
 32 23  1  0
 31 26  1  0
  1 35  1  0
  2 36  1  0
  3 37  1  0
  6 38  1  0
  7 39  1  0
  7 40  1  0
  8 41  1  0
  8 42  1  0
 13 43  1  0
 14 44  1  0
 14 45  1  0
 15 46  1  0
 16 47  1  0
 16 48  1  0
 17 49  1  0
 17 50  1  0
 18 51  1  0
 18 52  1  0
 19 53  1  0
 19 54  1  0
 20 55  1  0
 20 56  1  0
 24 57  1  0
 24 58  1  0
 25 59  1  0
 25 60  1  0
 27 61  1  0
 28 62  1  0
 29 63  1  0
 30 64  1  0
 32 65  1  0
 32 66  1  0
 34 67  1  0
 34 68  1  0
M  END
>  <smiles>  (3) 
c1ccc2c(c1)CCN(c1nc(NCC3CCCCC3)nc(N3CCc4ccccc4C3)n1)C2

>  <score_type>  (3) 
oracle

>  <origin>  (3) 
autodockgpu

>  <m_score__min__energy>  (3) 
-10.220000000000001

>  <m_primary>  (3) 
energy

>  <rmsd>  (3) 
5.067013977956956

>  <m_score__min__rmsd>  (3) 
5.067013977956956

>  <meeko>  (3) 
{"free_energy": -10.14, "intermolecular_energy": -11.63, "internal_energy": -1.1, "cluster_size": 20, "cluster_id": 1, "rank_in_cluster": 5}

>  <energy>  (3) 
-10.17

>  <cluster_rmsd>  (3) 
0.67

>  <cluster>  (3) 
1

$$$$

     RDKit          3D

 68 73  0  0  0  0  0  0  0  0999 V2000
  132.7800   73.8320  227.1890 C   0  0  0  0  0  0  0  0  0  0  0  0
  133.3510   74.8640  226.4460 C   0  0  0  0  0  0  0  0  0  0  0  0
  134.2060   74.5860  225.3900 C   0  0  0  0  0  0  0  0  0  0  0  0
  134.5090   73.2670  225.0510 C   0  0  0  0  0  0  0  0  0  0  0  0
  133.9480   72.2420  225.7810 C   0  0  0  0  0  0  0  0  0  0  0  0
  133.0940   72.5330  226.8370 C   0  0  0  0  0  0  0  0  0  0  0  0
  134.1990   70.8050  225.5100 C   0  0  0  0  0  0  0  0  0  0  0  0
  134.6980   70.6950  224.0890 C   0  0  0  0  0  0  0  0  0  0  0  0
  135.7800   71.6230  223.9240 N   0  0  0  0  0  0  0  0  0  0  0  0
  137.1200   71.2310  223.7840 C   0  0  0  0  0  0  0  0  0  0  0  0
  137.6380   70.1020  224.3050 N   0  0  0  0  0  0  0  0  0  0  0  0
  138.9320   69.7550  224.1480 C   0  0  0  0  0  0  0  0  0  0  0  0
  139.4800   68.5630  224.7010 N   0  0  0  0  0  0  0  0  0  0  0  0
  139.4660   68.2560  226.1120 C   0  0  0  0  0  0  0  0  0  0  0  0
  140.7270   68.6360  226.8110 C   0  0  0  0  0  0  0  0  0  0  0  0
  140.4110   68.9630  228.2520 C   0  0  0  0  0  0  0  0  0  0  0  0
  139.6710   70.2750  228.3340 C   0  0  0  0  0  0  0  0  0  0  0  0
  140.6400   71.3470  227.8660 C   0  0  0  0  0  0  0  0  0  0  0  0
  141.0230   71.1150  226.4450 C   0  0  0  0  0  0  0  0  0  0  0  0
  141.4600   69.7300  226.1080 C   0  0  0  0  0  0  0  0  0  0  0  0
  139.7740   70.5450  223.4490 N   0  0  0  0  0  0  0  0  0  0  0  0
  139.2790   71.6790  222.9190 C   0  0  0  0  0  0  0  0  0  0  0  0
  140.1650   72.5370  222.1680 N   0  0  0  0  0  0  0  0  0  0  0  0
  139.7380   73.8930  221.9820 C   0  0  0  0  0  0  0  0  0  0  0  0
  140.1940   74.4370  220.6210 C   0  0  0  0  0  0  0  0  0  0  0  0
  141.6710   74.1820  220.4730 C   0  0  0  0  0  0  0  0  0  0  0  0
  142.4710   75.1070  219.8430 C   0  0  0  0  0  0  0  0  0  0  0  0
  143.8340   74.8550  219.7180 C   0  0  0  0  0  0  0  0  0  0  0  0
  144.3880   73.6790  220.2240 C   0  0  0  0  0  0  0  0  0  0  0  0
  143.5480   72.7800  220.8470 C   0  0  0  0  0  0  0  0  0  0  0  0
  142.1820   73.0110  220.9840 C   0  0  0  0  0  0  0  0  0  0  0  0
  141.3940   71.9740  221.6680 C   0  0  0  0  0  0  0  0  0  0  0  0
  137.9710   72.0120  223.0870 N   0  0  0  0  0  0  0  0  0  0  0  0
  135.4320   73.0470  223.9060 C   0  0  0  0  0  0  0  0  0  0  0  0
  132.1015   74.0447  228.0283 H   0  0  0  0  0  0  0  0  0  0  0  0
  133.1211   75.9093  226.6998 H   0  0  0  0  0  0  0  0  0  0  0  0
  134.6490   75.4124  224.8149 H   0  0  0  0  0  0  0  0  0  0  0  0
  132.6540   71.7040  227.4108 H   0  0  0  0  0  0  0  0  0  0  0  0
  134.9576   70.4178  226.2061 H   0  0  0  0  0  0  0  0  0  0  0  0
  133.2791   70.2173  225.6457 H   0  0  0  0  0  0  0  0  0  0  0  0
  135.0518   69.6715  223.8961 H   0  0  0  0  0  0  0  0  0  0  0  0
  133.8876   70.9244  223.3814 H   0  0  0  0  0  0  0  0  0  0  0  0
  139.9090   67.9000  223.9880 H   0  0  0  0  0  0  0  0  0  0  0  0
  138.6308   68.7985  226.5790 H   0  0  0  0  0  0  0  0  0  0  0  0
  139.3568   67.1656  226.2070 H   0  0  0  0  0  0  0  0  0  0  0  0
  141.4203   67.7821  226.7939 H   0  0  0  0  0  0  0  0  0  0  0  0
  139.7852   68.1648  228.6777 H   0  0  0  0  0  0  0  0  0  0  0  0
  141.3507   69.0429  228.8182 H   0  0  0  0  0  0  0  0  0  0  0  0
  138.7851   70.2529  227.6823 H   0  0  0  0  0  0  0  0  0  0  0  0
  139.3242   70.4725  229.3590 H   0  0  0  0  0  0  0  0  0  0  0  0
  140.1610   72.3331  227.9561 H   0  0  0  0  0  0  0  0  0  0  0  0
  141.5446   71.3082  228.4907 H   0  0  0  0  0  0  0  0  0  0  0  0
  140.1525   71.3562  225.8173 H   0  0  0  0  0  0  0  0  0  0  0  0
  141.8978   71.7566  226.2631 H   0  0  0  0  0  0  0  0  0  0  0  0
  141.3265   69.5864  225.0256 H   0  0  0  0  0  0  0  0  0  0  0  0
  142.5061   69.6543  226.4395 H   0  0  0  0  0  0  0  0  0  0  0  0
  138.6401   73.9339  222.0351 H   0  0  0  0  0  0  0  0  0  0  0  0
  140.1880   74.5114  222.7727 H   0  0  0  0  0  0  0  0  0  0  0  0
  139.6469   73.9257  219.8152 H   0  0  0  0  0  0  0  0  0  0  0  0
  139.9906   75.5163  220.5600 H   0  0  0  0  0  0  0  0  0  0  0  0
  142.0381   76.0356  219.4425 H   0  0  0  0  0  0  0  0  0  0  0  0
  144.4803   75.5898  219.2157 H   0  0  0  0  0  0  0  0  0  0  0  0
  145.4646   73.4745  220.1288 H   0  0  0  0  0  0  0  0  0  0  0  0
  143.9720   71.8482  221.2496 H   0  0  0  0  0  0  0  0  0  0  0  0
  141.1622   71.1658  220.9587 H   0  0  0  0  0  0  0  0  0  0  0  0
  141.9773   71.5753  222.5111 H   0  0  0  0  0  0  0  0  0  0  0  0
  136.3369   73.6615  224.0230 H   0  0  0  0  0  0  0  0  0  0  0  0
  134.9611   73.3309  222.9533 H   0  0  0  0  0  0  0  0  0  0  0  0
  1  2  2  0
  2  3  1  0
  3  4  2  0
  4  5  1  0
  5  6  2  0
  5  7  1  0
  7  8  1  0
  8  9  1  0
  9 10  1  0
 10 11  2  0
 11 12  1  0
 12 13  1  0
 13 14  1  0
 14 15  1  0
 15 16  1  0
 16 17  1  0
 17 18  1  0
 18 19  1  0
 19 20  1  0
 12 21  2  0
 21 22  1  0
 22 23  1  0
 23 24  1  0
 24 25  1  0
 25 26  1  0
 26 27  2  0
 27 28  1  0
 28 29  2  0
 29 30  1  0
 30 31  2  0
 31 32  1  0
 22 33  2  0
  9 34  1  0
  6  1  1  0
 33 10  1  0
 34  4  1  0
 20 15  1  0
 32 23  1  0
 31 26  1  0
  1 35  1  0
  2 36  1  0
  3 37  1  0
  6 38  1  0
  7 39  1  0
  7 40  1  0
  8 41  1  0
  8 42  1  0
 13 43  1  0
 14 44  1  0
 14 45  1  0
 15 46  1  0
 16 47  1  0
 16 48  1  0
 17 49  1  0
 17 50  1  0
 18 51  1  0
 18 52  1  0
 19 53  1  0
 19 54  1  0
 20 55  1  0
 20 56  1  0
 24 57  1  0
 24 58  1  0
 25 59  1  0
 25 60  1  0
 27 61  1  0
 28 62  1  0
 29 63  1  0
 30 64  1  0
 32 65  1  0
 32 66  1  0
 34 67  1  0
 34 68  1  0
M  END
>  <smiles>  (4) 
c1ccc2c(c1)CCN(c1nc(NCC3CCCCC3)nc(N3CCc4ccccc4C3)n1)C2

>  <score_type>  (4) 
oracle

>  <origin>  (4) 
autodockgpu

>  <m_score__min__energy>  (4) 
-10.220000000000001

>  <m_primary>  (4) 
energy

>  <rmsd>  (4) 
10.801359575751615

>  <m_score__min__rmsd>  (4) 
10.801359575751615

>  <meeko>  (4) 
{"free_energy": -9.31, "intermolecular_energy": -10.8, "internal_energy": -1.5, "cluster_size": 4, "cluster_id": 4, "rank_in_cluster": 2}

>  <energy>  (4) 
-10.14

>  <cluster_rmsd>  (4) 
0.66

>  <cluster>  (4) 
1

$$$$

     RDKit          3D

 68 73  0  0  0  0  0  0  0  0999 V2000
  142.0030   80.1360  220.6460 C   0  0  0  0  0  0  0  0  0  0  0  0
  141.8130   79.6490  219.3540 C   0  0  0  0  0  0  0  0  0  0  0  0
  141.2580   78.3960  219.1440 C   0  0  0  0  0  0  0  0  0  0  0  0
  140.8770   77.5990  220.2250 C   0  0  0  0  0  0  0  0  0  0  0  0
  141.0620   78.0730  221.5050 C   0  0  0  0  0  0  0  0  0  0  0  0
  141.6200   79.3300  221.7010 C   0  0  0  0  0  0  0  0  0  0  0  0
  140.6950   77.3130  222.7250 C   0  0  0  0  0  0  0  0  0  0  0  0
  139.6860   76.2660  222.3180 C   0  0  0  0  0  0  0  0  0  0  0  0
  140.2180   75.5470  221.1970 N   0  0  0  0  0  0  0  0  0  0  0  0
  140.6640   74.2180  221.2720 C   0  0  0  0  0  0  0  0  0  0  0  0
  141.4300   73.6210  220.3400 N   0  0  0  0  0  0  0  0  0  0  0  0
  141.8430   72.3420  220.4470 C   0  0  0  0  0  0  0  0  0  0  0  0
  142.6510   71.7100  219.4590 N   0  0  0  0  0  0  0  0  0  0  0  0
  144.0550   71.4210  219.6390 C   0  0  0  0  0  0  0  0  0  0  0  0
  144.9500   72.4720  219.0770 C   0  0  0  0  0  0  0  0  0  0  0  0
  145.5400   73.2740  220.2130 C   0  0  0  0  0  0  0  0  0  0  0  0
  144.4790   74.1510  220.8330 C   0  0  0  0  0  0  0  0  0  0  0  0
  144.0800   75.1620  219.7710 C   0  0  0  0  0  0  0  0  0  0  0  0
  143.4850   74.4700  218.5940 C   0  0  0  0  0  0  0  0  0  0  0  0
  144.2640   73.3180  218.0550 C   0  0  0  0  0  0  0  0  0  0  0  0
  141.4950   71.5960  221.5160 N   0  0  0  0  0  0  0  0  0  0  0  0
  140.7280   72.1710  222.4620 C   0  0  0  0  0  0  0  0  0  0  0  0
  140.3450   71.3890  223.6130 N   0  0  0  0  0  0  0  0  0  0  0  0
  139.6120   70.1840  223.3540 C   0  0  0  0  0  0  0  0  0  0  0  0
  138.5930   69.9030  224.4670 C   0  0  0  0  0  0  0  0  0  0  0  0
  139.3020   69.9730  225.7940 C   0  0  0  0  0  0  0  0  0  0  0  0
  138.9540   69.1110  226.8080 C   0  0  0  0  0  0  0  0  0  0  0  0
  139.6220   69.1900  228.0270 C   0  0  0  0  0  0  0  0  0  0  0  0
  140.6330   70.1310  228.2230 C   0  0  0  0  0  0  0  0  0  0  0  0
  140.9470   70.9750  227.1790 C   0  0  0  0  0  0  0  0  0  0  0  0
  140.2930   70.9140  225.9520 C   0  0  0  0  0  0  0  0  0  0  0  0
  140.7200   71.8700  224.9180 C   0  0  0  0  0  0  0  0  0  0  0  0
  140.3220   73.4630  222.3370 N   0  0  0  0  0  0  0  0  0  0  0  0
  140.2880   76.2680  219.9220 C   0  0  0  0  0  0  0  0  0  0  0  0
  142.4432   81.1289  220.8200 H   0  0  0  0  0  0  0  0  0  0  0  0
  142.1066   80.2655  218.4916 H   0  0  0  0  0  0  0  0  0  0  0  0
  141.1167   78.0269  218.1174 H   0  0  0  0  0  0  0  0  0  0  0  0
  141.7615   79.6954  222.7289 H   0  0  0  0  0  0  0  0  0  0  0  0
  141.5874   76.8301  223.1499 H   0  0  0  0  0  0  0  0  0  0  0  0
  140.2729   77.9835  223.4881 H   0  0  0  0  0  0  0  0  0  0  0  0
  139.5084   75.5741  223.1545 H   0  0  0  0  0  0  0  0  0  0  0  0
  138.7314   76.7412  222.0479 H   0  0  0  0  0  0  0  0  0  0  0  0
  142.1390   71.4600  218.5610 H   0  0  0  0  0  0  0  0  0  0  0  0
  144.2573   71.3297  220.7164 H   0  0  0  0  0  0  0  0  0  0  0  0
  144.2677   70.4879  219.0968 H   0  0  0  0  0  0  0  0  0  0  0  0
  145.7732   71.9895  218.5297 H   0  0  0  0  0  0  0  0  0  0  0  0
  145.9364   72.5877  220.9757 H   0  0  0  0  0  0  0  0  0  0  0  0
  146.3501   73.9083  219.8239 H   0  0  0  0  0  0  0  0  0  0  0  0
  143.6092   73.5451  221.1267 H   0  0  0  0  0  0  0  0  0  0  0  0
  144.8553   74.6516  221.7373 H   0  0  0  0  0  0  0  0  0  0  0  0
  143.3413   75.8591  220.1934 H   0  0  0  0  0  0  0  0  0  0  0  0
  144.9759   75.7118  219.4468 H   0  0  0  0  0  0  0  0  0  0  0  0
  142.4923   74.0980  218.8877 H   0  0  0  0  0  0  0  0  0  0  0  0
  143.4626   75.2182  217.7880 H   0  0  0  0  0  0  0  0  0  0  0  0
  143.5720   72.6748  217.4916 H   0  0  0  0  0  0  0  0  0  0  0  0
  145.0634   73.7555  217.4389 H   0  0  0  0  0  0  0  0  0  0  0  0
  139.0789   70.2871  222.3974 H   0  0  0  0  0  0  0  0  0  0  0  0
  140.3233   69.3459  223.3138 H   0  0  0  0  0  0  0  0  0  0  0  0
  137.7914   70.6556  224.4346 H   0  0  0  0  0  0  0  0  0  0  0  0
  138.1500   68.9057  224.3289 H   0  0  0  0  0  0  0  0  0  0  0  0
  138.1571   68.3678  226.6575 H   0  0  0  0  0  0  0  0  0  0  0  0
  139.3501   68.5042  228.8429 H   0  0  0  0  0  0  0  0  0  0  0  0
  141.1648   70.1978  229.1836 H   0  0  0  0  0  0  0  0  0  0  0  0
  141.7417   71.7222  227.3207 H   0  0  0  0  0  0  0  0  0  0  0  0
  140.2378   72.8418  225.0998 H   0  0  0  0  0  0  0  0  0  0  0  0
  141.8136   71.9807  224.9600 H   0  0  0  0  0  0  0  0  0  0  0  0
  140.9258   75.7226  219.2109 H   0  0  0  0  0  0  0  0  0  0  0  0
  139.2926   76.3669  219.4643 H   0  0  0  0  0  0  0  0  0  0  0  0
  1  2  2  0
  2  3  1  0
  3  4  2  0
  4  5  1  0
  5  6  2  0
  5  7  1  0
  7  8  1  0
  8  9  1  0
  9 10  1  0
 10 11  2  0
 11 12  1  0
 12 13  1  0
 13 14  1  0
 14 15  1  0
 15 16  1  0
 16 17  1  0
 17 18  1  0
 18 19  1  0
 19 20  1  0
 12 21  2  0
 21 22  1  0
 22 23  1  0
 23 24  1  0
 24 25  1  0
 25 26  1  0
 26 27  2  0
 27 28  1  0
 28 29  2  0
 29 30  1  0
 30 31  2  0
 31 32  1  0
 22 33  2  0
  9 34  1  0
  6  1  1  0
 33 10  1  0
 34  4  1  0
 20 15  1  0
 32 23  1  0
 31 26  1  0
  1 35  1  0
  2 36  1  0
  3 37  1  0
  6 38  1  0
  7 39  1  0
  7 40  1  0
  8 41  1  0
  8 42  1  0
 13 43  1  0
 14 44  1  0
 14 45  1  0
 15 46  1  0
 16 47  1  0
 16 48  1  0
 17 49  1  0
 17 50  1  0
 18 51  1  0
 18 52  1  0
 19 53  1  0
 19 54  1  0
 20 55  1  0
 20 56  1  0
 24 57  1  0
 24 58  1  0
 25 59  1  0
 25 60  1  0
 27 61  1  0
 28 62  1  0
 29 63  1  0
 30 64  1  0
 32 65  1  0
 32 66  1  0
 34 67  1  0
 34 68  1  0
M  END
>  <smiles>  (5) 
c1ccc2c(c1)CCN(c1nc(NCC3CCCCC3)nc(N3CCc4ccccc4C3)n1)C2

>  <score_type>  (5) 
oracle

>  <origin>  (5) 
autodockgpu

>  <m_score__min__energy>  (5) 
-10.220000000000001

>  <m_primary>  (5) 
energy

>  <rmsd>  (5) 
4.521506352729576

>  <m_score__min__rmsd>  (5) 
4.521506352729576

>  <meeko>  (5) 
{"free_energy": -8.96, "intermolecular_energy": -10.45, "internal_energy": -1.71, "cluster_size": 23, "cluster_id": 2, "rank_in_cluster": 23}

>  <energy>  (5) 
-10.14

>  <cluster_rmsd>  (5) 
0.67

>  <cluster>  (5) 
1

$$$$

     RDKit          3D

 68 73  0  0  0  0  0  0  0  0999 V2000
  139.9980   67.7760  226.3550 C   0  0  0  0  0  0  0  0  0  0  0  0
  140.7700   68.7470  226.9900 C   0  0  0  0  0  0  0  0  0  0  0  0
  140.8540   70.0320  226.4770 C   0  0  0  0  0  0  0  0  0  0  0  0
  140.1650   70.3770  225.3130 C   0  0  0  0  0  0  0  0  0  0  0  0
  139.4000   69.4230  224.6800 C   0  0  0  0  0  0  0  0  0  0  0  0
  139.3240   68.1390  225.2040 C   0  0  0  0  0  0  0  0  0  0  0  0
  138.6270   69.6790  223.4390 C   0  0  0  0  0  0  0  0  0  0  0  0
  138.4280   71.1710  223.3310 C   0  0  0  0  0  0  0  0  0  0  0  0
  139.7070   71.8030  223.4830 N   0  0  0  0  0  0  0  0  0  0  0  0
  140.3920   72.4270  222.4290 C   0  0  0  0  0  0  0  0  0  0  0  0
  141.0610   71.7690  221.4640 N   0  0  0  0  0  0  0  0  0  0  0  0
  141.7050   72.4020  220.4630 C   0  0  0  0  0  0  0  0  0  0  0  0
  142.4150   71.7060  219.4440 N   0  0  0  0  0  0  0  0  0  0  0  0
  143.7420   71.1630  219.6220 C   0  0  0  0  0  0  0  0  0  0  0  0
  144.8120   72.0120  219.0250 C   0  0  0  0  0  0  0  0  0  0  0  0
  145.9220   72.1850  220.0350 C   0  0  0  0  0  0  0  0  0  0  0  0
  145.4700   73.0950  221.1500 C   0  0  0  0  0  0  0  0  0  0  0  0
  145.2530   74.4650  220.5300 C   0  0  0  0  0  0  0  0  0  0  0  0
  144.1710   74.4050  219.5080 C   0  0  0  0  0  0  0  0  0  0  0  0
  144.2850   73.3090  218.5040 C   0  0  0  0  0  0  0  0  0  0  0  0
  141.7040   73.7500  220.3900 N   0  0  0  0  0  0  0  0  0  0  0  0
  141.0410   74.4310  221.3450 C   0  0  0  0  0  0  0  0  0  0  0  0
  141.0290   75.8730  221.2850 N   0  0  0  0  0  0  0  0  0  0  0  0
  141.0270   76.4600  219.9770 C   0  0  0  0  0  0  0  0  0  0  0  0
  141.8140   77.7770  219.9580 C   0  0  0  0  0  0  0  0  0  0  0  0
  141.3110   78.6520  221.0770 C   0  0  0  0  0  0  0  0  0  0  0  0
  141.2200   80.0130  220.9000 C   0  0  0  0  0  0  0  0  0  0  0  0
  140.7500   80.8050  221.9440 C   0  0  0  0  0  0  0  0  0  0  0  0
  140.3760   80.2300  223.1580 C   0  0  0  0  0  0  0  0  0  0  0  0
  140.4840   78.8620  223.2900 C   0  0  0  0  0  0  0  0  0  0  0  0
  140.9500   78.0500  222.2600 C   0  0  0  0  0  0  0  0  0  0  0  0
  141.0200   76.6050  222.5260 C   0  0  0  0  0  0  0  0  0  0  0  0
  140.3970   73.7740  222.3460 N   0  0  0  0  0  0  0  0  0  0  0  0
  140.3020   71.7750  224.8230 C   0  0  0  0  0  0  0  0  0  0  0  0
  139.9273   66.7543  226.7565 H   0  0  0  0  0  0  0  0  0  0  0  0
  141.3187   68.4909  227.9084 H   0  0  0  0  0  0  0  0  0  0  0  0
  141.4684   70.7858  226.9912 H   0  0  0  0  0  0  0  0  0  0  0  0
  138.7086   67.3879  224.6872 H   0  0  0  0  0  0  0  0  0  0  0  0
  139.1848   69.3099  222.5657 H   0  0  0  0  0  0  0  0  0  0  0  0
  137.6581   69.1592  223.4708 H   0  0  0  0  0  0  0  0  0  0  0  0
  138.0034   71.4204  222.3474 H   0  0  0  0  0  0  0  0  0  0  0  0
  137.7349   71.5206  224.1104 H   0  0  0  0  0  0  0  0  0  0  0  0
  141.8900   71.6100  218.5240 H   0  0  0  0  0  0  0  0  0  0  0  0
  143.9365   71.0630  220.7000 H   0  0  0  0  0  0  0  0  0  0  0  0
  143.7691   70.1930  219.1040 H   0  0  0  0  0  0  0  0  0  0  0  0
  145.2244   71.5045  218.1405 H   0  0  0  0  0  0  0  0  0  0  0  0
  146.1904   71.2034  220.4525 H   0  0  0  0  0  0  0  0  0  0  0  0
  146.7957   72.6312  219.5374 H   0  0  0  0  0  0  0  0  0  0  0  0
  144.5315   72.7230  221.5869 H   0  0  0  0  0  0  0  0  0  0  0  0
  146.2179   73.1377  221.9555 H   0  0  0  0  0  0  0  0  0  0  0  0
  144.9691   75.1787  221.3174 H   0  0  0  0  0  0  0  0  0  0  0  0
  146.1854   74.7898  220.0450 H   0  0  0  0  0  0  0  0  0  0  0  0
  143.2145   74.2800  220.0366 H   0  0  0  0  0  0  0  0  0  0  0  0
  144.2483   75.3418  218.9367 H   0  0  0  0  0  0  0  0  0  0  0  0
  143.2835   73.1252  218.0877 H   0  0  0  0  0  0  0  0  0  0  0  0
  145.0175   73.6557  217.7602 H   0  0  0  0  0  0  0  0  0  0  0  0
  141.4875   75.7567  219.2675 H   0  0  0  0  0  0  0  0  0  0  0  0
  139.9859   76.6725  219.6925 H   0  0  0  0  0  0  0  0  0  0  0  0
  142.8850   77.5711  220.1010 H   0  0  0  0  0  0  0  0  0  0  0  0
  141.6754   78.2845  218.9919 H   0  0  0  0  0  0  0  0  0  0  0  0
  141.5153   80.4705  219.9442 H   0  0  0  0  0  0  0  0  0  0  0  0
  140.6730   81.8941  221.8100 H   0  0  0  0  0  0  0  0  0  0  0  0
  140.0052   80.8505  223.9871 H   0  0  0  0  0  0  0  0  0  0  0  0
  140.1917   78.3959  224.2425 H   0  0  0  0  0  0  0  0  0  0  0  0
  141.9400   76.3824  223.0864 H   0  0  0  0  0  0  0  0  0  0  0  0
  140.1410   76.3043  223.1150 H   0  0  0  0  0  0  0  0  0  0  0  0
  141.3636   72.0589  224.7741 H   0  0  0  0  0  0  0  0  0  0  0  0
  139.8011   72.4853  225.4972 H   0  0  0  0  0  0  0  0  0  0  0  0
  1  2  2  0
  2  3  1  0
  3  4  2  0
  4  5  1  0
  5  6  2  0
  5  7  1  0
  7  8  1  0
  8  9  1  0
  9 10  1  0
 10 11  2  0
 11 12  1  0
 12 13  1  0
 13 14  1  0
 14 15  1  0
 15 16  1  0
 16 17  1  0
 17 18  1  0
 18 19  1  0
 19 20  1  0
 12 21  2  0
 21 22  1  0
 22 23  1  0
 23 24  1  0
 24 25  1  0
 25 26  1  0
 26 27  2  0
 27 28  1  0
 28 29  2  0
 29 30  1  0
 30 31  2  0
 31 32  1  0
 22 33  2  0
  9 34  1  0
  6  1  1  0
 33 10  1  0
 34  4  1  0
 20 15  1  0
 32 23  1  0
 31 26  1  0
  1 35  1  0
  2 36  1  0
  3 37  1  0
  6 38  1  0
  7 39  1  0
  7 40  1  0
  8 41  1  0
  8 42  1  0
 13 43  1  0
 14 44  1  0
 14 45  1  0
 15 46  1  0
 16 47  1  0
 16 48  1  0
 17 49  1  0
 17 50  1  0
 18 51  1  0
 18 52  1  0
 19 53  1  0
 19 54  1  0
 20 55  1  0
 20 56  1  0
 24 57  1  0
 24 58  1  0
 25 59  1  0
 25 60  1  0
 27 61  1  0
 28 62  1  0
 29 63  1  0
 30 64  1  0
 32 65  1  0
 32 66  1  0
 34 67  1  0
 34 68  1  0
M  END
>  <smiles>  (6) 
c1ccc2c(c1)CCN(c1nc(NCC3CCCCC3)nc(N3CCc4ccccc4C3)n1)C2

>  <score_type>  (6) 
oracle

>  <origin>  (6) 
autodockgpu

>  <m_score__min__energy>  (6) 
-10.220000000000001

>  <m_primary>  (6) 
energy

>  <rmsd>  (6) 
10.838379725517784

>  <m_score__min__rmsd>  (6) 
10.838379725517784

>  <meeko>  (6) 
{"free_energy": -9.49, "intermolecular_energy": -10.98, "internal_energy": -1.39, "cluster_size": 23, "cluster_id": 2, "rank_in_cluster": 16}

>  <energy>  (6) 
-10.02

>  <cluster_rmsd>  (6) 
0.63

>  <cluster>  (6) 
1

$$$$

     RDKit          3D

 68 73  0  0  0  0  0  0  0  0999 V2000
  140.6370   79.8630  223.4860 C   0  0  0  0  0  0  0  0  0  0  0  0
  141.6810   79.8040  222.5640 C   0  0  0  0  0  0  0  0  0  0  0  0
  141.7920   78.7350  221.6880 C   0  0  0  0  0  0  0  0  0  0  0  0
  140.8590   77.6970  221.7140 C   0  0  0  0  0  0  0  0  0  0  0  0
  139.8250   77.7490  222.6220 C   0  0  0  0  0  0  0  0  0  0  0  0
  139.7250   78.8250  223.4940 C   0  0  0  0  0  0  0  0  0  0  0  0
  138.7780   76.7030  222.7370 C   0  0  0  0  0  0  0  0  0  0  0  0
  138.7630   75.9360  221.4370 C   0  0  0  0  0  0  0  0  0  0  0  0
  140.1070   75.5300  221.1430 N   0  0  0  0  0  0  0  0  0  0  0  0
  140.5480   74.1990  221.2230 C   0  0  0  0  0  0  0  0  0  0  0  0
  141.2810   73.5860  220.2750 N   0  0  0  0  0  0  0  0  0  0  0  0
  141.6900   72.3050  220.3870 C   0  0  0  0  0  0  0  0  0  0  0  0
  142.4630   71.6560  219.3830 N   0  0  0  0  0  0  0  0  0  0  0  0
  143.8260   71.2200  219.5800 C   0  0  0  0  0  0  0  0  0  0  0  0
  144.8360   72.1890  219.0680 C   0  0  0  0  0  0  0  0  0  0  0  0
  145.9510   72.3170  220.0780 C   0  0  0  0  0  0  0  0  0  0  0  0
  145.4680   73.0730  221.2910 C   0  0  0  0  0  0  0  0  0  0  0  0
  145.1630   74.4860  220.8260 C   0  0  0  0  0  0  0  0  0  0  0  0
  144.0680   74.4750  219.8160 C   0  0  0  0  0  0  0  0  0  0  0  0
  144.2270   73.5020  218.6970 C   0  0  0  0  0  0  0  0  0  0  0  0
  141.3710   71.5760  221.4760 N   0  0  0  0  0  0  0  0  0  0  0  0
  140.6380   72.1690  222.4380 C   0  0  0  0  0  0  0  0  0  0  0  0
  140.2860   71.4040  223.6110 N   0  0  0  0  0  0  0  0  0  0  0  0
  139.5280   70.2070  223.3930 C   0  0  0  0  0  0  0  0  0  0  0  0
  138.5470   69.9530  224.5450 C   0  0  0  0  0  0  0  0  0  0  0  0
  139.3050   70.0270  225.8450 C   0  0  0  0  0  0  0  0  0  0  0  0
  138.9840   69.1810  226.8800 C   0  0  0  0  0  0  0  0  0  0  0  0
  139.6970   69.2620  228.0730 C   0  0  0  0  0  0  0  0  0  0  0  0
  140.7280   70.1910  228.2210 C   0  0  0  0  0  0  0  0  0  0  0  0
  141.0150   71.0190  227.1570 C   0  0  0  0  0  0  0  0  0  0  0  0
  140.3150   70.9550  225.9550 C   0  0  0  0  0  0  0  0  0  0  0  0
  140.7170   71.8940  224.8960 C   0  0  0  0  0  0  0  0  0  0  0  0
  140.2350   73.4610  222.3080 N   0  0  0  0  0  0  0  0  0  0  0  0
  141.0430   76.5850  220.7440 C   0  0  0  0  0  0  0  0  0  0  0  0
  140.5424   80.7079  224.1840 H   0  0  0  0  0  0  0  0  0  0  0  0
  142.4245   80.6140  222.5311 H   0  0  0  0  0  0  0  0  0  0  0  0
  142.6220   78.7046  220.9667 H   0  0  0  0  0  0  0  0  0  0  0  0
  138.8936   78.8519  224.2138 H   0  0  0  0  0  0  0  0  0  0  0  0
  139.0133   76.0253  223.5709 H   0  0  0  0  0  0  0  0  0  0  0  0
  137.7951   77.1565  222.9322 H   0  0  0  0  0  0  0  0  0  0  0  0
  138.1188   75.0497  221.5345 H   0  0  0  0  0  0  0  0  0  0  0  0
  138.3700   76.5676  220.6266 H   0  0  0  0  0  0  0  0  0  0  0  0
  141.9570   71.5100  218.4590 H   0  0  0  0  0  0  0  0  0  0  0  0
  143.9944   71.0773  220.6576 H   0  0  0  0  0  0  0  0  0  0  0  0
  143.9541   70.2864  219.0126 H   0  0  0  0  0  0  0  0  0  0  0  0
  145.2619   71.8042  218.1296 H   0  0  0  0  0  0  0  0  0  0  0  0
  146.2825   71.3135  220.3830 H   0  0  0  0  0  0  0  0  0  0  0  0
  146.7884   72.8655  219.6220 H   0  0  0  0  0  0  0  0  0  0  0  0
  144.5600   72.6019  221.6956 H   0  0  0  0  0  0  0  0  0  0  0  0
  146.2261   73.0717  222.0881 H   0  0  0  0  0  0  0  0  0  0  0  0
  144.8535   75.0930  221.6896 H   0  0  0  0  0  0  0  0  0  0  0  0
  146.0669   74.9140  220.3679 H   0  0  0  0  0  0  0  0  0  0  0  0
  143.1294   74.2382  220.3384 H   0  0  0  0  0  0  0  0  0  0  0  0
  144.0815   75.4713  219.3498 H   0  0  0  0  0  0  0  0  0  0  0  0
  143.2306   73.3060  218.2741 H   0  0  0  0  0  0  0  0  0  0  0  0
  144.9257   73.9693  217.9875 H   0  0  0  0  0  0  0  0  0  0  0  0
  138.9618   70.3068  222.4552 H   0  0  0  0  0  0  0  0  0  0  0  0
  140.2259   69.3586  223.3368 H   0  0  0  0  0  0  0  0  0  0  0  0
  137.7555   70.7168  224.5332 H   0  0  0  0  0  0  0  0  0  0  0  0
  138.0853   68.9607  224.4344 H   0  0  0  0  0  0  0  0  0  0  0  0
  138.1721   68.4476  226.7667 H   0  0  0  0  0  0  0  0  0  0  0  0
  139.4458   68.5884  228.9056 H   0  0  0  0  0  0  0  0  0  0  0  0
  141.2957   70.2605  229.1606 H   0  0  0  0  0  0  0  0  0  0  0  0
  141.8251   71.7558  227.2611 H   0  0  0  0  0  0  0  0  0  0  0  0
  140.2560   72.8747  225.0849 H   0  0  0  0  0  0  0  0  0  0  0  0
  141.8128   71.9898  224.8961 H   0  0  0  0  0  0  0  0  0  0  0  0
  142.0770   76.2118  220.7845 H   0  0  0  0  0  0  0  0  0  0  0  0
  140.8526   76.9187  219.7133 H   0  0  0  0  0  0  0  0  0  0  0  0
  1  2  2  0
  2  3  1  0
  3  4  2  0
  4  5  1  0
  5  6  2  0
  5  7  1  0
  7  8  1  0
  8  9  1  0
  9 10  1  0
 10 11  2  0
 11 12  1  0
 12 13  1  0
 13 14  1  0
 14 15  1  0
 15 16  1  0
 16 17  1  0
 17 18  1  0
 18 19  1  0
 19 20  1  0
 12 21  2  0
 21 22  1  0
 22 23  1  0
 23 24  1  0
 24 25  1  0
 25 26  1  0
 26 27  2  0
 27 28  1  0
 28 29  2  0
 29 30  1  0
 30 31  2  0
 31 32  1  0
 22 33  2  0
  9 34  1  0
  6  1  1  0
 33 10  1  0
 34  4  1  0
 20 15  1  0
 32 23  1  0
 31 26  1  0
  1 35  1  0
  2 36  1  0
  3 37  1  0
  6 38  1  0
  7 39  1  0
  7 40  1  0
  8 41  1  0
  8 42  1  0
 13 43  1  0
 14 44  1  0
 14 45  1  0
 15 46  1  0
 16 47  1  0
 16 48  1  0
 17 49  1  0
 17 50  1  0
 18 51  1  0
 18 52  1  0
 19 53  1  0
 19 54  1  0
 20 55  1  0
 20 56  1  0
 24 57  1  0
 24 58  1  0
 25 59  1  0
 25 60  1  0
 27 61  1  0
 28 62  1  0
 29 63  1  0
 30 64  1  0
 32 65  1  0
 32 66  1  0
 34 67  1  0
 34 68  1  0
M  END
>  <smiles>  (7) 
c1ccc2c(c1)CCN(c1nc(NCC3CCCCC3)nc(N3CCc4ccccc4C3)n1)C2

>  <score_type>  (7) 
oracle

>  <origin>  (7) 
autodockgpu

>  <m_score__min__energy>  (7) 
-10.220000000000001

>  <m_primary>  (7) 
energy

>  <rmsd>  (7) 
4.938711932987192

>  <m_score__min__rmsd>  (7) 
4.938711932987192

>  <meeko>  (7) 
{"free_energy": -9.76, "intermolecular_energy": -11.25, "internal_energy": -1.55, "cluster_size": 23, "cluster_id": 2, "rank_in_cluster": 8}

>  <energy>  (7) 
-10.01

>  <cluster_rmsd>  (7) 
0.51

>  <cluster>  (7) 
1

$$$$

     RDKit          3D

 68 73  0  0  0  0  0  0  0  0999 V2000
  140.9140   80.4530  223.5170 C   0  0  0  0  0  0  0  0  0  0  0  0
  142.1200   80.1610  222.8830 C   0  0  0  0  0  0  0  0  0  0  0  0
  142.2570   79.0140  222.1160 C   0  0  0  0  0  0  0  0  0  0  0  0
  141.1880   78.1300  221.9650 C   0  0  0  0  0  0  0  0  0  0  0  0
  139.9930   78.4120  222.5890 C   0  0  0  0  0  0  0  0  0  0  0  0
  139.8690   79.5640  223.3550 C   0  0  0  0  0  0  0  0  0  0  0  0
  138.7920   77.5440  222.4990 C   0  0  0  0  0  0  0  0  0  0  0  0
  138.9550   76.6760  221.2750 C   0  0  0  0  0  0  0  0  0  0  0  0
  140.2470   76.0540  221.3390 N   0  0  0  0  0  0  0  0  0  0  0  0
  140.4340   74.6860  221.5910 C   0  0  0  0  0  0  0  0  0  0  0  0
  139.6110   73.9340  222.3470 N   0  0  0  0  0  0  0  0  0  0  0  0
  139.8210   72.6200  222.5660 C   0  0  0  0  0  0  0  0  0  0  0  0
  138.9520   71.8270  223.3670 N   0  0  0  0  0  0  0  0  0  0  0  0
  139.2890   70.5070  223.8480 C   0  0  0  0  0  0  0  0  0  0  0  0
  139.1570   70.3650  225.3260 C   0  0  0  0  0  0  0  0  0  0  0  0
  140.4090   70.8940  225.9840 C   0  0  0  0  0  0  0  0  0  0  0  0
  141.5600   69.9490  225.7420 C   0  0  0  0  0  0  0  0  0  0  0  0
  141.2210   68.6590  226.4680 C   0  0  0  0  0  0  0  0  0  0  0  0
  139.9880   68.0500  225.8930 C   0  0  0  0  0  0  0  0  0  0  0  0
  138.8230   68.9680  225.7350 C   0  0  0  0  0  0  0  0  0  0  0  0
  140.8870   71.9960  222.0240 N   0  0  0  0  0  0  0  0  0  0  0  0
  141.7250   72.7270  221.2640 C   0  0  0  0  0  0  0  0  0  0  0  0
  142.8720   72.0770  220.6770 N   0  0  0  0  0  0  0  0  0  0  0  0
  144.1110   72.7980  220.7230 C   0  0  0  0  0  0  0  0  0  0  0  0
  144.9640   72.5180  219.4780 C   0  0  0  0  0  0  0  0  0  0  0  0
  145.0730   71.0270  219.2970 C   0  0  0  0  0  0  0  0  0  0  0  0
  146.2450   70.4720  218.8390 C   0  0  0  0  0  0  0  0  0  0  0  0
  146.3280   69.0910  218.6800 C   0  0  0  0  0  0  0  0  0  0  0  0
  145.2360   68.2750  218.9800 C   0  0  0  0  0  0  0  0  0  0  0  0
  144.0810   68.8760  219.4360 C   0  0  0  0  0  0  0  0  0  0  0  0
  143.9760   70.2540  219.6020 C   0  0  0  0  0  0  0  0  0  0  0  0
  142.6900   70.7720  220.0940 C   0  0  0  0  0  0  0  0  0  0  0  0
  141.4970   74.0510  221.0550 N   0  0  0  0  0  0  0  0  0  0  0  0
  141.4090   76.9220  221.1270 C   0  0  0  0  0  0  0  0  0  0  0  0
  140.7979   81.3614  224.1264 H   0  0  0  0  0  0  0  0  0  0  0  0
  142.9724   80.8477  222.9921 H   0  0  0  0  0  0  0  0  0  0  0  0
  143.2163   78.7992  221.6225 H   0  0  0  0  0  0  0  0  0  0  0  0
  138.9086   79.7751  223.8481 H   0  0  0  0  0  0  0  0  0  0  0  0
  138.7138   76.9154  223.3983 H   0  0  0  0  0  0  0  0  0  0  0  0
  137.8777   78.1513  222.4263 H   0  0  0  0  0  0  0  0  0  0  0  0
  138.1704   75.9052  221.2572 H   0  0  0  0  0  0  0  0  0  0  0  0
  138.8692   77.2839  220.3622 H   0  0  0  0  0  0  0  0  0  0  0  0
  138.0180   72.2820  223.5930 H   0  0  0  0  0  0  0  0  0  0  0  0
  138.6198   69.7788  223.3664 H   0  0  0  0  0  0  0  0  0  0  0  0
  140.3452   70.3294  223.5973 H   0  0  0  0  0  0  0  0  0  0  0  0
  138.3040   70.9670  225.6725 H   0  0  0  0  0  0  0  0  0  0  0  0
  140.6529   71.8802  225.5622 H   0  0  0  0  0  0  0  0  0  0  0  0
  140.2371   70.9826  227.0669 H   0  0  0  0  0  0  0  0  0  0  0  0
  141.6755   69.7593  224.6647 H   0  0  0  0  0  0  0  0  0  0  0  0
  142.5063   70.3738  226.1082 H   0  0  0  0  0  0  0  0  0  0  0  0
  142.0576   67.9527  226.3625 H   0  0  0  0  0  0  0  0  0  0  0  0
  141.0475   68.8819  227.5311 H   0  0  0  0  0  0  0  0  0  0  0  0
  140.2405   67.6511  224.8994 H   0  0  0  0  0  0  0  0  0  0  0  0
  139.6687   67.2840  226.6150 H   0  0  0  0  0  0  0  0  0  0  0  0
  138.1563   68.5413  224.9712 H   0  0  0  0  0  0  0  0  0  0  0  0
  138.3627   69.0464  226.7310 H   0  0  0  0  0  0  0  0  0  0  0  0
  143.8970   73.8757  220.7761 H   0  0  0  0  0  0  0  0  0  0  0  0
  144.6720   72.4692  221.6102 H   0  0  0  0  0  0  0  0  0  0  0  0
  144.4868   72.9650  218.5934 H   0  0  0  0  0  0  0  0  0  0  0  0
  145.9654   72.9562  219.6017 H   0  0  0  0  0  0  0  0  0  0  0  0
  147.1074   71.1119  218.6009 H   0  0  0  0  0  0  0  0  0  0  0  0
  147.2622   68.6393  218.3148 H   0  0  0  0  0  0  0  0  0  0  0  0
  145.2947   67.1836  218.8563 H   0  0  0  0  0  0  0  0  0  0  0  0
  143.2131   68.2445  219.6767 H   0  0  0  0  0  0  0  0  0  0  0  0
  141.9819   70.8438  219.2553 H   0  0  0  0  0  0  0  0  0  0  0  0
  142.2955   70.0877  220.8595 H   0  0  0  0  0  0  0  0  0  0  0  0
  142.3303   76.4071  221.4370 H   0  0  0  0  0  0  0  0  0  0  0  0
  141.5204   77.1876  220.0654 H   0  0  0  0  0  0  0  0  0  0  0  0
  1  2  2  0
  2  3  1  0
  3  4  2  0
  4  5  1  0
  5  6  2  0
  5  7  1  0
  7  8  1  0
  8  9  1  0
  9 10  1  0
 10 11  2  0
 11 12  1  0
 12 13  1  0
 13 14  1  0
 14 15  1  0
 15 16  1  0
 16 17  1  0
 17 18  1  0
 18 19  1  0
 19 20  1  0
 12 21  2  0
 21 22  1  0
 22 23  1  0
 23 24  1  0
 24 25  1  0
 25 26  1  0
 26 27  2  0
 27 28  1  0
 28 29  2  0
 29 30  1  0
 30 31  2  0
 31 32  1  0
 22 33  2  0
  9 34  1  0
  6  1  1  0
 33 10  1  0
 34  4  1  0
 20 15  1  0
 32 23  1  0
 31 26  1  0
  1 35  1  0
  2 36  1  0
  3 37  1  0
  6 38  1  0
  7 39  1  0
  7 40  1  0
  8 41  1  0
  8 42  1  0
 13 43  1  0
 14 44  1  0
 14 45  1  0
 15 46  1  0
 16 47  1  0
 16 48  1  0
 17 49  1  0
 17 50  1  0
 18 51  1  0
 18 52  1  0
 19 53  1  0
 19 54  1  0
 20 55  1  0
 20 56  1  0
 24 57  1  0
 24 58  1  0
 25 59  1  0
 25 60  1  0
 27 61  1  0
 28 62  1  0
 29 63  1  0
 30 64  1  0
 32 65  1  0
 32 66  1  0
 34 67  1  0
 34 68  1  0
M  END
>  <smiles>  (8) 
c1ccc2c(c1)CCN(c1nc(NCC3CCCCC3)nc(N3CCc4ccccc4C3)n1)C2

>  <score_type>  (8) 
oracle

>  <origin>  (8) 
autodockgpu

>  <m_score__min__energy>  (8) 
-10.220000000000001

>  <m_primary>  (8) 
energy

>  <rmsd>  (8) 
5.05189456035502

>  <m_score__min__rmsd>  (8) 
5.05189456035502

>  <meeko>  (8) 
{"free_energy": -10.14, "intermolecular_energy": -11.63, "internal_energy": -1.1, "cluster_size": 20, "cluster_id": 1, "rank_in_cluster": 4}

>  <energy>  (8) 
-10.01

>  <cluster_rmsd>  (8) 
0.49

>  <cluster>  (8) 
1

$$$$

     RDKit          3D

 68 73  0  0  0  0  0  0  0  0999 V2000
  146.2980   68.5000  219.3920 C   0  0  0  0  0  0  0  0  0  0  0  0
  145.1350   67.7410  219.5090 C   0  0  0  0  0  0  0  0  0  0  0  0
  143.8900   68.3510  219.5220 C   0  0  0  0  0  0  0  0  0  0  0  0
  143.7790   69.7390  219.4170 C   0  0  0  0  0  0  0  0  0  0  0  0
  144.9240   70.4950  219.3020 C   0  0  0  0  0  0  0  0  0  0  0  0
  146.1650   69.8720  219.2910 C   0  0  0  0  0  0  0  0  0  0  0  0
  144.9250   71.9750  219.1850 C   0  0  0  0  0  0  0  0  0  0  0  0
  143.5520   72.3910  218.7150 C   0  0  0  0  0  0  0  0  0  0  0  0
  142.5820   71.7720  219.5720 N   0  0  0  0  0  0  0  0  0  0  0  0
  141.8130   72.4810  220.5090 C   0  0  0  0  0  0  0  0  0  0  0  0
  141.0230   71.9040  221.4340 N   0  0  0  0  0  0  0  0  0  0  0  0
  140.3010   72.6180  222.3210 C   0  0  0  0  0  0  0  0  0  0  0  0
  139.4640   72.0080  223.2970 N   0  0  0  0  0  0  0  0  0  0  0  0
  139.6760   70.6750  223.8130 C   0  0  0  0  0  0  0  0  0  0  0  0
  139.2290   70.5100  225.2260 C   0  0  0  0  0  0  0  0  0  0  0  0
  140.3720   70.8680  226.1470 C   0  0  0  0  0  0  0  0  0  0  0  0
  141.4350   69.7990  226.0920 C   0  0  0  0  0  0  0  0  0  0  0  0
  140.8120   68.5390  226.6700 C   0  0  0  0  0  0  0  0  0  0  0  0
  139.6630   68.0980  225.8310 C   0  0  0  0  0  0  0  0  0  0  0  0
  138.6650   69.1530  225.4900 C   0  0  0  0  0  0  0  0  0  0  0  0
  140.3420   73.9660  222.3130 N   0  0  0  0  0  0  0  0  0  0  0  0
  141.1250   74.5660  221.3950 C   0  0  0  0  0  0  0  0  0  0  0  0
  141.1820   76.0090  221.3700 N   0  0  0  0  0  0  0  0  0  0  0  0
  141.3480   76.6210  220.0850 C   0  0  0  0  0  0  0  0  0  0  0  0
  142.1890   77.9010  220.1840 C   0  0  0  0  0  0  0  0  0  0  0  0
  141.6050   78.7760  221.2640 C   0  0  0  0  0  0  0  0  0  0  0  0
  141.5930   80.1430  221.1110 C   0  0  0  0  0  0  0  0  0  0  0  0
  141.0470   80.9340  222.1180 C   0  0  0  0  0  0  0  0  0  0  0  0
  140.5170   80.3530  223.2700 C   0  0  0  0  0  0  0  0  0  0  0  0
  140.5510   78.9780  223.3790 C   0  0  0  0  0  0  0  0  0  0  0  0
  141.0920   78.1670  222.3860 C   0  0  0  0  0  0  0  0  0  0  0  0
  141.0700   76.7150  222.6220 C   0  0  0  0  0  0  0  0  0  0  0  0
  141.8470   73.8290  220.5100 N   0  0  0  0  0  0  0  0  0  0  0  0
  142.4110   70.3210  219.4380 C   0  0  0  0  0  0  0  0  0  0  0  0
  147.2891   68.0229  219.3804 H   0  0  0  0  0  0  0  0  0  0  0  0
  145.2056   66.6464  219.5919 H   0  0  0  0  0  0  0  0  0  0  0  0
  142.9824   67.7366  219.6158 H   0  0  0  0  0  0  0  0  0  0  0  0
  147.0705   70.4898  219.1990 H   0  0  0  0  0  0  0  0  0  0  0  0
  145.1414   72.4294  220.1631 H   0  0  0  0  0  0  0  0  0  0  0  0
  145.6963   72.3082  218.4751 H   0  0  0  0  0  0  0  0  0  0  0  0
  143.4544   73.4853  218.7704 H   0  0  0  0  0  0  0  0  0  0  0  0
  143.3947   72.0781  217.6722 H   0  0  0  0  0  0  0  0  0  0  0  0
  138.6540   72.6130  223.6290 H   0  0  0  0  0  0  0  0  0  0  0  0
  139.1176   69.9650  223.1853 H   0  0  0  0  0  0  0  0  0  0  0  0
  140.7594   70.4861  223.7905 H   0  0  0  0  0  0  0  0  0  0  0  0
  138.3953   71.1997  225.4241 H   0  0  0  0  0  0  0  0  0  0  0  0
  140.8055   71.8289  225.8327 H   0  0  0  0  0  0  0  0  0  0  0  0
  139.9937   70.9476  227.1769 H   0  0  0  0  0  0  0  0  0  0  0  0
  141.7460   69.6259  225.0512 H   0  0  0  0  0  0  0  0  0  0  0  0
  142.3282   70.0973  226.6605 H   0  0  0  0  0  0  0  0  0  0  0  0
  141.5681   67.7406  226.6983 H   0  0  0  0  0  0  0  0  0  0  0  0
  140.4510   68.7527  227.6869 H   0  0  0  0  0  0  0  0  0  0  0  0
  140.0668   67.6984  224.8890 H   0  0  0  0  0  0  0  0  0  0  0  0
  139.1193   67.3568  226.4351 H   0  0  0  0  0  0  0  0  0  0  0  0
  138.1244   68.8294  224.5883 H   0  0  0  0  0  0  0  0  0  0  0  0
  138.0235   69.2599  226.3772 H   0  0  0  0  0  0  0  0  0  0  0  0
  141.8522   75.9116  219.4122 H   0  0  0  0  0  0  0  0  0  0  0  0
  140.3544   76.8865  219.6948 H   0  0  0  0  0  0  0  0  0  0  0  0
  143.2281   77.6434  220.4369 H   0  0  0  0  0  0  0  0  0  0  0  0
  142.1788   78.4335  219.2215 H   0  0  0  0  0  0  0  0  0  0  0  0
  142.0097   80.6054  220.2041 H   0  0  0  0  0  0  0  0  0  0  0  0
  141.0334   82.0280  222.0041 H   0  0  0  0  0  0  0  0  0  0  0  0
  140.0843   80.9733  224.0688 H   0  0  0  0  0  0  0  0  0  0  0  0
  140.1361   78.5065  224.2821 H   0  0  0  0  0  0  0  0  0  0  0  0
  141.9132   76.4390  223.2722 H   0  0  0  0  0  0  0  0  0  0  0  0
  140.1204   76.4427  223.1058 H   0  0  0  0  0  0  0  0  0  0  0  0
  141.8415   69.9243  220.2914 H   0  0  0  0  0  0  0  0  0  0  0  0
  141.8547   70.0671  218.5236 H   0  0  0  0  0  0  0  0  0  0  0  0
  1  2  2  0
  2  3  1  0
  3  4  2  0
  4  5  1  0
  5  6  2  0
  5  7  1  0
  7  8  1  0
  8  9  1  0
  9 10  1  0
 10 11  2  0
 11 12  1  0
 12 13  1  0
 13 14  1  0
 14 15  1  0
 15 16  1  0
 16 17  1  0
 17 18  1  0
 18 19  1  0
 19 20  1  0
 12 21  2  0
 21 22  1  0
 22 23  1  0
 23 24  1  0
 24 25  1  0
 25 26  1  0
 26 27  2  0
 27 28  1  0
 28 29  2  0
 29 30  1  0
 30 31  2  0
 31 32  1  0
 22 33  2  0
  9 34  1  0
  6  1  1  0
 33 10  1  0
 34  4  1  0
 20 15  1  0
 32 23  1  0
 31 26  1  0
  1 35  1  0
  2 36  1  0
  3 37  1  0
  6 38  1  0
  7 39  1  0
  7 40  1  0
  8 41  1  0
  8 42  1  0
 13 43  1  0
 14 44  1  0
 14 45  1  0
 15 46  1  0
 16 47  1  0
 16 48  1  0
 17 49  1  0
 17 50  1  0
 18 51  1  0
 18 52  1  0
 19 53  1  0
 19 54  1  0
 20 55  1  0
 20 56  1  0
 24 57  1  0
 24 58  1  0
 25 59  1  0
 25 60  1  0
 27 61  1  0
 28 62  1  0
 29 63  1  0
 30 64  1  0
 32 65  1  0
 32 66  1  0
 34 67  1  0
 34 68  1  0
M  END
>  <smiles>  (9) 
c1ccc2c(c1)CCN(c1nc(NCC3CCCCC3)nc(N3CCc4ccccc4C3)n1)C2

>  <score_type>  (9) 
oracle

>  <origin>  (9) 
autodockgpu

>  <m_score__min__energy>  (9) 
-10.220000000000001

>  <m_primary>  (9) 
energy

>  <rmsd>  (9) 
10.470096467666483

>  <m_score__min__rmsd>  (9) 
10.470096467666483

>  <meeko>  (9) 
{"free_energy": -9.77, "intermolecular_energy": -11.27, "internal_energy": -1.0, "cluster_size": 20, "cluster_id": 1, "rank_in_cluster": 15}

>  <energy>  (9) 
-9.96

>  <cluster_rmsd>  (9) 
0.47

>  <cluster>  (9) 
1

$$$$

     RDKit          3D

 68 73  0  0  0  0  0  0  0  0999 V2000
  145.8930   67.6830  219.3470 C   0  0  0  0  0  0  0  0  0  0  0  0
  144.6600   67.0410  219.4570 C   0  0  0  0  0  0  0  0  0  0  0  0
  143.4820   67.7710  219.4820 C   0  0  0  0  0  0  0  0  0  0  0  0
  143.5090   69.1640  219.3950 C   0  0  0  0  0  0  0  0  0  0  0  0
  144.7230   69.8050  219.2850 C   0  0  0  0  0  0  0  0  0  0  0  0
  145.8960   69.0620  219.2630 C   0  0  0  0  0  0  0  0  0  0  0  0
  144.8700   71.2780  219.1860 C   0  0  0  0  0  0  0  0  0  0  0  0
  143.5440   71.8330  218.7250 C   0  0  0  0  0  0  0  0  0  0  0  0
  142.5190   71.3030  219.5770 N   0  0  0  0  0  0  0  0  0  0  0  0
  141.8260   72.0730  220.5250 C   0  0  0  0  0  0  0  0  0  0  0  0
  141.1400   71.5600  221.5640 N   0  0  0  0  0  0  0  0  0  0  0  0
  140.4880   72.3310  222.4570 C   0  0  0  0  0  0  0  0  0  0  0  0
  139.7610   71.7890  223.5540 N   0  0  0  0  0  0  0  0  0  0  0  0
  139.9560   70.4490  224.0590 C   0  0  0  0  0  0  0  0  0  0  0  0
  141.0810   70.3430  225.0320 C   0  0  0  0  0  0  0  0  0  0  0  0
  140.9260   69.0680  225.8250 C   0  0  0  0  0  0  0  0  0  0  0  0
  139.7710   69.1940  226.7880 C   0  0  0  0  0  0  0  0  0  0  0  0
  140.1600   70.2650  227.7920 C   0  0  0  0  0  0  0  0  0  0  0  0
  140.3430   71.5750  227.1070 C   0  0  0  0  0  0  0  0  0  0  0  0
  141.2060   71.5580  225.8910 C   0  0  0  0  0  0  0  0  0  0  0  0
  140.4980   73.6750  222.3390 N   0  0  0  0  0  0  0  0  0  0  0  0
  141.1770   74.2120  221.3070 C   0  0  0  0  0  0  0  0  0  0  0  0
  141.1980   75.6480  221.1640 N   0  0  0  0  0  0  0  0  0  0  0  0
  141.3880   76.1570  219.8380 C   0  0  0  0  0  0  0  0  0  0  0  0
  142.1930   77.4640  219.8540 C   0  0  0  0  0  0  0  0  0  0  0  0
  141.5550   78.4080  220.8400 C   0  0  0  0  0  0  0  0  0  0  0  0
  141.5130   79.7570  220.5750 C   0  0  0  0  0  0  0  0  0  0  0  0
  140.9160   80.6130  221.4960 C   0  0  0  0  0  0  0  0  0  0  0  0
  140.3660   80.1140  222.6770 C   0  0  0  0  0  0  0  0  0  0  0  0
  140.4320   78.7550  222.9010 C   0  0  0  0  0  0  0  0  0  0  0  0
  141.0230   77.8800  221.9940 C   0  0  0  0  0  0  0  0  0  0  0  0
  141.0300   76.4520  222.3490 C   0  0  0  0  0  0  0  0  0  0  0  0
  141.8290   73.4180  220.4170 N   0  0  0  0  0  0  0  0  0  0  0  0
  142.2050   69.8780  219.4260 C   0  0  0  0  0  0  0  0  0  0  0  0
  146.8321   67.1105  219.3277 H   0  0  0  0  0  0  0  0  0  0  0  0
  144.6218   65.9437  219.5246 H   0  0  0  0  0  0  0  0  0  0  0  0
  142.5181   67.2485  219.5711 H   0  0  0  0  0  0  0  0  0  0  0  0
  146.8581   69.5881  219.1759 H   0  0  0  0  0  0  0  0  0  0  0  0
  145.1318   71.6968  220.1689 H   0  0  0  0  0  0  0  0  0  0  0  0
  145.6694   71.5423  218.4781 H   0  0  0  0  0  0  0  0  0  0  0  0
  143.5551   72.9308  218.7935 H   0  0  0  0  0  0  0  0  0  0  0  0
  143.3549   71.5493  217.6792 H   0  0  0  0  0  0  0  0  0  0  0  0
  139.0490   72.4500  223.9850 H   0  0  0  0  0  0  0  0  0  0  0  0
  139.0307   70.1262  224.5587 H   0  0  0  0  0  0  0  0  0  0  0  0
  140.2076   69.8104  223.1994 H   0  0  0  0  0  0  0  0  0  0  0  0
  142.0318   70.2937  224.4811 H   0  0  0  0  0  0  0  0  0  0  0  0
  140.7358   68.2318  225.1361 H   0  0  0  0  0  0  0  0  0  0  0  0
  141.8497   68.8823  226.3927 H   0  0  0  0  0  0  0  0  0  0  0  0
  138.8587   69.4911  226.2501 H   0  0  0  0  0  0  0  0  0  0  0  0
  139.5647   68.2364  227.2884 H   0  0  0  0  0  0  0  0  0  0  0  0
  139.3665   70.3588  228.5481 H   0  0  0  0  0  0  0  0  0  0  0  0
  141.1069   69.9775  228.2725 H   0  0  0  0  0  0  0  0  0  0  0  0
  139.3494   71.9421  226.8103 H   0  0  0  0  0  0  0  0  0  0  0  0
  140.8613   72.2204  227.8314 H   0  0  0  0  0  0  0  0  0  0  0  0
  140.9465   72.4343  225.2788 H   0  0  0  0  0  0  0  0  0  0  0  0
  142.2435   71.5645  226.2564 H   0  0  0  0  0  0  0  0  0  0  0  0
  141.9304   75.4090  219.2411 H   0  0  0  0  0  0  0  0  0  0  0  0
  140.4004   76.3621  219.3993 H   0  0  0  0  0  0  0  0  0  0  0  0
  143.2301   77.2570  220.1566 H   0  0  0  0  0  0  0  0  0  0  0  0
  142.1984   77.9149  218.8507 H   0  0  0  0  0  0  0  0  0  0  0  0
  141.9464   80.1549  219.6456 H   0  0  0  0  0  0  0  0  0  0  0  0
  140.8775   81.6930  221.2908 H   0  0  0  0  0  0  0  0  0  0  0  0
  139.8931   80.7856  223.4087 H   0  0  0  0  0  0  0  0  0  0  0  0
  140.0028   78.3483  223.8286 H   0  0  0  0  0  0  0  0  0  0  0  0
  141.8595   76.2538  223.0438 H   0  0  0  0  0  0  0  0  0  0  0  0
  140.0728   76.1948  222.8260 H   0  0  0  0  0  0  0  0  0  0  0  0
  141.6000   69.5292  220.2759 H   0  0  0  0  0  0  0  0  0  0  0  0
  141.6253   69.6914  218.5100 H   0  0  0  0  0  0  0  0  0  0  0  0
  1  2  2  0
  2  3  1  0
  3  4  2  0
  4  5  1  0
  5  6  2  0
  5  7  1  0
  7  8  1  0
  8  9  1  0
  9 10  1  0
 10 11  2  0
 11 12  1  0
 12 13  1  0
 13 14  1  0
 14 15  1  0
 15 16  1  0
 16 17  1  0
 17 18  1  0
 18 19  1  0
 19 20  1  0
 12 21  2  0
 21 22  1  0
 22 23  1  0
 23 24  1  0
 24 25  1  0
 25 26  1  0
 26 27  2  0
 27 28  1  0
 28 29  2  0
 29 30  1  0
 30 31  2  0
 31 32  1  0
 22 33  2  0
  9 34  1  0
  6  1  1  0
 33 10  1  0
 34  4  1  0
 20 15  1  0
 32 23  1  0
 31 26  1  0
  1 35  1  0
  2 36  1  0
  3 37  1  0
  6 38  1  0
  7 39  1  0
  7 40  1  0
  8 41  1  0
  8 42  1  0
 13 43  1  0
 14 44  1  0
 14 45  1  0
 15 46  1  0
 16 47  1  0
 16 48  1  0
 17 49  1  0
 17 50  1  0
 18 51  1  0
 18 52  1  0
 19 53  1  0
 19 54  1  0
 20 55  1  0
 20 56  1  0
 24 57  1  0
 24 58  1  0
 25 59  1  0
 25 60  1  0
 27 61  1  0
 28 62  1  0
 29 63  1  0
 30 64  1  0
 32 65  1  0
 32 66  1  0
 34 67  1  0
 34 68  1  0
M  END
>  <smiles>  (10) 
c1ccc2c(c1)CCN(c1nc(NCC3CCCCC3)nc(N3CCc4ccccc4C3)n1)C2

>  <score_type>  (10) 
oracle

>  <origin>  (10) 
autodockgpu

>  <m_score__min__energy>  (10) 
-10.220000000000001

>  <m_primary>  (10) 
energy

>  <rmsd>  (10) 
10.890058429567937

>  <m_score__min__rmsd>  (10) 
10.890058429567937

>  <meeko>  (10) 
{"free_energy": -9.63, "intermolecular_energy": -11.12, "internal_energy": -1.14, "cluster_size": 20, "cluster_id": 1, "rank_in_cluster": 16}

>  <energy>  (10) 
-9.92

>  <cluster_rmsd>  (10) 
0.56

>  <cluster>  (10) 
1

$$$$

     RDKit          3D

 68 73  0  0  0  0  0  0  0  0999 V2000
  140.7610   79.8660  223.4980 C   0  0  0  0  0  0  0  0  0  0  0  0
  141.7890   79.8350  222.5570 C   0  0  0  0  0  0  0  0  0  0  0  0
  141.8820   78.7930  221.6460 C   0  0  0  0  0  0  0  0  0  0  0  0
  140.9470   77.7570  221.6550 C   0  0  0  0  0  0  0  0  0  0  0  0
  139.9290   77.7820  222.5820 C   0  0  0  0  0  0  0  0  0  0  0  0
  139.8470   78.8300  223.4890 C   0  0  0  0  0  0  0  0  0  0  0  0
  138.8820   76.7350  222.6820 C   0  0  0  0  0  0  0  0  0  0  0  0
  138.8410   76.0090  221.3590 C   0  0  0  0  0  0  0  0  0  0  0  0
  140.1800   75.6110  221.0290 N   0  0  0  0  0  0  0  0  0  0  0  0
  140.6180   74.2770  221.0590 C   0  0  0  0  0  0  0  0  0  0  0  0
  141.3390   73.6940  220.0830 N   0  0  0  0  0  0  0  0  0  0  0  0
  141.7460   72.4100  220.1470 C   0  0  0  0  0  0  0  0  0  0  0  0
  142.5060   71.7930  219.1140 N   0  0  0  0  0  0  0  0  0  0  0  0
  143.8210   71.2290  219.3150 C   0  0  0  0  0  0  0  0  0  0  0  0
  144.9240   72.1400  218.8970 C   0  0  0  0  0  0  0  0  0  0  0  0
  145.8950   72.2940  220.0440 C   0  0  0  0  0  0  0  0  0  0  0  0
  145.2770   73.1310  221.1360 C   0  0  0  0  0  0  0  0  0  0  0  0
  145.0890   74.5230  220.5600 C   0  0  0  0  0  0  0  0  0  0  0  0
  144.1420   74.4840  219.4100 C   0  0  0  0  0  0  0  0  0  0  0  0
  144.4190   73.4450  218.3760 C   0  0  0  0  0  0  0  0  0  0  0  0
  141.4390   71.6450  221.2150 N   0  0  0  0  0  0  0  0  0  0  0  0
  140.7180   72.2070  222.2050 C   0  0  0  0  0  0  0  0  0  0  0  0
  140.3780   71.4040  223.3560 N   0  0  0  0  0  0  0  0  0  0  0  0
  139.6900   70.1730  223.0980 C   0  0  0  0  0  0  0  0  0  0  0  0
  138.6950   69.8470  224.2210 C   0  0  0  0  0  0  0  0  0  0  0  0
  139.4160   69.9380  225.5410 C   0  0  0  0  0  0  0  0  0  0  0  0
  139.1140   69.0580  226.5530 C   0  0  0  0  0  0  0  0  0  0  0  0
  139.7930   69.1560  227.7650 C   0  0  0  0  0  0  0  0  0  0  0  0
  140.7690   70.1340  227.9550 C   0  0  0  0  0  0  0  0  0  0  0  0
  141.0380   70.9950  226.9120 C   0  0  0  0  0  0  0  0  0  0  0  0
  140.3730   70.9160  225.6920 C   0  0  0  0  0  0  0  0  0  0  0  0
  140.7500   71.8930  224.6590 C   0  0  0  0  0  0  0  0  0  0  0  0
  140.3170   73.5030  222.1220 N   0  0  0  0  0  0  0  0  0  0  0  0
  141.1120   76.6760  220.6470 C   0  0  0  0  0  0  0  0  0  0  0  0
  140.6802   80.6884  224.2240 H   0  0  0  0  0  0  0  0  0  0  0  0
  142.5335   80.6445  222.5367 H   0  0  0  0  0  0  0  0  0  0  0  0
  142.6997   78.7832  220.9103 H   0  0  0  0  0  0  0  0  0  0  0  0
  139.0284   78.8356  224.2237 H   0  0  0  0  0  0  0  0  0  0  0  0
  139.1306   76.0308  223.4897 H   0  0  0  0  0  0  0  0  0  0  0  0
  137.9039   77.1845  222.9086 H   0  0  0  0  0  0  0  0  0  0  0  0
  138.1971   75.1209  221.4405 H   0  0  0  0  0  0  0  0  0  0  0  0
  138.4338   76.6653  220.5758 H   0  0  0  0  0  0  0  0  0  0  0  0
  142.0290   71.7750  218.1630 H   0  0  0  0  0  0  0  0  0  0  0  0
  143.9431   71.0006  220.3841 H   0  0  0  0  0  0  0  0  0  0  0  0
  143.8880   70.3277  218.6880 H   0  0  0  0  0  0  0  0  0  0  0  0
  145.4597   71.6915  218.0474 H   0  0  0  0  0  0  0  0  0  0  0  0
  146.1458   71.3007  220.4445 H   0  0  0  0  0  0  0  0  0  0  0  0
  146.8063   72.7914  219.6806 H   0  0  0  0  0  0  0  0  0  0  0  0
  144.3059   72.7091  221.4343 H   0  0  0  0  0  0  0  0  0  0  0  0
  145.9180   73.1541  222.0297 H   0  0  0  0  0  0  0  0  0  0  0  0
  144.6862   75.1867  221.3393 H   0  0  0  0  0  0  0  0  0  0  0  0
  146.0615   74.8993  220.2098 H   0  0  0  0  0  0  0  0  0  0  0  0
  143.1333   74.3022  219.8094 H   0  0  0  0  0  0  0  0  0  0  0  0
  144.2529   75.4516  218.8986 H   0  0  0  0  0  0  0  0  0  0  0  0
  143.4840   73.2529  217.8292 H   0  0  0  0  0  0  0  0  0  0  0  0
  145.2244   73.8516  217.7467 H   0  0  0  0  0  0  0  0  0  0  0  0
  139.1427   70.2602  222.1478 H   0  0  0  0  0  0  0  0  0  0  0  0
  140.4328   69.3634  223.0449 H   0  0  0  0  0  0  0  0  0  0  0  0
  137.8645   70.5680  224.2015 H   0  0  0  0  0  0  0  0  0  0  0  0
  138.2895   68.8339  224.0825 H   0  0  0  0  0  0  0  0  0  0  0  0
  138.3448   68.2853  226.4072 H   0  0  0  0  0  0  0  0  0  0  0  0
  139.5574   68.4557  228.5799 H   0  0  0  0  0  0  0  0  0  0  0  0
  141.3089   70.2162  228.9098 H   0  0  0  0  0  0  0  0  0  0  0  0
  141.8050   71.7714  227.0491 H   0  0  0  0  0  0  0  0  0  0  0  0
  140.2327   72.8444  224.8519 H   0  0  0  0  0  0  0  0  0  0  0  0
  141.8389   72.0464  224.6887 H   0  0  0  0  0  0  0  0  0  0  0  0
  142.1455   76.2996  220.6580 H   0  0  0  0  0  0  0  0  0  0  0  0
  140.9053   77.0424  219.6306 H   0  0  0  0  0  0  0  0  0  0  0  0
  1  2  2  0
  2  3  1  0
  3  4  2  0
  4  5  1  0
  5  6  2  0
  5  7  1  0
  7  8  1  0
  8  9  1  0
  9 10  1  0
 10 11  2  0
 11 12  1  0
 12 13  1  0
 13 14  1  0
 14 15  1  0
 15 16  1  0
 16 17  1  0
 17 18  1  0
 18 19  1  0
 19 20  1  0
 12 21  2  0
 21 22  1  0
 22 23  1  0
 23 24  1  0
 24 25  1  0
 25 26  1  0
 26 27  2  0
 27 28  1  0
 28 29  2  0
 29 30  1  0
 30 31  2  0
 31 32  1  0
 22 33  2  0
  9 34  1  0
  6  1  1  0
 33 10  1  0
 34  4  1  0
 20 15  1  0
 32 23  1  0
 31 26  1  0
  1 35  1  0
  2 36  1  0
  3 37  1  0
  6 38  1  0
  7 39  1  0
  7 40  1  0
  8 41  1  0
  8 42  1  0
 13 43  1  0
 14 44  1  0
 14 45  1  0
 15 46  1  0
 16 47  1  0
 16 48  1  0
 17 49  1  0
 17 50  1  0
 18 51  1  0
 18 52  1  0
 19 53  1  0
 19 54  1  0
 20 55  1  0
 20 56  1  0
 24 57  1  0
 24 58  1  0
 25 59  1  0
 25 60  1  0
 27 61  1  0
 28 62  1  0
 29 63  1  0
 30 64  1  0
 32 65  1  0
 32 66  1  0
 34 67  1  0
 34 68  1  0
M  END
>  <smiles>  (11) 
c1ccc2c(c1)CCN(c1nc(NCC3CCCCC3)nc(N3CCc4ccccc4C3)n1)C2

>  <score_type>  (11) 
oracle

>  <origin>  (11) 
autodockgpu

>  <m_score__min__energy>  (11) 
-10.220000000000001

>  <m_primary>  (11) 
energy

>  <rmsd>  (11) 
4.919541669634864

>  <m_score__min__rmsd>  (11) 
4.919541669634864

>  <meeko>  (11) 
{"free_energy": -9.57, "intermolecular_energy": -11.06, "internal_energy": -1.58, "cluster_size": 23, "cluster_id": 2, "rank_in_cluster": 11}

>  <energy>  (11) 
-9.91

>  <cluster_rmsd>  (11) 
0.38

>  <cluster>  (11) 
1

$$$$

     RDKit          3D

 68 73  0  0  0  0  0  0  0  0999 V2000
  140.6750   79.8040  223.4820 C   0  0  0  0  0  0  0  0  0  0  0  0
  141.7210   79.7390  222.5630 C   0  0  0  0  0  0  0  0  0  0  0  0
  141.8320   78.6660  221.6920 C   0  0  0  0  0  0  0  0  0  0  0  0
  140.8960   77.6310  221.7190 C   0  0  0  0  0  0  0  0  0  0  0  0
  139.8590   77.6890  222.6240 C   0  0  0  0  0  0  0  0  0  0  0  0
  139.7600   78.7680  223.4920 C   0  0  0  0  0  0  0  0  0  0  0  0
  138.8100   76.6460  222.7410 C   0  0  0  0  0  0  0  0  0  0  0  0
  138.7950   75.8740  221.4450 C   0  0  0  0  0  0  0  0  0  0  0  0
  140.1390   75.4630  221.1560 N   0  0  0  0  0  0  0  0  0  0  0  0
  140.5760   74.1320  221.2420 C   0  0  0  0  0  0  0  0  0  0  0  0
  141.2980   73.5080  220.2920 N   0  0  0  0  0  0  0  0  0  0  0  0
  141.7040   72.2270  220.4100 C   0  0  0  0  0  0  0  0  0  0  0  0
  142.4650   71.5670  219.4040 N   0  0  0  0  0  0  0  0  0  0  0  0
  143.8680   71.2520  219.5410 C   0  0  0  0  0  0  0  0  0  0  0  0
  144.7660   72.2970  218.9730 C   0  0  0  0  0  0  0  0  0  0  0  0
  145.9880   72.4260  219.8520 C   0  0  0  0  0  0  0  0  0  0  0  0
  145.6190   73.0900  221.1560 C   0  0  0  0  0  0  0  0  0  0  0  0
  145.2000   74.5100  220.8140 C   0  0  0  0  0  0  0  0  0  0  0  0
  143.9940   74.4970  219.9380 C   0  0  0  0  0  0  0  0  0  0  0  0
  144.0610   73.5950  218.7530 C   0  0  0  0  0  0  0  0  0  0  0  0
  141.3930   71.5080  221.5080 N   0  0  0  0  0  0  0  0  0  0  0  0
  140.6710   72.1110  222.4720 C   0  0  0  0  0  0  0  0  0  0  0  0
  140.3280   71.3570  223.6540 N   0  0  0  0  0  0  0  0  0  0  0  0
  139.6010   70.1390  223.4490 C   0  0  0  0  0  0  0  0  0  0  0  0
  138.6170   69.8790  224.5980 C   0  0  0  0  0  0  0  0  0  0  0  0
  139.3620   69.9930  225.9030 C   0  0  0  0  0  0  0  0  0  0  0  0
  139.0520   69.1550  226.9490 C   0  0  0  0  0  0  0  0  0  0  0  0
  139.7540   69.2740  228.1460 C   0  0  0  0  0  0  0  0  0  0  0  0
  140.7600   70.2290  228.2880 C   0  0  0  0  0  0  0  0  0  0  0  0
  141.0360   71.0470  227.2120 C   0  0  0  0  0  0  0  0  0  0  0  0
  140.3480   70.9470  226.0060 C   0  0  0  0  0  0  0  0  0  0  0  0
  140.7360   71.8780  224.9350 C   0  0  0  0  0  0  0  0  0  0  0  0
  140.2720   73.4030  222.3350 N   0  0  0  0  0  0  0  0  0  0  0  0
  141.0790   76.5150  220.7540 C   0  0  0  0  0  0  0  0  0  0  0  0
  140.5808   80.6519  224.1764 H   0  0  0  0  0  0  0  0  0  0  0  0
  142.4661   80.5474  222.5284 H   0  0  0  0  0  0  0  0  0  0  0  0
  142.6645   78.6301  220.9739 H   0  0  0  0  0  0  0  0  0  0  0  0
  138.9274   78.7994  224.2102 H   0  0  0  0  0  0  0  0  0  0  0  0
  139.0425   75.9712  223.5780 H   0  0  0  0  0  0  0  0  0  0  0  0
  137.8278   77.1027  222.9324 H   0  0  0  0  0  0  0  0  0  0  0  0
  138.1480   74.9900  221.5449 H   0  0  0  0  0  0  0  0  0  0  0  0
  138.4052   76.5029  220.6310 H   0  0  0  0  0  0  0  0  0  0  0  0
  141.9180   71.3170  218.5270 H   0  0  0  0  0  0  0  0  0  0  0  0
  144.0974   71.1387  220.6108 H   0  0  0  0  0  0  0  0  0  0  0  0
  144.0499   70.3252  218.9772 H   0  0  0  0  0  0  0  0  0  0  0  0
  145.0929   71.9854  217.9700 H   0  0  0  0  0  0  0  0  0  0  0  0
  146.3972   71.4255  220.0558 H   0  0  0  0  0  0  0  0  0  0  0  0
  146.7410   73.0393  219.3353 H   0  0  0  0  0  0  0  0  0  0  0  0
  144.7864   72.5528  221.6337 H   0  0  0  0  0  0  0  0  0  0  0  0
  146.4650   73.0834  221.8590 H   0  0  0  0  0  0  0  0  0  0  0  0
  144.9686   75.0535  221.7419 H   0  0  0  0  0  0  0  0  0  0  0  0
  146.0238   75.0075  220.2812 H   0  0  0  0  0  0  0  0  0  0  0  0
  143.1354   74.1854  220.5509 H   0  0  0  0  0  0  0  0  0  0  0  0
  143.9090   75.5160  219.5326 H   0  0  0  0  0  0  0  0  0  0  0  0
  143.0309   73.3722  218.4379 H   0  0  0  0  0  0  0  0  0  0  0  0
  144.6492   74.1340  217.9957 H   0  0  0  0  0  0  0  0  0  0  0  0
  139.0399   70.2106  222.5056 H   0  0  0  0  0  0  0  0  0  0  0  0
  140.3195   69.3070  223.4111 H   0  0  0  0  0  0  0  0  0  0  0  0
  137.8067   70.6223  224.5675 H   0  0  0  0  0  0  0  0  0  0  0  0
  138.1816   68.8736  224.5001 H   0  0  0  0  0  0  0  0  0  0  0  0
  138.2593   68.4000  226.8413 H   0  0  0  0  0  0  0  0  0  0  0  0
  139.5125   68.6081  228.9876 H   0  0  0  0  0  0  0  0  0  0  0  0
  141.3176   70.3273  229.2311 H   0  0  0  0  0  0  0  0  0  0  0  0
  141.8273   71.8047  227.3105 H   0  0  0  0  0  0  0  0  0  0  0  0
  140.2497   72.8501  225.1041 H   0  0  0  0  0  0  0  0  0  0  0  0
  141.8292   72.0001  224.9425 H   0  0  0  0  0  0  0  0  0  0  0  0
  142.1120   76.1395  220.7978 H   0  0  0  0  0  0  0  0  0  0  0  0
  140.8912   76.8450  219.7216 H   0  0  0  0  0  0  0  0  0  0  0  0
  1  2  2  0
  2  3  1  0
  3  4  2  0
  4  5  1  0
  5  6  2  0
  5  7  1  0
  7  8  1  0
  8  9  1  0
  9 10  1  0
 10 11  2  0
 11 12  1  0
 12 13  1  0
 13 14  1  0
 14 15  1  0
 15 16  1  0
 16 17  1  0
 17 18  1  0
 18 19  1  0
 19 20  1  0
 12 21  2  0
 21 22  1  0
 22 23  1  0
 23 24  1  0
 24 25  1  0
 25 26  1  0
 26 27  2  0
 27 28  1  0
 28 29  2  0
 29 30  1  0
 30 31  2  0
 31 32  1  0
 22 33  2  0
  9 34  1  0
  6  1  1  0
 33 10  1  0
 34  4  1  0
 20 15  1  0
 32 23  1  0
 31 26  1  0
  1 35  1  0
  2 36  1  0
  3 37  1  0
  6 38  1  0
  7 39  1  0
  7 40  1  0
  8 41  1  0
  8 42  1  0
 13 43  1  0
 14 44  1  0
 14 45  1  0
 15 46  1  0
 16 47  1  0
 16 48  1  0
 17 49  1  0
 17 50  1  0
 18 51  1  0
 18 52  1  0
 19 53  1  0
 19 54  1  0
 20 55  1  0
 20 56  1  0
 24 57  1  0
 24 58  1  0
 25 59  1  0
 25 60  1  0
 27 61  1  0
 28 62  1  0
 29 63  1  0
 30 64  1  0
 32 65  1  0
 32 66  1  0
 34 67  1  0
 34 68  1  0
M  END
>  <smiles>  (12) 
c1ccc2c(c1)CCN(c1nc(NCC3CCCCC3)nc(N3CCc4ccccc4C3)n1)C2

>  <score_type>  (12) 
oracle

>  <origin>  (12) 
autodockgpu

>  <m_score__min__energy>  (12) 
-10.220000000000001

>  <m_primary>  (12) 
energy

>  <rmsd>  (12) 
4.944808845946542

>  <m_score__min__rmsd>  (12) 
4.944808845946542

>  <meeko>  (12) 
{"free_energy": -9.82, "intermolecular_energy": -11.31, "internal_energy": -1.5, "cluster_size": 23, "cluster_id": 2, "rank_in_cluster": 1}

>  <energy>  (12) 
-9.89

>  <cluster_rmsd>  (12) 
0.57

>  <cluster>  (12) 
1

$$$$

     RDKit          3D

 68 73  0  0  0  0  0  0  0  0999 V2000
  142.0500   80.1810  220.7070 C   0  0  0  0  0  0  0  0  0  0  0  0
  141.8120   79.7310  219.4090 C   0  0  0  0  0  0  0  0  0  0  0  0
  141.2220   78.4960  219.1850 C   0  0  0  0  0  0  0  0  0  0  0  0
  140.8540   77.6810  220.2570 C   0  0  0  0  0  0  0  0  0  0  0  0
  141.0870   78.1190  221.5420 C   0  0  0  0  0  0  0  0  0  0  0  0
  141.6790   79.3580  221.7530 C   0  0  0  0  0  0  0  0  0  0  0  0
  140.7380   77.3370  222.7540 C   0  0  0  0  0  0  0  0  0  0  0  0
  139.6940   76.3240  222.3510 C   0  0  0  0  0  0  0  0  0  0  0  0
  140.1770   75.6210  221.1980 N   0  0  0  0  0  0  0  0  0  0  0  0
  140.5940   74.2810  221.2280 C   0  0  0  0  0  0  0  0  0  0  0  0
  141.2970   73.6830  220.2470 N   0  0  0  0  0  0  0  0  0  0  0  0
  141.6840   72.3930  220.3110 C   0  0  0  0  0  0  0  0  0  0  0  0
  142.4250   71.7610  219.2730 N   0  0  0  0  0  0  0  0  0  0  0  0
  143.7530   71.2200  219.4540 C   0  0  0  0  0  0  0  0  0  0  0  0
  144.8310   72.1270  218.9680 C   0  0  0  0  0  0  0  0  0  0  0  0
  145.8680   72.2830  220.0560 C   0  0  0  0  0  0  0  0  0  0  0  0
  145.3170   73.1240  221.1810 C   0  0  0  0  0  0  0  0  0  0  0  0
  145.0980   74.5150  220.6120 C   0  0  0  0  0  0  0  0  0  0  0  0
  144.0850   74.4750  219.5200 C   0  0  0  0  0  0  0  0  0  0  0  0
  144.2980   73.4320  218.4750 C   0  0  0  0  0  0  0  0  0  0  0  0
  141.3720   71.6360  221.3840 N   0  0  0  0  0  0  0  0  0  0  0  0
  140.6680   72.2120  222.3770 C   0  0  0  0  0  0  0  0  0  0  0  0
  140.3250   71.4170  223.5330 N   0  0  0  0  0  0  0  0  0  0  0  0
  139.5990   70.2060  223.2850 C   0  0  0  0  0  0  0  0  0  0  0  0
  138.6140   69.9060  224.4230 C   0  0  0  0  0  0  0  0  0  0  0  0
  139.3570   69.9760  225.7320 C   0  0  0  0  0  0  0  0  0  0  0  0
  139.0460   69.1030  226.7480 C   0  0  0  0  0  0  0  0  0  0  0  0
  139.7460   69.1810  227.9490 C   0  0  0  0  0  0  0  0  0  0  0  0
  140.7510   70.1320  228.1250 C   0  0  0  0  0  0  0  0  0  0  0  0
  141.0280   70.9870  227.0790 C   0  0  0  0  0  0  0  0  0  0  0  0
  140.3420   70.9270  225.8690 C   0  0  0  0  0  0  0  0  0  0  0  0
  140.7300   71.8940  224.8310 C   0  0  0  0  0  0  0  0  0  0  0  0
  140.2880   73.5140  222.2950 N   0  0  0  0  0  0  0  0  0  0  0  0
  140.2260   76.3720  219.9390 C   0  0  0  0  0  0  0  0  0  0  0  0
  142.5178   81.1592  220.8922 H   0  0  0  0  0  0  0  0  0  0  0  0
  142.0951   80.3621  218.5537 H   0  0  0  0  0  0  0  0  0  0  0  0
  141.0426   78.1559  218.1544 H   0  0  0  0  0  0  0  0  0  0  0  0
  141.8579   79.6943  222.7849 H   0  0  0  0  0  0  0  0  0  0  0  0
  141.6308   76.8237  223.1405 H   0  0  0  0  0  0  0  0  0  0  0  0
  140.3541   77.9972  223.5456 H   0  0  0  0  0  0  0  0  0  0  0  0
  139.5239   75.6158  223.1753 H   0  0  0  0  0  0  0  0  0  0  0  0
  138.7437   76.8275  222.1200 H   0  0  0  0  0  0  0  0  0  0  0  0
  141.9240   71.7140  218.3360 H   0  0  0  0  0  0  0  0  0  0  0  0
  143.9108   71.0337  220.5266 H   0  0  0  0  0  0  0  0  0  0  0  0
  143.8121   70.2964  218.8594 H   0  0  0  0  0  0  0  0  0  0  0  0
  145.3145   71.6749  218.0895 H   0  0  0  0  0  0  0  0  0  0  0  0
  146.1407   71.2904  220.4437 H   0  0  0  0  0  0  0  0  0  0  0  0
  146.7566   72.7787  219.6379 H   0  0  0  0  0  0  0  0  0  0  0  0
  144.3645   72.7049  221.5375 H   0  0  0  0  0  0  0  0  0  0  0  0
  146.0092   73.1481  222.0356 H   0  0  0  0  0  0  0  0  0  0  0  0
  144.7432   75.1821  221.4115 H   0  0  0  0  0  0  0  0  0  0  0  0
  146.0490   74.8877  220.2036 H   0  0  0  0  0  0  0  0  0  0  0  0
  143.1011   74.2973  219.9787 H   0  0  0  0  0  0  0  0  0  0  0  0
  144.1682   75.4406  218.9997 H   0  0  0  0  0  0  0  0  0  0  0  0
  143.3316   73.2402  217.9858 H   0  0  0  0  0  0  0  0  0  0  0  0
  145.0656   73.8352  217.7981 H   0  0  0  0  0  0  0  0  0  0  0  0
  139.0390   70.3098  222.3439 H   0  0  0  0  0  0  0  0  0  0  0  0
  140.3181   69.3762  223.2192 H   0  0  0  0  0  0  0  0  0  0  0  0
  137.8030   70.6491  224.4169 H   0  0  0  0  0  0  0  0  0  0  0  0
  138.1798   68.9041  224.2902 H   0  0  0  0  0  0  0  0  0  0  0  0
  138.2536   68.3520  226.6134 H   0  0  0  0  0  0  0  0  0  0  0  0
  139.5042   68.4861  228.7667 H   0  0  0  0  0  0  0  0  0  0  0  0
  141.3072   70.1982  229.0717 H   0  0  0  0  0  0  0  0  0  0  0  0
  141.8179   71.7421  227.2050 H   0  0  0  0  0  0  0  0  0  0  0  0
  140.2421   72.8591  225.0323 H   0  0  0  0  0  0  0  0  0  0  0  0
  141.8230   72.0169  224.8442 H   0  0  0  0  0  0  0  0  0  0  0  0
  140.8299   75.8305  219.1960 H   0  0  0  0  0  0  0  0  0  0  0  0
  139.2203   76.5044  219.5136 H   0  0  0  0  0  0  0  0  0  0  0  0
  1  2  2  0
  2  3  1  0
  3  4  2  0
  4  5  1  0
  5  6  2  0
  5  7  1  0
  7  8  1  0
  8  9  1  0
  9 10  1  0
 10 11  2  0
 11 12  1  0
 12 13  1  0
 13 14  1  0
 14 15  1  0
 15 16  1  0
 16 17  1  0
 17 18  1  0
 18 19  1  0
 19 20  1  0
 12 21  2  0
 21 22  1  0
 22 23  1  0
 23 24  1  0
 24 25  1  0
 25 26  1  0
 26 27  2  0
 27 28  1  0
 28 29  2  0
 29 30  1  0
 30 31  2  0
 31 32  1  0
 22 33  2  0
  9 34  1  0
  6  1  1  0
 33 10  1  0
 34  4  1  0
 20 15  1  0
 32 23  1  0
 31 26  1  0
  1 35  1  0
  2 36  1  0
  3 37  1  0
  6 38  1  0
  7 39  1  0
  7 40  1  0
  8 41  1  0
  8 42  1  0
 13 43  1  0
 14 44  1  0
 14 45  1  0
 15 46  1  0
 16 47  1  0
 16 48  1  0
 17 49  1  0
 17 50  1  0
 18 51  1  0
 18 52  1  0
 19 53  1  0
 19 54  1  0
 20 55  1  0
 20 56  1  0
 24 57  1  0
 24 58  1  0
 25 59  1  0
 25 60  1  0
 27 61  1  0
 28 62  1  0
 29 63  1  0
 30 64  1  0
 32 65  1  0
 32 66  1  0
 34 67  1  0
 34 68  1  0
M  END
>  <smiles>  (13) 
c1ccc2c(c1)CCN(c1nc(NCC3CCCCC3)nc(N3CCc4ccccc4C3)n1)C2

>  <score_type>  (13) 
oracle

>  <origin>  (13) 
autodockgpu

>  <m_score__min__energy>  (13) 
-10.220000000000001

>  <m_primary>  (13) 
energy

>  <rmsd>  (13) 
4.5196036764854846

>  <m_score__min__rmsd>  (13) 
4.5196036764854846

>  <meeko>  (13) 
{"free_energy": -9.17, "intermolecular_energy": -10.66, "internal_energy": -1.64, "cluster_size": 23, "cluster_id": 2, "rank_in_cluster": 20}

>  <energy>  (13) 
-9.84

>  <cluster_rmsd>  (13) 
1.0

>  <cluster>  (13) 
1

$$$$

     RDKit          3D

 68 73  0  0  0  0  0  0  0  0999 V2000
  140.9050   80.4310  223.5140 C   0  0  0  0  0  0  0  0  0  0  0  0
  142.1260   80.1330  222.9100 C   0  0  0  0  0  0  0  0  0  0  0  0
  142.2770   78.9830  222.1500 C   0  0  0  0  0  0  0  0  0  0  0  0
  141.2080   78.1020  221.9750 C   0  0  0  0  0  0  0  0  0  0  0  0
  139.9990   78.3900  222.5690 C   0  0  0  0  0  0  0  0  0  0  0  0
  139.8610   79.5450  223.3290 C   0  0  0  0  0  0  0  0  0  0  0  0
  138.7980   77.5270  222.4520 C   0  0  0  0  0  0  0  0  0  0  0  0
  138.9870   76.6550  221.2340 C   0  0  0  0  0  0  0  0  0  0  0  0
  140.2740   76.0280  221.3310 N   0  0  0  0  0  0  0  0  0  0  0  0
  140.4500   74.6600  221.5920 C   0  0  0  0  0  0  0  0  0  0  0  0
  139.6170   73.9190  222.3460 N   0  0  0  0  0  0  0  0  0  0  0  0
  139.8160   72.6040  222.5720 C   0  0  0  0  0  0  0  0  0  0  0  0
  138.9360   71.8210  223.3720 N   0  0  0  0  0  0  0  0  0  0  0  0
  139.2530   70.4930  223.8440 C   0  0  0  0  0  0  0  0  0  0  0  0
  139.1040   70.3390  225.3190 C   0  0  0  0  0  0  0  0  0  0  0  0
  140.3460   70.8690  225.9960 C   0  0  0  0  0  0  0  0  0  0  0  0
  141.5040   69.9320  225.7600 C   0  0  0  0  0  0  0  0  0  0  0  0
  141.1630   68.6350  226.4720 C   0  0  0  0  0  0  0  0  0  0  0  0
  139.9400   68.0240  225.8790 C   0  0  0  0  0  0  0  0  0  0  0  0
  138.7730   68.9380  225.7150 C   0  0  0  0  0  0  0  0  0  0  0  0
  140.8820   71.9700  222.0410 N   0  0  0  0  0  0  0  0  0  0  0  0
  141.7300   72.6910  221.2830 C   0  0  0  0  0  0  0  0  0  0  0  0
  142.8760   72.0300  220.7060 N   0  0  0  0  0  0  0  0  0  0  0  0
  144.1200   72.7410  220.7590 C   0  0  0  0  0  0  0  0  0  0  0  0
  144.9790   72.4500  219.5210 C   0  0  0  0  0  0  0  0  0  0  0  0
  145.0780   70.9570  219.3460 C   0  0  0  0  0  0  0  0  0  0  0  0
  146.2490   70.3910  218.8990 C   0  0  0  0  0  0  0  0  0  0  0  0
  146.3220   69.0100  218.7460 C   0  0  0  0  0  0  0  0  0  0  0  0
  145.2230   68.2040  219.0410 C   0  0  0  0  0  0  0  0  0  0  0  0
  144.0690   68.8150  219.4860 C   0  0  0  0  0  0  0  0  0  0  0  0
  143.9730   70.1940  219.6460 C   0  0  0  0  0  0  0  0  0  0  0  0
  142.6880   70.7240  220.1270 C   0  0  0  0  0  0  0  0  0  0  0  0
  141.5120   74.0160  221.0650 N   0  0  0  0  0  0  0  0  0  0  0  0
  141.4450   76.8910  221.1460 C   0  0  0  0  0  0  0  0  0  0  0  0
  140.7772   81.3415  224.1179 H   0  0  0  0  0  0  0  0  0  0  0  0
  142.9780   80.8170  223.0377 H   0  0  0  0  0  0  0  0  0  0  0  0
  143.2473   78.7629  221.6809 H   0  0  0  0  0  0  0  0  0  0  0  0
  138.8898   79.7609  223.7982 H   0  0  0  0  0  0  0  0  0  0  0  0
  138.6956   76.9009  223.3506 H   0  0  0  0  0  0  0  0  0  0  0  0
  137.8882   78.1377  222.3557 H   0  0  0  0  0  0  0  0  0  0  0  0
  138.1998   75.8874  221.1990 H   0  0  0  0  0  0  0  0  0  0  0  0
  138.9259   77.2609  220.3179 H   0  0  0  0  0  0  0  0  0  0  0  0
  138.0100   72.2910  223.6030 H   0  0  0  0  0  0  0  0  0  0  0  0
  138.5807   69.7770  223.3488 H   0  0  0  0  0  0  0  0  0  0  0  0
  140.3097   70.3056  223.6025 H   0  0  0  0  0  0  0  0  0  0  0  0
  138.2433   70.9339  225.6584 H   0  0  0  0  0  0  0  0  0  0  0  0
  140.5899   71.8598  225.5850 H   0  0  0  0  0  0  0  0  0  0  0  0
  140.1610   70.9480  227.0775 H   0  0  0  0  0  0  0  0  0  0  0  0
  141.6328   69.7513  224.6826 H   0  0  0  0  0  0  0  0  0  0  0  0
  142.4440   70.3586  226.1402 H   0  0  0  0  0  0  0  0  0  0  0  0
  142.0043   67.9337  226.3707 H   0  0  0  0  0  0  0  0  0  0  0  0
  140.9760   68.8493  227.5346 H   0  0  0  0  0  0  0  0  0  0  0  0
  140.2054   67.6336  224.8854 H   0  0  0  0  0  0  0  0  0  0  0  0
  139.6165   67.2507  226.5913 H   0  0  0  0  0  0  0  0  0  0  0  0
  138.1162   68.5135  224.9414 H   0  0  0  0  0  0  0  0  0  0  0  0
  138.3026   69.0079  226.7069 H   0  0  0  0  0  0  0  0  0  0  0  0
  143.9144   73.8205  220.8074 H   0  0  0  0  0  0  0  0  0  0  0  0
  144.6720   72.4108  221.6513 H   0  0  0  0  0  0  0  0  0  0  0  0
  144.5111   72.8973  218.6316 H   0  0  0  0  0  0  0  0  0  0  0  0
  145.9828   72.8810  219.6498 H   0  0  0  0  0  0  0  0  0  0  0  0
  147.1183   71.0231  218.6650 H   0  0  0  0  0  0  0  0  0  0  0  0
  147.2552   68.5498  218.3891 H   0  0  0  0  0  0  0  0  0  0  0  0
  145.2748   67.1117  218.9222 H   0  0  0  0  0  0  0  0  0  0  0  0
  143.1947   68.1907  219.7224 H   0  0  0  0  0  0  0  0  0  0  0  0
  141.9863   70.7978  219.2831 H   0  0  0  0  0  0  0  0  0  0  0  0
  142.2831   70.0459  220.8926 H   0  0  0  0  0  0  0  0  0  0  0  0
  142.3561   76.3732  221.4804 H   0  0  0  0  0  0  0  0  0  0  0  0
  141.5842   77.1533  220.0868 H   0  0  0  0  0  0  0  0  0  0  0  0
  1  2  2  0
  2  3  1  0
  3  4  2  0
  4  5  1  0
  5  6  2  0
  5  7  1  0
  7  8  1  0
  8  9  1  0
  9 10  1  0
 10 11  2  0
 11 12  1  0
 12 13  1  0
 13 14  1  0
 14 15  1  0
 15 16  1  0
 16 17  1  0
 17 18  1  0
 18 19  1  0
 19 20  1  0
 12 21  2  0
 21 22  1  0
 22 23  1  0
 23 24  1  0
 24 25  1  0
 25 26  1  0
 26 27  2  0
 27 28  1  0
 28 29  2  0
 29 30  1  0
 30 31  2  0
 31 32  1  0
 22 33  2  0
  9 34  1  0
  6  1  1  0
 33 10  1  0
 34  4  1  0
 20 15  1  0
 32 23  1  0
 31 26  1  0
  1 35  1  0
  2 36  1  0
  3 37  1  0
  6 38  1  0
  7 39  1  0
  7 40  1  0
  8 41  1  0
  8 42  1  0
 13 43  1  0
 14 44  1  0
 14 45  1  0
 15 46  1  0
 16 47  1  0
 16 48  1  0
 17 49  1  0
 17 50  1  0
 18 51  1  0
 18 52  1  0
 19 53  1  0
 19 54  1  0
 20 55  1  0
 20 56  1  0
 24 57  1  0
 24 58  1  0
 25 59  1  0
 25 60  1  0
 27 61  1  0
 28 62  1  0
 29 63  1  0
 30 64  1  0
 32 65  1  0
 32 66  1  0
 34 67  1  0
 34 68  1  0
M  END
>  <smiles>  (14) 
c1ccc2c(c1)CCN(c1nc(NCC3CCCCC3)nc(N3CCc4ccccc4C3)n1)C2

>  <score_type>  (14) 
oracle

>  <origin>  (14) 
autodockgpu

>  <m_score__min__energy>  (14) 
-10.220000000000001

>  <m_primary>  (14) 
energy

>  <rmsd>  (14) 
5.047132480251499

>  <m_score__min__rmsd>  (14) 
5.047132480251499

>  <meeko>  (14) 
{"free_energy": -10.18, "intermolecular_energy": -11.67, "internal_energy": -1.11, "cluster_size": 20, "cluster_id": 1, "rank_in_cluster": 2}

>  <energy>  (14) 
-9.81

>  <cluster_rmsd>  (14) 
0.98

>  <cluster>  (14) 
1

$$$$

     RDKit          3D

 68 73  0  0  0  0  0  0  0  0999 V2000
  132.8070   73.8090  227.2310 C   0  0  0  0  0  0  0  0  0  0  0  0
  133.3710   74.8320  226.4700 C   0  0  0  0  0  0  0  0  0  0  0  0
  134.2150   74.5430  225.4090 C   0  0  0  0  0  0  0  0  0  0  0  0
  134.5150   73.2190  225.0830 C   0  0  0  0  0  0  0  0  0  0  0  0
  133.9620   72.2030  225.8300 C   0  0  0  0  0  0  0  0  0  0  0  0
  133.1180   72.5060  226.8900 C   0  0  0  0  0  0  0  0  0  0  0  0
  134.2110   70.7630  225.5730 C   0  0  0  0  0  0  0  0  0  0  0  0
  134.6960   70.6360  224.1490 C   0  0  0  0  0  0  0  0  0  0  0  0
  135.7760   71.5620  223.9630 N   0  0  0  0  0  0  0  0  0  0  0  0
  137.1150   71.1690  223.8150 C   0  0  0  0  0  0  0  0  0  0  0  0
  137.6350   70.0400  224.3320 N   0  0  0  0  0  0  0  0  0  0  0  0
  138.9280   69.6920  224.1670 C   0  0  0  0  0  0  0  0  0  0  0  0
  139.4780   68.4990  224.7160 N   0  0  0  0  0  0  0  0  0  0  0  0
  139.4480   68.1790  226.1250 C   0  0  0  0  0  0  0  0  0  0  0  0
  140.7050   68.5430  226.8390 C   0  0  0  0  0  0  0  0  0  0  0  0
  140.3750   68.8770  228.2750 C   0  0  0  0  0  0  0  0  0  0  0  0
  139.6510   70.1990  228.3460 C   0  0  0  0  0  0  0  0  0  0  0  0
  140.6410   71.2580  227.8880 C   0  0  0  0  0  0  0  0  0  0  0  0
  141.0380   71.0180  226.4730 C   0  0  0  0  0  0  0  0  0  0  0  0
  141.4620   69.6260  226.1440 C   0  0  0  0  0  0  0  0  0  0  0  0
  139.7660   70.4800  223.4630 N   0  0  0  0  0  0  0  0  0  0  0  0
  139.2690   71.6150  222.9360 C   0  0  0  0  0  0  0  0  0  0  0  0
  140.1510   72.4720  222.1800 N   0  0  0  0  0  0  0  0  0  0  0  0
  139.7250   73.8280  221.9960 C   0  0  0  0  0  0  0  0  0  0  0  0
  140.1720   74.3720  220.6320 C   0  0  0  0  0  0  0  0  0  0  0  0
  141.6490   74.1150  220.4750 C   0  0  0  0  0  0  0  0  0  0  0  0
  142.4450   75.0400  219.8410 C   0  0  0  0  0  0  0  0  0  0  0  0
  143.8080   74.7870  219.7080 C   0  0  0  0  0  0  0  0  0  0  0  0
  144.3640   73.6100  220.2100 C   0  0  0  0  0  0  0  0  0  0  0  0
  143.5270   72.7120  220.8390 C   0  0  0  0  0  0  0  0  0  0  0  0
  142.1620   72.9440  220.9840 C   0  0  0  0  0  0  0  0  0  0  0  0
  141.3770   71.9090  221.6730 C   0  0  0  0  0  0  0  0  0  0  0  0
  137.9630   71.9490  223.1130 N   0  0  0  0  0  0  0  0  0  0  0  0
  135.4270   72.9860  223.9320 C   0  0  0  0  0  0  0  0  0  0  0  0
  132.1370   74.0313  228.0746 H   0  0  0  0  0  0  0  0  0  0  0  0
  133.1437   75.8802  226.7142 H   0  0  0  0  0  0  0  0  0  0  0  0
  134.6515   75.3628  224.8196 H   0  0  0  0  0  0  0  0  0  0  0  0
  132.6832   71.6834  227.4768 H   0  0  0  0  0  0  0  0  0  0  0  0
  134.9765   70.3842  226.2662 H   0  0  0  0  0  0  0  0  0  0  0  0
  133.2925   70.1769  225.7243 H   0  0  0  0  0  0  0  0  0  0  0  0
  135.0481   69.6103  223.9649 H   0  0  0  0  0  0  0  0  0  0  0  0
  133.8789   70.8566  223.4464 H   0  0  0  0  0  0  0  0  0  0  0  0
  139.9210   67.8460  224.0040 H   0  0  0  0  0  0  0  0  0  0  0  0
  138.6126   68.7237  226.5891 H   0  0  0  0  0  0  0  0  0  0  0  0
  139.3294   67.0886  226.2091 H   0  0  0  0  0  0  0  0  0  0  0  0
  141.3867   67.6797  226.8316 H   0  0  0  0  0  0  0  0  0  0  0  0
  139.7335   68.0878  228.6940 H   0  0  0  0  0  0  0  0  0  0  0  0
  141.3086   68.9460  228.8526 H   0  0  0  0  0  0  0  0  0  0  0  0
  138.7730   70.1876  227.6834 H   0  0  0  0  0  0  0  0  0  0  0  0
  139.2938   70.4028  229.3662 H   0  0  0  0  0  0  0  0  0  0  0  0
  140.1743   72.2507  227.9704 H   0  0  0  0  0  0  0  0  0  0  0  0
  141.5371   71.2085  228.5240 H   0  0  0  0  0  0  0  0  0  0  0  0
  140.1782   71.2686  225.8343 H   0  0  0  0  0  0  0  0  0  0  0  0
  141.9229   71.6482  226.3004 H   0  0  0  0  0  0  0  0  0  0  0  0
  141.3414   69.4821  225.0601 H   0  0  0  0  0  0  0  0  0  0  0  0
  142.5025   69.5373  226.4897 H   0  0  0  0  0  0  0  0  0  0  0  0
  138.6275   73.8703  222.0566 H   0  0  0  0  0  0  0  0  0  0  0  0
  140.1820   74.4457  222.7832 H   0  0  0  0  0  0  0  0  0  0  0  0
  139.6192   73.8614  219.8297 H   0  0  0  0  0  0  0  0  0  0  0  0
  139.9689   75.4514  220.5719 H   0  0  0  0  0  0  0  0  0  0  0  0
  142.0102   75.9690  219.4435 H   0  0  0  0  0  0  0  0  0  0  0  0
  144.4520   75.5217  219.2026 H   0  0  0  0  0  0  0  0  0  0  0  0
  145.4396   73.4039  220.1071 H   0  0  0  0  0  0  0  0  0  0  0  0
  143.9528   71.7803  221.2399 H   0  0  0  0  0  0  0  0  0  0  0  0
  141.1407   71.1005  220.9655 H   0  0  0  0  0  0  0  0  0  0  0  0
  141.9649   71.5114  222.5134 H   0  0  0  0  0  0  0  0  0  0  0  0
  136.3326   73.6021  224.0332 H   0  0  0  0  0  0  0  0  0  0  0  0
  134.9467   73.2586  222.9807 H   0  0  0  0  0  0  0  0  0  0  0  0
  1  2  2  0
  2  3  1  0
  3  4  2  0
  4  5  1  0
  5  6  2  0
  5  7  1  0
  7  8  1  0
  8  9  1  0
  9 10  1  0
 10 11  2  0
 11 12  1  0
 12 13  1  0
 13 14  1  0
 14 15  1  0
 15 16  1  0
 16 17  1  0
 17 18  1  0
 18 19  1  0
 19 20  1  0
 12 21  2  0
 21 22  1  0
 22 23  1  0
 23 24  1  0
 24 25  1  0
 25 26  1  0
 26 27  2  0
 27 28  1  0
 28 29  2  0
 29 30  1  0
 30 31  2  0
 31 32  1  0
 22 33  2  0
  9 34  1  0
  6  1  1  0
 33 10  1  0
 34  4  1  0
 20 15  1  0
 32 23  1  0
 31 26  1  0
  1 35  1  0
  2 36  1  0
  3 37  1  0
  6 38  1  0
  7 39  1  0
  7 40  1  0
  8 41  1  0
  8 42  1  0
 13 43  1  0
 14 44  1  0
 14 45  1  0
 15 46  1  0
 16 47  1  0
 16 48  1  0
 17 49  1  0
 17 50  1  0
 18 51  1  0
 18 52  1  0
 19 53  1  0
 19 54  1  0
 20 55  1  0
 20 56  1  0
 24 57  1  0
 24 58  1  0
 25 59  1  0
 25 60  1  0
 27 61  1  0
 28 62  1  0
 29 63  1  0
 30 64  1  0
 32 65  1  0
 32 66  1  0
 34 67  1  0
 34 68  1  0
M  END
>  <smiles>  (15) 
c1ccc2c(c1)CCN(c1nc(NCC3CCCCC3)nc(N3CCc4ccccc4C3)n1)C2

>  <score_type>  (15) 
oracle

>  <origin>  (15) 
autodockgpu

>  <m_score__min__energy>  (15) 
-10.220000000000001

>  <m_primary>  (15) 
energy

>  <rmsd>  (15) 
10.837069982081271

>  <m_score__min__rmsd>  (15) 
10.837069982081271

>  <meeko>  (15) 
{"free_energy": -9.3, "intermolecular_energy": -10.79, "internal_energy": -1.5, "cluster_size": 4, "cluster_id": 4, "rank_in_cluster": 4}

>  <energy>  (15) 
-9.77

>  <cluster_rmsd>  (15) 
1.0

>  <cluster>  (15) 
1

$$$$

     RDKit          3D

 68 73  0  0  0  0  0  0  0  0999 V2000
  140.6840   79.9050  223.5090 C   0  0  0  0  0  0  0  0  0  0  0  0
  141.7170   79.8580  222.5750 C   0  0  0  0  0  0  0  0  0  0  0  0
  141.8140   78.8050  221.6780 C   0  0  0  0  0  0  0  0  0  0  0  0
  140.8750   77.7720  221.6940 C   0  0  0  0  0  0  0  0  0  0  0  0
  139.8510   77.8110  222.6140 C   0  0  0  0  0  0  0  0  0  0  0  0
  139.7660   78.8710  223.5070 C   0  0  0  0  0  0  0  0  0  0  0  0
  138.8000   76.7690  222.7210 C   0  0  0  0  0  0  0  0  0  0  0  0
  138.7660   76.0270  221.4070 C   0  0  0  0  0  0  0  0  0  0  0  0
  140.1050   75.6200  221.0910 N   0  0  0  0  0  0  0  0  0  0  0  0
  140.5390   74.2850  221.1410 C   0  0  0  0  0  0  0  0  0  0  0  0
  141.2710   73.6900  220.1800 N   0  0  0  0  0  0  0  0  0  0  0  0
  141.6740   72.4060  220.2640 C   0  0  0  0  0  0  0  0  0  0  0  0
  142.4450   71.7750  219.2470 N   0  0  0  0  0  0  0  0  0  0  0  0
  143.7700   71.2400  219.4640 C   0  0  0  0  0  0  0  0  0  0  0  0
  144.8570   72.1480  219.0010 C   0  0  0  0  0  0  0  0  0  0  0  0
  145.9070   72.2480  220.0820 C   0  0  0  0  0  0  0  0  0  0  0  0
  145.3800   73.0560  221.2420 C   0  0  0  0  0  0  0  0  0  0  0  0
  145.1760   74.4700  220.7270 C   0  0  0  0  0  0  0  0  0  0  0  0
  144.1520   74.4850  219.6450 C   0  0  0  0  0  0  0  0  0  0  0  0
  144.3390   73.4780  218.5600 C   0  0  0  0  0  0  0  0  0  0  0  0
  141.3500   71.6530  221.3360 N   0  0  0  0  0  0  0  0  0  0  0  0
  140.6170   72.2270  222.3090 C   0  0  0  0  0  0  0  0  0  0  0  0
  140.2600   71.4370  223.4640 N   0  0  0  0  0  0  0  0  0  0  0  0
  139.4980   70.2480  223.2170 C   0  0  0  0  0  0  0  0  0  0  0  0
  138.5130   69.9710  224.3600 C   0  0  0  0  0  0  0  0  0  0  0  0
  139.2680   70.0140  225.6640 C   0  0  0  0  0  0  0  0  0  0  0  0
  138.9410   69.1460  226.6790 C   0  0  0  0  0  0  0  0  0  0  0  0
  139.6510   69.1990  227.8750 C   0  0  0  0  0  0  0  0  0  0  0  0
  140.6840   70.1200  228.0470 C   0  0  0  0  0  0  0  0  0  0  0  0
  140.9770   70.9710  227.0020 C   0  0  0  0  0  0  0  0  0  0  0  0
  140.2800   70.9370  225.7980 C   0  0  0  0  0  0  0  0  0  0  0  0
  140.6880   71.8970  224.7610 C   0  0  0  0  0  0  0  0  0  0  0  0
  140.2210   73.5240  222.2080 N   0  0  0  0  0  0  0  0  0  0  0  0
  141.0430   76.6770  220.7010 C   0  0  0  0  0  0  0  0  0  0  0  0
  140.6016   80.7369  224.2240 H   0  0  0  0  0  0  0  0  0  0  0  0
  142.4638   80.6652  222.5490 H   0  0  0  0  0  0  0  0  0  0  0  0
  142.6369   78.7834  220.9484 H   0  0  0  0  0  0  0  0  0  0  0  0
  138.9423   78.8887  224.2359 H   0  0  0  0  0  0  0  0  0  0  0  0
  139.0410   76.0743  223.5391 H   0  0  0  0  0  0  0  0  0  0  0  0
  137.8219   77.2240  222.9360 H   0  0  0  0  0  0  0  0  0  0  0  0
  138.1182   75.1423  221.4949 H   0  0  0  0  0  0  0  0  0  0  0  0
  138.3671   76.6754  220.6130 H   0  0  0  0  0  0  0  0  0  0  0  0
  141.9700   71.7250  218.2970 H   0  0  0  0  0  0  0  0  0  0  0  0
  143.9013   71.0596  220.5411 H   0  0  0  0  0  0  0  0  0  0  0  0
  143.8471   70.3139  218.8754 H   0  0  0  0  0  0  0  0  0  0  0  0
  145.3254   71.7212  218.1019 H   0  0  0  0  0  0  0  0  0  0  0  0
  146.1678   71.2379  220.4307 H   0  0  0  0  0  0  0  0  0  0  0  0
  146.7994   72.7442  219.6729 H   0  0  0  0  0  0  0  0  0  0  0  0
  144.4249   72.6382  221.5931 H   0  0  0  0  0  0  0  0  0  0  0  0
  146.0815   73.0391  222.0891 H   0  0  0  0  0  0  0  0  0  0  0  0
  144.8390   75.1121  221.5541 H   0  0  0  0  0  0  0  0  0  0  0  0
  146.1283   74.8438  220.3228 H   0  0  0  0  0  0  0  0  0  0  0  0
  143.1701   74.3049  220.1070 H   0  0  0  0  0  0  0  0  0  0  0  0
  144.2446   75.4678  219.1597 H   0  0  0  0  0  0  0  0  0  0  0  0
  143.3653   73.3185  218.0738 H   0  0  0  0  0  0  0  0  0  0  0  0
  145.1055   73.8942  217.8898 H   0  0  0  0  0  0  0  0  0  0  0  0
  138.9347   70.3713  222.2803 H   0  0  0  0  0  0  0  0  0  0  0  0
  140.1931   69.3986  223.1436 H   0  0  0  0  0  0  0  0  0  0  0  0
  137.7235   70.7369  224.3631 H   0  0  0  0  0  0  0  0  0  0  0  0
  138.0489   68.9828  224.2260 H   0  0  0  0  0  0  0  0  0  0  0  0
  138.1272   68.4177  226.5473 H   0  0  0  0  0  0  0  0  0  0  0  0
  139.3950   68.5082  228.6919 H   0  0  0  0  0  0  0  0  0  0  0  0
  141.2492   70.1664  228.9896 H   0  0  0  0  0  0  0  0  0  0  0  0
  141.7898   71.7020  227.1245 H   0  0  0  0  0  0  0  0  0  0  0  0
  140.2294   72.8748  224.9698 H   0  0  0  0  0  0  0  0  0  0  0  0
  141.7842   71.9887  224.7667 H   0  0  0  0  0  0  0  0  0  0  0  0
  142.0752   76.2975  220.7236 H   0  0  0  0  0  0  0  0  0  0  0  0
  140.8441   77.0306  219.6786 H   0  0  0  0  0  0  0  0  0  0  0  0
  1  2  2  0
  2  3  1  0
  3  4  2  0
  4  5  1  0
  5  6  2  0
  5  7  1  0
  7  8  1  0
  8  9  1  0
  9 10  1  0
 10 11  2  0
 11 12  1  0
 12 13  1  0
 13 14  1  0
 14 15  1  0
 15 16  1  0
 16 17  1  0
 17 18  1  0
 18 19  1  0
 19 20  1  0
 12 21  2  0
 21 22  1  0
 22 23  1  0
 23 24  1  0
 24 25  1  0
 25 26  1  0
 26 27  2  0
 27 28  1  0
 28 29  2  0
 29 30  1  0
 30 31  2  0
 31 32  1  0
 22 33  2  0
  9 34  1  0
  6  1  1  0
 33 10  1  0
 34  4  1  0
 20 15  1  0
 32 23  1  0
 31 26  1  0
  1 35  1  0
  2 36  1  0
  3 37  1  0
  6 38  1  0
  7 39  1  0
  7 40  1  0
  8 41  1  0
  8 42  1  0
 13 43  1  0
 14 44  1  0
 14 45  1  0
 15 46  1  0
 16 47  1  0
 16 48  1  0
 17 49  1  0
 17 50  1  0
 18 51  1  0
 18 52  1  0
 19 53  1  0
 19 54  1  0
 20 55  1  0
 20 56  1  0
 24 57  1  0
 24 58  1  0
 25 59  1  0
 25 60  1  0
 27 61  1  0
 28 62  1  0
 29 63  1  0
 30 64  1  0
 32 65  1  0
 32 66  1  0
 34 67  1  0
 34 68  1  0
M  END
>  <smiles>  (16) 
c1ccc2c(c1)CCN(c1nc(NCC3CCCCC3)nc(N3CCc4ccccc4C3)n1)C2

>  <score_type>  (16) 
oracle

>  <origin>  (16) 
autodockgpu

>  <m_score__min__energy>  (16) 
-10.220000000000001

>  <m_primary>  (16) 
energy

>  <rmsd>  (16) 
4.935517688875511

>  <m_score__min__rmsd>  (16) 
4.935517688875511

>  <meeko>  (16) 
{"free_energy": -9.68, "intermolecular_energy": -11.17, "internal_energy": -1.56, "cluster_size": 23, "cluster_id": 2, "rank_in_cluster": 10}

>  <energy>  (16) 
-9.63

>  <cluster_rmsd>  (16) 
0.99

>  <cluster>  (16) 
1

$$$$

     RDKit          3D

 68 73  0  0  0  0  0  0  0  0999 V2000
  140.8500   80.3050  223.5600 C   0  0  0  0  0  0  0  0  0  0  0  0
  142.0500   80.0270  222.9080 C   0  0  0  0  0  0  0  0  0  0  0  0
  142.1980   78.8690  222.1610 C   0  0  0  0  0  0  0  0  0  0  0  0
  141.1460   77.9590  222.0470 C   0  0  0  0  0  0  0  0  0  0  0  0
  139.9570   78.2270  222.6880 C   0  0  0  0  0  0  0  0  0  0  0  0
  139.8220   79.3910  223.4340 C   0  0  0  0  0  0  0  0  0  0  0  0
  138.7740   77.3330  222.6360 C   0  0  0  0  0  0  0  0  0  0  0  0
  138.9330   76.4450  221.4260 C   0  0  0  0  0  0  0  0  0  0  0  0
  140.2390   75.8520  221.4770 N   0  0  0  0  0  0  0  0  0  0  0  0
  140.4600   74.4930  221.7510 C   0  0  0  0  0  0  0  0  0  0  0  0
  139.6840   73.7460  222.5590 N   0  0  0  0  0  0  0  0  0  0  0  0
  139.9260   72.4410  222.7970 C   0  0  0  0  0  0  0  0  0  0  0  0
  139.1070   71.6530  223.6540 N   0  0  0  0  0  0  0  0  0  0  0  0
  139.6280   70.6710  224.5770 C   0  0  0  0  0  0  0  0  0  0  0  0
  140.8170   71.1480  225.3380 C   0  0  0  0  0  0  0  0  0  0  0  0
  141.7380   69.9790  225.5940 C   0  0  0  0  0  0  0  0  0  0  0  0
  141.1320   69.0570  226.6240 C   0  0  0  0  0  0  0  0  0  0  0  0
  141.0800   69.8390  227.9250 C   0  0  0  0  0  0  0  0  0  0  0  0
  140.1920   71.0270  227.7810 C   0  0  0  0  0  0  0  0  0  0  0  0
  140.4390   71.8810  226.5840 C   0  0  0  0  0  0  0  0  0  0  0  0
  140.9780   71.8220  222.2220 N   0  0  0  0  0  0  0  0  0  0  0  0
  141.7690   72.5490  221.4100 C   0  0  0  0  0  0  0  0  0  0  0  0
  142.9010   71.9050  220.7860 N   0  0  0  0  0  0  0  0  0  0  0  0
  144.1510   72.6030  220.8500 C   0  0  0  0  0  0  0  0  0  0  0  0
  144.9880   72.3590  219.5860 C   0  0  0  0  0  0  0  0  0  0  0  0
  145.0710   70.8740  219.3450 C   0  0  0  0  0  0  0  0  0  0  0  0
  146.2300   70.3190  218.8550 C   0  0  0  0  0  0  0  0  0  0  0  0
  146.2880   68.9440  218.6420 C   0  0  0  0  0  0  0  0  0  0  0  0
  145.1870   68.1350  218.9190 C   0  0  0  0  0  0  0  0  0  0  0  0
  144.0460   68.7350  219.4090 C   0  0  0  0  0  0  0  0  0  0  0  0
  143.9640   70.1070  219.6310 C   0  0  0  0  0  0  0  0  0  0  0  0
  142.6920   70.6260  220.1550 C   0  0  0  0  0  0  0  0  0  0  0  0
  141.5090   73.8640  221.1810 N   0  0  0  0  0  0  0  0  0  0  0  0
  141.3780   76.7410  221.2270 C   0  0  0  0  0  0  0  0  0  0  0  0
  140.7257   81.2217  224.1551 H   0  0  0  0  0  0  0  0  0  0  0  0
  142.8887   80.7343  222.9871 H   0  0  0  0  0  0  0  0  0  0  0  0
  143.1526   78.6655  221.6537 H   0  0  0  0  0  0  0  0  0  0  0  0
  138.8663   79.5912  223.9404 H   0  0  0  0  0  0  0  0  0  0  0  0
  138.7252   76.7204  223.5483 H   0  0  0  0  0  0  0  0  0  0  0  0
  137.8461   77.9198  222.5682 H   0  0  0  0  0  0  0  0  0  0  0  0
  138.1651   75.6574  221.4379 H   0  0  0  0  0  0  0  0  0  0  0  0
  138.8171   77.0331  220.5037 H   0  0  0  0  0  0  0  0  0  0  0  0
  138.0640   71.8400  223.5660 H   0  0  0  0  0  0  0  0  0  0  0  0
  138.8356   70.4116  225.2945 H   0  0  0  0  0  0  0  0  0  0  0  0
  139.9494   69.8036  223.9818 H   0  0  0  0  0  0  0  0  0  0  0  0
  141.3588   71.8897  224.7327 H   0  0  0  0  0  0  0  0  0  0  0  0
  141.8924   69.4253  224.6561 H   0  0  0  0  0  0  0  0  0  0  0  0
  142.7011   70.3550  225.9696 H   0  0  0  0  0  0  0  0  0  0  0  0
  140.1179   68.7599  226.3184 H   0  0  0  0  0  0  0  0  0  0  0  0
  141.7273   68.1387  226.7353 H   0  0  0  0  0  0  0  0  0  0  0  0
  140.6905   69.1897  228.7230 H   0  0  0  0  0  0  0  0  0  0  0  0
  142.0948   70.1802  228.1774 H   0  0  0  0  0  0  0  0  0  0  0  0
  139.1535   70.6679  227.7308 H   0  0  0  0  0  0  0  0  0  0  0  0
  140.4034   71.6651  228.6517 H   0  0  0  0  0  0  0  0  0  0  0  0
  139.5199   72.4491  226.3775 H   0  0  0  0  0  0  0  0  0  0  0  0
  141.3033   72.5128  226.8368 H   0  0  0  0  0  0  0  0  0  0  0  0
  143.9555   73.6810  220.9484 H   0  0  0  0  0  0  0  0  0  0  0  0
  144.7142   72.2304  221.7183 H   0  0  0  0  0  0  0  0  0  0  0  0
  144.5100   72.8483  218.7246 H   0  0  0  0  0  0  0  0  0  0  0  0
  145.9975   72.7759  219.7169 H   0  0  0  0  0  0  0  0  0  0  0  0
  147.1008   70.9536  218.6339 H   0  0  0  0  0  0  0  0  0  0  0  0
  147.2116   68.4919  218.2514 H   0  0  0  0  0  0  0  0  0  0  0  0
  145.2272   67.0486  218.7515 H   0  0  0  0  0  0  0  0  0  0  0  0
  143.1703   68.1078  219.6322 H   0  0  0  0  0  0  0  0  0  0  0  0
  141.9774   70.7414  219.3267 H   0  0  0  0  0  0  0  0  0  0  0  0
  142.2934   69.9191  220.8976 H   0  0  0  0  0  0  0  0  0  0  0  0
  142.3160   76.2520  221.5287 H   0  0  0  0  0  0  0  0  0  0  0  0
  141.4639   76.9892  220.1588 H   0  0  0  0  0  0  0  0  0  0  0  0
  1  2  2  0
  2  3  1  0
  3  4  2  0
  4  5  1  0
  5  6  2  0
  5  7  1  0
  7  8  1  0
  8  9  1  0
  9 10  1  0
 10 11  2  0
 11 12  1  0
 12 13  1  0
 13 14  1  0
 14 15  1  0
 15 16  1  0
 16 17  1  0
 17 18  1  0
 18 19  1  0
 19 20  1  0
 12 21  2  0
 21 22  1  0
 22 23  1  0
 23 24  1  0
 24 25  1  0
 25 26  1  0
 26 27  2  0
 27 28  1  0
 28 29  2  0
 29 30  1  0
 30 31  2  0
 31 32  1  0
 22 33  2  0
  9 34  1  0
  6  1  1  0
 33 10  1  0
 34  4  1  0
 20 15  1  0
 32 23  1  0
 31 26  1  0
  1 35  1  0
  2 36  1  0
  3 37  1  0
  6 38  1  0
  7 39  1  0
  7 40  1  0
  8 41  1  0
  8 42  1  0
 13 43  1  0
 14 44  1  0
 14 45  1  0
 15 46  1  0
 16 47  1  0
 16 48  1  0
 17 49  1  0
 17 50  1  0
 18 51  1  0
 18 52  1  0
 19 53  1  0
 19 54  1  0
 20 55  1  0
 20 56  1  0
 24 57  1  0
 24 58  1  0
 25 59  1  0
 25 60  1  0
 27 61  1  0
 28 62  1  0
 29 63  1  0
 30 64  1  0
 32 65  1  0
 32 66  1  0
 34 67  1  0
 34 68  1  0
M  END
>  <smiles>  (17) 
c1ccc2c(c1)CCN(c1nc(NCC3CCCCC3)nc(N3CCc4ccccc4C3)n1)C2

>  <score_type>  (17) 
oracle

>  <origin>  (17) 
autodockgpu

>  <m_score__min__energy>  (17) 
-10.220000000000001

>  <m_primary>  (17) 
energy

>  <rmsd>  (17) 
5.073092516479175

>  <m_score__min__rmsd>  (17) 
5.073092516479175

>  <meeko>  (17) 
{"free_energy": -9.91, "intermolecular_energy": -11.4, "internal_energy": -1.19, "cluster_size": 20, "cluster_id": 1, "rank_in_cluster": 11}

>  <energy>  (17) 
-9.62

>  <cluster_rmsd>  (17) 
0.87

>  <cluster>  (17) 
1

$$$$

     RDKit          3D

 68 73  0  0  0  0  0  0  0  0999 V2000
  140.7540   79.8740  223.5200 C   0  0  0  0  0  0  0  0  0  0  0  0
  141.7850   79.8470  222.5830 C   0  0  0  0  0  0  0  0  0  0  0  0
  141.8860   78.8070  221.6710 C   0  0  0  0  0  0  0  0  0  0  0  0
  140.9530   77.7680  221.6740 C   0  0  0  0  0  0  0  0  0  0  0  0
  139.9310   77.7890  222.5970 C   0  0  0  0  0  0  0  0  0  0  0  0
  139.8420   78.8360  223.5060 C   0  0  0  0  0  0  0  0  0  0  0  0
  138.8860   76.7390  222.6910 C   0  0  0  0  0  0  0  0  0  0  0  0
  138.8530   76.0160  221.3670 C   0  0  0  0  0  0  0  0  0  0  0  0
  140.1940   75.6210  221.0420 N   0  0  0  0  0  0  0  0  0  0  0  0
  140.6360   74.2890  221.0720 C   0  0  0  0  0  0  0  0  0  0  0  0
  141.3710   73.7120  220.1020 N   0  0  0  0  0  0  0  0  0  0  0  0
  141.7810   72.4290  220.1660 C   0  0  0  0  0  0  0  0  0  0  0  0
  142.5570   71.8190  219.1400 N   0  0  0  0  0  0  0  0  0  0  0  0
  142.9260   72.4860  217.9130 C   0  0  0  0  0  0  0  0  0  0  0  0
  144.1950   73.2610  218.0210 C   0  0  0  0  0  0  0  0  0  0  0  0
  145.3400   72.3000  218.2430 C   0  0  0  0  0  0  0  0  0  0  0  0
  145.2730   71.7290  219.6380 C   0  0  0  0  0  0  0  0  0  0  0  0
  145.5100   72.8880  220.5910 C   0  0  0  0  0  0  0  0  0  0  0  0
  144.4290   73.9040  220.4510 C   0  0  0  0  0  0  0  0  0  0  0  0
  144.1200   74.3340  219.0560 C   0  0  0  0  0  0  0  0  0  0  0  0
  141.4610   71.6580  221.2260 N   0  0  0  0  0  0  0  0  0  0  0  0
  140.7260   72.2130  222.2090 C   0  0  0  0  0  0  0  0  0  0  0  0
  140.3730   71.4040  223.3510 N   0  0  0  0  0  0  0  0  0  0  0  0
  139.6890   70.1740  223.0780 C   0  0  0  0  0  0  0  0  0  0  0  0
  138.6810   69.8410  224.1870 C   0  0  0  0  0  0  0  0  0  0  0  0
  139.3850   69.9260  225.5160 C   0  0  0  0  0  0  0  0  0  0  0  0
  139.0720   69.0400  226.5200 C   0  0  0  0  0  0  0  0  0  0  0  0
  139.7350   69.1320  227.7410 C   0  0  0  0  0  0  0  0  0  0  0  0
  140.7080   70.1100  227.9480 C   0  0  0  0  0  0  0  0  0  0  0  0
  140.9890   70.9770  226.9130 C   0  0  0  0  0  0  0  0  0  0  0  0
  140.3390   70.9040  225.6850 C   0  0  0  0  0  0  0  0  0  0  0  0
  140.7280   71.8860  224.6620 C   0  0  0  0  0  0  0  0  0  0  0  0
  140.3220   73.5090  222.1270 N   0  0  0  0  0  0  0  0  0  0  0  0
  141.1250   76.6900  220.6660 C   0  0  0  0  0  0  0  0  0  0  0  0
  140.6689   80.6949  224.2472 H   0  0  0  0  0  0  0  0  0  0  0  0
  142.5267   80.6592  222.5665 H   0  0  0  0  0  0  0  0  0  0  0  0
  142.7075   78.8005  220.9395 H   0  0  0  0  0  0  0  0  0  0  0  0
  139.0201   78.8387  224.2371 H   0  0  0  0  0  0  0  0  0  0  0  0
  139.1329   76.0339  223.4984 H   0  0  0  0  0  0  0  0  0  0  0  0
  137.9058   77.1853  222.9145 H   0  0  0  0  0  0  0  0  0  0  0  0
  138.2104   75.1265  221.4437 H   0  0  0  0  0  0  0  0  0  0  0  0
  138.4485   76.6735  220.5834 H   0  0  0  0  0  0  0  0  0  0  0  0
  142.8520   70.8170  219.3430 H   0  0  0  0  0  0  0  0  0  0  0  0
  143.0464   71.7272  217.1258 H   0  0  0  0  0  0  0  0  0  0  0  0
  142.1255   73.2032  217.6789 H   0  0  0  0  0  0  0  0  0  0  0  0
  144.3717   73.7980  217.0774 H   0  0  0  0  0  0  0  0  0  0  0  0
  145.2753   71.4814  217.5111 H   0  0  0  0  0  0  0  0  0  0  0  0
  146.2914   72.8379  218.1189 H   0  0  0  0  0  0  0  0  0  0  0  0
  144.2834   71.2843  219.8193 H   0  0  0  0  0  0  0  0  0  0  0  0
  146.0237   70.9376  219.7801 H   0  0  0  0  0  0  0  0  0  0  0  0
  145.5218   72.5111  221.6244 H   0  0  0  0  0  0  0  0  0  0  0  0
  146.4749   73.3575  220.3493 H   0  0  0  0  0  0  0  0  0  0  0  0
  143.5107   73.4821  220.8856 H   0  0  0  0  0  0  0  0  0  0  0  0
  144.7953   74.8037  220.9672 H   0  0  0  0  0  0  0  0  0  0  0  0
  143.0992   74.7437  219.0460 H   0  0  0  0  0  0  0  0  0  0  0  0
  144.8948   75.0671  218.7875 H   0  0  0  0  0  0  0  0  0  0  0  0
  139.1530   70.2662  222.1219 H   0  0  0  0  0  0  0  0  0  0  0  0
  140.4330   69.3652  223.0294 H   0  0  0  0  0  0  0  0  0  0  0  0
  137.8498   70.5610  224.1610 H   0  0  0  0  0  0  0  0  0  0  0  0
  138.2789   68.8280  224.0383 H   0  0  0  0  0  0  0  0  0  0  0  0
  138.3061   68.2668  226.3603 H   0  0  0  0  0  0  0  0  0  0  0  0
  139.4894   68.4275  228.5493 H   0  0  0  0  0  0  0  0  0  0  0  0
  141.2362   70.1875  228.9097 H   0  0  0  0  0  0  0  0  0  0  0  0
  141.7537   71.7533  227.0636 H   0  0  0  0  0  0  0  0  0  0  0  0
  140.2076   72.8360  224.8534 H   0  0  0  0  0  0  0  0  0  0  0  0
  141.8164   72.0393  224.7062 H   0  0  0  0  0  0  0  0  0  0  0  0
  142.1595   76.3165  220.6808 H   0  0  0  0  0  0  0  0  0  0  0  0
  140.9214   77.0576  219.6494 H   0  0  0  0  0  0  0  0  0  0  0  0
  1  2  2  0
  2  3  1  0
  3  4  2  0
  4  5  1  0
  5  6  2  0
  5  7  1  0
  7  8  1  0
  8  9  1  0
  9 10  1  0
 10 11  2  0
 11 12  1  0
 12 13  1  0
 13 14  1  0
 14 15  1  0
 15 16  1  0
 16 17  1  0
 17 18  1  0
 18 19  1  0
 19 20  1  0
 12 21  2  0
 21 22  1  0
 22 23  1  0
 23 24  1  0
 24 25  1  0
 25 26  1  0
 26 27  2  0
 27 28  1  0
 28 29  2  0
 29 30  1  0
 30 31  2  0
 31 32  1  0
 22 33  2  0
  9 34  1  0
  6  1  1  0
 33 10  1  0
 34  4  1  0
 20 15  1  0
 32 23  1  0
 31 26  1  0
  1 35  1  0
  2 36  1  0
  3 37  1  0
  6 38  1  0
  7 39  1  0
  7 40  1  0
  8 41  1  0
  8 42  1  0
 13 43  1  0
 14 44  1  0
 14 45  1  0
 15 46  1  0
 16 47  1  0
 16 48  1  0
 17 49  1  0
 17 50  1  0
 18 51  1  0
 18 52  1  0
 19 53  1  0
 19 54  1  0
 20 55  1  0
 20 56  1  0
 24 57  1  0
 24 58  1  0
 25 59  1  0
 25 60  1  0
 27 61  1  0
 28 62  1  0
 29 63  1  0
 30 64  1  0
 32 65  1  0
 32 66  1  0
 34 67  1  0
 34 68  1  0
M  END
>  <smiles>  (18) 
c1ccc2c(c1)CCN(c1nc(NCC3CCCCC3)nc(N3CCc4ccccc4C3)n1)C2

>  <score_type>  (18) 
oracle

>  <origin>  (18) 
autodockgpu

>  <m_score__min__energy>  (18) 
-10.220000000000001

>  <m_primary>  (18) 
energy

>  <rmsd>  (18) 
4.925608110145089

>  <m_score__min__rmsd>  (18) 
4.925608110145089

>  <meeko>  (18) 
{"free_energy": -9.25, "intermolecular_energy": -10.74, "internal_energy": -1.21, "cluster_size": 23, "cluster_id": 2, "rank_in_cluster": 19}

>  <energy>  (18) 
-9.59

>  <cluster_rmsd>  (18) 
0.88

>  <cluster>  (18) 
1

$$$$

     RDKit          3D

 68 73  0  0  0  0  0  0  0  0999 V2000
  132.8020   74.0530  227.2150 C   0  0  0  0  0  0  0  0  0  0  0  0
  133.4030   75.0860  226.4970 C   0  0  0  0  0  0  0  0  0  0  0  0
  134.2550   74.8090  225.4390 C   0  0  0  0  0  0  0  0  0  0  0  0
  134.5250   73.4900  225.0720 C   0  0  0  0  0  0  0  0  0  0  0  0
  133.9340   72.4650  225.7760 C   0  0  0  0  0  0  0  0  0  0  0  0
  133.0840   72.7550  226.8350 C   0  0  0  0  0  0  0  0  0  0  0  0
  134.1500   71.0270  225.4750 C   0  0  0  0  0  0  0  0  0  0  0  0
  134.6520   70.9350  224.0540 C   0  0  0  0  0  0  0  0  0  0  0  0
  135.7580   71.8390  223.9140 N   0  0  0  0  0  0  0  0  0  0  0  0
  137.0890   71.4140  223.7710 C   0  0  0  0  0  0  0  0  0  0  0  0
  137.5810   70.2730  224.2890 N   0  0  0  0  0  0  0  0  0  0  0  0
  138.8650   69.8960  224.1290 C   0  0  0  0  0  0  0  0  0  0  0  0
  139.3860   68.6910  224.6790 N   0  0  0  0  0  0  0  0  0  0  0  0
  139.5330   68.4560  226.0970 C   0  0  0  0  0  0  0  0  0  0  0  0
  140.8580   68.8820  226.6320 C   0  0  0  0  0  0  0  0  0  0  0  0
  140.7230   69.1660  228.1090 C   0  0  0  0  0  0  0  0  0  0  0  0
  139.9440   70.4400  228.3220 C   0  0  0  0  0  0  0  0  0  0  0  0
  140.7930   71.5660  227.7560 C   0  0  0  0  0  0  0  0  0  0  0  0
  140.9920   71.3790  226.2920 C   0  0  0  0  0  0  0  0  0  0  0  0
  141.4410   70.0230  225.8650 C   0  0  0  0  0  0  0  0  0  0  0  0
  139.7240   70.6660  223.4290 N   0  0  0  0  0  0  0  0  0  0  0  0
  139.2550   71.8120  222.9010 C   0  0  0  0  0  0  0  0  0  0  0  0
  140.1600   72.6500  222.1490 N   0  0  0  0  0  0  0  0  0  0  0  0
  139.7670   74.0160  221.9680 C   0  0  0  0  0  0  0  0  0  0  0  0
  140.2310   74.5530  220.6070 C   0  0  0  0  0  0  0  0  0  0  0  0
  141.7010   74.2600  220.4530 C   0  0  0  0  0  0  0  0  0  0  0  0
  142.5210   75.1670  219.8220 C   0  0  0  0  0  0  0  0  0  0  0  0
  143.8780   74.8810  219.6910 C   0  0  0  0  0  0  0  0  0  0  0  0
  144.4030   73.6900  220.1920 C   0  0  0  0  0  0  0  0  0  0  0  0
  143.5430   72.8110  220.8160 C   0  0  0  0  0  0  0  0  0  0  0  0
  142.1840   73.0760  220.9590 C   0  0  0  0  0  0  0  0  0  0  0  0
  141.3720   72.0580  221.6430 C   0  0  0  0  0  0  0  0  0  0  0  0
  137.9560   72.1760  223.0730 N   0  0  0  0  0  0  0  0  0  0  0  0
  135.4470   73.2710  223.9260 C   0  0  0  0  0  0  0  0  0  0  0  0
  132.1256   74.2645  228.0563 H   0  0  0  0  0  0  0  0  0  0  0  0
  133.1991   76.1312  226.7727 H   0  0  0  0  0  0  0  0  0  0  0  0
  134.7222   75.6360  224.8841 H   0  0  0  0  0  0  0  0  0  0  0  0
  132.6206   71.9252  227.3888 H   0  0  0  0  0  0  0  0  0  0  0  0
  134.8957   70.6060  226.1654 H   0  0  0  0  0  0  0  0  0  0  0  0
  133.2151   70.4599  225.5947 H   0  0  0  0  0  0  0  0  0  0  0  0
  134.9807   69.9073  223.8402 H   0  0  0  0  0  0  0  0  0  0  0  0
  133.8509   71.1997  223.3482 H   0  0  0  0  0  0  0  0  0  0  0  0
  139.6650   67.9590  223.9600 H   0  0  0  0  0  0  0  0  0  0  0  0
  138.7470   69.0143  226.6266 H   0  0  0  0  0  0  0  0  0  0  0  0
  139.4510   67.3708  226.2573 H   0  0  0  0  0  0  0  0  0  0  0  0
  141.5804   68.0627  226.5021 H   0  0  0  0  0  0  0  0  0  0  0  0
  140.1951   68.3313  228.5934 H   0  0  0  0  0  0  0  0  0  0  0  0
  141.7255   69.2791  228.5473 H   0  0  0  0  0  0  0  0  0  0  0  0
  138.9803   70.3887  227.7941 H   0  0  0  0  0  0  0  0  0  0  0  0
  139.7302   70.6013  229.3889 H   0  0  0  0  0  0  0  0  0  0  0  0
  140.2868   72.5263  227.9334 H   0  0  0  0  0  0  0  0  0  0  0  0
  141.7739   71.5589  228.2538 H   0  0  0  0  0  0  0  0  0  0  0  0
  140.0354   71.5905  225.7919 H   0  0  0  0  0  0  0  0  0  0  0  0
  141.8054   72.0644  226.0117 H   0  0  0  0  0  0  0  0  0  0  0  0
  141.1699   69.8938  224.8068 H   0  0  0  0  0  0  0  0  0  0  0  0
  142.5245   69.9906  226.0521 H   0  0  0  0  0  0  0  0  0  0  0  0
  138.6706   74.0843  222.0255 H   0  0  0  0  0  0  0  0  0  0  0  0
  140.2360   74.6204  222.7584 H   0  0  0  0  0  0  0  0  0  0  0  0
  139.6678   74.0588  219.8016 H   0  0  0  0  0  0  0  0  0  0  0  0
  140.0549   75.6373  220.5499 H   0  0  0  0  0  0  0  0  0  0  0  0
  142.1097   76.1071  219.4256 H   0  0  0  0  0  0  0  0  0  0  0  0
  144.5410   75.6005  219.1882 H   0  0  0  0  0  0  0  0  0  0  0  0
  145.4736   73.4582  220.0922 H   0  0  0  0  0  0  0  0  0  0  0  0
  143.9449   71.8678  221.2145 H   0  0  0  0  0  0  0  0  0  0  0  0
  141.1171   71.2580  220.9323 H   0  0  0  0  0  0  0  0  0  0  0  0
  141.9479   71.6426  222.4831 H   0  0  0  0  0  0  0  0  0  0  0  0
  136.3669   73.8591  224.0599 H   0  0  0  0  0  0  0  0  0  0  0  0
  134.9876   73.5876  222.9780 H   0  0  0  0  0  0  0  0  0  0  0  0
  1  2  2  0
  2  3  1  0
  3  4  2  0
  4  5  1  0
  5  6  2  0
  5  7  1  0
  7  8  1  0
  8  9  1  0
  9 10  1  0
 10 11  2  0
 11 12  1  0
 12 13  1  0
 13 14  1  0
 14 15  1  0
 15 16  1  0
 16 17  1  0
 17 18  1  0
 18 19  1  0
 19 20  1  0
 12 21  2  0
 21 22  1  0
 22 23  1  0
 23 24  1  0
 24 25  1  0
 25 26  1  0
 26 27  2  0
 27 28  1  0
 28 29  2  0
 29 30  1  0
 30 31  2  0
 31 32  1  0
 22 33  2  0
  9 34  1  0
  6  1  1  0
 33 10  1  0
 34  4  1  0
 20 15  1  0
 32 23  1  0
 31 26  1  0
  1 35  1  0
  2 36  1  0
  3 37  1  0
  6 38  1  0
  7 39  1  0
  7 40  1  0
  8 41  1  0
  8 42  1  0
 13 43  1  0
 14 44  1  0
 14 45  1  0
 15 46  1  0
 16 47  1  0
 16 48  1  0
 17 49  1  0
 17 50  1  0
 18 51  1  0
 18 52  1  0
 19 53  1  0
 19 54  1  0
 20 55  1  0
 20 56  1  0
 24 57  1  0
 24 58  1  0
 25 59  1  0
 25 60  1  0
 27 61  1  0
 28 62  1  0
 29 63  1  0
 30 64  1  0
 32 65  1  0
 32 66  1  0
 34 67  1  0
 34 68  1  0
M  END
>  <smiles>  (19) 
c1ccc2c(c1)CCN(c1nc(NCC3CCCCC3)nc(N3CCc4ccccc4C3)n1)C2

>  <score_type>  (19) 
oracle

>  <origin>  (19) 
autodockgpu

>  <m_score__min__energy>  (19) 
-10.220000000000001

>  <m_primary>  (19) 
energy

>  <rmsd>  (19) 
10.698114136014553

>  <m_score__min__rmsd>  (19) 
10.698114136014553

>  <meeko>  (19) 
{"free_energy": -9.32, "intermolecular_energy": -10.81, "internal_energy": -1.46, "cluster_size": 4, "cluster_id": 4, "rank_in_cluster": 1}

>  <energy>  (19) 
-9.55

>  <cluster_rmsd>  (19) 
0.86

>  <cluster>  (19) 
1

$$$$

     RDKit          3D

 68 73  0  0  0  0  0  0  0  0999 V2000
  140.9570   80.2190  223.7550 C   0  0  0  0  0  0  0  0  0  0  0  0
  142.1380   79.9300  223.0730 C   0  0  0  0  0  0  0  0  0  0  0  0
  142.2320   78.8080  222.2640 C   0  0  0  0  0  0  0  0  0  0  0  0
  141.1440   77.9460  222.1180 C   0  0  0  0  0  0  0  0  0  0  0  0
  139.9740   78.2250  222.7890 C   0  0  0  0  0  0  0  0  0  0  0  0
  139.8930   79.3520  223.5970 C   0  0  0  0  0  0  0  0  0  0  0  0
  138.7570   77.3800  222.7070 C   0  0  0  0  0  0  0  0  0  0  0  0
  138.8670   76.5510  221.4500 C   0  0  0  0  0  0  0  0  0  0  0  0
  140.1500   75.9080  221.4520 N   0  0  0  0  0  0  0  0  0  0  0  0
  140.3220   74.5290  221.6520 C   0  0  0  0  0  0  0  0  0  0  0  0
  139.4660   73.7500  222.3400 N   0  0  0  0  0  0  0  0  0  0  0  0
  139.6630   72.4260  222.5090 C   0  0  0  0  0  0  0  0  0  0  0  0
  138.7600   71.6030  223.2390 N   0  0  0  0  0  0  0  0  0  0  0  0
  138.9930   71.1650  224.5960 C   0  0  0  0  0  0  0  0  0  0  0  0
  140.4190   70.8240  224.8690 C   0  0  0  0  0  0  0  0  0  0  0  0
  140.4910   69.4180  225.4150 C   0  0  0  0  0  0  0  0  0  0  0  0
  139.9480   69.3790  226.8220 C   0  0  0  0  0  0  0  0  0  0  0  0
  140.8960   70.2060  227.6730 C   0  0  0  0  0  0  0  0  0  0  0  0
  140.9030   71.6240  227.2140 C   0  0  0  0  0  0  0  0  0  0  0  0
  141.0860   71.8300  225.7480 C   0  0  0  0  0  0  0  0  0  0  0  0
  140.7490   71.8210  221.9850 N   0  0  0  0  0  0  0  0  0  0  0  0
  141.6190   72.5800  221.2920 C   0  0  0  0  0  0  0  0  0  0  0  0
  142.7880   71.9510  220.7240 N   0  0  0  0  0  0  0  0  0  0  0  0
  144.0180   72.6820  220.8150 C   0  0  0  0  0  0  0  0  0  0  0  0
  144.9050   72.4310  219.5880 C   0  0  0  0  0  0  0  0  0  0  0  0
  145.0330   70.9430  219.3850 C   0  0  0  0  0  0  0  0  0  0  0  0
  146.2220   70.4070  218.9490 C   0  0  0  0  0  0  0  0  0  0  0  0
  146.3220   69.0300  218.7700 C   0  0  0  0  0  0  0  0  0  0  0  0
  145.2310   68.2000  219.0280 C   0  0  0  0  0  0  0  0  0  0  0  0
  144.0590   68.7820  219.4630 C   0  0  0  0  0  0  0  0  0  0  0  0
  143.9360   70.1550  219.6490 C   0  0  0  0  0  0  0  0  0  0  0  0
  142.6330   70.6530  220.1160 C   0  0  0  0  0  0  0  0  0  0  0  0
  141.4040   73.9130  221.1320 N   0  0  0  0  0  0  0  0  0  0  0  0
  141.3190   76.7640  221.2330 C   0  0  0  0  0  0  0  0  0  0  0  0
  140.8750   81.1079  224.3977 H   0  0  0  0  0  0  0  0  0  0  0  0
  143.0046   80.5993  223.1778 H   0  0  0  0  0  0  0  0  0  0  0  0
  143.1716   78.5954  221.7330 H   0  0  0  0  0  0  0  0  0  0  0  0
  138.9523   79.5607  224.1276 H   0  0  0  0  0  0  0  0  0  0  0  0
  138.6957   76.7226  223.5868 H   0  0  0  0  0  0  0  0  0  0  0  0
  137.8516   78.0042  222.6827 H   0  0  0  0  0  0  0  0  0  0  0  0
  138.0699   75.7931  221.4320 H   0  0  0  0  0  0  0  0  0  0  0  0
  138.7620   77.1903  220.5610 H   0  0  0  0  0  0  0  0  0  0  0  0
  137.8820   71.3270  222.7060 H   0  0  0  0  0  0  0  0  0  0  0  0
  138.6896   71.9712  225.2801 H   0  0  0  0  0  0  0  0  0  0  0  0
  138.4039   70.2486  224.7484 H   0  0  0  0  0  0  0  0  0  0  0  0
  140.9860   70.8593  223.9270 H   0  0  0  0  0  0  0  0  0  0  0  0
  139.8953   68.7490  224.7766 H   0  0  0  0  0  0  0  0  0  0  0  0
  141.5407   69.0894  225.4253 H   0  0  0  0  0  0  0  0  0  0  0  0
  138.9366   69.8105  226.8511 H   0  0  0  0  0  0  0  0  0  0  0  0
  139.8787   68.3458  227.1932 H   0  0  0  0  0  0  0  0  0  0  0  0
  140.5692   70.1663  228.7226 H   0  0  0  0  0  0  0  0  0  0  0  0
  141.9119   69.7950  227.5778 H   0  0  0  0  0  0  0  0  0  0  0  0
  139.9425   72.0767  227.5013 H   0  0  0  0  0  0  0  0  0  0  0  0
  141.7773   72.0891  227.6929 H   0  0  0  0  0  0  0  0  0  0  0  0
  140.6850   72.8220  225.4926 H   0  0  0  0  0  0  0  0  0  0  0  0
  142.1650   71.7261  225.5609 H   0  0  0  0  0  0  0  0  0  0  0  0
  143.7927   73.7566  220.8810 H   0  0  0  0  0  0  0  0  0  0  0  0
  144.5589   72.3433  221.7109 H   0  0  0  0  0  0  0  0  0  0  0  0
  144.4462   72.8884  218.6990 H   0  0  0  0  0  0  0  0  0  0  0  0
  145.8986   72.8763  219.7445 H   0  0  0  0  0  0  0  0  0  0  0  0
  147.0841   71.0587  218.7441 H   0  0  0  0  0  0  0  0  0  0  0  0
  147.2695   68.5928  218.4221 H   0  0  0  0  0  0  0  0  0  0  0  0
  145.3036   67.1113  218.8883 H   0  0  0  0  0  0  0  0  0  0  0  0
  143.1914   68.1383  219.6701 H   0  0  0  0  0  0  0  0  0  0  0  0
  141.9457   70.7315  219.2607 H   0  0  0  0  0  0  0  0  0  0  0  0
  142.2256   69.9530  220.8603 H   0  0  0  0  0  0  0  0  0  0  0  0
  142.2406   76.2244  221.4964 H   0  0  0  0  0  0  0  0  0  0  0  0
  141.4022   77.0640  220.1780 H   0  0  0  0  0  0  0  0  0  0  0  0
  1  2  2  0
  2  3  1  0
  3  4  2  0
  4  5  1  0
  5  6  2  0
  5  7  1  0
  7  8  1  0
  8  9  1  0
  9 10  1  0
 10 11  2  0
 11 12  1  0
 12 13  1  0
 13 14  1  0
 14 15  1  0
 15 16  1  0
 16 17  1  0
 17 18  1  0
 18 19  1  0
 19 20  1  0
 12 21  2  0
 21 22  1  0
 22 23  1  0
 23 24  1  0
 24 25  1  0
 25 26  1  0
 26 27  2  0
 27 28  1  0
 28 29  2  0
 29 30  1  0
 30 31  2  0
 31 32  1  0
 22 33  2  0
  9 34  1  0
  6  1  1  0
 33 10  1  0
 34  4  1  0
 20 15  1  0
 32 23  1  0
 31 26  1  0
  1 35  1  0
  2 36  1  0
  3 37  1  0
  6 38  1  0
  7 39  1  0
  7 40  1  0
  8 41  1  0
  8 42  1  0
 13 43  1  0
 14 44  1  0
 14 45  1  0
 15 46  1  0
 16 47  1  0
 16 48  1  0
 17 49  1  0
 17 50  1  0
 18 51  1  0
 18 52  1  0
 19 53  1  0
 19 54  1  0
 20 55  1  0
 20 56  1  0
 24 57  1  0
 24 58  1  0
 25 59  1  0
 25 60  1  0
 27 61  1  0
 28 62  1  0
 29 63  1  0
 30 64  1  0
 32 65  1  0
 32 66  1  0
 34 67  1  0
 34 68  1  0
M  END
>  <smiles>  (20) 
c1ccc2c(c1)CCN(c1nc(NCC3CCCCC3)nc(N3CCc4ccccc4C3)n1)C2

>  <score_type>  (20) 
oracle

>  <origin>  (20) 
autodockgpu

>  <m_score__min__energy>  (20) 
-10.220000000000001

>  <m_primary>  (20) 
energy

>  <rmsd>  (20) 
5.161093212412466

>  <m_score__min__rmsd>  (20) 
5.161093212412466

>  <meeko>  (20) 
{"free_energy": -9.92, "intermolecular_energy": -11.41, "internal_energy": -1.23, "cluster_size": 20, "cluster_id": 1, "rank_in_cluster": 10}

>  <energy>  (20) 
-9.07

>  <cluster_rmsd>  (20) 
0.94

>  <cluster>  (20) 
1

$$$$

     RDKit          3D

 68 73  0  0  0  0  0  0  0  0999 V2000
  146.3670   69.6530  219.1800 C   0  0  0  0  0  0  0  0  0  0  0  0
  145.3560   68.7030  219.0460 C   0  0  0  0  0  0  0  0  0  0  0  0
  144.0220   69.0790  219.0820 C   0  0  0  0  0  0  0  0  0  0  0  0
  143.6670   70.4190  219.2520 C   0  0  0  0  0  0  0  0  0  0  0  0
  144.6610   71.3630  219.3850 C   0  0  0  0  0  0  0  0  0  0  0  0
  145.9940   70.9730  219.3480 C   0  0  0  0  0  0  0  0  0  0  0  0
  144.4000   72.8120  219.5710 C   0  0  0  0  0  0  0  0  0  0  0  0
  142.9960   73.0830  219.0860 C   0  0  0  0  0  0  0  0  0  0  0  0
  142.1170   72.1410  219.7180 N   0  0  0  0  0  0  0  0  0  0  0  0
  141.1930   72.4950  220.7130 C   0  0  0  0  0  0  0  0  0  0  0  0
  140.4510   71.6120  221.4080 N   0  0  0  0  0  0  0  0  0  0  0  0
  139.5740   71.9890  222.3600 C   0  0  0  0  0  0  0  0  0  0  0  0
  138.7880   71.0540  223.0930 N   0  0  0  0  0  0  0  0  0  0  0  0
  138.9840   70.7700  224.4960 C   0  0  0  0  0  0  0  0  0  0  0  0
  140.3880   70.4010  224.8330 C   0  0  0  0  0  0  0  0  0  0  0  0
  140.3760   69.1720  225.7110 C   0  0  0  0  0  0  0  0  0  0  0  0
  139.8690   69.5240  227.0870 C   0  0  0  0  0  0  0  0  0  0  0  0
  140.8950   70.4620  227.6990 C   0  0  0  0  0  0  0  0  0  0  0  0
  140.9900   71.7170  226.9010 C   0  0  0  0  0  0  0  0  0  0  0  0
  141.1480   71.5400  225.4290 C   0  0  0  0  0  0  0  0  0  0  0  0
  139.4030   73.2930  222.6580 N   0  0  0  0  0  0  0  0  0  0  0  0
  140.1330   74.1960  221.9760 C   0  0  0  0  0  0  0  0  0  0  0  0
  139.9630   75.5970  222.2810 N   0  0  0  0  0  0  0  0  0  0  0  0
  138.6280   76.0330  222.5650 C   0  0  0  0  0  0  0  0  0  0  0  0
  138.3920   77.4640  222.0620 C   0  0  0  0  0  0  0  0  0  0  0  0
  139.5000   78.3430  222.5810 C   0  0  0  0  0  0  0  0  0  0  0  0
  139.2330   79.6380  222.9610 C   0  0  0  0  0  0  0  0  0  0  0  0
  140.2690   80.4340  223.4410 C   0  0  0  0  0  0  0  0  0  0  0  0
  141.5660   79.9300  223.5370 C   0  0  0  0  0  0  0  0  0  0  0  0
  141.7880   78.6260  223.1440 C   0  0  0  0  0  0  0  0  0  0  0  0
  140.7670   77.8120  222.6620 C   0  0  0  0  0  0  0  0  0  0  0  0
  141.1320   76.4400  222.2750 C   0  0  0  0  0  0  0  0  0  0  0  0
  141.0130   73.7970  221.0200 N   0  0  0  0  0  0  0  0  0  0  0  0
  142.2170   70.7460  219.2790 C   0  0  0  0  0  0  0  0  0  0  0  0
  147.4273   69.3615  219.1529 H   0  0  0  0  0  0  0  0  0  0  0  0
  145.6193   67.6436  218.9103 H   0  0  0  0  0  0  0  0  0  0  0  0
  143.2370   68.3158  218.9758 H   0  0  0  0  0  0  0  0  0  0  0  0
  146.7766   71.7385  219.4558 H   0  0  0  0  0  0  0  0  0  0  0  0
  144.4879   73.0765  220.6351 H   0  0  0  0  0  0  0  0  0  0  0  0
  145.1287   73.4136  219.0079 H   0  0  0  0  0  0  0  0  0  0  0  0
  142.6999   74.1078  219.3547 H   0  0  0  0  0  0  0  0  0  0  0  0
  142.9437   72.9789  217.9922 H   0  0  0  0  0  0  0  0  0  0  0  0
  138.0300   70.5700  222.5240 H   0  0  0  0  0  0  0  0  0  0  0  0
  138.7097   71.6643  225.0748 H   0  0  0  0  0  0  0  0  0  0  0  0
  138.3516   69.9049  224.7444 H   0  0  0  0  0  0  0  0  0  0  0  0
  140.9298   70.1595  223.9066 H   0  0  0  0  0  0  0  0  0  0  0  0
  139.7183   68.4119  225.2642 H   0  0  0  0  0  0  0  0  0  0  0  0
  141.3998   68.7784  225.7940 H   0  0  0  0  0  0  0  0  0  0  0  0
  138.8920   70.0244  227.0153 H   0  0  0  0  0  0  0  0  0  0  0  0
  139.7364   68.6231  227.7041 H   0  0  0  0  0  0  0  0  0  0  0  0
  140.5933   70.7082  228.7278 H   0  0  0  0  0  0  0  0  0  0  0  0
  141.8765   69.9653  227.7025 H   0  0  0  0  0  0  0  0  0  0  0  0
  140.0719   72.2975  227.0744 H   0  0  0  0  0  0  0  0  0  0  0  0
  141.9078   72.2187  227.2416 H   0  0  0  0  0  0  0  0  0  0  0  0
  140.8118   72.4653  224.9384 H   0  0  0  0  0  0  0  0  0  0  0  0
  142.2115   71.3121  225.2648 H   0  0  0  0  0  0  0  0  0  0  0  0
  137.9165   75.3565  222.0689 H   0  0  0  0  0  0  0  0  0  0  0  0
  138.4816   76.0186  223.6551 H   0  0  0  0  0  0  0  0  0  0  0  0
  138.3938   77.4755  220.9621 H   0  0  0  0  0  0  0  0  0  0  0  0
  137.4196   77.8333  222.4198 H   0  0  0  0  0  0  0  0  0  0  0  0
  138.2118   80.0400  222.8863 H   0  0  0  0  0  0  0  0  0  0  0  0
  140.0630   81.4702  223.7475 H   0  0  0  0  0  0  0  0  0  0  0  0
  142.3887   80.5544  223.9154 H   0  0  0  0  0  0  0  0  0  0  0  0
  142.8063   78.2159  223.2140 H   0  0  0  0  0  0  0  0  0  0  0  0
  141.5680   76.4505  221.2652 H   0  0  0  0  0  0  0  0  0  0  0  0
  141.8646   76.0454  222.9944 H   0  0  0  0  0  0  0  0  0  0  0  0
  141.6910   70.0862  219.9847 H   0  0  0  0  0  0  0  0  0  0  0  0
  141.7572   70.6046  218.2898 H   0  0  0  0  0  0  0  0  0  0  0  0
  1  2  2  0
  2  3  1  0
  3  4  2  0
  4  5  1  0
  5  6  2  0
  5  7  1  0
  7  8  1  0
  8  9  1  0
  9 10  1  0
 10 11  2  0
 11 12  1  0
 12 13  1  0
 13 14  1  0
 14 15  1  0
 15 16  1  0
 16 17  1  0
 17 18  1  0
 18 19  1  0
 19 20  1  0
 12 21  2  0
 21 22  1  0
 22 23  1  0
 23 24  1  0
 24 25  1  0
 25 26  1  0
 26 27  2  0
 27 28  1  0
 28 29  2  0
 29 30  1  0
 30 31  2  0
 31 32  1  0
 22 33  2  0
  9 34  1  0
  6  1  1  0
 33 10  1  0
 34  4  1  0
 20 15  1  0
 32 23  1  0
 31 26  1  0
  1 35  1  0
  2 36  1  0
  3 37  1  0
  6 38  1  0
  7 39  1  0
  7 40  1  0
  8 41  1  0
  8 42  1  0
 13 43  1  0
 14 44  1  0
 14 45  1  0
 15 46  1  0
 16 47  1  0
 16 48  1  0
 17 49  1  0
 17 50  1  0
 18 51  1  0
 18 52  1  0
 19 53  1  0
 19 54  1  0
 20 55  1  0
 20 56  1  0
 24 57  1  0
 24 58  1  0
 25 59  1  0
 25 60  1  0
 27 61  1  0
 28 62  1  0
 29 63  1  0
 30 64  1  0
 32 65  1  0
 32 66  1  0
 34 67  1  0
 34 68  1  0
M  END
>  <smiles>  (21) 
c1ccc2c(c1)CCN(c1nc(NCC3CCCCC3)nc(N3CCc4ccccc4C3)n1)C2

>  <score_type>  (21) 
oracle

>  <origin>  (21) 
autodockgpu

>  <m_score__min__energy>  (21) 
-10.220000000000001

>  <m_primary>  (21) 
energy

>  <rmsd>  (21) 
9.830421646314083

>  <m_score__min__rmsd>  (21) 
9.830421646314083

>  <meeko>  (21) 
{"free_energy": -9.07, "intermolecular_energy": -10.56, "internal_energy": -1.23, "cluster_size": 20, "cluster_id": 1, "rank_in_cluster": 20}

>  <energy>  (21) 
-9.82

>  <cluster_rmsd>  (21) 
0.0

>  <cluster>  (21) 
2

$$$$

     RDKit          3D

 68 73  0  0  0  0  0  0  0  0999 V2000
  140.6780   79.8080  223.4220 C   0  0  0  0  0  0  0  0  0  0  0  0
  141.7310   79.7450  222.5120 C   0  0  0  0  0  0  0  0  0  0  0  0
  141.8600   78.6650  221.6520 C   0  0  0  0  0  0  0  0  0  0  0  0
  140.9340   77.6210  221.6820 C   0  0  0  0  0  0  0  0  0  0  0  0
  139.8900   77.6770  222.5790 C   0  0  0  0  0  0  0  0  0  0  0  0
  139.7730   78.7640  223.4350 C   0  0  0  0  0  0  0  0  0  0  0  0
  138.8500   76.6250  222.6980 C   0  0  0  0  0  0  0  0  0  0  0  0
  138.8530   75.8400  221.4080 C   0  0  0  0  0  0  0  0  0  0  0  0
  140.2040   75.4400  221.1330 N   0  0  0  0  0  0  0  0  0  0  0  0
  140.6530   74.1140  221.2360 C   0  0  0  0  0  0  0  0  0  0  0  0
  141.4130   73.4980  220.3110 N   0  0  0  0  0  0  0  0  0  0  0  0
  141.8300   72.2230  220.4440 C   0  0  0  0  0  0  0  0  0  0  0  0
  142.6320   71.5700  219.4650 N   0  0  0  0  0  0  0  0  0  0  0  0
  144.0200   71.2250  219.6680 C   0  0  0  0  0  0  0  0  0  0  0  0
  144.9670   72.2420  219.1300 C   0  0  0  0  0  0  0  0  0  0  0  0
  145.5320   73.0430  220.2790 C   0  0  0  0  0  0  0  0  0  0  0  0
  144.4720   73.9580  220.8430 C   0  0  0  0  0  0  0  0  0  0  0  0
  144.1460   74.9640  219.7530 C   0  0  0  0  0  0  0  0  0  0  0  0
  143.5790   74.2730  218.5620 C   0  0  0  0  0  0  0  0  0  0  0  0
  144.3460   73.0920  218.0700 C   0  0  0  0  0  0  0  0  0  0  0  0
  141.4920   71.5000  221.5330 N   0  0  0  0  0  0  0  0  0  0  0  0
  140.7320   72.0950  222.4710 C   0  0  0  0  0  0  0  0  0  0  0  0
  140.3590   71.3390  223.6430 N   0  0  0  0  0  0  0  0  0  0  0  0
  139.6050   70.1400  223.4190 C   0  0  0  0  0  0  0  0  0  0  0  0
  138.6030   69.8930  224.5550 C   0  0  0  0  0  0  0  0  0  0  0  0
  139.3380   69.9760  225.8680 C   0  0  0  0  0  0  0  0  0  0  0  0
  138.9980   69.1370  226.9030 C   0  0  0  0  0  0  0  0  0  0  0  0
  139.6900   69.2270  228.1080 C   0  0  0  0  0  0  0  0  0  0  0  0
  140.7170   70.1560  228.2680 C   0  0  0  0  0  0  0  0  0  0  0  0
  141.0240   70.9780  227.2040 C   0  0  0  0  0  0  0  0  0  0  0  0
  140.3460   70.9060  225.9900 C   0  0  0  0  0  0  0  0  0  0  0  0
  140.7660   71.8370  224.9320 C   0  0  0  0  0  0  0  0  0  0  0  0
  140.3220   73.3830  222.3200 N   0  0  0  0  0  0  0  0  0  0  0  0
  141.1360   76.4970  220.7290 C   0  0  0  0  0  0  0  0  0  0  0  0
  140.5705   80.6612  224.1079 H   0  0  0  0  0  0  0  0  0  0  0  0
  142.4680   80.5608  222.4753 H   0  0  0  0  0  0  0  0  0  0  0  0
  142.6984   78.6307  220.9407 H   0  0  0  0  0  0  0  0  0  0  0  0
  138.9338   78.7949  224.1455 H   0  0  0  0  0  0  0  0  0  0  0  0
  139.0823   75.9604  223.5432 H   0  0  0  0  0  0  0  0  0  0  0  0
  137.8619   77.0738  222.8775 H   0  0  0  0  0  0  0  0  0  0  0  0
  138.2144   74.9504  221.5113 H   0  0  0  0  0  0  0  0  0  0  0  0
  138.4631   76.4572  220.5852 H   0  0  0  0  0  0  0  0  0  0  0  0
  142.1280   71.3500  218.5540 H   0  0  0  0  0  0  0  0  0  0  0  0
  144.1987   71.1191  220.7482 H   0  0  0  0  0  0  0  0  0  0  0  0
  144.2050   70.2880  219.1223 H   0  0  0  0  0  0  0  0  0  0  0  0
  145.7986   71.7300  218.6237 H   0  0  0  0  0  0  0  0  0  0  0  0
  145.8768   72.3566  221.0664 H   0  0  0  0  0  0  0  0  0  0  0  0
  146.3751   73.6490  219.9158 H   0  0  0  0  0  0  0  0  0  0  0  0
  143.5739   73.3809  221.1084 H   0  0  0  0  0  0  0  0  0  0  0  0
  144.8251   74.4607  221.7555 H   0  0  0  0  0  0  0  0  0  0  0  0
  143.4116   75.6880  220.1358 H   0  0  0  0  0  0  0  0  0  0  0  0
  145.0700   75.4830  219.4583 H   0  0  0  0  0  0  0  0  0  0  0  0
  142.5651   73.9333  218.8199 H   0  0  0  0  0  0  0  0  0  0  0  0
  143.6100   75.0102  217.7462 H   0  0  0  0  0  0  0  0  0  0  0  0
  143.6590   72.4601  217.4880 H   0  0  0  0  0  0  0  0  0  0  0  0
  145.1812   73.4983  217.4806 H   0  0  0  0  0  0  0  0  0  0  0  0
  139.0559   70.2336  222.4705 H   0  0  0  0  0  0  0  0  0  0  0  0
  140.3039   69.2915  223.3810 H   0  0  0  0  0  0  0  0  0  0  0  0
  137.8115   70.6563  224.5240 H   0  0  0  0  0  0  0  0  0  0  0  0
  138.1434   68.8999  224.4427 H   0  0  0  0  0  0  0  0  0  0  0  0
  138.1882   68.4027  226.7804 H   0  0  0  0  0  0  0  0  0  0  0  0
  139.4240   68.5593  228.9408 H   0  0  0  0  0  0  0  0  0  0  0  0
  141.2676   70.2314  229.2173 H   0  0  0  0  0  0  0  0  0  0  0  0
  141.8320   71.7156  227.3183 H   0  0  0  0  0  0  0  0  0  0  0  0
  140.3012   72.8187  225.1059 H   0  0  0  0  0  0  0  0  0  0  0  0
  141.8617   71.9325  224.9511 H   0  0  0  0  0  0  0  0  0  0  0  0
  142.1723   76.1324  220.7848 H   0  0  0  0  0  0  0  0  0  0  0  0
  140.9531   76.8153  219.6921 H   0  0  0  0  0  0  0  0  0  0  0  0
  1  2  2  0
  2  3  1  0
  3  4  2  0
  4  5  1  0
  5  6  2  0
  5  7  1  0
  7  8  1  0
  8  9  1  0
  9 10  1  0
 10 11  2  0
 11 12  1  0
 12 13  1  0
 13 14  1  0
 14 15  1  0
 15 16  1  0
 16 17  1  0
 17 18  1  0
 18 19  1  0
 19 20  1  0
 12 21  2  0
 21 22  1  0
 22 23  1  0
 23 24  1  0
 24 25  1  0
 25 26  1  0
 26 27  2  0
 27 28  1  0
 28 29  2  0
 29 30  1  0
 30 31  2  0
 31 32  1  0
 22 33  2  0
  9 34  1  0
  6  1  1  0
 33 10  1  0
 34  4  1  0
 20 15  1  0
 32 23  1  0
 31 26  1  0
  1 35  1  0
  2 36  1  0
  3 37  1  0
  6 38  1  0
  7 39  1  0
  7 40  1  0
  8 41  1  0
  8 42  1  0
 13 43  1  0
 14 44  1  0
 14 45  1  0
 15 46  1  0
 16 47  1  0
 16 48  1  0
 17 49  1  0
 17 50  1  0
 18 51  1  0
 18 52  1  0
 19 53  1  0
 19 54  1  0
 20 55  1  0
 20 56  1  0
 24 57  1  0
 24 58  1  0
 25 59  1  0
 25 60  1  0
 27 61  1  0
 28 62  1  0
 29 63  1  0
 30 64  1  0
 32 65  1  0
 32 66  1  0
 34 67  1  0
 34 68  1  0
M  END
>  <smiles>  (22) 
c1ccc2c(c1)CCN(c1nc(NCC3CCCCC3)nc(N3CCc4ccccc4C3)n1)C2

>  <score_type>  (22) 
oracle

>  <origin>  (22) 
autodockgpu

>  <m_score__min__energy>  (22) 
-10.220000000000001

>  <m_primary>  (22) 
energy

>  <rmsd>  (22) 
4.916403288088143

>  <m_score__min__rmsd>  (22) 
4.916403288088143

>  <meeko>  (22) 
{"free_energy": -9.49, "intermolecular_energy": -10.98, "internal_energy": -1.57, "cluster_size": 23, "cluster_id": 2, "rank_in_cluster": 15}

>  <energy>  (22) 
-9.81

>  <cluster_rmsd>  (22) 
0.08

>  <cluster>  (22) 
2

$$$$

     RDKit          3D

 68 73  0  0  0  0  0  0  0  0999 V2000
  140.8940   80.1550  223.7370 C   0  0  0  0  0  0  0  0  0  0  0  0
  142.0770   79.8680  223.0580 C   0  0  0  0  0  0  0  0  0  0  0  0
  142.1740   78.7440  222.2520 C   0  0  0  0  0  0  0  0  0  0  0  0
  141.0880   77.8800  222.1060 C   0  0  0  0  0  0  0  0  0  0  0  0
  139.9160   78.1580  222.7740 C   0  0  0  0  0  0  0  0  0  0  0  0
  139.8310   79.2870  223.5790 C   0  0  0  0  0  0  0  0  0  0  0  0
  138.7010   77.3100  222.6920 C   0  0  0  0  0  0  0  0  0  0  0  0
  138.8150   76.4790  221.4370 C   0  0  0  0  0  0  0  0  0  0  0  0
  140.0980   75.8380  221.4430 N   0  0  0  0  0  0  0  0  0  0  0  0
  140.2730   74.4600  221.6460 C   0  0  0  0  0  0  0  0  0  0  0  0
  139.4170   73.6800  222.3350 N   0  0  0  0  0  0  0  0  0  0  0  0
  139.6160   72.3580  222.5080 C   0  0  0  0  0  0  0  0  0  0  0  0
  138.7120   71.5350  223.2370 N   0  0  0  0  0  0  0  0  0  0  0  0
  138.9360   71.1150  224.6020 C   0  0  0  0  0  0  0  0  0  0  0  0
  140.3460   70.7190  224.8750 C   0  0  0  0  0  0  0  0  0  0  0  0
  140.3630   69.3170  225.4370 C   0  0  0  0  0  0  0  0  0  0  0  0
  139.8240   69.3180  226.8460 C   0  0  0  0  0  0  0  0  0  0  0  0
  140.8080   70.1160  227.6850 C   0  0  0  0  0  0  0  0  0  0  0  0
  140.8720   71.5260  227.2080 C   0  0  0  0  0  0  0  0  0  0  0  0
  141.0580   71.7070  225.7400 C   0  0  0  0  0  0  0  0  0  0  0  0
  140.7040   71.7540  221.9870 N   0  0  0  0  0  0  0  0  0  0  0  0
  141.5750   72.5130  221.2950 C   0  0  0  0  0  0  0  0  0  0  0  0
  142.7460   71.8840  220.7310 N   0  0  0  0  0  0  0  0  0  0  0  0
  143.9680   72.6290  220.7980 C   0  0  0  0  0  0  0  0  0  0  0  0
  144.8500   72.3630  219.5700 C   0  0  0  0  0  0  0  0  0  0  0  0
  144.9920   70.8730  219.3950 C   0  0  0  0  0  0  0  0  0  0  0  0
  146.1830   70.3410  218.9620 C   0  0  0  0  0  0  0  0  0  0  0  0
  146.2960   68.9610  218.8090 C   0  0  0  0  0  0  0  0  0  0  0  0
  145.2160   68.1250  219.0910 C   0  0  0  0  0  0  0  0  0  0  0  0
  144.0410   68.7040  219.5230 C   0  0  0  0  0  0  0  0  0  0  0  0
  143.9050   70.0800  219.6830 C   0  0  0  0  0  0  0  0  0  0  0  0
  142.6000   70.5730  220.1490 C   0  0  0  0  0  0  0  0  0  0  0  0
  141.3570   73.8450  221.1300 N   0  0  0  0  0  0  0  0  0  0  0  0
  141.2670   76.6960  221.2240 C   0  0  0  0  0  0  0  0  0  0  0  0
  140.8095   81.0446  224.3784 H   0  0  0  0  0  0  0  0  0  0  0  0
  142.9419   80.5396  223.1626 H   0  0  0  0  0  0  0  0  0  0  0  0
  143.1149   78.5316  221.7232 H   0  0  0  0  0  0  0  0  0  0  0  0
  138.8887   79.4961  224.1066 H   0  0  0  0  0  0  0  0  0  0  0  0
  138.6399   76.6542  223.5730 H   0  0  0  0  0  0  0  0  0  0  0  0
  137.7941   77.9319  222.6652 H   0  0  0  0  0  0  0  0  0  0  0  0
  138.0190   75.7201  221.4186 H   0  0  0  0  0  0  0  0  0  0  0  0
  138.7113   77.1166  220.5466 H   0  0  0  0  0  0  0  0  0  0  0  0
  137.8430   71.2440  222.6980 H   0  0  0  0  0  0  0  0  0  0  0  0
  138.6718   71.9474  225.2708 H   0  0  0  0  0  0  0  0  0  0  0  0
  138.3098   70.2275  224.7757 H   0  0  0  0  0  0  0  0  0  0  0  0
  140.9100   70.7201  223.9306 H   0  0  0  0  0  0  0  0  0  0  0  0
  139.7381   68.6653  224.8086 H   0  0  0  0  0  0  0  0  0  0  0  0
  141.3982   68.9452  225.4473 H   0  0  0  0  0  0  0  0  0  0  0  0
  138.8313   69.7910  226.8725 H   0  0  0  0  0  0  0  0  0  0  0  0
  139.7141   68.2931  227.2301 H   0  0  0  0  0  0  0  0  0  0  0  0
  140.4826   70.1031  228.7357 H   0  0  0  0  0  0  0  0  0  0  0  0
  141.8058   69.6622  227.5932 H   0  0  0  0  0  0  0  0  0  0  0  0
  139.9320   72.0215  227.4926 H   0  0  0  0  0  0  0  0  0  0  0  0
  141.7669   71.9598  227.6780 H   0  0  0  0  0  0  0  0  0  0  0  0
  140.6978   72.7118  225.4741 H   0  0  0  0  0  0  0  0  0  0  0  0
  142.1310   71.5561  225.5507 H   0  0  0  0  0  0  0  0  0  0  0  0
  143.7315   73.7023  220.8439 H   0  0  0  0  0  0  0  0  0  0  0  0
  144.5187   72.3137  221.6965 H   0  0  0  0  0  0  0  0  0  0  0  0
  144.3810   72.7984  218.6753 H   0  0  0  0  0  0  0  0  0  0  0  0
  145.8400   72.8212  219.7115 H   0  0  0  0  0  0  0  0  0  0  0  0
  147.0371   70.9973  218.7389 H   0  0  0  0  0  0  0  0  0  0  0  0
  147.2455   68.5269  218.4627 H   0  0  0  0  0  0  0  0  0  0  0  0
  145.2989   67.0346  218.9723 H   0  0  0  0  0  0  0  0  0  0  0  0
  143.1815   68.0558  219.7489 H   0  0  0  0  0  0  0  0  0  0  0  0
  141.9063   70.6281  219.2971 H   0  0  0  0  0  0  0  0  0  0  0  0
  142.2044   69.8831  220.9090 H   0  0  0  0  0  0  0  0  0  0  0  0
  142.1890   76.1586  221.4906 H   0  0  0  0  0  0  0  0  0  0  0  0
  141.3520   76.9935  220.1684 H   0  0  0  0  0  0  0  0  0  0  0  0
  1  2  2  0
  2  3  1  0
  3  4  2  0
  4  5  1  0
  5  6  2  0
  5  7  1  0
  7  8  1  0
  8  9  1  0
  9 10  1  0
 10 11  2  0
 11 12  1  0
 12 13  1  0
 13 14  1  0
 14 15  1  0
 15 16  1  0
 16 17  1  0
 17 18  1  0
 18 19  1  0
 19 20  1  0
 12 21  2  0
 21 22  1  0
 22 23  1  0
 23 24  1  0
 24 25  1  0
 25 26  1  0
 26 27  2  0
 27 28  1  0
 28 29  2  0
 29 30  1  0
 30 31  2  0
 31 32  1  0
 22 33  2  0
  9 34  1  0
  6  1  1  0
 33 10  1  0
 34  4  1  0
 20 15  1  0
 32 23  1  0
 31 26  1  0
  1 35  1  0
  2 36  1  0
  3 37  1  0
  6 38  1  0
  7 39  1  0
  7 40  1  0
  8 41  1  0
  8 42  1  0
 13 43  1  0
 14 44  1  0
 14 45  1  0
 15 46  1  0
 16 47  1  0
 16 48  1  0
 17 49  1  0
 17 50  1  0
 18 51  1  0
 18 52  1  0
 19 53  1  0
 19 54  1  0
 20 55  1  0
 20 56  1  0
 24 57  1  0
 24 58  1  0
 25 59  1  0
 25 60  1  0
 27 61  1  0
 28 62  1  0
 29 63  1  0
 30 64  1  0
 32 65  1  0
 32 66  1  0
 34 67  1  0
 34 68  1  0
M  END
>  <smiles>  (23) 
c1ccc2c(c1)CCN(c1nc(NCC3CCCCC3)nc(N3CCc4ccccc4C3)n1)C2

>  <score_type>  (23) 
oracle

>  <origin>  (23) 
autodockgpu

>  <m_score__min__energy>  (23) 
-10.220000000000001

>  <m_primary>  (23) 
energy

>  <rmsd>  (23) 
5.149577963252953

>  <m_score__min__rmsd>  (23) 
5.149577963252953

>  <meeko>  (23) 
{"free_energy": -9.89, "intermolecular_energy": -11.39, "internal_energy": -1.23, "cluster_size": 20, "cluster_id": 1, "rank_in_cluster": 12}

>  <energy>  (23) 
-9.81

>  <cluster_rmsd>  (23) 
0.04

>  <cluster>  (23) 
2

$$$$

     RDKit          3D

 68 73  0  0  0  0  0  0  0  0999 V2000
  146.2990   69.3550  218.9570 C   0  0  0  0  0  0  0  0  0  0  0  0
  145.1740   68.6230  218.5800 C   0  0  0  0  0  0  0  0  0  0  0  0
  143.9120   69.1950  218.6200 C   0  0  0  0  0  0  0  0  0  0  0  0
  143.7450   70.5160  219.0390 C   0  0  0  0  0  0  0  0  0  0  0  0
  144.8520   71.2450  219.4130 C   0  0  0  0  0  0  0  0  0  0  0  0
  146.1110   70.6600  219.3680 C   0  0  0  0  0  0  0  0  0  0  0  0
  144.7920   72.6540  219.8740 C   0  0  0  0  0  0  0  0  0  0  0  0
  143.4900   73.2350  219.3800 C   0  0  0  0  0  0  0  0  0  0  0  0
  142.4320   72.3440  219.7610 N   0  0  0  0  0  0  0  0  0  0  0  0
  141.4890   72.6450  220.7580 C   0  0  0  0  0  0  0  0  0  0  0  0
  140.8510   71.7220  221.5010 N   0  0  0  0  0  0  0  0  0  0  0  0
  139.9530   72.0480  222.4520 C   0  0  0  0  0  0  0  0  0  0  0  0
  139.2760   71.0710  223.2360 N   0  0  0  0  0  0  0  0  0  0  0  0
  139.3430   71.0160  224.6780 C   0  0  0  0  0  0  0  0  0  0  0  0
  140.7230   70.8000  225.1980 C   0  0  0  0  0  0  0  0  0  0  0  0
  140.8170   69.4090  225.7810 C   0  0  0  0  0  0  0  0  0  0  0  0
  140.0460   69.3370  227.0750 C   0  0  0  0  0  0  0  0  0  0  0  0
  140.7620   70.2500  228.0560 C   0  0  0  0  0  0  0  0  0  0  0  0
  140.7310   71.6580  227.5710 C   0  0  0  0  0  0  0  0  0  0  0  0
  141.1450   71.8670  226.1540 C   0  0  0  0  0  0  0  0  0  0  0  0
  139.6530   73.3400  222.6990 N   0  0  0  0  0  0  0  0  0  0  0  0
  140.2790   74.2820  221.9680 C   0  0  0  0  0  0  0  0  0  0  0  0
  139.9710   75.6700  222.2170 N   0  0  0  0  0  0  0  0  0  0  0  0
  138.5850   76.0020  222.3670 C   0  0  0  0  0  0  0  0  0  0  0  0
  138.2840   77.3990  221.8060 C   0  0  0  0  0  0  0  0  0  0  0  0
  139.2660   78.3750  222.4000 C   0  0  0  0  0  0  0  0  0  0  0  0
  138.8630   79.6510  222.7180 C   0  0  0  0  0  0  0  0  0  0  0  0
  139.7840   80.5380  223.2680 C   0  0  0  0  0  0  0  0  0  0  0  0
  141.1020   80.1430  223.4960 C   0  0  0  0  0  0  0  0  0  0  0  0
  141.4610   78.8550  223.1610 C   0  0  0  0  0  0  0  0  0  0  0  0
  140.5580   77.9500  222.6100 C   0  0  0  0  0  0  0  0  0  0  0  0
  141.0650   76.6060  222.2950 C   0  0  0  0  0  0  0  0  0  0  0  0
  141.1820   73.9340  221.0130 N   0  0  0  0  0  0  0  0  0  0  0  0
  142.3610   71.0610  219.0550 C   0  0  0  0  0  0  0  0  0  0  0  0
  147.3036   68.9078  218.9281 H   0  0  0  0  0  0  0  0  0  0  0  0
  145.2890   67.5808  218.2474 H   0  0  0  0  0  0  0  0  0  0  0  0
  143.0350   68.6031  218.3191 H   0  0  0  0  0  0  0  0  0  0  0  0
  146.9859   71.2549  219.6692 H   0  0  0  0  0  0  0  0  0  0  0  0
  144.8279   72.6920  220.9728 H   0  0  0  0  0  0  0  0  0  0  0  0
  145.6460   73.2271  219.4839 H   0  0  0  0  0  0  0  0  0  0  0  0
  143.3267   74.2236  219.8339 H   0  0  0  0  0  0  0  0  0  0  0  0
  143.5150   73.3518  218.2865 H   0  0  0  0  0  0  0  0  0  0  0  0
  138.7060   70.3700  222.6760 H   0  0  0  0  0  0  0  0  0  0  0  0
  138.9630   71.9662  225.0813 H   0  0  0  0  0  0  0  0  0  0  0  0
  138.7365   70.1563  224.9990 H   0  0  0  0  0  0  0  0  0  0  0  0
  141.4378   70.8752  224.3653 H   0  0  0  0  0  0  0  0  0  0  0  0
  140.3971   68.6857  225.0664 H   0  0  0  0  0  0  0  0  0  0  0  0
  141.8729   69.1711  225.9770 H   0  0  0  0  0  0  0  0  0  0  0  0
  139.0125   69.6807  226.9210 H   0  0  0  0  0  0  0  0  0  0  0  0
  139.9999   68.3051  227.4533 H   0  0  0  0  0  0  0  0  0  0  0  0
  140.2635   70.1926  229.0349 H   0  0  0  0  0  0  0  0  0  0  0  0
  141.8094   69.9262  228.1462 H   0  0  0  0  0  0  0  0  0  0  0  0
  139.7014   72.0295  227.6798 H   0  0  0  0  0  0  0  0  0  0  0  0
  141.4696   72.1995  228.1803 H   0  0  0  0  0  0  0  0  0  0  0  0
  140.7135   72.8191  225.8116 H   0  0  0  0  0  0  0  0  0  0  0  0
  142.2449   71.8543  226.1552 H   0  0  0  0  0  0  0  0  0  0  0  0
  137.9781   75.2603  221.8271 H   0  0  0  0  0  0  0  0  0  0  0  0
  138.3402   75.9975  223.4394 H   0  0  0  0  0  0  0  0  0  0  0  0
  138.3871   77.3891  220.7109 H   0  0  0  0  0  0  0  0  0  0  0  0
  137.2563   77.6949  222.0634 H   0  0  0  0  0  0  0  0  0  0  0  0
  137.8246   79.9670  222.5397 H   0  0  0  0  0  0  0  0  0  0  0  0
  139.4693   81.5602  223.5253 H   0  0  0  0  0  0  0  0  0  0  0  0
  141.8341   80.8394  223.9307 H   0  0  0  0  0  0  0  0  0  0  0  0
  142.4976   78.5308  223.3352 H   0  0  0  0  0  0  0  0  0  0  0  0
  141.5908   76.6325  221.3292 H   0  0  0  0  0  0  0  0  0  0  0  0
  141.7565   76.2866  223.0886 H   0  0  0  0  0  0  0  0  0  0  0  0
  141.6864   70.3719  219.5842 H   0  0  0  0  0  0  0  0  0  0  0  0
  141.9692   71.1872  218.0349 H   0  0  0  0  0  0  0  0  0  0  0  0
  1  2  2  0
  2  3  1  0
  3  4  2  0
  4  5  1  0
  5  6  2  0
  5  7  1  0
  7  8  1  0
  8  9  1  0
  9 10  1  0
 10 11  2  0
 11 12  1  0
 12 13  1  0
 13 14  1  0
 14 15  1  0
 15 16  1  0
 16 17  1  0
 17 18  1  0
 18 19  1  0
 19 20  1  0
 12 21  2  0
 21 22  1  0
 22 23  1  0
 23 24  1  0
 24 25  1  0
 25 26  1  0
 26 27  2  0
 27 28  1  0
 28 29  2  0
 29 30  1  0
 30 31  2  0
 31 32  1  0
 22 33  2  0
  9 34  1  0
  6  1  1  0
 33 10  1  0
 34  4  1  0
 20 15  1  0
 32 23  1  0
 31 26  1  0
  1 35  1  0
  2 36  1  0
  3 37  1  0
  6 38  1  0
  7 39  1  0
  7 40  1  0
  8 41  1  0
  8 42  1  0
 13 43  1  0
 14 44  1  0
 14 45  1  0
 15 46  1  0
 16 47  1  0
 16 48  1  0
 17 49  1  0
 17 50  1  0
 18 51  1  0
 18 52  1  0
 19 53  1  0
 19 54  1  0
 20 55  1  0
 20 56  1  0
 24 57  1  0
 24 58  1  0
 25 59  1  0
 25 60  1  0
 27 61  1  0
 28 62  1  0
 29 63  1  0
 30 64  1  0
 32 65  1  0
 32 66  1  0
 34 67  1  0
 34 68  1  0
M  END
>  <smiles>  (24) 
c1ccc2c(c1)CCN(c1nc(NCC3CCCCC3)nc(N3CCc4ccccc4C3)n1)C2

>  <score_type>  (24) 
oracle

>  <origin>  (24) 
autodockgpu

>  <m_score__min__energy>  (24) 
-10.220000000000001

>  <m_primary>  (24) 
energy

>  <rmsd>  (24) 
9.87684894403844

>  <m_score__min__rmsd>  (24) 
9.87684894403844

>  <meeko>  (24) 
{"free_energy": -9.62, "intermolecular_energy": -11.11, "internal_energy": -1.13, "cluster_size": 20, "cluster_id": 1, "rank_in_cluster": 17}

>  <energy>  (24) 
-9.81

>  <cluster_rmsd>  (24) 
0.07

>  <cluster>  (24) 
2

$$$$

     RDKit          3D

 68 73  0  0  0  0  0  0  0  0999 V2000
  140.6960   79.8350  223.4740 C   0  0  0  0  0  0  0  0  0  0  0  0
  141.7370   79.7680  222.5500 C   0  0  0  0  0  0  0  0  0  0  0  0
  141.8410   78.6950  221.6780 C   0  0  0  0  0  0  0  0  0  0  0  0
  140.9010   77.6620  221.7090 C   0  0  0  0  0  0  0  0  0  0  0  0
  139.8700   77.7230  222.6200 C   0  0  0  0  0  0  0  0  0  0  0  0
  139.7780   78.8030  223.4890 C   0  0  0  0  0  0  0  0  0  0  0  0
  138.8170   76.6830  222.7410 C   0  0  0  0  0  0  0  0  0  0  0  0
  138.7940   75.9120  221.4440 C   0  0  0  0  0  0  0  0  0  0  0  0
  140.1350   75.4970  221.1480 N   0  0  0  0  0  0  0  0  0  0  0  0
  140.5690   74.1650  221.2320 C   0  0  0  0  0  0  0  0  0  0  0  0
  141.2960   73.5430  220.2850 N   0  0  0  0  0  0  0  0  0  0  0  0
  141.6980   72.2610  220.4000 C   0  0  0  0  0  0  0  0  0  0  0  0
  142.4650   71.6040  219.3970 N   0  0  0  0  0  0  0  0  0  0  0  0
  143.8450   71.2130  219.5730 C   0  0  0  0  0  0  0  0  0  0  0  0
  144.8140   72.2080  219.0320 C   0  0  0  0  0  0  0  0  0  0  0  0
  145.9690   72.3440  219.9970 C   0  0  0  0  0  0  0  0  0  0  0  0
  145.5220   73.0760  221.2390 C   0  0  0  0  0  0  0  0  0  0  0  0
  145.1720   74.4890  220.8050 C   0  0  0  0  0  0  0  0  0  0  0  0
  144.0360   74.4690  219.8410 C   0  0  0  0  0  0  0  0  0  0  0  0
  144.1670   73.5130  218.7040 C   0  0  0  0  0  0  0  0  0  0  0  0
  141.3770   71.5370  221.4920 N   0  0  0  0  0  0  0  0  0  0  0  0
  140.6490   72.1370  222.4530 C   0  0  0  0  0  0  0  0  0  0  0  0
  140.2950   71.3790  223.6290 N   0  0  0  0  0  0  0  0  0  0  0  0
  139.5560   70.1690  223.4140 C   0  0  0  0  0  0  0  0  0  0  0  0
  138.5660   69.9110  224.5580 C   0  0  0  0  0  0  0  0  0  0  0  0
  139.3090   70.0090  225.8650 C   0  0  0  0  0  0  0  0  0  0  0  0
  138.9870   69.1670  226.9050 C   0  0  0  0  0  0  0  0  0  0  0  0
  139.6860   69.2700  228.1050 C   0  0  0  0  0  0  0  0  0  0  0  0
  140.7010   70.2150  228.2560 C   0  0  0  0  0  0  0  0  0  0  0  0
  140.9890   71.0380  227.1870 C   0  0  0  0  0  0  0  0  0  0  0  0
  140.3040   70.9520  225.9780 C   0  0  0  0  0  0  0  0  0  0  0  0
  140.7040   71.8870  224.9150 C   0  0  0  0  0  0  0  0  0  0  0  0
  140.2540   73.4310  222.3190 N   0  0  0  0  0  0  0  0  0  0  0  0
  141.0770   76.5460  220.7430 C   0  0  0  0  0  0  0  0  0  0  0  0
  140.6081   80.6828  224.1693 H   0  0  0  0  0  0  0  0  0  0  0  0
  142.4839   80.5747  222.5120 H   0  0  0  0  0  0  0  0  0  0  0  0
  142.6701   78.6568  220.9561 H   0  0  0  0  0  0  0  0  0  0  0  0
  138.9488   78.8373  224.2110 H   0  0  0  0  0  0  0  0  0  0  0  0
  139.0506   76.0067  223.5765 H   0  0  0  0  0  0  0  0  0  0  0  0
  137.8372   77.1429  222.9372 H   0  0  0  0  0  0  0  0  0  0  0  0
  138.1448   75.0299  221.5461 H   0  0  0  0  0  0  0  0  0  0  0  0
  138.4027   76.5432  220.6325 H   0  0  0  0  0  0  0  0  0  0  0  0
  141.9430   71.4160  218.4900 H   0  0  0  0  0  0  0  0  0  0  0  0
  144.0377   71.0874  220.6487 H   0  0  0  0  0  0  0  0  0  0  0  0
  143.9922   70.2776  219.0132 H   0  0  0  0  0  0  0  0  0  0  0  0
  145.2062   71.8436  218.0711 H   0  0  0  0  0  0  0  0  0  0  0  0
  146.3311   71.3431  220.2748 H   0  0  0  0  0  0  0  0  0  0  0  0
  146.7771   72.9131  219.5142 H   0  0  0  0  0  0  0  0  0  0  0  0
  144.6403   72.5828  221.6741 H   0  0  0  0  0  0  0  0  0  0  0  0
  146.3120   73.0794  222.0045 H   0  0  0  0  0  0  0  0  0  0  0  0
  144.8876   75.0797  221.6883 H   0  0  0  0  0  0  0  0  0  0  0  0
  146.0480   74.9396  220.3155 H   0  0  0  0  0  0  0  0  0  0  0  0
  143.1246   74.2075  220.3986 H   0  0  0  0  0  0  0  0  0  0  0  0
  144.0108   75.4710  219.3878 H   0  0  0  0  0  0  0  0  0  0  0  0
  143.1579   73.3037  218.3194 H   0  0  0  0  0  0  0  0  0  0  0  0
  144.8278   74.0021  217.9732 H   0  0  0  0  0  0  0  0  0  0  0  0
  138.9986   70.2524  222.4694 H   0  0  0  0  0  0  0  0  0  0  0  0
  140.2665   69.3302  223.3732 H   0  0  0  0  0  0  0  0  0  0  0  0
  137.7632   70.6625  224.5304 H   0  0  0  0  0  0  0  0  0  0  0  0
  138.1203   68.9109  224.4521 H   0  0  0  0  0  0  0  0  0  0  0  0
  138.1867   68.4212  226.7896 H   0  0  0  0  0  0  0  0  0  0  0  0
  139.4356   68.6004  228.9410 H   0  0  0  0  0  0  0  0  0  0  0  0
  141.2565   70.3015  229.2015 H   0  0  0  0  0  0  0  0  0  0  0  0
  141.7869   71.7876  227.2934 H   0  0  0  0  0  0  0  0  0  0  0  0
  140.2264   72.8624  225.0896 H   0  0  0  0  0  0  0  0  0  0  0  0
  141.7982   71.9988  224.9267 H   0  0  0  0  0  0  0  0  0  0  0  0
  142.1089   76.1671  220.7830 H   0  0  0  0  0  0  0  0  0  0  0  0
  140.8867   76.8770  219.7114 H   0  0  0  0  0  0  0  0  0  0  0  0
  1  2  2  0
  2  3  1  0
  3  4  2  0
  4  5  1  0
  5  6  2  0
  5  7  1  0
  7  8  1  0
  8  9  1  0
  9 10  1  0
 10 11  2  0
 11 12  1  0
 12 13  1  0
 13 14  1  0
 14 15  1  0
 15 16  1  0
 16 17  1  0
 17 18  1  0
 18 19  1  0
 19 20  1  0
 12 21  2  0
 21 22  1  0
 22 23  1  0
 23 24  1  0
 24 25  1  0
 25 26  1  0
 26 27  2  0
 27 28  1  0
 28 29  2  0
 29 30  1  0
 30 31  2  0
 31 32  1  0
 22 33  2  0
  9 34  1  0
  6  1  1  0
 33 10  1  0
 34  4  1  0
 20 15  1  0
 32 23  1  0
 31 26  1  0
  1 35  1  0
  2 36  1  0
  3 37  1  0
  6 38  1  0
  7 39  1  0
  7 40  1  0
  8 41  1  0
  8 42  1  0
 13 43  1  0
 14 44  1  0
 14 45  1  0
 15 46  1  0
 16 47  1  0
 16 48  1  0
 17 49  1  0
 17 50  1  0
 18 51  1  0
 18 52  1  0
 19 53  1  0
 19 54  1  0
 20 55  1  0
 20 56  1  0
 24 57  1  0
 24 58  1  0
 25 59  1  0
 25 60  1  0
 27 61  1  0
 28 62  1  0
 29 63  1  0
 30 64  1  0
 32 65  1  0
 32 66  1  0
 34 67  1  0
 34 68  1  0
M  END
>  <smiles>  (25) 
c1ccc2c(c1)CCN(c1nc(NCC3CCCCC3)nc(N3CCc4ccccc4C3)n1)C2

>  <score_type>  (25) 
oracle

>  <origin>  (25) 
autodockgpu

>  <m_score__min__energy>  (25) 
-10.220000000000001

>  <m_primary>  (25) 
energy

>  <rmsd>  (25) 
4.941877136040198

>  <m_score__min__rmsd>  (25) 
4.941877136040198

>  <meeko>  (25) 
{"free_energy": -9.81, "intermolecular_energy": -11.3, "internal_energy": -1.54, "cluster_size": 23, "cluster_id": 2, "rank_in_cluster": 4}

>  <energy>  (25) 
-9.8

>  <cluster_rmsd>  (25) 
0.1

>  <cluster>  (25) 
2

$$$$

     RDKit          3D

 68 73  0  0  0  0  0  0  0  0999 V2000
  132.7520   73.9530  227.1650 C   0  0  0  0  0  0  0  0  0  0  0  0
  133.3270   74.9960  226.4410 C   0  0  0  0  0  0  0  0  0  0  0  0
  134.1860   74.7360  225.3840 C   0  0  0  0  0  0  0  0  0  0  0  0
  134.4890   73.4210  225.0250 C   0  0  0  0  0  0  0  0  0  0  0  0
  133.9240   72.3850  225.7350 C   0  0  0  0  0  0  0  0  0  0  0  0
  133.0670   72.6600  226.7920 C   0  0  0  0  0  0  0  0  0  0  0  0
  134.1760   70.9530  225.4410 C   0  0  0  0  0  0  0  0  0  0  0  0
  134.6810   70.8660  224.0210 C   0  0  0  0  0  0  0  0  0  0  0  0
  135.7640   71.7960  223.8760 N   0  0  0  0  0  0  0  0  0  0  0  0
  137.1050   71.4050  223.7350 C   0  0  0  0  0  0  0  0  0  0  0  0
  137.6210   70.2690  224.2430 N   0  0  0  0  0  0  0  0  0  0  0  0
  138.9150   69.9240  224.0850 C   0  0  0  0  0  0  0  0  0  0  0  0
  139.4600   68.7250  224.6240 N   0  0  0  0  0  0  0  0  0  0  0  0
  139.5470   68.4510  226.0400 C   0  0  0  0  0  0  0  0  0  0  0  0
  140.8420   68.8730  226.6450 C   0  0  0  0  0  0  0  0  0  0  0  0
  140.6370   69.1220  228.1210 C   0  0  0  0  0  0  0  0  0  0  0  0
  139.8380   70.3860  228.3260 C   0  0  0  0  0  0  0  0  0  0  0  0
  140.7030   71.5300  227.8260 C   0  0  0  0  0  0  0  0  0  0  0  0
  140.9710   71.3790  226.3680 C   0  0  0  0  0  0  0  0  0  0  0  0
  141.4510   70.0360  225.9320 C   0  0  0  0  0  0  0  0  0  0  0  0
  139.7590   70.7220  223.3980 N   0  0  0  0  0  0  0  0  0  0  0  0
  139.2660   71.8640  222.8820 C   0  0  0  0  0  0  0  0  0  0  0  0
  140.1540   72.7310  222.1450 N   0  0  0  0  0  0  0  0  0  0  0  0
  139.7260   74.0870  221.9690 C   0  0  0  0  0  0  0  0  0  0  0  0
  140.1880   74.6450  220.6160 C   0  0  0  0  0  0  0  0  0  0  0  0
  141.6670   74.3950  220.4740 C   0  0  0  0  0  0  0  0  0  0  0  0
  142.4680   75.3280  219.8580 C   0  0  0  0  0  0  0  0  0  0  0  0
  143.8330   75.0800  219.7390 C   0  0  0  0  0  0  0  0  0  0  0  0
  144.3870   73.9010  220.2370 C   0  0  0  0  0  0  0  0  0  0  0  0
  143.5450   72.9940  220.8470 C   0  0  0  0  0  0  0  0  0  0  0  0
  142.1780   73.2200  220.9780 C   0  0  0  0  0  0  0  0  0  0  0  0
  141.3880   72.1760  221.6470 C   0  0  0  0  0  0  0  0  0  0  0  0
  137.9580   72.1940  223.0500 N   0  0  0  0  0  0  0  0  0  0  0  0
  135.4160   73.2200  223.8800 C   0  0  0  0  0  0  0  0  0  0  0  0
  132.0704   74.1523  228.0050 H   0  0  0  0  0  0  0  0  0  0  0  0
  133.0968   76.0372  226.7112 H   0  0  0  0  0  0  0  0  0  0  0  0
  134.6319   75.5715  224.8244 H   0  0  0  0  0  0  0  0  0  0  0  0
  132.6245   71.8220  227.3505 H   0  0  0  0  0  0  0  0  0  0  0  0
  134.9315   70.5542  226.1339 H   0  0  0  0  0  0  0  0  0  0  0  0
  133.2553   70.3636  225.5627 H   0  0  0  0  0  0  0  0  0  0  0  0
  135.0352   69.8456  223.8130 H   0  0  0  0  0  0  0  0  0  0  0  0
  133.8738   71.1073  223.3137 H   0  0  0  0  0  0  0  0  0  0  0  0
  139.8070   68.0300  223.8980 H   0  0  0  0  0  0  0  0  0  0  0  0
  138.7327   68.9869  226.5497 H   0  0  0  0  0  0  0  0  0  0  0  0
  139.4692   67.3610  226.1657 H   0  0  0  0  0  0  0  0  0  0  0  0
  141.5757   68.0616  226.5298 H   0  0  0  0  0  0  0  0  0  0  0  0
  140.0943   68.2727  228.5616 H   0  0  0  0  0  0  0  0  0  0  0  0
  141.6172   69.2319  228.6079 H   0  0  0  0  0  0  0  0  0  0  0  0
  138.9005   70.3399  227.7525 H   0  0  0  0  0  0  0  0  0  0  0  0
  139.5733   70.5214  229.3851 H   0  0  0  0  0  0  0  0  0  0  0  0
  140.1817   72.4825  228.0021 H   0  0  0  0  0  0  0  0  0  0  0  0
  141.6600   71.5174  228.3682 H   0  0  0  0  0  0  0  0  0  0  0  0
  140.0367   71.5948  225.8290 H   0  0  0  0  0  0  0  0  0  0  0  0
  141.7901   72.0772  226.1409 H   0  0  0  0  0  0  0  0  0  0  0  0
  141.2310   69.9291  224.8595 H   0  0  0  0  0  0  0  0  0  0  0  0
  142.5247   70.0073  226.1692 H   0  0  0  0  0  0  0  0  0  0  0  0
  138.6277   74.1254  222.0165 H   0  0  0  0  0  0  0  0  0  0  0  0
  140.1710   74.6986  222.7677 H   0  0  0  0  0  0  0  0  0  0  0  0
  139.6468   74.1400  219.8023 H   0  0  0  0  0  0  0  0  0  0  0  0
  139.9821   75.7243  220.5640 H   0  0  0  0  0  0  0  0  0  0  0  0
  142.0353   76.2594  219.4639 H   0  0  0  0  0  0  0  0  0  0  0  0
  144.4805   75.8211  219.2475 H   0  0  0  0  0  0  0  0  0  0  0  0
  145.4646   73.6999  220.1461 H   0  0  0  0  0  0  0  0  0  0  0  0
  143.9690   72.0597  221.2436 H   0  0  0  0  0  0  0  0  0  0  0  0
  141.1625   71.3740  220.9287 H   0  0  0  0  0  0  0  0  0  0  0  0
  141.9669   71.7714  222.4903 H   0  0  0  0  0  0  0  0  0  0  0  0
  136.3203   73.8325  224.0103 H   0  0  0  0  0  0  0  0  0  0  0  0
  134.9485   73.5195  222.9304 H   0  0  0  0  0  0  0  0  0  0  0  0
  1  2  2  0
  2  3  1  0
  3  4  2  0
  4  5  1  0
  5  6  2  0
  5  7  1  0
  7  8  1  0
  8  9  1  0
  9 10  1  0
 10 11  2  0
 11 12  1  0
 12 13  1  0
 13 14  1  0
 14 15  1  0
 15 16  1  0
 16 17  1  0
 17 18  1  0
 18 19  1  0
 19 20  1  0
 12 21  2  0
 21 22  1  0
 22 23  1  0
 23 24  1  0
 24 25  1  0
 25 26  1  0
 26 27  2  0
 27 28  1  0
 28 29  2  0
 29 30  1  0
 30 31  2  0
 31 32  1  0
 22 33  2  0
  9 34  1  0
  6  1  1  0
 33 10  1  0
 34  4  1  0
 20 15  1  0
 32 23  1  0
 31 26  1  0
  1 35  1  0
  2 36  1  0
  3 37  1  0
  6 38  1  0
  7 39  1  0
  7 40  1  0
  8 41  1  0
  8 42  1  0
 13 43  1  0
 14 44  1  0
 14 45  1  0
 15 46  1  0
 16 47  1  0
 16 48  1  0
 17 49  1  0
 17 50  1  0
 18 51  1  0
 18 52  1  0
 19 53  1  0
 19 54  1  0
 20 55  1  0
 20 56  1  0
 24 57  1  0
 24 58  1  0
 25 59  1  0
 25 60  1  0
 27 61  1  0
 28 62  1  0
 29 63  1  0
 30 64  1  0
 32 65  1  0
 32 66  1  0
 34 67  1  0
 34 68  1  0
M  END
>  <smiles>  (26) 
c1ccc2c(c1)CCN(c1nc(NCC3CCCCC3)nc(N3CCc4ccccc4C3)n1)C2

>  <score_type>  (26) 
oracle

>  <origin>  (26) 
autodockgpu

>  <m_score__min__energy>  (26) 
-10.220000000000001

>  <m_primary>  (26) 
energy

>  <rmsd>  (26) 
10.725195197933663

>  <m_score__min__rmsd>  (26) 
10.725195197933663

>  <meeko>  (26) 
{"free_energy": -9.3, "intermolecular_energy": -10.79, "internal_energy": -1.47, "cluster_size": 4, "cluster_id": 4, "rank_in_cluster": 3}

>  <energy>  (26) 
-9.8

>  <cluster_rmsd>  (26) 
0.11

>  <cluster>  (26) 
2

$$$$

     RDKit          3D

 68 73  0  0  0  0  0  0  0  0999 V2000
  141.1050   79.7700  223.5290 C   0  0  0  0  0  0  0  0  0  0  0  0
  142.1010   79.6700  222.5590 C   0  0  0  0  0  0  0  0  0  0  0  0
  142.0760   78.6500  221.6210 C   0  0  0  0  0  0  0  0  0  0  0  0
  141.0490   77.7030  221.6310 C   0  0  0  0  0  0  0  0  0  0  0  0
  140.0620   77.7960  222.5860 C   0  0  0  0  0  0  0  0  0  0  0  0
  140.1000   78.8230  223.5210 C   0  0  0  0  0  0  0  0  0  0  0  0
  138.9260   76.8470  222.6900 C   0  0  0  0  0  0  0  0  0  0  0  0
  138.7850   76.1640  221.3510 C   0  0  0  0  0  0  0  0  0  0  0  0
  140.0720   75.6540  220.9750 N   0  0  0  0  0  0  0  0  0  0  0  0
  140.3860   74.2850  220.9600 C   0  0  0  0  0  0  0  0  0  0  0  0
  140.9370   73.6460  219.9110 N   0  0  0  0  0  0  0  0  0  0  0  0
  141.2290   72.3290  219.9340 C   0  0  0  0  0  0  0  0  0  0  0  0
  141.8100   71.6520  218.8240 N   0  0  0  0  0  0  0  0  0  0  0  0
  143.0700   72.0290  218.2270 C   0  0  0  0  0  0  0  0  0  0  0  0
  144.2510   71.4400  218.9200 C   0  0  0  0  0  0  0  0  0  0  0  0
  144.0590   71.5670  220.4130 C   0  0  0  0  0  0  0  0  0  0  0  0
  144.2110   73.0080  220.8340 C   0  0  0  0  0  0  0  0  0  0  0  0
  145.6580   73.3850  220.5660 C   0  0  0  0  0  0  0  0  0  0  0  0
  145.9580   73.2900  219.1100 C   0  0  0  0  0  0  0  0  0  0  0  0
  145.5400   72.0230  218.4420 C   0  0  0  0  0  0  0  0  0  0  0  0
  140.9730   71.5880  221.0320 N   0  0  0  0  0  0  0  0  0  0  0  0
  140.4210   72.2060  222.0940 C   0  0  0  0  0  0  0  0  0  0  0  0
  140.1390   71.4300  223.2770 N   0  0  0  0  0  0  0  0  0  0  0  0
  139.3190   70.2680  223.1010 C   0  0  0  0  0  0  0  0  0  0  0  0
  138.4280   70.0250  224.3280 C   0  0  0  0  0  0  0  0  0  0  0  0
  139.2950   70.0430  225.5600 C   0  0  0  0  0  0  0  0  0  0  0  0
  139.0270   69.1860  226.6030 C   0  0  0  0  0  0  0  0  0  0  0  0
  139.8410   69.2150  227.7320 C   0  0  0  0  0  0  0  0  0  0  0  0
  140.9150   70.1010  227.8110 C   0  0  0  0  0  0  0  0  0  0  0  0
  141.1450   70.9410  226.7420 C   0  0  0  0  0  0  0  0  0  0  0  0
  140.3460   70.9290  225.6020 C   0  0  0  0  0  0  0  0  0  0  0  0
  140.6950   71.8750  224.5310 C   0  0  0  0  0  0  0  0  0  0  0  0
  140.1350   73.5350  222.0520 N   0  0  0  0  0  0  0  0  0  0  0  0
  141.0880   76.6390  220.5930 C   0  0  0  0  0  0  0  0  0  0  0  0
  141.1191   80.5769  224.2765 H   0  0  0  0  0  0  0  0  0  0  0  0
  142.9158   80.4087  222.5378 H   0  0  0  0  0  0  0  0  0  0  0  0
  142.8706   78.5856  220.8631 H   0  0  0  0  0  0  0  0  0  0  0  0
  139.3047   78.8836  224.2785 H   0  0  0  0  0  0  0  0  0  0  0  0
  139.1292   76.1015  223.4729 H   0  0  0  0  0  0  0  0  0  0  0  0
  137.9995   77.3774  222.9552 H   0  0  0  0  0  0  0  0  0  0  0  0
  138.0638   75.3370  221.4280 H   0  0  0  0  0  0  0  0  0  0  0  0
  138.4209   76.8760  220.5957 H   0  0  0  0  0  0  0  0  0  0  0  0
  141.2400   70.8330  218.4570 H   0  0  0  0  0  0  0  0  0  0  0  0
  143.0752   71.6911  217.1802 H   0  0  0  0  0  0  0  0  0  0  0  0
  143.1555   73.1225  218.3103 H   0  0  0  0  0  0  0  0  0  0  0  0
  144.3201   70.3710  218.6701 H   0  0  0  0  0  0  0  0  0  0  0  0
  143.0527   71.2135  220.6819 H   0  0  0  0  0  0  0  0  0  0  0  0
  144.8185   70.9595  220.9269 H   0  0  0  0  0  0  0  0  0  0  0  0
  143.5364   73.6486  220.2471 H   0  0  0  0  0  0  0  0  0  0  0  0
  143.9550   73.1416  221.8954 H   0  0  0  0  0  0  0  0  0  0  0  0
  145.8327   74.4166  220.9055 H   0  0  0  0  0  0  0  0  0  0  0  0
  146.3145   72.6913  221.1117 H   0  0  0  0  0  0  0  0  0  0  0  0
  145.4462   74.1225  218.6050 H   0  0  0  0  0  0  0  0  0  0  0  0
  147.0544   73.3231  219.0282 H   0  0  0  0  0  0  0  0  0  0  0  0
  145.4425   72.2238  217.3649 H   0  0  0  0  0  0  0  0  0  0  0  0
  146.3158   71.2823  218.6862 H   0  0  0  0  0  0  0  0  0  0  0  0
  138.6805   70.4102  222.2166 H   0  0  0  0  0  0  0  0  0  0  0  0
  139.9757   69.3954  222.9695 H   0  0  0  0  0  0  0  0  0  0  0  0
  137.6682   70.8174  224.3975 H   0  0  0  0  0  0  0  0  0  0  0  0
  137.9206   69.0531  224.2386 H   0  0  0  0  0  0  0  0  0  0  0  0
  138.1799   68.4866  226.5453 H   0  0  0  0  0  0  0  0  0  0  0  0
  139.6351   68.5325  228.5697 H   0  0  0  0  0  0  0  0  0  0  0  0
  141.5606   70.1290  228.7012 H   0  0  0  0  0  0  0  0  0  0  0  0
  141.9889   71.6448  226.7917 H   0  0  0  0  0  0  0  0  0  0  0  0
  140.2905   72.8680  224.7765 H   0  0  0  0  0  0  0  0  0  0  0  0
  141.7900   71.9291  224.4407 H   0  0  0  0  0  0  0  0  0  0  0  0
  142.0824   76.1695  220.5660 H   0  0  0  0  0  0  0  0  0  0  0  0
  140.8901   77.0497  219.5919 H   0  0  0  0  0  0  0  0  0  0  0  0
  1  2  2  0
  2  3  1  0
  3  4  2  0
  4  5  1  0
  5  6  2  0
  5  7  1  0
  7  8  1  0
  8  9  1  0
  9 10  1  0
 10 11  2  0
 11 12  1  0
 12 13  1  0
 13 14  1  0
 14 15  1  0
 15 16  1  0
 16 17  1  0
 17 18  1  0
 18 19  1  0
 19 20  1  0
 12 21  2  0
 21 22  1  0
 22 23  1  0
 23 24  1  0
 24 25  1  0
 25 26  1  0
 26 27  2  0
 27 28  1  0
 28 29  2  0
 29 30  1  0
 30 31  2  0
 31 32  1  0
 22 33  2  0
  9 34  1  0
  6  1  1  0
 33 10  1  0
 34  4  1  0
 20 15  1  0
 32 23  1  0
 31 26  1  0
  1 35  1  0
  2 36  1  0
  3 37  1  0
  6 38  1  0
  7 39  1  0
  7 40  1  0
  8 41  1  0
  8 42  1  0
 13 43  1  0
 14 44  1  0
 14 45  1  0
 15 46  1  0
 16 47  1  0
 16 48  1  0
 17 49  1  0
 17 50  1  0
 18 51  1  0
 18 52  1  0
 19 53  1  0
 19 54  1  0
 20 55  1  0
 20 56  1  0
 24 57  1  0
 24 58  1  0
 25 59  1  0
 25 60  1  0
 27 61  1  0
 28 62  1  0
 29 63  1  0
 30 64  1  0
 32 65  1  0
 32 66  1  0
 34 67  1  0
 34 68  1  0
M  END
>  <smiles>  (27) 
c1ccc2c(c1)CCN(c1nc(NCC3CCCCC3)nc(N3CCc4ccccc4C3)n1)C2

>  <score_type>  (27) 
oracle

>  <origin>  (27) 
autodockgpu

>  <m_score__min__energy>  (27) 
-10.220000000000001

>  <m_primary>  (27) 
energy

>  <rmsd>  (27) 
4.981289748596084

>  <m_score__min__rmsd>  (27) 
4.981289748596084

>  <meeko>  (27) 
{"free_energy": -9.05, "intermolecular_energy": -10.54, "internal_energy": -1.29, "cluster_size": 23, "cluster_id": 2, "rank_in_cluster": 22}

>  <energy>  (27) 
-9.8

>  <cluster_rmsd>  (27) 
0.06

>  <cluster>  (27) 
2

$$$$

     RDKit          3D

 68 73  0  0  0  0  0  0  0  0999 V2000
  146.1880   69.2280  218.9400 C   0  0  0  0  0  0  0  0  0  0  0  0
  145.0600   68.4860  218.5950 C   0  0  0  0  0  0  0  0  0  0  0  0
  143.7970   69.0560  218.6400 C   0  0  0  0  0  0  0  0  0  0  0  0
  143.6320   70.3850  219.0320 C   0  0  0  0  0  0  0  0  0  0  0  0
  144.7420   71.1250  219.3740 C   0  0  0  0  0  0  0  0  0  0  0  0
  146.0020   70.5420  219.3260 C   0  0  0  0  0  0  0  0  0  0  0  0
  144.6850   72.5440  219.8050 C   0  0  0  0  0  0  0  0  0  0  0  0
  143.3740   73.1110  219.3160 C   0  0  0  0  0  0  0  0  0  0  0  0
  142.3240   72.2260  219.7310 N   0  0  0  0  0  0  0  0  0  0  0  0
  141.3940   72.5460  220.7330 C   0  0  0  0  0  0  0  0  0  0  0  0
  140.7450   71.6360  221.4840 N   0  0  0  0  0  0  0  0  0  0  0  0
  139.8590   71.9810  222.4410 C   0  0  0  0  0  0  0  0  0  0  0  0
  139.1710   71.0180  223.2330 N   0  0  0  0  0  0  0  0  0  0  0  0
  139.2640   70.9540  224.6730 C   0  0  0  0  0  0  0  0  0  0  0  0
  140.6560   70.7560  225.1670 C   0  0  0  0  0  0  0  0  0  0  0  0
  140.7750   69.3730  225.7640 C   0  0  0  0  0  0  0  0  0  0  0  0
  140.0300   69.3100  227.0740 C   0  0  0  0  0  0  0  0  0  0  0  0
  140.7570   70.2400  228.0300 C   0  0  0  0  0  0  0  0  0  0  0  0
  140.7030   71.6420  227.5300 C   0  0  0  0  0  0  0  0  0  0  0  0
  141.0870   71.8380  226.1020 C   0  0  0  0  0  0  0  0  0  0  0  0
  139.5850   73.2790  222.6860 N   0  0  0  0  0  0  0  0  0  0  0  0
  140.2210   74.2070  221.9470 C   0  0  0  0  0  0  0  0  0  0  0  0
  139.9400   75.6010  222.1940 N   0  0  0  0  0  0  0  0  0  0  0  0
  138.5600   75.9590  222.3500 C   0  0  0  0  0  0  0  0  0  0  0  0
  138.2820   77.3590  221.7870 C   0  0  0  0  0  0  0  0  0  0  0  0
  139.2840   78.3190  222.3730 C   0  0  0  0  0  0  0  0  0  0  0  0
  138.9050   79.6030  222.6900 C   0  0  0  0  0  0  0  0  0  0  0  0
  139.8450   80.4750  223.2330 C   0  0  0  0  0  0  0  0  0  0  0  0
  141.1570   80.0570  223.4540 C   0  0  0  0  0  0  0  0  0  0  0  0
  141.4920   78.7610  223.1210 C   0  0  0  0  0  0  0  0  0  0  0  0
  140.5690   77.8720  222.5770 C   0  0  0  0  0  0  0  0  0  0  0  0
  141.0500   76.5170  222.2640 C   0  0  0  0  0  0  0  0  0  0  0  0
  141.1110   73.8400  220.9870 N   0  0  0  0  0  0  0  0  0  0  0  0
  142.2480   70.9270  219.0540 C   0  0  0  0  0  0  0  0  0  0  0  0
  147.1932   68.7826  218.9062 H   0  0  0  0  0  0  0  0  0  0  0  0
  145.1729   67.4370  218.2837 H   0  0  0  0  0  0  0  0  0  0  0  0
  142.9175   68.4555  218.3644 H   0  0  0  0  0  0  0  0  0  0  0  0
  146.8790   71.1450  219.6039 H   0  0  0  0  0  0  0  0  0  0  0  0
  144.7359   72.6062  220.9020 H   0  0  0  0  0  0  0  0  0  0  0  0
  145.5322   73.1104  219.3909 H   0  0  0  0  0  0  0  0  0  0  0  0
  143.2141   74.1089  219.7502 H   0  0  0  0  0  0  0  0  0  0  0  0
  143.3837   73.2037  218.2200 H   0  0  0  0  0  0  0  0  0  0  0  0
  138.5720   70.3360  222.6800 H   0  0  0  0  0  0  0  0  0  0  0  0
  138.8765   71.8953  225.0898 H   0  0  0  0  0  0  0  0  0  0  0  0
  138.6765   70.0828  224.9984 H   0  0  0  0  0  0  0  0  0  0  0  0
  141.3529   70.8273  224.3190 H   0  0  0  0  0  0  0  0  0  0  0  0
  140.3480   68.6373  225.0665 H   0  0  0  0  0  0  0  0  0  0  0  0
  141.8367   69.1468  225.9415 H   0  0  0  0  0  0  0  0  0  0  0  0
  138.9908   69.6434  226.9364 H   0  0  0  0  0  0  0  0  0  0  0  0
  140.0001   68.2823  227.4651 H   0  0  0  0  0  0  0  0  0  0  0  0
  140.2789   70.1891  229.0194 H   0  0  0  0  0  0  0  0  0  0  0  0
  141.8089   69.9267  228.1027 H   0  0  0  0  0  0  0  0  0  0  0  0
  139.6723   72.0053  227.6551 H   0  0  0  0  0  0  0  0  0  0  0  0
  141.4482   72.1975  228.1183 H   0  0  0  0  0  0  0  0  0  0  0  0
  140.6400   72.7821  225.7572 H   0  0  0  0  0  0  0  0  0  0  0  0
  142.1868   71.8352  226.0814 H   0  0  0  0  0  0  0  0  0  0  0  0
  137.9369   75.2271  221.8151 H   0  0  0  0  0  0  0  0  0  0  0  0
  138.3205   75.9618  223.4236 H   0  0  0  0  0  0  0  0  0  0  0  0
  138.3795   77.3442  220.6914 H   0  0  0  0  0  0  0  0  0  0  0  0
  137.2612   77.6741  222.0490 H   0  0  0  0  0  0  0  0  0  0  0  0
  137.8714   79.9369  222.5165 H   0  0  0  0  0  0  0  0  0  0  0  0
  139.5500   81.5031  223.4900 H   0  0  0  0  0  0  0  0  0  0  0  0
  141.9039   80.7418  223.8820 H   0  0  0  0  0  0  0  0  0  0  0  0
  142.5233   78.4183  223.2910 H   0  0  0  0  0  0  0  0  0  0  0  0
  141.5718   76.5309  221.2957 H   0  0  0  0  0  0  0  0  0  0  0  0
  141.7388   76.1878  223.0559 H   0  0  0  0  0  0  0  0  0  0  0  0
  141.5820   70.2481  219.6068 H   0  0  0  0  0  0  0  0  0  0  0  0
  141.8434   71.0302  218.0363 H   0  0  0  0  0  0  0  0  0  0  0  0
  1  2  2  0
  2  3  1  0
  3  4  2  0
  4  5  1  0
  5  6  2  0
  5  7  1  0
  7  8  1  0
  8  9  1  0
  9 10  1  0
 10 11  2  0
 11 12  1  0
 12 13  1  0
 13 14  1  0
 14 15  1  0
 15 16  1  0
 16 17  1  0
 17 18  1  0
 18 19  1  0
 19 20  1  0
 12 21  2  0
 21 22  1  0
 22 23  1  0
 23 24  1  0
 24 25  1  0
 25 26  1  0
 26 27  2  0
 27 28  1  0
 28 29  2  0
 29 30  1  0
 30 31  2  0
 31 32  1  0
 22 33  2  0
  9 34  1  0
  6  1  1  0
 33 10  1  0
 34  4  1  0
 20 15  1  0
 32 23  1  0
 31 26  1  0
  1 35  1  0
  2 36  1  0
  3 37  1  0
  6 38  1  0
  7 39  1  0
  7 40  1  0
  8 41  1  0
  8 42  1  0
 13 43  1  0
 14 44  1  0
 14 45  1  0
 15 46  1  0
 16 47  1  0
 16 48  1  0
 17 49  1  0
 17 50  1  0
 18 51  1  0
 18 52  1  0
 19 53  1  0
 19 54  1  0
 20 55  1  0
 20 56  1  0
 24 57  1  0
 24 58  1  0
 25 59  1  0
 25 60  1  0
 27 61  1  0
 28 62  1  0
 29 63  1  0
 30 64  1  0
 32 65  1  0
 32 66  1  0
 34 67  1  0
 34 68  1  0
M  END
>  <smiles>  (28) 
c1ccc2c(c1)CCN(c1nc(NCC3CCCCC3)nc(N3CCc4ccccc4C3)n1)C2

>  <score_type>  (28) 
oracle

>  <origin>  (28) 
autodockgpu

>  <m_score__min__energy>  (28) 
-10.220000000000001

>  <m_primary>  (28) 
energy

>  <rmsd>  (28) 
9.934189319243277

>  <m_score__min__rmsd>  (28) 
9.934189319243277

>  <meeko>  (28) 
{"free_energy": -9.55, "intermolecular_energy": -11.04, "internal_energy": -1.14, "cluster_size": 20, "cluster_id": 1, "rank_in_cluster": 19}

>  <energy>  (28) 
-9.76

>  <cluster_rmsd>  (28) 
0.11

>  <cluster>  (28) 
2

$$$$

     RDKit          3D

 68 73  0  0  0  0  0  0  0  0999 V2000
  146.3140   69.6810  218.4110 C   0  0  0  0  0  0  0  0  0  0  0  0
  145.2240   69.5920  217.5470 C   0  0  0  0  0  0  0  0  0  0  0  0
  144.1830   70.5040  217.6250 C   0  0  0  0  0  0  0  0  0  0  0  0
  144.2080   71.5300  218.5710 C   0  0  0  0  0  0  0  0  0  0  0  0
  145.2820   71.6240  219.4280 C   0  0  0  0  0  0  0  0  0  0  0  0
  146.3180   70.7030  219.3400 C   0  0  0  0  0  0  0  0  0  0  0  0
  145.4130   72.6710  220.4710 C   0  0  0  0  0  0  0  0  0  0  0  0
  144.5030   73.8110  220.0820 C   0  0  0  0  0  0  0  0  0  0  0  0
  143.2010   73.2700  219.8150 N   0  0  0  0  0  0  0  0  0  0  0  0
  142.0930   73.4700  220.6530 C   0  0  0  0  0  0  0  0  0  0  0  0
  141.3340   74.5820  220.6540 N   0  0  0  0  0  0  0  0  0  0  0  0
  140.2740   74.7390  221.4730 C   0  0  0  0  0  0  0  0  0  0  0  0
  139.4730   75.9160  221.4760 N   0  0  0  0  0  0  0  0  0  0  0  0
  139.7380   77.0620  222.3140 C   0  0  0  0  0  0  0  0  0  0  0  0
  141.1330   77.5730  222.1950 C   0  0  0  0  0  0  0  0  0  0  0  0
  141.5040   78.2910  223.4700 C   0  0  0  0  0  0  0  0  0  0  0  0
  140.7630   79.6020  223.5610 C   0  0  0  0  0  0  0  0  0  0  0  0
  141.2800   80.4700  222.4270 C   0  0  0  0  0  0  0  0  0  0  0  0
  140.9660   79.8460  221.1110 C   0  0  0  0  0  0  0  0  0  0  0  0
  141.3310   78.4070  220.9720 C   0  0  0  0  0  0  0  0  0  0  0  0
  139.9290   73.7660  222.3420 N   0  0  0  0  0  0  0  0  0  0  0  0
  140.6740   72.6440  222.3600 C   0  0  0  0  0  0  0  0  0  0  0  0
  140.3200   71.5930  223.2830 N   0  0  0  0  0  0  0  0  0  0  0  0
  139.6010   70.4780  222.7390 C   0  0  0  0  0  0  0  0  0  0  0  0
  138.6040   69.9090  223.7590 C   0  0  0  0  0  0  0  0  0  0  0  0
  139.3330   69.6590  225.0530 C   0  0  0  0  0  0  0  0  0  0  0  0
  139.0140   68.5640  225.8230 C   0  0  0  0  0  0  0  0  0  0  0  0
  139.7000   68.3480  227.0150 C   0  0  0  0  0  0  0  0  0  0  0  0
  140.7000   69.2280  227.4290 C   0  0  0  0  0  0  0  0  0  0  0  0
  140.9850   70.3120  226.6250 C   0  0  0  0  0  0  0  0  0  0  0  0
  140.3130   70.5480  225.4290 C   0  0  0  0  0  0  0  0  0  0  0  0
  140.7090   71.7390  224.6630 C   0  0  0  0  0  0  0  0  0  0  0  0
  141.7380   72.5040  221.5260 N   0  0  0  0  0  0  0  0  0  0  0  0
  143.0560   72.4700  218.5940 C   0  0  0  0  0  0  0  0  0  0  0  0
  147.1437   68.9610  218.3549 H   0  0  0  0  0  0  0  0  0  0  0  0
  145.1894   68.7896  216.7953 H   0  0  0  0  0  0  0  0  0  0  0  0
  143.3301   70.4184  216.9356 H   0  0  0  0  0  0  0  0  0  0  0  0
  147.1685   70.7903  220.0321 H   0  0  0  0  0  0  0  0  0  0  0  0
  145.1128   72.2671  221.4491 H   0  0  0  0  0  0  0  0  0  0  0  0
  146.4551   73.0145  220.5482 H   0  0  0  0  0  0  0  0  0  0  0  0
  144.4431   74.5381  220.9053 H   0  0  0  0  0  0  0  0  0  0  0  0
  144.8933   74.3234  219.1903 H   0  0  0  0  0  0  0  0  0  0  0  0
  138.6500   75.8930  220.8030 H   0  0  0  0  0  0  0  0  0  0  0  0
  139.0459   77.8686  222.0305 H   0  0  0  0  0  0  0  0  0  0  0  0
  139.5979   76.7409  223.3567 H   0  0  0  0  0  0  0  0  0  0  0  0
  141.8189   76.7229  222.0652 H   0  0  0  0  0  0  0  0  0  0  0  0
  141.2380   77.6621  224.3324 H   0  0  0  0  0  0  0  0  0  0  0  0
  142.5862   78.4883  223.4704 H   0  0  0  0  0  0  0  0  0  0  0  0
  139.6814   79.4356  223.4493 H   0  0  0  0  0  0  0  0  0  0  0  0
  140.9259   80.0838  224.5364 H   0  0  0  0  0  0  0  0  0  0  0  0
  140.8033   81.4598  222.4818 H   0  0  0  0  0  0  0  0  0  0  0  0
  142.3712   80.5703  222.5232 H   0  0  0  0  0  0  0  0  0  0  0  0
  139.8826   79.9371  220.9441 H   0  0  0  0  0  0  0  0  0  0  0  0
  141.5790   80.3826  220.3719 H   0  0  0  0  0  0  0  0  0  0  0  0
  140.7174   77.9779  220.1661 H   0  0  0  0  0  0  0  0  0  0  0  0
  142.4111   78.3878  220.7647 H   0  0  0  0  0  0  0  0  0  0  0  0
  139.0511   70.8073  221.8451 H   0  0  0  0  0  0  0  0  0  0  0  0
  140.3237   69.6898  222.4813 H   0  0  0  0  0  0  0  0  0  0  0  0
  137.7907   70.6307  223.9250 H   0  0  0  0  0  0  0  0  0  0  0  0
  138.1741   68.9695  223.3815 H   0  0  0  0  0  0  0  0  0  0  0  0
  138.2261   67.8675  225.5004 H   0  0  0  0  0  0  0  0  0  0  0  0
  139.4511   67.4751  227.6363 H   0  0  0  0  0  0  0  0  0  0  0  0
  141.2456   69.0623  228.3696 H   0  0  0  0  0  0  0  0  0  0  0  0
  141.7707   71.0145  226.9399 H   0  0  0  0  0  0  0  0  0  0  0  0
  140.2156   72.6255  225.0881 H   0  0  0  0  0  0  0  0  0  0  0  0
  141.8014   71.8556  224.7184 H   0  0  0  0  0  0  0  0  0  0  0  0
  142.1088   71.9111  218.6152 H   0  0  0  0  0  0  0  0  0  0  0  0
  143.0426   73.1076  217.6978 H   0  0  0  0  0  0  0  0  0  0  0  0
  1  2  2  0
  2  3  1  0
  3  4  2  0
  4  5  1  0
  5  6  2  0
  5  7  1  0
  7  8  1  0
  8  9  1  0
  9 10  1  0
 10 11  2  0
 11 12  1  0
 12 13  1  0
 13 14  1  0
 14 15  1  0
 15 16  1  0
 16 17  1  0
 17 18  1  0
 18 19  1  0
 19 20  1  0
 12 21  2  0
 21 22  1  0
 22 23  1  0
 23 24  1  0
 24 25  1  0
 25 26  1  0
 26 27  2  0
 27 28  1  0
 28 29  2  0
 29 30  1  0
 30 31  2  0
 31 32  1  0
 22 33  2  0
  9 34  1  0
  6  1  1  0
 33 10  1  0
 34  4  1  0
 20 15  1  0
 32 23  1  0
 31 26  1  0
  1 35  1  0
  2 36  1  0
  3 37  1  0
  6 38  1  0
  7 39  1  0
  7 40  1  0
  8 41  1  0
  8 42  1  0
 13 43  1  0
 14 44  1  0
 14 45  1  0
 15 46  1  0
 16 47  1  0
 16 48  1  0
 17 49  1  0
 17 50  1  0
 18 51  1  0
 18 52  1  0
 19 53  1  0
 19 54  1  0
 20 55  1  0
 20 56  1  0
 24 57  1  0
 24 58  1  0
 25 59  1  0
 25 60  1  0
 27 61  1  0
 28 62  1  0
 29 63  1  0
 30 64  1  0
 32 65  1  0
 32 66  1  0
 34 67  1  0
 34 68  1  0
M  END
>  <smiles>  (29) 
c1ccc2c(c1)CCN(c1nc(NCC3CCCCC3)nc(N3CCc4ccccc4C3)n1)C2

>  <score_type>  (29) 
oracle

>  <origin>  (29) 
autodockgpu

>  <m_score__min__energy>  (29) 
-10.220000000000001

>  <m_primary>  (29) 
energy

>  <rmsd>  (29) 
9.404272659880153

>  <m_score__min__rmsd>  (29) 
9.404272659880153

>  <meeko>  (29) 
{"free_energy": -9.5, "intermolecular_energy": -10.99, "internal_energy": -1.13, "cluster_size": 3, "cluster_id": 3, "rank_in_cluster": 1}

>  <energy>  (29) 
-9.74

>  <cluster_rmsd>  (29) 
0.18

>  <cluster>  (29) 
2

$$$$

     RDKit          3D

 68 73  0  0  0  0  0  0  0  0999 V2000
  140.6370   79.8100  223.4300 C   0  0  0  0  0  0  0  0  0  0  0  0
  141.6780   79.7430  222.5050 C   0  0  0  0  0  0  0  0  0  0  0  0
  141.7840   78.6670  221.6370 C   0  0  0  0  0  0  0  0  0  0  0  0
  140.8490   77.6310  221.6730 C   0  0  0  0  0  0  0  0  0  0  0  0
  139.8180   77.6920  222.5840 C   0  0  0  0  0  0  0  0  0  0  0  0
  139.7230   78.7740  223.4490 C   0  0  0  0  0  0  0  0  0  0  0  0
  138.7700   76.6490  222.7110 C   0  0  0  0  0  0  0  0  0  0  0  0
  138.7480   75.8720  221.4160 C   0  0  0  0  0  0  0  0  0  0  0  0
  140.0910   75.4620  221.1210 N   0  0  0  0  0  0  0  0  0  0  0  0
  140.5290   74.1310  221.2090 C   0  0  0  0  0  0  0  0  0  0  0  0
  141.2450   73.5040  220.2560 N   0  0  0  0  0  0  0  0  0  0  0  0
  141.6520   72.2240  220.3770 C   0  0  0  0  0  0  0  0  0  0  0  0
  142.4070   71.5610  219.3680 N   0  0  0  0  0  0  0  0  0  0  0  0
  143.8080   71.2340  219.5020 C   0  0  0  0  0  0  0  0  0  0  0  0
  144.7130   72.2670  218.9220 C   0  0  0  0  0  0  0  0  0  0  0  0
  145.9410   72.3890  219.7930 C   0  0  0  0  0  0  0  0  0  0  0  0
  145.5880   73.0650  221.0950 C   0  0  0  0  0  0  0  0  0  0  0  0
  145.1810   74.4870  220.7460 C   0  0  0  0  0  0  0  0  0  0  0  0
  143.9690   74.4810  219.8780 C   0  0  0  0  0  0  0  0  0  0  0  0
  144.0200   73.5700  218.6980 C   0  0  0  0  0  0  0  0  0  0  0  0
  141.3490   71.5080  221.4790 N   0  0  0  0  0  0  0  0  0  0  0  0
  140.6330   72.1140  222.4460 C   0  0  0  0  0  0  0  0  0  0  0  0
  140.2980   71.3640  223.6330 N   0  0  0  0  0  0  0  0  0  0  0  0
  139.5550   70.1540  223.4380 C   0  0  0  0  0  0  0  0  0  0  0  0
  138.5840   69.9050  224.6000 C   0  0  0  0  0  0  0  0  0  0  0  0
  139.3480   70.0100  225.8950 C   0  0  0  0  0  0  0  0  0  0  0  0
  139.0440   69.1770  226.9450 C   0  0  0  0  0  0  0  0  0  0  0  0
  139.7630   69.2870  228.1320 C   0  0  0  0  0  0  0  0  0  0  0  0
  140.7810   70.2320  228.2600 C   0  0  0  0  0  0  0  0  0  0  0  0
  141.0510   71.0470  227.1800 C   0  0  0  0  0  0  0  0  0  0  0  0
  140.3460   70.9540  225.9840 C   0  0  0  0  0  0  0  0  0  0  0  0
  140.7290   71.8800  224.9080 C   0  0  0  0  0  0  0  0  0  0  0  0
  140.2320   73.4060  222.3070 N   0  0  0  0  0  0  0  0  0  0  0  0
  141.0280   76.5120  220.7110 C   0  0  0  0  0  0  0  0  0  0  0  0
  140.5463   80.6601  224.1222 H   0  0  0  0  0  0  0  0  0  0  0  0
  142.4225   80.5517  222.4634 H   0  0  0  0  0  0  0  0  0  0  0  0
  142.6120   78.6294  220.9138 H   0  0  0  0  0  0  0  0  0  0  0  0
  138.8945   78.8074  224.1718 H   0  0  0  0  0  0  0  0  0  0  0  0
  139.0077   75.9770  223.5488 H   0  0  0  0  0  0  0  0  0  0  0  0
  137.7887   77.1058  222.9070 H   0  0  0  0  0  0  0  0  0  0  0  0
  138.1027   74.9875  221.5225 H   0  0  0  0  0  0  0  0  0  0  0  0
  138.3524   76.4975  220.6022 H   0  0  0  0  0  0  0  0  0  0  0  0
  141.8580   71.3170  218.4910 H   0  0  0  0  0  0  0  0  0  0  0  0
  144.0407   71.1270  220.5718 H   0  0  0  0  0  0  0  0  0  0  0  0
  143.9794   70.3011  218.9450 H   0  0  0  0  0  0  0  0  0  0  0  0
  145.0307   71.9463  217.9189 H   0  0  0  0  0  0  0  0  0  0  0  0
  146.3409   71.3855  220.0008 H   0  0  0  0  0  0  0  0  0  0  0  0
  146.6966   72.9916  219.2677 H   0  0  0  0  0  0  0  0  0  0  0  0
  144.7534   72.5395  221.5820 H   0  0  0  0  0  0  0  0  0  0  0  0
  146.4387   73.0543  221.7923 H   0  0  0  0  0  0  0  0  0  0  0  0
  144.9614   75.0390  221.6718 H   0  0  0  0  0  0  0  0  0  0  0  0
  146.0062   74.9722  220.2042 H   0  0  0  0  0  0  0  0  0  0  0  0
  143.1111   74.1821  220.4983 H   0  0  0  0  0  0  0  0  0  0  0  0
  143.8910   75.4983  219.4668 H   0  0  0  0  0  0  0  0  0  0  0  0
  142.9859   73.3555  218.3905 H   0  0  0  0  0  0  0  0  0  0  0  0
  144.6092   74.0981  217.9338 H   0  0  0  0  0  0  0  0  0  0  0  0
  138.9821   70.2317  222.5022 H   0  0  0  0  0  0  0  0  0  0  0  0
  140.2638   69.3141  223.3906 H   0  0  0  0  0  0  0  0  0  0  0  0
  137.7820   70.6576  224.5807 H   0  0  0  0  0  0  0  0  0  0  0  0
  138.1358   68.9047  224.5078 H   0  0  0  0  0  0  0  0  0  0  0  0
  138.2411   68.4313  226.8485 H   0  0  0  0  0  0  0  0  0  0  0  0
  139.5263   68.6229  228.9764 H   0  0  0  0  0  0  0  0  0  0  0  0
  141.3523   70.3248  229.1954 H   0  0  0  0  0  0  0  0  0  0  0  0
  141.8515   71.7964  227.2675 H   0  0  0  0  0  0  0  0  0  0  0  0
  140.2558   72.8574  225.0836 H   0  0  0  0  0  0  0  0  0  0  0  0
  141.8235   71.9898  224.9004 H   0  0  0  0  0  0  0  0  0  0  0  0
  142.0613   76.1370  220.7511 H   0  0  0  0  0  0  0  0  0  0  0  0
  140.8353   76.8383  219.6783 H   0  0  0  0  0  0  0  0  0  0  0  0
  1  2  2  0
  2  3  1  0
  3  4  2  0
  4  5  1  0
  5  6  2  0
  5  7  1  0
  7  8  1  0
  8  9  1  0
  9 10  1  0
 10 11  2  0
 11 12  1  0
 12 13  1  0
 13 14  1  0
 14 15  1  0
 15 16  1  0
 16 17  1  0
 17 18  1  0
 18 19  1  0
 19 20  1  0
 12 21  2  0
 21 22  1  0
 22 23  1  0
 23 24  1  0
 24 25  1  0
 25 26  1  0
 26 27  2  0
 27 28  1  0
 28 29  2  0
 29 30  1  0
 30 31  2  0
 31 32  1  0
 22 33  2  0
  9 34  1  0
  6  1  1  0
 33 10  1  0
 34  4  1  0
 20 15  1  0
 32 23  1  0
 31 26  1  0
  1 35  1  0
  2 36  1  0
  3 37  1  0
  6 38  1  0
  7 39  1  0
  7 40  1  0
  8 41  1  0
  8 42  1  0
 13 43  1  0
 14 44  1  0
 14 45  1  0
 15 46  1  0
 16 47  1  0
 16 48  1  0
 17 49  1  0
 17 50  1  0
 18 51  1  0
 18 52  1  0
 19 53  1  0
 19 54  1  0
 20 55  1  0
 20 56  1  0
 24 57  1  0
 24 58  1  0
 25 59  1  0
 25 60  1  0
 27 61  1  0
 28 62  1  0
 29 63  1  0
 30 64  1  0
 32 65  1  0
 32 66  1  0
 34 67  1  0
 34 68  1  0
M  END
>  <smiles>  (30) 
c1ccc2c(c1)CCN(c1nc(NCC3CCCCC3)nc(N3CCc4ccccc4C3)n1)C2

>  <score_type>  (30) 
oracle

>  <origin>  (30) 
autodockgpu

>  <m_score__min__energy>  (30) 
-10.220000000000001

>  <m_primary>  (30) 
energy

>  <rmsd>  (30) 
4.923828017441292

>  <m_score__min__rmsd>  (30) 
4.923828017441292

>  <meeko>  (30) 
{"free_energy": -9.8, "intermolecular_energy": -11.29, "internal_energy": -1.51, "cluster_size": 23, "cluster_id": 2, "rank_in_cluster": 7}

>  <energy>  (30) 
-9.68

>  <cluster_rmsd>  (30) 
0.23

>  <cluster>  (30) 
2

$$$$

     RDKit          3D

 68 73  0  0  0  0  0  0  0  0999 V2000
  140.6660   79.8150  223.4640 C   0  0  0  0  0  0  0  0  0  0  0  0
  141.7110   79.7520  222.5430 C   0  0  0  0  0  0  0  0  0  0  0  0
  141.8250   78.6760  221.6760 C   0  0  0  0  0  0  0  0  0  0  0  0
  140.8940   77.6360  221.7090 C   0  0  0  0  0  0  0  0  0  0  0  0
  139.8600   77.6930  222.6160 C   0  0  0  0  0  0  0  0  0  0  0  0
  139.7560   78.7760  223.4800 C   0  0  0  0  0  0  0  0  0  0  0  0
  138.8150   76.6460  222.7390 C   0  0  0  0  0  0  0  0  0  0  0  0
  138.8020   75.8680  221.4450 C   0  0  0  0  0  0  0  0  0  0  0  0
  140.1470   75.4630  221.1550 N   0  0  0  0  0  0  0  0  0  0  0  0
  140.5910   74.1340  221.2460 C   0  0  0  0  0  0  0  0  0  0  0  0
  141.3140   73.5100  220.2970 N   0  0  0  0  0  0  0  0  0  0  0  0
  141.7250   72.2320  220.4190 C   0  0  0  0  0  0  0  0  0  0  0  0
  142.4880   71.5710  219.4140 N   0  0  0  0  0  0  0  0  0  0  0  0
  143.8930   71.2630  219.5490 C   0  0  0  0  0  0  0  0  0  0  0  0
  144.7850   72.3080  218.9720 C   0  0  0  0  0  0  0  0  0  0  0  0
  146.0220   72.4260  219.8310 C   0  0  0  0  0  0  0  0  0  0  0  0
  145.6800   73.0830  221.1450 C   0  0  0  0  0  0  0  0  0  0  0  0
  145.2600   74.5060  220.8200 C   0  0  0  0  0  0  0  0  0  0  0  0
  144.0390   74.5050  219.9660 C   0  0  0  0  0  0  0  0  0  0  0  0
  144.0820   73.6100  218.7740 C   0  0  0  0  0  0  0  0  0  0  0  0
  141.4210   71.5150  221.5210 N   0  0  0  0  0  0  0  0  0  0  0  0
  140.6980   72.1180  222.4840 C   0  0  0  0  0  0  0  0  0  0  0  0
  140.3610   71.3670  223.6700 N   0  0  0  0  0  0  0  0  0  0  0  0
  139.6180   70.1580  223.4730 C   0  0  0  0  0  0  0  0  0  0  0  0
  138.6450   69.9080  224.6340 C   0  0  0  0  0  0  0  0  0  0  0  0
  139.4080   70.0130  225.9290 C   0  0  0  0  0  0  0  0  0  0  0  0
  139.1020   69.1780  226.9790 C   0  0  0  0  0  0  0  0  0  0  0  0
  139.8190   69.2880  228.1670 C   0  0  0  0  0  0  0  0  0  0  0  0
  140.8380   70.2320  228.2970 C   0  0  0  0  0  0  0  0  0  0  0  0
  141.1100   71.0470  227.2180 C   0  0  0  0  0  0  0  0  0  0  0  0
  140.4060   70.9550  226.0210 C   0  0  0  0  0  0  0  0  0  0  0  0
  140.7910   71.8830  224.9460 C   0  0  0  0  0  0  0  0  0  0  0  0
  140.2920   73.4080  222.3430 N   0  0  0  0  0  0  0  0  0  0  0  0
  141.0810   76.5170  220.7480 C   0  0  0  0  0  0  0  0  0  0  0  0
  140.5694   80.6649  224.1557 H   0  0  0  0  0  0  0  0  0  0  0  0
  142.4522   80.5639  222.5039 H   0  0  0  0  0  0  0  0  0  0  0  0
  142.6560   78.6414  220.9561 H   0  0  0  0  0  0  0  0  0  0  0  0
  138.9237   78.8070  224.1986 H   0  0  0  0  0  0  0  0  0  0  0  0
  139.0512   75.9757  223.5786 H   0  0  0  0  0  0  0  0  0  0  0  0
  137.8311   77.0993  222.9299 H   0  0  0  0  0  0  0  0  0  0  0  0
  138.1599   74.9810  221.5497 H   0  0  0  0  0  0  0  0  0  0  0  0
  138.4076   76.4917  220.6293 H   0  0  0  0  0  0  0  0  0  0  0  0
  141.9400   71.3150  218.5390 H   0  0  0  0  0  0  0  0  0  0  0  0
  144.1258   71.1575  220.6189 H   0  0  0  0  0  0  0  0  0  0  0  0
  144.0773   70.3335  218.9903 H   0  0  0  0  0  0  0  0  0  0  0  0
  145.0928   72.0022  217.9612 H   0  0  0  0  0  0  0  0  0  0  0  0
  146.4298   71.4223  220.0214 H   0  0  0  0  0  0  0  0  0  0  0  0
  146.7682   73.0397  219.3051 H   0  0  0  0  0  0  0  0  0  0  0  0
  144.8545   72.5458  221.6349 H   0  0  0  0  0  0  0  0  0  0  0  0
  146.5391   73.0691  221.8319 H   0  0  0  0  0  0  0  0  0  0  0  0
  145.0474   75.0438  221.7557 H   0  0  0  0  0  0  0  0  0  0  0  0
  146.0760   75.0033  220.2752 H   0  0  0  0  0  0  0  0  0  0  0  0
  143.1897   74.1933  220.5917 H   0  0  0  0  0  0  0  0  0  0  0  0
  143.9508   75.5272  219.5693 H   0  0  0  0  0  0  0  0  0  0  0  0
  143.0457   73.3934  218.4754 H   0  0  0  0  0  0  0  0  0  0  0  0
  144.6598   74.1518  218.0107 H   0  0  0  0  0  0  0  0  0  0  0  0
  139.0463   70.2369  222.5366 H   0  0  0  0  0  0  0  0  0  0  0  0
  140.3265   69.3179  223.4257 H   0  0  0  0  0  0  0  0  0  0  0  0
  137.8427   70.6602  224.6141 H   0  0  0  0  0  0  0  0  0  0  0  0
  138.1967   68.9078  224.5410 H   0  0  0  0  0  0  0  0  0  0  0  0
  138.2997   68.4319  226.8807 H   0  0  0  0  0  0  0  0  0  0  0  0
  139.5800   68.6245  229.0112 H   0  0  0  0  0  0  0  0  0  0  0  0
  141.4082   70.3237  229.2332 H   0  0  0  0  0  0  0  0  0  0  0  0
  141.9111   71.7956  227.3067 H   0  0  0  0  0  0  0  0  0  0  0  0
  140.3176   72.8602  225.1218 H   0  0  0  0  0  0  0  0  0  0  0  0
  141.8854   71.9937  224.9399 H   0  0  0  0  0  0  0  0  0  0  0  0
  142.1158   76.1464  220.7919 H   0  0  0  0  0  0  0  0  0  0  0  0
  140.8904   76.8421  219.7146 H   0  0  0  0  0  0  0  0  0  0  0  0
  1  2  2  0
  2  3  1  0
  3  4  2  0
  4  5  1  0
  5  6  2  0
  5  7  1  0
  7  8  1  0
  8  9  1  0
  9 10  1  0
 10 11  2  0
 11 12  1  0
 12 13  1  0
 13 14  1  0
 14 15  1  0
 15 16  1  0
 16 17  1  0
 17 18  1  0
 18 19  1  0
 19 20  1  0
 12 21  2  0
 21 22  1  0
 22 23  1  0
 23 24  1  0
 24 25  1  0
 25 26  1  0
 26 27  2  0
 27 28  1  0
 28 29  2  0
 29 30  1  0
 30 31  2  0
 31 32  1  0
 22 33  2  0
  9 34  1  0
  6  1  1  0
 33 10  1  0
 34  4  1  0
 20 15  1  0
 32 23  1  0
 31 26  1  0
  1 35  1  0
  2 36  1  0
  3 37  1  0
  6 38  1  0
  7 39  1  0
  7 40  1  0
  8 41  1  0
  8 42  1  0
 13 43  1  0
 14 44  1  0
 14 45  1  0
 15 46  1  0
 16 47  1  0
 16 48  1  0
 17 49  1  0
 17 50  1  0
 18 51  1  0
 18 52  1  0
 19 53  1  0
 19 54  1  0
 20 55  1  0
 20 56  1  0
 24 57  1  0
 24 58  1  0
 25 59  1  0
 25 60  1  0
 27 61  1  0
 28 62  1  0
 29 63  1  0
 30 64  1  0
 32 65  1  0
 32 66  1  0
 34 67  1  0
 34 68  1  0
M  END
>  <smiles>  (31) 
c1ccc2c(c1)CCN(c1nc(NCC3CCCCC3)nc(N3CCc4ccccc4C3)n1)C2

>  <score_type>  (31) 
oracle

>  <origin>  (31) 
autodockgpu

>  <m_score__min__energy>  (31) 
-10.220000000000001

>  <m_primary>  (31) 
energy

>  <rmsd>  (31) 
4.9367543924135475

>  <m_score__min__rmsd>  (31) 
4.9367543924135475

>  <meeko>  (31) 
{"free_energy": -9.81, "intermolecular_energy": -11.3, "internal_energy": -1.51, "cluster_size": 23, "cluster_id": 2, "rank_in_cluster": 3}

>  <energy>  (31) 
-9.57

>  <cluster_rmsd>  (31) 
0.31

>  <cluster>  (31) 
2

$$$$

     RDKit          3D

 68 73  0  0  0  0  0  0  0  0999 V2000
  140.6220   79.9120  223.4680 C   0  0  0  0  0  0  0  0  0  0  0  0
  141.6790   79.8600  222.5600 C   0  0  0  0  0  0  0  0  0  0  0  0
  141.8120   78.7900  221.6890 C   0  0  0  0  0  0  0  0  0  0  0  0
  140.8870   77.7440  221.7040 C   0  0  0  0  0  0  0  0  0  0  0  0
  139.8400   77.7890  222.5980 C   0  0  0  0  0  0  0  0  0  0  0  0
  139.7190   78.8660  223.4660 C   0  0  0  0  0  0  0  0  0  0  0  0
  138.8010   76.7340  222.7020 C   0  0  0  0  0  0  0  0  0  0  0  0
  138.8100   75.9640  221.4040 C   0  0  0  0  0  0  0  0  0  0  0  0
  140.1620   75.5690  221.1290 N   0  0  0  0  0  0  0  0  0  0  0  0
  140.6130   74.2430  221.2180 C   0  0  0  0  0  0  0  0  0  0  0  0
  141.3730   73.6360  220.2870 N   0  0  0  0  0  0  0  0  0  0  0  0
  141.7920   72.3600  220.4080 C   0  0  0  0  0  0  0  0  0  0  0  0
  142.5940   71.7190  219.4220 N   0  0  0  0  0  0  0  0  0  0  0  0
  143.9420   71.2590  219.6630 C   0  0  0  0  0  0  0  0  0  0  0  0
  144.9840   72.1780  219.1240 C   0  0  0  0  0  0  0  0  0  0  0  0
  146.1160   72.2750  220.1200 C   0  0  0  0  0  0  0  0  0  0  0  0
  145.6770   73.0700  221.3260 C   0  0  0  0  0  0  0  0  0  0  0  0
  145.4250   74.4870  220.8400 C   0  0  0  0  0  0  0  0  0  0  0  0
  144.3190   74.5040  219.8420 C   0  0  0  0  0  0  0  0  0  0  0  0
  144.4260   73.5080  218.7370 C   0  0  0  0  0  0  0  0  0  0  0  0
  141.4550   71.6270  221.4890 N   0  0  0  0  0  0  0  0  0  0  0  0
  140.6940   72.2120  222.4340 C   0  0  0  0  0  0  0  0  0  0  0  0
  140.3220   71.4430  223.5980 N   0  0  0  0  0  0  0  0  0  0  0  0
  139.5530   70.2560  223.3630 C   0  0  0  0  0  0  0  0  0  0  0  0
  138.5580   70.0050  224.5050 C   0  0  0  0  0  0  0  0  0  0  0  0
  139.3040   70.0620  225.8120 C   0  0  0  0  0  0  0  0  0  0  0  0
  138.9630   69.2110  226.8380 C   0  0  0  0  0  0  0  0  0  0  0  0
  139.6660   69.2770  228.0380 C   0  0  0  0  0  0  0  0  0  0  0  0
  140.7050   70.1930  228.2030 C   0  0  0  0  0  0  0  0  0  0  0  0
  141.0120   71.0250  227.1480 C   0  0  0  0  0  0  0  0  0  0  0  0
  140.3230   70.9770  225.9390 C   0  0  0  0  0  0  0  0  0  0  0  0
  140.7460   71.9190  224.8910 C   0  0  0  0  0  0  0  0  0  0  0  0
  140.2820   73.5000  222.2950 N   0  0  0  0  0  0  0  0  0  0  0  0
  141.0940   76.6320  220.7400 C   0  0  0  0  0  0  0  0  0  0  0  0
  140.5107   80.7575  224.1628 H   0  0  0  0  0  0  0  0  0  0  0  0
  142.4152   80.6769  222.5347 H   0  0  0  0  0  0  0  0  0  0  0  0
  142.6529   78.7646  220.9803 H   0  0  0  0  0  0  0  0  0  0  0  0
  138.8778   78.8872  224.1744 H   0  0  0  0  0  0  0  0  0  0  0  0
  139.0314   76.0604  223.5406 H   0  0  0  0  0  0  0  0  0  0  0  0
  137.8115   77.1791  222.8833 H   0  0  0  0  0  0  0  0  0  0  0  0
  138.1723   75.0723  221.4951 H   0  0  0  0  0  0  0  0  0  0  0  0
  138.4223   76.5901  220.5869 H   0  0  0  0  0  0  0  0  0  0  0  0
  142.1220   71.5990  218.4760 H   0  0  0  0  0  0  0  0  0  0  0  0
  144.0892   71.1629  220.7489 H   0  0  0  0  0  0  0  0  0  0  0  0
  144.0557   70.2967  219.1424 H   0  0  0  0  0  0  0  0  0  0  0  0
  145.3822   71.7620  218.1868 H   0  0  0  0  0  0  0  0  0  0  0  0
  146.4092   71.2635  220.4377 H   0  0  0  0  0  0  0  0  0  0  0  0
  146.9708   72.7802  219.6465 H   0  0  0  0  0  0  0  0  0  0  0  0
  144.7549   72.6432  221.7475 H   0  0  0  0  0  0  0  0  0  0  0  0
  146.4426   73.0505  222.1156 H   0  0  0  0  0  0  0  0  0  0  0  0
  145.1505   75.1206  221.6963 H   0  0  0  0  0  0  0  0  0  0  0  0
  146.3404   74.8698  220.3652 H   0  0  0  0  0  0  0  0  0  0  0  0
  143.3777   74.3132  220.3782 H   0  0  0  0  0  0  0  0  0  0  0  0
  144.3672   75.4914  219.3597 H   0  0  0  0  0  0  0  0  0  0  0  0
  143.4181   73.3467  218.3270 H   0  0  0  0  0  0  0  0  0  0  0  0
  145.1354   73.9347  218.0126 H   0  0  0  0  0  0  0  0  0  0  0  0
  138.9968   70.3693  222.4207 H   0  0  0  0  0  0  0  0  0  0  0  0
  140.2415   69.4000  223.3060 H   0  0  0  0  0  0  0  0  0  0  0  0
  137.7750   70.7774  224.4910 H   0  0  0  0  0  0  0  0  0  0  0  0
  138.0868   69.0185  224.3835 H   0  0  0  0  0  0  0  0  0  0  0  0
  138.1446   68.4870  226.7117 H   0  0  0  0  0  0  0  0  0  0  0  0
  139.3996   68.6006  228.8635 H   0  0  0  0  0  0  0  0  0  0  0  0
  141.2638   70.2497  229.1488 H   0  0  0  0  0  0  0  0  0  0  0  0
  141.8293   71.7518  227.2651 H   0  0  0  0  0  0  0  0  0  0  0  0
  140.2943   72.9035  225.0826 H   0  0  0  0  0  0  0  0  0  0  0  0
  141.8428   72.0024  224.9026 H   0  0  0  0  0  0  0  0  0  0  0  0
  142.1307   76.2683  220.7954 H   0  0  0  0  0  0  0  0  0  0  0  0
  140.9144   76.9616  219.7060 H   0  0  0  0  0  0  0  0  0  0  0  0
  1  2  2  0
  2  3  1  0
  3  4  2  0
  4  5  1  0
  5  6  2  0
  5  7  1  0
  7  8  1  0
  8  9  1  0
  9 10  1  0
 10 11  2  0
 11 12  1  0
 12 13  1  0
 13 14  1  0
 14 15  1  0
 15 16  1  0
 16 17  1  0
 17 18  1  0
 18 19  1  0
 19 20  1  0
 12 21  2  0
 21 22  1  0
 22 23  1  0
 23 24  1  0
 24 25  1  0
 25 26  1  0
 26 27  2  0
 27 28  1  0
 28 29  2  0
 29 30  1  0
 30 31  2  0
 31 32  1  0
 22 33  2  0
  9 34  1  0
  6  1  1  0
 33 10  1  0
 34  4  1  0
 20 15  1  0
 32 23  1  0
 31 26  1  0
  1 35  1  0
  2 36  1  0
  3 37  1  0
  6 38  1  0
  7 39  1  0
  7 40  1  0
  8 41  1  0
  8 42  1  0
 13 43  1  0
 14 44  1  0
 14 45  1  0
 15 46  1  0
 16 47  1  0
 16 48  1  0
 17 49  1  0
 17 50  1  0
 18 51  1  0
 18 52  1  0
 19 53  1  0
 19 54  1  0
 20 55  1  0
 20 56  1  0
 24 57  1  0
 24 58  1  0
 25 59  1  0
 25 60  1  0
 27 61  1  0
 28 62  1  0
 29 63  1  0
 30 64  1  0
 32 65  1  0
 32 66  1  0
 34 67  1  0
 34 68  1  0
M  END
>  <smiles>  (32) 
c1ccc2c(c1)CCN(c1nc(NCC3CCCCC3)nc(N3CCc4ccccc4C3)n1)C2

>  <score_type>  (32) 
oracle

>  <origin>  (32) 
autodockgpu

>  <m_score__min__energy>  (32) 
-10.220000000000001

>  <m_primary>  (32) 
energy

>  <rmsd>  (32) 
4.9202984354897294

>  <m_score__min__rmsd>  (32) 
4.9202984354897294

>  <meeko>  (32) 
{"free_energy": -9.74, "intermolecular_energy": -11.23, "internal_energy": -1.54, "cluster_size": 23, "cluster_id": 2, "rank_in_cluster": 9}

>  <energy>  (32) 
-9.52

>  <cluster_rmsd>  (32) 
0.34

>  <cluster>  (32) 
2

$$$$

     RDKit          3D

 68 73  0  0  0  0  0  0  0  0999 V2000
  146.3060   68.5600  219.2550 C   0  0  0  0  0  0  0  0  0  0  0  0
  145.2950   67.7060  219.6930 C   0  0  0  0  0  0  0  0  0  0  0  0
  143.9950   68.1650  219.8380 C   0  0  0  0  0  0  0  0  0  0  0  0
  143.6740   69.4920  219.5460 C   0  0  0  0  0  0  0  0  0  0  0  0
  144.6670   70.3410  219.1120 C   0  0  0  0  0  0  0  0  0  0  0  0
  145.9660   69.8700  218.9720 C   0  0  0  0  0  0  0  0  0  0  0  0
  144.4410   71.7680  218.7730 C   0  0  0  0  0  0  0  0  0  0  0  0
  142.9660   71.9380  218.5010 C   0  0  0  0  0  0  0  0  0  0  0  0
  142.2420   71.3720  219.6030 N   0  0  0  0  0  0  0  0  0  0  0  0
  141.5400   72.1410  220.5440 C   0  0  0  0  0  0  0  0  0  0  0  0
  140.7550   71.6280  221.5100 N   0  0  0  0  0  0  0  0  0  0  0  0
  140.0980   72.3990  222.4000 C   0  0  0  0  0  0  0  0  0  0  0  0
  139.2660   71.8560  223.4200 N   0  0  0  0  0  0  0  0  0  0  0  0
  139.5750   70.6440  224.1430 C   0  0  0  0  0  0  0  0  0  0  0  0
  140.8910   70.6930  224.8430 C   0  0  0  0  0  0  0  0  0  0  0  0
  141.1160   69.3810  225.5570 C   0  0  0  0  0  0  0  0  0  0  0  0
  140.1990   69.2770  226.7510 C   0  0  0  0  0  0  0  0  0  0  0  0
  140.6300   70.3610  227.7230 C   0  0  0  0  0  0  0  0  0  0  0  0
  140.4500   71.7070  227.1120 C   0  0  0  0  0  0  0  0  0  0  0  0
  141.0130   71.8790  225.7420 C   0  0  0  0  0  0  0  0  0  0  0  0
  140.2030   73.7430  222.3530 N   0  0  0  0  0  0  0  0  0  0  0  0
  140.9820   74.2800  221.3950 C   0  0  0  0  0  0  0  0  0  0  0  0
  141.1070   75.7170  221.3280 N   0  0  0  0  0  0  0  0  0  0  0  0
  141.3010   76.2840  220.0260 C   0  0  0  0  0  0  0  0  0  0  0  0
  142.2010   77.5250  220.0880 C   0  0  0  0  0  0  0  0  0  0  0  0
  141.6590   78.4570  221.1410 C   0  0  0  0  0  0  0  0  0  0  0  0
  141.7110   79.8180  220.9490 C   0  0  0  0  0  0  0  0  0  0  0  0
  141.2030   80.6630  221.9320 C   0  0  0  0  0  0  0  0  0  0  0  0
  140.6480   80.1410  223.1000 C   0  0  0  0  0  0  0  0  0  0  0  0
  140.6170   78.7700  223.2490 C   0  0  0  0  0  0  0  0  0  0  0  0
  141.1190   77.9060  222.2800 C   0  0  0  0  0  0  0  0  0  0  0  0
  141.0280   76.4640  222.5580 C   0  0  0  0  0  0  0  0  0  0  0  0
  141.6380   73.4860  220.5070 N   0  0  0  0  0  0  0  0  0  0  0  0
  142.2580   69.9100  219.7240 C   0  0  0  0  0  0  0  0  0  0  0  0
  147.3401   68.2035  219.1384 H   0  0  0  0  0  0  0  0  0  0  0  0
  145.5312   66.6572  219.9259 H   0  0  0  0  0  0  0  0  0  0  0  0
  143.2097   67.4779  220.1861 H   0  0  0  0  0  0  0  0  0  0  0  0
  146.7488   70.5607  218.6252 H   0  0  0  0  0  0  0  0  0  0  0  0
  144.7444   72.4073  219.6151 H   0  0  0  0  0  0  0  0  0  0  0  0
  145.0345   72.0574  217.8932 H   0  0  0  0  0  0  0  0  0  0  0  0
  142.7250   73.0071  218.4062 H   0  0  0  0  0  0  0  0  0  0  0  0
  142.6903   71.4326  217.5637 H   0  0  0  0  0  0  0  0  0  0  0  0
  138.3830   72.4150  223.6170 H   0  0  0  0  0  0  0  0  0  0  0  0
  138.7875   70.4740  224.8919 H   0  0  0  0  0  0  0  0  0  0  0  0
  139.6288   69.8297  223.4054 H   0  0  0  0  0  0  0  0  0  0  0  0
  141.6912   70.8246  224.0998 H   0  0  0  0  0  0  0  0  0  0  0  0
  140.9093   68.5505  224.8660 H   0  0  0  0  0  0  0  0  0  0  0  0
  142.1602   69.3316  225.8994 H   0  0  0  0  0  0  0  0  0  0  0  0
  139.1550   69.4362  226.4431 H   0  0  0  0  0  0  0  0  0  0  0  0
  140.2608   68.2810  227.2138 H   0  0  0  0  0  0  0  0  0  0  0  0
  140.0201   70.2928  228.6359 H   0  0  0  0  0  0  0  0  0  0  0  0
  141.6931   70.2192  227.9675 H   0  0  0  0  0  0  0  0  0  0  0  0
  139.3706   71.9130  227.0615 H   0  0  0  0  0  0  0  0  0  0  0  0
  141.0092   72.4035  227.7541 H   0  0  0  0  0  0  0  0  0  0  0  0
  140.4910   72.7213  225.2644 H   0  0  0  0  0  0  0  0  0  0  0  0
  142.0919   72.0452  225.8777 H   0  0  0  0  0  0  0  0  0  0  0  0
  141.7707   75.5327  219.3741 H   0  0  0  0  0  0  0  0  0  0  0  0
  140.3206   76.5851  219.6284 H   0  0  0  0  0  0  0  0  0  0  0  0
  143.2270   77.2265  220.3493 H   0  0  0  0  0  0  0  0  0  0  0  0
  142.2158   78.0289  219.1103 H   0  0  0  0  0  0  0  0  0  0  0  0
  142.1488   80.2339  220.0296 H   0  0  0  0  0  0  0  0  0  0  0  0
  141.2398   81.7526  221.7860 H   0  0  0  0  0  0  0  0  0  0  0  0
  140.2462   80.8039  223.8805 H   0  0  0  0  0  0  0  0  0  0  0  0
  140.1806   78.3450  224.1649 H   0  0  0  0  0  0  0  0  0  0  0  0
  141.8568   76.1675  223.2177 H   0  0  0  0  0  0  0  0  0  0  0  0
  140.0661   76.2515  223.0474 H   0  0  0  0  0  0  0  0  0  0  0  0
  141.8929   69.6059  220.7161 H   0  0  0  0  0  0  0  0  0  0  0  0
  141.6050   69.4396  218.9742 H   0  0  0  0  0  0  0  0  0  0  0  0
  1  2  2  0
  2  3  1  0
  3  4  2  0
  4  5  1  0
  5  6  2  0
  5  7  1  0
  7  8  1  0
  8  9  1  0
  9 10  1  0
 10 11  2  0
 11 12  1  0
 12 13  1  0
 13 14  1  0
 14 15  1  0
 15 16  1  0
 16 17  1  0
 17 18  1  0
 18 19  1  0
 19 20  1  0
 12 21  2  0
 21 22  1  0
 22 23  1  0
 23 24  1  0
 24 25  1  0
 25 26  1  0
 26 27  2  0
 27 28  1  0
 28 29  2  0
 29 30  1  0
 30 31  2  0
 31 32  1  0
 22 33  2  0
  9 34  1  0
  6  1  1  0
 33 10  1  0
 34  4  1  0
 20 15  1  0
 32 23  1  0
 31 26  1  0
  1 35  1  0
  2 36  1  0
  3 37  1  0
  6 38  1  0
  7 39  1  0
  7 40  1  0
  8 41  1  0
  8 42  1  0
 13 43  1  0
 14 44  1  0
 14 45  1  0
 15 46  1  0
 16 47  1  0
 16 48  1  0
 17 49  1  0
 17 50  1  0
 18 51  1  0
 18 52  1  0
 19 53  1  0
 19 54  1  0
 20 55  1  0
 20 56  1  0
 24 57  1  0
 24 58  1  0
 25 59  1  0
 25 60  1  0
 27 61  1  0
 28 62  1  0
 29 63  1  0
 30 64  1  0
 32 65  1  0
 32 66  1  0
 34 67  1  0
 34 68  1  0
M  END
>  <smiles>  (33) 
c1ccc2c(c1)CCN(c1nc(NCC3CCCCC3)nc(N3CCc4ccccc4C3)n1)C2

>  <score_type>  (33) 
oracle

>  <origin>  (33) 
autodockgpu

>  <m_score__min__energy>  (33) 
-10.220000000000001

>  <m_primary>  (33) 
energy

>  <rmsd>  (33) 
10.533814340435237

>  <m_score__min__rmsd>  (33) 
10.533814340435237

>  <meeko>  (33) 
{"free_energy": -9.59, "intermolecular_energy": -11.09, "internal_energy": -1.21, "cluster_size": 20, "cluster_id": 1, "rank_in_cluster": 18}

>  <energy>  (33) 
-9.51

>  <cluster_rmsd>  (33) 
0.31

>  <cluster>  (33) 
2

$$$$

     RDKit          3D

 68 73  0  0  0  0  0  0  0  0999 V2000
  146.3200   68.5560  219.3110 C   0  0  0  0  0  0  0  0  0  0  0  0
  145.1230   67.8430  219.2740 C   0  0  0  0  0  0  0  0  0  0  0  0
  143.9050   68.5070  219.2630 C   0  0  0  0  0  0  0  0  0  0  0  0
  143.8570   69.9020  219.2890 C   0  0  0  0  0  0  0  0  0  0  0  0
  145.0360   70.6120  219.3250 C   0  0  0  0  0  0  0  0  0  0  0  0
  146.2500   69.9360  219.3360 C   0  0  0  0  0  0  0  0  0  0  0  0
  145.1040   72.0940  219.3550 C   0  0  0  0  0  0  0  0  0  0  0  0
  143.7860   72.6160  218.8370 C   0  0  0  0  0  0  0  0  0  0  0  0
  142.7330   71.9630  219.5620 N   0  0  0  0  0  0  0  0  0  0  0  0
  141.9280   72.6150  220.5100 C   0  0  0  0  0  0  0  0  0  0  0  0
  141.1660   71.9810  221.4210 N   0  0  0  0  0  0  0  0  0  0  0  0
  140.4070   72.6400  222.3200 C   0  0  0  0  0  0  0  0  0  0  0  0
  139.6000   71.9700  223.2820 N   0  0  0  0  0  0  0  0  0  0  0  0
  140.0290   70.7980  224.0100 C   0  0  0  0  0  0  0  0  0  0  0  0
  139.3900   70.6690  225.3510 C   0  0  0  0  0  0  0  0  0  0  0  0
  140.4080   71.0110  226.4140 C   0  0  0  0  0  0  0  0  0  0  0  0
  141.4370   69.9130  226.5180 C   0  0  0  0  0  0  0  0  0  0  0  0
  140.7050   68.6810  227.0220 C   0  0  0  0  0  0  0  0  0  0  0  0
  139.6680   68.2570  226.0400 C   0  0  0  0  0  0  0  0  0  0  0  0
  138.7560   69.3320  225.5530 C   0  0  0  0  0  0  0  0  0  0  0  0
  140.3820   73.9890  222.3380 N   0  0  0  0  0  0  0  0  0  0  0  0
  141.1350   74.6450  221.4360 C   0  0  0  0  0  0  0  0  0  0  0  0
  141.1210   76.0890  221.4390 N   0  0  0  0  0  0  0  0  0  0  0  0
  141.1510   76.7330  220.1590 C   0  0  0  0  0  0  0  0  0  0  0  0
  141.9340   78.0520  220.2190 C   0  0  0  0  0  0  0  0  0  0  0  0
  141.4000   78.8750  221.3620 C   0  0  0  0  0  0  0  0  0  0  0  0
  141.3100   80.2430  221.2430 C   0  0  0  0  0  0  0  0  0  0  0  0
  140.8110   80.9870  222.3090 C   0  0  0  0  0  0  0  0  0  0  0  0
  140.4070   80.3570  223.4870 C   0  0  0  0  0  0  0  0  0  0  0  0
  140.5160   78.9850  223.5610 C   0  0  0  0  0  0  0  0  0  0  0  0
  141.0110   78.2200  222.5080 C   0  0  0  0  0  0  0  0  0  0  0  0
  141.0780   76.7650  222.7120 C   0  0  0  0  0  0  0  0  0  0  0  0
  141.8950   73.9630  220.5380 N   0  0  0  0  0  0  0  0  0  0  0  0
  142.5150   70.5420  219.2740 C   0  0  0  0  0  0  0  0  0  0  0  0
  147.2897   68.0368  219.3200 H   0  0  0  0  0  0  0  0  0  0  0  0
  145.1443   66.7434  219.2533 H   0  0  0  0  0  0  0  0  0  0  0  0
  142.9692   67.9295  219.2335 H   0  0  0  0  0  0  0  0  0  0  0  0
  147.1836   70.5169  219.3655 H   0  0  0  0  0  0  0  0  0  0  0  0
  145.2676   72.4422  220.3855 H   0  0  0  0  0  0  0  0  0  0  0  0
  145.9368   72.4576  218.7351 H   0  0  0  0  0  0  0  0  0  0  0  0
  143.7280   73.7033  218.9934 H   0  0  0  0  0  0  0  0  0  0  0  0
  143.6914   72.4119  217.7603 H   0  0  0  0  0  0  0  0  0  0  0  0
  138.6380   72.4000  223.4310 H   0  0  0  0  0  0  0  0  0  0  0  0
  139.7773   69.9068  223.4163 H   0  0  0  0  0  0  0  0  0  0  0  0
  141.1124   70.8951  224.1737 H   0  0  0  0  0  0  0  0  0  0  0  0
  138.5576   71.3843  225.4254 H   0  0  0  0  0  0  0  0  0  0  0  0
  140.9079   71.9543  226.1490 H   0  0  0  0  0  0  0  0  0  0  0  0
  139.8962   71.1179  227.3818 H   0  0  0  0  0  0  0  0  0  0  0  0
  141.8811   69.7139  225.5315 H   0  0  0  0  0  0  0  0  0  0  0  0
  142.2533   70.1965  227.1987 H   0  0  0  0  0  0  0  0  0  0  0  0
  141.4266   67.8629  227.1635 H   0  0  0  0  0  0  0  0  0  0  0  0
  140.2156   68.9218  227.9773 H   0  0  0  0  0  0  0  0  0  0  0  0
  140.1842   67.8314  225.1669 H   0  0  0  0  0  0  0  0  0  0  0  0
  139.0264   67.5407  226.5741 H   0  0  0  0  0  0  0  0  0  0  0  0
  138.3337   69.0081  224.5903 H   0  0  0  0  0  0  0  0  0  0  0  0
  138.0030   69.4706  226.3428 H   0  0  0  0  0  0  0  0  0  0  0  0
  141.6323   76.0629  219.4315 H   0  0  0  0  0  0  0  0  0  0  0  0
  140.1170   76.9554  219.8568 H   0  0  0  0  0  0  0  0  0  0  0  0
  143.0017   77.8423  220.3802 H   0  0  0  0  0  0  0  0  0  0  0  0
  141.8182   78.6017  219.2732 H   0  0  0  0  0  0  0  0  0  0  0  0
  141.6286   80.7430  220.3164 H   0  0  0  0  0  0  0  0  0  0  0  0
  140.7346   82.0809  222.2219 H   0  0  0  0  0  0  0  0  0  0  0  0
  140.0126   80.9392  224.3328 H   0  0  0  0  0  0  0  0  0  0  0  0
  140.2010   78.4766  224.4842 H   0  0  0  0  0  0  0  0  0  0  0  0
  141.9838   76.5191  223.2856 H   0  0  0  0  0  0  0  0  0  0  0  0
  140.1853   76.4368  223.2647 H   0  0  0  0  0  0  0  0  0  0  0  0
  141.8700   70.0922  220.0432 H   0  0  0  0  0  0  0  0  0  0  0  0
  142.0168   70.4029  218.3032 H   0  0  0  0  0  0  0  0  0  0  0  0
  1  2  2  0
  2  3  1  0
  3  4  2  0
  4  5  1  0
  5  6  2  0
  5  7  1  0
  7  8  1  0
  8  9  1  0
  9 10  1  0
 10 11  2  0
 11 12  1  0
 12 13  1  0
 13 14  1  0
 14 15  1  0
 15 16  1  0
 16 17  1  0
 17 18  1  0
 18 19  1  0
 19 20  1  0
 12 21  2  0
 21 22  1  0
 22 23  1  0
 23 24  1  0
 24 25  1  0
 25 26  1  0
 26 27  2  0
 27 28  1  0
 28 29  2  0
 29 30  1  0
 30 31  2  0
 31 32  1  0
 22 33  2  0
  9 34  1  0
  6  1  1  0
 33 10  1  0
 34  4  1  0
 20 15  1  0
 32 23  1  0
 31 26  1  0
  1 35  1  0
  2 36  1  0
  3 37  1  0
  6 38  1  0
  7 39  1  0
  7 40  1  0
  8 41  1  0
  8 42  1  0
 13 43  1  0
 14 44  1  0
 14 45  1  0
 15 46  1  0
 16 47  1  0
 16 48  1  0
 17 49  1  0
 17 50  1  0
 18 51  1  0
 18 52  1  0
 19 53  1  0
 19 54  1  0
 20 55  1  0
 20 56  1  0
 24 57  1  0
 24 58  1  0
 25 59  1  0
 25 60  1  0
 27 61  1  0
 28 62  1  0
 29 63  1  0
 30 64  1  0
 32 65  1  0
 32 66  1  0
 34 67  1  0
 34 68  1  0
M  END
>  <smiles>  (34) 
c1ccc2c(c1)CCN(c1nc(NCC3CCCCC3)nc(N3CCc4ccccc4C3)n1)C2

>  <score_type>  (34) 
oracle

>  <origin>  (34) 
autodockgpu

>  <m_score__min__energy>  (34) 
-10.220000000000001

>  <m_primary>  (34) 
energy

>  <rmsd>  (34) 
10.403810073774318

>  <m_score__min__rmsd>  (34) 
10.403810073774318

>  <meeko>  (34) 
{"free_energy": -9.81, "intermolecular_energy": -11.3, "internal_energy": -0.95, "cluster_size": 20, "cluster_id": 1, "rank_in_cluster": 14}

>  <energy>  (34) 
-9.5

>  <cluster_rmsd>  (34) 
1.12

>  <cluster>  (34) 
2

$$$$

     RDKit          3D

 68 73  0  0  0  0  0  0  0  0999 V2000
  140.3330   67.4800  226.5670 C   0  0  0  0  0  0  0  0  0  0  0  0
  141.0840   68.4810  227.1800 C   0  0  0  0  0  0  0  0  0  0  0  0
  141.0470   69.7840  226.7070 C   0  0  0  0  0  0  0  0  0  0  0  0
  140.2550   70.1160  225.6060 C   0  0  0  0  0  0  0  0  0  0  0  0
  139.5110   69.1320  224.9950 C   0  0  0  0  0  0  0  0  0  0  0  0
  139.5570   67.8310  225.4790 C   0  0  0  0  0  0  0  0  0  0  0  0
  138.6360   69.3710  223.8210 C   0  0  0  0  0  0  0  0  0  0  0  0
  138.3330   70.8490  223.7780 C   0  0  0  0  0  0  0  0  0  0  0  0
  139.5750   71.5610  223.8630 N   0  0  0  0  0  0  0  0  0  0  0  0
  140.1400   72.2620  222.7860 C   0  0  0  0  0  0  0  0  0  0  0  0
  140.8710   71.6910  221.8100 N   0  0  0  0  0  0  0  0  0  0  0  0
  141.3960   72.3960  220.7870 C   0  0  0  0  0  0  0  0  0  0  0  0
  142.1710   71.7920  219.7570 N   0  0  0  0  0  0  0  0  0  0  0  0
  143.5460   71.3830  219.9250 C   0  0  0  0  0  0  0  0  0  0  0  0
  144.5140   72.2570  219.2020 C   0  0  0  0  0  0  0  0  0  0  0  0
  145.8190   72.2790  219.9630 C   0  0  0  0  0  0  0  0  0  0  0  0
  145.6630   73.0740  221.2360 C   0  0  0  0  0  0  0  0  0  0  0  0
  145.3990   74.5100  220.8180 C   0  0  0  0  0  0  0  0  0  0  0  0
  144.1250   74.6020  220.0510 C   0  0  0  0  0  0  0  0  0  0  0  0
  143.9650   73.6200  218.9400 C   0  0  0  0  0  0  0  0  0  0  0  0
  141.2050   73.7290  220.7030 N   0  0  0  0  0  0  0  0  0  0  0  0
  140.4770   74.3230  221.6680 C   0  0  0  0  0  0  0  0  0  0  0  0
  140.2630   75.7480  221.5960 N   0  0  0  0  0  0  0  0  0  0  0  0
  139.2520   76.1990  220.6850 C   0  0  0  0  0  0  0  0  0  0  0  0
  139.6270   77.5510  220.0620 C   0  0  0  0  0  0  0  0  0  0  0  0
  139.9920   78.5040  221.1710 C   0  0  0  0  0  0  0  0  0  0  0  0
  139.6480   79.8330  221.0780 C   0  0  0  0  0  0  0  0  0  0  0  0
  139.9920   80.6980  222.1130 C   0  0  0  0  0  0  0  0  0  0  0  0
  140.6770   80.2280  223.2330 C   0  0  0  0  0  0  0  0  0  0  0  0
  141.0010   78.8890  223.2830 C   0  0  0  0  0  0  0  0  0  0  0  0
  140.6680   78.0050  222.2600 C   0  0  0  0  0  0  0  0  0  0  0  0
  141.0710   76.6010  222.4320 C   0  0  0  0  0  0  0  0  0  0  0  0
  139.9550   73.5950  222.6910 N   0  0  0  0  0  0  0  0  0  0  0  0
  140.2660   71.5340  225.1570 C   0  0  0  0  0  0  0  0  0  0  0  0
  140.3571   66.4444  226.9371 H   0  0  0  0  0  0  0  0  0  0  0  0
  141.7129   68.2350  228.0483 H   0  0  0  0  0  0  0  0  0  0  0  0
  141.6461   70.5619  227.2029 H   0  0  0  0  0  0  0  0  0  0  0  0
  138.9568   67.0556  224.9805 H   0  0  0  0  0  0  0  0  0  0  0  0
  139.1523   69.0660  222.8988 H   0  0  0  0  0  0  0  0  0  0  0  0
  137.7079   68.7863  223.9026 H   0  0  0  0  0  0  0  0  0  0  0  0
  137.8242   71.0980  222.8351 H   0  0  0  0  0  0  0  0  0  0  0  0
  137.6758   71.1278  224.6149 H   0  0  0  0  0  0  0  0  0  0  0  0
  141.6570   71.6600  218.8350 H   0  0  0  0  0  0  0  0  0  0  0  0
  143.7885   71.4061  220.9977 H   0  0  0  0  0  0  0  0  0  0  0  0
  143.6395   70.3725  219.5005 H   0  0  0  0  0  0  0  0  0  0  0  0
  144.7023   71.8372  218.2029 H   0  0  0  0  0  0  0  0  0  0  0  0
  146.1129   71.2485  220.2112 H   0  0  0  0  0  0  0  0  0  0  0  0
  146.5928   72.7483  219.3377 H   0  0  0  0  0  0  0  0  0  0  0  0
  144.8174   72.6878  221.8240 H   0  0  0  0  0  0  0  0  0  0  0  0
  146.5638   73.0015  221.8632 H   0  0  0  0  0  0  0  0  0  0  0  0
  145.3279   75.1416  221.7158 H   0  0  0  0  0  0  0  0  0  0  0  0
  146.2258   74.8532  220.1788 H   0  0  0  0  0  0  0  0  0  0  0  0
  143.2945   74.4520  220.7565 H   0  0  0  0  0  0  0  0  0  0  0  0
  144.1333   75.5936  219.5749 H   0  0  0  0  0  0  0  0  0  0  0  0
  142.8900   73.5177  218.7306 H   0  0  0  0  0  0  0  0  0  0  0  0
  144.5453   74.0219  218.0963 H   0  0  0  0  0  0  0  0  0  0  0  0
  139.1342   75.4551  219.8832 H   0  0  0  0  0  0  0  0  0  0  0  0
  138.3116   76.3219  221.2423 H   0  0  0  0  0  0  0  0  0  0  0  0
  140.4850   77.4227  219.3857 H   0  0  0  0  0  0  0  0  0  0  0  0
  138.7781   77.9494  219.4870 H   0  0  0  0  0  0  0  0  0  0  0  0
  139.1075   80.2075  220.1962 H   0  0  0  0  0  0  0  0  0  0  0  0
  139.7210   81.7620  222.0468 H   0  0  0  0  0  0  0  0  0  0  0  0
  140.9512   80.9069  224.0539 H   0  0  0  0  0  0  0  0  0  0  0  0
  141.5412   78.5057  224.1612 H   0  0  0  0  0  0  0  0  0  0  0  0
  142.1288   76.4890  222.1516 H   0  0  0  0  0  0  0  0  0  0  0  0
  140.9303   76.3121  223.4840 H   0  0  0  0  0  0  0  0  0  0  0  0
  141.3007   71.8898  225.0438 H   0  0  0  0  0  0  0  0  0  0  0  0
  139.7707   72.1892  225.8887 H   0  0  0  0  0  0  0  0  0  0  0  0
  1  2  2  0
  2  3  1  0
  3  4  2  0
  4  5  1  0
  5  6  2  0
  5  7  1  0
  7  8  1  0
  8  9  1  0
  9 10  1  0
 10 11  2  0
 11 12  1  0
 12 13  1  0
 13 14  1  0
 14 15  1  0
 15 16  1  0
 16 17  1  0
 17 18  1  0
 18 19  1  0
 19 20  1  0
 12 21  2  0
 21 22  1  0
 22 23  1  0
 23 24  1  0
 24 25  1  0
 25 26  1  0
 26 27  2  0
 27 28  1  0
 28 29  2  0
 29 30  1  0
 30 31  2  0
 31 32  1  0
 22 33  2  0
  9 34  1  0
  6  1  1  0
 33 10  1  0
 34  4  1  0
 20 15  1  0
 32 23  1  0
 31 26  1  0
  1 35  1  0
  2 36  1  0
  3 37  1  0
  6 38  1  0
  7 39  1  0
  7 40  1  0
  8 41  1  0
  8 42  1  0
 13 43  1  0
 14 44  1  0
 14 45  1  0
 15 46  1  0
 16 47  1  0
 16 48  1  0
 17 49  1  0
 17 50  1  0
 18 51  1  0
 18 52  1  0
 19 53  1  0
 19 54  1  0
 20 55  1  0
 20 56  1  0
 24 57  1  0
 24 58  1  0
 25 59  1  0
 25 60  1  0
 27 61  1  0
 28 62  1  0
 29 63  1  0
 30 64  1  0
 32 65  1  0
 32 66  1  0
 34 67  1  0
 34 68  1  0
M  END
>  <smiles>  (35) 
c1ccc2c(c1)CCN(c1nc(NCC3CCCCC3)nc(N3CCc4ccccc4C3)n1)C2

>  <score_type>  (35) 
oracle

>  <origin>  (35) 
autodockgpu

>  <m_score__min__energy>  (35) 
-10.220000000000001

>  <m_primary>  (35) 
energy

>  <rmsd>  (35) 
11.183969899896516

>  <m_score__min__rmsd>  (35) 
11.183969899896516

>  <meeko>  (35) 
{"free_energy": -9.5, "intermolecular_energy": -10.99, "internal_energy": -1.44, "cluster_size": 23, "cluster_id": 2, "rank_in_cluster": 14}

>  <energy>  (35) 
-9.49

>  <cluster_rmsd>  (35) 
0.33

>  <cluster>  (35) 
2

$$$$

     RDKit          3D

 68 73  0  0  0  0  0  0  0  0999 V2000
  146.2000   69.5540  218.6740 C   0  0  0  0  0  0  0  0  0  0  0  0
  145.0400   69.1070  218.0430 C   0  0  0  0  0  0  0  0  0  0  0  0
  143.8680   69.8450  218.1130 C   0  0  0  0  0  0  0  0  0  0  0  0
  143.8300   71.0500  218.8160 C   0  0  0  0  0  0  0  0  0  0  0  0
  144.9720   71.4980  219.4410 C   0  0  0  0  0  0  0  0  0  0  0  0
  146.1400   70.7490  219.3650 C   0  0  0  0  0  0  0  0  0  0  0  0
  145.0460   72.7620  220.2150 C   0  0  0  0  0  0  0  0  0  0  0  0
  143.8970   73.6330  219.7650 C   0  0  0  0  0  0  0  0  0  0  0  0
  142.6940   72.8540  219.8370 N   0  0  0  0  0  0  0  0  0  0  0  0
  141.6900   73.0700  220.7940 C   0  0  0  0  0  0  0  0  0  0  0  0
  140.9330   74.1810  220.8610 N   0  0  0  0  0  0  0  0  0  0  0  0
  139.9740   74.3530  221.7940 C   0  0  0  0  0  0  0  0  0  0  0  0
  139.1750   75.5280  221.8670 N   0  0  0  0  0  0  0  0  0  0  0  0
  139.6080   76.8210  221.3890 C   0  0  0  0  0  0  0  0  0  0  0  0
  141.0330   77.1220  221.7090 C   0  0  0  0  0  0  0  0  0  0  0  0
  141.1090   77.7260  223.0910 C   0  0  0  0  0  0  0  0  0  0  0  0
  140.5520   79.1280  223.0750 C   0  0  0  0  0  0  0  0  0  0  0  0
  141.4860   79.9540  222.2070 C   0  0  0  0  0  0  0  0  0  0  0  0
  141.4880   79.4370  220.8100 C   0  0  0  0  0  0  0  0  0  0  0  0
  141.6850   77.9660  220.6630 C   0  0  0  0  0  0  0  0  0  0  0  0
  139.7340   73.3960  222.7150 N   0  0  0  0  0  0  0  0  0  0  0  0
  140.4800   72.2760  222.6680 C   0  0  0  0  0  0  0  0  0  0  0  0
  140.2380   71.2420  223.6460 N   0  0  0  0  0  0  0  0  0  0  0  0
  139.6290   70.0360  223.1670 C   0  0  0  0  0  0  0  0  0  0  0  0
  138.7010   69.4240  224.2250 C   0  0  0  0  0  0  0  0  0  0  0  0
  139.4600   69.3110  225.5220 C   0  0  0  0  0  0  0  0  0  0  0  0
  139.2570   68.2310  226.3480 C   0  0  0  0  0  0  0  0  0  0  0  0
  139.9700   68.1430  227.5410 C   0  0  0  0  0  0  0  0  0  0  0  0
  140.8810   69.1370  227.8980 C   0  0  0  0  0  0  0  0  0  0  0  0
  141.0520   70.2020  227.0390 C   0  0  0  0  0  0  0  0  0  0  0  0
  140.3510   70.3110  225.8420 C   0  0  0  0  0  0  0  0  0  0  0  0
  140.6220   71.4950  225.0130 C   0  0  0  0  0  0  0  0  0  0  0  0
  141.4410   72.1210  221.7200 N   0  0  0  0  0  0  0  0  0  0  0  0
  142.5380   71.7860  218.8450 C   0  0  0  0  0  0  0  0  0  0  0  0
  147.1332   68.9739  218.6234 H   0  0  0  0  0  0  0  0  0  0  0  0
  145.0545   68.1597  217.4841 H   0  0  0  0  0  0  0  0  0  0  0  0
  142.9611   69.4777  217.6104 H   0  0  0  0  0  0  0  0  0  0  0  0
  147.0444   71.1187  219.8704 H   0  0  0  0  0  0  0  0  0  0  0  0
  144.9587   72.5501  221.2909 H   0  0  0  0  0  0  0  0  0  0  0  0
  146.0078   73.2675  220.0436 H   0  0  0  0  0  0  0  0  0  0  0  0
  143.8135   74.5101  220.4236 H   0  0  0  0  0  0  0  0  0  0  0  0
  144.0639   73.9832  218.7357 H   0  0  0  0  0  0  0  0  0  0  0  0
  138.2170   75.3870  222.3060 H   0  0  0  0  0  0  0  0  0  0  0  0
  139.4821   76.8493  220.2966 H   0  0  0  0  0  0  0  0  0  0  0  0
  138.9933   77.5785  221.8973 H   0  0  0  0  0  0  0  0  0  0  0  0
  141.6088   76.1848  221.7086 H   0  0  0  0  0  0  0  0  0  0  0  0
  140.5242   77.1101  223.7900 H   0  0  0  0  0  0  0  0  0  0  0  0
  142.1606   77.7598  223.4120 H   0  0  0  0  0  0  0  0  0  0  0  0
  139.5377   79.1290  222.6494 H   0  0  0  0  0  0  0  0  0  0  0  0
  140.4856   79.5410  224.0924 H   0  0  0  0  0  0  0  0  0  0  0  0
  141.1487   81.0010  222.2057 H   0  0  0  0  0  0  0  0  0  0  0  0
  142.5055   79.8864  222.6144 H   0  0  0  0  0  0  0  0  0  0  0  0
  140.5214   79.6955  220.3530 H   0  0  0  0  0  0  0  0  0  0  0  0
  142.3541   79.9051  220.3193 H   0  0  0  0  0  0  0  0  0  0  0  0
  141.2807   77.6660  219.6850 H   0  0  0  0  0  0  0  0  0  0  0  0
  142.7665   77.7943  220.7674 H   0  0  0  0  0  0  0  0  0  0  0  0
  139.0429   70.2641  222.2646 H   0  0  0  0  0  0  0  0  0  0  0  0
  140.4244   69.3107  222.9403 H   0  0  0  0  0  0  0  0  0  0  0  0
  137.8218   70.0700  224.3651 H   0  0  0  0  0  0  0  0  0  0  0  0
  138.3635   68.4291  223.8989 H   0  0  0  0  0  0  0  0  0  0  0  0
  138.5394   67.4451  226.0697 H   0  0  0  0  0  0  0  0  0  0  0  0
  139.8134   67.2821  228.2076 H   0  0  0  0  0  0  0  0  0  0  0  0
  141.4474   69.0731  228.8388 H   0  0  0  0  0  0  0  0  0  0  0  0
  141.7673   70.9927  227.3094 H   0  0  0  0  0  0  0  0  0  0  0  0
  140.0473   72.3493  225.4001 H   0  0  0  0  0  0  0  0  0  0  0  0
  141.6980   71.7205  225.0486 H   0  0  0  0  0  0  0  0  0  0  0  0
  141.7213   71.1101  219.1385 H   0  0  0  0  0  0  0  0  0  0  0  0
  142.2885   72.1942  217.8545 H   0  0  0  0  0  0  0  0  0  0  0  0
  1  2  2  0
  2  3  1  0
  3  4  2  0
  4  5  1  0
  5  6  2  0
  5  7  1  0
  7  8  1  0
  8  9  1  0
  9 10  1  0
 10 11  2  0
 11 12  1  0
 12 13  1  0
 13 14  1  0
 14 15  1  0
 15 16  1  0
 16 17  1  0
 17 18  1  0
 18 19  1  0
 19 20  1  0
 12 21  2  0
 21 22  1  0
 22 23  1  0
 23 24  1  0
 24 25  1  0
 25 26  1  0
 26 27  2  0
 27 28  1  0
 28 29  2  0
 29 30  1  0
 30 31  2  0
 31 32  1  0
 22 33  2  0
  9 34  1  0
  6  1  1  0
 33 10  1  0
 34  4  1  0
 20 15  1  0
 32 23  1  0
 31 26  1  0
  1 35  1  0
  2 36  1  0
  3 37  1  0
  6 38  1  0
  7 39  1  0
  7 40  1  0
  8 41  1  0
  8 42  1  0
 13 43  1  0
 14 44  1  0
 14 45  1  0
 15 46  1  0
 16 47  1  0
 16 48  1  0
 17 49  1  0
 17 50  1  0
 18 51  1  0
 18 52  1  0
 19 53  1  0
 19 54  1  0
 20 55  1  0
 20 56  1  0
 24 57  1  0
 24 58  1  0
 25 59  1  0
 25 60  1  0
 27 61  1  0
 28 62  1  0
 29 63  1  0
 30 64  1  0
 32 65  1  0
 32 66  1  0
 34 67  1  0
 34 68  1  0
M  END
>  <smiles>  (36) 
c1ccc2c(c1)CCN(c1nc(NCC3CCCCC3)nc(N3CCc4ccccc4C3)n1)C2

>  <score_type>  (36) 
oracle

>  <origin>  (36) 
autodockgpu

>  <m_score__min__energy>  (36) 
-10.220000000000001

>  <m_primary>  (36) 
energy

>  <rmsd>  (36) 
9.562335640985916

>  <m_score__min__rmsd>  (36) 
9.562335640985916

>  <meeko>  (36) 
{"free_energy": -9.38, "intermolecular_energy": -10.87, "internal_energy": -1.18, "cluster_size": 3, "cluster_id": 3, "rank_in_cluster": 3}

>  <energy>  (36) 
-9.49

>  <cluster_rmsd>  (36) 
1.0

>  <cluster>  (36) 
2

$$$$

     RDKit          3D

 68 73  0  0  0  0  0  0  0  0999 V2000
  140.7120   79.8140  223.4190 C   0  0  0  0  0  0  0  0  0  0  0  0
  141.7570   79.7410  222.5000 C   0  0  0  0  0  0  0  0  0  0  0  0
  141.8670   78.6620  221.6370 C   0  0  0  0  0  0  0  0  0  0  0  0
  140.9300   77.6270  221.6720 C   0  0  0  0  0  0  0  0  0  0  0  0
  139.8950   77.6930  222.5770 C   0  0  0  0  0  0  0  0  0  0  0  0
  139.7960   78.7790  223.4370 C   0  0  0  0  0  0  0  0  0  0  0  0
  138.8440   76.6520  222.7020 C   0  0  0  0  0  0  0  0  0  0  0  0
  138.8280   75.8700  221.4110 C   0  0  0  0  0  0  0  0  0  0  0  0
  140.1720   75.4560  221.1240 N   0  0  0  0  0  0  0  0  0  0  0  0
  140.6080   74.1250  221.2200 C   0  0  0  0  0  0  0  0  0  0  0  0
  141.3440   73.4990  220.2820 N   0  0  0  0  0  0  0  0  0  0  0  0
  141.7480   72.2190  220.4100 C   0  0  0  0  0  0  0  0  0  0  0  0
  142.5240   71.5560  219.4170 N   0  0  0  0  0  0  0  0  0  0  0  0
  143.9040   71.1740  219.6030 C   0  0  0  0  0  0  0  0  0  0  0  0
  144.8720   72.1690  219.0590 C   0  0  0  0  0  0  0  0  0  0  0  0
  146.0310   72.3010  220.0180 C   0  0  0  0  0  0  0  0  0  0  0  0
  145.5930   73.0300  221.2640 C   0  0  0  0  0  0  0  0  0  0  0  0
  145.2420   74.4450  220.8360 C   0  0  0  0  0  0  0  0  0  0  0  0
  144.1010   74.4290  219.8780 C   0  0  0  0  0  0  0  0  0  0  0  0
  144.2240   73.4750  218.7380 C   0  0  0  0  0  0  0  0  0  0  0  0
  141.4220   71.5020  221.5050 N   0  0  0  0  0  0  0  0  0  0  0  0
  140.6860   72.1070  222.4570 C   0  0  0  0  0  0  0  0  0  0  0  0
  140.3260   71.3560  223.6360 N   0  0  0  0  0  0  0  0  0  0  0  0
  139.5870   70.1460  223.4250 C   0  0  0  0  0  0  0  0  0  0  0  0
  138.5910   69.8970  224.5660 C   0  0  0  0  0  0  0  0  0  0  0  0
  139.3290   70.0010  225.8760 C   0  0  0  0  0  0  0  0  0  0  0  0
  139.0020   69.1660  226.9190 C   0  0  0  0  0  0  0  0  0  0  0  0
  139.6960   69.2760  228.1210 C   0  0  0  0  0  0  0  0  0  0  0  0
  140.7120   70.2200  228.2710 C   0  0  0  0  0  0  0  0  0  0  0  0
  141.0050   71.0350  227.1980 C   0  0  0  0  0  0  0  0  0  0  0  0
  140.3250   70.9440  225.9870 C   0  0  0  0  0  0  0  0  0  0  0  0
  140.7310   71.8710  224.9200 C   0  0  0  0  0  0  0  0  0  0  0  0
  140.2880   73.3990  222.3110 N   0  0  0  0  0  0  0  0  0  0  0  0
  141.1130   76.5040  220.7150 C   0  0  0  0  0  0  0  0  0  0  0  0
  140.6192   80.6670  224.1073 H   0  0  0  0  0  0  0  0  0  0  0  0
  142.5028   80.5486  222.4590 H   0  0  0  0  0  0  0  0  0  0  0  0
  142.6991   78.6206  220.9187 H   0  0  0  0  0  0  0  0  0  0  0  0
  138.9631   78.8167  224.1545 H   0  0  0  0  0  0  0  0  0  0  0  0
  139.0755   75.9831  223.5440 H   0  0  0  0  0  0  0  0  0  0  0  0
  137.8624   77.1115  222.8902 H   0  0  0  0  0  0  0  0  0  0  0  0
  138.1806   74.9871  221.5178 H   0  0  0  0  0  0  0  0  0  0  0  0
  138.4382   76.4932  220.5927 H   0  0  0  0  0  0  0  0  0  0  0  0
  142.0060   71.3580  218.5090 H   0  0  0  0  0  0  0  0  0  0  0  0
  144.0916   71.0582  220.6807 H   0  0  0  0  0  0  0  0  0  0  0  0
  144.0584   70.2352  219.0510 H   0  0  0  0  0  0  0  0  0  0  0  0
  145.2597   71.8069  218.0954 H   0  0  0  0  0  0  0  0  0  0  0  0
  146.3930   71.2989  220.2912 H   0  0  0  0  0  0  0  0  0  0  0  0
  146.8369   72.8708  219.5323 H   0  0  0  0  0  0  0  0  0  0  0  0
  144.7134   72.5368  221.7033 H   0  0  0  0  0  0  0  0  0  0  0  0
  146.3878   73.0304  222.0244 H   0  0  0  0  0  0  0  0  0  0  0  0
  144.9629   75.0333  221.7226 H   0  0  0  0  0  0  0  0  0  0  0  0
  146.1158   74.8962  220.3432 H   0  0  0  0  0  0  0  0  0  0  0  0
  143.1921   74.1680  220.4400 H   0  0  0  0  0  0  0  0  0  0  0  0
  144.0755   75.4319  219.4269 H   0  0  0  0  0  0  0  0  0  0  0  0
  143.2123   73.2672  218.3595 H   0  0  0  0  0  0  0  0  0  0  0  0
  144.8805   73.9651  218.0040 H   0  0  0  0  0  0  0  0  0  0  0  0
  139.0344   70.2239  222.4771 H   0  0  0  0  0  0  0  0  0  0  0  0
  140.2965   69.3060  223.3928 H   0  0  0  0  0  0  0  0  0  0  0  0
  137.7901   70.6502  224.5304 H   0  0  0  0  0  0  0  0  0  0  0  0
  138.1431   68.8975  224.4640 H   0  0  0  0  0  0  0  0  0  0  0  0
  138.2016   68.4201  226.8048 H   0  0  0  0  0  0  0  0  0  0  0  0
  139.4407   68.6123  228.9602 H   0  0  0  0  0  0  0  0  0  0  0  0
  141.2637   70.3116  229.2182 H   0  0  0  0  0  0  0  0  0  0  0  0
  141.8043   71.7834  227.3028 H   0  0  0  0  0  0  0  0  0  0  0  0
  140.2549   72.8485  225.0866 H   0  0  0  0  0  0  0  0  0  0  0  0
  141.8254   71.9804  224.9352 H   0  0  0  0  0  0  0  0  0  0  0  0
  142.1457   76.1280  220.7622 H   0  0  0  0  0  0  0  0  0  0  0  0
  140.9264   76.8267  219.6801 H   0  0  0  0  0  0  0  0  0  0  0  0
  1  2  2  0
  2  3  1  0
  3  4  2  0
  4  5  1  0
  5  6  2  0
  5  7  1  0
  7  8  1  0
  8  9  1  0
  9 10  1  0
 10 11  2  0
 11 12  1  0
 12 13  1  0
 13 14  1  0
 14 15  1  0
 15 16  1  0
 16 17  1  0
 17 18  1  0
 18 19  1  0
 19 20  1  0
 12 21  2  0
 21 22  1  0
 22 23  1  0
 23 24  1  0
 24 25  1  0
 25 26  1  0
 26 27  2  0
 27 28  1  0
 28 29  2  0
 29 30  1  0
 30 31  2  0
 31 32  1  0
 22 33  2  0
  9 34  1  0
  6  1  1  0
 33 10  1  0
 34  4  1  0
 20 15  1  0
 32 23  1  0
 31 26  1  0
  1 35  1  0
  2 36  1  0
  3 37  1  0
  6 38  1  0
  7 39  1  0
  7 40  1  0
  8 41  1  0
  8 42  1  0
 13 43  1  0
 14 44  1  0
 14 45  1  0
 15 46  1  0
 16 47  1  0
 16 48  1  0
 17 49  1  0
 17 50  1  0
 18 51  1  0
 18 52  1  0
 19 53  1  0
 19 54  1  0
 20 55  1  0
 20 56  1  0
 24 57  1  0
 24 58  1  0
 25 59  1  0
 25 60  1  0
 27 61  1  0
 28 62  1  0
 29 63  1  0
 30 64  1  0
 32 65  1  0
 32 66  1  0
 34 67  1  0
 34 68  1  0
M  END
>  <smiles>  (37) 
c1ccc2c(c1)CCN(c1nc(NCC3CCCCC3)nc(N3CCc4ccccc4C3)n1)C2

>  <score_type>  (37) 
oracle

>  <origin>  (37) 
autodockgpu

>  <m_score__min__energy>  (37) 
-10.220000000000001

>  <m_primary>  (37) 
energy

>  <rmsd>  (37) 
4.921217996776423

>  <m_score__min__rmsd>  (37) 
4.921217996776423

>  <meeko>  (37) 
{"free_energy": -9.81, "intermolecular_energy": -11.31, "internal_energy": -1.53, "cluster_size": 23, "cluster_id": 2, "rank_in_cluster": 2}

>  <energy>  (37) 
-9.32

>  <cluster_rmsd>  (37) 
1.07

>  <cluster>  (37) 
2

$$$$

     RDKit          3D

 68 73  0  0  0  0  0  0  0  0999 V2000
  140.9070   80.4400  223.5470 C   0  0  0  0  0  0  0  0  0  0  0  0
  142.1270   80.1470  222.9400 C   0  0  0  0  0  0  0  0  0  0  0  0
  142.2790   79.0000  222.1760 C   0  0  0  0  0  0  0  0  0  0  0  0
  141.2110   78.1190  221.9990 C   0  0  0  0  0  0  0  0  0  0  0  0
  140.0030   78.4030  222.5950 C   0  0  0  0  0  0  0  0  0  0  0  0
  139.8640   79.5540  223.3600 C   0  0  0  0  0  0  0  0  0  0  0  0
  138.8030   77.5390  222.4750 C   0  0  0  0  0  0  0  0  0  0  0  0
  138.9920   76.6720  221.2540 C   0  0  0  0  0  0  0  0  0  0  0  0
  140.2800   76.0460  221.3480 N   0  0  0  0  0  0  0  0  0  0  0  0
  140.4580   74.6770  221.6030 C   0  0  0  0  0  0  0  0  0  0  0  0
  139.6240   73.9310  222.3510 N   0  0  0  0  0  0  0  0  0  0  0  0
  139.8250   72.6160  222.5730 C   0  0  0  0  0  0  0  0  0  0  0  0
  138.9450   71.8270  223.3670 N   0  0  0  0  0  0  0  0  0  0  0  0
  139.2750   70.5090  223.8580 C   0  0  0  0  0  0  0  0  0  0  0  0
  139.1150   70.3730  225.3340 C   0  0  0  0  0  0  0  0  0  0  0  0
  140.3640   70.8860  226.0120 C   0  0  0  0  0  0  0  0  0  0  0  0
  141.5060   69.9250  225.7910 C   0  0  0  0  0  0  0  0  0  0  0  0
  141.1360   68.6410  226.5140 C   0  0  0  0  0  0  0  0  0  0  0  0
  139.9050   68.0480  225.9200 C   0  0  0  0  0  0  0  0  0  0  0  0
  138.7560   68.9810  225.7410 C   0  0  0  0  0  0  0  0  0  0  0  0
  140.8930   71.9860  222.0410 N   0  0  0  0  0  0  0  0  0  0  0  0
  141.7420   72.7120  221.2880 C   0  0  0  0  0  0  0  0  0  0  0  0
  142.8910   72.0560  220.7110 N   0  0  0  0  0  0  0  0  0  0  0  0
  144.1330   72.7680  220.7720 C   0  0  0  0  0  0  0  0  0  0  0  0
  144.9970   72.4850  219.5350 C   0  0  0  0  0  0  0  0  0  0  0  0
  145.0980   70.9930  219.3520 C   0  0  0  0  0  0  0  0  0  0  0  0
  146.2720   70.4320  218.9050 C   0  0  0  0  0  0  0  0  0  0  0  0
  146.3470   69.0510  218.7440 C   0  0  0  0  0  0  0  0  0  0  0  0
  145.2470   68.2420  219.0300 C   0  0  0  0  0  0  0  0  0  0  0  0
  144.0910   68.8490  219.4750 C   0  0  0  0  0  0  0  0  0  0  0  0
  143.9930   70.2270  219.6440 C   0  0  0  0  0  0  0  0  0  0  0  0
  142.7060   70.7530  220.1240 C   0  0  0  0  0  0  0  0  0  0  0  0
  141.5220   74.0370  221.0760 N   0  0  0  0  0  0  0  0  0  0  0  0
  141.4490   76.9110  221.1640 C   0  0  0  0  0  0  0  0  0  0  0  0
  140.7789   81.3475  224.1553 H   0  0  0  0  0  0  0  0  0  0  0  0
  142.9776   80.8325  223.0684 H   0  0  0  0  0  0  0  0  0  0  0  0
  143.2492   78.7826  221.7055 H   0  0  0  0  0  0  0  0  0  0  0  0
  138.8932   79.7665  223.8315 H   0  0  0  0  0  0  0  0  0  0  0  0
  138.7017   76.9094  223.3713 H   0  0  0  0  0  0  0  0  0  0  0  0
  137.8926   78.1492  222.3812 H   0  0  0  0  0  0  0  0  0  0  0  0
  138.2057   75.9037  221.2167 H   0  0  0  0  0  0  0  0  0  0  0  0
  138.9296   77.2811  220.3402 H   0  0  0  0  0  0  0  0  0  0  0  0
  138.0080   72.2850  223.5780 H   0  0  0  0  0  0  0  0  0  0  0  0
  138.6161   69.7781  223.3665 H   0  0  0  0  0  0  0  0  0  0  0  0
  140.3357   70.3313  223.6273 H   0  0  0  0  0  0  0  0  0  0  0  0
  138.2642   70.9874  225.6638 H   0  0  0  0  0  0  0  0  0  0  0  0
  140.6285   71.8679  225.5926 H   0  0  0  0  0  0  0  0  0  0  0  0
  140.1753   70.9787  227.0917 H   0  0  0  0  0  0  0  0  0  0  0  0
  141.6371   69.7315  224.7161 H   0  0  0  0  0  0  0  0  0  0  0  0
  142.4520   70.3373  226.1719 H   0  0  0  0  0  0  0  0  0  0  0  0
  141.9642   67.9227  226.4243 H   0  0  0  0  0  0  0  0  0  0  0  0
  140.9473   68.8691  227.5734 H   0  0  0  0  0  0  0  0  0  0  0  0
  140.1684   67.6436  224.9315 H   0  0  0  0  0  0  0  0  0  0  0  0
  139.5633   67.2880  226.6381 H   0  0  0  0  0  0  0  0  0  0  0  0
  138.0960   68.5613  224.9675 H   0  0  0  0  0  0  0  0  0  0  0  0
  138.2812   69.0684  226.7294 H   0  0  0  0  0  0  0  0  0  0  0  0
  143.9257   73.8470  220.8256 H   0  0  0  0  0  0  0  0  0  0  0  0
  144.6825   72.4336  221.6643 H   0  0  0  0  0  0  0  0  0  0  0  0
  144.5318   72.9369  218.6465 H   0  0  0  0  0  0  0  0  0  0  0  0
  145.9999   72.9164  219.6697 H   0  0  0  0  0  0  0  0  0  0  0  0
  147.1410   71.0669  218.6775 H   0  0  0  0  0  0  0  0  0  0  0  0
  147.2820   68.5937  218.3881 H   0  0  0  0  0  0  0  0  0  0  0  0
  145.3000   67.1505  218.9041 H   0  0  0  0  0  0  0  0  0  0  0  0
  143.2165   68.2223  219.7042 H   0  0  0  0  0  0  0  0  0  0  0  0
  142.0068   70.8309  219.2784 H   0  0  0  0  0  0  0  0  0  0  0  0
  142.2993   70.0702  220.8845 H   0  0  0  0  0  0  0  0  0  0  0  0
  142.3615   76.3933  221.4947 H   0  0  0  0  0  0  0  0  0  0  0  0
  141.5861   77.1776  220.1056 H   0  0  0  0  0  0  0  0  0  0  0  0
  1  2  2  0
  2  3  1  0
  3  4  2  0
  4  5  1  0
  5  6  2  0
  5  7  1  0
  7  8  1  0
  8  9  1  0
  9 10  1  0
 10 11  2  0
 11 12  1  0
 12 13  1  0
 13 14  1  0
 14 15  1  0
 15 16  1  0
 16 17  1  0
 17 18  1  0
 18 19  1  0
 19 20  1  0
 12 21  2  0
 21 22  1  0
 22 23  1  0
 23 24  1  0
 24 25  1  0
 25 26  1  0
 26 27  2  0
 27 28  1  0
 28 29  2  0
 29 30  1  0
 30 31  2  0
 31 32  1  0
 22 33  2  0
  9 34  1  0
  6  1  1  0
 33 10  1  0
 34  4  1  0
 20 15  1  0
 32 23  1  0
 31 26  1  0
  1 35  1  0
  2 36  1  0
  3 37  1  0
  6 38  1  0
  7 39  1  0
  7 40  1  0
  8 41  1  0
  8 42  1  0
 13 43  1  0
 14 44  1  0
 14 45  1  0
 15 46  1  0
 16 47  1  0
 16 48  1  0
 17 49  1  0
 17 50  1  0
 18 51  1  0
 18 52  1  0
 19 53  1  0
 19 54  1  0
 20 55  1  0
 20 56  1  0
 24 57  1  0
 24 58  1  0
 25 59  1  0
 25 60  1  0
 27 61  1  0
 28 62  1  0
 29 63  1  0
 30 64  1  0
 32 65  1  0
 32 66  1  0
 34 67  1  0
 34 68  1  0
M  END
>  <smiles>  (38) 
c1ccc2c(c1)CCN(c1nc(NCC3CCCCC3)nc(N3CCc4ccccc4C3)n1)C2

>  <score_type>  (38) 
oracle

>  <origin>  (38) 
autodockgpu

>  <m_score__min__energy>  (38) 
-10.220000000000001

>  <m_primary>  (38) 
energy

>  <rmsd>  (38) 
5.060760870106566

>  <m_score__min__rmsd>  (38) 
5.060760870106566

>  <meeko>  (38) 
{"free_energy": -10.17, "intermolecular_energy": -11.66, "internal_energy": -1.1, "cluster_size": 20, "cluster_id": 1, "rank_in_cluster": 3}

>  <energy>  (38) 
-9.3

>  <cluster_rmsd>  (38) 
1.14

>  <cluster>  (38) 
2

$$$$

     RDKit          3D

 68 73  0  0  0  0  0  0  0  0999 V2000
  140.6310   79.8220  223.4420 C   0  0  0  0  0  0  0  0  0  0  0  0
  141.6830   79.7620  222.5290 C   0  0  0  0  0  0  0  0  0  0  0  0
  141.8100   78.6840  221.6660 C   0  0  0  0  0  0  0  0  0  0  0  0
  140.8840   77.6390  221.6940 C   0  0  0  0  0  0  0  0  0  0  0  0
  139.8420   77.6920  222.5930 C   0  0  0  0  0  0  0  0  0  0  0  0
  139.7270   78.7770  223.4540 C   0  0  0  0  0  0  0  0  0  0  0  0
  138.8030   76.6400  222.7110 C   0  0  0  0  0  0  0  0  0  0  0  0
  138.8040   75.8590  221.4200 C   0  0  0  0  0  0  0  0  0  0  0  0
  140.1540   75.4610  221.1410 N   0  0  0  0  0  0  0  0  0  0  0  0
  140.6040   74.1340  221.2380 C   0  0  0  0  0  0  0  0  0  0  0  0
  141.3580   73.5200  220.3070 N   0  0  0  0  0  0  0  0  0  0  0  0
  141.7750   72.2440  220.4360 C   0  0  0  0  0  0  0  0  0  0  0  0
  142.5700   71.5930  219.4510 N   0  0  0  0  0  0  0  0  0  0  0  0
  143.9360   71.1750  219.6720 C   0  0  0  0  0  0  0  0  0  0  0  0
  144.9420   72.1620  219.1850 C   0  0  0  0  0  0  0  0  0  0  0  0
  145.6350   72.7840  220.3750 C   0  0  0  0  0  0  0  0  0  0  0  0
  144.6920   73.7180  221.0930 C   0  0  0  0  0  0  0  0  0  0  0  0
  144.4020   74.8600  220.1350 C   0  0  0  0  0  0  0  0  0  0  0  0
  143.7150   74.3510  218.9150 C   0  0  0  0  0  0  0  0  0  0  0  0
  144.3470   73.1710  218.2580 C   0  0  0  0  0  0  0  0  0  0  0  0
  141.4440   71.5200  221.5260 N   0  0  0  0  0  0  0  0  0  0  0  0
  140.6900   72.1140  222.4700 C   0  0  0  0  0  0  0  0  0  0  0  0
  140.3250   71.3550  223.6430 N   0  0  0  0  0  0  0  0  0  0  0  0
  139.5750   70.1530  223.4210 C   0  0  0  0  0  0  0  0  0  0  0  0
  138.5780   69.9020  224.5610 C   0  0  0  0  0  0  0  0  0  0  0  0
  139.3170   69.9880  225.8710 C   0  0  0  0  0  0  0  0  0  0  0  0
  138.9840   69.1470  226.9070 C   0  0  0  0  0  0  0  0  0  0  0  0
  139.6800   69.2390  228.1090 C   0  0  0  0  0  0  0  0  0  0  0  0
  140.7040   70.1740  228.2670 C   0  0  0  0  0  0  0  0  0  0  0  0
  141.0030   70.9960  227.2010 C   0  0  0  0  0  0  0  0  0  0  0  0
  140.3210   70.9220  225.9900 C   0  0  0  0  0  0  0  0  0  0  0  0
  140.7340   71.8550  224.9310 C   0  0  0  0  0  0  0  0  0  0  0  0
  140.2790   73.4010  222.3230 N   0  0  0  0  0  0  0  0  0  0  0  0
  141.0850   76.5190  220.7380 C   0  0  0  0  0  0  0  0  0  0  0  0
  140.5241   80.6734  224.1303 H   0  0  0  0  0  0  0  0  0  0  0  0
  142.4197   80.5780  222.4929 H   0  0  0  0  0  0  0  0  0  0  0  0
  142.6473   78.6517  220.9533 H   0  0  0  0  0  0  0  0  0  0  0  0
  138.8901   78.8047  224.1673 H   0  0  0  0  0  0  0  0  0  0  0  0
  139.0369   75.9733  223.5541 H   0  0  0  0  0  0  0  0  0  0  0  0
  137.8151   77.0881  222.8934 H   0  0  0  0  0  0  0  0  0  0  0  0
  138.1663   74.9686  221.5224 H   0  0  0  0  0  0  0  0  0  0  0  0
  138.4119   76.4781  220.5997 H   0  0  0  0  0  0  0  0  0  0  0  0
  142.0800   71.4320  218.5210 H   0  0  0  0  0  0  0  0  0  0  0  0
  144.0856   71.0281  220.7518 H   0  0  0  0  0  0  0  0  0  0  0  0
  144.0885   70.2467  219.1018 H   0  0  0  0  0  0  0  0  0  0  0  0
  145.6967   71.6397  218.5787 H   0  0  0  0  0  0  0  0  0  0  0  0
  145.9565   71.9900  221.0650 H   0  0  0  0  0  0  0  0  0  0  0  0
  146.5096   73.3527  220.0262 H   0  0  0  0  0  0  0  0  0  0  0  0
  143.7605   73.1929  221.3510 H   0  0  0  0  0  0  0  0  0  0  0  0
  145.1353   74.0877  222.0294 H   0  0  0  0  0  0  0  0  0  0  0  0
  143.7558   75.5970  220.6343 H   0  0  0  0  0  0  0  0  0  0  0  0
  145.3522   75.3294  219.8405 H   0  0  0  0  0  0  0  0  0  0  0  0
  142.6895   74.0707  219.1975 H   0  0  0  0  0  0  0  0  0  0  0  0
  143.7698   75.1670  218.1793 H   0  0  0  0  0  0  0  0  0  0  0  0
  143.5776   72.6658  217.6556 H   0  0  0  0  0  0  0  0  0  0  0  0
  145.1843   73.5675  217.6649 H   0  0  0  0  0  0  0  0  0  0  0  0
  139.0221   70.2448  222.4745 H   0  0  0  0  0  0  0  0  0  0  0  0
  140.2770   69.3071  223.3798 H   0  0  0  0  0  0  0  0  0  0  0  0
  137.7833   70.6621  224.5328 H   0  0  0  0  0  0  0  0  0  0  0  0
  138.1222   68.9070  224.4504 H   0  0  0  0  0  0  0  0  0  0  0  0
  138.1765   68.4097  226.7871 H   0  0  0  0  0  0  0  0  0  0  0  0
  139.4206   68.5688  228.9418 H   0  0  0  0  0  0  0  0  0  0  0  0
  141.2567   70.2530  229.2148 H   0  0  0  0  0  0  0  0  0  0  0  0
  141.8090   71.7364  227.3116 H   0  0  0  0  0  0  0  0  0  0  0  0
  140.2656   72.8347  225.1064 H   0  0  0  0  0  0  0  0  0  0  0  0
  141.8293   71.9554  224.9468 H   0  0  0  0  0  0  0  0  0  0  0  0
  142.1215   76.1546  220.7910 H   0  0  0  0  0  0  0  0  0  0  0  0
  140.9008   76.8400  219.7021 H   0  0  0  0  0  0  0  0  0  0  0  0
  1  2  2  0
  2  3  1  0
  3  4  2  0
  4  5  1  0
  5  6  2  0
  5  7  1  0
  7  8  1  0
  8  9  1  0
  9 10  1  0
 10 11  2  0
 11 12  1  0
 12 13  1  0
 13 14  1  0
 14 15  1  0
 15 16  1  0
 16 17  1  0
 17 18  1  0
 18 19  1  0
 19 20  1  0
 12 21  2  0
 21 22  1  0
 22 23  1  0
 23 24  1  0
 24 25  1  0
 25 26  1  0
 26 27  2  0
 27 28  1  0
 28 29  2  0
 29 30  1  0
 30 31  2  0
 31 32  1  0
 22 33  2  0
  9 34  1  0
  6  1  1  0
 33 10  1  0
 34  4  1  0
 20 15  1  0
 32 23  1  0
 31 26  1  0
  1 35  1  0
  2 36  1  0
  3 37  1  0
  6 38  1  0
  7 39  1  0
  7 40  1  0
  8 41  1  0
  8 42  1  0
 13 43  1  0
 14 44  1  0
 14 45  1  0
 15 46  1  0
 16 47  1  0
 16 48  1  0
 17 49  1  0
 17 50  1  0
 18 51  1  0
 18 52  1  0
 19 53  1  0
 19 54  1  0
 20 55  1  0
 20 56  1  0
 24 57  1  0
 24 58  1  0
 25 59  1  0
 25 60  1  0
 27 61  1  0
 28 62  1  0
 29 63  1  0
 30 64  1  0
 32 65  1  0
 32 66  1  0
 34 67  1  0
 34 68  1  0
M  END
>  <smiles>  (39) 
c1ccc2c(c1)CCN(c1nc(NCC3CCCCC3)nc(N3CCc4ccccc4C3)n1)C2

>  <score_type>  (39) 
oracle

>  <origin>  (39) 
autodockgpu

>  <m_score__min__energy>  (39) 
-10.220000000000001

>  <m_primary>  (39) 
energy

>  <rmsd>  (39) 
4.922743685179988

>  <m_score__min__rmsd>  (39) 
4.922743685179988

>  <meeko>  (39) 
{"free_energy": -9.51, "intermolecular_energy": -11.0, "internal_energy": -1.59, "cluster_size": 23, "cluster_id": 2, "rank_in_cluster": 13}

>  <energy>  (39) 
-9.25

>  <cluster_rmsd>  (39) 
0.58

>  <cluster>  (39) 
2

$$$$

     RDKit          3D

 68 73  0  0  0  0  0  0  0  0999 V2000
  140.7800   79.8690  223.5140 C   0  0  0  0  0  0  0  0  0  0  0  0
  141.8130   79.8380  222.5790 C   0  0  0  0  0  0  0  0  0  0  0  0
  141.9070   78.8010  221.6630 C   0  0  0  0  0  0  0  0  0  0  0  0
  140.9660   77.7700  221.6590 C   0  0  0  0  0  0  0  0  0  0  0  0
  139.9420   77.7950  222.5800 C   0  0  0  0  0  0  0  0  0  0  0  0
  139.8600   78.8380  223.4930 C   0  0  0  0  0  0  0  0  0  0  0  0
  138.8890   76.7530  222.6680 C   0  0  0  0  0  0  0  0  0  0  0  0
  138.8530   76.0350  221.3410 C   0  0  0  0  0  0  0  0  0  0  0  0
  140.1910   75.6310  221.0170 N   0  0  0  0  0  0  0  0  0  0  0  0
  140.6230   74.2950  221.0420 C   0  0  0  0  0  0  0  0  0  0  0  0
  141.3360   73.7110  220.0610 N   0  0  0  0  0  0  0  0  0  0  0  0
  141.7360   72.4240  220.1210 C   0  0  0  0  0  0  0  0  0  0  0  0
  142.4890   71.8060  219.0830 N   0  0  0  0  0  0  0  0  0  0  0  0
  143.7950   71.2210  219.2800 C   0  0  0  0  0  0  0  0  0  0  0  0
  144.9120   72.1190  218.8680 C   0  0  0  0  0  0  0  0  0  0  0  0
  145.8520   72.3020  220.0360 C   0  0  0  0  0  0  0  0  0  0  0  0
  145.2060   73.1700  221.0880 C   0  0  0  0  0  0  0  0  0  0  0  0
  145.0370   74.5460  220.4690 C   0  0  0  0  0  0  0  0  0  0  0  0
  144.1220   74.4770  219.2950 C   0  0  0  0  0  0  0  0  0  0  0  0
  144.4240   73.4100  218.2980 C   0  0  0  0  0  0  0  0  0  0  0  0
  141.4290   71.6590  221.1880 N   0  0  0  0  0  0  0  0  0  0  0  0
  140.7150   72.2210  222.1820 C   0  0  0  0  0  0  0  0  0  0  0  0
  140.3750   71.4180  223.3320 N   0  0  0  0  0  0  0  0  0  0  0  0
  139.6930   70.1840  223.0720 C   0  0  0  0  0  0  0  0  0  0  0  0
  138.6970   69.8540  224.1920 C   0  0  0  0  0  0  0  0  0  0  0  0
  139.4130   69.9480  225.5140 C   0  0  0  0  0  0  0  0  0  0  0  0
  139.1110   69.0670  226.5260 C   0  0  0  0  0  0  0  0  0  0  0  0
  139.7860   69.1680  227.7400 C   0  0  0  0  0  0  0  0  0  0  0  0
  140.7570   70.1510  227.9330 C   0  0  0  0  0  0  0  0  0  0  0  0
  141.0260   71.0130  226.8900 C   0  0  0  0  0  0  0  0  0  0  0  0
  140.3640   70.9300  225.6680 C   0  0  0  0  0  0  0  0  0  0  0  0
  140.7410   71.9090  224.6360 C   0  0  0  0  0  0  0  0  0  0  0  0
  140.3210   73.5200  222.1040 N   0  0  0  0  0  0  0  0  0  0  0  0
  141.1310   76.6940  220.6470 C   0  0  0  0  0  0  0  0  0  0  0  0
  140.6996   80.6873  224.2447 H   0  0  0  0  0  0  0  0  0  0  0  0
  142.5613   80.6442  222.5674 H   0  0  0  0  0  0  0  0  0  0  0  0
  142.7301   78.7909  220.9334 H   0  0  0  0  0  0  0  0  0  0  0  0
  139.0368   78.8438  224.2226 H   0  0  0  0  0  0  0  0  0  0  0  0
  139.1289   76.0431  223.4733 H   0  0  0  0  0  0  0  0  0  0  0  0
  137.9118   77.2060  222.8913 H   0  0  0  0  0  0  0  0  0  0  0  0
  138.2034   75.1502  221.4132 H   0  0  0  0  0  0  0  0  0  0  0  0
  138.4551   76.6985  220.5591 H   0  0  0  0  0  0  0  0  0  0  0  0
  142.0130   71.8030  218.1310 H   0  0  0  0  0  0  0  0  0  0  0  0
  143.9137   70.9834  220.3474 H   0  0  0  0  0  0  0  0  0  0  0  0
  143.8485   70.3230  218.6469 H   0  0  0  0  0  0  0  0  0  0  0  0
  145.4701   71.6469  218.0460 H   0  0  0  0  0  0  0  0  0  0  0  0
  146.0893   71.3195  220.4699 H   0  0  0  0  0  0  0  0  0  0  0  0
  146.7744   72.7873  219.6843 H   0  0  0  0  0  0  0  0  0  0  0  0
  144.2262   72.7580  221.3711 H   0  0  0  0  0  0  0  0  0  0  0  0
  145.8223   73.2166  221.9979 H   0  0  0  0  0  0  0  0  0  0  0  0
  144.6145   75.2315  221.2184 H   0  0  0  0  0  0  0  0  0  0  0  0
  146.0196   74.9110  220.1354 H   0  0  0  0  0  0  0  0  0  0  0  0
  143.1023   74.3082  219.6714 H   0  0  0  0  0  0  0  0  0  0  0  0
  144.2499   75.4298  218.7605 H   0  0  0  0  0  0  0  0  0  0  0  0
  143.5035   73.2044  217.7319 H   0  0  0  0  0  0  0  0  0  0  0  0
  145.2467   73.7979  217.6794 H   0  0  0  0  0  0  0  0  0  0  0  0
  139.1477   70.2689  222.1204 H   0  0  0  0  0  0  0  0  0  0  0  0
  140.4393   69.3775  223.0206 H   0  0  0  0  0  0  0  0  0  0  0  0
  137.8634   70.5714  224.1701 H   0  0  0  0  0  0  0  0  0  0  0  0
  138.2968   68.8389  224.0524 H   0  0  0  0  0  0  0  0  0  0  0  0
  138.3450   68.2914  226.3782 H   0  0  0  0  0  0  0  0  0  0  0  0
  139.5514   68.4664  228.5541 H   0  0  0  0  0  0  0  0  0  0  0  0
  141.2930   70.2363  228.8898 H   0  0  0  0  0  0  0  0  0  0  0  0
  141.7896   71.7925  227.0286 H   0  0  0  0  0  0  0  0  0  0  0  0
  140.2194   72.8584  224.8271 H   0  0  0  0  0  0  0  0  0  0  0  0
  141.8291   72.0670  224.6694 H   0  0  0  0  0  0  0  0  0  0  0  0
  142.1625   76.3122  220.6622 H   0  0  0  0  0  0  0  0  0  0  0  0
  140.9319   77.0672  219.6316 H   0  0  0  0  0  0  0  0  0  0  0  0
  1  2  2  0
  2  3  1  0
  3  4  2  0
  4  5  1  0
  5  6  2  0
  5  7  1  0
  7  8  1  0
  8  9  1  0
  9 10  1  0
 10 11  2  0
 11 12  1  0
 12 13  1  0
 13 14  1  0
 14 15  1  0
 15 16  1  0
 16 17  1  0
 17 18  1  0
 18 19  1  0
 19 20  1  0
 12 21  2  0
 21 22  1  0
 22 23  1  0
 23 24  1  0
 24 25  1  0
 25 26  1  0
 26 27  2  0
 27 28  1  0
 28 29  2  0
 29 30  1  0
 30 31  2  0
 31 32  1  0
 22 33  2  0
  9 34  1  0
  6  1  1  0
 33 10  1  0
 34  4  1  0
 20 15  1  0
 32 23  1  0
 31 26  1  0
  1 35  1  0
  2 36  1  0
  3 37  1  0
  6 38  1  0
  7 39  1  0
  7 40  1  0
  8 41  1  0
  8 42  1  0
 13 43  1  0
 14 44  1  0
 14 45  1  0
 15 46  1  0
 16 47  1  0
 16 48  1  0
 17 49  1  0
 17 50  1  0
 18 51  1  0
 18 52  1  0
 19 53  1  0
 19 54  1  0
 20 55  1  0
 20 56  1  0
 24 57  1  0
 24 58  1  0
 25 59  1  0
 25 60  1  0
 27 61  1  0
 28 62  1  0
 29 63  1  0
 30 64  1  0
 32 65  1  0
 32 66  1  0
 34 67  1  0
 34 68  1  0
M  END
>  <smiles>  (40) 
c1ccc2c(c1)CCN(c1nc(NCC3CCCCC3)nc(N3CCc4ccccc4C3)n1)C2

>  <score_type>  (40) 
oracle

>  <origin>  (40) 
autodockgpu

>  <m_score__min__energy>  (40) 
-10.220000000000001

>  <m_primary>  (40) 
energy

>  <rmsd>  (40) 
4.923005679064024

>  <m_score__min__rmsd>  (40) 
4.923005679064024

>  <meeko>  (40) 
{"free_energy": -9.52, "intermolecular_energy": -11.01, "internal_energy": -1.59, "cluster_size": 23, "cluster_id": 2, "rank_in_cluster": 12}

>  <energy>  (40) 
-9.17

>  <cluster_rmsd>  (40) 
0.88

>  <cluster>  (40) 
2

$$$$

     RDKit          3D

 68 73  0  0  0  0  0  0  0  0999 V2000
  140.2810   67.4670  226.8430 C   0  0  0  0  0  0  0  0  0  0  0  0
  141.0140   68.4940  227.4340 C   0  0  0  0  0  0  0  0  0  0  0  0
  141.0050   69.7710  226.8950 C   0  0  0  0  0  0  0  0  0  0  0  0
  140.2590   70.0520  225.7490 C   0  0  0  0  0  0  0  0  0  0  0  0
  139.5320   69.0420  225.1590 C   0  0  0  0  0  0  0  0  0  0  0  0
  139.5500   67.7660  225.7090 C   0  0  0  0  0  0  0  0  0  0  0  0
  138.7050   69.2260  223.9410 C   0  0  0  0  0  0  0  0  0  0  0  0
  138.4140   70.7010  223.8120 C   0  0  0  0  0  0  0  0  0  0  0  0
  139.6570   71.4100  223.9100 N   0  0  0  0  0  0  0  0  0  0  0  0
  140.2680   72.0530  222.8220 C   0  0  0  0  0  0  0  0  0  0  0  0
  141.0150   71.4260  221.8930 N   0  0  0  0  0  0  0  0  0  0  0  0
  141.5850   72.0760  220.8580 C   0  0  0  0  0  0  0  0  0  0  0  0
  142.3760   71.4130  219.8780 N   0  0  0  0  0  0  0  0  0  0  0  0
  143.8040   71.2240  219.9960 C   0  0  0  0  0  0  0  0  0  0  0  0
  144.5980   72.2070  219.2060 C   0  0  0  0  0  0  0  0  0  0  0  0
  145.9870   72.3010  219.7910 C   0  0  0  0  0  0  0  0  0  0  0  0
  145.9430   73.0190  221.1170 C   0  0  0  0  0  0  0  0  0  0  0  0
  145.5190   74.4470  220.8210 C   0  0  0  0  0  0  0  0  0  0  0  0
  144.1500   74.4690  220.2320 C   0  0  0  0  0  0  0  0  0  0  0  0
  143.9160   73.5320  219.0960 C   0  0  0  0  0  0  0  0  0  0  0  0
  141.4250   73.4080  220.7120 N   0  0  0  0  0  0  0  0  0  0  0  0
  140.6820   74.0570  221.6290 C   0  0  0  0  0  0  0  0  0  0  0  0
  140.5010   75.4820  221.4910 N   0  0  0  0  0  0  0  0  0  0  0  0
  139.5590   76.0980  222.3790 C   0  0  0  0  0  0  0  0  0  0  0  0
  138.8340   77.2660  221.6970 C   0  0  0  0  0  0  0  0  0  0  0  0
  139.8650   78.1810  221.0890 C   0  0  0  0  0  0  0  0  0  0  0  0
  139.6710   79.5430  221.1000 C   0  0  0  0  0  0  0  0  0  0  0  0
  140.6360   80.3720  220.5360 C   0  0  0  0  0  0  0  0  0  0  0  0
  141.7890   79.8330  219.9640 C   0  0  0  0  0  0  0  0  0  0  0  0
  141.9410   78.4630  219.9760 C   0  0  0  0  0  0  0  0  0  0  0  0
  140.9900   77.6140  220.5340 C   0  0  0  0  0  0  0  0  0  0  0  0
  141.2680   76.1700  220.4830 C   0  0  0  0  0  0  0  0  0  0  0  0
  140.1150   73.3840  222.6660 N   0  0  0  0  0  0  0  0  0  0  0  0
  140.2960   71.4440  225.2290 C   0  0  0  0  0  0  0  0  0  0  0  0
  140.2841   66.4513  227.2653 H   0  0  0  0  0  0  0  0  0  0  0  0
  141.6062   68.2892  228.3381 H   0  0  0  0  0  0  0  0  0  0  0  0
  141.5905   70.5695  227.3742 H   0  0  0  0  0  0  0  0  0  0  0  0
  138.9644   66.9694  225.2269 H   0  0  0  0  0  0  0  0  0  0  0  0
  139.2548   68.8724  223.0563 H   0  0  0  0  0  0  0  0  0  0  0  0
  137.7704   68.6507  224.0154 H   0  0  0  0  0  0  0  0  0  0  0  0
  137.9442   70.9047  222.8385 H   0  0  0  0  0  0  0  0  0  0  0  0
  137.7264   71.0250  224.6071 H   0  0  0  0  0  0  0  0  0  0  0  0
  141.8340   71.0600  219.0340 H   0  0  0  0  0  0  0  0  0  0  0  0
  144.0824   71.3220  221.0557 H   0  0  0  0  0  0  0  0  0  0  0  0
  144.0336   70.2251  219.5967 H   0  0  0  0  0  0  0  0  0  0  0  0
  144.6833   71.8513  218.1686 H   0  0  0  0  0  0  0  0  0  0  0  0
  146.3889   71.2878  219.9389 H   0  0  0  0  0  0  0  0  0  0  0  0
  146.6322   72.8619  219.0989 H   0  0  0  0  0  0  0  0  0  0  0  0
  145.2146   72.5373  221.7859 H   0  0  0  0  0  0  0  0  0  0  0  0
  146.9223   72.9906  221.6171 H   0  0  0  0  0  0  0  0  0  0  0  0
  145.5213   75.0272  221.7555 H   0  0  0  0  0  0  0  0  0  0  0  0
  146.2249   74.8879  220.1018 H   0  0  0  0  0  0  0  0  0  0  0  0
  143.4356   74.2171  221.0296 H   0  0  0  0  0  0  0  0  0  0  0  0
  144.0201   75.4793  219.8168 H   0  0  0  0  0  0  0  0  0  0  0  0
  142.8334   73.3512  219.0229 H   0  0  0  0  0  0  0  0  0  0  0  0
  144.3442   74.0200  218.2080 H   0  0  0  0  0  0  0  0  0  0  0  0
  138.8169   75.3483  222.6909 H   0  0  0  0  0  0  0  0  0  0  0  0
  140.1058   76.4887  223.2498 H   0  0  0  0  0  0  0  0  0  0  0  0
  138.1695   76.8809  220.9095 H   0  0  0  0  0  0  0  0  0  0  0  0
  138.2306   77.8161  222.4340 H   0  0  0  0  0  0  0  0  0  0  0  0
  138.7633   79.9719  221.5496 H   0  0  0  0  0  0  0  0  0  0  0  0
  140.4885   81.4621  220.5411 H   0  0  0  0  0  0  0  0  0  0  0  0
  142.5551   80.4830  219.5161 H   0  0  0  0  0  0  0  0  0  0  0  0
  142.8458   78.0255  219.5288 H   0  0  0  0  0  0  0  0  0  0  0  0
  140.9955   75.7819  219.4905 H   0  0  0  0  0  0  0  0  0  0  0  0
  142.3392   76.0028  220.6691 H   0  0  0  0  0  0  0  0  0  0  0  0
  141.3366   71.7889  225.1389 H   0  0  0  0  0  0  0  0  0  0  0  0
  139.7756   72.1369  225.9066 H   0  0  0  0  0  0  0  0  0  0  0  0
  1  2  2  0
  2  3  1  0
  3  4  2  0
  4  5  1  0
  5  6  2  0
  5  7  1  0
  7  8  1  0
  8  9  1  0
  9 10  1  0
 10 11  2  0
 11 12  1  0
 12 13  1  0
 13 14  1  0
 14 15  1  0
 15 16  1  0
 16 17  1  0
 17 18  1  0
 18 19  1  0
 19 20  1  0
 12 21  2  0
 21 22  1  0
 22 23  1  0
 23 24  1  0
 24 25  1  0
 25 26  1  0
 26 27  2  0
 27 28  1  0
 28 29  2  0
 29 30  1  0
 30 31  2  0
 31 32  1  0
 22 33  2  0
  9 34  1  0
  6  1  1  0
 33 10  1  0
 34  4  1  0
 20 15  1  0
 32 23  1  0
 31 26  1  0
  1 35  1  0
  2 36  1  0
  3 37  1  0
  6 38  1  0
  7 39  1  0
  7 40  1  0
  8 41  1  0
  8 42  1  0
 13 43  1  0
 14 44  1  0
 14 45  1  0
 15 46  1  0
 16 47  1  0
 16 48  1  0
 17 49  1  0
 17 50  1  0
 18 51  1  0
 18 52  1  0
 19 53  1  0
 19 54  1  0
 20 55  1  0
 20 56  1  0
 24 57  1  0
 24 58  1  0
 25 59  1  0
 25 60  1  0
 27 61  1  0
 28 62  1  0
 29 63  1  0
 30 64  1  0
 32 65  1  0
 32 66  1  0
 34 67  1  0
 34 68  1  0
M  END
>  <smiles>  (41) 
c1ccc2c(c1)CCN(c1nc(NCC3CCCCC3)nc(N3CCc4ccccc4C3)n1)C2

>  <score_type>  (41) 
oracle

>  <origin>  (41) 
autodockgpu

>  <m_score__min__energy>  (41) 
-10.220000000000001

>  <m_primary>  (41) 
energy

>  <rmsd>  (41) 
11.32766725308201

>  <m_score__min__rmsd>  (41) 
11.32766725308201

>  <meeko>  (41) 
{"free_energy": -9.3, "intermolecular_energy": -10.79, "internal_energy": -1.44, "cluster_size": 23, "cluster_id": 2, "rank_in_cluster": 18}

>  <energy>  (41) 
-9.14

>  <cluster_rmsd>  (41) 
1.1

>  <cluster>  (41) 
2

$$$$

     RDKit          3D

 68 73  0  0  0  0  0  0  0  0999 V2000
  140.8070   80.0410  223.5630 C   0  0  0  0  0  0  0  0  0  0  0  0
  141.9820   79.7920  222.8540 C   0  0  0  0  0  0  0  0  0  0  0  0
  142.1120   78.6510  222.0770 C   0  0  0  0  0  0  0  0  0  0  0  0
  141.0660   77.7300  221.9900 C   0  0  0  0  0  0  0  0  0  0  0  0
  139.9030   77.9690  222.6870 C   0  0  0  0  0  0  0  0  0  0  0  0
  139.7860   79.1160  223.4630 C   0  0  0  0  0  0  0  0  0  0  0  0
  138.7300   77.0600  222.6680 C   0  0  0  0  0  0  0  0  0  0  0  0
  138.8480   76.1990  221.4340 C   0  0  0  0  0  0  0  0  0  0  0  0
  140.1620   75.6230  221.4170 N   0  0  0  0  0  0  0  0  0  0  0  0
  140.4120   74.2620  221.6530 C   0  0  0  0  0  0  0  0  0  0  0  0
  139.6630   73.4810  222.4550 N   0  0  0  0  0  0  0  0  0  0  0  0
  139.9320   72.1750  222.6560 C   0  0  0  0  0  0  0  0  0  0  0  0
  139.1420   71.3500  223.5060 N   0  0  0  0  0  0  0  0  0  0  0  0
  139.3030   71.2920  224.9400 C   0  0  0  0  0  0  0  0  0  0  0  0
  140.6890   70.9460  225.3650 C   0  0  0  0  0  0  0  0  0  0  0  0
  140.7400   69.4790  225.7240 C   0  0  0  0  0  0  0  0  0  0  0  0
  140.0100   69.2380  227.0220 C   0  0  0  0  0  0  0  0  0  0  0  0
  140.7980   69.9600  228.1020 C   0  0  0  0  0  0  0  0  0  0  0  0
  140.8130   71.4260  227.8400 C   0  0  0  0  0  0  0  0  0  0  0  0
  141.1890   71.8350  226.4560 C   0  0  0  0  0  0  0  0  0  0  0  0
  140.9860   71.5900  222.0490 N   0  0  0  0  0  0  0  0  0  0  0  0
  141.7500   72.3510  221.2430 C   0  0  0  0  0  0  0  0  0  0  0  0
  142.8820   71.7430  220.5850 N   0  0  0  0  0  0  0  0  0  0  0  0
  144.0700   72.5390  220.4870 C   0  0  0  0  0  0  0  0  0  0  0  0
  144.8280   72.2480  219.1850 C   0  0  0  0  0  0  0  0  0  0  0  0
  145.0180   70.7580  219.0630 C   0  0  0  0  0  0  0  0  0  0  0  0
  146.1800   70.2530  218.5290 C   0  0  0  0  0  0  0  0  0  0  0  0
  146.3390   68.8730  218.4260 C   0  0  0  0  0  0  0  0  0  0  0  0
  145.3330   68.0090  218.8600 C   0  0  0  0  0  0  0  0  0  0  0  0
  144.1850   68.5610  219.3890 C   0  0  0  0  0  0  0  0  0  0  0  0
  144.0050   69.9370  219.5010 C   0  0  0  0  0  0  0  0  0  0  0  0
  142.7350   70.4000  220.0820 C   0  0  0  0  0  0  0  0  0  0  0  0
  141.4620   73.6660  221.0510 N   0  0  0  0  0  0  0  0  0  0  0  0
  141.2780   76.5310  221.1370 C   0  0  0  0  0  0  0  0  0  0  0  0
  140.6970   80.9441  224.1813 H   0  0  0  0  0  0  0  0  0  0  0  0
  142.8146   80.5086  222.9119 H   0  0  0  0  0  0  0  0  0  0  0  0
  143.0461   78.4700  221.5250 H   0  0  0  0  0  0  0  0  0  0  0  0
  138.8510   79.2928  224.0149 H   0  0  0  0  0  0  0  0  0  0  0  0
  138.7287   76.4285  223.5687 H   0  0  0  0  0  0  0  0  0  0  0  0
  137.7924   77.6351  222.6529 H   0  0  0  0  0  0  0  0  0  0  0  0
  138.0914   75.4011  221.4622 H   0  0  0  0  0  0  0  0  0  0  0  0
  138.6852   76.8040  220.5299 H   0  0  0  0  0  0  0  0  0  0  0  0
  138.4090   70.7680  223.0010 H   0  0  0  0  0  0  0  0  0  0  0  0
  139.0443   72.2751  225.3603 H   0  0  0  0  0  0  0  0  0  0  0  0
  138.6408   70.4953  225.3098 H   0  0  0  0  0  0  0  0  0  0  0  0
  141.3785   71.1221  224.5262 H   0  0  0  0  0  0  0  0  0  0  0  0
  140.2644   68.8919  224.9245 H   0  0  0  0  0  0  0  0  0  0  0  0
  141.7902   69.1724  225.8389 H   0  0  0  0  0  0  0  0  0  0  0  0
  138.9882   69.6412  226.9636 H   0  0  0  0  0  0  0  0  0  0  0  0
  139.9309   68.1626  227.2396 H   0  0  0  0  0  0  0  0  0  0  0  0
  140.3304   69.7711  229.0796 H   0  0  0  0  0  0  0  0  0  0  0  0
  141.8325   69.5861  228.0998 H   0  0  0  0  0  0  0  0  0  0  0  0
  139.8049   71.8156  228.0447 H   0  0  0  0  0  0  0  0  0  0  0  0
  141.5942   71.8383  228.4956 H   0  0  0  0  0  0  0  0  0  0  0  0
  140.7892   72.8447  226.2805 H   0  0  0  0  0  0  0  0  0  0  0  0
  142.2867   71.7791  226.4121 H   0  0  0  0  0  0  0  0  0  0  0  0
  143.7917   73.6030  220.5099 H   0  0  0  0  0  0  0  0  0  0  0  0
  144.7260   72.2909  221.3344 H   0  0  0  0  0  0  0  0  0  0  0  0
  144.2478   72.6192  218.3273 H   0  0  0  0  0  0  0  0  0  0  0  0
  145.8056   72.7520  219.1982 H   0  0  0  0  0  0  0  0  0  0  0  0
  146.9754   70.9314  218.1868 H   0  0  0  0  0  0  0  0  0  0  0  0
  147.2652   68.4610  217.9990 H   0  0  0  0  0  0  0  0  0  0  0  0
  145.4521   66.9182  218.7824 H   0  0  0  0  0  0  0  0  0  0  0  0
  143.3840   67.8909  219.7344 H   0  0  0  0  0  0  0  0  0  0  0  0
  141.9536   70.3847  219.3080 H   0  0  0  0  0  0  0  0  0  0  0  0
  142.4534   69.7335  220.9106 H   0  0  0  0  0  0  0  0  0  0  0  0
  142.2338   76.0485  221.3893 H   0  0  0  0  0  0  0  0  0  0  0  0
  141.3156   76.8007  220.0712 H   0  0  0  0  0  0  0  0  0  0  0  0
  1  2  2  0
  2  3  1  0
  3  4  2  0
  4  5  1  0
  5  6  2  0
  5  7  1  0
  7  8  1  0
  8  9  1  0
  9 10  1  0
 10 11  2  0
 11 12  1  0
 12 13  1  0
 13 14  1  0
 14 15  1  0
 15 16  1  0
 16 17  1  0
 17 18  1  0
 18 19  1  0
 19 20  1  0
 12 21  2  0
 21 22  1  0
 22 23  1  0
 23 24  1  0
 24 25  1  0
 25 26  1  0
 26 27  2  0
 27 28  1  0
 28 29  2  0
 29 30  1  0
 30 31  2  0
 31 32  1  0
 22 33  2  0
  9 34  1  0
  6  1  1  0
 33 10  1  0
 34  4  1  0
 20 15  1  0
 32 23  1  0
 31 26  1  0
  1 35  1  0
  2 36  1  0
  3 37  1  0
  6 38  1  0
  7 39  1  0
  7 40  1  0
  8 41  1  0
  8 42  1  0
 13 43  1  0
 14 44  1  0
 14 45  1  0
 15 46  1  0
 16 47  1  0
 16 48  1  0
 17 49  1  0
 17 50  1  0
 18 51  1  0
 18 52  1  0
 19 53  1  0
 19 54  1  0
 20 55  1  0
 20 56  1  0
 24 57  1  0
 24 58  1  0
 25 59  1  0
 25 60  1  0
 27 61  1  0
 28 62  1  0
 29 63  1  0
 30 64  1  0
 32 65  1  0
 32 66  1  0
 34 67  1  0
 34 68  1  0
M  END
>  <smiles>  (42) 
c1ccc2c(c1)CCN(c1nc(NCC3CCCCC3)nc(N3CCc4ccccc4C3)n1)C2

>  <score_type>  (42) 
oracle

>  <origin>  (42) 
autodockgpu

>  <m_score__min__energy>  (42) 
-10.220000000000001

>  <m_primary>  (42) 
energy

>  <rmsd>  (42) 
5.060856029050968

>  <m_score__min__rmsd>  (42) 
5.060856029050968

>  <meeko>  (42) 
{"free_energy": -9.96, "intermolecular_energy": -11.45, "internal_energy": -1.14, "cluster_size": 20, "cluster_id": 1, "rank_in_cluster": 9}

>  <energy>  (42) 
-9.05

>  <cluster_rmsd>  (42) 
0.65

>  <cluster>  (42) 
2

$$$$

     RDKit          3D

 68 73  0  0  0  0  0  0  0  0999 V2000
  140.8840   80.1470  223.5960 C   0  0  0  0  0  0  0  0  0  0  0  0
  142.0620   79.8660  222.9050 C   0  0  0  0  0  0  0  0  0  0  0  0
  142.1700   78.7240  222.1270 C   0  0  0  0  0  0  0  0  0  0  0  0
  141.1000   77.8340  222.0210 C   0  0  0  0  0  0  0  0  0  0  0  0
  139.9330   78.1050  222.7010 C   0  0  0  0  0  0  0  0  0  0  0  0
  139.8380   79.2530  223.4780 C   0  0  0  0  0  0  0  0  0  0  0  0
  138.7350   77.2310  222.6610 C   0  0  0  0  0  0  0  0  0  0  0  0
  138.8460   76.3700  221.4260 C   0  0  0  0  0  0  0  0  0  0  0  0
  140.1430   75.7550  221.4280 N   0  0  0  0  0  0  0  0  0  0  0  0
  140.3500   74.3870  221.6640 C   0  0  0  0  0  0  0  0  0  0  0  0
  139.5360   73.6140  222.4080 N   0  0  0  0  0  0  0  0  0  0  0  0
  139.7650   72.3010  222.6110 C   0  0  0  0  0  0  0  0  0  0  0  0
  138.9060   71.4850  223.4000 N   0  0  0  0  0  0  0  0  0  0  0  0
  139.1380   71.1940  224.7960 C   0  0  0  0  0  0  0  0  0  0  0  0
  140.5610   70.8750  225.1040 C   0  0  0  0  0  0  0  0  0  0  0  0
  140.6470   69.4550  225.6120 C   0  0  0  0  0  0  0  0  0  0  0  0
  140.0620   69.3650  227.0000 C   0  0  0  0  0  0  0  0  0  0  0  0
  140.9660   70.1870  227.9030 C   0  0  0  0  0  0  0  0  0  0  0  0
  140.9560   71.6170  227.4840 C   0  0  0  0  0  0  0  0  0  0  0  0
  141.1800   71.8690  226.0310 C   0  0  0  0  0  0  0  0  0  0  0  0
  140.8420   71.7000  222.0650 N   0  0  0  0  0  0  0  0  0  0  0  0
  141.6710   72.4520  221.3170 C   0  0  0  0  0  0  0  0  0  0  0  0
  142.8290   71.8270  220.7240 N   0  0  0  0  0  0  0  0  0  0  0  0
  144.0620   72.5530  220.8060 C   0  0  0  0  0  0  0  0  0  0  0  0
  144.9310   72.3150  219.5640 C   0  0  0  0  0  0  0  0  0  0  0  0
  145.0520   70.8290  219.3410 C   0  0  0  0  0  0  0  0  0  0  0  0
  146.2340   70.2950  218.8820 C   0  0  0  0  0  0  0  0  0  0  0  0
  146.3270   68.9200  218.6850 C   0  0  0  0  0  0  0  0  0  0  0  0
  145.2380   68.0890  218.9490 C   0  0  0  0  0  0  0  0  0  0  0  0
  144.0740   68.6690  219.4080 C   0  0  0  0  0  0  0  0  0  0  0  0
  143.9570   70.0410  219.6120 C   0  0  0  0  0  0  0  0  0  0  0  0
  142.6630   70.5370  220.1030 C   0  0  0  0  0  0  0  0  0  0  0  0
  141.4230   73.7750  221.1230 N   0  0  0  0  0  0  0  0  0  0  0  0
  141.2900   76.6310  221.1670 C   0  0  0  0  0  0  0  0  0  0  0  0
  140.7908   81.0515  224.2151 H   0  0  0  0  0  0  0  0  0  0  0  0
  142.9142   80.5576  222.9780 H   0  0  0  0  0  0  0  0  0  0  0  0
  143.1067   78.5174  221.5886 H   0  0  0  0  0  0  0  0  0  0  0  0
  138.9003   79.4561  224.0160 H   0  0  0  0  0  0  0  0  0  0  0  0
  138.7016   76.5973  223.5595 H   0  0  0  0  0  0  0  0  0  0  0  0
  137.8151   77.8336  222.6332 H   0  0  0  0  0  0  0  0  0  0  0  0
  138.0655   75.5950  221.4401 H   0  0  0  0  0  0  0  0  0  0  0  0
  138.7150   76.9817  220.5212 H   0  0  0  0  0  0  0  0  0  0  0  0
  138.0630   71.0970  222.8810 H   0  0  0  0  0  0  0  0  0  0  0  0
  138.8407   72.0712  225.3894 H   0  0  0  0  0  0  0  0  0  0  0  0
  138.5433   70.3030  225.0459 H   0  0  0  0  0  0  0  0  0  0  0  0
  141.1553   70.9493  224.1814 H   0  0  0  0  0  0  0  0  0  0  0  0
  140.0857   68.7924  224.9368 H   0  0  0  0  0  0  0  0  0  0  0  0
  141.7027   69.1477  225.6454 H   0  0  0  0  0  0  0  0  0  0  0  0
  139.0412   69.7747  227.0095 H   0  0  0  0  0  0  0  0  0  0  0  0
  140.0033   68.3205  227.3401 H   0  0  0  0  0  0  0  0  0  0  0  0
  140.6085   70.1106  228.9405 H   0  0  0  0  0  0  0  0  0  0  0  0
  141.9930   69.8000  227.8281 H   0  0  0  0  0  0  0  0  0  0  0  0
  139.9772   72.0407  227.7531 H   0  0  0  0  0  0  0  0  0  0  0  0
  141.8046   72.0865  228.0031 H   0  0  0  0  0  0  0  0  0  0  0  0
  140.7666   72.8597  225.7910 H   0  0  0  0  0  0  0  0  0  0  0  0
  142.2662   71.7926  225.8748 H   0  0  0  0  0  0  0  0  0  0  0  0
  143.8408   73.6274  220.8883 H   0  0  0  0  0  0  0  0  0  0  0  0
  144.6146   72.2014  221.6897 H   0  0  0  0  0  0  0  0  0  0  0  0
  144.4612   72.7845  218.6872 H   0  0  0  0  0  0  0  0  0  0  0  0
  145.9279   72.7558  219.7120 H   0  0  0  0  0  0  0  0  0  0  0  0
  147.0952   70.9467  218.6732 H   0  0  0  0  0  0  0  0  0  0  0  0
  147.2681   68.4847  218.3177 H   0  0  0  0  0  0  0  0  0  0  0  0
  145.3058   67.0019  218.7954 H   0  0  0  0  0  0  0  0  0  0  0  0
  143.2079   68.0250  219.6203 H   0  0  0  0  0  0  0  0  0  0  0  0
  141.9640   70.6273  219.2584 H   0  0  0  0  0  0  0  0  0  0  0  0
  142.2649   69.8293  220.8451 H   0  0  0  0  0  0  0  0  0  0  0  0
  142.2274   76.1201  221.4320 H   0  0  0  0  0  0  0  0  0  0  0  0
  141.3517   76.9022  220.1027 H   0  0  0  0  0  0  0  0  0  0  0  0
  1  2  2  0
  2  3  1  0
  3  4  2  0
  4  5  1  0
  5  6  2  0
  5  7  1  0
  7  8  1  0
  8  9  1  0
  9 10  1  0
 10 11  2  0
 11 12  1  0
 12 13  1  0
 13 14  1  0
 14 15  1  0
 15 16  1  0
 16 17  1  0
 17 18  1  0
 18 19  1  0
 19 20  1  0
 12 21  2  0
 21 22  1  0
 22 23  1  0
 23 24  1  0
 24 25  1  0
 25 26  1  0
 26 27  2  0
 27 28  1  0
 28 29  2  0
 29 30  1  0
 30 31  2  0
 31 32  1  0
 22 33  2  0
  9 34  1  0
  6  1  1  0
 33 10  1  0
 34  4  1  0
 20 15  1  0
 32 23  1  0
 31 26  1  0
  1 35  1  0
  2 36  1  0
  3 37  1  0
  6 38  1  0
  7 39  1  0
  7 40  1  0
  8 41  1  0
  8 42  1  0
 13 43  1  0
 14 44  1  0
 14 45  1  0
 15 46  1  0
 16 47  1  0
 16 48  1  0
 17 49  1  0
 17 50  1  0
 18 51  1  0
 18 52  1  0
 19 53  1  0
 19 54  1  0
 20 55  1  0
 20 56  1  0
 24 57  1  0
 24 58  1  0
 25 59  1  0
 25 60  1  0
 27 61  1  0
 28 62  1  0
 29 63  1  0
 30 64  1  0
 32 65  1  0
 32 66  1  0
 34 67  1  0
 34 68  1  0
M  END
>  <smiles>  (43) 
c1ccc2c(c1)CCN(c1nc(NCC3CCCCC3)nc(N3CCc4ccccc4C3)n1)C2

>  <score_type>  (43) 
oracle

>  <origin>  (43) 
autodockgpu

>  <m_score__min__energy>  (43) 
-10.220000000000001

>  <m_primary>  (43) 
energy

>  <rmsd>  (43) 
5.089509235793008

>  <m_score__min__rmsd>  (43) 
5.089509235793008

>  <meeko>  (43) 
{"free_energy": -10.01, "intermolecular_energy": -11.5, "internal_energy": -1.2, "cluster_size": 20, "cluster_id": 1, "rank_in_cluster": 8}

>  <energy>  (43) 
-8.96

>  <cluster_rmsd>  (43) 
0.93

>  <cluster>  (43) 
2

$$$$

     RDKit          3D

 68 73  0  0  0  0  0  0  0  0999 V2000
  140.2590   67.4330  226.8440 C   0  0  0  0  0  0  0  0  0  0  0  0
  141.0610   68.4200  227.4140 C   0  0  0  0  0  0  0  0  0  0  0  0
  141.0720   69.7080  226.8990 C   0  0  0  0  0  0  0  0  0  0  0  0
  140.2780   70.0380  225.8000 C   0  0  0  0  0  0  0  0  0  0  0  0
  139.4830   69.0680  225.2320 C   0  0  0  0  0  0  0  0  0  0  0  0
  139.4820   67.7820  225.7570 C   0  0  0  0  0  0  0  0  0  0  0  0
  138.6010   69.3070  224.0630 C   0  0  0  0  0  0  0  0  0  0  0  0
  138.3600   70.7940  223.9770 C   0  0  0  0  0  0  0  0  0  0  0  0
  139.6330   71.4550  224.0210 N   0  0  0  0  0  0  0  0  0  0  0  0
  140.2090   72.0960  222.9130 C   0  0  0  0  0  0  0  0  0  0  0  0
  140.9750   71.4790  221.9930 N   0  0  0  0  0  0  0  0  0  0  0  0
  141.5110   72.1270  220.9390 C   0  0  0  0  0  0  0  0  0  0  0  0
  142.3220   71.4740  219.9680 N   0  0  0  0  0  0  0  0  0  0  0  0
  143.7400   71.2510  220.1290 C   0  0  0  0  0  0  0  0  0  0  0  0
  144.5790   72.1780  219.3180 C   0  0  0  0  0  0  0  0  0  0  0  0
  145.9500   72.2760  219.9440 C   0  0  0  0  0  0  0  0  0  0  0  0
  145.8770   73.0610  221.2300 C   0  0  0  0  0  0  0  0  0  0  0  0
  145.4910   74.4800  220.8480 C   0  0  0  0  0  0  0  0  0  0  0  0
  144.1440   74.4980  220.2130 C   0  0  0  0  0  0  0  0  0  0  0  0
  143.9290   73.5080  219.1180 C   0  0  0  0  0  0  0  0  0  0  0  0
  141.2960   73.4470  220.7640 N   0  0  0  0  0  0  0  0  0  0  0  0
  140.5340   74.0870  221.6710 C   0  0  0  0  0  0  0  0  0  0  0  0
  140.2940   75.5000  221.5010 N   0  0  0  0  0  0  0  0  0  0  0  0
  138.9260   75.9280  221.5500 C   0  0  0  0  0  0  0  0  0  0  0  0
  138.6800   77.1110  220.6030 C   0  0  0  0  0  0  0  0  0  0  0  0
  139.7160   78.1700  220.8810 C   0  0  0  0  0  0  0  0  0  0  0  0
  139.3760   79.5010  220.8100 C   0  0  0  0  0  0  0  0  0  0  0  0
  140.3450   80.4650  221.0720 C   0  0  0  0  0  0  0  0  0  0  0  0
  141.6480   80.0910  221.4030 C   0  0  0  0  0  0  0  0  0  0  0  0
  141.9430   78.7450  221.4610 C   0  0  0  0  0  0  0  0  0  0  0  0
  140.9900   77.7640  221.2030 C   0  0  0  0  0  0  0  0  0  0  0  0
  141.4300   76.3630  221.2970 C   0  0  0  0  0  0  0  0  0  0  0  0
  140.0010   73.4160  222.7280 N   0  0  0  0  0  0  0  0  0  0  0  0
  140.3410   71.4390  225.3040 C   0  0  0  0  0  0  0  0  0  0  0  0
  140.2454   66.4095  227.2467 H   0  0  0  0  0  0  0  0  0  0  0  0
  141.6918   68.1751  228.2813 H   0  0  0  0  0  0  0  0  0  0  0  0
  141.7114   70.4750  227.3604 H   0  0  0  0  0  0  0  0  0  0  0  0
  138.8421   67.0175  225.2923 H   0  0  0  0  0  0  0  0  0  0  0  0
  139.0899   68.9515  223.1440 H   0  0  0  0  0  0  0  0  0  0  0  0
  137.6504   68.7651  224.1761 H   0  0  0  0  0  0  0  0  0  0  0  0
  137.8472   71.0347  223.0341 H   0  0  0  0  0  0  0  0  0  0  0  0
  137.7285   71.1268  224.8139 H   0  0  0  0  0  0  0  0  0  0  0  0
  141.8010   71.1540  219.0970 H   0  0  0  0  0  0  0  0  0  0  0  0
  143.9963   71.3863  221.1901 H   0  0  0  0  0  0  0  0  0  0  0  0
  143.9508   70.2300  219.7782 H   0  0  0  0  0  0  0  0  0  0  0  0
  144.6902   71.7681  218.3033 H   0  0  0  0  0  0  0  0  0  0  0  0
  146.3264   71.2644  220.1560 H   0  0  0  0  0  0  0  0  0  0  0  0
  146.6286   72.7891  219.2467 H   0  0  0  0  0  0  0  0  0  0  0  0
  145.1178   72.6272  221.8974 H   0  0  0  0  0  0  0  0  0  0  0  0
  146.8386   73.0404  221.7637 H   0  0  0  0  0  0  0  0  0  0  0  0
  145.4742   75.1069  221.7517 H   0  0  0  0  0  0  0  0  0  0  0  0
  146.2288   74.8701  220.1314 H   0  0  0  0  0  0  0  0  0  0  0  0
  143.3985   74.3008  220.9974 H   0  0  0  0  0  0  0  0  0  0  0  0
  144.0484   75.4881  219.7435 H   0  0  0  0  0  0  0  0  0  0  0  0
  142.8460   73.3443  219.0167 H   0  0  0  0  0  0  0  0  0  0  0  0
  144.3971   73.9417  218.2220 H   0  0  0  0  0  0  0  0  0  0  0  0
  138.2772   75.0905  221.2539 H   0  0  0  0  0  0  0  0  0  0  0  0
  138.6986   76.2507  222.5767 H   0  0  0  0  0  0  0  0  0  0  0  0
  138.7644   76.7744  219.5592 H   0  0  0  0  0  0  0  0  0  0  0  0
  137.6713   77.5192  220.7641 H   0  0  0  0  0  0  0  0  0  0  0  0
  138.3501   79.8000  220.5491 H   0  0  0  0  0  0  0  0  0  0  0  0
  140.0813   81.5315  221.0177 H   0  0  0  0  0  0  0  0  0  0  0  0
  142.4180   80.8483  221.6117 H   0  0  0  0  0  0  0  0  0  0  0  0
  142.9665   78.4362  221.7200 H   0  0  0  0  0  0  0  0  0  0  0  0
  141.9403   76.0786  220.3650 H   0  0  0  0  0  0  0  0  0  0  0  0
  142.1192   76.2583  222.1479 H   0  0  0  0  0  0  0  0  0  0  0  0
  141.3879   71.7468  225.1649 H   0  0  0  0  0  0  0  0  0  0  0  0
  139.8840   72.1371  226.0208 H   0  0  0  0  0  0  0  0  0  0  0  0
  1  2  2  0
  2  3  1  0
  3  4  2  0
  4  5  1  0
  5  6  2  0
  5  7  1  0
  7  8  1  0
  8  9  1  0
  9 10  1  0
 10 11  2  0
 11 12  1  0
 12 13  1  0
 13 14  1  0
 14 15  1  0
 15 16  1  0
 16 17  1  0
 17 18  1  0
 18 19  1  0
 19 20  1  0
 12 21  2  0
 21 22  1  0
 22 23  1  0
 23 24  1  0
 24 25  1  0
 25 26  1  0
 26 27  2  0
 27 28  1  0
 28 29  2  0
 29 30  1  0
 30 31  2  0
 31 32  1  0
 22 33  2  0
  9 34  1  0
  6  1  1  0
 33 10  1  0
 34  4  1  0
 20 15  1  0
 32 23  1  0
 31 26  1  0
  1 35  1  0
  2 36  1  0
  3 37  1  0
  6 38  1  0
  7 39  1  0
  7 40  1  0
  8 41  1  0
  8 42  1  0
 13 43  1  0
 14 44  1  0
 14 45  1  0
 15 46  1  0
 16 47  1  0
 16 48  1  0
 17 49  1  0
 17 50  1  0
 18 51  1  0
 18 52  1  0
 19 53  1  0
 19 54  1  0
 20 55  1  0
 20 56  1  0
 24 57  1  0
 24 58  1  0
 25 59  1  0
 25 60  1  0
 27 61  1  0
 28 62  1  0
 29 63  1  0
 30 64  1  0
 32 65  1  0
 32 66  1  0
 34 67  1  0
 34 68  1  0
M  END
>  <smiles>  (44) 
c1ccc2c(c1)CCN(c1nc(NCC3CCCCC3)nc(N3CCc4ccccc4C3)n1)C2

>  <score_type>  (44) 
oracle

>  <origin>  (44) 
autodockgpu

>  <m_score__min__energy>  (44) 
-10.220000000000001

>  <m_primary>  (44) 
energy

>  <rmsd>  (44) 
11.362035040092277

>  <m_score__min__rmsd>  (44) 
11.362035040092277

>  <meeko>  (44) 
{"free_energy": -9.32, "intermolecular_energy": -10.81, "internal_energy": -1.47, "cluster_size": 23, "cluster_id": 2, "rank_in_cluster": 17}

>  <energy>  (44) 
-9.5

>  <cluster_rmsd>  (44) 
0.0

>  <cluster>  (44) 
3

$$$$

     RDKit          3D

 68 73  0  0  0  0  0  0  0  0999 V2000
  140.2490   79.9680  223.7380 C   0  0  0  0  0  0  0  0  0  0  0  0
  141.5410   79.7570  223.2610 C   0  0  0  0  0  0  0  0  0  0  0  0
  141.8430   78.6340  222.5060 C   0  0  0  0  0  0  0  0  0  0  0  0
  140.8550   77.6940  222.2080 C   0  0  0  0  0  0  0  0  0  0  0  0
  139.5750   77.8960  222.6750 C   0  0  0  0  0  0  0  0  0  0  0  0
  139.2860   79.0250  223.4310 C   0  0  0  0  0  0  0  0  0  0  0  0
  138.4490   76.9640  222.4190 C   0  0  0  0  0  0  0  0  0  0  0  0
  138.8180   76.1300  221.2170 C   0  0  0  0  0  0  0  0  0  0  0  0
  140.1250   75.5810  221.4410 N   0  0  0  0  0  0  0  0  0  0  0  0
  140.3570   74.2200  221.6990 C   0  0  0  0  0  0  0  0  0  0  0  0
  139.5770   73.4540  222.4840 N   0  0  0  0  0  0  0  0  0  0  0  0
  139.8300   72.1480  222.7080 C   0  0  0  0  0  0  0  0  0  0  0  0
  139.0060   71.3380  223.5400 N   0  0  0  0  0  0  0  0  0  0  0  0
  139.1850   71.2170  224.9690 C   0  0  0  0  0  0  0  0  0  0  0  0
  140.5880   70.9090  225.3640 C   0  0  0  0  0  0  0  0  0  0  0  0
  140.6830   69.4500  225.7420 C   0  0  0  0  0  0  0  0  0  0  0  0
  139.9910   69.2100  227.0610 C   0  0  0  0  0  0  0  0  0  0  0  0
  140.7870   69.9650  228.1110 C   0  0  0  0  0  0  0  0  0  0  0  0
  140.7610   71.4280  227.8290 C   0  0  0  0  0  0  0  0  0  0  0  0
  141.0930   71.8260  226.4300 C   0  0  0  0  0  0  0  0  0  0  0  0
  140.8980   71.5490  222.1420 N   0  0  0  0  0  0  0  0  0  0  0  0
  141.6940   72.2960  221.3530 C   0  0  0  0  0  0  0  0  0  0  0  0
  142.8420   71.6730  220.7390 N   0  0  0  0  0  0  0  0  0  0  0  0
  144.0840   72.3820  220.8370 C   0  0  0  0  0  0  0  0  0  0  0  0
  144.9460   72.1670  219.5850 C   0  0  0  0  0  0  0  0  0  0  0  0
  145.0480   70.6880  219.3200 C   0  0  0  0  0  0  0  0  0  0  0  0
  146.2210   70.1520  218.8420 C   0  0  0  0  0  0  0  0  0  0  0  0
  146.2960   68.7820  218.6060 C   0  0  0  0  0  0  0  0  0  0  0  0
  145.1980   67.9580  218.8500 C   0  0  0  0  0  0  0  0  0  0  0  0
  144.0430   68.5390  219.3290 C   0  0  0  0  0  0  0  0  0  0  0  0
  143.9440   69.9060  219.5720 C   0  0  0  0  0  0  0  0  0  0  0  0
  142.6570   70.4030  220.0820 C   0  0  0  0  0  0  0  0  0  0  0  0
  141.4220   73.6110  221.1390 N   0  0  0  0  0  0  0  0  0  0  0  0
  141.2520   76.5160  221.3920 C   0  0  0  0  0  0  0  0  0  0  0  0
  140.0033   80.8558  224.3392 H   0  0  0  0  0  0  0  0  0  0  0  0
  142.3302   80.4895  223.4859 H   0  0  0  0  0  0  0  0  0  0  0  0
  142.8689   78.4826  222.1391 H   0  0  0  0  0  0  0  0  0  0  0  0
  138.2592   79.1732  223.7966 H   0  0  0  0  0  0  0  0  0  0  0  0
  138.2920   76.3149  223.2931 H   0  0  0  0  0  0  0  0  0  0  0  0
  137.5183   77.5206  222.2346 H   0  0  0  0  0  0  0  0  0  0  0  0
  138.0886   75.3166  221.0891 H   0  0  0  0  0  0  0  0  0  0  0  0
  138.8147   76.7488  220.3076 H   0  0  0  0  0  0  0  0  0  0  0  0
  138.2330   70.8170  223.0270 H   0  0  0  0  0  0  0  0  0  0  0  0
  138.8906   72.1668  225.4392 H   0  0  0  0  0  0  0  0  0  0  0  0
  138.5603   70.3764  225.3052 H   0  0  0  0  0  0  0  0  0  0  0  0
  141.2524   71.0879  224.5058 H   0  0  0  0  0  0  0  0  0  0  0  0
  140.2024   68.8402  224.9628 H   0  0  0  0  0  0  0  0  0  0  0  0
  141.7428   69.1706  225.8354 H   0  0  0  0  0  0  0  0  0  0  0  0
  138.9587   69.5880  227.0226 H   0  0  0  0  0  0  0  0  0  0  0  0
  139.9433   68.1362  227.2949 H   0  0  0  0  0  0  0  0  0  0  0  0
  140.3478   69.7789  229.1022 H   0  0  0  0  0  0  0  0  0  0  0  0
  141.8297   69.6154  228.0884 H   0  0  0  0  0  0  0  0  0  0  0  0
  139.7494   71.7970  228.0537 H   0  0  0  0  0  0  0  0  0  0  0  0
  141.5481   71.8676  228.4592 H   0  0  0  0  0  0  0  0  0  0  0  0
  140.6645   72.8231  226.2504 H   0  0  0  0  0  0  0  0  0  0  0  0
  142.1903   71.7961  226.3595 H   0  0  0  0  0  0  0  0  0  0  0  0
  143.8760   73.4563  220.9493 H   0  0  0  0  0  0  0  0  0  0  0  0
  144.6351   72.0005  221.7092 H   0  0  0  0  0  0  0  0  0  0  0  0
  144.4791   72.6665  218.7234 H   0  0  0  0  0  0  0  0  0  0  0  0
  145.9489   72.5907  219.7420 H   0  0  0  0  0  0  0  0  0  0  0  0
  147.0898   70.7983  218.6484 H   0  0  0  0  0  0  0  0  0  0  0  0
  147.2304   68.3455  218.2234 H   0  0  0  0  0  0  0  0  0  0  0  0
  145.2517   66.8749  218.6656 H   0  0  0  0  0  0  0  0  0  0  0  0
  143.1695   67.9001  219.5259 H   0  0  0  0  0  0  0  0  0  0  0  0
  141.9562   70.5259  219.2431 H   0  0  0  0  0  0  0  0  0  0  0  0
  142.2522   69.6792  220.8046 H   0  0  0  0  0  0  0  0  0  0  0  0
  142.1537   76.0476  221.8134 H   0  0  0  0  0  0  0  0  0  0  0  0
  141.4841   76.8074  220.3570 H   0  0  0  0  0  0  0  0  0  0  0  0
  1  2  2  0
  2  3  1  0
  3  4  2  0
  4  5  1  0
  5  6  2  0
  5  7  1  0
  7  8  1  0
  8  9  1  0
  9 10  1  0
 10 11  2  0
 11 12  1  0
 12 13  1  0
 13 14  1  0
 14 15  1  0
 15 16  1  0
 16 17  1  0
 17 18  1  0
 18 19  1  0
 19 20  1  0
 12 21  2  0
 21 22  1  0
 22 23  1  0
 23 24  1  0
 24 25  1  0
 25 26  1  0
 26 27  2  0
 27 28  1  0
 28 29  2  0
 29 30  1  0
 30 31  2  0
 31 32  1  0
 22 33  2  0
  9 34  1  0
  6  1  1  0
 33 10  1  0
 34  4  1  0
 20 15  1  0
 32 23  1  0
 31 26  1  0
  1 35  1  0
  2 36  1  0
  3 37  1  0
  6 38  1  0
  7 39  1  0
  7 40  1  0
  8 41  1  0
  8 42  1  0
 13 43  1  0
 14 44  1  0
 14 45  1  0
 15 46  1  0
 16 47  1  0
 16 48  1  0
 17 49  1  0
 17 50  1  0
 18 51  1  0
 18 52  1  0
 19 53  1  0
 19 54  1  0
 20 55  1  0
 20 56  1  0
 24 57  1  0
 24 58  1  0
 25 59  1  0
 25 60  1  0
 27 61  1  0
 28 62  1  0
 29 63  1  0
 30 64  1  0
 32 65  1  0
 32 66  1  0
 34 67  1  0
 34 68  1  0
M  END
>  <smiles>  (45) 
c1ccc2c(c1)CCN(c1nc(NCC3CCCCC3)nc(N3CCc4ccccc4C3)n1)C2

>  <score_type>  (45) 
oracle

>  <origin>  (45) 
autodockgpu

>  <m_score__min__energy>  (45) 
-10.220000000000001

>  <m_primary>  (45) 
energy

>  <rmsd>  (45) 
5.08103663210386

>  <m_score__min__rmsd>  (45) 
5.08103663210386

>  <meeko>  (45) 
{"free_energy": -10.01, "intermolecular_energy": -11.5, "internal_energy": -1.16, "cluster_size": 20, "cluster_id": 1, "rank_in_cluster": 7}

>  <energy>  (45) 
-9.42

>  <cluster_rmsd>  (45) 
1.24

>  <cluster>  (45) 
3

$$$$

     RDKit          3D

 68 73  0  0  0  0  0  0  0  0999 V2000
  140.4640   80.2840  223.4130 C   0  0  0  0  0  0  0  0  0  0  0  0
  141.7470   80.0550  222.9170 C   0  0  0  0  0  0  0  0  0  0  0  0
  142.0330   78.9020  222.2020 C   0  0  0  0  0  0  0  0  0  0  0  0
  141.0410   77.9500  221.9650 C   0  0  0  0  0  0  0  0  0  0  0  0
  139.7710   78.1700  222.4510 C   0  0  0  0  0  0  0  0  0  0  0  0
  139.4970   79.3290  223.1670 C   0  0  0  0  0  0  0  0  0  0  0  0
  138.6410   77.2280  222.2590 C   0  0  0  0  0  0  0  0  0  0  0  0
  138.9850   76.3440  221.0850 C   0  0  0  0  0  0  0  0  0  0  0  0
  140.2970   75.8060  221.3020 N   0  0  0  0  0  0  0  0  0  0  0  0
  140.5380   74.4580  221.6110 C   0  0  0  0  0  0  0  0  0  0  0  0
  139.8280   73.7470  222.5080 N   0  0  0  0  0  0  0  0  0  0  0  0
  140.0860   72.4510  222.7780 C   0  0  0  0  0  0  0  0  0  0  0  0
  139.3370   71.7010  223.7280 N   0  0  0  0  0  0  0  0  0  0  0  0
  139.8300   70.5060  224.3730 C   0  0  0  0  0  0  0  0  0  0  0  0
  141.0810   70.7300  225.1510 C   0  0  0  0  0  0  0  0  0  0  0  0
  141.4880   69.4330  225.8100 C   0  0  0  0  0  0  0  0  0  0  0  0
  140.5420   69.1060  226.9390 C   0  0  0  0  0  0  0  0  0  0  0  0
  140.7360   70.1860  227.9900 C   0  0  0  0  0  0  0  0  0  0  0  0
  140.3620   71.5190  227.4390 C   0  0  0  0  0  0  0  0  0  0  0  0
  140.9570   71.8640  226.1150 C   0  0  0  0  0  0  0  0  0  0  0  0
  141.0880   71.8050  222.1460 N   0  0  0  0  0  0  0  0  0  0  0  0
  141.8120   72.4950  221.2450 C   0  0  0  0  0  0  0  0  0  0  0  0
  142.8890   71.8210  220.5590 N   0  0  0  0  0  0  0  0  0  0  0  0
  144.1140   72.5520  220.4150 C   0  0  0  0  0  0  0  0  0  0  0  0
  144.8140   72.2080  219.0930 C   0  0  0  0  0  0  0  0  0  0  0  0
  144.9210   70.7090  218.9830 C   0  0  0  0  0  0  0  0  0  0  0  0
  146.0370   70.1370  218.4180 C   0  0  0  0  0  0  0  0  0  0  0  0
  146.1190   68.7510  218.3280 C   0  0  0  0  0  0  0  0  0  0  0  0
  145.0840   67.9460  218.8030 C   0  0  0  0  0  0  0  0  0  0  0  0
  143.9850   68.5630  219.3620 C   0  0  0  0  0  0  0  0  0  0  0  0
  143.8800   69.9470  219.4630 C   0  0  0  0  0  0  0  0  0  0  0  0
  142.6560   70.4830  220.0780 C   0  0  0  0  0  0  0  0  0  0  0  0
  141.5370   73.8020  220.9860 N   0  0  0  0  0  0  0  0  0  0  0  0
  141.4220   76.7400  221.1900 C   0  0  0  0  0  0  0  0  0  0  0  0
  140.2296   81.1959  223.9818 H   0  0  0  0  0  0  0  0  0  0  0  0
  142.5399   80.7964  223.0948 H   0  0  0  0  0  0  0  0  0  0  0  0
  143.0506   78.7365  221.8184 H   0  0  0  0  0  0  0  0  0  0  0  0
  138.4785   79.4909  223.5497 H   0  0  0  0  0  0  0  0  0  0  0  0
  138.5037   76.6162  223.1628 H   0  0  0  0  0  0  0  0  0  0  0  0
  137.7059   77.7761  222.0717 H   0  0  0  0  0  0  0  0  0  0  0  0
  138.2543   75.5254  221.0079 H   0  0  0  0  0  0  0  0  0  0  0  0
  138.9606   76.9243  220.1508 H   0  0  0  0  0  0  0  0  0  0  0  0
  138.3680   72.0890  223.9340 H   0  0  0  0  0  0  0  0  0  0  0  0
  139.0544   70.1338  225.0585 H   0  0  0  0  0  0  0  0  0  0  0  0
  140.0647   69.7807  223.5800 H   0  0  0  0  0  0  0  0  0  0  0  0
  141.8832   71.0366  224.4637 H   0  0  0  0  0  0  0  0  0  0  0  0
  141.4609   68.6229  225.0664 H   0  0  0  0  0  0  0  0  0  0  0  0
  142.5064   69.5376  226.2124 H   0  0  0  0  0  0  0  0  0  0  0  0
  139.5031   69.1096  226.5775 H   0  0  0  0  0  0  0  0  0  0  0  0
  140.7457   68.1072  227.3523 H   0  0  0  0  0  0  0  0  0  0  0  0
  140.1020   69.9627  228.8607 H   0  0  0  0  0  0  0  0  0  0  0  0
  141.7943   70.2073  228.2891 H   0  0  0  0  0  0  0  0  0  0  0  0
  139.2673   71.5460  227.3345 H   0  0  0  0  0  0  0  0  0  0  0  0
  140.7619   72.2586  228.1483 H   0  0  0  0  0  0  0  0  0  0  0  0
  140.3260   72.6361  225.6507 H   0  0  0  0  0  0  0  0  0  0  0  0
  141.9844   72.1973  226.3231 H   0  0  0  0  0  0  0  0  0  0  0  0
  143.8932   73.6294  220.4342 H   0  0  0  0  0  0  0  0  0  0  0  0
  144.7825   72.2780  221.2445 H   0  0  0  0  0  0  0  0  0  0  0  0
  144.2272   72.6007  218.2496 H   0  0  0  0  0  0  0  0  0  0  0  0
  145.8167   72.6596  219.0695 H   0  0  0  0  0  0  0  0  0  0  0  0
  146.8554   70.7682  218.0415 H   0  0  0  0  0  0  0  0  0  0  0  0
  147.0085   68.2859  217.8780 H   0  0  0  0  0  0  0  0  0  0  0  0
  145.1428   66.8498  218.7336 H   0  0  0  0  0  0  0  0  0  0  0  0
  143.1622   67.9393  219.7415 H   0  0  0  0  0  0  0  0  0  0  0  0
  141.8503   70.5006  219.3294 H   0  0  0  0  0  0  0  0  0  0  0  0
  142.3671   69.8415  220.9236 H   0  0  0  0  0  0  0  0  0  0  0  0
  142.3334   76.2901  221.6106 H   0  0  0  0  0  0  0  0  0  0  0  0
  141.6310   76.9887  220.1391 H   0  0  0  0  0  0  0  0  0  0  0  0
  1  2  2  0
  2  3  1  0
  3  4  2  0
  4  5  1  0
  5  6  2  0
  5  7  1  0
  7  8  1  0
  8  9  1  0
  9 10  1  0
 10 11  2  0
 11 12  1  0
 12 13  1  0
 13 14  1  0
 14 15  1  0
 15 16  1  0
 16 17  1  0
 17 18  1  0
 18 19  1  0
 19 20  1  0
 12 21  2  0
 21 22  1  0
 22 23  1  0
 23 24  1  0
 24 25  1  0
 25 26  1  0
 26 27  2  0
 27 28  1  0
 28 29  2  0
 29 30  1  0
 30 31  2  0
 31 32  1  0
 22 33  2  0
  9 34  1  0
  6  1  1  0
 33 10  1  0
 34  4  1  0
 20 15  1  0
 32 23  1  0
 31 26  1  0
  1 35  1  0
  2 36  1  0
  3 37  1  0
  6 38  1  0
  7 39  1  0
  7 40  1  0
  8 41  1  0
  8 42  1  0
 13 43  1  0
 14 44  1  0
 14 45  1  0
 15 46  1  0
 16 47  1  0
 16 48  1  0
 17 49  1  0
 17 50  1  0
 18 51  1  0
 18 52  1  0
 19 53  1  0
 19 54  1  0
 20 55  1  0
 20 56  1  0
 24 57  1  0
 24 58  1  0
 25 59  1  0
 25 60  1  0
 27 61  1  0
 28 62  1  0
 29 63  1  0
 30 64  1  0
 32 65  1  0
 32 66  1  0
 34 67  1  0
 34 68  1  0
M  END
>  <smiles>  (46) 
c1ccc2c(c1)CCN(c1nc(NCC3CCCCC3)nc(N3CCc4ccccc4C3)n1)C2

>  <score_type>  (46) 
oracle

>  <origin>  (46) 
autodockgpu

>  <m_score__min__energy>  (46) 
-10.220000000000001

>  <m_primary>  (46) 
energy

>  <rmsd>  (46) 
4.937272942407123

>  <m_score__min__rmsd>  (46) 
4.937272942407123

>  <meeko>  (46) 
{"free_energy": -10.22, "intermolecular_energy": -11.71, "internal_energy": -1.17, "cluster_size": 20, "cluster_id": 1, "rank_in_cluster": 1}

>  <energy>  (46) 
-9.38

>  <cluster_rmsd>  (46) 
0.67

>  <cluster>  (46) 
3

$$$$

     RDKit          3D

 68 73  0  0  0  0  0  0  0  0999 V2000
  140.6820   79.8250  223.4690 C   0  0  0  0  0  0  0  0  0  0  0  0
  141.7340   79.7620  222.5560 C   0  0  0  0  0  0  0  0  0  0  0  0
  141.8510   78.6910  221.6840 C   0  0  0  0  0  0  0  0  0  0  0  0
  140.9150   77.6550  221.7040 C   0  0  0  0  0  0  0  0  0  0  0  0
  139.8730   77.7100  222.6030 C   0  0  0  0  0  0  0  0  0  0  0  0
  139.7680   78.7890  223.4720 C   0  0  0  0  0  0  0  0  0  0  0  0
  138.8240   76.6670  222.7130 C   0  0  0  0  0  0  0  0  0  0  0  0
  138.8180   75.8960  221.4150 C   0  0  0  0  0  0  0  0  0  0  0  0
  140.1640   75.4870  221.1330 N   0  0  0  0  0  0  0  0  0  0  0  0
  140.6010   74.1560  221.2200 C   0  0  0  0  0  0  0  0  0  0  0  0
  141.3360   73.5370  220.2770 N   0  0  0  0  0  0  0  0  0  0  0  0
  141.7420   72.2560  220.3960 C   0  0  0  0  0  0  0  0  0  0  0  0
  142.5170   71.6000  219.3980 N   0  0  0  0  0  0  0  0  0  0  0  0
  143.8810   71.1690  219.5990 C   0  0  0  0  0  0  0  0  0  0  0  0
  144.8880   72.1250  219.0580 C   0  0  0  0  0  0  0  0  0  0  0  0
  146.0130   72.2710  220.0560 C   0  0  0  0  0  0  0  0  0  0  0  0
  145.5410   73.0540  221.2570 C   0  0  0  0  0  0  0  0  0  0  0  0
  145.2350   74.4580  220.7640 C   0  0  0  0  0  0  0  0  0  0  0  0
  144.1320   74.4280  219.7630 C   0  0  0  0  0  0  0  0  0  0  0  0
  144.2800   73.4310  218.6640 C   0  0  0  0  0  0  0  0  0  0  0  0
  141.4180   71.5320  221.4880 N   0  0  0  0  0  0  0  0  0  0  0  0
  140.6820   72.1300  222.4440 C   0  0  0  0  0  0  0  0  0  0  0  0
  140.3250   71.3720  223.6190 N   0  0  0  0  0  0  0  0  0  0  0  0
  139.5540   70.1830  223.4050 C   0  0  0  0  0  0  0  0  0  0  0  0
  138.5720   69.9410  224.5600 C   0  0  0  0  0  0  0  0  0  0  0  0
  139.3340   70.0100  225.8580 C   0  0  0  0  0  0  0  0  0  0  0  0
  139.0050   69.1680  226.8950 C   0  0  0  0  0  0  0  0  0  0  0  0
  139.7220   69.2450  228.0860 C   0  0  0  0  0  0  0  0  0  0  0  0
  140.7630   70.1630  228.2310 C   0  0  0  0  0  0  0  0  0  0  0  0
  141.0570   70.9860  227.1650 C   0  0  0  0  0  0  0  0  0  0  0  0
  140.3540   70.9270  225.9650 C   0  0  0  0  0  0  0  0  0  0  0  0
  140.7640   71.8590  224.9030 C   0  0  0  0  0  0  0  0  0  0  0  0
  140.2830   73.4230  222.3070 N   0  0  0  0  0  0  0  0  0  0  0  0
  141.1050   76.5400  220.7390 C   0  0  0  0  0  0  0  0  0  0  0  0
  140.5831   80.6718  224.1641 H   0  0  0  0  0  0  0  0  0  0  0  0
  142.4789   80.5709  222.5275 H   0  0  0  0  0  0  0  0  0  0  0  0
  142.6877   78.6569  220.9707 H   0  0  0  0  0  0  0  0  0  0  0  0
  138.9308   78.8193  224.1848 H   0  0  0  0  0  0  0  0  0  0  0  0
  139.0515   75.9915  223.5508 H   0  0  0  0  0  0  0  0  0  0  0  0
  137.8403   77.1228  222.8992 H   0  0  0  0  0  0  0  0  0  0  0  0
  138.1716   75.0110  221.5100 H   0  0  0  0  0  0  0  0  0  0  0  0
  138.4324   76.5257  220.5996 H   0  0  0  0  0  0  0  0  0  0  0  0
  142.0120   71.4460  218.4750 H   0  0  0  0  0  0  0  0  0  0  0  0
  144.0548   71.0531  220.6790 H   0  0  0  0  0  0  0  0  0  0  0  0
  144.0064   70.2215  219.0545 H   0  0  0  0  0  0  0  0  0  0  0  0
  145.3040   71.7198  218.1238 H   0  0  0  0  0  0  0  0  0  0  0  0
  146.3446   71.2733  220.3793 H   0  0  0  0  0  0  0  0  0  0  0  0
  146.8484   72.8070  219.5818 H   0  0  0  0  0  0  0  0  0  0  0  0
  144.6354   72.5936  221.6787 H   0  0  0  0  0  0  0  0  0  0  0  0
  146.3053   73.0681  222.0479 H   0  0  0  0  0  0  0  0  0  0  0  0
  144.9336   75.0840  221.6168 H   0  0  0  0  0  0  0  0  0  0  0  0
  146.1361   74.8740  220.2897 H   0  0  0  0  0  0  0  0  0  0  0  0
  143.1970   74.2046  220.2977 H   0  0  0  0  0  0  0  0  0  0  0  0
  144.1440   75.4140  219.2755 H   0  0  0  0  0  0  0  0  0  0  0  0
  143.2799   73.2289  218.2529 H   0  0  0  0  0  0  0  0  0  0  0  0
  144.9747   73.8811  217.9396 H   0  0  0  0  0  0  0  0  0  0  0  0
  138.9870   70.2871  222.4682 H   0  0  0  0  0  0  0  0  0  0  0  0
  140.2429   69.3272  223.3492 H   0  0  0  0  0  0  0  0  0  0  0  0
  137.7882   70.7127  224.5484 H   0  0  0  0  0  0  0  0  0  0  0  0
  138.0997   68.9534  224.4524 H   0  0  0  0  0  0  0  0  0  0  0  0
  138.1854   68.4427  226.7846 H   0  0  0  0  0  0  0  0  0  0  0  0
  139.4655   68.5759  228.9206 H   0  0  0  0  0  0  0  0  0  0  0  0
  141.3329   70.2280  229.1696 H   0  0  0  0  0  0  0  0  0  0  0  0
  141.8752   71.7143  227.2661 H   0  0  0  0  0  0  0  0  0  0  0  0
  140.3145   72.8452  225.0910 H   0  0  0  0  0  0  0  0  0  0  0  0
  141.8609   71.9417  224.9006 H   0  0  0  0  0  0  0  0  0  0  0  0
  142.1380   76.1653  220.7891 H   0  0  0  0  0  0  0  0  0  0  0  0
  140.9232   76.8712  219.7059 H   0  0  0  0  0  0  0  0  0  0  0  0
  1  2  2  0
  2  3  1  0
  3  4  2  0
  4  5  1  0
  5  6  2  0
  5  7  1  0
  7  8  1  0
  8  9  1  0
  9 10  1  0
 10 11  2  0
 11 12  1  0
 12 13  1  0
 13 14  1  0
 14 15  1  0
 15 16  1  0
 16 17  1  0
 17 18  1  0
 18 19  1  0
 19 20  1  0
 12 21  2  0
 21 22  1  0
 22 23  1  0
 23 24  1  0
 24 25  1  0
 25 26  1  0
 26 27  2  0
 27 28  1  0
 28 29  2  0
 29 30  1  0
 30 31  2  0
 31 32  1  0
 22 33  2  0
  9 34  1  0
  6  1  1  0
 33 10  1  0
 34  4  1  0
 20 15  1  0
 32 23  1  0
 31 26  1  0
  1 35  1  0
  2 36  1  0
  3 37  1  0
  6 38  1  0
  7 39  1  0
  7 40  1  0
  8 41  1  0
  8 42  1  0
 13 43  1  0
 14 44  1  0
 14 45  1  0
 15 46  1  0
 16 47  1  0
 16 48  1  0
 17 49  1  0
 17 50  1  0
 18 51  1  0
 18 52  1  0
 19 53  1  0
 19 54  1  0
 20 55  1  0
 20 56  1  0
 24 57  1  0
 24 58  1  0
 25 59  1  0
 25 60  1  0
 27 61  1  0
 28 62  1  0
 29 63  1  0
 30 64  1  0
 32 65  1  0
 32 66  1  0
 34 67  1  0
 34 68  1  0
M  END
>  <smiles>  (47) 
c1ccc2c(c1)CCN(c1nc(NCC3CCCCC3)nc(N3CCc4ccccc4C3)n1)C2

>  <score_type>  (47) 
oracle

>  <origin>  (47) 
autodockgpu

>  <m_score__min__energy>  (47) 
-10.220000000000001

>  <m_primary>  (47) 
energy

>  <rmsd>  (47) 
4.933450846646949

>  <m_score__min__rmsd>  (47) 
4.933450846646949

>  <meeko>  (47) 
{"free_energy": -9.8, "intermolecular_energy": -11.29, "internal_energy": -1.55, "cluster_size": 23, "cluster_id": 2, "rank_in_cluster": 6}

>  <energy>  (47) 
-9.32

>  <cluster_rmsd>  (47) 
0.0

>  <cluster>  (47) 
4

$$$$

     RDKit          3D

 68 73  0  0  0  0  0  0  0  0999 V2000
  140.3430   67.4200  226.3310 C   0  0  0  0  0  0  0  0  0  0  0  0
  140.9820   68.4490  227.0210 C   0  0  0  0  0  0  0  0  0  0  0  0
  140.8860   69.7610  226.5830 C   0  0  0  0  0  0  0  0  0  0  0  0
  140.1450   70.0760  225.4420 C   0  0  0  0  0  0  0  0  0  0  0  0
  139.5100   69.0640  224.7560 C   0  0  0  0  0  0  0  0  0  0  0  0
  139.6150   67.7540  225.2040 C   0  0  0  0  0  0  0  0  0  0  0  0
  138.6980   69.2830  223.5330 C   0  0  0  0  0  0  0  0  0  0  0  0
  138.2970   70.7380  223.5130 C   0  0  0  0  0  0  0  0  0  0  0  0
  139.4800   71.5280  223.7000 N   0  0  0  0  0  0  0  0  0  0  0  0
  140.0630   72.3000  222.6820 C   0  0  0  0  0  0  0  0  0  0  0  0
  140.7550   71.7900  221.6460 N   0  0  0  0  0  0  0  0  0  0  0  0
  141.2990   72.5620  220.6840 C   0  0  0  0  0  0  0  0  0  0  0  0
  142.0320   72.0230  219.5890 N   0  0  0  0  0  0  0  0  0  0  0  0
  143.3000   71.3450  219.7320 C   0  0  0  0  0  0  0  0  0  0  0  0
  144.4320   72.0680  219.0860 C   0  0  0  0  0  0  0  0  0  0  0  0
  145.5820   72.1530  220.0620 C   0  0  0  0  0  0  0  0  0  0  0  0
  145.2540   73.1300  221.1640 C   0  0  0  0  0  0  0  0  0  0  0  0
  145.1580   74.4990  220.5130 C   0  0  0  0  0  0  0  0  0  0  0  0
  144.0460   74.5240  219.5210 C   0  0  0  0  0  0  0  0  0  0  0  0
  144.0230   73.3980  218.5440 C   0  0  0  0  0  0  0  0  0  0  0  0
  141.1690   73.9040  220.7260 N   0  0  0  0  0  0  0  0  0  0  0  0
  140.4820   74.4380  221.7540 C   0  0  0  0  0  0  0  0  0  0  0  0
  140.3320   75.8730  221.8170 N   0  0  0  0  0  0  0  0  0  0  0  0
  139.0800   76.3660  222.3100 C   0  0  0  0  0  0  0  0  0  0  0  0
  138.6840   77.6740  221.6120 C   0  0  0  0  0  0  0  0  0  0  0  0
  139.8470   78.6290  221.6880 C   0  0  0  0  0  0  0  0  0  0  0  0
  139.6240   79.9740  221.8650 C   0  0  0  0  0  0  0  0  0  0  0  0
  140.7110   80.8410  221.9360 C   0  0  0  0  0  0  0  0  0  0  0  0
  142.0140   80.3550  221.8270 C   0  0  0  0  0  0  0  0  0  0  0  0
  142.1900   78.9990  221.6500 C   0  0  0  0  0  0  0  0  0  0  0  0
  141.1180   78.1140  221.5770 C   0  0  0  0  0  0  0  0  0  0  0  0
  141.4380   76.6910  221.3850 C   0  0  0  0  0  0  0  0  0  0  0  0
  139.9390   73.6430  222.7140 N   0  0  0  0  0  0  0  0  0  0  0  0
  140.0860   71.5040  225.0350 C   0  0  0  0  0  0  0  0  0  0  0  0
  140.4156   66.3767  226.6719 H   0  0  0  0  0  0  0  0  0  0  0  0
  141.5685   68.2177  227.9224 H   0  0  0  0  0  0  0  0  0  0  0  0
  141.3978   70.5604  227.1389 H   0  0  0  0  0  0  0  0  0  0  0  0
  139.1030   66.9570  224.6448 H   0  0  0  0  0  0  0  0  0  0  0  0
  139.2927   69.0444  222.6389 H   0  0  0  0  0  0  0  0  0  0  0  0
  137.8093   68.6348  223.5352 H   0  0  0  0  0  0  0  0  0  0  0  0
  137.8332   70.9839  222.5463 H   0  0  0  0  0  0  0  0  0  0  0  0
  137.5701   70.9444  224.3124 H   0  0  0  0  0  0  0  0  0  0  0  0
  141.5730   72.1550  218.6390 H   0  0  0  0  0  0  0  0  0  0  0  0
  143.5202   71.2391  220.8045 H   0  0  0  0  0  0  0  0  0  0  0  0
  143.2068   70.3709  219.2295 H   0  0  0  0  0  0  0  0  0  0  0  0
  144.7666   71.5003  218.2052 H   0  0  0  0  0  0  0  0  0  0  0  0
  145.7634   71.1596  220.4982 H   0  0  0  0  0  0  0  0  0  0  0  0
  146.4813   72.4976  219.5305 H   0  0  0  0  0  0  0  0  0  0  0  0
  144.2955   72.8648  221.6340 H   0  0  0  0  0  0  0  0  0  0  0  0
  146.0239   73.1164  221.9495 H   0  0  0  0  0  0  0  0  0  0  0  0
  144.9699   75.2568  221.2879 H   0  0  0  0  0  0  0  0  0  0  0  0
  146.1040   74.7157  219.9952 H   0  0  0  0  0  0  0  0  0  0  0  0
  143.0971   74.5078  220.0771 H   0  0  0  0  0  0  0  0  0  0  0  0
  144.1988   75.4349  218.9236 H   0  0  0  0  0  0  0  0  0  0  0  0
  142.9973   73.3056  218.1576 H   0  0  0  0  0  0  0  0  0  0  0  0
  144.7660   73.6515  217.7735 H   0  0  0  0  0  0  0  0  0  0  0  0
  138.3005   75.6117  222.1272 H   0  0  0  0  0  0  0  0  0  0  0  0
  139.1838   76.5640  223.3870 H   0  0  0  0  0  0  0  0  0  0  0  0
  138.4378   77.4726  220.5590 H   0  0  0  0  0  0  0  0  0  0  0  0
  137.8041   78.1125  222.1054 H   0  0  0  0  0  0  0  0  0  0  0  0
  138.5978   80.3610  221.9496 H   0  0  0  0  0  0  0  0  0  0  0  0
  140.5409   81.9183  222.0793 H   0  0  0  0  0  0  0  0  0  0  0  0
  142.8772   81.0348  221.8808 H   0  0  0  0  0  0  0  0  0  0  0  0
  143.2126   78.6029  221.5635 H   0  0  0  0  0  0  0  0  0  0  0  0
  141.6355   76.5028  220.3194 H   0  0  0  0  0  0  0  0  0  0  0  0
  142.3277   76.4380  221.9803 H   0  0  0  0  0  0  0  0  0  0  0  0
  141.0986   71.9323  225.0011 H   0  0  0  0  0  0  0  0  0  0  0  0
  139.4996   72.0992  225.7505 H   0  0  0  0  0  0  0  0  0  0  0  0
  1  2  2  0
  2  3  1  0
  3  4  2  0
  4  5  1  0
  5  6  2  0
  5  7  1  0
  7  8  1  0
  8  9  1  0
  9 10  1  0
 10 11  2  0
 11 12  1  0
 12 13  1  0
 13 14  1  0
 14 15  1  0
 15 16  1  0
 16 17  1  0
 17 18  1  0
 18 19  1  0
 19 20  1  0
 12 21  2  0
 21 22  1  0
 22 23  1  0
 23 24  1  0
 24 25  1  0
 25 26  1  0
 26 27  2  0
 27 28  1  0
 28 29  2  0
 29 30  1  0
 30 31  2  0
 31 32  1  0
 22 33  2  0
  9 34  1  0
  6  1  1  0
 33 10  1  0
 34  4  1  0
 20 15  1  0
 32 23  1  0
 31 26  1  0
  1 35  1  0
  2 36  1  0
  3 37  1  0
  6 38  1  0
  7 39  1  0
  7 40  1  0
  8 41  1  0
  8 42  1  0
 13 43  1  0
 14 44  1  0
 14 45  1  0
 15 46  1  0
 16 47  1  0
 16 48  1  0
 17 49  1  0
 17 50  1  0
 18 51  1  0
 18 52  1  0
 19 53  1  0
 19 54  1  0
 20 55  1  0
 20 56  1  0
 24 57  1  0
 24 58  1  0
 25 59  1  0
 25 60  1  0
 27 61  1  0
 28 62  1  0
 29 63  1  0
 30 64  1  0
 32 65  1  0
 32 66  1  0
 34 67  1  0
 34 68  1  0
M  END
>  <smiles>  (48) 
c1ccc2c(c1)CCN(c1nc(NCC3CCCCC3)nc(N3CCc4ccccc4C3)n1)C2

>  <score_type>  (48) 
oracle

>  <origin>  (48) 
autodockgpu

>  <m_score__min__energy>  (48) 
-10.220000000000001

>  <m_primary>  (48) 
energy

>  <rmsd>  (48) 
11.115380161837368

>  <m_score__min__rmsd>  (48) 
11.115380161837368

>  <meeko>  (48) 
{"free_energy": -9.14, "intermolecular_energy": -10.63, "internal_energy": -1.51, "cluster_size": 23, "cluster_id": 2, "rank_in_cluster": 21}

>  <energy>  (48) 
-9.31

>  <cluster_rmsd>  (48) 
0.21

>  <cluster>  (48) 
4

$$$$

     RDKit          3D

 68 73  0  0  0  0  0  0  0  0999 V2000
  140.9970   80.4390  223.6120 C   0  0  0  0  0  0  0  0  0  0  0  0
  142.2050   80.1380  222.9840 C   0  0  0  0  0  0  0  0  0  0  0  0
  142.3340   78.9980  222.2060 C   0  0  0  0  0  0  0  0  0  0  0  0
  141.2540   78.1290  222.0370 C   0  0  0  0  0  0  0  0  0  0  0  0
  140.0580   78.4200  222.6540 C   0  0  0  0  0  0  0  0  0  0  0  0
  139.9420   79.5650  223.4320 C   0  0  0  0  0  0  0  0  0  0  0  0
  138.8470   77.5690  222.5440 C   0  0  0  0  0  0  0  0  0  0  0  0
  139.0090   76.7110  221.3130 C   0  0  0  0  0  0  0  0  0  0  0  0
  140.2920   76.0720  221.3810 N   0  0  0  0  0  0  0  0  0  0  0  0
  140.4590   74.6990  221.6200 C   0  0  0  0  0  0  0  0  0  0  0  0
  139.6190   73.9500  222.3580 N   0  0  0  0  0  0  0  0  0  0  0  0
  139.8100   72.6310  222.5640 C   0  0  0  0  0  0  0  0  0  0  0  0
  138.9230   71.8400  223.3470 N   0  0  0  0  0  0  0  0  0  0  0  0
  139.2880   70.5710  223.9340 C   0  0  0  0  0  0  0  0  0  0  0  0
  139.2930   70.5900  225.4250 C   0  0  0  0  0  0  0  0  0  0  0  0
  140.6400   71.0760  225.9050 C   0  0  0  0  0  0  0  0  0  0  0  0
  141.6890   70.0190  225.6620 C   0  0  0  0  0  0  0  0  0  0  0  0
  141.3290   68.8410  226.5510 C   0  0  0  0  0  0  0  0  0  0  0  0
  140.0040   68.2820  226.1610 C   0  0  0  0  0  0  0  0  0  0  0  0
  138.9000   69.2740  226.0120 C   0  0  0  0  0  0  0  0  0  0  0  0
  140.8750   72.0000  222.0270 N   0  0  0  0  0  0  0  0  0  0  0  0
  141.7300   72.7290  221.2850 C   0  0  0  0  0  0  0  0  0  0  0  0
  142.8760   72.0710  220.7030 N   0  0  0  0  0  0  0  0  0  0  0  0
  144.1150   72.7900  220.7400 C   0  0  0  0  0  0  0  0  0  0  0  0
  144.9660   72.4960  219.4970 C   0  0  0  0  0  0  0  0  0  0  0  0
  145.0720   71.0030  219.3310 C   0  0  0  0  0  0  0  0  0  0  0  0
  146.2430   70.4410  218.8780 C   0  0  0  0  0  0  0  0  0  0  0  0
  146.3240   69.0590  218.7330 C   0  0  0  0  0  0  0  0  0  0  0  0
  145.2320   68.2480  219.0430 C   0  0  0  0  0  0  0  0  0  0  0  0
  144.0790   68.8550  219.4940 C   0  0  0  0  0  0  0  0  0  0  0  0
  143.9750   70.2340  219.6460 C   0  0  0  0  0  0  0  0  0  0  0  0
  142.6910   70.7590  220.1340 C   0  0  0  0  0  0  0  0  0  0  0  0
  141.5200   74.0570  221.0880 N   0  0  0  0  0  0  0  0  0  0  0  0
  141.4670   76.9270  221.1880 C   0  0  0  0  0  0  0  0  0  0  0  0
  140.8875   81.3422  224.2302 H   0  0  0  0  0  0  0  0  0  0  0  0
  143.0651   80.8126  223.1073 H   0  0  0  0  0  0  0  0  0  0  0  0
  143.2945   78.7762  221.7180 H   0  0  0  0  0  0  0  0  0  0  0  0
  138.9805   79.7826  223.9199 H   0  0  0  0  0  0  0  0  0  0  0  0
  138.7523   76.9325  223.4362 H   0  0  0  0  0  0  0  0  0  0  0  0
  137.9417   78.1893  222.4688 H   0  0  0  0  0  0  0  0  0  0  0  0
  138.2149   75.9505  221.2814 H   0  0  0  0  0  0  0  0  0  0  0  0
  138.9385   77.3289  220.4057 H   0  0  0  0  0  0  0  0  0  0  0  0
  137.9520   72.2550  223.4730 H   0  0  0  0  0  0  0  0  0  0  0  0
  138.5681   69.8106  223.5970 H   0  0  0  0  0  0  0  0  0  0  0  0
  140.3138   70.3444  223.6078 H   0  0  0  0  0  0  0  0  0  0  0  0
  138.5248   71.2927  225.7801 H   0  0  0  0  0  0  0  0  0  0  0  0
  140.9123   71.9912  225.3590 H   0  0  0  0  0  0  0  0  0  0  0  0
  140.5837   71.2864  226.9832 H   0  0  0  0  0  0  0  0  0  0  0  0
  141.6828   69.7134  224.6053 H   0  0  0  0  0  0  0  0  0  0  0  0
  142.6958   70.3977  225.8921 H   0  0  0  0  0  0  0  0  0  0  0  0
  142.0968   68.0602  226.4466 H   0  0  0  0  0  0  0  0  0  0  0  0
  141.2783   69.1841  227.5949 H   0  0  0  0  0  0  0  0  0  0  0  0
  140.1259   67.7653  225.1976 H   0  0  0  0  0  0  0  0  0  0  0  0
  139.7030   67.6216  226.9876 H   0  0  0  0  0  0  0  0  0  0  0  0
  138.1305   68.8299  225.3634 H   0  0  0  0  0  0  0  0  0  0  0  0
  138.5491   69.4908  227.0317 H   0  0  0  0  0  0  0  0  0  0  0  0
  143.9026   73.8685  220.7823 H   0  0  0  0  0  0  0  0  0  0  0  0
  144.6767   72.4695  221.6298 H   0  0  0  0  0  0  0  0  0  0  0  0
  144.4886   72.9349  218.6085 H   0  0  0  0  0  0  0  0  0  0  0  0
  145.9683   72.9336  219.6150 H   0  0  0  0  0  0  0  0  0  0  0  0
  147.1063   71.0771  218.6329 H   0  0  0  0  0  0  0  0  0  0  0  0
  147.2570   68.6024  218.3709 H   0  0  0  0  0  0  0  0  0  0  0  0
  145.2892   67.1552  218.9308 H   0  0  0  0  0  0  0  0  0  0  0  0
  143.2108   68.2268  219.7424 H   0  0  0  0  0  0  0  0  0  0  0  0
  141.9818   70.8228  219.2956 H   0  0  0  0  0  0  0  0  0  0  0  0
  142.2965   70.0836  220.9074 H   0  0  0  0  0  0  0  0  0  0  0  0
  142.3789   76.3970  221.5004 H   0  0  0  0  0  0  0  0  0  0  0  0
  141.5912   77.2022  220.1302 H   0  0  0  0  0  0  0  0  0  0  0  0
  1  2  2  0
  2  3  1  0
  3  4  2  0
  4  5  1  0
  5  6  2  0
  5  7  1  0
  7  8  1  0
  8  9  1  0
  9 10  1  0
 10 11  2  0
 11 12  1  0
 12 13  1  0
 13 14  1  0
 14 15  1  0
 15 16  1  0
 16 17  1  0
 17 18  1  0
 18 19  1  0
 19 20  1  0
 12 21  2  0
 21 22  1  0
 22 23  1  0
 23 24  1  0
 24 25  1  0
 25 26  1  0
 26 27  2  0
 27 28  1  0
 28 29  2  0
 29 30  1  0
 30 31  2  0
 31 32  1  0
 22 33  2  0
  9 34  1  0
  6  1  1  0
 33 10  1  0
 34  4  1  0
 20 15  1  0
 32 23  1  0
 31 26  1  0
  1 35  1  0
  2 36  1  0
  3 37  1  0
  6 38  1  0
  7 39  1  0
  7 40  1  0
  8 41  1  0
  8 42  1  0
 13 43  1  0
 14 44  1  0
 14 45  1  0
 15 46  1  0
 16 47  1  0
 16 48  1  0
 17 49  1  0
 17 50  1  0
 18 51  1  0
 18 52  1  0
 19 53  1  0
 19 54  1  0
 20 55  1  0
 20 56  1  0
 24 57  1  0
 24 58  1  0
 25 59  1  0
 25 60  1  0
 27 61  1  0
 28 62  1  0
 29 63  1  0
 30 64  1  0
 32 65  1  0
 32 66  1  0
 34 67  1  0
 34 68  1  0
M  END
>  <smiles>  (49) 
c1ccc2c(c1)CCN(c1nc(NCC3CCCCC3)nc(N3CCc4ccccc4C3)n1)C2

>  <score_type>  (49) 
oracle

>  <origin>  (49) 
autodockgpu

>  <m_score__min__energy>  (49) 
-10.220000000000001

>  <m_primary>  (49) 
energy

>  <rmsd>  (49) 
5.101125794879551

>  <m_score__min__rmsd>  (49) 
5.101125794879551

>  <meeko>  (49) 
{"free_energy": -10.02, "intermolecular_energy": -11.51, "internal_energy": -1.14, "cluster_size": 20, "cluster_id": 1, "rank_in_cluster": 6}

>  <energy>  (49) 
-9.3

>  <cluster_rmsd>  (49) 
0.11

>  <cluster>  (49) 
4

$$$$

     RDKit          3D

 68 73  0  0  0  0  0  0  0  0999 V2000
  139.9410   67.4820  226.5750 C   0  0  0  0  0  0  0  0  0  0  0  0
  140.7710   68.3970  227.2200 C   0  0  0  0  0  0  0  0  0  0  0  0
  140.8830   69.6990  226.7570 C   0  0  0  0  0  0  0  0  0  0  0  0
  140.1640   70.1170  225.6350 C   0  0  0  0  0  0  0  0  0  0  0  0
  139.3430   69.2180  224.9930 C   0  0  0  0  0  0  0  0  0  0  0  0
  139.2400   67.9160  225.4670 C   0  0  0  0  0  0  0  0  0  0  0  0
  138.5340   69.5520  223.7940 C   0  0  0  0  0  0  0  0  0  0  0  0
  138.3860   71.0540  223.7550 C   0  0  0  0  0  0  0  0  0  0  0  0
  139.6920   71.6340  223.8850 N   0  0  0  0  0  0  0  0  0  0  0  0
  140.3590   72.2790  222.8310 C   0  0  0  0  0  0  0  0  0  0  0  0
  140.0650   73.5170  222.3930 N   0  0  0  0  0  0  0  0  0  0  0  0
  140.7300   74.1070  221.3790 C   0  0  0  0  0  0  0  0  0  0  0  0
  140.4180   75.4150  220.9130 N   0  0  0  0  0  0  0  0  0  0  0  0
  140.1860   76.5420  221.7880 C   0  0  0  0  0  0  0  0  0  0  0  0
  141.2750   77.5580  221.7440 C   0  0  0  0  0  0  0  0  0  0  0  0
  141.4260   78.1760  223.1140 C   0  0  0  0  0  0  0  0  0  0  0  0
  140.2520   79.0770  223.4080 C   0  0  0  0  0  0  0  0  0  0  0  0
  140.3330   80.2280  222.4190 C   0  0  0  0  0  0  0  0  0  0  0  0
  140.1970   79.7230  221.0240 C   0  0  0  0  0  0  0  0  0  0  0  0
  141.0680   78.5680  220.6630 C   0  0  0  0  0  0  0  0  0  0  0  0
  141.7360   73.4630  220.7520 N   0  0  0  0  0  0  0  0  0  0  0  0
  142.0490   72.2220  221.1730 C   0  0  0  0  0  0  0  0  0  0  0  0
  143.1220   71.5160  220.5130 N   0  0  0  0  0  0  0  0  0  0  0  0
  144.3800   72.1970  220.4300 C   0  0  0  0  0  0  0  0  0  0  0  0
  145.1150   71.8500  219.1280 C   0  0  0  0  0  0  0  0  0  0  0  0
  145.1640   70.3500  218.9900 C   0  0  0  0  0  0  0  0  0  0  0  0
  146.2760   69.7430  218.4550 C   0  0  0  0  0  0  0  0  0  0  0  0
  146.3030   68.3560  218.3380 C   0  0  0  0  0  0  0  0  0  0  0  0
  145.2180   67.5860  218.7570 C   0  0  0  0  0  0  0  0  0  0  0  0
  144.1240   68.2390  219.2880 C   0  0  0  0  0  0  0  0  0  0  0  0
  144.0750   69.6240  219.4140 C   0  0  0  0  0  0  0  0  0  0  0  0
  142.8510   70.1990  219.9940 C   0  0  0  0  0  0  0  0  0  0  0  0
  141.3670   71.6440  222.1970 N   0  0  0  0  0  0  0  0  0  0  0  0
  140.3340   71.5280  225.1990 C   0  0  0  0  0  0  0  0  0  0  0  0
  139.8472   66.4474  226.9367 H   0  0  0  0  0  0  0  0  0  0  0  0
  141.3431   68.0830  228.1055 H   0  0  0  0  0  0  0  0  0  0  0  0
  141.5433   70.4083  227.2774 H   0  0  0  0  0  0  0  0  0  0  0  0
  138.5797   67.2089  224.9435 H   0  0  0  0  0  0  0  0  0  0  0  0
  139.0450   69.2006  222.8855 H   0  0  0  0  0  0  0  0  0  0  0  0
  137.5487   69.0652  223.8416 H   0  0  0  0  0  0  0  0  0  0  0  0
  137.9357   71.3596  222.7990 H   0  0  0  0  0  0  0  0  0  0  0  0
  137.7347   71.3942  224.5736 H   0  0  0  0  0  0  0  0  0  0  0  0
  140.3650   75.5090  219.8550 H   0  0  0  0  0  0  0  0  0  0  0  0
  139.2444   77.0267  221.4904 H   0  0  0  0  0  0  0  0  0  0  0  0
  140.1458   76.1527  222.8160 H   0  0  0  0  0  0  0  0  0  0  0  0
  142.2213   77.0619  221.4822 H   0  0  0  0  0  0  0  0  0  0  0  0
  141.4709   77.3783  223.8701 H   0  0  0  0  0  0  0  0  0  0  0  0
  142.3516   78.7698  223.1413 H   0  0  0  0  0  0  0  0  0  0  0  0
  139.3085   78.5274  223.2750 H   0  0  0  0  0  0  0  0  0  0  0  0
  140.2803   79.4414  224.4455 H   0  0  0  0  0  0  0  0  0  0  0  0
  139.5227   80.9423  222.6267 H   0  0  0  0  0  0  0  0  0  0  0  0
  141.3094   80.7232  222.5262 H   0  0  0  0  0  0  0  0  0  0  0  0
  139.1511   79.4156  220.8771 H   0  0  0  0  0  0  0  0  0  0  0  0
  140.5160   80.5515  220.3745 H   0  0  0  0  0  0  0  0  0  0  0  0
  140.6126   78.0556  219.8027 H   0  0  0  0  0  0  0  0  0  0  0  0
  142.0606   78.9921  220.4509 H   0  0  0  0  0  0  0  0  0  0  0  0
  144.2033   73.2822  220.4638 H   0  0  0  0  0  0  0  0  0  0  0  0
  145.0046   71.8787  221.2777 H   0  0  0  0  0  0  0  0  0  0  0  0
  144.5775   72.2838  218.2719 H   0  0  0  0  0  0  0  0  0  0  0  0
  146.1358   72.2593  219.1516 H   0  0  0  0  0  0  0  0  0  0  0  0
  147.1340   70.3462  218.1234 H   0  0  0  0  0  0  0  0  0  0  0  0
  147.1885   67.8625  217.9110 H   0  0  0  0  0  0  0  0  0  0  0  0
  145.2338   66.4898  218.6669 H   0  0  0  0  0  0  0  0  0  0  0  0
  143.2614   67.6443  219.6230 H   0  0  0  0  0  0  0  0  0  0  0  0
  142.0763   70.2665  219.2160 H   0  0  0  0  0  0  0  0  0  0  0  0
  142.5022   69.5532  220.8133 H   0  0  0  0  0  0  0  0  0  0  0  0
  141.4028   71.7764  225.1217 H   0  0  0  0  0  0  0  0  0  0  0  0
  139.8844   72.2259  225.9206 H   0  0  0  0  0  0  0  0  0  0  0  0
  1  2  2  0
  2  3  1  0
  3  4  2  0
  4  5  1  0
  5  6  2  0
  5  7  1  0
  7  8  1  0
  8  9  1  0
  9 10  1  0
 10 11  2  0
 11 12  1  0
 12 13  1  0
 13 14  1  0
 14 15  1  0
 15 16  1  0
 16 17  1  0
 17 18  1  0
 18 19  1  0
 19 20  1  0
 12 21  2  0
 21 22  1  0
 22 23  1  0
 23 24  1  0
 24 25  1  0
 25 26  1  0
 26 27  2  0
 27 28  1  0
 28 29  2  0
 29 30  1  0
 30 31  2  0
 31 32  1  0
 22 33  2  0
  9 34  1  0
  6  1  1  0
 33 10  1  0
 34  4  1  0
 20 15  1  0
 32 23  1  0
 31 26  1  0
  1 35  1  0
  2 36  1  0
  3 37  1  0
  6 38  1  0
  7 39  1  0
  7 40  1  0
  8 41  1  0
  8 42  1  0
 13 43  1  0
 14 44  1  0
 14 45  1  0
 15 46  1  0
 16 47  1  0
 16 48  1  0
 17 49  1  0
 17 50  1  0
 18 51  1  0
 18 52  1  0
 19 53  1  0
 19 54  1  0
 20 55  1  0
 20 56  1  0
 24 57  1  0
 24 58  1  0
 25 59  1  0
 25 60  1  0
 27 61  1  0
 28 62  1  0
 29 63  1  0
 30 64  1  0
 32 65  1  0
 32 66  1  0
 34 67  1  0
 34 68  1  0
M  END
>  <smiles>  (50) 
c1ccc2c(c1)CCN(c1nc(NCC3CCCCC3)nc(N3CCc4ccccc4C3)n1)C2

>  <score_type>  (50) 
oracle

>  <origin>  (50) 
autodockgpu

>  <m_score__min__energy>  (50) 
-10.220000000000001

>  <m_primary>  (50) 
energy

>  <rmsd>  (50) 
11.192118533023828

>  <m_score__min__rmsd>  (50) 
11.192118533023828

>  <meeko>  (50) 
{"free_energy": -9.42, "intermolecular_energy": -10.91, "internal_energy": -0.98, "cluster_size": 3, "cluster_id": 3, "rank_in_cluster": 2}

>  <energy>  (50) 
-9.3

>  <cluster_rmsd>  (50) 
0.27

>  <cluster>  (50) 
4

$$$$
