
     RDKit          3D

 46 49  0  0  0  0  0  0  0  0999 V2000
  139.9030   73.5900  222.3930 O   0  0  0  0  0  0  0  0  0  0  0  0
  140.4600   72.4640  222.4920 C   0  0  0  0  0  0  0  0  0  0  0  0
  141.3220   72.0530  221.4140 N   0  0  0  0  0  0  0  0  0  0  0  0
  141.5390   72.8870  220.2740 C   0  0  0  0  0  0  0  0  0  0  0  0
  142.7240   73.7510  220.3850 C   0  0  0  0  0  0  0  0  0  0  0  0
  143.7720   73.2980  220.9240 O   0  0  0  0  0  0  0  0  0  0  0  0
  142.6280   75.0770  219.8710 N   0  0  0  0  0  0  0  0  0  0  0  0
  143.6970   75.9650  219.4450 C   0  0  0  0  0  0  0  0  0  0  0  0
  143.1770   76.8380  218.3540 C   0  0  0  0  0  0  0  0  0  0  0  0
  141.6860   76.7360  218.4720 C   0  0  0  0  0  0  0  0  0  0  0  0
  141.4030   75.8370  219.6610 C   0  0  2  0  0  0  0  0  0  0  0  0
  141.1020   76.7300  220.8110 C   0  0  0  0  0  0  0  0  0  0  0  0
  140.0540   76.4710  221.6740 C   0  0  0  0  0  0  0  0  0  0  0  0
  139.7860   77.2830  222.7130 N   0  0  0  0  0  0  0  0  0  0  0  0
  140.5310   78.3900  222.9590 C   0  0  0  0  0  0  0  0  0  0  0  0
  141.5850   78.6590  222.0980 C   0  0  0  0  0  0  0  0  0  0  0  0
  141.8370   77.8350  221.0640 N   0  0  0  0  0  0  0  0  0  0  0  0
  140.2760   71.5820  223.6200 C   0  0  0  0  0  0  0  0  0  0  0  0
  139.6100   70.3840  223.4490 C   0  0  0  0  0  0  0  0  0  0  0  0
  139.4180   69.5200  224.5060 C   0  0  0  0  0  0  0  0  0  0  0  0
  139.9040   69.8650  225.7480 C   0  0  0  0  0  0  0  0  0  0  0  0
  139.7150   69.0060  226.8070 C   0  0  0  0  0  0  0  0  0  0  0  0
  140.2070   69.3700  228.0350 C   0  0  0  0  0  0  0  0  0  0  0  0
  140.0230   68.5300  229.0670 F   0  0  0  0  0  0  0  0  0  0  0  0
  140.8830   70.5720  228.2400 C   0  0  0  0  0  0  0  0  0  0  0  0
  141.0630   71.4290  227.1520 C   0  0  0  0  0  0  0  0  0  0  0  0
  140.5720   71.0800  225.8900 C   0  0  0  0  0  0  0  0  0  0  0  0
  140.7390   71.8980  224.8350 N   0  0  0  0  0  0  0  0  0  0  0  0
  141.8070   71.1290  221.4480 H   0  0  0  0  0  0  0  0  0  0  0  0
  141.6619   72.2421  219.3914 H   0  0  0  0  0  0  0  0  0  0  0  0
  140.6659   73.5512  220.1933 H   0  0  0  0  0  0  0  0  0  0  0  0
  144.0249   76.5849  220.2925 H   0  0  0  0  0  0  0  0  0  0  0  0
  144.5542   75.3782  219.0833 H   0  0  0  0  0  0  0  0  0  0  0  0
  143.5083   77.8773  218.4960 H   0  0  0  0  0  0  0  0  0  0  0  0
  143.5407   76.5307  217.3624 H   0  0  0  0  0  0  0  0  0  0  0  0
  141.2498   77.7322  218.6377 H   0  0  0  0  0  0  0  0  0  0  0  0
  141.2435   76.3262  217.5521 H   0  0  0  0  0  0  0  0  0  0  0  0
  140.5566   75.1480  219.5235 H   0  0  0  0  0  0  0  0  0  0  0  0
  139.4262   75.5831  221.5081 H   0  0  0  0  0  0  0  0  0  0  0  0
  140.3074   79.0501  223.8101 H   0  0  0  0  0  0  0  0  0  0  0  0
  142.2150   79.5460  222.2604 H   0  0  0  0  0  0  0  0  0  0  0  0
  139.2267   70.1151  222.4536 H   0  0  0  0  0  0  0  0  0  0  0  0
  138.8846   68.5692  224.3598 H   0  0  0  0  0  0  0  0  0  0  0  0
  139.1833   68.0525  226.6722 H   0  0  0  0  0  0  0  0  0  0  0  0
  141.2659   70.8393  229.2360 H   0  0  0  0  0  0  0  0  0  0  0  0
  141.5935   72.3829  227.2884 H   0  0  0  0  0  0  0  0  0  0  0  0
  1  2  2  0
  2  3  1  0
  3  4  1  0
  4  5  1  0
  5  6  2  0
  5  7  1  0
  7  8  1  0
  8  9  1  0
  9 10  1  0
 10 11  1  0
 11 12  1  0
 12 13  2  0
 13 14  1  0
 14 15  2  0
 15 16  1  0
 16 17  2  0
  2 18  1  0
 18 19  2  0
 19 20  1  0
 20 21  2  0
 21 22  1  0
 22 23  2  0
 23 24  1  0
 23 25  1  0
 25 26  2  0
 26 27  1  0
 27 28  2  0
 11  7  1  0
 17 12  1  0
 28 18  1  0
 27 21  1  0
  3 29  1  0
  4 30  1  0
  4 31  1  0
  8 32  1  0
  8 33  1  0
  9 34  1  0
  9 35  1  0
 10 36  1  0
 10 37  1  0
 11 38  1  6
 13 39  1  0
 15 40  1  0
 16 41  1  0
 19 42  1  0
 20 43  1  0
 22 44  1  0
 25 45  1  0
 26 46  1  0
M  END
>  <smiles>  (1) 
O=C(NCC(=O)N1CCCC1c1cnccn1)c1ccc2cc(F)ccc2n1

>  <score_type>  (1) 
oracle

>  <origin>  (1) 
autodockgpu

>  <m_score__min__energy>  (1) 
-8.4600000000000009

>  <m_primary>  (1) 
energy

>  <rmsd>  (1) 
2.543699412479165

>  <m_score__min__rmsd>  (1) 
2.543699412479165

>  <meeko>  (1) 
{"free_energy": -7.44, "intermolecular_energy": -8.93, "internal_energy": -1.38, "cluster_size": 38, "cluster_id": 1, "rank_in_cluster": 38}

>  <energy>  (1) 
-8.46

>  <cluster_rmsd>  (1) 
0.0

>  <cluster>  (1) 
1

$$$$

     RDKit          3D

 46 49  0  0  0  0  0  0  0  0999 V2000
  141.0830   72.3580  221.5880 O   0  0  0  0  0  0  0  0  0  0  0  0
  140.1930   72.4140  222.4780 C   0  0  0  0  0  0  0  0  0  0  0  0
  139.1790   73.4270  222.3400 N   0  0  0  0  0  0  0  0  0  0  0  0
  139.1800   74.3360  221.2380 C   0  0  0  0  0  0  0  0  0  0  0  0
  139.4600   75.7300  221.6150 C   0  0  0  0  0  0  0  0  0  0  0  0
  138.6610   76.3370  222.3820 O   0  0  0  0  0  0  0  0  0  0  0  0
  140.6380   76.3360  221.0890 N   0  0  0  0  0  0  0  0  0  0  0  0
  141.9300   75.7270  220.8220 C   0  0  0  0  0  0  0  0  0  0  0  0
  142.5520   76.4320  219.6650 C   0  0  0  0  0  0  0  0  0  0  0  0
  141.7980   77.7220  219.5630 C   0  0  0  0  0  0  0  0  0  0  0  0
  140.7930   77.7310  220.7000 C   0  0  2  0  0  0  0  0  0  0  0  0
  141.3880   78.5470  221.7910 C   0  0  0  0  0  0  0  0  0  0  0  0
  141.2870   78.1700  223.1160 C   0  0  0  0  0  0  0  0  0  0  0  0
  141.8270   78.9130  224.0990 N   0  0  0  0  0  0  0  0  0  0  0  0
  142.4960   80.0630  223.8340 C   0  0  0  0  0  0  0  0  0  0  0  0
  142.6030   80.4510  222.5060 C   0  0  0  0  0  0  0  0  0  0  0  0
  142.0550   79.6950  221.5370 N   0  0  0  0  0  0  0  0  0  0  0  0
  140.1450   71.5220  223.6130 C   0  0  0  0  0  0  0  0  0  0  0  0
  139.6000   70.2620  223.4690 C   0  0  0  0  0  0  0  0  0  0  0  0
  139.5380   69.3870  224.5320 C   0  0  0  0  0  0  0  0  0  0  0  0
  140.0330   69.7860  225.7540 C   0  0  0  0  0  0  0  0  0  0  0  0
  139.9740   68.9160  226.8210 C   0  0  0  0  0  0  0  0  0  0  0  0
  140.4730   69.3350  228.0290 C   0  0  0  0  0  0  0  0  0  0  0  0
  140.4150   68.4850  229.0670 F   0  0  0  0  0  0  0  0  0  0  0  0
  141.0290   70.6010  228.2070 C   0  0  0  0  0  0  0  0  0  0  0  0
  141.0770   71.4660  227.1120 C   0  0  0  0  0  0  0  0  0  0  0  0
  140.5770   71.0640  225.8700 C   0  0  0  0  0  0  0  0  0  0  0  0
  140.6190   71.8900  224.8090 N   0  0  0  0  0  0  0  0  0  0  0  0
  138.4190   73.5160  223.0510 H   0  0  0  0  0  0  0  0  0  0  0  0
  139.9480   74.0102  220.5211 H   0  0  0  0  0  0  0  0  0  0  0  0
  138.1672   74.3187  220.8091 H   0  0  0  0  0  0  0  0  0  0  0  0
  142.5762   75.8234  221.7069 H   0  0  0  0  0  0  0  0  0  0  0  0
  141.8040   74.6590  220.5907 H   0  0  0  0  0  0  0  0  0  0  0  0
  143.6197   76.6194  219.8520 H   0  0  0  0  0  0  0  0  0  0  0  0
  142.4993   75.8421  218.7380 H   0  0  0  0  0  0  0  0  0  0  0  0
  142.4880   78.5731  219.6603 H   0  0  0  0  0  0  0  0  0  0  0  0
  141.2943   77.8098  218.5891 H   0  0  0  0  0  0  0  0  0  0  0  0
  139.8121   78.1566  220.4418 H   0  0  0  0  0  0  0  0  0  0  0  0
  140.7538   77.2428  223.3728 H   0  0  0  0  0  0  0  0  0  0  0  0
  142.9372   80.6655  224.6417 H   0  0  0  0  0  0  0  0  0  0  0  0
  143.1361   81.3772  222.2452 H   0  0  0  0  0  0  0  0  0  0  0  0
  139.2085   69.9510  222.4892 H   0  0  0  0  0  0  0  0  0  0  0  0
  139.1001   68.3857  224.4066 H   0  0  0  0  0  0  0  0  0  0  0  0
  139.5385   67.9123  226.7076 H   0  0  0  0  0  0  0  0  0  0  0  0
  141.4207   70.9111  229.1870 H   0  0  0  0  0  0  0  0  0  0  0  0
  141.5110   72.4702  227.2274 H   0  0  0  0  0  0  0  0  0  0  0  0
  1  2  2  0
  2  3  1  0
  3  4  1  0
  4  5  1  0
  5  6  2  0
  5  7  1  0
  7  8  1  0
  8  9  1  0
  9 10  1  0
 10 11  1  0
 11 12  1  0
 12 13  2  0
 13 14  1  0
 14 15  2  0
 15 16  1  0
 16 17  2  0
  2 18  1  0
 18 19  2  0
 19 20  1  0
 20 21  2  0
 21 22  1  0
 22 23  2  0
 23 24  1  0
 23 25  1  0
 25 26  2  0
 26 27  1  0
 27 28  2  0
 11  7  1  0
 17 12  1  0
 28 18  1  0
 27 21  1  0
  3 29  1  0
  4 30  1  0
  4 31  1  0
  8 32  1  0
  8 33  1  0
  9 34  1  0
  9 35  1  0
 10 36  1  0
 10 37  1  0
 11 38  1  6
 13 39  1  0
 15 40  1  0
 16 41  1  0
 19 42  1  0
 20 43  1  0
 22 44  1  0
 25 45  1  0
 26 46  1  0
M  END
>  <smiles>  (2) 
O=C(NCC(=O)N1CCCC1c1cnccn1)c1ccc2cc(F)ccc2n1

>  <score_type>  (2) 
oracle

>  <origin>  (2) 
autodockgpu

>  <m_score__min__energy>  (2) 
-8.4600000000000009

>  <m_primary>  (2) 
energy

>  <rmsd>  (2) 
2.0129104728792226

>  <m_score__min__rmsd>  (2) 
2.0129104728792226

>  <meeko>  (2) 
{"free_energy": -8.43, "intermolecular_energy": -9.92, "internal_energy": -1.25, "cluster_size": 38, "cluster_id": 1, "rank_in_cluster": 10}

>  <energy>  (2) 
-8.46

>  <cluster_rmsd>  (2) 
0.04

>  <cluster>  (2) 
1

$$$$

     RDKit          3D

 46 49  0  0  0  0  0  0  0  0999 V2000
  137.4000   75.3370  222.3150 O   0  0  0  0  0  0  0  0  0  0  0  0
  138.6220   75.6440  222.3580 C   0  0  0  0  0  0  0  0  0  0  0  0
  139.5790   74.5880  222.1510 N   0  0  0  0  0  0  0  0  0  0  0  0
  139.1630   73.2430  221.9070 C   0  0  0  0  0  0  0  0  0  0  0  0
  139.9810   72.2320  222.5960 C   0  0  0  0  0  0  0  0  0  0  0  0
  141.2200   72.1740  222.3610 O   0  0  0  0  0  0  0  0  0  0  0  0
  139.3230   71.3570  223.5090 N   0  0  0  0  0  0  0  0  0  0  0  0
  137.9200   71.3240  223.8840 C   0  0  0  0  0  0  0  0  0  0  0  0
  137.5520   69.9150  224.2060 C   0  0  0  0  0  0  0  0  0  0  0  0
  138.8650   69.2290  224.4350 C   0  0  0  0  0  0  0  0  0  0  0  0
  139.9420   70.2850  224.2770 C   0  0  2  0  0  0  0  0  0  0  0  0
  140.3110   70.7280  225.6480 C   0  0  0  0  0  0  0  0  0  0  0  0
  139.9240   70.0170  226.7670 C   0  0  0  0  0  0  0  0  0  0  0  0
  140.2600   70.4230  228.0050 N   0  0  0  0  0  0  0  0  0  0  0  0
  140.9940   71.5460  228.2100 C   0  0  0  0  0  0  0  0  0  0  0  0
  141.3880   72.2670  227.0910 C   0  0  0  0  0  0  0  0  0  0  0  0
  141.0410   71.8450  225.8620 N   0  0  0  0  0  0  0  0  0  0  0  0
  139.0980   76.9850  222.6020 C   0  0  0  0  0  0  0  0  0  0  0  0
  138.1920   78.0210  222.7200 C   0  0  0  0  0  0  0  0  0  0  0  0
  138.6140   79.3120  222.9520 C   0  0  0  0  0  0  0  0  0  0  0  0
  139.9640   79.5630  223.0680 C   0  0  0  0  0  0  0  0  0  0  0  0
  140.3920   80.8520  223.2990 C   0  0  0  0  0  0  0  0  0  0  0  0
  141.7410   81.0780  223.4110 C   0  0  0  0  0  0  0  0  0  0  0  0
  142.1560   82.3350  223.6380 F   0  0  0  0  0  0  0  0  0  0  0  0
  142.6800   80.0540  223.2970 C   0  0  0  0  0  0  0  0  0  0  0  0
  142.2230   78.7550  223.0610 C   0  0  0  0  0  0  0  0  0  0  0  0
  140.8550   78.4970  222.9440 C   0  0  0  0  0  0  0  0  0  0  0  0
  140.4040   77.2500  222.7170 N   0  0  0  0  0  0  0  0  0  0  0  0
  140.6030   74.7890  222.1780 H   0  0  0  0  0  0  0  0  0  0  0  0
  138.1219   73.1356  222.2454 H   0  0  0  0  0  0  0  0  0  0  0  0
  139.2765   73.0643  220.8276 H   0  0  0  0  0  0  0  0  0  0  0  0
  137.7559   71.9615  224.7653 H   0  0  0  0  0  0  0  0  0  0  0  0
  137.2987   71.6973  223.0566 H   0  0  0  0  0  0  0  0  0  0  0  0
  136.9279   69.8729  225.1109 H   0  0  0  0  0  0  0  0  0  0  0  0
  136.9660   69.4414  223.4046 H   0  0  0  0  0  0  0  0  0  0  0  0
  138.8982   68.8024  225.4484 H   0  0  0  0  0  0  0  0  0  0  0  0
  139.0108   68.4052  223.7207 H   0  0  0  0  0  0  0  0  0  0  0  0
  140.8521   69.9388  223.7652 H   0  0  0  0  0  0  0  0  0  0  0  0
  139.3289   69.1001  226.6436 H   0  0  0  0  0  0  0  0  0  0  0  0
  141.2664   71.8726  229.2245 H   0  0  0  0  0  0  0  0  0  0  0  0
  141.9842   73.1838  227.2095 H   0  0  0  0  0  0  0  0  0  0  0  0
  137.1160   77.8120  222.6272 H   0  0  0  0  0  0  0  0  0  0  0  0
  137.8842   80.1300  223.0432 H   0  0  0  0  0  0  0  0  0  0  0  0
  139.6716   81.6781  223.3912 H   0  0  0  0  0  0  0  0  0  0  0  0
  143.7557   80.2638  223.3907 H   0  0  0  0  0  0  0  0  0  0  0  0
  142.9448   77.9303  222.9667 H   0  0  0  0  0  0  0  0  0  0  0  0
  1  2  2  0
  2  3  1  0
  3  4  1  0
  4  5  1  0
  5  6  2  0
  5  7  1  0
  7  8  1  0
  8  9  1  0
  9 10  1  0
 10 11  1  0
 11 12  1  0
 12 13  2  0
 13 14  1  0
 14 15  2  0
 15 16  1  0
 16 17  2  0
  2 18  1  0
 18 19  2  0
 19 20  1  0
 20 21  2  0
 21 22  1  0
 22 23  2  0
 23 24  1  0
 23 25  1  0
 25 26  2  0
 26 27  1  0
 27 28  2  0
 11  7  1  0
 17 12  1  0
 28 18  1  0
 27 21  1  0
  3 29  1  0
  4 30  1  0
  4 31  1  0
  8 32  1  0
  8 33  1  0
  9 34  1  0
  9 35  1  0
 10 36  1  0
 10 37  1  0
 11 38  1  6
 13 39  1  0
 15 40  1  0
 16 41  1  0
 19 42  1  0
 20 43  1  0
 22 44  1  0
 25 45  1  0
 26 46  1  0
M  END
>  <smiles>  (3) 
O=C(NCC(=O)N1CCCC1c1cnccn1)c1ccc2cc(F)ccc2n1

>  <score_type>  (3) 
oracle

>  <origin>  (3) 
autodockgpu

>  <m_score__min__energy>  (3) 
-8.4600000000000009

>  <m_primary>  (3) 
energy

>  <rmsd>  (3) 
8.732833426505195

>  <m_score__min__rmsd>  (3) 
8.732833426505195

>  <meeko>  (3) 
{"free_energy": -7.58, "intermolecular_energy": -9.07, "internal_energy": -1.57, "cluster_size": 8, "cluster_id": 2, "rank_in_cluster": 7}

>  <energy>  (3) 
-8.45

>  <cluster_rmsd>  (3) 
0.05

>  <cluster>  (3) 
1

$$$$

     RDKit          3D

 46 49  0  0  0  0  0  0  0  0999 V2000
  141.1860   71.9640  221.3550 O   0  0  0  0  0  0  0  0  0  0  0  0
  140.5070   72.3230  222.3540 C   0  0  0  0  0  0  0  0  0  0  0  0
  139.9140   73.6350  222.3160 N   0  0  0  0  0  0  0  0  0  0  0  0
  140.0890   74.4990  221.1910 C   0  0  0  0  0  0  0  0  0  0  0  0
  139.9020   75.9250  221.5010 C   0  0  0  0  0  0  0  0  0  0  0  0
  138.9900   76.2700  222.3050 O   0  0  0  0  0  0  0  0  0  0  0  0
  140.7720   76.8600  220.8700 N   0  0  0  0  0  0  0  0  0  0  0  0
  142.0370   76.6140  220.1990 C   0  0  0  0  0  0  0  0  0  0  0  0
  142.1970   77.6220  219.1120 C   0  0  0  0  0  0  0  0  0  0  0  0
  141.2240   78.7070  219.4620 C   0  0  0  0  0  0  0  0  0  0  0  0
  140.5670   78.2990  220.7670 C   0  0  2  0  0  0  0  0  0  0  0  0
  141.2710   79.0380  221.8490 C   0  0  0  0  0  0  0  0  0  0  0  0
  141.2850   78.5760  223.1510 C   0  0  0  0  0  0  0  0  0  0  0  0
  141.9240   79.2490  224.1260 N   0  0  0  0  0  0  0  0  0  0  0  0
  142.5820   80.4080  223.8750 C   0  0  0  0  0  0  0  0  0  0  0  0
  142.5740   80.8800  222.5700 C   0  0  0  0  0  0  0  0  0  0  0  0
  141.9290   80.1930  221.6090 N   0  0  0  0  0  0  0  0  0  0  0  0
  140.2980   71.4910  223.5160 C   0  0  0  0  0  0  0  0  0  0  0  0
  139.6460   70.2820  223.3820 C   0  0  0  0  0  0  0  0  0  0  0  0
  139.4300   69.4660  224.4710 C   0  0  0  0  0  0  0  0  0  0  0  0
  139.8790   69.8720  225.7100 C   0  0  0  0  0  0  0  0  0  0  0  0
  139.6670   69.0600  226.8020 C   0  0  0  0  0  0  0  0  0  0  0  0
  140.1220   69.4850  228.0250 C   0  0  0  0  0  0  0  0  0  0  0  0
  139.9140   68.6920  229.0890 F   0  0  0  0  0  0  0  0  0  0  0  0
  140.7830   70.7000  228.1930 C   0  0  0  0  0  0  0  0  0  0  0  0
  140.9870   71.5080  227.0710 C   0  0  0  0  0  0  0  0  0  0  0  0
  140.5340   71.0980  225.8130 C   0  0  0  0  0  0  0  0  0  0  0  0
  140.7250   71.8680  224.7270 N   0  0  0  0  0  0  0  0  0  0  0  0
  139.3420   73.9810  223.1180 H   0  0  0  0  0  0  0  0  0  0  0  0
  141.1086   74.3597  220.8023 H   0  0  0  0  0  0  0  0  0  0  0  0
  139.3168   74.2276  220.4562 H   0  0  0  0  0  0  0  0  0  0  0  0
  142.8637   76.7090  220.9184 H   0  0  0  0  0  0  0  0  0  0  0  0
  142.0498   75.5981  219.7773 H   0  0  0  0  0  0  0  0  0  0  0  0
  143.2250   78.0129  219.0921 H   0  0  0  0  0  0  0  0  0  0  0  0
  142.0091   77.1965  218.1152 H   0  0  0  0  0  0  0  0  0  0  0  0
  141.7519   79.6640  219.5863 H   0  0  0  0  0  0  0  0  0  0  0  0
  140.4757   78.8391  218.6666 H   0  0  0  0  0  0  0  0  0  0  0  0
  139.4927   78.5265  220.8308 H   0  0  0  0  0  0  0  0  0  0  0  0
  140.7633   77.6390  223.3958 H   0  0  0  0  0  0  0  0  0  0  0  0
  143.1026   80.9535  224.6759 H   0  0  0  0  0  0  0  0  0  0  0  0
  143.0951   81.8161  222.3209 H   0  0  0  0  0  0  0  0  0  0  0  0
  139.2930   69.9647  222.3897 H   0  0  0  0  0  0  0  0  0  0  0  0
  138.9073   68.5052  224.3538 H   0  0  0  0  0  0  0  0  0  0  0  0
  139.1469   68.0965  226.6967 H   0  0  0  0  0  0  0  0  0  0  0  0
  141.1361   71.0160  229.1857 H   0  0  0  0  0  0  0  0  0  0  0  0
  141.5066   72.4716  227.1780 H   0  0  0  0  0  0  0  0  0  0  0  0
  1  2  2  0
  2  3  1  0
  3  4  1  0
  4  5  1  0
  5  6  2  0
  5  7  1  0
  7  8  1  0
  8  9  1  0
  9 10  1  0
 10 11  1  0
 11 12  1  0
 12 13  2  0
 13 14  1  0
 14 15  2  0
 15 16  1  0
 16 17  2  0
  2 18  1  0
 18 19  2  0
 19 20  1  0
 20 21  2  0
 21 22  1  0
 22 23  2  0
 23 24  1  0
 23 25  1  0
 25 26  2  0
 26 27  1  0
 27 28  2  0
 11  7  1  0
 17 12  1  0
 28 18  1  0
 27 21  1  0
  3 29  1  0
  4 30  1  0
  4 31  1  0
  8 32  1  0
  8 33  1  0
  9 34  1  0
  9 35  1  0
 10 36  1  0
 10 37  1  0
 11 38  1  6
 13 39  1  0
 15 40  1  0
 16 41  1  0
 19 42  1  0
 20 43  1  0
 22 44  1  0
 25 45  1  0
 26 46  1  0
M  END
>  <smiles>  (4) 
O=C(NCC(=O)N1CCCC1c1cnccn1)c1ccc2cc(F)ccc2n1

>  <score_type>  (4) 
oracle

>  <origin>  (4) 
autodockgpu

>  <m_score__min__energy>  (4) 
-8.4600000000000009

>  <m_primary>  (4) 
energy

>  <rmsd>  (4) 
2.174948013005308

>  <m_score__min__rmsd>  (4) 
2.174948013005308

>  <meeko>  (4) 
{"free_energy": -8.32, "intermolecular_energy": -9.81, "internal_energy": -1.44, "cluster_size": 38, "cluster_id": 1, "rank_in_cluster": 24}

>  <energy>  (4) 
-8.45

>  <cluster_rmsd>  (4) 
0.04

>  <cluster>  (4) 
1

$$$$

     RDKit          3D

 46 49  0  0  0  0  0  0  0  0999 V2000
  140.9970   73.6540  220.4270 O   0  0  0  0  0  0  0  0  0  0  0  0
  140.5020   74.4890  221.2320 C   0  0  0  0  0  0  0  0  0  0  0  0
  139.4580   74.0250  222.1080 N   0  0  0  0  0  0  0  0  0  0  0  0
  138.9970   72.6740  222.0690 C   0  0  0  0  0  0  0  0  0  0  0  0
  139.9070   71.7150  222.7140 C   0  0  0  0  0  0  0  0  0  0  0  0
  141.1140   71.6650  222.3480 O   0  0  0  0  0  0  0  0  0  0  0  0
  139.3720   70.8770  223.7350 N   0  0  0  0  0  0  0  0  0  0  0  0
  137.9850   70.7000  224.1300 C   0  0  0  0  0  0  0  0  0  0  0  0
  137.8120   69.3050  224.6280 C   0  0  0  0  0  0  0  0  0  0  0  0
  139.2050   68.8370  224.9210 C   0  0  0  0  0  0  0  0  0  0  0  0
  140.1290   70.0020  224.6210 C   0  0  2  0  0  0  0  0  0  0  0  0
  140.4290   70.6570  225.9220 C   0  0  0  0  0  0  0  0  0  0  0  0
  141.2070   71.7960  225.9980 C   0  0  0  0  0  0  0  0  0  0  0  0
  141.4750   72.3830  227.1780 N   0  0  0  0  0  0  0  0  0  0  0  0
  140.9940   71.8860  228.3450 C   0  0  0  0  0  0  0  0  0  0  0  0
  140.2110   70.7410  228.2790 C   0  0  0  0  0  0  0  0  0  0  0  0
  139.9550   70.1680  227.0900 N   0  0  0  0  0  0  0  0  0  0  0  0
  140.9290   75.8660  221.3140 C   0  0  0  0  0  0  0  0  0  0  0  0
  141.7480   76.3870  220.3320 C   0  0  0  0  0  0  0  0  0  0  0  0
  142.1730   77.6970  220.3820 C   0  0  0  0  0  0  0  0  0  0  0  0
  141.7660   78.4920  221.4310 C   0  0  0  0  0  0  0  0  0  0  0  0
  142.1880   79.8020  221.4870 C   0  0  0  0  0  0  0  0  0  0  0  0
  141.7700   80.5750  222.5410 C   0  0  0  0  0  0  0  0  0  0  0  0
  142.1820   81.8520  222.5930 F   0  0  0  0  0  0  0  0  0  0  0  0
  140.9440   80.0780  223.5470 C   0  0  0  0  0  0  0  0  0  0  0  0
  140.5290   78.7460  223.4720 C   0  0  0  0  0  0  0  0  0  0  0  0
  140.9390   77.9380  222.4070 C   0  0  0  0  0  0  0  0  0  0  0  0
  140.5460   76.6540  222.3250 N   0  0  0  0  0  0  0  0  0  0  0  0
  139.0140   74.6770  222.7930 H   0  0  0  0  0  0  0  0  0  0  0  0
  138.0238   72.6252  222.5795 H   0  0  0  0  0  0  0  0  0  0  0  0
  138.9322   72.3891  221.0085 H   0  0  0  0  0  0  0  0  0  0  0  0
  137.7320   71.4135  224.9281 H   0  0  0  0  0  0  0  0  0  0  0  0
  137.3215   70.8799  223.2713 H   0  0  0  0  0  0  0  0  0  0  0  0
  137.1970   69.2910  225.5399 H   0  0  0  0  0  0  0  0  0  0  0  0
  137.2985   68.6608  223.8991 H   0  0  0  0  0  0  0  0  0  0  0  0
  139.2926   68.5463  225.9783 H   0  0  0  0  0  0  0  0  0  0  0  0
  139.4640   67.9595  224.3104 H   0  0  0  0  0  0  0  0  0  0  0  0
  141.0800   69.7220  224.1443 H   0  0  0  0  0  0  0  0  0  0  0  0
  141.6157   72.2318  225.0744 H   0  0  0  0  0  0  0  0  0  0  0  0
  141.2157   72.3714  229.3069 H   0  0  0  0  0  0  0  0  0  0  0  0
  139.7999   70.3025  229.2003 H   0  0  0  0  0  0  0  0  0  0  0  0
  142.0663   75.7462  219.4965 H   0  0  0  0  0  0  0  0  0  0  0  0
  142.8275   78.1019  219.5960 H   0  0  0  0  0  0  0  0  0  0  0  0
  142.8430   80.2177  220.7072 H   0  0  0  0  0  0  0  0  0  0  0  0
  140.6257   80.7200  224.3816 H   0  0  0  0  0  0  0  0  0  0  0  0
  139.8767   78.3310  224.2545 H   0  0  0  0  0  0  0  0  0  0  0  0
  1  2  2  0
  2  3  1  0
  3  4  1  0
  4  5  1  0
  5  6  2  0
  5  7  1  0
  7  8  1  0
  8  9  1  0
  9 10  1  0
 10 11  1  0
 11 12  1  0
 12 13  2  0
 13 14  1  0
 14 15  2  0
 15 16  1  0
 16 17  2  0
  2 18  1  0
 18 19  2  0
 19 20  1  0
 20 21  2  0
 21 22  1  0
 22 23  2  0
 23 24  1  0
 23 25  1  0
 25 26  2  0
 26 27  1  0
 27 28  2  0
 11  7  1  0
 17 12  1  0
 28 18  1  0
 27 21  1  0
  3 29  1  0
  4 30  1  0
  4 31  1  0
  8 32  1  0
  8 33  1  0
  9 34  1  0
  9 35  1  0
 10 36  1  0
 10 37  1  0
 11 38  1  6
 13 39  1  0
 15 40  1  0
 16 41  1  0
 19 42  1  0
 20 43  1  0
 22 44  1  0
 25 45  1  0
 26 46  1  0
M  END
>  <smiles>  (5) 
O=C(NCC(=O)N1CCCC1c1cnccn1)c1ccc2cc(F)ccc2n1

>  <score_type>  (5) 
oracle

>  <origin>  (5) 
autodockgpu

>  <m_score__min__energy>  (5) 
-8.4600000000000009

>  <m_primary>  (5) 
energy

>  <rmsd>  (5) 
8.878406141636125

>  <m_score__min__rmsd>  (5) 
8.878406141636125

>  <meeko>  (5) 
{"free_energy": -8.1, "intermolecular_energy": -9.59, "internal_energy": -1.38, "cluster_size": 8, "cluster_id": 2, "rank_in_cluster": 4}

>  <energy>  (5) 
-8.45

>  <cluster_rmsd>  (5) 
0.13

>  <cluster>  (5) 
1

$$$$

     RDKit          3D

 46 49  0  0  0  0  0  0  0  0999 V2000
  141.2950   72.7940  221.9840 O   0  0  0  0  0  0  0  0  0  0  0  0
  140.2540   72.5820  222.6630 C   0  0  0  0  0  0  0  0  0  0  0  0
  139.0840   73.3570  222.3410 N   0  0  0  0  0  0  0  0  0  0  0  0
  139.0990   74.3300  221.2950 C   0  0  0  0  0  0  0  0  0  0  0  0
  139.4350   75.6880  221.7490 C   0  0  0  0  0  0  0  0  0  0  0  0
  138.7170   76.2430  222.6280 O   0  0  0  0  0  0  0  0  0  0  0  0
  140.5710   76.3200  221.1660 N   0  0  0  0  0  0  0  0  0  0  0  0
  141.8620   75.7410  220.8350 C   0  0  0  0  0  0  0  0  0  0  0  0
  142.4100   76.4600  219.6490 C   0  0  0  0  0  0  0  0  0  0  0  0
  141.6230   77.7330  219.5860 C   0  0  0  0  0  0  0  0  0  0  0  0
  140.6750   77.7190  220.7710 C   0  0  2  0  0  0  0  0  0  0  0  0
  141.3060   78.5480  221.8330 C   0  0  0  0  0  0  0  0  0  0  0  0
  141.9780   79.7180  221.5350 C   0  0  0  0  0  0  0  0  0  0  0  0
  142.5470   80.4640  222.4990 N   0  0  0  0  0  0  0  0  0  0  0  0
  142.4850   80.1020  223.8060 C   0  0  0  0  0  0  0  0  0  0  0  0
  141.8120   78.9290  224.1150 C   0  0  0  0  0  0  0  0  0  0  0  0
  141.2500   78.1960  223.1360 N   0  0  0  0  0  0  0  0  0  0  0  0
  140.1830   71.6130  223.7310 C   0  0  0  0  0  0  0  0  0  0  0  0
  139.5950   70.3850  223.5000 C   0  0  0  0  0  0  0  0  0  0  0  0
  139.5110   69.4380  224.4980 C   0  0  0  0  0  0  0  0  0  0  0  0
  140.0260   69.7310  225.7420 C   0  0  0  0  0  0  0  0  0  0  0  0
  139.9440   68.7890  226.7440 C   0  0  0  0  0  0  0  0  0  0  0  0
  140.4640   69.1030  227.9750 C   0  0  0  0  0  0  0  0  0  0  0  0
  140.3840   68.1830  228.9500 F   0  0  0  0  0  0  0  0  0  0  0  0
  141.0620   70.3340  228.2390 C   0  0  0  0  0  0  0  0  0  0  0  0
  141.1330   71.2750  227.2090 C   0  0  0  0  0  0  0  0  0  0  0  0
  140.6130   70.9790  225.9450 C   0  0  0  0  0  0  0  0  0  0  0  0
  140.6750   71.8780  224.9460 N   0  0  0  0  0  0  0  0  0  0  0  0
  138.1960   73.2210  222.8730 H   0  0  0  0  0  0  0  0  0  0  0  0
  139.8428   74.0214  220.5456 H   0  0  0  0  0  0  0  0  0  0  0  0
  138.0792   74.3736  220.8849 H   0  0  0  0  0  0  0  0  0  0  0  0
  142.5487   75.8526  221.6871 H   0  0  0  0  0  0  0  0  0  0  0  0
  141.7494   74.6703  220.6092 H   0  0  0  0  0  0  0  0  0  0  0  0
  143.4812   76.6713  219.7830 H   0  0  0  0  0  0  0  0  0  0  0  0
  142.3246   75.8691  218.7251 H   0  0  0  0  0  0  0  0  0  0  0  0
  142.2977   78.5994  219.6506 H   0  0  0  0  0  0  0  0  0  0  0  0
  141.0702   77.8098  218.6381 H   0  0  0  0  0  0  0  0  0  0  0  0
  139.6732   78.1223  220.5619 H   0  0  0  0  0  0  0  0  0  0  0  0
  142.0492   80.0463  220.4875 H   0  0  0  0  0  0  0  0  0  0  0  0
  142.9511   80.7160  224.5907 H   0  0  0  0  0  0  0  0  0  0  0  0
  141.7376   78.5976  225.1612 H   0  0  0  0  0  0  0  0  0  0  0  0
  139.1872   70.1590  222.5037 H   0  0  0  0  0  0  0  0  0  0  0  0
  139.0399   68.4630  224.3043 H   0  0  0  0  0  0  0  0  0  0  0  0
  139.4742   67.8111  226.5624 H   0  0  0  0  0  0  0  0  0  0  0  0
  141.4688   70.5594  229.2358 H   0  0  0  0  0  0  0  0  0  0  0  0
  141.6002   72.2537  227.3931 H   0  0  0  0  0  0  0  0  0  0  0  0
  1  2  2  0
  2  3  1  0
  3  4  1  0
  4  5  1  0
  5  6  2  0
  5  7  1  0
  7  8  1  0
  8  9  1  0
  9 10  1  0
 10 11  1  0
 11 12  1  0
 12 13  2  0
 13 14  1  0
 14 15  2  0
 15 16  1  0
 16 17  2  0
  2 18  1  0
 18 19  2  0
 19 20  1  0
 20 21  2  0
 21 22  1  0
 22 23  2  0
 23 24  1  0
 23 25  1  0
 25 26  2  0
 26 27  1  0
 27 28  2  0
 11  7  1  0
 17 12  1  0
 28 18  1  0
 27 21  1  0
  3 29  1  0
  4 30  1  0
  4 31  1  0
  8 32  1  0
  8 33  1  0
  9 34  1  0
  9 35  1  0
 10 36  1  0
 10 37  1  0
 11 38  1  6
 13 39  1  0
 15 40  1  0
 16 41  1  0
 19 42  1  0
 20 43  1  0
 22 44  1  0
 25 45  1  0
 26 46  1  0
M  END
>  <smiles>  (6) 
O=C(NCC(=O)N1CCCC1c1cnccn1)c1ccc2cc(F)ccc2n1

>  <score_type>  (6) 
oracle

>  <origin>  (6) 
autodockgpu

>  <m_score__min__energy>  (6) 
-8.4600000000000009

>  <m_primary>  (6) 
energy

>  <rmsd>  (6) 
1.9903150427545762

>  <m_score__min__rmsd>  (6) 
1.9903150427545762

>  <meeko>  (6) 
{"free_energy": -8.41, "intermolecular_energy": -9.9, "internal_energy": -1.3, "cluster_size": 38, "cluster_id": 1, "rank_in_cluster": 15}

>  <energy>  (6) 
-8.45

>  <cluster_rmsd>  (6) 
0.51

>  <cluster>  (6) 
1

$$$$

     RDKit          3D

 46 49  0  0  0  0  0  0  0  0999 V2000
  141.1150   71.9680  221.3650 O   0  0  0  0  0  0  0  0  0  0  0  0
  140.4360   72.3190  222.3660 C   0  0  0  0  0  0  0  0  0  0  0  0
  139.8240   73.6220  222.3290 N   0  0  0  0  0  0  0  0  0  0  0  0
  139.9800   74.4870  221.2030 C   0  0  0  0  0  0  0  0  0  0  0  0
  139.8700   75.9170  221.5300 C   0  0  0  0  0  0  0  0  0  0  0  0
  138.9910   76.2980  222.3530 O   0  0  0  0  0  0  0  0  0  0  0  0
  140.7740   76.8150  220.8920 N   0  0  0  0  0  0  0  0  0  0  0  0
  142.0520   76.5230  220.2660 C   0  0  0  0  0  0  0  0  0  0  0  0
  142.2610   77.4900  219.1510 C   0  0  0  0  0  0  0  0  0  0  0  0
  141.2980   78.6020  219.4340 C   0  0  0  0  0  0  0  0  0  0  0  0
  140.5980   78.2520  220.7330 C   0  0  2  0  0  0  0  0  0  0  0  0
  141.2840   79.0160  221.8090 C   0  0  0  0  0  0  0  0  0  0  0  0
  141.9660   80.1880  221.5430 C   0  0  0  0  0  0  0  0  0  0  0  0
  142.5850   80.8750  222.5200 N   0  0  0  0  0  0  0  0  0  0  0  0
  142.5690   80.4490  223.8080 C   0  0  0  0  0  0  0  0  0  0  0  0
  141.8870   79.2720  224.0850 C   0  0  0  0  0  0  0  0  0  0  0  0
  141.2740   78.5990  223.0940 N   0  0  0  0  0  0  0  0  0  0  0  0
  140.2450   71.4860  223.5310 C   0  0  0  0  0  0  0  0  0  0  0  0
  139.5960   70.2740  223.4050 C   0  0  0  0  0  0  0  0  0  0  0  0
  139.3980   69.4570  224.4970 C   0  0  0  0  0  0  0  0  0  0  0  0
  139.8610   69.8640  225.7290 C   0  0  0  0  0  0  0  0  0  0  0  0
  139.6660   69.0520  226.8240 C   0  0  0  0  0  0  0  0  0  0  0  0
  140.1350   69.4780  228.0410 C   0  0  0  0  0  0  0  0  0  0  0  0
  139.9450   68.6840  229.1080 F   0  0  0  0  0  0  0  0  0  0  0  0
  140.7940   70.6960  228.2010 C   0  0  0  0  0  0  0  0  0  0  0  0
  140.9800   71.5040  227.0770 C   0  0  0  0  0  0  0  0  0  0  0  0
  140.5130   71.0930  225.8250 C   0  0  0  0  0  0  0  0  0  0  0  0
  140.6860   71.8640  224.7360 N   0  0  0  0  0  0  0  0  0  0  0  0
  139.2500   73.9600  223.1340 H   0  0  0  0  0  0  0  0  0  0  0  0
  140.9722   74.3076  220.7633 H   0  0  0  0  0  0  0  0  0  0  0  0
  139.1610   74.2549  220.5063 H   0  0  0  0  0  0  0  0  0  0  0  0
  142.8602   76.6275  221.0049 H   0  0  0  0  0  0  0  0  0  0  0  0
  142.0572   75.4932  219.8794 H   0  0  0  0  0  0  0  0  0  0  0  0
  143.2958   77.8629  219.1485 H   0  0  0  0  0  0  0  0  0  0  0  0
  142.0945   77.0332  218.1643 H   0  0  0  0  0  0  0  0  0  0  0  0
  141.8387   79.5542  219.5393 H   0  0  0  0  0  0  0  0  0  0  0  0
  140.5747   78.7176  218.6134 H   0  0  0  0  0  0  0  0  0  0  0  0
  139.5267   78.5006  220.7576 H   0  0  0  0  0  0  0  0  0  0  0  0
  142.0035   80.5670  220.5110 H   0  0  0  0  0  0  0  0  0  0  0  0
  143.0772   81.0148  224.6027 H   0  0  0  0  0  0  0  0  0  0  0  0
  141.8476   78.8892  225.1155 H   0  0  0  0  0  0  0  0  0  0  0  0
  139.2312   69.9554  222.4174 H   0  0  0  0  0  0  0  0  0  0  0  0
  138.8779   68.4940  224.3865 H   0  0  0  0  0  0  0  0  0  0  0  0
  139.1476   68.0868  226.7255 H   0  0  0  0  0  0  0  0  0  0  0  0
  141.1589   71.0132  229.1891 H   0  0  0  0  0  0  0  0  0  0  0  0
  141.4971   72.4697  227.1775 H   0  0  0  0  0  0  0  0  0  0  0  0
  1  2  2  0
  2  3  1  0
  3  4  1  0
  4  5  1  0
  5  6  2  0
  5  7  1  0
  7  8  1  0
  8  9  1  0
  9 10  1  0
 10 11  1  0
 11 12  1  0
 12 13  2  0
 13 14  1  0
 14 15  2  0
 15 16  1  0
 16 17  2  0
  2 18  1  0
 18 19  2  0
 19 20  1  0
 20 21  2  0
 21 22  1  0
 22 23  2  0
 23 24  1  0
 23 25  1  0
 25 26  2  0
 26 27  1  0
 27 28  2  0
 11  7  1  0
 17 12  1  0
 28 18  1  0
 27 21  1  0
  3 29  1  0
  4 30  1  0
  4 31  1  0
  8 32  1  0
  8 33  1  0
  9 34  1  0
  9 35  1  0
 10 36  1  0
 10 37  1  0
 11 38  1  6
 13 39  1  0
 15 40  1  0
 16 41  1  0
 19 42  1  0
 20 43  1  0
 22 44  1  0
 25 45  1  0
 26 46  1  0
M  END
>  <smiles>  (7) 
O=C(NCC(=O)N1CCCC1c1cnccn1)c1ccc2cc(F)ccc2n1

>  <score_type>  (7) 
oracle

>  <origin>  (7) 
autodockgpu

>  <m_score__min__energy>  (7) 
-8.4600000000000009

>  <m_primary>  (7) 
energy

>  <rmsd>  (7) 
2.087637682496585

>  <m_score__min__rmsd>  (7) 
2.087637682496585

>  <meeko>  (7) 
{"free_energy": -8.34, "intermolecular_energy": -9.83, "internal_energy": -1.45, "cluster_size": 38, "cluster_id": 1, "rank_in_cluster": 23}

>  <energy>  (7) 
-8.44

>  <cluster_rmsd>  (7) 
0.08

>  <cluster>  (7) 
1

$$$$

     RDKit          3D

 46 49  0  0  0  0  0  0  0  0999 V2000
  141.2420   72.1650  221.5390 O   0  0  0  0  0  0  0  0  0  0  0  0
  140.4050   72.3740  222.4570 C   0  0  0  0  0  0  0  0  0  0  0  0
  139.5690   73.5410  222.3380 N   0  0  0  0  0  0  0  0  0  0  0  0
  139.6840   74.4300  221.2250 C   0  0  0  0  0  0  0  0  0  0  0  0
  139.7270   75.8520  221.6000 C   0  0  0  0  0  0  0  0  0  0  0  0
  138.8940   76.2970  222.4380 O   0  0  0  0  0  0  0  0  0  0  0  0
  140.7220   76.6690  220.9900 N   0  0  0  0  0  0  0  0  0  0  0  0
  142.0210   76.2790  220.4660 C   0  0  0  0  0  0  0  0  0  0  0  0
  142.3600   77.1810  219.3290 C   0  0  0  0  0  0  0  0  0  0  0  0
  141.4450   78.3570  219.4980 C   0  0  0  0  0  0  0  0  0  0  0  0
  140.6410   78.1050  220.7590 C   0  0  2  0  0  0  0  0  0  0  0  0
  141.2970   78.8780  221.8470 C   0  0  0  0  0  0  0  0  0  0  0  0
  142.0020   80.0380  221.5870 C   0  0  0  0  0  0  0  0  0  0  0  0
  142.5940   80.7330  222.5750 N   0  0  0  0  0  0  0  0  0  0  0  0
  142.5250   80.3290  223.8690 C   0  0  0  0  0  0  0  0  0  0  0  0
  141.8180   79.1650  224.1390 C   0  0  0  0  0  0  0  0  0  0  0  0
  141.2340   78.4830  223.1380 N   0  0  0  0  0  0  0  0  0  0  0  0
  140.2460   71.5110  223.6030 C   0  0  0  0  0  0  0  0  0  0  0  0
  139.6070   70.2950  223.4600 C   0  0  0  0  0  0  0  0  0  0  0  0
  139.4400   69.4490  224.5350 C   0  0  0  0  0  0  0  0  0  0  0  0
  139.9230   69.8300  225.7670 C   0  0  0  0  0  0  0  0  0  0  0  0
  139.7590   68.9890  226.8450 C   0  0  0  0  0  0  0  0  0  0  0  0
  140.2480   69.3890  228.0630 C   0  0  0  0  0  0  0  0  0  0  0  0
  140.0880   68.5670  229.1120 F   0  0  0  0  0  0  0  0  0  0  0  0
  140.8980   70.6100  228.2400 C   0  0  0  0  0  0  0  0  0  0  0  0
  141.0530   71.4480  227.1330 C   0  0  0  0  0  0  0  0  0  0  0  0
  140.5640   71.0630  225.8810 C   0  0  0  0  0  0  0  0  0  0  0  0
  140.7080   71.8630  224.8090 N   0  0  0  0  0  0  0  0  0  0  0  0
  138.8590   73.7610  223.0720 H   0  0  0  0  0  0  0  0  0  0  0  0
  140.6091   74.1869  220.6817 H   0  0  0  0  0  0  0  0  0  0  0  0
  138.7833   74.2892  220.6094 H   0  0  0  0  0  0  0  0  0  0  0  0
  142.7827   76.3724  221.2541 H   0  0  0  0  0  0  0  0  0  0  0  0
  141.9921   75.2340  220.1237 H   0  0  0  0  0  0  0  0  0  0  0  0
  143.4125   77.4962  219.3830 H   0  0  0  0  0  0  0  0  0  0  0  0
  142.2342   76.6896  218.3529 H   0  0  0  0  0  0  0  0  0  0  0  0
  142.0313   79.2820  219.6006 H   0  0  0  0  0  0  0  0  0  0  0  0
  140.7860   78.4746  218.6251 H   0  0  0  0  0  0  0  0  0  0  0  0
  139.5867   78.4129  220.6987 H   0  0  0  0  0  0  0  0  0  0  0  0
  142.0806   80.4002  220.5513 H   0  0  0  0  0  0  0  0  0  0  0  0
  143.0105   80.9018  224.6728 H   0  0  0  0  0  0  0  0  0  0  0  0
  141.7354   78.8001  225.1734 H   0  0  0  0  0  0  0  0  0  0  0  0
  139.2253   69.9970  222.4723 H   0  0  0  0  0  0  0  0  0  0  0  0
  138.9282   68.4833  224.4107 H   0  0  0  0  0  0  0  0  0  0  0  0
  139.2489   68.0210  226.7325 H   0  0  0  0  0  0  0  0  0  0  0  0
  141.2797   70.9064  229.2281 H   0  0  0  0  0  0  0  0  0  0  0  0
  141.5626   72.4161  227.2470 H   0  0  0  0  0  0  0  0  0  0  0  0
  1  2  2  0
  2  3  1  0
  3  4  1  0
  4  5  1  0
  5  6  2  0
  5  7  1  0
  7  8  1  0
  8  9  1  0
  9 10  1  0
 10 11  1  0
 11 12  1  0
 12 13  2  0
 13 14  1  0
 14 15  2  0
 15 16  1  0
 16 17  2  0
  2 18  1  0
 18 19  2  0
 19 20  1  0
 20 21  2  0
 21 22  1  0
 22 23  2  0
 23 24  1  0
 23 25  1  0
 25 26  2  0
 26 27  1  0
 27 28  2  0
 11  7  1  0
 17 12  1  0
 28 18  1  0
 27 21  1  0
  3 29  1  0
  4 30  1  0
  4 31  1  0
  8 32  1  0
  8 33  1  0
  9 34  1  0
  9 35  1  0
 10 36  1  0
 10 37  1  0
 11 38  1  6
 13 39  1  0
 15 40  1  0
 16 41  1  0
 19 42  1  0
 20 43  1  0
 22 44  1  0
 25 45  1  0
 26 46  1  0
M  END
>  <smiles>  (8) 
O=C(NCC(=O)N1CCCC1c1cnccn1)c1ccc2cc(F)ccc2n1

>  <score_type>  (8) 
oracle

>  <origin>  (8) 
autodockgpu

>  <m_score__min__energy>  (8) 
-8.4600000000000009

>  <m_primary>  (8) 
energy

>  <rmsd>  (8) 
2.0499405336026384

>  <m_score__min__rmsd>  (8) 
2.0499405336026384

>  <meeko>  (8) 
{"free_energy": -8.46, "intermolecular_energy": -9.96, "internal_energy": -1.36, "cluster_size": 38, "cluster_id": 1, "rank_in_cluster": 1}

>  <energy>  (8) 
-8.43

>  <cluster_rmsd>  (8) 
0.66

>  <cluster>  (8) 
1

$$$$

     RDKit          3D

 46 49  0  0  0  0  0  0  0  0999 V2000
  140.9010   71.8690  221.2000 O   0  0  0  0  0  0  0  0  0  0  0  0
  140.3930   72.3120  222.2640 C   0  0  0  0  0  0  0  0  0  0  0  0
  139.9840   73.6930  222.2800 N   0  0  0  0  0  0  0  0  0  0  0  0
  140.1490   74.5320  221.1350 C   0  0  0  0  0  0  0  0  0  0  0  0
  141.5300   74.9950  220.9300 C   0  0  0  0  0  0  0  0  0  0  0  0
  142.4900   74.2270  221.2190 O   0  0  0  0  0  0  0  0  0  0  0  0
  141.7180   76.3060  220.4050 N   0  0  0  0  0  0  0  0  0  0  0  0
  142.7600   76.7860  219.5130 C   0  0  0  0  0  0  0  0  0  0  0  0
  142.1930   77.8810  218.6740 C   0  0  0  0  0  0  0  0  0  0  0  0
  140.9560   78.3090  219.4030 C   0  0  0  0  0  0  0  0  0  0  0  0
  140.8810   77.4700  220.6650 C   0  0  2  0  0  0  0  0  0  0  0  0
  141.4230   78.3070  221.7680 C   0  0  0  0  0  0  0  0  0  0  0  0
  141.3040   77.9270  223.0910 C   0  0  0  0  0  0  0  0  0  0  0  0
  141.7960   78.6890  224.0850 N   0  0  0  0  0  0  0  0  0  0  0  0
  142.4310   79.8610  223.8340 C   0  0  0  0  0  0  0  0  0  0  0  0
  142.5550   80.2510  222.5080 C   0  0  0  0  0  0  0  0  0  0  0  0
  142.0560   79.4770  221.5280 N   0  0  0  0  0  0  0  0  0  0  0  0
  140.2030   71.5100  223.4500 C   0  0  0  0  0  0  0  0  0  0  0  0
  139.4910   70.3300  223.3710 C   0  0  0  0  0  0  0  0  0  0  0  0
  139.2920   69.5420  224.4840 C   0  0  0  0  0  0  0  0  0  0  0  0
  139.8190   69.9470  225.6910 C   0  0  0  0  0  0  0  0  0  0  0  0
  139.6240   69.1640  226.8070 C   0  0  0  0  0  0  0  0  0  0  0  0
  140.1570   69.5870  227.9990 C   0  0  0  0  0  0  0  0  0  0  0  0
  139.9660   68.8220  229.0860 F   0  0  0  0  0  0  0  0  0  0  0  0
  140.8810   70.7730  228.1120 C   0  0  0  0  0  0  0  0  0  0  0  0
  141.0660   71.5510  226.9670 C   0  0  0  0  0  0  0  0  0  0  0  0
  140.5340   71.1430  225.7410 C   0  0  0  0  0  0  0  0  0  0  0  0
  140.7060   71.8850  224.6320 N   0  0  0  0  0  0  0  0  0  0  0  0
  139.5570   74.1090  223.1380 H   0  0  0  0  0  0  0  0  0  0  0  0
  139.8370   73.9674  220.2440 H   0  0  0  0  0  0  0  0  0  0  0  0
  139.5334   75.4278  221.3039 H   0  0  0  0  0  0  0  0  0  0  0  0
  143.6061   77.1694  220.1022 H   0  0  0  0  0  0  0  0  0  0  0  0
  143.1176   75.9658  218.8732 H   0  0  0  0  0  0  0  0  0  0  0  0
  142.9044   78.7159  218.5915 H   0  0  0  0  0  0  0  0  0  0  0  0
  141.9805   77.5532  217.6457 H   0  0  0  0  0  0  0  0  0  0  0  0
  141.0181   79.3766  219.6607 H   0  0  0  0  0  0  0  0  0  0  0  0
  140.0606   78.1672  218.7799 H   0  0  0  0  0  0  0  0  0  0  0  0
  139.8669   77.1448  220.9404 H   0  0  0  0  0  0  0  0  0  0  0  0
  140.7968   76.9824  223.3368 H   0  0  0  0  0  0  0  0  0  0  0  0
  142.8325   80.4790  224.6507 H   0  0  0  0  0  0  0  0  0  0  0  0
  143.0622   81.1946  222.2582 H   0  0  0  0  0  0  0  0  0  0  0  0
  139.0753   70.0132  222.4031 H   0  0  0  0  0  0  0  0  0  0  0  0
  138.7214   68.6045  224.4099 H   0  0  0  0  0  0  0  0  0  0  0  0
  139.0559   68.2241  226.7447 H   0  0  0  0  0  0  0  0  0  0  0  0
  141.2968   71.0886  229.0802 H   0  0  0  0  0  0  0  0  0  0  0  0
  141.6340   72.4908  227.0307 H   0  0  0  0  0  0  0  0  0  0  0  0
  1  2  2  0
  2  3  1  0
  3  4  1  0
  4  5  1  0
  5  6  2  0
  5  7  1  0
  7  8  1  0
  8  9  1  0
  9 10  1  0
 10 11  1  0
 11 12  1  0
 12 13  2  0
 13 14  1  0
 14 15  2  0
 15 16  1  0
 16 17  2  0
  2 18  1  0
 18 19  2  0
 19 20  1  0
 20 21  2  0
 21 22  1  0
 22 23  2  0
 23 24  1  0
 23 25  1  0
 25 26  2  0
 26 27  1  0
 27 28  2  0
 11  7  1  0
 17 12  1  0
 28 18  1  0
 27 21  1  0
  3 29  1  0
  4 30  1  0
  4 31  1  0
  8 32  1  0
  8 33  1  0
  9 34  1  0
  9 35  1  0
 10 36  1  0
 10 37  1  0
 11 38  1  1
 13 39  1  0
 15 40  1  0
 16 41  1  0
 19 42  1  0
 20 43  1  0
 22 44  1  0
 25 45  1  0
 26 46  1  0
M  END
>  <smiles>  (9) 
O=C(NCC(=O)N1CCCC1c1cnccn1)c1ccc2cc(F)ccc2n1

>  <score_type>  (9) 
oracle

>  <origin>  (9) 
autodockgpu

>  <m_score__min__energy>  (9) 
-8.4600000000000009

>  <m_primary>  (9) 
energy

>  <rmsd>  (9) 
2.1337540071545056

>  <m_score__min__rmsd>  (9) 
2.1337540071545056

>  <meeko>  (9) 
{"free_energy": -8.16, "intermolecular_energy": -9.65, "internal_energy": -1.19, "cluster_size": 38, "cluster_id": 1, "rank_in_cluster": 30}

>  <energy>  (9) 
-8.43

>  <cluster_rmsd>  (9) 
0.33

>  <cluster>  (9) 
1

$$$$

     RDKit          3D

 46 49  0  0  0  0  0  0  0  0999 V2000
  141.2000   72.9270  222.0740 O   0  0  0  0  0  0  0  0  0  0  0  0
  140.1490   72.6420  222.7080 C   0  0  0  0  0  0  0  0  0  0  0  0
  138.9470   73.3530  222.3530 N   0  0  0  0  0  0  0  0  0  0  0  0
  138.9440   74.3440  221.3240 C   0  0  0  0  0  0  0  0  0  0  0  0
  139.3610   75.6790  221.7820 C   0  0  0  0  0  0  0  0  0  0  0  0
  138.6730   76.2760  222.6560 O   0  0  0  0  0  0  0  0  0  0  0  0
  140.5380   76.2400  221.2070 N   0  0  0  0  0  0  0  0  0  0  0  0
  141.8210   75.6030  220.9630 C   0  0  0  0  0  0  0  0  0  0  0  0
  142.4370   76.2300  219.7590 C   0  0  0  0  0  0  0  0  0  0  0  0
  141.6940   77.5200  219.5870 C   0  0  0  0  0  0  0  0  0  0  0  0
  140.7020   77.6070  220.7320 C   0  0  2  0  0  0  0  0  0  0  0  0
  141.3180   78.4810  221.7660 C   0  0  0  0  0  0  0  0  0  0  0  0
  141.3050   78.1400  223.1050 C   0  0  0  0  0  0  0  0  0  0  0  0
  141.8640   78.9350  224.0350 N   0  0  0  0  0  0  0  0  0  0  0  0
  142.4650   80.1050  223.7020 C   0  0  0  0  0  0  0  0  0  0  0  0
  142.4820   80.4570  222.3590 C   0  0  0  0  0  0  0  0  0  0  0  0
  141.9180   79.6490  221.4440 N   0  0  0  0  0  0  0  0  0  0  0  0
  140.0940   71.6510  223.7560 C   0  0  0  0  0  0  0  0  0  0  0  0
  139.5300   70.4160  223.5010 C   0  0  0  0  0  0  0  0  0  0  0  0
  139.4630   69.4490  224.4800 C   0  0  0  0  0  0  0  0  0  0  0  0
  139.9710   69.7270  225.7300 C   0  0  0  0  0  0  0  0  0  0  0  0
  139.9060   68.7640  226.7130 C   0  0  0  0  0  0  0  0  0  0  0  0
  140.4180   69.0630  227.9500 C   0  0  0  0  0  0  0  0  0  0  0  0
  140.3550   68.1230  228.9070 F   0  0  0  0  0  0  0  0  0  0  0  0
  140.9940   70.2990  228.2400 C   0  0  0  0  0  0  0  0  0  0  0  0
  141.0480   71.2610  227.2280 C   0  0  0  0  0  0  0  0  0  0  0  0
  140.5350   70.9820  225.9580 C   0  0  0  0  0  0  0  0  0  0  0  0
  140.5810   71.9010  224.9770 N   0  0  0  0  0  0  0  0  0  0  0  0
  138.0490   73.1550  222.8480 H   0  0  0  0  0  0  0  0  0  0  0  0
  139.6316   74.0200  220.5288 H   0  0  0  0  0  0  0  0  0  0  0  0
  137.9059   74.4365  220.9722 H   0  0  0  0  0  0  0  0  0  0  0  0
  142.4781   75.7460  221.8335 H   0  0  0  0  0  0  0  0  0  0  0  0
  141.6818   74.5244  220.7977 H   0  0  0  0  0  0  0  0  0  0  0  0
  143.5085   76.4172  219.9231 H   0  0  0  0  0  0  0  0  0  0  0  0
  142.3684   75.5857  218.8701 H   0  0  0  0  0  0  0  0  0  0  0  0
  142.3931   78.3684  219.6257 H   0  0  0  0  0  0  0  0  0  0  0  0
  141.1806   77.5546  218.6148 H   0  0  0  0  0  0  0  0  0  0  0  0
  139.7223   78.0258  220.4584 H   0  0  0  0  0  0  0  0  0  0  0  0
  140.8278   77.1992  223.4168 H   0  0  0  0  0  0  0  0  0  0  0  0
  142.9215   80.7502  224.4670 H   0  0  0  0  0  0  0  0  0  0  0  0
  142.9572   81.3975  222.0433 H   0  0  0  0  0  0  0  0  0  0  0  0
  139.1278   70.2012  222.5000 H   0  0  0  0  0  0  0  0  0  0  0  0
  139.0105   68.4693  224.2667 H   0  0  0  0  0  0  0  0  0  0  0  0
  139.4554   67.7810  226.5112 H   0  0  0  0  0  0  0  0  0  0  0  0
  141.3963   70.5118  229.2414 H   0  0  0  0  0  0  0  0  0  0  0  0
  141.4971   72.2442  227.4321 H   0  0  0  0  0  0  0  0  0  0  0  0
  1  2  2  0
  2  3  1  0
  3  4  1  0
  4  5  1  0
  5  6  2  0
  5  7  1  0
  7  8  1  0
  8  9  1  0
  9 10  1  0
 10 11  1  0
 11 12  1  0
 12 13  2  0
 13 14  1  0
 14 15  2  0
 15 16  1  0
 16 17  2  0
  2 18  1  0
 18 19  2  0
 19 20  1  0
 20 21  2  0
 21 22  1  0
 22 23  2  0
 23 24  1  0
 23 25  1  0
 25 26  2  0
 26 27  1  0
 27 28  2  0
 11  7  1  0
 17 12  1  0
 28 18  1  0
 27 21  1  0
  3 29  1  0
  4 30  1  0
  4 31  1  0
  8 32  1  0
  8 33  1  0
  9 34  1  0
  9 35  1  0
 10 36  1  0
 10 37  1  0
 11 38  1  6
 13 39  1  0
 15 40  1  0
 16 41  1  0
 19 42  1  0
 20 43  1  0
 22 44  1  0
 25 45  1  0
 26 46  1  0
M  END
>  <smiles>  (10) 
O=C(NCC(=O)N1CCCC1c1cnccn1)c1ccc2cc(F)ccc2n1

>  <score_type>  (10) 
oracle

>  <origin>  (10) 
autodockgpu

>  <m_score__min__energy>  (10) 
-8.4600000000000009

>  <m_primary>  (10) 
energy

>  <rmsd>  (10) 
2.0154266676633243

>  <m_score__min__rmsd>  (10) 
2.0154266676633243

>  <meeko>  (10) 
{"free_energy": -8.36, "intermolecular_energy": -9.85, "internal_energy": -1.23, "cluster_size": 38, "cluster_id": 1, "rank_in_cluster": 20}

>  <energy>  (10) 
-8.43

>  <cluster_rmsd>  (10) 
0.61

>  <cluster>  (10) 
1

$$$$

     RDKit          3D

 46 49  0  0  0  0  0  0  0  0999 V2000
  138.4570   72.2660  222.5760 O   0  0  0  0  0  0  0  0  0  0  0  0
  139.4980   71.5970  222.8130 C   0  0  0  0  0  0  0  0  0  0  0  0
  140.5930   71.7230  221.8860 N   0  0  0  0  0  0  0  0  0  0  0  0
  140.5050   72.5720  220.7400 C   0  0  0  0  0  0  0  0  0  0  0  0
  140.8760   73.9710  221.0050 C   0  0  0  0  0  0  0  0  0  0  0  0
  140.3290   74.5850  221.9640 O   0  0  0  0  0  0  0  0  0  0  0  0
  141.8480   74.5720  220.1550 N   0  0  0  0  0  0  0  0  0  0  0  0
  141.6650   75.1540  218.8360 C   0  0  0  0  0  0  0  0  0  0  0  0
  142.6540   76.2570  218.6660 C   0  0  0  0  0  0  0  0  0  0  0  0
  143.6830   76.0030  219.7250 C   0  0  0  0  0  0  0  0  0  0  0  0
  143.2680   74.7310  220.4400 C   0  0  2  0  0  0  0  0  0  0  0  0
  144.0760   73.6280  219.8560 C   0  0  0  0  0  0  0  0  0  0  0  0
  145.4570   73.6400  219.9010 C   0  0  0  0  0  0  0  0  0  0  0  0
  146.1840   72.6390  219.3700 N   0  0  0  0  0  0  0  0  0  0  0  0
  145.5950   71.5760  218.7680 C   0  0  0  0  0  0  0  0  0  0  0  0
  144.2080   71.5550  218.7170 C   0  0  0  0  0  0  0  0  0  0  0  0
  143.4990   72.5650  219.2530 N   0  0  0  0  0  0  0  0  0  0  0  0
  139.6410   70.7230  223.9540 C   0  0  0  0  0  0  0  0  0  0  0  0
  139.1140   69.4480  223.9080 C   0  0  0  0  0  0  0  0  0  0  0  0
  139.2330   68.5900  224.9800 C   0  0  0  0  0  0  0  0  0  0  0  0
  139.8920   69.0210  226.1110 C   0  0  0  0  0  0  0  0  0  0  0  0
  140.0150   68.1690  227.1850 C   0  0  0  0  0  0  0  0  0  0  0  0
  140.6750   68.6190  228.3000 C   0  0  0  0  0  0  0  0  0  0  0  0
  140.7940   67.7860  229.3470 F   0  0  0  0  0  0  0  0  0  0  0  0
  141.2180   69.9010  228.3780 C   0  0  0  0  0  0  0  0  0  0  0  0
  141.0810   70.7490  227.2760 C   0  0  0  0  0  0  0  0  0  0  0  0
  140.4140   70.3140  226.1270 C   0  0  0  0  0  0  0  0  0  0  0  0
  140.2770   71.1230  225.0610 N   0  0  0  0  0  0  0  0  0  0  0  0
  141.4780   71.1890  222.0360 H   0  0  0  0  0  0  0  0  0  0  0  0
  141.1765   72.1766  219.9636 H   0  0  0  0  0  0  0  0  0  0  0  0
  139.4511   72.5752  220.4249 H   0  0  0  0  0  0  0  0  0  0  0  0
  141.8288   74.3863  218.0654 H   0  0  0  0  0  0  0  0  0  0  0  0
  140.6419   75.5452  218.7345 H   0  0  0  0  0  0  0  0  0  0  0  0
  143.1088   76.2209  217.6651 H   0  0  0  0  0  0  0  0  0  0  0  0
  142.1928   77.2512  218.7601 H   0  0  0  0  0  0  0  0  0  0  0  0
  144.6747   75.8740  219.2668 H   0  0  0  0  0  0  0  0  0  0  0  0
  143.7462   76.8483  220.4261 H   0  0  0  0  0  0  0  0  0  0  0  0
  143.4298   74.7439  221.5280 H   0  0  0  0  0  0  0  0  0  0  0  0
  145.9730   74.4848  220.3806 H   0  0  0  0  0  0  0  0  0  0  0  0
  146.1941   70.7608  218.3362 H   0  0  0  0  0  0  0  0  0  0  0  0
  143.6882   70.7121  218.2381 H   0  0  0  0  0  0  0  0  0  0  0  0
  138.5905   69.1113  223.0010 H   0  0  0  0  0  0  0  0  0  0  0  0
  138.8083   67.5763  224.9335 H   0  0  0  0  0  0  0  0  0  0  0  0
  139.5947   67.1531  227.1500 H   0  0  0  0  0  0  0  0  0  0  0  0
  141.7416   70.2366  229.2853 H   0  0  0  0  0  0  0  0  0  0  0  0
  141.5006   71.7652  227.3128 H   0  0  0  0  0  0  0  0  0  0  0  0
  1  2  2  0
  2  3  1  0
  3  4  1  0
  4  5  1  0
  5  6  2  0
  5  7  1  0
  7  8  1  0
  8  9  1  0
  9 10  1  0
 10 11  1  0
 11 12  1  0
 12 13  2  0
 13 14  1  0
 14 15  2  0
 15 16  1  0
 16 17  2  0
  2 18  1  0
 18 19  2  0
 19 20  1  0
 20 21  2  0
 21 22  1  0
 22 23  2  0
 23 24  1  0
 23 25  1  0
 25 26  2  0
 26 27  1  0
 27 28  2  0
 11  7  1  0
 17 12  1  0
 28 18  1  0
 27 21  1  0
  3 29  1  0
  4 30  1  0
  4 31  1  0
  8 32  1  0
  8 33  1  0
  9 34  1  0
  9 35  1  0
 10 36  1  0
 10 37  1  0
 11 38  1  1
 13 39  1  0
 15 40  1  0
 16 41  1  0
 19 42  1  0
 20 43  1  0
 22 44  1  0
 25 45  1  0
 26 46  1  0
M  END
>  <smiles>  (11) 
O=C(NCC(=O)N1CCCC1c1cnccn1)c1ccc2cc(F)ccc2n1

>  <score_type>  (11) 
oracle

>  <origin>  (11) 
autodockgpu

>  <m_score__min__energy>  (11) 
-8.4600000000000009

>  <m_primary>  (11) 
energy

>  <rmsd>  (11) 
3.966491503033329

>  <m_score__min__rmsd>  (11) 
3.966491503033329

>  <meeko>  (11) 
{"free_energy": -7.69, "intermolecular_energy": -9.18, "internal_energy": -1.23, "cluster_size": 4, "cluster_id": 3, "rank_in_cluster": 4}

>  <energy>  (11) 
-8.42

>  <cluster_rmsd>  (11) 
0.09

>  <cluster>  (11) 
1

$$$$

     RDKit          3D

 46 49  0  0  0  0  0  0  0  0999 V2000
  141.3640   72.1800  221.5220 O   0  0  0  0  0  0  0  0  0  0  0  0
  140.4550   72.3680  222.3740 C   0  0  0  0  0  0  0  0  0  0  0  0
  139.5730   73.4870  222.1680 N   0  0  0  0  0  0  0  0  0  0  0  0
  139.7210   74.3540  221.0420 C   0  0  0  0  0  0  0  0  0  0  0  0
  141.0150   75.0520  220.9920 C   0  0  0  0  0  0  0  0  0  0  0  0
  141.4170   75.6850  222.0080 O   0  0  0  0  0  0  0  0  0  0  0  0
  141.7630   74.9760  219.7820 N   0  0  0  0  0  0  0  0  0  0  0  0
  141.3690   74.4040  218.5050 C   0  0  0  0  0  0  0  0  0  0  0  0
  142.0520   75.1630  217.4180 C   0  0  0  0  0  0  0  0  0  0  0  0
  143.1720   75.8800  218.1090 C   0  0  0  0  0  0  0  0  0  0  0  0
  143.1170   75.4700  219.5690 C   0  0  2  0  0  0  0  0  0  0  0  0
  144.1320   74.3980  219.7500 C   0  0  0  0  0  0  0  0  0  0  0  0
  144.7020   73.7500  218.6710 C   0  0  0  0  0  0  0  0  0  0  0  0
  145.6200   72.7810  218.8420 N   0  0  0  0  0  0  0  0  0  0  0  0
  146.0270   72.3980  220.0780 C   0  0  0  0  0  0  0  0  0  0  0  0
  145.4600   73.0430  221.1680 C   0  0  0  0  0  0  0  0  0  0  0  0
  144.5440   74.0090  220.9770 N   0  0  0  0  0  0  0  0  0  0  0  0
  140.2600   71.5250  223.5300 C   0  0  0  0  0  0  0  0  0  0  0  0
  139.6090   70.3150  223.3910 C   0  0  0  0  0  0  0  0  0  0  0  0
  139.4070   69.4880  224.4750 C   0  0  0  0  0  0  0  0  0  0  0  0
  139.8680   69.8820  225.7120 C   0  0  0  0  0  0  0  0  0  0  0  0
  139.6690   69.0590  226.7990 C   0  0  0  0  0  0  0  0  0  0  0  0
  140.1360   69.4730  228.0210 C   0  0  0  0  0  0  0  0  0  0  0  0
  139.9420   68.6690  229.0790 F   0  0  0  0  0  0  0  0  0  0  0  0
  140.7970   70.6880  228.1930 C   0  0  0  0  0  0  0  0  0  0  0  0
  140.9870   71.5070  227.0780 C   0  0  0  0  0  0  0  0  0  0  0  0
  140.5220   71.1080  225.8210 C   0  0  0  0  0  0  0  0  0  0  0  0
  140.6990   71.8900  224.7400 N   0  0  0  0  0  0  0  0  0  0  0  0
  138.8030   73.6870  222.8450 H   0  0  0  0  0  0  0  0  0  0  0  0
  139.6161   73.7533  220.1265 H   0  0  0  0  0  0  0  0  0  0  0  0
  138.9444   75.1280  221.1313 H   0  0  0  0  0  0  0  0  0  0  0  0
  141.6679   73.3462  218.4638 H   0  0  0  0  0  0  0  0  0  0  0  0
  140.2777   74.4686  218.3827 H   0  0  0  0  0  0  0  0  0  0  0  0
  142.4431   74.4777  216.6515 H   0  0  0  0  0  0  0  0  0  0  0  0
  141.3713   75.8527  216.8975 H   0  0  0  0  0  0  0  0  0  0  0  0
  144.1372   75.5883  217.6694 H   0  0  0  0  0  0  0  0  0  0  0  0
  143.0710   76.9699  218.0000 H   0  0  0  0  0  0  0  0  0  0  0  0
  143.3331   76.2800  220.2812 H   0  0  0  0  0  0  0  0  0  0  0  0
  144.3993   74.0318  217.6517 H   0  0  0  0  0  0  0  0  0  0  0  0
  146.7784   71.6058  220.2113 H   0  0  0  0  0  0  0  0  0  0  0  0
  145.7599   72.7640  222.1889 H   0  0  0  0  0  0  0  0  0  0  0  0
  139.2459   70.0064  222.3996 H   0  0  0  0  0  0  0  0  0  0  0  0
  138.8852   68.5272  224.3542 H   0  0  0  0  0  0  0  0  0  0  0  0
  139.1495   68.0955  226.6900 H   0  0  0  0  0  0  0  0  0  0  0  0
  141.1608   70.9948  229.1847 H   0  0  0  0  0  0  0  0  0  0  0  0
  141.5051   72.4710  227.1891 H   0  0  0  0  0  0  0  0  0  0  0  0
  1  2  2  0
  2  3  1  0
  3  4  1  0
  4  5  1  0
  5  6  2  0
  5  7  1  0
  7  8  1  0
  8  9  1  0
  9 10  1  0
 10 11  1  0
 11 12  1  0
 12 13  2  0
 13 14  1  0
 14 15  2  0
 15 16  1  0
 16 17  2  0
  2 18  1  0
 18 19  2  0
 19 20  1  0
 20 21  2  0
 21 22  1  0
 22 23  2  0
 23 24  1  0
 23 25  1  0
 25 26  2  0
 26 27  1  0
 27 28  2  0
 11  7  1  0
 17 12  1  0
 28 18  1  0
 27 21  1  0
  3 29  1  0
  4 30  1  0
  4 31  1  0
  8 32  1  0
  8 33  1  0
  9 34  1  0
  9 35  1  0
 10 36  1  0
 10 37  1  0
 11 38  1  1
 13 39  1  0
 15 40  1  0
 16 41  1  0
 19 42  1  0
 20 43  1  0
 22 44  1  0
 25 45  1  0
 26 46  1  0
M  END
>  <smiles>  (12) 
O=C(NCC(=O)N1CCCC1c1cnccn1)c1ccc2cc(F)ccc2n1

>  <score_type>  (12) 
oracle

>  <origin>  (12) 
autodockgpu

>  <m_score__min__energy>  (12) 
-8.4600000000000009

>  <m_primary>  (12) 
energy

>  <rmsd>  (12) 
3.392538888193733

>  <m_score__min__rmsd>  (12) 
3.392538888193733

>  <meeko>  (12) 
{"free_energy": -8.15, "intermolecular_energy": -9.64, "internal_energy": -1.37, "cluster_size": 4, "cluster_id": 3, "rank_in_cluster": 1}

>  <energy>  (12) 
-8.42

>  <cluster_rmsd>  (12) 
0.44

>  <cluster>  (12) 
1

$$$$

     RDKit          3D

 46 49  0  0  0  0  0  0  0  0999 V2000
  138.1040   71.9950  222.2850 O   0  0  0  0  0  0  0  0  0  0  0  0
  139.2360   71.8080  222.8070 C   0  0  0  0  0  0  0  0  0  0  0  0
  140.3440   72.5590  222.2750 N   0  0  0  0  0  0  0  0  0  0  0  0
  140.1700   73.4800  221.1960 C   0  0  0  0  0  0  0  0  0  0  0  0
  140.2550   74.8930  221.5990 C   0  0  0  0  0  0  0  0  0  0  0  0
  139.5450   75.3070  222.5580 O   0  0  0  0  0  0  0  0  0  0  0  0
  141.1490   75.7360  220.8770 N   0  0  0  0  0  0  0  0  0  0  0  0
  142.5150   75.4660  220.4620 C   0  0  0  0  0  0  0  0  0  0  0  0
  142.7750   76.2000  219.1910 C   0  0  0  0  0  0  0  0  0  0  0  0
  141.6900   77.2330  219.1270 C   0  0  0  0  0  0  0  0  0  0  0  0
  140.8690   77.0810  220.3940 C   0  0  2  0  0  0  0  0  0  0  0  0
  141.3490   78.1210  221.3420 C   0  0  0  0  0  0  0  0  0  0  0  0
  141.3700   77.9040  222.7060 C   0  0  0  0  0  0  0  0  0  0  0  0
  141.8050   78.8490  223.5590 N   0  0  0  0  0  0  0  0  0  0  0  0
  142.2420   80.0560  223.1200 C   0  0  0  0  0  0  0  0  0  0  0  0
  142.2250   80.2840  221.7510 C   0  0  0  0  0  0  0  0  0  0  0  0
  141.7860   79.3260  220.9140 N   0  0  0  0  0  0  0  0  0  0  0  0
  139.4690   70.8910  223.8970 C   0  0  0  0  0  0  0  0  0  0  0  0
  139.0920   69.5690  223.7700 C   0  0  0  0  0  0  0  0  0  0  0  0
  139.3000   68.6680  224.7920 C   0  0  0  0  0  0  0  0  0  0  0  0
  139.8970   69.1030  225.9550 C   0  0  0  0  0  0  0  0  0  0  0  0
  140.1080   68.2080  226.9800 C   0  0  0  0  0  0  0  0  0  0  0  0
  140.7030   68.6640  228.1290 C   0  0  0  0  0  0  0  0  0  0  0  0
  140.9080   67.7890  229.1270 F   0  0  0  0  0  0  0  0  0  0  0  0
  141.0950   69.9920  228.2880 C   0  0  0  0  0  0  0  0  0  0  0  0
  140.8710   70.8830  227.2360 C   0  0  0  0  0  0  0  0  0  0  0  0
  140.2670   70.4440  226.0540 C   0  0  0  0  0  0  0  0  0  0  0  0
  140.0460   71.2940  225.0350 N   0  0  0  0  0  0  0  0  0  0  0  0
  141.3030   72.4410  222.6710 H   0  0  0  0  0  0  0  0  0  0  0  0
  140.9507   73.2862  220.4458 H   0  0  0  0  0  0  0  0  0  0  0  0
  139.1559   73.3210  220.8006 H   0  0  0  0  0  0  0  0  0  0  0  0
  143.2139   75.8095  221.2389 H   0  0  0  0  0  0  0  0  0  0  0  0
  142.6571   74.3858  220.3102 H   0  0  0  0  0  0  0  0  0  0  0  0
  143.7658   76.6773  219.2130 H   0  0  0  0  0  0  0  0  0  0  0  0
  142.7721   75.5347  218.3150 H   0  0  0  0  0  0  0  0  0  0  0  0
  142.1282   78.2407  219.0777 H   0  0  0  0  0  0  0  0  0  0  0  0
  141.0656   77.0965  218.2318 H   0  0  0  0  0  0  0  0  0  0  0  0
  139.7851   77.2082  220.2562 H   0  0  0  0  0  0  0  0  0  0  0  0
  141.0238   76.9383  223.1030 H   0  0  0  0  0  0  0  0  0  0  0  0
  142.5964   80.8248  223.8224 H   0  0  0  0  0  0  0  0  0  0  0  0
  142.5706   81.2482  221.3500 H   0  0  0  0  0  0  0  0  0  0  0  0
  138.6177   69.2291  222.8376 H   0  0  0  0  0  0  0  0  0  0  0  0
  138.9939   67.6173  224.6808 H   0  0  0  0  0  0  0  0  0  0  0  0
  139.8073   67.1546  226.8801 H   0  0  0  0  0  0  0  0  0  0  0  0
  141.5699   70.3306  229.2206 H   0  0  0  0  0  0  0  0  0  0  0  0
  141.1715   71.9362  227.3380 H   0  0  0  0  0  0  0  0  0  0  0  0
  1  2  2  0
  2  3  1  0
  3  4  1  0
  4  5  1  0
  5  6  2  0
  5  7  1  0
  7  8  1  0
  8  9  1  0
  9 10  1  0
 10 11  1  0
 11 12  1  0
 12 13  2  0
 13 14  1  0
 14 15  2  0
 15 16  1  0
 16 17  2  0
  2 18  1  0
 18 19  2  0
 19 20  1  0
 20 21  2  0
 21 22  1  0
 22 23  2  0
 23 24  1  0
 23 25  1  0
 25 26  2  0
 26 27  1  0
 27 28  2  0
 11  7  1  0
 17 12  1  0
 28 18  1  0
 27 21  1  0
  3 29  1  0
  4 30  1  0
  4 31  1  0
  8 32  1  0
  8 33  1  0
  9 34  1  0
  9 35  1  0
 10 36  1  0
 10 37  1  0
 11 38  1  6
 13 39  1  0
 15 40  1  0
 16 41  1  0
 19 42  1  0
 20 43  1  0
 22 44  1  0
 25 45  1  0
 26 46  1  0
M  END
>  <smiles>  (13) 
O=C(NCC(=O)N1CCCC1c1cnccn1)c1ccc2cc(F)ccc2n1

>  <score_type>  (13) 
oracle

>  <origin>  (13) 
autodockgpu

>  <m_score__min__energy>  (13) 
-8.4600000000000009

>  <m_primary>  (13) 
energy

>  <rmsd>  (13) 
1.9783958506853783

>  <m_score__min__rmsd>  (13) 
1.9783958506853783

>  <meeko>  (13) 
{"free_energy": -7.77, "intermolecular_energy": -9.26, "internal_energy": -1.16, "cluster_size": 38, "cluster_id": 1, "rank_in_cluster": 36}

>  <energy>  (13) 
-8.42

>  <cluster_rmsd>  (13) 
0.37

>  <cluster>  (13) 
1

$$$$

     RDKit          3D

 46 49  0  0  0  0  0  0  0  0999 V2000
  141.1030   71.8840  221.3070 O   0  0  0  0  0  0  0  0  0  0  0  0
  140.4940   72.2770  222.3380 C   0  0  0  0  0  0  0  0  0  0  0  0
  139.9760   73.6210  222.3300 N   0  0  0  0  0  0  0  0  0  0  0  0
  140.1450   74.4780  221.2000 C   0  0  0  0  0  0  0  0  0  0  0  0
  139.9300   75.9040  221.4960 C   0  0  0  0  0  0  0  0  0  0  0  0
  139.0080   76.2380  222.2920 O   0  0  0  0  0  0  0  0  0  0  0  0
  140.7860   76.8490  220.8610 N   0  0  0  0  0  0  0  0  0  0  0  0
  142.0500   76.6180  220.1830 C   0  0  0  0  0  0  0  0  0  0  0  0
  142.1940   77.6280  219.0960 C   0  0  0  0  0  0  0  0  0  0  0  0
  141.2090   78.7010  219.4500 C   0  0  0  0  0  0  0  0  0  0  0  0
  140.5640   78.2850  220.7590 C   0  0  2  0  0  0  0  0  0  0  0  0
  141.2640   79.0320  221.8370 C   0  0  0  0  0  0  0  0  0  0  0  0
  141.2750   78.5800  223.1430 C   0  0  0  0  0  0  0  0  0  0  0  0
  141.9100   79.2600  224.1150 N   0  0  0  0  0  0  0  0  0  0  0  0
  142.5680   80.4180  223.8570 C   0  0  0  0  0  0  0  0  0  0  0  0
  142.5630   80.8810  222.5490 C   0  0  0  0  0  0  0  0  0  0  0  0
  141.9220   80.1870  221.5910 N   0  0  0  0  0  0  0  0  0  0  0  0
  140.2950   71.4540  223.5070 C   0  0  0  0  0  0  0  0  0  0  0  0
  139.6480   70.2400  223.3870 C   0  0  0  0  0  0  0  0  0  0  0  0
  139.4420   69.4320  224.4830 C   0  0  0  0  0  0  0  0  0  0  0  0
  139.8940   69.8500  225.7160 C   0  0  0  0  0  0  0  0  0  0  0  0
  139.6910   69.0460  226.8160 C   0  0  0  0  0  0  0  0  0  0  0  0
  140.1490   69.4830  228.0330 C   0  0  0  0  0  0  0  0  0  0  0  0
  139.9500   68.6980  229.1050 F   0  0  0  0  0  0  0  0  0  0  0  0
  140.8050   70.7030  228.1880 C   0  0  0  0  0  0  0  0  0  0  0  0
  141.0000   71.5030  227.0590 C   0  0  0  0  0  0  0  0  0  0  0  0
  140.5440   71.0800  225.8070 C   0  0  0  0  0  0  0  0  0  0  0  0
  140.7250   71.8420  224.7140 N   0  0  0  0  0  0  0  0  0  0  0  0
  139.4630   73.9950  223.1600 H   0  0  0  0  0  0  0  0  0  0  0  0
  141.1702   74.3536  220.8211 H   0  0  0  0  0  0  0  0  0  0  0  0
  139.3838   74.1867  220.4613 H   0  0  0  0  0  0  0  0  0  0  0  0
  142.8793   76.7216  220.8982 H   0  0  0  0  0  0  0  0  0  0  0  0
  142.0713   75.6028  219.7600 H   0  0  0  0  0  0  0  0  0  0  0  0
  143.2171   78.0313  219.0727 H   0  0  0  0  0  0  0  0  0  0  0  0
  142.0079   77.2006  218.0997 H   0  0  0  0  0  0  0  0  0  0  0  0
  141.7252   79.6648  219.5710 H   0  0  0  0  0  0  0  0  0  0  0  0
  140.4551   78.8233  218.6584 H   0  0  0  0  0  0  0  0  0  0  0  0
  139.4874   78.4999  220.8283 H   0  0  0  0  0  0  0  0  0  0  0  0
  140.7535   77.6444  223.3932 H   0  0  0  0  0  0  0  0  0  0  0  0
  143.0863   80.9695  224.6552 H   0  0  0  0  0  0  0  0  0  0  0  0
  143.0835   81.8162  222.2951 H   0  0  0  0  0  0  0  0  0  0  0  0
  139.2911   69.9128  222.3993 H   0  0  0  0  0  0  0  0  0  0  0  0
  138.9244   68.4673  224.3759 H   0  0  0  0  0  0  0  0  0  0  0  0
  139.1752   68.0791  226.7210 H   0  0  0  0  0  0  0  0  0  0  0  0
  141.1611   71.0286  229.1765 H   0  0  0  0  0  0  0  0  0  0  0  0
  141.5148   72.4703  227.1559 H   0  0  0  0  0  0  0  0  0  0  0  0
  1  2  2  0
  2  3  1  0
  3  4  1  0
  4  5  1  0
  5  6  2  0
  5  7  1  0
  7  8  1  0
  8  9  1  0
  9 10  1  0
 10 11  1  0
 11 12  1  0
 12 13  2  0
 13 14  1  0
 14 15  2  0
 15 16  1  0
 16 17  2  0
  2 18  1  0
 18 19  2  0
 19 20  1  0
 20 21  2  0
 21 22  1  0
 22 23  2  0
 23 24  1  0
 23 25  1  0
 25 26  2  0
 26 27  1  0
 27 28  2  0
 11  7  1  0
 17 12  1  0
 28 18  1  0
 27 21  1  0
  3 29  1  0
  4 30  1  0
  4 31  1  0
  8 32  1  0
  8 33  1  0
  9 34  1  0
  9 35  1  0
 10 36  1  0
 10 37  1  0
 11 38  1  6
 13 39  1  0
 15 40  1  0
 16 41  1  0
 19 42  1  0
 20 43  1  0
 22 44  1  0
 25 45  1  0
 26 46  1  0
M  END
>  <smiles>  (14) 
O=C(NCC(=O)N1CCCC1c1cnccn1)c1ccc2cc(F)ccc2n1

>  <score_type>  (14) 
oracle

>  <origin>  (14) 
autodockgpu

>  <m_score__min__energy>  (14) 
-8.4600000000000009

>  <m_primary>  (14) 
energy

>  <rmsd>  (14) 
2.1697832511967006

>  <m_score__min__rmsd>  (14) 
2.1697832511967006

>  <meeko>  (14) 
{"free_energy": -8.28, "intermolecular_energy": -9.77, "internal_energy": -1.44, "cluster_size": 38, "cluster_id": 1, "rank_in_cluster": 27}

>  <energy>  (14) 
-8.42

>  <cluster_rmsd>  (14) 
0.44

>  <cluster>  (14) 
1

$$$$

     RDKit          3D

 46 49  0  0  0  0  0  0  0  0999 V2000
  141.2970   72.2120  221.3740 O   0  0  0  0  0  0  0  0  0  0  0  0
  140.5540   72.5120  222.3460 C   0  0  0  0  0  0  0  0  0  0  0  0
  139.9380   73.8130  222.3330 N   0  0  0  0  0  0  0  0  0  0  0  0
  140.1600   74.7320  221.2620 C   0  0  0  0  0  0  0  0  0  0  0  0
  139.8910   76.1350  221.6140 C   0  0  0  0  0  0  0  0  0  0  0  0
  139.0410   76.3960  222.5110 O   0  0  0  0  0  0  0  0  0  0  0  0
  140.6140   77.1450  220.9160 N   0  0  0  0  0  0  0  0  0  0  0  0
  141.8340   77.0140  220.1380 C   0  0  0  0  0  0  0  0  0  0  0  0
  141.8080   78.0290  219.0460 C   0  0  0  0  0  0  0  0  0  0  0  0
  140.7710   79.0190  219.4810 C   0  0  0  0  0  0  0  0  0  0  0  0
  140.2690   78.5570  220.8360 C   0  0  2  0  0  0  0  0  0  0  0  0
  140.9910   79.3620  221.8570 C   0  0  0  0  0  0  0  0  0  0  0  0
  140.3720   80.3930  222.5380 C   0  0  0  0  0  0  0  0  0  0  0  0
  141.0300   81.1180  223.4610 N   0  0  0  0  0  0  0  0  0  0  0  0
  142.3290   80.8690  223.7650 C   0  0  0  0  0  0  0  0  0  0  0  0
  142.9590   79.8360  223.0860 C   0  0  0  0  0  0  0  0  0  0  0  0
  142.2840   79.1230  222.1660 N   0  0  0  0  0  0  0  0  0  0  0  0
  140.2960   71.6230  223.4550 C   0  0  0  0  0  0  0  0  0  0  0  0
  139.5900   70.4560  223.2450 C   0  0  0  0  0  0  0  0  0  0  0  0
  139.3260   69.5870  224.2820 C   0  0  0  0  0  0  0  0  0  0  0  0
  139.7800   69.8980  225.5450 C   0  0  0  0  0  0  0  0  0  0  0  0
  139.5190   69.0340  226.5860 C   0  0  0  0  0  0  0  0  0  0  0  0
  139.9810   69.3640  227.8350 C   0  0  0  0  0  0  0  0  0  0  0  0
  139.7260   68.5200  228.8480 F   0  0  0  0  0  0  0  0  0  0  0  0
  140.6960   70.5350  228.0800 C   0  0  0  0  0  0  0  0  0  0  0  0
  140.9480   71.3970  227.0100 C   0  0  0  0  0  0  0  0  0  0  0  0
  140.4900   71.0840  225.7270 C   0  0  0  0  0  0  0  0  0  0  0  0
  140.7260   71.9070  224.6900 N   0  0  0  0  0  0  0  0  0  0  0  0
  139.3140   74.1110  223.1160 H   0  0  0  0  0  0  0  0  0  0  0  0
  141.2107   74.6494  220.9471 H   0  0  0  0  0  0  0  0  0  0  0  0
  139.4562   74.4637  220.4604 H   0  0  0  0  0  0  0  0  0  0  0  0
  142.7071   77.1864  220.7845 H   0  0  0  0  0  0  0  0  0  0  0  0
  141.9032   76.0023  219.7117 H   0  0  0  0  0  0  0  0  0  0  0  0
  142.7898   78.5141  218.9422 H   0  0  0  0  0  0  0  0  0  0  0  0
  141.5782   77.5846  218.0664 H   0  0  0  0  0  0  0  0  0  0  0  0
  141.2151   80.0220  219.5630 H   0  0  0  0  0  0  0  0  0  0  0  0
  139.9486   79.0765  218.7528 H   0  0  0  0  0  0  0  0  0  0  0  0
  139.1876   78.6844  220.9917 H   0  0  0  0  0  0  0  0  0  0  0  0
  139.3191   80.6259  222.3209 H   0  0  0  0  0  0  0  0  0  0  0  0
  142.8623   81.4637  224.5212 H   0  0  0  0  0  0  0  0  0  0  0  0
  144.0117   79.5996  223.3001 H   0  0  0  0  0  0  0  0  0  0  0  0
  139.2319   70.2152  222.2332 H   0  0  0  0  0  0  0  0  0  0  0  0
  138.7617   68.6597  224.1039 H   0  0  0  0  0  0  0  0  0  0  0  0
  138.9551   68.1042  226.4201 H   0  0  0  0  0  0  0  0  0  0  0  0
  141.0535   70.7748  229.0923 H   0  0  0  0  0  0  0  0  0  0  0  0
  141.5101   72.3275  227.1781 H   0  0  0  0  0  0  0  0  0  0  0  0
  1  2  2  0
  2  3  1  0
  3  4  1  0
  4  5  1  0
  5  6  2  0
  5  7  1  0
  7  8  1  0
  8  9  1  0
  9 10  1  0
 10 11  1  0
 11 12  1  0
 12 13  2  0
 13 14  1  0
 14 15  2  0
 15 16  1  0
 16 17  2  0
  2 18  1  0
 18 19  2  0
 19 20  1  0
 20 21  2  0
 21 22  1  0
 22 23  2  0
 23 24  1  0
 23 25  1  0
 25 26  2  0
 26 27  1  0
 27 28  2  0
 11  7  1  0
 17 12  1  0
 28 18  1  0
 27 21  1  0
  3 29  1  0
  4 30  1  0
  4 31  1  0
  8 32  1  0
  8 33  1  0
  9 34  1  0
  9 35  1  0
 10 36  1  0
 10 37  1  0
 11 38  1  6
 13 39  1  0
 15 40  1  0
 16 41  1  0
 19 42  1  0
 20 43  1  0
 22 44  1  0
 25 45  1  0
 26 46  1  0
M  END
>  <smiles>  (15) 
O=C(NCC(=O)N1CCCC1c1cnccn1)c1ccc2cc(F)ccc2n1

>  <score_type>  (15) 
oracle

>  <origin>  (15) 
autodockgpu

>  <m_score__min__energy>  (15) 
-8.4600000000000009

>  <m_primary>  (15) 
energy

>  <rmsd>  (15) 
2.2406786005134984

>  <m_score__min__rmsd>  (15) 
2.2406786005134984

>  <meeko>  (15) 
{"free_energy": -7.94, "intermolecular_energy": -9.43, "internal_energy": -1.49, "cluster_size": 38, "cluster_id": 1, "rank_in_cluster": 34}

>  <energy>  (15) 
-8.41

>  <cluster_rmsd>  (15) 
0.43

>  <cluster>  (15) 
1

$$$$

     RDKit          3D

 46 49  0  0  0  0  0  0  0  0999 V2000
  141.0710   71.9230  221.3140 O   0  0  0  0  0  0  0  0  0  0  0  0
  140.4480   72.3040  222.3410 C   0  0  0  0  0  0  0  0  0  0  0  0
  139.9060   73.6380  222.3300 N   0  0  0  0  0  0  0  0  0  0  0  0
  140.0680   74.5000  221.2020 C   0  0  0  0  0  0  0  0  0  0  0  0
  139.8990   75.9280  221.5130 C   0  0  0  0  0  0  0  0  0  0  0  0
  138.9930   76.2830  222.3170 O   0  0  0  0  0  0  0  0  0  0  0  0
  140.7790   76.8530  220.8810 N   0  0  0  0  0  0  0  0  0  0  0  0
  142.0520   76.5940  220.2290 C   0  0  0  0  0  0  0  0  0  0  0  0
  142.2290   77.5880  219.1320 C   0  0  0  0  0  0  0  0  0  0  0  0
  141.2540   78.6790  219.4540 C   0  0  0  0  0  0  0  0  0  0  0  0
  140.5790   78.2900  220.7560 C   0  0  2  0  0  0  0  0  0  0  0  0
  141.2710   79.0410  221.8370 C   0  0  0  0  0  0  0  0  0  0  0  0
  141.9620   80.2100  221.5800 C   0  0  0  0  0  0  0  0  0  0  0  0
  142.5860   80.8850  222.5630 N   0  0  0  0  0  0  0  0  0  0  0  0
  142.5650   80.4500  223.8480 C   0  0  0  0  0  0  0  0  0  0  0  0
  141.8750   79.2760  224.1160 C   0  0  0  0  0  0  0  0  0  0  0  0
  141.2570   78.6150  223.1200 N   0  0  0  0  0  0  0  0  0  0  0  0
  140.2560   71.4770  223.5090 C   0  0  0  0  0  0  0  0  0  0  0  0
  139.6170   70.2600  223.3860 C   0  0  0  0  0  0  0  0  0  0  0  0
  139.4170   69.4470  224.4810 C   0  0  0  0  0  0  0  0  0  0  0  0
  139.8680   69.8650  225.7140 C   0  0  0  0  0  0  0  0  0  0  0  0
  139.6710   69.0580  226.8120 C   0  0  0  0  0  0  0  0  0  0  0  0
  140.1290   69.4950  228.0300 C   0  0  0  0  0  0  0  0  0  0  0  0
  139.9370   68.7060  229.1000 F   0  0  0  0  0  0  0  0  0  0  0  0
  140.7780   70.7180  228.1870 C   0  0  0  0  0  0  0  0  0  0  0  0
  140.9650   71.5220  227.0590 C   0  0  0  0  0  0  0  0  0  0  0  0
  140.5100   71.0990  225.8070 C   0  0  0  0  0  0  0  0  0  0  0  0
  140.6850   71.8650  224.7150 N   0  0  0  0  0  0  0  0  0  0  0  0
  139.3820   74.0030  223.1560 H   0  0  0  0  0  0  0  0  0  0  0  0
  141.0792   74.3516  220.7952 H   0  0  0  0  0  0  0  0  0  0  0  0
  139.2797   74.2349  220.4821 H   0  0  0  0  0  0  0  0  0  0  0  0
  142.8700   76.6950  220.9575 H   0  0  0  0  0  0  0  0  0  0  0  0
  142.0667   75.5729  219.8202 H   0  0  0  0  0  0  0  0  0  0  0  0
  143.2580   77.9766  219.1217 H   0  0  0  0  0  0  0  0  0  0  0  0
  142.0538   77.1501  218.1383 H   0  0  0  0  0  0  0  0  0  0  0  0
  141.7821   79.6367  219.5721 H   0  0  0  0  0  0  0  0  0  0  0  0
  140.5165   78.8015  218.6471 H   0  0  0  0  0  0  0  0  0  0  0  0
  139.5046   78.5212  220.8025 H   0  0  0  0  0  0  0  0  0  0  0  0
  142.0028   80.5966  220.5510 H   0  0  0  0  0  0  0  0  0  0  0  0
  143.0757   81.0069  224.6474 H   0  0  0  0  0  0  0  0  0  0  0  0
  141.8332   78.8855  225.1435 H   0  0  0  0  0  0  0  0  0  0  0  0
  139.2614   69.9333  222.3977 H   0  0  0  0  0  0  0  0  0  0  0  0
  138.9052   68.4794  224.3721 H   0  0  0  0  0  0  0  0  0  0  0  0
  139.1601   68.0886  226.7157 H   0  0  0  0  0  0  0  0  0  0  0  0
  141.1348   71.0431  229.1754 H   0  0  0  0  0  0  0  0  0  0  0  0
  141.4729   72.4928  227.1572 H   0  0  0  0  0  0  0  0  0  0  0  0
  1  2  2  0
  2  3  1  0
  3  4  1  0
  4  5  1  0
  5  6  2  0
  5  7  1  0
  7  8  1  0
  8  9  1  0
  9 10  1  0
 10 11  1  0
 11 12  1  0
 12 13  2  0
 13 14  1  0
 14 15  2  0
 15 16  1  0
 16 17  2  0
  2 18  1  0
 18 19  2  0
 19 20  1  0
 20 21  2  0
 21 22  1  0
 22 23  2  0
 23 24  1  0
 23 25  1  0
 25 26  2  0
 26 27  1  0
 27 28  2  0
 11  7  1  0
 17 12  1  0
 28 18  1  0
 27 21  1  0
  3 29  1  0
  4 30  1  0
  4 31  1  0
  8 32  1  0
  8 33  1  0
  9 34  1  0
  9 35  1  0
 10 36  1  0
 10 37  1  0
 11 38  1  6
 13 39  1  0
 15 40  1  0
 16 41  1  0
 19 42  1  0
 20 43  1  0
 22 44  1  0
 25 45  1  0
 26 46  1  0
M  END
>  <smiles>  (16) 
O=C(NCC(=O)N1CCCC1c1cnccn1)c1ccc2cc(F)ccc2n1

>  <score_type>  (16) 
oracle

>  <origin>  (16) 
autodockgpu

>  <m_score__min__energy>  (16) 
-8.4600000000000009

>  <m_primary>  (16) 
energy

>  <rmsd>  (16) 
2.1089291443618476

>  <m_score__min__rmsd>  (16) 
2.1089291443618476

>  <meeko>  (16) 
{"free_energy": -8.31, "intermolecular_energy": -9.8, "internal_energy": -1.48, "cluster_size": 38, "cluster_id": 1, "rank_in_cluster": 25}

>  <energy>  (16) 
-8.41

>  <cluster_rmsd>  (16) 
0.4

>  <cluster>  (16) 
1

$$$$

     RDKit          3D

 46 49  0  0  0  0  0  0  0  0999 V2000
  141.3150   72.1890  221.6070 O   0  0  0  0  0  0  0  0  0  0  0  0
  140.4500   72.4030  222.4980 C   0  0  0  0  0  0  0  0  0  0  0  0
  139.6250   73.5740  222.3540 N   0  0  0  0  0  0  0  0  0  0  0  0
  139.7800   74.4630  221.2460 C   0  0  0  0  0  0  0  0  0  0  0  0
  139.7440   75.8870  221.6140 C   0  0  0  0  0  0  0  0  0  0  0  0
  138.9000   76.2850  222.4650 O   0  0  0  0  0  0  0  0  0  0  0  0
  140.6790   76.7580  220.9840 N   0  0  0  0  0  0  0  0  0  0  0  0
  141.9590   76.4320  220.3790 C   0  0  0  0  0  0  0  0  0  0  0  0
  142.2070   77.3860  219.2600 C   0  0  0  0  0  0  0  0  0  0  0  0
  141.2670   78.5230  219.5220 C   0  0  0  0  0  0  0  0  0  0  0  0
  140.5400   78.1980  220.8130 C   0  0  2  0  0  0  0  0  0  0  0  0
  141.2290   78.9530  221.8930 C   0  0  0  0  0  0  0  0  0  0  0  0
  141.9350   80.1110  221.6310 C   0  0  0  0  0  0  0  0  0  0  0  0
  142.5570   80.7890  222.6120 N   0  0  0  0  0  0  0  0  0  0  0  0
  142.5180   80.3690  223.9020 C   0  0  0  0  0  0  0  0  0  0  0  0
  141.8110   79.2060  224.1750 C   0  0  0  0  0  0  0  0  0  0  0  0
  141.1960   78.5410  223.1800 N   0  0  0  0  0  0  0  0  0  0  0  0
  140.2510   71.5400  223.6390 C   0  0  0  0  0  0  0  0  0  0  0  0
  139.5860   70.3400  223.4800 C   0  0  0  0  0  0  0  0  0  0  0  0
  139.3800   69.4950  224.5480 C   0  0  0  0  0  0  0  0  0  0  0  0
  139.8500   69.8600  225.7910 C   0  0  0  0  0  0  0  0  0  0  0  0
  139.6460   69.0190  226.8620 C   0  0  0  0  0  0  0  0  0  0  0  0
  140.1230   69.4050  228.0900 C   0  0  0  0  0  0  0  0  0  0  0  0
  139.9240   68.5830  229.1340 F   0  0  0  0  0  0  0  0  0  0  0  0
  140.7980   70.6090  228.2830 C   0  0  0  0  0  0  0  0  0  0  0  0
  140.9920   71.4470  227.1820 C   0  0  0  0  0  0  0  0  0  0  0  0
  140.5180   71.0770  225.9200 C   0  0  0  0  0  0  0  0  0  0  0  0
  140.6990   71.8770  224.8540 N   0  0  0  0  0  0  0  0  0  0  0  0
  138.8930   73.7970  223.0650 H   0  0  0  0  0  0  0  0  0  0  0  0
  140.7477   74.2536  220.7668 H   0  0  0  0  0  0  0  0  0  0  0  0
  138.9281   74.2857  220.5731 H   0  0  0  0  0  0  0  0  0  0  0  0
  142.7584   76.5232  221.1290 H   0  0  0  0  0  0  0  0  0  0  0  0
  141.9459   75.3995  219.9997 H   0  0  0  0  0  0  0  0  0  0  0  0
  143.2505   77.7339  219.2696 H   0  0  0  0  0  0  0  0  0  0  0  0
  142.0434   76.9264  218.2741 H   0  0  0  0  0  0  0  0  0  0  0  0
  141.8289   79.4625  219.6294 H   0  0  0  0  0  0  0  0  0  0  0  0
  140.5587   78.6509  218.6901 H   0  0  0  0  0  0  0  0  0  0  0  0
  139.4746   78.4715  220.8206 H   0  0  0  0  0  0  0  0  0  0  0  0
  141.9896   80.4865  220.5985 H   0  0  0  0  0  0  0  0  0  0  0  0
  143.0271   80.9287  224.7005 H   0  0  0  0  0  0  0  0  0  0  0  0
  141.7535   78.8275  225.2062 H   0  0  0  0  0  0  0  0  0  0  0  0
  139.2150   70.0546  222.4846 H   0  0  0  0  0  0  0  0  0  0  0  0
  138.8478   68.5422  224.4107 H   0  0  0  0  0  0  0  0  0  0  0  0
  139.1152   68.0637  226.7370 H   0  0  0  0  0  0  0  0  0  0  0  0
  141.1693   70.8928  229.2788 H   0  0  0  0  0  0  0  0  0  0  0  0
  141.5207   72.4032  227.3089 H   0  0  0  0  0  0  0  0  0  0  0  0
  1  2  2  0
  2  3  1  0
  3  4  1  0
  4  5  1  0
  5  6  2  0
  5  7  1  0
  7  8  1  0
  8  9  1  0
  9 10  1  0
 10 11  1  0
 11 12  1  0
 12 13  2  0
 13 14  1  0
 14 15  2  0
 15 16  1  0
 16 17  2  0
  2 18  1  0
 18 19  2  0
 19 20  1  0
 20 21  2  0
 21 22  1  0
 22 23  2  0
 23 24  1  0
 23 25  1  0
 25 26  2  0
 26 27  1  0
 27 28  2  0
 11  7  1  0
 17 12  1  0
 28 18  1  0
 27 21  1  0
  3 29  1  0
  4 30  1  0
  4 31  1  0
  8 32  1  0
  8 33  1  0
  9 34  1  0
  9 35  1  0
 10 36  1  0
 10 37  1  0
 11 38  1  6
 13 39  1  0
 15 40  1  0
 16 41  1  0
 19 42  1  0
 20 43  1  0
 22 44  1  0
 25 45  1  0
 26 46  1  0
M  END
>  <smiles>  (17) 
O=C(NCC(=O)N1CCCC1c1cnccn1)c1ccc2cc(F)ccc2n1

>  <score_type>  (17) 
oracle

>  <origin>  (17) 
autodockgpu

>  <m_score__min__energy>  (17) 
-8.4600000000000009

>  <m_primary>  (17) 
energy

>  <rmsd>  (17) 
2.0806472993444745

>  <m_score__min__rmsd>  (17) 
2.0806472993444745

>  <meeko>  (17) 
{"free_energy": -8.41, "intermolecular_energy": -9.9, "internal_energy": -1.38, "cluster_size": 38, "cluster_id": 1, "rank_in_cluster": 17}

>  <energy>  (17) 
-8.41

>  <cluster_rmsd>  (17) 
0.11

>  <cluster>  (17) 
1

$$$$

     RDKit          3D

 46 49  0  0  0  0  0  0  0  0999 V2000
  141.1500   72.1060  221.4770 O   0  0  0  0  0  0  0  0  0  0  0  0
  140.3570   72.3570  222.4230 C   0  0  0  0  0  0  0  0  0  0  0  0
  139.5680   73.5580  222.3260 N   0  0  0  0  0  0  0  0  0  0  0  0
  139.6780   74.4330  221.2030 C   0  0  0  0  0  0  0  0  0  0  0  0
  139.7210   75.8600  221.5610 C   0  0  0  0  0  0  0  0  0  0  0  0
  138.8730   76.3190  222.3760 O   0  0  0  0  0  0  0  0  0  0  0  0
  140.7330   76.6640  220.9610 N   0  0  0  0  0  0  0  0  0  0  0  0
  142.0350   76.2600  220.4600 C   0  0  0  0  0  0  0  0  0  0  0  0
  142.4000   77.1530  219.3230 C   0  0  0  0  0  0  0  0  0  0  0  0
  141.4930   78.3370  219.4710 C   0  0  0  0  0  0  0  0  0  0  0  0
  140.6670   78.1000  220.7210 C   0  0  2  0  0  0  0  0  0  0  0  0
  141.3130   78.8740  221.8140 C   0  0  0  0  0  0  0  0  0  0  0  0
  142.0050   80.0430  221.5630 C   0  0  0  0  0  0  0  0  0  0  0  0
  142.5880   80.7390  222.5560 N   0  0  0  0  0  0  0  0  0  0  0  0
  142.5220   80.3250  223.8470 C   0  0  0  0  0  0  0  0  0  0  0  0
  141.8300   79.1520  224.1090 C   0  0  0  0  0  0  0  0  0  0  0  0
  141.2540   78.4690  223.1030 N   0  0  0  0  0  0  0  0  0  0  0  0
  140.2050   71.5080  223.5820 C   0  0  0  0  0  0  0  0  0  0  0  0
  139.5610   70.2930  223.4590 C   0  0  0  0  0  0  0  0  0  0  0  0
  139.4000   69.4610  224.5450 C   0  0  0  0  0  0  0  0  0  0  0  0
  139.8940   69.8560  225.7690 C   0  0  0  0  0  0  0  0  0  0  0  0
  139.7350   69.0280  226.8590 C   0  0  0  0  0  0  0  0  0  0  0  0
  140.2350   69.4430  228.0680 C   0  0  0  0  0  0  0  0  0  0  0  0
  140.0800   68.6340  229.1290 F   0  0  0  0  0  0  0  0  0  0  0  0
  140.8890   70.6640  228.2240 C   0  0  0  0  0  0  0  0  0  0  0  0
  141.0380   71.4880  227.1060 C   0  0  0  0  0  0  0  0  0  0  0  0
  140.5390   71.0880  225.8630 C   0  0  0  0  0  0  0  0  0  0  0  0
  140.6760   71.8740  224.7790 N   0  0  0  0  0  0  0  0  0  0  0  0
  138.8960   73.8120  223.0840 H   0  0  0  0  0  0  0  0  0  0  0  0
  140.6013   74.1843  220.6593 H   0  0  0  0  0  0  0  0  0  0  0  0
  138.7753   74.2840  220.5924 H   0  0  0  0  0  0  0  0  0  0  0  0
  142.7852   76.3510  221.2594 H   0  0  0  0  0  0  0  0  0  0  0  0
  142.0020   75.2134  220.1229 H   0  0  0  0  0  0  0  0  0  0  0  0
  143.4542   77.4595  219.3920 H   0  0  0  0  0  0  0  0  0  0  0  0
  142.2856   76.6572  218.3478 H   0  0  0  0  0  0  0  0  0  0  0  0
  142.0857   79.2576  219.5772 H   0  0  0  0  0  0  0  0  0  0  0  0
  140.8485   78.4545  218.5873 H   0  0  0  0  0  0  0  0  0  0  0  0
  139.6164   78.4165  220.6434 H   0  0  0  0  0  0  0  0  0  0  0  0
  142.0810   80.4125  220.5297 H   0  0  0  0  0  0  0  0  0  0  0  0
  142.9995   80.8984  224.6552 H   0  0  0  0  0  0  0  0  0  0  0  0
  141.7519   78.7794  225.1410 H   0  0  0  0  0  0  0  0  0  0  0  0
  139.1702   69.9844  222.4781 H   0  0  0  0  0  0  0  0  0  0  0  0
  138.8845   68.4953  224.4366 H   0  0  0  0  0  0  0  0  0  0  0  0
  139.2211   68.0602  226.7627 H   0  0  0  0  0  0  0  0  0  0  0  0
  141.2790   70.9717  229.2054 H   0  0  0  0  0  0  0  0  0  0  0  0
  141.5505   72.4564  227.2042 H   0  0  0  0  0  0  0  0  0  0  0  0
  1  2  2  0
  2  3  1  0
  3  4  1  0
  4  5  1  0
  5  6  2  0
  5  7  1  0
  7  8  1  0
  8  9  1  0
  9 10  1  0
 10 11  1  0
 11 12  1  0
 12 13  2  0
 13 14  1  0
 14 15  2  0
 15 16  1  0
 16 17  2  0
  2 18  1  0
 18 19  2  0
 19 20  1  0
 20 21  2  0
 21 22  1  0
 22 23  2  0
 23 24  1  0
 23 25  1  0
 25 26  2  0
 26 27  1  0
 27 28  2  0
 11  7  1  0
 17 12  1  0
 28 18  1  0
 27 21  1  0
  3 29  1  0
  4 30  1  0
  4 31  1  0
  8 32  1  0
  8 33  1  0
  9 34  1  0
  9 35  1  0
 10 36  1  0
 10 37  1  0
 11 38  1  6
 13 39  1  0
 15 40  1  0
 16 41  1  0
 19 42  1  0
 20 43  1  0
 22 44  1  0
 25 45  1  0
 26 46  1  0
M  END
>  <smiles>  (18) 
O=C(NCC(=O)N1CCCC1c1cnccn1)c1ccc2cc(F)ccc2n1

>  <score_type>  (18) 
oracle

>  <origin>  (18) 
autodockgpu

>  <m_score__min__energy>  (18) 
-8.4600000000000009

>  <m_primary>  (18) 
energy

>  <rmsd>  (18) 
2.0410864155564092

>  <m_score__min__rmsd>  (18) 
2.0410864155564092

>  <meeko>  (18) 
{"free_energy": -8.45, "intermolecular_energy": -9.95, "internal_energy": -1.37, "cluster_size": 38, "cluster_id": 1, "rank_in_cluster": 3}

>  <energy>  (18) 
-8.4

>  <cluster_rmsd>  (18) 
0.67

>  <cluster>  (18) 
1

$$$$

     RDKit          3D

 46 49  0  0  0  0  0  0  0  0999 V2000
  141.3030   72.6060  221.8890 O   0  0  0  0  0  0  0  0  0  0  0  0
  140.2900   72.5140  222.6340 C   0  0  0  0  0  0  0  0  0  0  0  0
  139.1820   73.3920  222.3570 N   0  0  0  0  0  0  0  0  0  0  0  0
  139.2260   74.3310  221.2810 C   0  0  0  0  0  0  0  0  0  0  0  0
  139.4950   75.7130  221.7080 C   0  0  0  0  0  0  0  0  0  0  0  0
  138.7470   76.2510  222.5720 O   0  0  0  0  0  0  0  0  0  0  0  0
  140.6030   76.3860  221.1160 N   0  0  0  0  0  0  0  0  0  0  0  0
  141.8960   75.8440  220.7350 C   0  0  0  0  0  0  0  0  0  0  0  0
  142.3990   76.6100  219.5590 C   0  0  0  0  0  0  0  0  0  0  0  0
  141.5850   77.8680  219.5560 C   0  0  0  0  0  0  0  0  0  0  0  0
  140.6690   77.7980  220.7630 C   0  0  2  0  0  0  0  0  0  0  0  0
  141.3100   78.6070  221.8340 C   0  0  0  0  0  0  0  0  0  0  0  0
  141.9820   79.7810  221.5510 C   0  0  0  0  0  0  0  0  0  0  0  0
  142.5600   80.5080  222.5230 N   0  0  0  0  0  0  0  0  0  0  0  0
  142.5080   80.1240  223.8240 C   0  0  0  0  0  0  0  0  0  0  0  0
  141.8350   78.9470  224.1180 C   0  0  0  0  0  0  0  0  0  0  0  0
  141.2640   78.2330  223.1310 N   0  0  0  0  0  0  0  0  0  0  0  0
  140.1920   71.5840  223.7340 C   0  0  0  0  0  0  0  0  0  0  0  0
  139.5890   70.3580  223.5400 C   0  0  0  0  0  0  0  0  0  0  0  0
  139.4780   69.4480  224.5700 C   0  0  0  0  0  0  0  0  0  0  0  0
  139.9830   69.7780  225.8090 C   0  0  0  0  0  0  0  0  0  0  0  0
  139.8760   68.8730  226.8420 C   0  0  0  0  0  0  0  0  0  0  0  0
  140.3850   69.2230  228.0670 C   0  0  0  0  0  0  0  0  0  0  0  0
  140.2800   68.3390  229.0730 F   0  0  0  0  0  0  0  0  0  0  0  0
  141.0000   70.4530  228.2950 C   0  0  0  0  0  0  0  0  0  0  0  0
  141.0970   71.3550  227.2330 C   0  0  0  0  0  0  0  0  0  0  0  0
  140.5870   71.0230  225.9750 C   0  0  0  0  0  0  0  0  0  0  0  0
  140.6740   71.8850  224.9450 N   0  0  0  0  0  0  0  0  0  0  0  0
  138.3190   73.3560  222.9440 H   0  0  0  0  0  0  0  0  0  0  0  0
  140.0195   74.0228  220.5843 H   0  0  0  0  0  0  0  0  0  0  0  0
  138.2302   74.3287  220.8136 H   0  0  0  0  0  0  0  0  0  0  0  0
  142.6020   75.9433  221.5727 H   0  0  0  0  0  0  0  0  0  0  0  0
  141.7987   74.7787  220.4788 H   0  0  0  0  0  0  0  0  0  0  0  0
  143.4688   76.8392  219.6727 H   0  0  0  0  0  0  0  0  0  0  0  0
  142.3020   76.0462  218.6195 H   0  0  0  0  0  0  0  0  0  0  0  0
  142.2437   78.7458  219.6305 H   0  0  0  0  0  0  0  0  0  0  0  0
  141.0063   77.9623  218.6253 H   0  0  0  0  0  0  0  0  0  0  0  0
  139.6543   78.1868  220.5922 H   0  0  0  0  0  0  0  0  0  0  0  0
  142.0452   80.1277  220.5090 H   0  0  0  0  0  0  0  0  0  0  0  0
  142.9816   80.7235  224.6154 H   0  0  0  0  0  0  0  0  0  0  0  0
  141.7682   78.5973  225.1588 H   0  0  0  0  0  0  0  0  0  0  0  0
  139.1903   70.1024  222.5472 H   0  0  0  0  0  0  0  0  0  0  0  0
  138.9940   68.4740  224.4053 H   0  0  0  0  0  0  0  0  0  0  0  0
  139.3952   67.8956  226.6887 H   0  0  0  0  0  0  0  0  0  0  0  0
  141.3995   70.7072  229.2879 H   0  0  0  0  0  0  0  0  0  0  0  0
  141.5776   72.3323  227.3877 H   0  0  0  0  0  0  0  0  0  0  0  0
  1  2  2  0
  2  3  1  0
  3  4  1  0
  4  5  1  0
  5  6  2  0
  5  7  1  0
  7  8  1  0
  8  9  1  0
  9 10  1  0
 10 11  1  0
 11 12  1  0
 12 13  2  0
 13 14  1  0
 14 15  2  0
 15 16  1  0
 16 17  2  0
  2 18  1  0
 18 19  2  0
 19 20  1  0
 20 21  2  0
 21 22  1  0
 22 23  2  0
 23 24  1  0
 23 25  1  0
 25 26  2  0
 26 27  1  0
 27 28  2  0
 11  7  1  0
 17 12  1  0
 28 18  1  0
 27 21  1  0
  3 29  1  0
  4 30  1  0
  4 31  1  0
  8 32  1  0
  8 33  1  0
  9 34  1  0
  9 35  1  0
 10 36  1  0
 10 37  1  0
 11 38  1  6
 13 39  1  0
 15 40  1  0
 16 41  1  0
 19 42  1  0
 20 43  1  0
 22 44  1  0
 25 45  1  0
 26 46  1  0
M  END
>  <smiles>  (19) 
O=C(NCC(=O)N1CCCC1c1cnccn1)c1ccc2cc(F)ccc2n1

>  <score_type>  (19) 
oracle

>  <origin>  (19) 
autodockgpu

>  <m_score__min__energy>  (19) 
-8.4600000000000009

>  <m_primary>  (19) 
energy

>  <rmsd>  (19) 
1.9911820955878043

>  <m_score__min__rmsd>  (19) 
1.9911820955878043

>  <meeko>  (19) 
{"free_energy": -8.43, "intermolecular_energy": -9.92, "internal_energy": -1.3, "cluster_size": 38, "cluster_id": 1, "rank_in_cluster": 9}

>  <energy>  (19) 
-8.39

>  <cluster_rmsd>  (19) 
0.39

>  <cluster>  (19) 
1

$$$$

     RDKit          3D

 46 49  0  0  0  0  0  0  0  0999 V2000
  141.1790   72.0260  221.5010 O   0  0  0  0  0  0  0  0  0  0  0  0
  140.3880   72.3000  222.4420 C   0  0  0  0  0  0  0  0  0  0  0  0
  139.6250   73.5170  222.3350 N   0  0  0  0  0  0  0  0  0  0  0  0
  139.7590   74.3830  221.2060 C   0  0  0  0  0  0  0  0  0  0  0  0
  139.7750   75.8130  221.5510 C   0  0  0  0  0  0  0  0  0  0  0  0
  138.9110   76.2660  222.3530 O   0  0  0  0  0  0  0  0  0  0  0  0
  140.7800   76.6280  220.9550 N   0  0  0  0  0  0  0  0  0  0  0  0
  142.0890   76.2380  220.4580 C   0  0  0  0  0  0  0  0  0  0  0  0
  142.4480   77.1340  219.3220 C   0  0  0  0  0  0  0  0  0  0  0  0
  141.5280   78.3090  219.4670 C   0  0  0  0  0  0  0  0  0  0  0  0
  140.7010   78.0630  220.7140 C   0  0  2  0  0  0  0  0  0  0  0  0
  141.3350   78.8440  221.8100 C   0  0  0  0  0  0  0  0  0  0  0  0
  142.0250   80.0140  221.5590 C   0  0  0  0  0  0  0  0  0  0  0  0
  142.5970   80.7160  222.5540 N   0  0  0  0  0  0  0  0  0  0  0  0
  142.5220   80.3080  223.8460 C   0  0  0  0  0  0  0  0  0  0  0  0
  141.8310   79.1330  224.1070 C   0  0  0  0  0  0  0  0  0  0  0  0
  141.2660   78.4450  223.0990 N   0  0  0  0  0  0  0  0  0  0  0  0
  140.2120   71.4620  223.6050 C   0  0  0  0  0  0  0  0  0  0  0  0
  139.5670   70.2480  223.4820 C   0  0  0  0  0  0  0  0  0  0  0  0
  139.3830   69.4260  224.5720 C   0  0  0  0  0  0  0  0  0  0  0  0
  139.8570   69.8300  225.8010 C   0  0  0  0  0  0  0  0  0  0  0  0
  139.6770   69.0130  226.8950 C   0  0  0  0  0  0  0  0  0  0  0  0
  140.1570   69.4360  228.1090 C   0  0  0  0  0  0  0  0  0  0  0  0
  139.9810   68.6370  229.1740 F   0  0  0  0  0  0  0  0  0  0  0  0
  140.8130   70.6560  228.2660 C   0  0  0  0  0  0  0  0  0  0  0  0
  140.9840   71.4690  227.1430 C   0  0  0  0  0  0  0  0  0  0  0  0
  140.5050   71.0610  225.8950 C   0  0  0  0  0  0  0  0  0  0  0  0
  140.6640   71.8370  224.8080 N   0  0  0  0  0  0  0  0  0  0  0  0
  138.9550   73.7900  223.0880 H   0  0  0  0  0  0  0  0  0  0  0  0
  140.7010   74.1399  220.6927 H   0  0  0  0  0  0  0  0  0  0  0  0
  138.8770   74.2176  220.5699 H   0  0  0  0  0  0  0  0  0  0  0  0
  142.8355   76.3376  221.2598 H   0  0  0  0  0  0  0  0  0  0  0  0
  142.0685   75.1910  220.1212 H   0  0  0  0  0  0  0  0  0  0  0  0
  143.4987   77.4514  219.3939 H   0  0  0  0  0  0  0  0  0  0  0  0
  142.3416   76.6367  218.3466 H   0  0  0  0  0  0  0  0  0  0  0  0
  142.1107   79.2357  219.5751 H   0  0  0  0  0  0  0  0  0  0  0  0
  140.8852   78.4202  218.5813 H   0  0  0  0  0  0  0  0  0  0  0  0
  139.6475   78.3686  220.6321 H   0  0  0  0  0  0  0  0  0  0  0  0
  142.1085   80.3791  220.5247 H   0  0  0  0  0  0  0  0  0  0  0  0
  142.9910   80.8865  224.6556 H   0  0  0  0  0  0  0  0  0  0  0  0
  141.7453   78.7640  225.1397 H   0  0  0  0  0  0  0  0  0  0  0  0
  139.1936   69.9315  222.4969 H   0  0  0  0  0  0  0  0  0  0  0  0
  138.8654   68.4615  224.4628 H   0  0  0  0  0  0  0  0  0  0  0  0
  139.1616   68.0460  226.7981 H   0  0  0  0  0  0  0  0  0  0  0  0
  141.1873   70.9711  229.2512 H   0  0  0  0  0  0  0  0  0  0  0  0
  141.4987   72.4361  227.2415 H   0  0  0  0  0  0  0  0  0  0  0  0
  1  2  2  0
  2  3  1  0
  3  4  1  0
  4  5  1  0
  5  6  2  0
  5  7  1  0
  7  8  1  0
  8  9  1  0
  9 10  1  0
 10 11  1  0
 11 12  1  0
 12 13  2  0
 13 14  1  0
 14 15  2  0
 15 16  1  0
 16 17  2  0
  2 18  1  0
 18 19  2  0
 19 20  1  0
 20 21  2  0
 21 22  1  0
 22 23  2  0
 23 24  1  0
 23 25  1  0
 25 26  2  0
 26 27  1  0
 27 28  2  0
 11  7  1  0
 17 12  1  0
 28 18  1  0
 27 21  1  0
  3 29  1  0
  4 30  1  0
  4 31  1  0
  8 32  1  0
  8 33  1  0
  9 34  1  0
  9 35  1  0
 10 36  1  0
 10 37  1  0
 11 38  1  6
 13 39  1  0
 15 40  1  0
 16 41  1  0
 19 42  1  0
 20 43  1  0
 22 44  1  0
 25 45  1  0
 26 46  1  0
M  END
>  <smiles>  (20) 
O=C(NCC(=O)N1CCCC1c1cnccn1)c1ccc2cc(F)ccc2n1

>  <score_type>  (20) 
oracle

>  <origin>  (20) 
autodockgpu

>  <m_score__min__energy>  (20) 
-8.4600000000000009

>  <m_primary>  (20) 
energy

>  <rmsd>  (20) 
2.0478305603102367

>  <m_score__min__rmsd>  (20) 
2.0478305603102367

>  <meeko>  (20) 
{"free_energy": -8.44, "intermolecular_energy": -9.93, "internal_energy": -1.38, "cluster_size": 38, "cluster_id": 1, "rank_in_cluster": 7}

>  <energy>  (20) 
-8.36

>  <cluster_rmsd>  (20) 
0.71

>  <cluster>  (20) 
1

$$$$

     RDKit          3D

 46 49  0  0  0  0  0  0  0  0999 V2000
  141.2840   72.7460  221.9520 O   0  0  0  0  0  0  0  0  0  0  0  0
  140.2460   72.5650  222.6430 C   0  0  0  0  0  0  0  0  0  0  0  0
  139.0920   73.3660  222.3280 N   0  0  0  0  0  0  0  0  0  0  0  0
  139.1190   74.3320  221.2760 C   0  0  0  0  0  0  0  0  0  0  0  0
  139.4480   75.6940  221.7250 C   0  0  0  0  0  0  0  0  0  0  0  0
  138.7330   76.2430  222.6110 O   0  0  0  0  0  0  0  0  0  0  0  0
  140.5720   76.3350  221.1310 N   0  0  0  0  0  0  0  0  0  0  0  0
  141.8620   75.7650  220.7810 C   0  0  0  0  0  0  0  0  0  0  0  0
  142.3910   76.4930  219.5920 C   0  0  0  0  0  0  0  0  0  0  0  0
  141.5960   77.7620  219.5460 C   0  0  0  0  0  0  0  0  0  0  0  0
  140.6640   77.7360  220.7420 C   0  0  2  0  0  0  0  0  0  0  0  0
  141.3030   78.5640  221.8000 C   0  0  0  0  0  0  0  0  0  0  0  0
  141.9900   79.7230  221.4960 C   0  0  0  0  0  0  0  0  0  0  0  0
  142.5660   80.4680  222.4570 N   0  0  0  0  0  0  0  0  0  0  0  0
  142.4980   80.1150  223.7660 C   0  0  0  0  0  0  0  0  0  0  0  0
  141.8100   78.9520  224.0810 C   0  0  0  0  0  0  0  0  0  0  0  0
  141.2410   78.2200  223.1050 N   0  0  0  0  0  0  0  0  0  0  0  0
  140.1630   71.6040  223.7180 C   0  0  0  0  0  0  0  0  0  0  0  0
  139.5890   70.3690  223.4870 C   0  0  0  0  0  0  0  0  0  0  0  0
  139.4940   69.4300  224.4910 C   0  0  0  0  0  0  0  0  0  0  0  0
  139.9830   69.7380  225.7420 C   0  0  0  0  0  0  0  0  0  0  0  0
  139.8900   68.8040  226.7500 C   0  0  0  0  0  0  0  0  0  0  0  0
  140.3840   69.1330  227.9880 C   0  0  0  0  0  0  0  0  0  0  0  0
  140.2930   68.2200  228.9690 F   0  0  0  0  0  0  0  0  0  0  0  0
  140.9680   70.3700  228.2520 C   0  0  0  0  0  0  0  0  0  0  0  0
  141.0500   71.3030  227.2150 C   0  0  0  0  0  0  0  0  0  0  0  0
  140.5560   70.9930  225.9450 C   0  0  0  0  0  0  0  0  0  0  0  0
  140.6300   71.8830  224.9400 N   0  0  0  0  0  0  0  0  0  0  0  0
  138.2060   73.2540  222.8710 H   0  0  0  0  0  0  0  0  0  0  0  0
  139.8723   74.0193  220.5380 H   0  0  0  0  0  0  0  0  0  0  0  0
  138.1043   74.3718  220.8532 H   0  0  0  0  0  0  0  0  0  0  0  0
  142.5586   75.8762  221.6250 H   0  0  0  0  0  0  0  0  0  0  0  0
  141.7526   74.6948  220.5512 H   0  0  0  0  0  0  0  0  0  0  0  0
  143.4626   76.7095  219.7135 H   0  0  0  0  0  0  0  0  0  0  0  0
  142.2973   75.9065  218.6661 H   0  0  0  0  0  0  0  0  0  0  0  0
  142.2666   78.6319  219.6068 H   0  0  0  0  0  0  0  0  0  0  0  0
  141.0308   77.8409  218.6056 H   0  0  0  0  0  0  0  0  0  0  0  0
  139.6572   78.1341  220.5475 H   0  0  0  0  0  0  0  0  0  0  0  0
  142.0679   80.0436  220.4466 H   0  0  0  0  0  0  0  0  0  0  0  0
  142.9706   80.7279  224.5476 H   0  0  0  0  0  0  0  0  0  0  0  0
  141.7294   78.6279  225.1291 H   0  0  0  0  0  0  0  0  0  0  0  0
  139.2015   70.1313  222.4853 H   0  0  0  0  0  0  0  0  0  0  0  0
  139.0348   68.4495  224.2968 H   0  0  0  0  0  0  0  0  0  0  0  0
  139.4321   67.8206  226.5680 H   0  0  0  0  0  0  0  0  0  0  0  0
  141.3557   70.6068  229.2538 H   0  0  0  0  0  0  0  0  0  0  0  0
  141.5059   72.2869  227.3993 H   0  0  0  0  0  0  0  0  0  0  0  0
  1  2  2  0
  2  3  1  0
  3  4  1  0
  4  5  1  0
  5  6  2  0
  5  7  1  0
  7  8  1  0
  8  9  1  0
  9 10  1  0
 10 11  1  0
 11 12  1  0
 12 13  2  0
 13 14  1  0
 14 15  2  0
 15 16  1  0
 16 17  2  0
  2 18  1  0
 18 19  2  0
 19 20  1  0
 20 21  2  0
 21 22  1  0
 22 23  2  0
 23 24  1  0
 23 25  1  0
 25 26  2  0
 26 27  1  0
 27 28  2  0
 11  7  1  0
 17 12  1  0
 28 18  1  0
 27 21  1  0
  3 29  1  0
  4 30  1  0
  4 31  1  0
  8 32  1  0
  8 33  1  0
  9 34  1  0
  9 35  1  0
 10 36  1  0
 10 37  1  0
 11 38  1  6
 13 39  1  0
 15 40  1  0
 16 41  1  0
 19 42  1  0
 20 43  1  0
 22 44  1  0
 25 45  1  0
 26 46  1  0
M  END
>  <smiles>  (21) 
O=C(NCC(=O)N1CCCC1c1cnccn1)c1ccc2cc(F)ccc2n1

>  <score_type>  (21) 
oracle

>  <origin>  (21) 
autodockgpu

>  <m_score__min__energy>  (21) 
-8.4600000000000009

>  <m_primary>  (21) 
energy

>  <rmsd>  (21) 
1.971802667421977

>  <m_score__min__rmsd>  (21) 
1.971802667421977

>  <meeko>  (21) 
{"free_energy": -8.41, "intermolecular_energy": -9.9, "internal_energy": -1.3, "cluster_size": 38, "cluster_id": 1, "rank_in_cluster": 16}

>  <energy>  (21) 
-8.36

>  <cluster_rmsd>  (21) 
0.54

>  <cluster>  (21) 
1

$$$$

     RDKit          3D

 46 49  0  0  0  0  0  0  0  0999 V2000
  140.9520   72.4040  221.6170 O   0  0  0  0  0  0  0  0  0  0  0  0
  140.0480   72.3780  222.4950 C   0  0  0  0  0  0  0  0  0  0  0  0
  138.9530   73.3010  222.3460 N   0  0  0  0  0  0  0  0  0  0  0  0
  138.8900   74.2120  221.2480 C   0  0  0  0  0  0  0  0  0  0  0  0
  139.2590   75.5930  221.5970 C   0  0  0  0  0  0  0  0  0  0  0  0
  138.4500   76.3010  222.2590 O   0  0  0  0  0  0  0  0  0  0  0  0
  140.5310   76.0680  221.1640 N   0  0  0  0  0  0  0  0  0  0  0  0
  141.7980   75.3580  221.1190 C   0  0  0  0  0  0  0  0  0  0  0  0
  142.6000   75.9010  219.9850 C   0  0  0  0  0  0  0  0  0  0  0  0
  141.9580   77.2170  219.6680 C   0  0  0  0  0  0  0  0  0  0  0  0
  140.8310   77.4040  220.6660 C   0  0  2  0  0  0  0  0  0  0  0  0
  141.3520   78.2910  221.7400 C   0  0  0  0  0  0  0  0  0  0  0  0
  141.8650   79.5430  221.4590 C   0  0  0  0  0  0  0  0  0  0  0  0
  142.3360   80.3410  222.4350 N   0  0  0  0  0  0  0  0  0  0  0  0
  142.3280   79.9540  223.7350 C   0  0  0  0  0  0  0  0  0  0  0  0
  141.8140   78.6980  224.0270 C   0  0  0  0  0  0  0  0  0  0  0  0
  141.3490   77.9140  223.0370 N   0  0  0  0  0  0  0  0  0  0  0  0
  140.0610   71.4800  223.6250 C   0  0  0  0  0  0  0  0  0  0  0  0
  139.5710   70.1970  223.4840 C   0  0  0  0  0  0  0  0  0  0  0  0
  139.5690   69.3150  224.5430 C   0  0  0  0  0  0  0  0  0  0  0  0
  140.0680   69.7300  225.7590 C   0  0  0  0  0  0  0  0  0  0  0  0
  140.0680   68.8540  226.8210 C   0  0  0  0  0  0  0  0  0  0  0  0
  140.5700   69.2890  228.0220 C   0  0  0  0  0  0  0  0  0  0  0  0
  140.5700   68.4320  229.0570 F   0  0  0  0  0  0  0  0  0  0  0  0
  141.0720   70.5770  228.1970 C   0  0  0  0  0  0  0  0  0  0  0  0
  141.0610   71.4500  227.1060 C   0  0  0  0  0  0  0  0  0  0  0  0
  140.5560   71.0310  225.8710 C   0  0  0  0  0  0  0  0  0  0  0  0
  140.5400   71.8630  224.8140 N   0  0  0  0  0  0  0  0  0  0  0  0
  138.1780   73.3200  223.0470 H   0  0  0  0  0  0  0  0  0  0  0  0
  139.5758   73.8578  220.4643 H   0  0  0  0  0  0  0  0  0  0  0  0
  137.8425   74.2364  220.9131 H   0  0  0  0  0  0  0  0  0  0  0  0
  142.3415   75.5071  222.0637 H   0  0  0  0  0  0  0  0  0  0  0  0
  141.6237   74.2811  220.9780 H   0  0  0  0  0  0  0  0  0  0  0  0
  143.6493   76.0421  220.2833 H   0  0  0  0  0  0  0  0  0  0  0  0
  142.6131   75.2226  219.1192 H   0  0  0  0  0  0  0  0  0  0  0  0
  142.6916   78.0305  219.7679 H   0  0  0  0  0  0  0  0  0  0  0  0
  141.5789   77.2337  218.6355 H   0  0  0  0  0  0  0  0  0  0  0  0
  139.9205   77.8594  220.2493 H   0  0  0  0  0  0  0  0  0  0  0  0
  141.8889   79.8943  220.4169 H   0  0  0  0  0  0  0  0  0  0  0  0
  142.7144   80.6109  224.5282 H   0  0  0  0  0  0  0  0  0  0  0  0
  141.7868   78.3435  225.0679 H   0  0  0  0  0  0  0  0  0  0  0  0
  139.1755   69.8733  222.5099 H   0  0  0  0  0  0  0  0  0  0  0  0
  139.1752   68.2953  224.4197 H   0  0  0  0  0  0  0  0  0  0  0  0
  139.6759   67.8323  226.7099 H   0  0  0  0  0  0  0  0  0  0  0  0
  141.4678   70.8991  229.1715 H   0  0  0  0  0  0  0  0  0  0  0  0
  141.4516   72.4721  227.2191 H   0  0  0  0  0  0  0  0  0  0  0  0
  1  2  2  0
  2  3  1  0
  3  4  1  0
  4  5  1  0
  5  6  2  0
  5  7  1  0
  7  8  1  0
  8  9  1  0
  9 10  1  0
 10 11  1  0
 11 12  1  0
 12 13  2  0
 13 14  1  0
 14 15  2  0
 15 16  1  0
 16 17  2  0
  2 18  1  0
 18 19  2  0
 19 20  1  0
 20 21  2  0
 21 22  1  0
 22 23  2  0
 23 24  1  0
 23 25  1  0
 25 26  2  0
 26 27  1  0
 27 28  2  0
 11  7  1  0
 17 12  1  0
 28 18  1  0
 27 21  1  0
  3 29  1  0
  4 30  1  0
  4 31  1  0
  8 32  1  0
  8 33  1  0
  9 34  1  0
  9 35  1  0
 10 36  1  0
 10 37  1  0
 11 38  1  6
 13 39  1  0
 15 40  1  0
 16 41  1  0
 19 42  1  0
 20 43  1  0
 22 44  1  0
 25 45  1  0
 26 46  1  0
M  END
>  <smiles>  (22) 
O=C(NCC(=O)N1CCCC1c1cnccn1)c1ccc2cc(F)ccc2n1

>  <score_type>  (22) 
oracle

>  <origin>  (22) 
autodockgpu

>  <m_score__min__energy>  (22) 
-8.4600000000000009

>  <m_primary>  (22) 
energy

>  <rmsd>  (22) 
1.966084657277902

>  <m_score__min__rmsd>  (22) 
1.966084657277902

>  <meeko>  (22) 
{"free_energy": -8.28, "intermolecular_energy": -9.77, "internal_energy": -1.34, "cluster_size": 38, "cluster_id": 1, "rank_in_cluster": 28}

>  <energy>  (22) 
-8.35

>  <cluster_rmsd>  (22) 
0.2

>  <cluster>  (22) 
1

$$$$

     RDKit          3D

 46 49  0  0  0  0  0  0  0  0999 V2000
  141.1790   72.0030  221.3780 O   0  0  0  0  0  0  0  0  0  0  0  0
  140.4700   72.3380  222.3650 C   0  0  0  0  0  0  0  0  0  0  0  0
  139.8360   73.6310  222.3170 N   0  0  0  0  0  0  0  0  0  0  0  0
  140.0040   74.5010  221.1960 C   0  0  0  0  0  0  0  0  0  0  0  0
  139.8790   75.9290  221.5270 C   0  0  0  0  0  0  0  0  0  0  0  0
  138.9920   76.2990  222.3470 O   0  0  0  0  0  0  0  0  0  0  0  0
  140.7790   76.8370  220.8980 N   0  0  0  0  0  0  0  0  0  0  0  0
  142.0540   76.5560  220.2600 C   0  0  0  0  0  0  0  0  0  0  0  0
  142.2560   77.5400  219.1580 C   0  0  0  0  0  0  0  0  0  0  0  0
  141.2930   78.6470  219.4640 C   0  0  0  0  0  0  0  0  0  0  0  0
  140.6010   78.2770  220.7620 C   0  0  2  0  0  0  0  0  0  0  0  0
  141.2930   79.0250  221.8450 C   0  0  0  0  0  0  0  0  0  0  0  0
  141.3150   78.5620  223.1460 C   0  0  0  0  0  0  0  0  0  0  0  0
  141.9420   79.2430  224.1220 N   0  0  0  0  0  0  0  0  0  0  0  0
  142.5820   80.4140  223.8720 C   0  0  0  0  0  0  0  0  0  0  0  0
  142.5650   80.8880  222.5680 C   0  0  0  0  0  0  0  0  0  0  0  0
  141.9320   80.1920  221.6060 N   0  0  0  0  0  0  0  0  0  0  0  0
  140.2670   71.4990  223.5220 C   0  0  0  0  0  0  0  0  0  0  0  0
  139.6080   70.2940  223.3850 C   0  0  0  0  0  0  0  0  0  0  0  0
  139.3980   69.4710  224.4700 C   0  0  0  0  0  0  0  0  0  0  0  0
  139.8590   69.8650  225.7070 C   0  0  0  0  0  0  0  0  0  0  0  0
  139.6520   69.0470  226.7950 C   0  0  0  0  0  0  0  0  0  0  0  0
  140.1200   69.4600  228.0180 C   0  0  0  0  0  0  0  0  0  0  0  0
  139.9180   68.6600  229.0770 F   0  0  0  0  0  0  0  0  0  0  0  0
  140.7890   70.6710  228.1890 C   0  0  0  0  0  0  0  0  0  0  0  0
  140.9870   71.4860  227.0710 C   0  0  0  0  0  0  0  0  0  0  0  0
  140.5210   71.0870  225.8150 C   0  0  0  0  0  0  0  0  0  0  0  0
  140.7060   71.8640  224.7320 N   0  0  0  0  0  0  0  0  0  0  0  0
  139.2390   73.9570  223.1080 H   0  0  0  0  0  0  0  0  0  0  0  0
  141.0042   74.3299  220.7714 H   0  0  0  0  0  0  0  0  0  0  0  0
  139.1982   74.2658  220.4851 H   0  0  0  0  0  0  0  0  0  0  0  0
  142.8663   76.6503  220.9957 H   0  0  0  0  0  0  0  0  0  0  0  0
  142.0578   75.5322  219.8578 H   0  0  0  0  0  0  0  0  0  0  0  0
  143.2905   77.9140  219.1551 H   0  0  0  0  0  0  0  0  0  0  0  0
  142.0845   77.0982  218.1653 H   0  0  0  0  0  0  0  0  0  0  0  0
  141.8333   79.5981  219.5803 H   0  0  0  0  0  0  0  0  0  0  0  0
  140.5645   78.7738  218.6496 H   0  0  0  0  0  0  0  0  0  0  0  0
  139.5298   78.5245  220.7970 H   0  0  0  0  0  0  0  0  0  0  0  0
  140.8090   77.6161  223.3893 H   0  0  0  0  0  0  0  0  0  0  0  0
  143.0948   80.9663  224.6732 H   0  0  0  0  0  0  0  0  0  0  0  0
  143.0695   81.8336  222.3205 H   0  0  0  0  0  0  0  0  0  0  0  0
  139.2446   69.9857  222.3936 H   0  0  0  0  0  0  0  0  0  0  0  0
  138.8700   68.5135  224.3502 H   0  0  0  0  0  0  0  0  0  0  0  0
  139.1253   68.0873  226.6872 H   0  0  0  0  0  0  0  0  0  0  0  0
  141.1526   70.9780  229.1807 H   0  0  0  0  0  0  0  0  0  0  0  0
  141.5122   72.4463  227.1800 H   0  0  0  0  0  0  0  0  0  0  0  0
  1  2  2  0
  2  3  1  0
  3  4  1  0
  4  5  1  0
  5  6  2  0
  5  7  1  0
  7  8  1  0
  8  9  1  0
  9 10  1  0
 10 11  1  0
 11 12  1  0
 12 13  2  0
 13 14  1  0
 14 15  2  0
 15 16  1  0
 16 17  2  0
  2 18  1  0
 18 19  2  0
 19 20  1  0
 20 21  2  0
 21 22  1  0
 22 23  2  0
 23 24  1  0
 23 25  1  0
 25 26  2  0
 26 27  1  0
 27 28  2  0
 11  7  1  0
 17 12  1  0
 28 18  1  0
 27 21  1  0
  3 29  1  0
  4 30  1  0
  4 31  1  0
  8 32  1  0
  8 33  1  0
  9 34  1  0
  9 35  1  0
 10 36  1  0
 10 37  1  0
 11 38  1  6
 13 39  1  0
 15 40  1  0
 16 41  1  0
 19 42  1  0
 20 43  1  0
 22 44  1  0
 25 45  1  0
 26 46  1  0
M  END
>  <smiles>  (23) 
O=C(NCC(=O)N1CCCC1c1cnccn1)c1ccc2cc(F)ccc2n1

>  <score_type>  (23) 
oracle

>  <origin>  (23) 
autodockgpu

>  <m_score__min__energy>  (23) 
-8.4600000000000009

>  <m_primary>  (23) 
energy

>  <rmsd>  (23) 
2.164472217355965

>  <m_score__min__rmsd>  (23) 
2.164472217355965

>  <meeko>  (23) 
{"free_energy": -8.36, "intermolecular_energy": -9.85, "internal_energy": -1.4, "cluster_size": 38, "cluster_id": 1, "rank_in_cluster": 21}

>  <energy>  (23) 
-8.34

>  <cluster_rmsd>  (23) 
0.2

>  <cluster>  (23) 
1

$$$$

     RDKit          3D

 46 49  0  0  0  0  0  0  0  0999 V2000
  138.5550   72.0100  221.8100 O   0  0  0  0  0  0  0  0  0  0  0  0
  139.5490   71.9910  222.5840 C   0  0  0  0  0  0  0  0  0  0  0  0
  140.6280   72.9010  222.3000 N   0  0  0  0  0  0  0  0  0  0  0  0
  140.5780   73.7910  221.1830 C   0  0  0  0  0  0  0  0  0  0  0  0
  140.3580   75.1980  221.5520 C   0  0  0  0  0  0  0  0  0  0  0  0
  139.5560   75.4740  222.4880 O   0  0  0  0  0  0  0  0  0  0  0  0
  141.0710   76.1940  220.8250 N   0  0  0  0  0  0  0  0  0  0  0  0
  142.3450   76.0770  220.1360 C   0  0  0  0  0  0  0  0  0  0  0  0
  142.3370   77.0070  218.9700 C   0  0  0  0  0  0  0  0  0  0  0  0
  141.2230   77.9660  219.2640 C   0  0  0  0  0  0  0  0  0  0  0  0
  140.6580   77.5750  220.6170 C   0  0  2  0  0  0  0  0  0  0  0  0
  141.2680   78.4920  221.6160 C   0  0  0  0  0  0  0  0  0  0  0  0
  141.8370   79.6950  221.2440 C   0  0  0  0  0  0  0  0  0  0  0  0
  142.3880   80.5200  222.1530 N   0  0  0  0  0  0  0  0  0  0  0  0
  142.4090   80.2100  223.4730 C   0  0  0  0  0  0  0  0  0  0  0  0
  141.8400   79.0030  223.8570 C   0  0  0  0  0  0  0  0  0  0  0  0
  141.2950   78.1910  222.9330 N   0  0  0  0  0  0  0  0  0  0  0  0
  139.6520   71.1130  223.7260 C   0  0  0  0  0  0  0  0  0  0  0  0
  139.1290   69.8380  223.6570 C   0  0  0  0  0  0  0  0  0  0  0  0
  139.2110   68.9760  224.7290 C   0  0  0  0  0  0  0  0  0  0  0  0
  139.8300   69.4020  225.8830 C   0  0  0  0  0  0  0  0  0  0  0  0
  139.9150   68.5460  226.9580 C   0  0  0  0  0  0  0  0  0  0  0  0
  140.5360   68.9920  228.0980 C   0  0  0  0  0  0  0  0  0  0  0  0
  140.6190   68.1550  229.1440 F   0  0  0  0  0  0  0  0  0  0  0  0
  141.0750   70.2740  228.1990 C   0  0  0  0  0  0  0  0  0  0  0  0
  140.9760   71.1270  227.0970 C   0  0  0  0  0  0  0  0  0  0  0  0
  140.3500   70.6960  225.9240 C   0  0  0  0  0  0  0  0  0  0  0  0
  140.2480   71.5090  224.8570 N   0  0  0  0  0  0  0  0  0  0  0  0
  141.4750   72.9250  222.9110 H   0  0  0  0  0  0  0  0  0  0  0  0
  141.5324   73.7202  220.6406 H   0  0  0  0  0  0  0  0  0  0  0  0
  139.7193   73.4839  220.5679 H   0  0  0  0  0  0  0  0  0  0  0  0
  143.1633   76.3460  220.8201 H   0  0  0  0  0  0  0  0  0  0  0  0
  142.4957   75.0427  219.7933 H   0  0  0  0  0  0  0  0  0  0  0  0
  143.2968   77.5384  218.8897 H   0  0  0  0  0  0  0  0  0  0  0  0
  142.1948   76.4800  218.0150 H   0  0  0  0  0  0  0  0  0  0  0  0
  141.6080   78.9959  219.2970 H   0  0  0  0  0  0  0  0  0  0  0  0
  140.4483   77.9242  218.4842 H   0  0  0  0  0  0  0  0  0  0  0  0
  139.5635   77.6508  220.6960 H   0  0  0  0  0  0  0  0  0  0  0  0
  141.8396   79.9842  220.1827 H   0  0  0  0  0  0  0  0  0  0  0  0
  142.8598   80.8891  224.2117 H   0  0  0  0  0  0  0  0  0  0  0  0
  141.8348   78.7105  224.9174 H   0  0  0  0  0  0  0  0  0  0  0  0
  138.6384   69.5041  222.7308 H   0  0  0  0  0  0  0  0  0  0  0  0
  138.7882   67.9626  224.6639 H   0  0  0  0  0  0  0  0  0  0  0  0
  139.4959   67.5304  226.9046 H   0  0  0  0  0  0  0  0  0  0  0  0
  141.5669   70.6061  229.1251 H   0  0  0  0  0  0  0  0  0  0  0  0
  141.3930   72.1434  227.1528 H   0  0  0  0  0  0  0  0  0  0  0  0
  1  2  2  0
  2  3  1  0
  3  4  1  0
  4  5  1  0
  5  6  2  0
  5  7  1  0
  7  8  1  0
  8  9  1  0
  9 10  1  0
 10 11  1  0
 11 12  1  0
 12 13  2  0
 13 14  1  0
 14 15  2  0
 15 16  1  0
 16 17  2  0
  2 18  1  0
 18 19  2  0
 19 20  1  0
 20 21  2  0
 21 22  1  0
 22 23  2  0
 23 24  1  0
 23 25  1  0
 25 26  2  0
 26 27  1  0
 27 28  2  0
 11  7  1  0
 17 12  1  0
 28 18  1  0
 27 21  1  0
  3 29  1  0
  4 30  1  0
  4 31  1  0
  8 32  1  0
  8 33  1  0
  9 34  1  0
  9 35  1  0
 10 36  1  0
 10 37  1  0
 11 38  1  6
 13 39  1  0
 15 40  1  0
 16 41  1  0
 19 42  1  0
 20 43  1  0
 22 44  1  0
 25 45  1  0
 26 46  1  0
M  END
>  <smiles>  (24) 
O=C(NCC(=O)N1CCCC1c1cnccn1)c1ccc2cc(F)ccc2n1

>  <score_type>  (24) 
oracle

>  <origin>  (24) 
autodockgpu

>  <m_score__min__energy>  (24) 
-8.4600000000000009

>  <m_primary>  (24) 
energy

>  <rmsd>  (24) 
1.967943872790517

>  <m_score__min__rmsd>  (24) 
1.967943872790517

>  <meeko>  (24) 
{"free_energy": -7.94, "intermolecular_energy": -9.43, "internal_energy": -1.29, "cluster_size": 38, "cluster_id": 1, "rank_in_cluster": 35}

>  <energy>  (24) 
-8.32

>  <cluster_rmsd>  (24) 
0.56

>  <cluster>  (24) 
1

$$$$

     RDKit          3D

 46 49  0  0  0  0  0  0  0  0999 V2000
  138.6040   72.6860  222.2930 O   0  0  0  0  0  0  0  0  0  0  0  0
  139.7040   72.2520  222.7290 C   0  0  0  0  0  0  0  0  0  0  0  0
  140.9040   72.7370  222.0990 N   0  0  0  0  0  0  0  0  0  0  0  0
  140.8540   73.6730  221.0200 C   0  0  0  0  0  0  0  0  0  0  0  0
  140.5760   75.0550  221.4420 C   0  0  0  0  0  0  0  0  0  0  0  0
  139.7560   75.2630  222.3790 O   0  0  0  0  0  0  0  0  0  0  0  0
  141.2580   76.1050  220.7620 N   0  0  0  0  0  0  0  0  0  0  0  0
  142.5530   76.0710  220.1050 C   0  0  0  0  0  0  0  0  0  0  0  0
  142.5290   77.0340  218.9660 C   0  0  0  0  0  0  0  0  0  0  0  0
  141.3620   77.9280  219.2570 C   0  0  0  0  0  0  0  0  0  0  0  0
  140.7830   77.4710  220.5830 C   0  0  2  0  0  0  0  0  0  0  0  0
  141.3210   78.3860  221.6240 C   0  0  0  0  0  0  0  0  0  0  0  0
  141.8950   79.5990  221.2950 C   0  0  0  0  0  0  0  0  0  0  0  0
  142.3810   80.4230  222.2420 N   0  0  0  0  0  0  0  0  0  0  0  0
  142.3290   80.1000  223.5590 C   0  0  0  0  0  0  0  0  0  0  0  0
  141.7550   78.8840  223.8990 C   0  0  0  0  0  0  0  0  0  0  0  0
  141.2750   78.0730  222.9380 N   0  0  0  0  0  0  0  0  0  0  0  0
  139.8140   71.3070  223.8150 C   0  0  0  0  0  0  0  0  0  0  0  0
  139.3990   70.0030  223.6300 C   0  0  0  0  0  0  0  0  0  0  0  0
  139.4900   69.0770  224.6460 C   0  0  0  0  0  0  0  0  0  0  0  0
  140.0070   69.4670  225.8620 C   0  0  0  0  0  0  0  0  0  0  0  0
  140.1000   68.5460  226.8820 C   0  0  0  0  0  0  0  0  0  0  0  0
  140.6180   68.9580  228.0840 C   0  0  0  0  0  0  0  0  0  0  0  0
  140.7090   68.0580  229.0770 F   0  0  0  0  0  0  0  0  0  0  0  0
  141.0460   70.2660  228.3020 C   0  0  0  0  0  0  0  0  0  0  0  0
  140.9410   71.1840  227.2540 C   0  0  0  0  0  0  0  0  0  0  0  0
  140.4180   70.7900  226.0190 C   0  0  0  0  0  0  0  0  0  0  0  0
  140.3120   71.6660  225.0030 N   0  0  0  0  0  0  0  0  0  0  0  0
  141.8420   72.4090  222.4220 H   0  0  0  0  0  0  0  0  0  0  0  0
  141.8247   73.6574  220.5027 H   0  0  0  0  0  0  0  0  0  0  0  0
  140.0232   73.3649  220.3683 H   0  0  0  0  0  0  0  0  0  0  0  0
  143.3391   76.3591  220.8184 H   0  0  0  0  0  0  0  0  0  0  0  0
  142.7634   75.0559  219.7371 H   0  0  0  0  0  0  0  0  0  0  0  0
  143.4630   77.6137  218.9269 H   0  0  0  0  0  0  0  0  0  0  0  0
  142.4378   76.5295  217.9928 H   0  0  0  0  0  0  0  0  0  0  0  0
  141.6944   78.9741  219.3288 H   0  0  0  0  0  0  0  0  0  0  0  0
  140.6102   77.8707  218.4561 H   0  0  0  0  0  0  0  0  0  0  0  0
  139.6845   77.4923  220.6352 H   0  0  0  0  0  0  0  0  0  0  0  0
  141.9561   79.8973  220.2380 H   0  0  0  0  0  0  0  0  0  0  0  0
  142.7274   80.7776  224.3285 H   0  0  0  0  0  0  0  0  0  0  0  0
  141.6920   78.5822  224.9549 H   0  0  0  0  0  0  0  0  0  0  0  0
  138.9891   69.6987  222.6556 H   0  0  0  0  0  0  0  0  0  0  0  0
  139.1547   68.0412  224.4886 H   0  0  0  0  0  0  0  0  0  0  0  0
  139.7678   67.5075  226.7368 H   0  0  0  0  0  0  0  0  0  0  0  0
  141.4570   70.5687  229.2764 H   0  0  0  0  0  0  0  0  0  0  0  0
  141.2717   72.2227  227.4016 H   0  0  0  0  0  0  0  0  0  0  0  0
  1  2  2  0
  2  3  1  0
  3  4  1  0
  4  5  1  0
  5  6  2  0
  5  7  1  0
  7  8  1  0
  8  9  1  0
  9 10  1  0
 10 11  1  0
 11 12  1  0
 12 13  2  0
 13 14  1  0
 14 15  2  0
 15 16  1  0
 16 17  2  0
  2 18  1  0
 18 19  2  0
 19 20  1  0
 20 21  2  0
 21 22  1  0
 22 23  2  0
 23 24  1  0
 23 25  1  0
 25 26  2  0
 26 27  1  0
 27 28  2  0
 11  7  1  0
 17 12  1  0
 28 18  1  0
 27 21  1  0
  3 29  1  0
  4 30  1  0
  4 31  1  0
  8 32  1  0
  8 33  1  0
  9 34  1  0
  9 35  1  0
 10 36  1  0
 10 37  1  0
 11 38  1  6
 13 39  1  0
 15 40  1  0
 16 41  1  0
 19 42  1  0
 20 43  1  0
 22 44  1  0
 25 45  1  0
 26 46  1  0
M  END
>  <smiles>  (25) 
O=C(NCC(=O)N1CCCC1c1cnccn1)c1ccc2cc(F)ccc2n1

>  <score_type>  (25) 
oracle

>  <origin>  (25) 
autodockgpu

>  <m_score__min__energy>  (25) 
-8.4600000000000009

>  <m_primary>  (25) 
energy

>  <rmsd>  (25) 
2.093783142323622

>  <m_score__min__rmsd>  (25) 
2.093783142323622

>  <meeko>  (25) 
{"free_energy": -8.11, "intermolecular_energy": -9.6, "internal_energy": -1.15, "cluster_size": 38, "cluster_id": 1, "rank_in_cluster": 31}

>  <energy>  (25) 
-8.31

>  <cluster_rmsd>  (25) 
0.25

>  <cluster>  (25) 
1

$$$$

     RDKit          3D

 46 49  0  0  0  0  0  0  0  0999 V2000
  141.2520   72.8140  222.0050 O   0  0  0  0  0  0  0  0  0  0  0  0
  140.2080   72.6020  222.6770 C   0  0  0  0  0  0  0  0  0  0  0  0
  139.0410   73.3810  222.3520 N   0  0  0  0  0  0  0  0  0  0  0  0
  139.0640   74.3580  221.3090 C   0  0  0  0  0  0  0  0  0  0  0  0
  139.4220   75.7090  221.7660 C   0  0  0  0  0  0  0  0  0  0  0  0
  138.7190   76.2700  222.6520 O   0  0  0  0  0  0  0  0  0  0  0  0
  140.5620   76.3280  221.1760 N   0  0  0  0  0  0  0  0  0  0  0  0
  141.8460   75.7340  220.8410 C   0  0  0  0  0  0  0  0  0  0  0  0
  142.3960   76.4440  219.6510 C   0  0  0  0  0  0  0  0  0  0  0  0
  141.6230   77.7260  219.5890 C   0  0  0  0  0  0  0  0  0  0  0  0
  140.6800   77.7240  220.7780 C   0  0  2  0  0  0  0  0  0  0  0  0
  141.3240   78.5490  221.8350 C   0  0  0  0  0  0  0  0  0  0  0  0
  141.2400   78.2080  223.1710 C   0  0  0  0  0  0  0  0  0  0  0  0
  141.8240   78.9580  224.1230 N   0  0  0  0  0  0  0  0  0  0  0  0
  142.5220   80.0800  223.8150 C   0  0  0  0  0  0  0  0  0  0  0  0
  142.6110   80.4310  222.4750 C   0  0  0  0  0  0  0  0  0  0  0  0
  142.0200   79.6690  221.5380 N   0  0  0  0  0  0  0  0  0  0  0  0
  140.1280   71.6300  223.7420 C   0  0  0  0  0  0  0  0  0  0  0  0
  139.5240   70.4100  223.5090 C   0  0  0  0  0  0  0  0  0  0  0  0
  139.4320   69.4610  224.5040 C   0  0  0  0  0  0  0  0  0  0  0  0
  139.9560   69.7420  225.7470 C   0  0  0  0  0  0  0  0  0  0  0  0
  139.8670   68.7980  226.7450 C   0  0  0  0  0  0  0  0  0  0  0  0
  140.3960   69.1000  227.9750 C   0  0  0  0  0  0  0  0  0  0  0  0
  140.3080   68.1770  228.9460 F   0  0  0  0  0  0  0  0  0  0  0  0
  141.0120   70.3220  228.2410 C   0  0  0  0  0  0  0  0  0  0  0  0
  141.0900   71.2650  227.2140 C   0  0  0  0  0  0  0  0  0  0  0  0
  140.5600   70.9820  225.9520 C   0  0  0  0  0  0  0  0  0  0  0  0
  140.6300   71.8840  224.9560 N   0  0  0  0  0  0  0  0  0  0  0  0
  138.1500   73.2450  222.8790 H   0  0  0  0  0  0  0  0  0  0  0  0
  139.7989   74.0416  220.5542 H   0  0  0  0  0  0  0  0  0  0  0  0
  138.0427   74.4178  220.9049 H   0  0  0  0  0  0  0  0  0  0  0  0
  142.5375   75.8405  221.6898 H   0  0  0  0  0  0  0  0  0  0  0  0
  141.7213   74.6639  220.6188 H   0  0  0  0  0  0  0  0  0  0  0  0
  143.4701   76.6434  219.7792 H   0  0  0  0  0  0  0  0  0  0  0  0
  142.2992   75.8521  218.7289 H   0  0  0  0  0  0  0  0  0  0  0  0
  142.3076   78.5849  219.6495 H   0  0  0  0  0  0  0  0  0  0  0  0
  141.0674   77.8079  218.6432 H   0  0  0  0  0  0  0  0  0  0  0  0
  139.6814   78.1370  220.5724 H   0  0  0  0  0  0  0  0  0  0  0  0
  140.6842   77.3046  223.4625 H   0  0  0  0  0  0  0  0  0  0  0  0
  142.9992   80.6883  224.5974 H   0  0  0  0  0  0  0  0  0  0  0  0
  143.1657   81.3337  222.1793 H   0  0  0  0  0  0  0  0  0  0  0  0
  139.1098   70.1924  222.5135 H   0  0  0  0  0  0  0  0  0  0  0  0
  138.9472   68.4931  224.3087 H   0  0  0  0  0  0  0  0  0  0  0  0
  139.3844   67.8267  226.5614 H   0  0  0  0  0  0  0  0  0  0  0  0
  141.4269   70.5383  229.2365 H   0  0  0  0  0  0  0  0  0  0  0  0
  141.5715   72.2365  227.3994 H   0  0  0  0  0  0  0  0  0  0  0  0
  1  2  2  0
  2  3  1  0
  3  4  1  0
  4  5  1  0
  5  6  2  0
  5  7  1  0
  7  8  1  0
  8  9  1  0
  9 10  1  0
 10 11  1  0
 11 12  1  0
 12 13  2  0
 13 14  1  0
 14 15  2  0
 15 16  1  0
 16 17  2  0
  2 18  1  0
 18 19  2  0
 19 20  1  0
 20 21  2  0
 21 22  1  0
 22 23  2  0
 23 24  1  0
 23 25  1  0
 25 26  2  0
 26 27  1  0
 27 28  2  0
 11  7  1  0
 17 12  1  0
 28 18  1  0
 27 21  1  0
  3 29  1  0
  4 30  1  0
  4 31  1  0
  8 32  1  0
  8 33  1  0
  9 34  1  0
  9 35  1  0
 10 36  1  0
 10 37  1  0
 11 38  1  6
 13 39  1  0
 15 40  1  0
 16 41  1  0
 19 42  1  0
 20 43  1  0
 22 44  1  0
 25 45  1  0
 26 46  1  0
M  END
>  <smiles>  (26) 
O=C(NCC(=O)N1CCCC1c1cnccn1)c1ccc2cc(F)ccc2n1

>  <score_type>  (26) 
oracle

>  <origin>  (26) 
autodockgpu

>  <m_score__min__energy>  (26) 
-8.4600000000000009

>  <m_primary>  (26) 
energy

>  <rmsd>  (26) 
2.021970368198974

>  <m_score__min__rmsd>  (26) 
2.021970368198974

>  <meeko>  (26) 
{"free_energy": -8.43, "intermolecular_energy": -9.92, "internal_energy": -1.24, "cluster_size": 38, "cluster_id": 1, "rank_in_cluster": 8}

>  <energy>  (26) 
-8.28

>  <cluster_rmsd>  (26) 
0.61

>  <cluster>  (26) 
1

$$$$

     RDKit          3D

 46 49  0  0  0  0  0  0  0  0999 V2000
  140.6150   72.3490  221.3640 O   0  0  0  0  0  0  0  0  0  0  0  0
  139.8170   72.3720  222.3400 C   0  0  0  0  0  0  0  0  0  0  0  0
  138.7610   73.3500  222.3100 N   0  0  0  0  0  0  0  0  0  0  0  0
  138.6190   74.2610  221.2180 C   0  0  0  0  0  0  0  0  0  0  0  0
  139.0510   75.6330  221.5270 C   0  0  0  0  0  0  0  0  0  0  0  0
  138.2460   76.4220  222.0960 O   0  0  0  0  0  0  0  0  0  0  0  0
  140.3770   76.0080  221.1650 N   0  0  0  0  0  0  0  0  0  0  0  0
  141.5960   75.2200  221.2390 C   0  0  0  0  0  0  0  0  0  0  0  0
  142.5060   75.6580  220.1420 C   0  0  0  0  0  0  0  0  0  0  0  0
  141.9740   76.9950  219.7240 C   0  0  0  0  0  0  0  0  0  0  0  0
  140.7960   77.2970  220.6320 C   0  0  2  0  0  0  0  0  0  0  0  0
  141.3010   78.2010  221.7000 C   0  0  0  0  0  0  0  0  0  0  0  0
  142.1970   79.2160  221.4270 C   0  0  0  0  0  0  0  0  0  0  0  0
  142.6500   80.0300  222.3980 N   0  0  0  0  0  0  0  0  0  0  0  0
  142.2480   79.8920  223.6860 C   0  0  0  0  0  0  0  0  0  0  0  0
  141.3480   78.8740  223.9710 C   0  0  0  0  0  0  0  0  0  0  0  0
  140.9060   78.0700  222.9860 N   0  0  0  0  0  0  0  0  0  0  0  0
  139.9130   71.4760  223.4680 C   0  0  0  0  0  0  0  0  0  0  0  0
  139.4930   70.1670  223.3390 C   0  0  0  0  0  0  0  0  0  0  0  0
  139.5710   69.2880  224.3970 C   0  0  0  0  0  0  0  0  0  0  0  0
  140.0800   69.7310  225.5990 C   0  0  0  0  0  0  0  0  0  0  0  0
  140.1600   68.8570  226.6600 C   0  0  0  0  0  0  0  0  0  0  0  0
  140.6700   69.3200  227.8470 C   0  0  0  0  0  0  0  0  0  0  0  0
  140.7480   68.4660  228.8800 F   0  0  0  0  0  0  0  0  0  0  0  0
  141.1020   70.6350  228.0090 C   0  0  0  0  0  0  0  0  0  0  0  0
  141.0110   71.5050  226.9190 C   0  0  0  0  0  0  0  0  0  0  0  0
  140.4960   71.0580  225.6990 C   0  0  0  0  0  0  0  0  0  0  0  0
  140.4030   71.8870  224.6440 N   0  0  0  0  0  0  0  0  0  0  0  0
  138.0730   73.4110  223.0940 H   0  0  0  0  0  0  0  0  0  0  0  0
  139.2216   73.8893  220.3761 H   0  0  0  0  0  0  0  0  0  0  0  0
  137.5462   74.3097  220.9799 H   0  0  0  0  0  0  0  0  0  0  0  0
  142.0833   75.3798  222.2122 H   0  0  0  0  0  0  0  0  0  0  0  0
  141.3621   74.1505  221.1321 H   0  0  0  0  0  0  0  0  0  0  0  0
  143.5398   75.7478  220.5070 H   0  0  0  0  0  0  0  0  0  0  0  0
  142.5330   74.9398  219.3093 H   0  0  0  0  0  0  0  0  0  0  0  0
  142.7503   77.7656  219.8407 H   0  0  0  0  0  0  0  0  0  0  0  0
  141.6682   76.9872  218.6674 H   0  0  0  0  0  0  0  0  0  0  0  0
  139.9461   77.7860  220.1335 H   0  0  0  0  0  0  0  0  0  0  0  0
  142.5475   79.3620  220.3946 H   0  0  0  0  0  0  0  0  0  0  0  0
  142.6210   80.5615  224.4751 H   0  0  0  0  0  0  0  0  0  0  0  0
  140.9959   78.7244  225.0023 H   0  0  0  0  0  0  0  0  0  0  0  0
  139.0897   69.8204  222.3761 H   0  0  0  0  0  0  0  0  0  0  0  0
  139.2320   68.2476  224.2842 H   0  0  0  0  0  0  0  0  0  0  0  0
  139.8238   67.8145  226.5588 H   0  0  0  0  0  0  0  0  0  0  0  0
  141.5053   70.9802  228.9724 H   0  0  0  0  0  0  0  0  0  0  0  0
  141.3466   72.5475  227.0219 H   0  0  0  0  0  0  0  0  0  0  0  0
  1  2  2  0
  2  3  1  0
  3  4  1  0
  4  5  1  0
  5  6  2  0
  5  7  1  0
  7  8  1  0
  8  9  1  0
  9 10  1  0
 10 11  1  0
 11 12  1  0
 12 13  2  0
 13 14  1  0
 14 15  2  0
 15 16  1  0
 16 17  2  0
  2 18  1  0
 18 19  2  0
 19 20  1  0
 20 21  2  0
 21 22  1  0
 22 23  2  0
 23 24  1  0
 23 25  1  0
 25 26  2  0
 26 27  1  0
 27 28  2  0
 11  7  1  0
 17 12  1  0
 28 18  1  0
 27 21  1  0
  3 29  1  0
  4 30  1  0
  4 31  1  0
  8 32  1  0
  8 33  1  0
  9 34  1  0
  9 35  1  0
 10 36  1  0
 10 37  1  0
 11 38  1  6
 13 39  1  0
 15 40  1  0
 16 41  1  0
 19 42  1  0
 20 43  1  0
 22 44  1  0
 25 45  1  0
 26 46  1  0
M  END
>  <smiles>  (27) 
O=C(NCC(=O)N1CCCC1c1cnccn1)c1ccc2cc(F)ccc2n1

>  <score_type>  (27) 
oracle

>  <origin>  (27) 
autodockgpu

>  <m_score__min__energy>  (27) 
-8.4600000000000009

>  <m_primary>  (27) 
energy

>  <rmsd>  (27) 
1.9187055534522575

>  <m_score__min__rmsd>  (27) 
1.9187055534522575

>  <meeko>  (27) 
{"free_energy": -7.95, "intermolecular_energy": -9.44, "internal_energy": -1.35, "cluster_size": 38, "cluster_id": 1, "rank_in_cluster": 33}

>  <energy>  (27) 
-8.28

>  <cluster_rmsd>  (27) 
0.57

>  <cluster>  (27) 
1

$$$$

     RDKit          3D

 46 49  0  0  0  0  0  0  0  0999 V2000
  140.7920   71.0980  221.3830 O   0  0  0  0  0  0  0  0  0  0  0  0
  140.2560   71.5850  222.4140 C   0  0  0  0  0  0  0  0  0  0  0  0
  139.7790   72.9420  222.3350 N   0  0  0  0  0  0  0  0  0  0  0  0
  139.9080   73.7090  221.1370 C   0  0  0  0  0  0  0  0  0  0  0  0
  140.7870   74.8810  221.2720 C   0  0  0  0  0  0  0  0  0  0  0  0
  140.6590   75.6390  222.2740 O   0  0  0  0  0  0  0  0  0  0  0  0
  141.7530   75.1070  220.2490 N   0  0  0  0  0  0  0  0  0  0  0  0
  141.5360   75.3370  218.8300 C   0  0  0  0  0  0  0  0  0  0  0  0
  142.6260   76.2210  218.3250 C   0  0  0  0  0  0  0  0  0  0  0  0
  143.6970   76.1280  219.3690 C   0  0  0  0  0  0  0  0  0  0  0  0
  143.1990   75.1540  220.4200 C   0  0  2  0  0  0  0  0  0  0  0  0
  143.8340   73.8430  220.1240 C   0  0  0  0  0  0  0  0  0  0  0  0
  145.0490   73.7570  219.4720 C   0  0  0  0  0  0  0  0  0  0  0  0
  145.6190   72.5680  219.2060 N   0  0  0  0  0  0  0  0  0  0  0  0
  145.0280   71.4010  219.5660 C   0  0  0  0  0  0  0  0  0  0  0  0
  143.8060   71.4760  220.2200 C   0  0  0  0  0  0  0  0  0  0  0  0
  143.2520   72.6750  220.4770 N   0  0  0  0  0  0  0  0  0  0  0  0
  140.1000   70.8560  223.6510 C   0  0  0  0  0  0  0  0  0  0  0  0
  139.4110   69.6600  223.6560 C   0  0  0  0  0  0  0  0  0  0  0  0
  139.2450   68.9410  224.8200 C   0  0  0  0  0  0  0  0  0  0  0  0
  139.7800   69.4310  225.9910 C   0  0  0  0  0  0  0  0  0  0  0  0
  139.6170   68.7170  227.1570 C   0  0  0  0  0  0  0  0  0  0  0  0
  140.1590   69.2240  228.3110 C   0  0  0  0  0  0  0  0  0  0  0  0
  139.9990   68.5260  229.4470 F   0  0  0  0  0  0  0  0  0  0  0  0
  140.8600   70.4290  228.3380 C   0  0  0  0  0  0  0  0  0  0  0  0
  141.0120   71.1370  227.1440 C   0  0  0  0  0  0  0  0  0  0  0  0
  140.4710   70.6410  225.9540 C   0  0  0  0  0  0  0  0  0  0  0  0
  140.6120   71.3160  224.7990 N   0  0  0  0  0  0  0  0  0  0  0  0
  139.3270   73.3930  223.1620 H   0  0  0  0  0  0  0  0  0  0  0  0
  140.3175   73.0575  220.3509 H   0  0  0  0  0  0  0  0  0  0  0  0
  138.9052   74.0883  220.8908 H   0  0  0  0  0  0  0  0  0  0  0  0
  141.5552   74.3783  218.2909 H   0  0  0  0  0  0  0  0  0  0  0  0
  140.5576   75.8134  218.6693 H   0  0  0  0  0  0  0  0  0  0  0  0
  142.9979   75.8638  217.3533 H   0  0  0  0  0  0  0  0  0  0  0  0
  142.2862   77.2548  218.1646 H   0  0  0  0  0  0  0  0  0  0  0  0
  144.6312   75.7578  218.9216 H   0  0  0  0  0  0  0  0  0  0  0  0
  143.9053   77.1137  219.8106 H   0  0  0  0  0  0  0  0  0  0  0  0
  143.4423   75.4333  221.4558 H   0  0  0  0  0  0  0  0  0  0  0  0
  145.5611   74.6805  219.1639 H   0  0  0  0  0  0  0  0  0  0  0  0
  145.4997   70.4315  219.3477 H   0  0  0  0  0  0  0  0  0  0  0  0
  143.2902   70.5547  220.5284 H   0  0  0  0  0  0  0  0  0  0  0  0
  138.9879   69.2748  222.7165 H   0  0  0  0  0  0  0  0  0  0  0  0
  138.6932   67.9895  224.8141 H   0  0  0  0  0  0  0  0  0  0  0  0
  139.0665   67.7647  227.1631 H   0  0  0  0  0  0  0  0  0  0  0  0
  141.2834   70.8129  229.2779 H   0  0  0  0  0  0  0  0  0  0  0  0
  141.5605   72.0905  227.1397 H   0  0  0  0  0  0  0  0  0  0  0  0
  1  2  2  0
  2  3  1  0
  3  4  1  0
  4  5  1  0
  5  6  2  0
  5  7  1  0
  7  8  1  0
  8  9  1  0
  9 10  1  0
 10 11  1  0
 11 12  1  0
 12 13  2  0
 13 14  1  0
 14 15  2  0
 15 16  1  0
 16 17  2  0
  2 18  1  0
 18 19  2  0
 19 20  1  0
 20 21  2  0
 21 22  1  0
 22 23  2  0
 23 24  1  0
 23 25  1  0
 25 26  2  0
 26 27  1  0
 27 28  2  0
 11  7  1  0
 17 12  1  0
 28 18  1  0
 27 21  1  0
  3 29  1  0
  4 30  1  0
  4 31  1  0
  8 32  1  0
  8 33  1  0
  9 34  1  0
  9 35  1  0
 10 36  1  0
 10 37  1  0
 11 38  1  1
 13 39  1  0
 15 40  1  0
 16 41  1  0
 19 42  1  0
 20 43  1  0
 22 44  1  0
 25 45  1  0
 26 46  1  0
M  END
>  <smiles>  (28) 
O=C(NCC(=O)N1CCCC1c1cnccn1)c1ccc2cc(F)ccc2n1

>  <score_type>  (28) 
oracle

>  <origin>  (28) 
autodockgpu

>  <m_score__min__energy>  (28) 
-8.4600000000000009

>  <m_primary>  (28) 
energy

>  <rmsd>  (28) 
3.6757237467343593

>  <m_score__min__rmsd>  (28) 
3.6757237467343593

>  <meeko>  (28) 
{"free_energy": -7.75, "intermolecular_energy": -9.24, "internal_energy": -1.59, "cluster_size": 4, "cluster_id": 3, "rank_in_cluster": 3}

>  <energy>  (28) 
-8.28

>  <cluster_rmsd>  (28) 
0.53

>  <cluster>  (28) 
1

$$$$

     RDKit          3D

 46 49  0  0  0  0  0  0  0  0999 V2000
  141.2750   72.1360  221.5960 O   0  0  0  0  0  0  0  0  0  0  0  0
  140.4180   72.3570  222.4920 C   0  0  0  0  0  0  0  0  0  0  0  0
  139.5940   73.5300  222.3470 N   0  0  0  0  0  0  0  0  0  0  0  0
  139.7400   74.4100  221.2320 C   0  0  0  0  0  0  0  0  0  0  0  0
  139.7280   75.8360  221.5930 C   0  0  0  0  0  0  0  0  0  0  0  0
  138.8900   76.2530  222.4410 O   0  0  0  0  0  0  0  0  0  0  0  0
  140.6770   76.6890  220.9580 N   0  0  0  0  0  0  0  0  0  0  0  0
  141.9600   76.3420  220.3710 C   0  0  0  0  0  0  0  0  0  0  0  0
  142.2290   77.2750  219.2400 C   0  0  0  0  0  0  0  0  0  0  0  0
  141.2960   78.4240  219.4740 C   0  0  0  0  0  0  0  0  0  0  0  0
  140.5520   78.1270  220.7620 C   0  0  2  0  0  0  0  0  0  0  0  0
  141.2370   78.8940  221.8370 C   0  0  0  0  0  0  0  0  0  0  0  0
  141.9510   80.0450  221.5640 C   0  0  0  0  0  0  0  0  0  0  0  0
  142.5680   80.7340  222.5410 N   0  0  0  0  0  0  0  0  0  0  0  0
  142.5180   80.3310  223.8360 C   0  0  0  0  0  0  0  0  0  0  0  0
  141.8030   79.1760  224.1200 C   0  0  0  0  0  0  0  0  0  0  0  0
  141.1930   78.5000  223.1290 N   0  0  0  0  0  0  0  0  0  0  0  0
  140.2270   71.5030  223.6400 C   0  0  0  0  0  0  0  0  0  0  0  0
  139.5610   70.3010  223.4950 C   0  0  0  0  0  0  0  0  0  0  0  0
  139.3630   69.4630  224.5700 C   0  0  0  0  0  0  0  0  0  0  0  0
  139.8400   69.8390  225.8070 C   0  0  0  0  0  0  0  0  0  0  0  0
  139.6450   69.0050  226.8860 C   0  0  0  0  0  0  0  0  0  0  0  0
  140.1290   69.4000  228.1080 C   0  0  0  0  0  0  0  0  0  0  0  0
  139.9380   68.5850  229.1590 F   0  0  0  0  0  0  0  0  0  0  0  0
  140.8050   70.6060  228.2870 C   0  0  0  0  0  0  0  0  0  0  0  0
  140.9910   71.4360  227.1790 C   0  0  0  0  0  0  0  0  0  0  0  0
  140.5080   71.0570  225.9230 C   0  0  0  0  0  0  0  0  0  0  0  0
  140.6820   71.8490  224.8500 N   0  0  0  0  0  0  0  0  0  0  0  0
  138.8680   73.7590  223.0630 H   0  0  0  0  0  0  0  0  0  0  0  0
  140.6964   74.1861  220.7369 H   0  0  0  0  0  0  0  0  0  0  0  0
  138.8744   74.2395  220.5750 H   0  0  0  0  0  0  0  0  0  0  0  0
  142.7526   76.4376  221.1278 H   0  0  0  0  0  0  0  0  0  0  0  0
  141.9404   75.3040  220.0075 H   0  0  0  0  0  0  0  0  0  0  0  0
  143.2754   77.6140  219.2556 H   0  0  0  0  0  0  0  0  0  0  0  0
  142.0727   76.8012  218.2597 H   0  0  0  0  0  0  0  0  0  0  0  0
  141.8650   79.3603  219.5723 H   0  0  0  0  0  0  0  0  0  0  0  0
  140.5976   78.5439  218.6326 H   0  0  0  0  0  0  0  0  0  0  0  0
  139.4890   78.4098  220.7538 H   0  0  0  0  0  0  0  0  0  0  0  0
  142.0163   80.4053  220.5267 H   0  0  0  0  0  0  0  0  0  0  0  0
  143.0250   80.8984  224.6304 H   0  0  0  0  0  0  0  0  0  0  0  0
  141.7348   78.8127  225.1560 H   0  0  0  0  0  0  0  0  0  0  0  0
  139.1826   70.0085  222.5044 H   0  0  0  0  0  0  0  0  0  0  0  0
  138.8321   68.5080  224.4431 H   0  0  0  0  0  0  0  0  0  0  0  0
  139.1154   68.0478  226.7712 H   0  0  0  0  0  0  0  0  0  0  0  0
  141.1832   70.8973  229.2780 H   0  0  0  0  0  0  0  0  0  0  0  0
  141.5205   72.3931  227.2954 H   0  0  0  0  0  0  0  0  0  0  0  0
  1  2  2  0
  2  3  1  0
  3  4  1  0
  4  5  1  0
  5  6  2  0
  5  7  1  0
  7  8  1  0
  8  9  1  0
  9 10  1  0
 10 11  1  0
 11 12  1  0
 12 13  2  0
 13 14  1  0
 14 15  2  0
 15 16  1  0
 16 17  2  0
  2 18  1  0
 18 19  2  0
 19 20  1  0
 20 21  2  0
 21 22  1  0
 22 23  2  0
 23 24  1  0
 23 25  1  0
 25 26  2  0
 26 27  1  0
 27 28  2  0
 11  7  1  0
 17 12  1  0
 28 18  1  0
 27 21  1  0
  3 29  1  0
  4 30  1  0
  4 31  1  0
  8 32  1  0
  8 33  1  0
  9 34  1  0
  9 35  1  0
 10 36  1  0
 10 37  1  0
 11 38  1  6
 13 39  1  0
 15 40  1  0
 16 41  1  0
 19 42  1  0
 20 43  1  0
 22 44  1  0
 25 45  1  0
 26 46  1  0
M  END
>  <smiles>  (29) 
O=C(NCC(=O)N1CCCC1c1cnccn1)c1ccc2cc(F)ccc2n1

>  <score_type>  (29) 
oracle

>  <origin>  (29) 
autodockgpu

>  <m_score__min__energy>  (29) 
-8.4600000000000009

>  <m_primary>  (29) 
energy

>  <rmsd>  (29) 
2.039320578771503

>  <m_score__min__rmsd>  (29) 
2.039320578771503

>  <meeko>  (29) 
{"free_energy": -8.42, "intermolecular_energy": -9.91, "internal_energy": -1.38, "cluster_size": 38, "cluster_id": 1, "rank_in_cluster": 11}

>  <energy>  (29) 
-8.17

>  <cluster_rmsd>  (29) 
0.75

>  <cluster>  (29) 
1

$$$$

     RDKit          3D

 46 49  0  0  0  0  0  0  0  0999 V2000
  141.2560   72.7450  221.9690 O   0  0  0  0  0  0  0  0  0  0  0  0
  140.2220   72.5550  222.6630 C   0  0  0  0  0  0  0  0  0  0  0  0
  139.0600   73.3490  222.3540 N   0  0  0  0  0  0  0  0  0  0  0  0
  139.0770   74.3160  221.3030 C   0  0  0  0  0  0  0  0  0  0  0  0
  139.4240   75.6740  221.7480 C   0  0  0  0  0  0  0  0  0  0  0  0
  138.7060   76.2430  222.6180 O   0  0  0  0  0  0  0  0  0  0  0  0
  140.5710   76.2900  221.1680 N   0  0  0  0  0  0  0  0  0  0  0  0
  141.8590   75.6960  220.8550 C   0  0  0  0  0  0  0  0  0  0  0  0
  142.4240   76.3960  219.6660 C   0  0  0  0  0  0  0  0  0  0  0  0
  141.6480   77.6760  219.5820 C   0  0  0  0  0  0  0  0  0  0  0  0
  140.6910   77.6830  220.7590 C   0  0  2  0  0  0  0  0  0  0  0  0
  141.3190   78.5180  221.8170 C   0  0  0  0  0  0  0  0  0  0  0  0
  141.9870   79.6890  221.5140 C   0  0  0  0  0  0  0  0  0  0  0  0
  142.5540   80.4410  222.4750 N   0  0  0  0  0  0  0  0  0  0  0  0
  142.4950   80.0840  223.7830 C   0  0  0  0  0  0  0  0  0  0  0  0
  141.8270   78.9090  224.0970 C   0  0  0  0  0  0  0  0  0  0  0  0
  141.2670   78.1710  223.1220 N   0  0  0  0  0  0  0  0  0  0  0  0
  140.1490   71.5920  223.7370 C   0  0  0  0  0  0  0  0  0  0  0  0
  139.5660   70.3610  223.5120 C   0  0  0  0  0  0  0  0  0  0  0  0
  139.4810   69.4210  224.5160 C   0  0  0  0  0  0  0  0  0  0  0  0
  139.9900   69.7230  225.7600 C   0  0  0  0  0  0  0  0  0  0  0  0
  139.9070   68.7880  226.7680 C   0  0  0  0  0  0  0  0  0  0  0  0
  140.4210   69.1110  227.9980 C   0  0  0  0  0  0  0  0  0  0  0  0
  140.3400   68.1970  228.9790 F   0  0  0  0  0  0  0  0  0  0  0  0
  141.0160   70.3450  228.2570 C   0  0  0  0  0  0  0  0  0  0  0  0
  141.0870   71.2790  227.2210 C   0  0  0  0  0  0  0  0  0  0  0  0
  140.5730   70.9740  225.9570 C   0  0  0  0  0  0  0  0  0  0  0  0
  140.6360   71.8670  224.9530 N   0  0  0  0  0  0  0  0  0  0  0  0
  138.1780   73.2300  222.9000 H   0  0  0  0  0  0  0  0  0  0  0  0
  139.8154   73.9984  220.5521 H   0  0  0  0  0  0  0  0  0  0  0  0
  138.0557   74.3643  220.8971 H   0  0  0  0  0  0  0  0  0  0  0  0
  142.5392   75.8112  221.7118 H   0  0  0  0  0  0  0  0  0  0  0  0
  141.7384   74.6239  220.6403 H   0  0  0  0  0  0  0  0  0  0  0  0
  143.4958   76.5993  219.8071 H   0  0  0  0  0  0  0  0  0  0  0  0
  142.3419   75.7954  218.7481 H   0  0  0  0  0  0  0  0  0  0  0  0
  142.3296   78.5373  219.6423 H   0  0  0  0  0  0  0  0  0  0  0  0
  141.1037   77.7471  218.6288 H   0  0  0  0  0  0  0  0  0  0  0  0
  139.6946   78.0928  220.5369 H   0  0  0  0  0  0  0  0  0  0  0  0
  142.0567   80.0132  220.4652 H   0  0  0  0  0  0  0  0  0  0  0  0
  142.9593   80.7029  224.5649 H   0  0  0  0  0  0  0  0  0  0  0  0
  141.7554   78.5808  225.1444 H   0  0  0  0  0  0  0  0  0  0  0  0
  139.1630   70.1268  222.5156 H   0  0  0  0  0  0  0  0  0  0  0  0
  139.0134   68.4435  224.3269 H   0  0  0  0  0  0  0  0  0  0  0  0
  139.4406   67.8076  226.5912 H   0  0  0  0  0  0  0  0  0  0  0  0
  141.4199   70.5774  229.2534 H   0  0  0  0  0  0  0  0  0  0  0  0
  141.5501   72.2605  227.4006 H   0  0  0  0  0  0  0  0  0  0  0  0
  1  2  2  0
  2  3  1  0
  3  4  1  0
  4  5  1  0
  5  6  2  0
  5  7  1  0
  7  8  1  0
  8  9  1  0
  9 10  1  0
 10 11  1  0
 11 12  1  0
 12 13  2  0
 13 14  1  0
 14 15  2  0
 15 16  1  0
 16 17  2  0
  2 18  1  0
 18 19  2  0
 19 20  1  0
 20 21  2  0
 21 22  1  0
 22 23  2  0
 23 24  1  0
 23 25  1  0
 25 26  2  0
 26 27  1  0
 27 28  2  0
 11  7  1  0
 17 12  1  0
 28 18  1  0
 27 21  1  0
  3 29  1  0
  4 30  1  0
  4 31  1  0
  8 32  1  0
  8 33  1  0
  9 34  1  0
  9 35  1  0
 10 36  1  0
 10 37  1  0
 11 38  1  6
 13 39  1  0
 15 40  1  0
 16 41  1  0
 19 42  1  0
 20 43  1  0
 22 44  1  0
 25 45  1  0
 26 46  1  0
M  END
>  <smiles>  (30) 
O=C(NCC(=O)N1CCCC1c1cnccn1)c1ccc2cc(F)ccc2n1

>  <score_type>  (30) 
oracle

>  <origin>  (30) 
autodockgpu

>  <m_score__min__energy>  (30) 
-8.4600000000000009

>  <m_primary>  (30) 
energy

>  <rmsd>  (30) 
1.9800318519067666

>  <m_score__min__rmsd>  (30) 
1.9800318519067666

>  <meeko>  (30) 
{"free_energy": -8.42, "intermolecular_energy": -9.91, "internal_energy": -1.31, "cluster_size": 38, "cluster_id": 1, "rank_in_cluster": 12}

>  <energy>  (30) 
-8.16

>  <cluster_rmsd>  (30) 
0.87

>  <cluster>  (30) 
1

$$$$

     RDKit          3D

 46 49  0  0  0  0  0  0  0  0999 V2000
  139.2380   71.3830  221.1350 O   0  0  0  0  0  0  0  0  0  0  0  0
  139.4230   71.8720  222.2810 C   0  0  0  0  0  0  0  0  0  0  0  0
  139.4230   73.3080  222.3970 N   0  0  0  0  0  0  0  0  0  0  0  0
  139.2230   74.1470  221.2580 C   0  0  0  0  0  0  0  0  0  0  0  0
  139.4310   75.5780  221.5290 C   0  0  0  0  0  0  0  0  0  0  0  0
  138.5550   76.2210  222.1720 O   0  0  0  0  0  0  0  0  0  0  0  0
  140.6300   76.1770  221.0450 N   0  0  0  0  0  0  0  0  0  0  0  0
  141.9300   75.5620  220.8310 C   0  0  0  0  0  0  0  0  0  0  0  0
  142.5980   76.2580  219.6950 C   0  0  0  0  0  0  0  0  0  0  0  0
  141.8530   77.5510  219.5570 C   0  0  0  0  0  0  0  0  0  0  0  0
  140.8050   77.5690  220.6540 C   0  0  2  0  0  0  0  0  0  0  0  0
  141.3620   78.3890  221.7630 C   0  0  0  0  0  0  0  0  0  0  0  0
  141.9450   79.6200  221.5320 C   0  0  0  0  0  0  0  0  0  0  0  0
  142.4470   80.3580  222.5390 N   0  0  0  0  0  0  0  0  0  0  0  0
  142.4020   79.9280  223.8250 C   0  0  0  0  0  0  0  0  0  0  0  0
  141.8180   78.6920  224.0670 C   0  0  0  0  0  0  0  0  0  0  0  0
  141.3230   77.9690  223.0470 N   0  0  0  0  0  0  0  0  0  0  0  0
  139.6300   71.0720  223.4650 C   0  0  0  0  0  0  0  0  0  0  0  0
  139.3130   69.7290  223.4470 C   0  0  0  0  0  0  0  0  0  0  0  0
  139.4990   68.9380  224.5600 C   0  0  0  0  0  0  0  0  0  0  0  0
  140.0120   69.5070  225.7050 C   0  0  0  0  0  0  0  0  0  0  0  0
  140.2010   68.7220  226.8210 C   0  0  0  0  0  0  0  0  0  0  0  0
  140.7130   69.3100  227.9500 C   0  0  0  0  0  0  0  0  0  0  0  0
  140.8960   68.5430  229.0370 F   0  0  0  0  0  0  0  0  0  0  0  0
  141.0430   70.6640  228.0010 C   0  0  0  0  0  0  0  0  0  0  0  0
  140.8430   71.4410  226.8580 C   0  0  0  0  0  0  0  0  0  0  0  0
  140.3240   70.8660  225.6940 C   0  0  0  0  0  0  0  0  0  0  0  0
  140.1270   71.6060  224.5880 N   0  0  0  0  0  0  0  0  0  0  0  0
  139.5720   73.7640  223.3250 H   0  0  0  0  0  0  0  0  0  0  0  0
  139.9270   73.8373  220.4716 H   0  0  0  0  0  0  0  0  0  0  0  0
  138.1725   74.0285  220.9541 H   0  0  0  0  0  0  0  0  0  0  0  0
  142.5422   75.6615  221.7395 H   0  0  0  0  0  0  0  0  0  0  0  0
  141.8093   74.4931  220.6011 H   0  0  0  0  0  0  0  0  0  0  0  0
  143.6585   76.4425  219.9216 H   0  0  0  0  0  0  0  0  0  0  0  0
  142.5782   75.6630  218.7700 H   0  0  0  0  0  0  0  0  0  0  0  0
  142.5419   78.4002  219.6767 H   0  0  0  0  0  0  0  0  0  0  0  0
  141.3879   77.6358  218.5638 H   0  0  0  0  0  0  0  0  0  0  0  0
  139.8361   77.9959  220.3557 H   0  0  0  0  0  0  0  0  0  0  0  0
  142.0000   80.0050  220.5031 H   0  0  0  0  0  0  0  0  0  0  0  0
  142.8127   80.5357  224.6448 H   0  0  0  0  0  0  0  0  0  0  0  0
  141.7601   78.3036  225.0945 H   0  0  0  0  0  0  0  0  0  0  0  0
  138.9048   69.2822  222.5284 H   0  0  0  0  0  0  0  0  0  0  0  0
  139.2418   67.8688  224.5346 H   0  0  0  0  0  0  0  0  0  0  0  0
  139.9480   67.6516  226.8074 H   0  0  0  0  0  0  0  0  0  0  0  0
  141.4513   71.1096  228.9201 H   0  0  0  0  0  0  0  0  0  0  0  0
  141.0952   72.5116  226.8735 H   0  0  0  0  0  0  0  0  0  0  0  0
  1  2  2  0
  2  3  1  0
  3  4  1  0
  4  5  1  0
  5  6  2  0
  5  7  1  0
  7  8  1  0
  8  9  1  0
  9 10  1  0
 10 11  1  0
 11 12  1  0
 12 13  2  0
 13 14  1  0
 14 15  2  0
 15 16  1  0
 16 17  2  0
  2 18  1  0
 18 19  2  0
 19 20  1  0
 20 21  2  0
 21 22  1  0
 22 23  2  0
 23 24  1  0
 23 25  1  0
 25 26  2  0
 26 27  1  0
 27 28  2  0
 11  7  1  0
 17 12  1  0
 28 18  1  0
 27 21  1  0
  3 29  1  0
  4 30  1  0
  4 31  1  0
  8 32  1  0
  8 33  1  0
  9 34  1  0
  9 35  1  0
 10 36  1  0
 10 37  1  0
 11 38  1  6
 13 39  1  0
 15 40  1  0
 16 41  1  0
 19 42  1  0
 20 43  1  0
 22 44  1  0
 25 45  1  0
 26 46  1  0
M  END
>  <smiles>  (31) 
O=C(NCC(=O)N1CCCC1c1cnccn1)c1ccc2cc(F)ccc2n1

>  <score_type>  (31) 
oracle

>  <origin>  (31) 
autodockgpu

>  <m_score__min__energy>  (31) 
-8.4600000000000009

>  <m_primary>  (31) 
energy

>  <rmsd>  (31) 
1.8609663524218634

>  <m_score__min__rmsd>  (31) 
1.8609663524218634

>  <meeko>  (31) 
{"free_energy": -7.99, "intermolecular_energy": -9.48, "internal_energy": -1.46, "cluster_size": 38, "cluster_id": 1, "rank_in_cluster": 32}

>  <energy>  (31) 
-8.11

>  <cluster_rmsd>  (31) 
1.07

>  <cluster>  (31) 
1

$$$$

     RDKit          3D

 46 49  0  0  0  0  0  0  0  0999 V2000
  141.2100   72.0200  221.5230 O   0  0  0  0  0  0  0  0  0  0  0  0
  140.4010   72.2730  222.4550 C   0  0  0  0  0  0  0  0  0  0  0  0
  139.6160   73.4750  222.3440 N   0  0  0  0  0  0  0  0  0  0  0  0
  139.7460   74.3490  221.2210 C   0  0  0  0  0  0  0  0  0  0  0  0
  139.7710   75.7760  221.5780 C   0  0  0  0  0  0  0  0  0  0  0  0
  138.9170   76.2250  222.3920 O   0  0  0  0  0  0  0  0  0  0  0  0
  140.7720   76.5930  220.9770 N   0  0  0  0  0  0  0  0  0  0  0  0
  142.0650   76.2000  220.4440 C   0  0  0  0  0  0  0  0  0  0  0  0
  142.4090   77.1160  219.3190 C   0  0  0  0  0  0  0  0  0  0  0  0
  141.5060   78.2960  219.5080 C   0  0  0  0  0  0  0  0  0  0  0  0
  140.7030   78.0330  220.7680 C   0  0  2  0  0  0  0  0  0  0  0  0
  141.3690   78.7840  221.8650 C   0  0  0  0  0  0  0  0  0  0  0  0
  141.1870   78.4430  223.1910 C   0  0  0  0  0  0  0  0  0  0  0  0
  141.7920   79.1260  224.1800 N   0  0  0  0  0  0  0  0  0  0  0  0
  142.6070   80.1790  223.9190 C   0  0  0  0  0  0  0  0  0  0  0  0
  142.7960   80.5300  222.5900 C   0  0  0  0  0  0  0  0  0  0  0  0
  142.1820   79.8340  221.6160 N   0  0  0  0  0  0  0  0  0  0  0  0
  140.2280   71.4260  223.6120 C   0  0  0  0  0  0  0  0  0  0  0  0
  139.5700   70.2190  223.4820 C   0  0  0  0  0  0  0  0  0  0  0  0
  139.3890   69.3880  224.5670 C   0  0  0  0  0  0  0  0  0  0  0  0
  139.8770   69.7760  225.7950 C   0  0  0  0  0  0  0  0  0  0  0  0
  139.6990   68.9500  226.8830 C   0  0  0  0  0  0  0  0  0  0  0  0
  140.1930   69.3580  228.0960 C   0  0  0  0  0  0  0  0  0  0  0  0
  140.0180   68.5500  229.1550 F   0  0  0  0  0  0  0  0  0  0  0  0
  140.8610   70.5700  228.2590 C   0  0  0  0  0  0  0  0  0  0  0  0
  141.0300   71.3920  227.1430 C   0  0  0  0  0  0  0  0  0  0  0  0
  140.5370   71.0000  225.8950 C   0  0  0  0  0  0  0  0  0  0  0  0
  140.6940   71.7850  224.8140 N   0  0  0  0  0  0  0  0  0  0  0  0
  138.9310   73.7310  223.0900 H   0  0  0  0  0  0  0  0  0  0  0  0
  140.6833   74.1058  220.6991 H   0  0  0  0  0  0  0  0  0  0  0  0
  138.8591   74.1926  220.5894 H   0  0  0  0  0  0  0  0  0  0  0  0
  142.8296   76.2751  221.2312 H   0  0  0  0  0  0  0  0  0  0  0  0
  142.0260   75.1605  220.0863 H   0  0  0  0  0  0  0  0  0  0  0  0
  143.4644   77.4210  219.3745 H   0  0  0  0  0  0  0  0  0  0  0  0
  142.2761   76.6403  218.3361 H   0  0  0  0  0  0  0  0  0  0  0  0
  142.1009   79.2142  219.6223 H   0  0  0  0  0  0  0  0  0  0  0  0
  140.8454   78.4320  218.6390 H   0  0  0  0  0  0  0  0  0  0  0  0
  139.6513   78.3513  220.7160 H   0  0  0  0  0  0  0  0  0  0  0  0
  140.5336   77.5950  223.4439 H   0  0  0  0  0  0  0  0  0  0  0  0
  143.0996   80.7339  224.7310 H   0  0  0  0  0  0  0  0  0  0  0  0
  143.4481   81.3776  222.3326 H   0  0  0  0  0  0  0  0  0  0  0  0
  139.1843   69.9158  222.4975 H   0  0  0  0  0  0  0  0  0  0  0  0
  138.8624   68.4289  224.4535 H   0  0  0  0  0  0  0  0  0  0  0  0
  139.1745   67.9884  226.7818 H   0  0  0  0  0  0  0  0  0  0  0  0
  141.2462   70.8722  229.2440 H   0  0  0  0  0  0  0  0  0  0  0  0
  141.5541   72.3536  227.2465 H   0  0  0  0  0  0  0  0  0  0  0  0
  1  2  2  0
  2  3  1  0
  3  4  1  0
  4  5  1  0
  5  6  2  0
  5  7  1  0
  7  8  1  0
  8  9  1  0
  9 10  1  0
 10 11  1  0
 11 12  1  0
 12 13  2  0
 13 14  1  0
 14 15  2  0
 15 16  1  0
 16 17  2  0
  2 18  1  0
 18 19  2  0
 19 20  1  0
 20 21  2  0
 21 22  1  0
 22 23  2  0
 23 24  1  0
 23 25  1  0
 25 26  2  0
 26 27  1  0
 27 28  2  0
 11  7  1  0
 17 12  1  0
 28 18  1  0
 27 21  1  0
  3 29  1  0
  4 30  1  0
  4 31  1  0
  8 32  1  0
  8 33  1  0
  9 34  1  0
  9 35  1  0
 10 36  1  0
 10 37  1  0
 11 38  1  6
 13 39  1  0
 15 40  1  0
 16 41  1  0
 19 42  1  0
 20 43  1  0
 22 44  1  0
 25 45  1  0
 26 46  1  0
M  END
>  <smiles>  (32) 
O=C(NCC(=O)N1CCCC1c1cnccn1)c1ccc2cc(F)ccc2n1

>  <score_type>  (32) 
oracle

>  <origin>  (32) 
autodockgpu

>  <m_score__min__energy>  (32) 
-8.4600000000000009

>  <m_primary>  (32) 
energy

>  <rmsd>  (32) 
2.08657975032547

>  <m_score__min__rmsd>  (32) 
2.08657975032547

>  <meeko>  (32) 
{"free_energy": -8.45, "intermolecular_energy": -9.94, "internal_energy": -1.33, "cluster_size": 38, "cluster_id": 1, "rank_in_cluster": 6}

>  <energy>  (32) 
-7.99

>  <cluster_rmsd>  (32) 
0.71

>  <cluster>  (32) 
1

$$$$

     RDKit          3D

 46 49  0  0  0  0  0  0  0  0999 V2000
  141.2990   72.8820  222.0590 O   0  0  0  0  0  0  0  0  0  0  0  0
  140.2440   72.6320  222.7010 C   0  0  0  0  0  0  0  0  0  0  0  0
  139.0610   73.3730  222.3470 N   0  0  0  0  0  0  0  0  0  0  0  0
  139.0790   74.3550  221.3100 C   0  0  0  0  0  0  0  0  0  0  0  0
  139.4480   75.7020  221.7720 C   0  0  0  0  0  0  0  0  0  0  0  0
  138.7580   76.2600  222.6710 O   0  0  0  0  0  0  0  0  0  0  0  0
  140.5840   76.3200  221.1740 N   0  0  0  0  0  0  0  0  0  0  0  0
  141.8680   75.7280  220.8380 C   0  0  0  0  0  0  0  0  0  0  0  0
  142.4120   76.4320  219.6410 C   0  0  0  0  0  0  0  0  0  0  0  0
  141.6340   77.7100  219.5730 C   0  0  0  0  0  0  0  0  0  0  0  0
  140.6960   77.7140  220.7650 C   0  0  2  0  0  0  0  0  0  0  0  0
  141.3410   78.5490  221.8140 C   0  0  0  0  0  0  0  0  0  0  0  0
  141.2560   78.2220  223.1540 C   0  0  0  0  0  0  0  0  0  0  0  0
  141.8410   78.9810  224.0980 N   0  0  0  0  0  0  0  0  0  0  0  0
  142.5410   80.0990  223.7780 C   0  0  0  0  0  0  0  0  0  0  0  0
  142.6310   80.4350  222.4350 C   0  0  0  0  0  0  0  0  0  0  0  0
  142.0390   79.6640  221.5050 N   0  0  0  0  0  0  0  0  0  0  0  0
  140.1680   71.6510  223.7570 C   0  0  0  0  0  0  0  0  0  0  0  0
  139.5710   70.4300  223.5150 C   0  0  0  0  0  0  0  0  0  0  0  0
  139.4830   69.4720  224.5020 C   0  0  0  0  0  0  0  0  0  0  0  0
  140.0040   69.7470  225.7480 C   0  0  0  0  0  0  0  0  0  0  0  0
  139.9180   68.7940  226.7380 C   0  0  0  0  0  0  0  0  0  0  0  0
  140.4440   69.0890  227.9710 C   0  0  0  0  0  0  0  0  0  0  0  0
  140.3600   68.1590  228.9360 F   0  0  0  0  0  0  0  0  0  0  0  0
  141.0530   70.3120  228.2470 C   0  0  0  0  0  0  0  0  0  0  0  0
  141.1280   71.2640  227.2280 C   0  0  0  0  0  0  0  0  0  0  0  0
  140.6010   70.9880  225.9630 C   0  0  0  0  0  0  0  0  0  0  0  0
  140.6670   71.8980  224.9740 N   0  0  0  0  0  0  0  0  0  0  0  0
  138.1600   73.2030  222.8490 H   0  0  0  0  0  0  0  0  0  0  0  0
  139.8054   74.0395  220.5466 H   0  0  0  0  0  0  0  0  0  0  0  0
  138.0544   74.4220  220.9154 H   0  0  0  0  0  0  0  0  0  0  0  0
  142.5623   75.8420  221.6835 H   0  0  0  0  0  0  0  0  0  0  0  0
  141.7454   74.6562  220.6229 H   0  0  0  0  0  0  0  0  0  0  0  0
  143.4858   76.6364  219.7646 H   0  0  0  0  0  0  0  0  0  0  0  0
  142.3150   75.8334  218.7232 H   0  0  0  0  0  0  0  0  0  0  0  0
  142.3156   78.5718  219.6242 H   0  0  0  0  0  0  0  0  0  0  0  0
  141.0740   77.7822  218.6290 H   0  0  0  0  0  0  0  0  0  0  0  0
  139.6955   78.1225  220.5599 H   0  0  0  0  0  0  0  0  0  0  0  0
  140.6986   77.3227  223.4548 H   0  0  0  0  0  0  0  0  0  0  0  0
  143.0187   80.7152  224.5540 H   0  0  0  0  0  0  0  0  0  0  0  0
  143.1875   81.3335  222.1300 H   0  0  0  0  0  0  0  0  0  0  0  0
  139.1585   70.2181  222.5175 H   0  0  0  0  0  0  0  0  0  0  0  0
  139.0043   68.5028  224.2984 H   0  0  0  0  0  0  0  0  0  0  0  0
  139.4404   67.8219  226.5459 H   0  0  0  0  0  0  0  0  0  0  0  0
  141.4652   70.5225  229.2449 H   0  0  0  0  0  0  0  0  0  0  0  0
  141.6044   72.2364  227.4218 H   0  0  0  0  0  0  0  0  0  0  0  0
  1  2  2  0
  2  3  1  0
  3  4  1  0
  4  5  1  0
  5  6  2  0
  5  7  1  0
  7  8  1  0
  8  9  1  0
  9 10  1  0
 10 11  1  0
 11 12  1  0
 12 13  2  0
 13 14  1  0
 14 15  2  0
 15 16  1  0
 16 17  2  0
  2 18  1  0
 18 19  2  0
 19 20  1  0
 20 21  2  0
 21 22  1  0
 22 23  2  0
 23 24  1  0
 23 25  1  0
 25 26  2  0
 26 27  1  0
 27 28  2  0
 11  7  1  0
 17 12  1  0
 28 18  1  0
 27 21  1  0
  3 29  1  0
  4 30  1  0
  4 31  1  0
  8 32  1  0
  8 33  1  0
  9 34  1  0
  9 35  1  0
 10 36  1  0
 10 37  1  0
 11 38  1  6
 13 39  1  0
 15 40  1  0
 16 41  1  0
 19 42  1  0
 20 43  1  0
 22 44  1  0
 25 45  1  0
 26 46  1  0
M  END
>  <smiles>  (33) 
O=C(NCC(=O)N1CCCC1c1cnccn1)c1ccc2cc(F)ccc2n1

>  <score_type>  (33) 
oracle

>  <origin>  (33) 
autodockgpu

>  <m_score__min__energy>  (33) 
-8.4600000000000009

>  <m_primary>  (33) 
energy

>  <rmsd>  (33) 
2.0320415501042346

>  <m_score__min__rmsd>  (33) 
2.0320415501042346

>  <meeko>  (33) 
{"free_energy": -8.4, "intermolecular_energy": -9.89, "internal_energy": -1.24, "cluster_size": 38, "cluster_id": 1, "rank_in_cluster": 18}

>  <energy>  (33) 
-7.95

>  <cluster_rmsd>  (33) 
0.67

>  <cluster>  (33) 
1

$$$$

     RDKit          3D

 46 49  0  0  0  0  0  0  0  0999 V2000
  137.3660   75.3540  222.1750 O   0  0  0  0  0  0  0  0  0  0  0  0
  138.5830   75.6390  222.3320 C   0  0  0  0  0  0  0  0  0  0  0  0
  139.5340   74.5620  222.2340 N   0  0  0  0  0  0  0  0  0  0  0  0
  139.1170   73.2200  221.9720 C   0  0  0  0  0  0  0  0  0  0  0  0
  139.9380   72.1990  222.6410 C   0  0  0  0  0  0  0  0  0  0  0  0
  141.1780   72.1520  222.4090 O   0  0  0  0  0  0  0  0  0  0  0  0
  139.2820   71.3000  223.5310 N   0  0  0  0  0  0  0  0  0  0  0  0
  137.8730   71.2360  223.8820 C   0  0  0  0  0  0  0  0  0  0  0  0
  137.5270   69.8170  224.1810 C   0  0  0  0  0  0  0  0  0  0  0  0
  138.8480   69.1520  224.4230 C   0  0  0  0  0  0  0  0  0  0  0  0
  139.9080   70.2310  224.2960 C   0  0  2  0  0  0  0  0  0  0  0  0
  140.2450   70.6630  225.6790 C   0  0  0  0  0  0  0  0  0  0  0  0
  139.9830   69.8610  226.7730 C   0  0  0  0  0  0  0  0  0  0  0  0
  140.2910   70.2580  228.0210 N   0  0  0  0  0  0  0  0  0  0  0  0
  140.8710   71.4600  228.2620 C   0  0  0  0  0  0  0  0  0  0  0  0
  141.1380   72.2730  227.1690 C   0  0  0  0  0  0  0  0  0  0  0  0
  140.8230   71.8590  225.9280 N   0  0  0  0  0  0  0  0  0  0  0  0
  139.0610   76.9750  222.5990 C   0  0  0  0  0  0  0  0  0  0  0  0
  138.1570   78.0110  222.7220 C   0  0  0  0  0  0  0  0  0  0  0  0
  138.5800   79.2980  222.9770 C   0  0  0  0  0  0  0  0  0  0  0  0
  139.9300   79.5430  223.1110 C   0  0  0  0  0  0  0  0  0  0  0  0
  140.3590   80.8260  223.3660 C   0  0  0  0  0  0  0  0  0  0  0  0
  141.7070   81.0470  223.4960 C   0  0  0  0  0  0  0  0  0  0  0  0
  142.1240   82.2990  223.7450 F   0  0  0  0  0  0  0  0  0  0  0  0
  142.6450   80.0220  223.3770 C   0  0  0  0  0  0  0  0  0  0  0  0
  142.1870   78.7280  223.1170 C   0  0  0  0  0  0  0  0  0  0  0  0
  140.8180   78.4760  222.9820 C   0  0  0  0  0  0  0  0  0  0  0  0
  140.3670   77.2340  222.7320 N   0  0  0  0  0  0  0  0  0  0  0  0
  140.5550   74.7440  222.3560 H   0  0  0  0  0  0  0  0  0  0  0  0
  138.0776   73.1073  222.3141 H   0  0  0  0  0  0  0  0  0  0  0  0
  139.2255   73.0577  220.8895 H   0  0  0  0  0  0  0  0  0  0  0  0
  137.6820   71.8596  224.7678 H   0  0  0  0  0  0  0  0  0  0  0  0
  137.2585   71.6076  223.0488 H   0  0  0  0  0  0  0  0  0  0  0  0
  136.8895   69.7523  225.0751 H   0  0  0  0  0  0  0  0  0  0  0  0
  136.9632   69.3427  223.3641 H   0  0  0  0  0  0  0  0  0  0  0  0
  138.8726   68.7130  225.4313 H   0  0  0  0  0  0  0  0  0  0  0  0
  139.0208   68.3400  223.7013 H   0  0  0  0  0  0  0  0  0  0  0  0
  140.8331   69.9091  223.7954 H   0  0  0  0  0  0  0  0  0  0  0  0
  139.5132   68.8781  226.6206 H   0  0  0  0  0  0  0  0  0  0  0  0
  141.1204   71.7786  229.2849 H   0  0  0  0  0  0  0  0  0  0  0  0
  141.6075   73.2566  227.3175 H   0  0  0  0  0  0  0  0  0  0  0  0
  137.0816   77.8062  222.6148 H   0  0  0  0  0  0  0  0  0  0  0  0
  137.8516   80.1168  223.0721 H   0  0  0  0  0  0  0  0  0  0  0  0
  139.6398   81.6526  223.4630 H   0  0  0  0  0  0  0  0  0  0  0  0
  143.7202   80.2275  223.4853 H   0  0  0  0  0  0  0  0  0  0  0  0
  142.9073   77.9026  223.0179 H   0  0  0  0  0  0  0  0  0  0  0  0
  1  2  2  0
  2  3  1  0
  3  4  1  0
  4  5  1  0
  5  6  2  0
  5  7  1  0
  7  8  1  0
  8  9  1  0
  9 10  1  0
 10 11  1  0
 11 12  1  0
 12 13  2  0
 13 14  1  0
 14 15  2  0
 15 16  1  0
 16 17  2  0
  2 18  1  0
 18 19  2  0
 19 20  1  0
 20 21  2  0
 21 22  1  0
 22 23  2  0
 23 24  1  0
 23 25  1  0
 25 26  2  0
 26 27  1  0
 27 28  2  0
 11  7  1  0
 17 12  1  0
 28 18  1  0
 27 21  1  0
  3 29  1  0
  4 30  1  0
  4 31  1  0
  8 32  1  0
  8 33  1  0
  9 34  1  0
  9 35  1  0
 10 36  1  0
 10 37  1  0
 11 38  1  6
 13 39  1  0
 15 40  1  0
 16 41  1  0
 19 42  1  0
 20 43  1  0
 22 44  1  0
 25 45  1  0
 26 46  1  0
M  END
>  <smiles>  (34) 
O=C(NCC(=O)N1CCCC1c1cnccn1)c1ccc2cc(F)ccc2n1

>  <score_type>  (34) 
oracle

>  <origin>  (34) 
autodockgpu

>  <m_score__min__energy>  (34) 
-8.4600000000000009

>  <m_primary>  (34) 
energy

>  <rmsd>  (34) 
8.736421586547312

>  <m_score__min__rmsd>  (34) 
8.736421586547312

>  <meeko>  (34) 
{"free_energy": -7.55, "intermolecular_energy": -9.04, "internal_energy": -1.58, "cluster_size": 8, "cluster_id": 2, "rank_in_cluster": 8}

>  <energy>  (34) 
-7.94

>  <cluster_rmsd>  (34) 
0.74

>  <cluster>  (34) 
1

$$$$

     RDKit          3D

 46 49  0  0  0  0  0  0  0  0999 V2000
  141.0390   72.3720  221.5690 O   0  0  0  0  0  0  0  0  0  0  0  0
  140.1550   72.4130  222.4660 C   0  0  0  0  0  0  0  0  0  0  0  0
  139.1300   73.4160  222.3410 N   0  0  0  0  0  0  0  0  0  0  0  0
  139.1120   74.3320  221.2440 C   0  0  0  0  0  0  0  0  0  0  0  0
  139.4070   75.7220  221.6240 C   0  0  0  0  0  0  0  0  0  0  0  0
  138.6100   76.3390  222.3840 O   0  0  0  0  0  0  0  0  0  0  0  0
  140.5970   76.3120  221.1070 N   0  0  0  0  0  0  0  0  0  0  0  0
  141.8830   75.6870  220.8510 C   0  0  0  0  0  0  0  0  0  0  0  0
  142.5240   76.3830  219.6990 C   0  0  0  0  0  0  0  0  0  0  0  0
  141.7870   77.6830  219.5900 C   0  0  0  0  0  0  0  0  0  0  0  0
  140.7730   77.7050  220.7180 C   0  0  2  0  0  0  0  0  0  0  0  0
  141.3700   78.5150  221.8140 C   0  0  0  0  0  0  0  0  0  0  0  0
  142.0680   79.6790  221.5570 C   0  0  0  0  0  0  0  0  0  0  0  0
  142.6060   80.4070  222.5520 N   0  0  0  0  0  0  0  0  0  0  0  0
  142.4860   80.0320  223.8510 C   0  0  0  0  0  0  0  0  0  0  0  0
  141.7870   78.8640  224.1190 C   0  0  0  0  0  0  0  0  0  0  0  0
  141.2570   78.1490  223.1100 N   0  0  0  0  0  0  0  0  0  0  0  0
  140.1240   71.5140  223.5960 C   0  0  0  0  0  0  0  0  0  0  0  0
  139.5990   70.2460  223.4460 C   0  0  0  0  0  0  0  0  0  0  0  0
  139.5550   69.3650  224.5040 C   0  0  0  0  0  0  0  0  0  0  0  0
  140.0460   69.7650  225.7280 C   0  0  0  0  0  0  0  0  0  0  0  0
  140.0050   68.8880  226.7900 C   0  0  0  0  0  0  0  0  0  0  0  0
  140.5000   69.3080  227.9990 C   0  0  0  0  0  0  0  0  0  0  0  0
  140.4590   68.4520  229.0330 F   0  0  0  0  0  0  0  0  0  0  0  0
  141.0360   70.5820  228.1820 C   0  0  0  0  0  0  0  0  0  0  0  0
  141.0670   71.4540  227.0920 C   0  0  0  0  0  0  0  0  0  0  0  0
  140.5710   71.0510  225.8490 C   0  0  0  0  0  0  0  0  0  0  0  0
  140.5960   71.8840  224.7930 N   0  0  0  0  0  0  0  0  0  0  0  0
  138.3740   73.4930  223.0580 H   0  0  0  0  0  0  0  0  0  0  0  0
  139.8630   74.0070  220.5089 H   0  0  0  0  0  0  0  0  0  0  0  0
  138.0904   74.3222  220.8362 H   0  0  0  0  0  0  0  0  0  0  0  0
  142.5229   75.7758  221.7413 H   0  0  0  0  0  0  0  0  0  0  0  0
  141.7452   74.6206  220.6189 H   0  0  0  0  0  0  0  0  0  0  0  0
  143.5923   76.5568  219.8951 H   0  0  0  0  0  0  0  0  0  0  0  0
  142.4719   75.7932  218.7719 H   0  0  0  0  0  0  0  0  0  0  0  0
  142.4869   78.5254  219.6929 H   0  0  0  0  0  0  0  0  0  0  0  0
  141.2928   77.7769  218.6118 H   0  0  0  0  0  0  0  0  0  0  0  0
  139.7995   78.1422  220.4513 H   0  0  0  0  0  0  0  0  0  0  0  0
  142.1863   80.0176  220.5171 H   0  0  0  0  0  0  0  0  0  0  0  0
  142.9265   80.6318  224.6610 H   0  0  0  0  0  0  0  0  0  0  0  0
  141.6660   78.5221  225.1575 H   0  0  0  0  0  0  0  0  0  0  0  0
  139.2095   69.9341  222.4657 H   0  0  0  0  0  0  0  0  0  0  0  0
  139.1341   68.3571  224.3738 H   0  0  0  0  0  0  0  0  0  0  0  0
  139.5864   67.8776  226.6718 H   0  0  0  0  0  0  0  0  0  0  0  0
  141.4255   70.8930  229.1626 H   0  0  0  0  0  0  0  0  0  0  0  0
  141.4844   72.4646  227.2123 H   0  0  0  0  0  0  0  0  0  0  0  0
  1  2  2  0
  2  3  1  0
  3  4  1  0
  4  5  1  0
  5  6  2  0
  5  7  1  0
  7  8  1  0
  8  9  1  0
  9 10  1  0
 10 11  1  0
 11 12  1  0
 12 13  2  0
 13 14  1  0
 14 15  2  0
 15 16  1  0
 16 17  2  0
  2 18  1  0
 18 19  2  0
 19 20  1  0
 20 21  2  0
 21 22  1  0
 22 23  2  0
 23 24  1  0
 23 25  1  0
 25 26  2  0
 26 27  1  0
 27 28  2  0
 11  7  1  0
 17 12  1  0
 28 18  1  0
 27 21  1  0
  3 29  1  0
  4 30  1  0
  4 31  1  0
  8 32  1  0
  8 33  1  0
  9 34  1  0
  9 35  1  0
 10 36  1  0
 10 37  1  0
 11 38  1  6
 13 39  1  0
 15 40  1  0
 16 41  1  0
 19 42  1  0
 20 43  1  0
 22 44  1  0
 25 45  1  0
 26 46  1  0
M  END
>  <smiles>  (35) 
O=C(NCC(=O)N1CCCC1c1cnccn1)c1ccc2cc(F)ccc2n1

>  <score_type>  (35) 
oracle

>  <origin>  (35) 
autodockgpu

>  <m_score__min__energy>  (35) 
-8.4600000000000009

>  <m_primary>  (35) 
energy

>  <rmsd>  (35) 
1.9650961063394987

>  <m_score__min__rmsd>  (35) 
1.9650961063394987

>  <meeko>  (35) 
{"free_energy": -8.39, "intermolecular_energy": -9.88, "internal_energy": -1.32, "cluster_size": 38, "cluster_id": 1, "rank_in_cluster": 19}

>  <energy>  (35) 
-7.94

>  <cluster_rmsd>  (35) 
0.95

>  <cluster>  (35) 
1

$$$$

     RDKit          3D

 46 49  0  0  0  0  0  0  0  0999 V2000
  140.6070   71.5400  221.1460 O   0  0  0  0  0  0  0  0  0  0  0  0
  140.2320   71.9800  222.2660 C   0  0  0  0  0  0  0  0  0  0  0  0
  139.8770   73.3740  222.3450 N   0  0  0  0  0  0  0  0  0  0  0  0
  139.9480   74.2280  221.2020 C   0  0  0  0  0  0  0  0  0  0  0  0
  139.9080   75.6620  221.5260 C   0  0  0  0  0  0  0  0  0  0  0  0
  139.0250   76.0930  222.3190 O   0  0  0  0  0  0  0  0  0  0  0  0
  140.8830   76.5060  220.9200 N   0  0  0  0  0  0  0  0  0  0  0  0
  142.1860   76.1500  220.3840 C   0  0  0  0  0  0  0  0  0  0  0  0
  142.4990   77.0730  219.2560 C   0  0  0  0  0  0  0  0  0  0  0  0
  141.5630   78.2270  219.4450 C   0  0  0  0  0  0  0  0  0  0  0  0
  140.7710   77.9430  220.7080 C   0  0  2  0  0  0  0  0  0  0  0  0
  141.4190   78.7160  221.8010 C   0  0  0  0  0  0  0  0  0  0  0  0
  141.2750   78.3550  223.1270 C   0  0  0  0  0  0  0  0  0  0  0  0
  141.8630   79.0580  224.1120 N   0  0  0  0  0  0  0  0  0  0  0  0
  142.6230   80.1510  223.8490 C   0  0  0  0  0  0  0  0  0  0  0  0
  142.7720   80.5220  222.5200 C   0  0  0  0  0  0  0  0  0  0  0  0
  142.1760   79.8060  221.5490 N   0  0  0  0  0  0  0  0  0  0  0  0
  140.1420   71.1640  223.4530 C   0  0  0  0  0  0  0  0  0  0  0  0
  139.5490   69.9190  223.3830 C   0  0  0  0  0  0  0  0  0  0  0  0
  139.4470   69.1150  224.4980 C   0  0  0  0  0  0  0  0  0  0  0  0
  139.9490   69.5710  225.6980 C   0  0  0  0  0  0  0  0  0  0  0  0
  139.8510   68.7720  226.8160 C   0  0  0  0  0  0  0  0  0  0  0  0
  140.3580   69.2470  227.9990 C   0  0  0  0  0  0  0  0  0  0  0  0
  140.2610   68.4660  229.0880 F   0  0  0  0  0  0  0  0  0  0  0  0
  140.9610   70.4990  228.1030 C   0  0  0  0  0  0  0  0  0  0  0  0
  141.0500   71.2920  226.9560 C   0  0  0  0  0  0  0  0  0  0  0  0
  140.5420   70.8320  225.7380 C   0  0  0  0  0  0  0  0  0  0  0  0
  140.6220   71.5880  224.6280 N   0  0  0  0  0  0  0  0  0  0  0  0
  139.5600   73.7890  223.2500 H   0  0  0  0  0  0  0  0  0  0  0  0
  140.8886   74.0189  220.6714 H   0  0  0  0  0  0  0  0  0  0  0  0
  139.0604   74.0145  220.5883 H   0  0  0  0  0  0  0  0  0  0  0  0
  142.9504   76.2498  221.1687 H   0  0  0  0  0  0  0  0  0  0  0  0
  142.1771   75.1089  220.0291 H   0  0  0  0  0  0  0  0  0  0  0  0
  143.5453   77.4086  219.3071 H   0  0  0  0  0  0  0  0  0  0  0  0
  142.3762   76.5911  218.2748 H   0  0  0  0  0  0  0  0  0  0  0  0
  142.1315   79.1621  219.5561 H   0  0  0  0  0  0  0  0  0  0  0  0
  140.8967   78.3425  218.5774 H   0  0  0  0  0  0  0  0  0  0  0  0
  139.7101   78.2296  220.6586 H   0  0  0  0  0  0  0  0  0  0  0  0
  140.6670   77.4746  223.3826 H   0  0  0  0  0  0  0  0  0  0  0  0
  143.1026   80.7212  224.6582 H   0  0  0  0  0  0  0  0  0  0  0  0
  143.3780   81.4024  222.2601 H   0  0  0  0  0  0  0  0  0  0  0  0
  139.1513   69.5628  222.4213 H   0  0  0  0  0  0  0  0  0  0  0  0
  138.9724   68.1249  224.4312 H   0  0  0  0  0  0  0  0  0  0  0  0
  139.3790   67.7799  226.7616 H   0  0  0  0  0  0  0  0  0  0  0  0
  141.3576   70.8546  229.0654 H   0  0  0  0  0  0  0  0  0  0  0  0
  141.5225   72.2838  227.0120 H   0  0  0  0  0  0  0  0  0  0  0  0
  1  2  2  0
  2  3  1  0
  3  4  1  0
  4  5  1  0
  5  6  2  0
  5  7  1  0
  7  8  1  0
  8  9  1  0
  9 10  1  0
 10 11  1  0
 11 12  1  0
 12 13  2  0
 13 14  1  0
 14 15  2  0
 15 16  1  0
 16 17  2  0
  2 18  1  0
 18 19  2  0
 19 20  1  0
 20 21  2  0
 21 22  1  0
 22 23  2  0
 23 24  1  0
 23 25  1  0
 25 26  2  0
 26 27  1  0
 27 28  2  0
 11  7  1  0
 17 12  1  0
 28 18  1  0
 27 21  1  0
  3 29  1  0
  4 30  1  0
  4 31  1  0
  8 32  1  0
  8 33  1  0
  9 34  1  0
  9 35  1  0
 10 36  1  0
 10 37  1  0
 11 38  1  6
 13 39  1  0
 15 40  1  0
 16 41  1  0
 19 42  1  0
 20 43  1  0
 22 44  1  0
 25 45  1  0
 26 46  1  0
M  END
>  <smiles>  (36) 
O=C(NCC(=O)N1CCCC1c1cnccn1)c1ccc2cc(F)ccc2n1

>  <score_type>  (36) 
oracle

>  <origin>  (36) 
autodockgpu

>  <m_score__min__energy>  (36) 
-8.4600000000000009

>  <m_primary>  (36) 
energy

>  <rmsd>  (36) 
2.03510513928033

>  <m_score__min__rmsd>  (36) 
2.03510513928033

>  <meeko>  (36) 
{"free_energy": -8.28, "intermolecular_energy": -9.78, "internal_energy": -1.41, "cluster_size": 38, "cluster_id": 1, "rank_in_cluster": 26}

>  <energy>  (36) 
-7.77

>  <cluster_rmsd>  (36) 
1.27

>  <cluster>  (36) 
1

$$$$

     RDKit          3D

 46 49  0  0  0  0  0  0  0  0999 V2000
  141.1430   72.0050  221.3490 O   0  0  0  0  0  0  0  0  0  0  0  0
  140.4470   72.3420  222.3430 C   0  0  0  0  0  0  0  0  0  0  0  0
  139.8160   73.6360  222.3030 N   0  0  0  0  0  0  0  0  0  0  0  0
  139.9730   74.5070  221.1810 C   0  0  0  0  0  0  0  0  0  0  0  0
  139.8770   75.9360  221.5170 C   0  0  0  0  0  0  0  0  0  0  0  0
  138.9950   76.3210  222.3350 O   0  0  0  0  0  0  0  0  0  0  0  0
  140.7970   76.8280  220.8940 N   0  0  0  0  0  0  0  0  0  0  0  0
  142.0860   76.5290  220.2950 C   0  0  0  0  0  0  0  0  0  0  0  0
  142.3220   77.4900  219.1800 C   0  0  0  0  0  0  0  0  0  0  0  0
  141.3570   78.6070  219.4400 C   0  0  0  0  0  0  0  0  0  0  0  0
  140.6300   78.2650  220.7260 C   0  0  2  0  0  0  0  0  0  0  0  0
  141.2980   79.0310  221.8120 C   0  0  0  0  0  0  0  0  0  0  0  0
  141.9760   80.2070  221.5580 C   0  0  0  0  0  0  0  0  0  0  0  0
  142.5790   80.8950  222.5440 N   0  0  0  0  0  0  0  0  0  0  0  0
  142.5480   80.4660  223.8310 C   0  0  0  0  0  0  0  0  0  0  0  0
  141.8700   79.2850  224.0970 C   0  0  0  0  0  0  0  0  0  0  0  0
  141.2740   78.6110  223.0960 N   0  0  0  0  0  0  0  0  0  0  0  0
  140.2540   71.5040  223.5030 C   0  0  0  0  0  0  0  0  0  0  0  0
  139.6090   70.2900  223.3690 C   0  0  0  0  0  0  0  0  0  0  0  0
  139.4090   69.4670  224.4560 C   0  0  0  0  0  0  0  0  0  0  0  0
  139.8660   69.8700  225.6920 C   0  0  0  0  0  0  0  0  0  0  0  0
  139.6700   69.0510  226.7820 C   0  0  0  0  0  0  0  0  0  0  0  0
  140.1330   69.4730  228.0030 C   0  0  0  0  0  0  0  0  0  0  0  0
  139.9410   68.6730  229.0650 F   0  0  0  0  0  0  0  0  0  0  0  0
  140.7890   70.6920  228.1710 C   0  0  0  0  0  0  0  0  0  0  0  0
  140.9760   71.5060  227.0520 C   0  0  0  0  0  0  0  0  0  0  0  0
  140.5150   71.1000  225.7960 C   0  0  0  0  0  0  0  0  0  0  0  0
  140.6900   71.8760  224.7120 N   0  0  0  0  0  0  0  0  0  0  0  0
  139.2280   73.9640  223.1010 H   0  0  0  0  0  0  0  0  0  0  0  0
  140.9612   74.3219  220.7346 H   0  0  0  0  0  0  0  0  0  0  0  0
  139.1480   74.2861  220.4877 H   0  0  0  0  0  0  0  0  0  0  0  0
  142.8794   76.6337  221.0497 H   0  0  0  0  0  0  0  0  0  0  0  0
  142.0946   75.4976  219.9127 H   0  0  0  0  0  0  0  0  0  0  0  0
  143.3582   77.8589  219.1969 H   0  0  0  0  0  0  0  0  0  0  0  0
  142.1745   77.0300  218.1917 H   0  0  0  0  0  0  0  0  0  0  0  0
  141.8989   79.5576  219.5523 H   0  0  0  0  0  0  0  0  0  0  0  0
  140.6504   78.7216  218.6048 H   0  0  0  0  0  0  0  0  0  0  0  0
  139.5594   78.5176  220.7287 H   0  0  0  0  0  0  0  0  0  0  0  0
  142.0239   80.5891  220.5276 H   0  0  0  0  0  0  0  0  0  0  0  0
  143.0420   81.0334  224.6335 H   0  0  0  0  0  0  0  0  0  0  0  0
  141.8196   78.8996  225.1260 H   0  0  0  0  0  0  0  0  0  0  0  0
  139.2491   69.9750  222.3784 H   0  0  0  0  0  0  0  0  0  0  0  0
  138.8924   68.5030  224.3388 H   0  0  0  0  0  0  0  0  0  0  0  0
  139.1559   68.0842  226.6766 H   0  0  0  0  0  0  0  0  0  0  0  0
  141.1506   71.0049  229.1616 H   0  0  0  0  0  0  0  0  0  0  0  0
  141.4893   72.4729  227.1593 H   0  0  0  0  0  0  0  0  0  0  0  0
  1  2  2  0
  2  3  1  0
  3  4  1  0
  4  5  1  0
  5  6  2  0
  5  7  1  0
  7  8  1  0
  8  9  1  0
  9 10  1  0
 10 11  1  0
 11 12  1  0
 12 13  2  0
 13 14  1  0
 14 15  2  0
 15 16  1  0
 16 17  2  0
  2 18  1  0
 18 19  2  0
 19 20  1  0
 20 21  2  0
 21 22  1  0
 22 23  2  0
 23 24  1  0
 23 25  1  0
 25 26  2  0
 26 27  1  0
 27 28  2  0
 11  7  1  0
 17 12  1  0
 28 18  1  0
 27 21  1  0
  3 29  1  0
  4 30  1  0
  4 31  1  0
  8 32  1  0
  8 33  1  0
  9 34  1  0
  9 35  1  0
 10 36  1  0
 10 37  1  0
 11 38  1  6
 13 39  1  0
 15 40  1  0
 16 41  1  0
 19 42  1  0
 20 43  1  0
 22 44  1  0
 25 45  1  0
 26 46  1  0
M  END
>  <smiles>  (37) 
O=C(NCC(=O)N1CCCC1c1cnccn1)c1ccc2cc(F)ccc2n1

>  <score_type>  (37) 
oracle

>  <origin>  (37) 
autodockgpu

>  <m_score__min__energy>  (37) 
-8.4600000000000009

>  <m_primary>  (37) 
energy

>  <rmsd>  (37) 
2.102542706030314

>  <m_score__min__rmsd>  (37) 
2.102542706030314

>  <meeko>  (37) 
{"free_energy": -8.35, "intermolecular_energy": -9.84, "internal_energy": -1.44, "cluster_size": 38, "cluster_id": 1, "rank_in_cluster": 22}

>  <energy>  (37) 
-7.49

>  <cluster_rmsd>  (37) 
1.99

>  <cluster>  (37) 
1

$$$$

     RDKit          3D

 46 49  0  0  0  0  0  0  0  0999 V2000
  138.2140   72.1440  222.6070 O   0  0  0  0  0  0  0  0  0  0  0  0
  139.3410   71.6360  222.8540 C   0  0  0  0  0  0  0  0  0  0  0  0
  140.4250   71.9640  221.9650 N   0  0  0  0  0  0  0  0  0  0  0  0
  140.2340   72.8310  220.8450 C   0  0  0  0  0  0  0  0  0  0  0  0
  140.7620   74.1890  221.0460 C   0  0  0  0  0  0  0  0  0  0  0  0
  140.3030   74.9000  221.9830 O   0  0  0  0  0  0  0  0  0  0  0  0
  141.7820   74.6420  220.1590 N   0  0  0  0  0  0  0  0  0  0  0  0
  141.6610   75.0500  218.7700 C   0  0  0  0  0  0  0  0  0  0  0  0
  142.6940   76.0890  218.4930 C   0  0  0  0  0  0  0  0  0  0  0  0
  143.6790   75.9450  219.6120 C   0  0  0  0  0  0  0  0  0  0  0  0
  143.1960   74.7930  220.4730 C   0  0  2  0  0  0  0  0  0  0  0  0
  143.9840   73.5980  220.0670 C   0  0  0  0  0  0  0  0  0  0  0  0
  145.2490   73.7140  219.5250 C   0  0  0  0  0  0  0  0  0  0  0  0
  145.9560   72.6290  219.1600 N   0  0  0  0  0  0  0  0  0  0  0  0
  145.4600   71.3750  219.3070 C   0  0  0  0  0  0  0  0  0  0  0  0
  144.1890   71.2480  219.8500 C   0  0  0  0  0  0  0  0  0  0  0  0
  143.4970   72.3450  220.2090 N   0  0  0  0  0  0  0  0  0  0  0  0
  139.5900   70.7550  223.9700 C   0  0  0  0  0  0  0  0  0  0  0  0
  139.1970   69.4330  223.8980 C   0  0  0  0  0  0  0  0  0  0  0  0
  139.4200   68.5660  224.9460 C   0  0  0  0  0  0  0  0  0  0  0  0
  140.0480   69.0350  226.0790 C   0  0  0  0  0  0  0  0  0  0  0  0
  140.2740   68.1740  227.1300 C   0  0  0  0  0  0  0  0  0  0  0  0
  140.9010   68.6640  228.2480 C   0  0  0  0  0  0  0  0  0  0  0  0
  141.1210   67.8220  229.2710 F   0  0  0  0  0  0  0  0  0  0  0  0
  141.3100   69.9920  228.3520 C   0  0  0  0  0  0  0  0  0  0  0  0
  141.0700   70.8480  227.2740 C   0  0  0  0  0  0  0  0  0  0  0  0
  140.4340   70.3750  226.1230 C   0  0  0  0  0  0  0  0  0  0  0  0
  140.1980   71.1910  225.0800 N   0  0  0  0  0  0  0  0  0  0  0  0
  141.3790   71.5700  222.1250 H   0  0  0  0  0  0  0  0  0  0  0  0
  140.7394   72.3882  219.9741 H   0  0  0  0  0  0  0  0  0  0  0  0
  139.1482   72.9289  220.6984 H   0  0  0  0  0  0  0  0  0  0  0  0
  141.8209   74.1826  218.1127 H   0  0  0  0  0  0  0  0  0  0  0  0
  140.6563   75.4563  218.5816 H   0  0  0  0  0  0  0  0  0  0  0  0
  143.1785   75.9067  217.5224 H   0  0  0  0  0  0  0  0  0  0  0  0
  142.2661   77.1010  218.4396 H   0  0  0  0  0  0  0  0  0  0  0  0
  144.6792   75.7248  219.2106 H   0  0  0  0  0  0  0  0  0  0  0  0
  143.7508   76.8734  220.1976 H   0  0  0  0  0  0  0  0  0  0  0  0
  143.3220   74.9442  221.5553 H   0  0  0  0  0  0  0  0  0  0  0  0
  145.6874   74.7137  219.3890 H   0  0  0  0  0  0  0  0  0  0  0  0
  146.0433   70.4919  219.0071 H   0  0  0  0  0  0  0  0  0  0  0  0
  143.7470   70.2501  219.9870 H   0  0  0  0  0  0  0  0  0  0  0  0
  138.6977   69.0659  222.9892 H   0  0  0  0  0  0  0  0  0  0  0  0
  139.1013   67.5153  224.8788 H   0  0  0  0  0  0  0  0  0  0  0  0
  139.9601   67.1212  227.0747 H   0  0  0  0  0  0  0  0  0  0  0  0
  141.8099   70.3577  229.2611 H   0  0  0  0  0  0  0  0  0  0  0  0
  141.3836   71.9008  227.3317 H   0  0  0  0  0  0  0  0  0  0  0  0
  1  2  2  0
  2  3  1  0
  3  4  1  0
  4  5  1  0
  5  6  2  0
  5  7  1  0
  7  8  1  0
  8  9  1  0
  9 10  1  0
 10 11  1  0
 11 12  1  0
 12 13  2  0
 13 14  1  0
 14 15  2  0
 15 16  1  0
 16 17  2  0
  2 18  1  0
 18 19  2  0
 19 20  1  0
 20 21  2  0
 21 22  1  0
 22 23  2  0
 23 24  1  0
 23 25  1  0
 25 26  2  0
 26 27  1  0
 27 28  2  0
 11  7  1  0
 17 12  1  0
 28 18  1  0
 27 21  1  0
  3 29  1  0
  4 30  1  0
  4 31  1  0
  8 32  1  0
  8 33  1  0
  9 34  1  0
  9 35  1  0
 10 36  1  0
 10 37  1  0
 11 38  1  1
 13 39  1  0
 15 40  1  0
 16 41  1  0
 19 42  1  0
 20 43  1  0
 22 44  1  0
 25 45  1  0
 26 46  1  0
M  END
>  <smiles>  (38) 
O=C(NCC(=O)N1CCCC1c1cnccn1)c1ccc2cc(F)ccc2n1

>  <score_type>  (38) 
oracle

>  <origin>  (38) 
autodockgpu

>  <m_score__min__energy>  (38) 
-8.4600000000000009

>  <m_primary>  (38) 
energy

>  <rmsd>  (38) 
3.8851528596631835

>  <m_score__min__rmsd>  (38) 
3.8851528596631835

>  <meeko>  (38) 
{"free_energy": -7.82, "intermolecular_energy": -9.32, "internal_energy": -1.33, "cluster_size": 4, "cluster_id": 3, "rank_in_cluster": 2}

>  <energy>  (38) 
-7.44

>  <cluster_rmsd>  (38) 
1.76

>  <cluster>  (38) 
1

$$$$

     RDKit          3D

 46 49  0  0  0  0  0  0  0  0999 V2000
  141.1890   72.1280  221.5000 O   0  0  0  0  0  0  0  0  0  0  0  0
  140.3810   72.3660  222.4360 C   0  0  0  0  0  0  0  0  0  0  0  0
  139.5770   73.5570  222.3330 N   0  0  0  0  0  0  0  0  0  0  0  0
  139.6910   74.4370  221.2130 C   0  0  0  0  0  0  0  0  0  0  0  0
  139.7370   75.8620  221.5770 C   0  0  0  0  0  0  0  0  0  0  0  0
  138.8960   76.3170  222.4020 O   0  0  0  0  0  0  0  0  0  0  0  0
  140.7420   76.6690  220.9720 N   0  0  0  0  0  0  0  0  0  0  0  0
  142.0410   76.2680  220.4580 C   0  0  0  0  0  0  0  0  0  0  0  0
  142.3950   77.1650  219.3210 C   0  0  0  0  0  0  0  0  0  0  0  0
  141.4890   78.3480  219.4810 C   0  0  0  0  0  0  0  0  0  0  0  0
  140.6740   78.1050  220.7370 C   0  0  2  0  0  0  0  0  0  0  0  0
  141.3290   78.8760  221.8280 C   0  0  0  0  0  0  0  0  0  0  0  0
  142.0400   80.0320  221.5710 C   0  0  0  0  0  0  0  0  0  0  0  0
  142.6310   80.7250  222.5620 N   0  0  0  0  0  0  0  0  0  0  0  0
  142.5540   80.3210  223.8550 C   0  0  0  0  0  0  0  0  0  0  0  0
  141.8420   79.1610  224.1220 C   0  0  0  0  0  0  0  0  0  0  0  0
  141.2590   78.4810  223.1180 N   0  0  0  0  0  0  0  0  0  0  0  0
  140.2250   71.5120  223.5910 C   0  0  0  0  0  0  0  0  0  0  0  0
  139.5790   70.2990  223.4610 C   0  0  0  0  0  0  0  0  0  0  0  0
  139.4140   69.4620  224.5430 C   0  0  0  0  0  0  0  0  0  0  0  0
  139.9060   69.8500  225.7700 C   0  0  0  0  0  0  0  0  0  0  0  0
  139.7440   69.0180  226.8550 C   0  0  0  0  0  0  0  0  0  0  0  0
  140.2430   69.4260  228.0670 C   0  0  0  0  0  0  0  0  0  0  0  0
  140.0840   68.6120  229.1240 F   0  0  0  0  0  0  0  0  0  0  0  0
  140.8990   70.6440  228.2300 C   0  0  0  0  0  0  0  0  0  0  0  0
  141.0510   71.4730  227.1160 C   0  0  0  0  0  0  0  0  0  0  0  0
  140.5540   71.0810  225.8700 C   0  0  0  0  0  0  0  0  0  0  0  0
  140.6950   71.8720  224.7910 N   0  0  0  0  0  0  0  0  0  0  0  0
  138.8920   73.8000  223.0820 H   0  0  0  0  0  0  0  0  0  0  0  0
  140.6145   74.1883  220.6696 H   0  0  0  0  0  0  0  0  0  0  0  0
  138.7889   74.2928  220.6003 H   0  0  0  0  0  0  0  0  0  0  0  0
  142.7980   76.3573  221.2511 H   0  0  0  0  0  0  0  0  0  0  0  0
  142.0063   75.2225  220.1177 H   0  0  0  0  0  0  0  0  0  0  0  0
  143.4496   77.4718  219.3814 H   0  0  0  0  0  0  0  0  0  0  0  0
  142.2718   76.6724  218.3452 H   0  0  0  0  0  0  0  0  0  0  0  0
  142.0821   79.2685  219.5859 H   0  0  0  0  0  0  0  0  0  0  0  0
  140.8372   78.4692  218.6032 H   0  0  0  0  0  0  0  0  0  0  0  0
  139.6225   78.4206  220.6687 H   0  0  0  0  0  0  0  0  0  0  0  0
  142.1249   80.3935  220.5356 H   0  0  0  0  0  0  0  0  0  0  0  0
  143.0380   80.8919  224.6611 H   0  0  0  0  0  0  0  0  0  0  0  0
  141.7538   78.7965  225.1561 H   0  0  0  0  0  0  0  0  0  0  0  0
  139.1897   69.9958  222.4779 H   0  0  0  0  0  0  0  0  0  0  0  0
  138.8969   68.4979  224.4288 H   0  0  0  0  0  0  0  0  0  0  0  0
  139.2283   68.0517  226.7533 H   0  0  0  0  0  0  0  0  0  0  0  0
  141.2884   70.9461  229.2134 H   0  0  0  0  0  0  0  0  0  0  0  0
  141.5649   72.4400  227.2201 H   0  0  0  0  0  0  0  0  0  0  0  0
  1  2  2  0
  2  3  1  0
  3  4  1  0
  4  5  1  0
  5  6  2  0
  5  7  1  0
  7  8  1  0
  8  9  1  0
  9 10  1  0
 10 11  1  0
 11 12  1  0
 12 13  2  0
 13 14  1  0
 14 15  2  0
 15 16  1  0
 16 17  2  0
  2 18  1  0
 18 19  2  0
 19 20  1  0
 20 21  2  0
 21 22  1  0
 22 23  2  0
 23 24  1  0
 23 25  1  0
 25 26  2  0
 26 27  1  0
 27 28  2  0
 11  7  1  0
 17 12  1  0
 28 18  1  0
 27 21  1  0
  3 29  1  0
  4 30  1  0
  4 31  1  0
  8 32  1  0
  8 33  1  0
  9 34  1  0
  9 35  1  0
 10 36  1  0
 10 37  1  0
 11 38  1  6
 13 39  1  0
 15 40  1  0
 16 41  1  0
 19 42  1  0
 20 43  1  0
 22 44  1  0
 25 45  1  0
 26 46  1  0
M  END
>  <smiles>  (39) 
O=C(NCC(=O)N1CCCC1c1cnccn1)c1ccc2cc(F)ccc2n1

>  <score_type>  (39) 
oracle

>  <origin>  (39) 
autodockgpu

>  <m_score__min__energy>  (39) 
-8.4600000000000009

>  <m_primary>  (39) 
energy

>  <rmsd>  (39) 
2.0486882844374668

>  <m_score__min__rmsd>  (39) 
2.0486882844374668

>  <meeko>  (39) 
{"free_energy": -8.46, "intermolecular_energy": -9.95, "internal_energy": -1.36, "cluster_size": 38, "cluster_id": 1, "rank_in_cluster": 2}

>  <energy>  (39) 
-8.16

>  <cluster_rmsd>  (39) 
0.0

>  <cluster>  (39) 
2

$$$$

     RDKit          3D

 46 49  0  0  0  0  0  0  0  0999 V2000
  141.3500   72.3310  221.7430 O   0  0  0  0  0  0  0  0  0  0  0  0
  140.3970   72.4210  222.5630 C   0  0  0  0  0  0  0  0  0  0  0  0
  139.4310   73.4660  222.3460 N   0  0  0  0  0  0  0  0  0  0  0  0
  139.5450   74.3700  221.2450 C   0  0  0  0  0  0  0  0  0  0  0  0
  139.6440   75.7830  221.6410 C   0  0  0  0  0  0  0  0  0  0  0  0
  138.8540   76.2370  222.5150 O   0  0  0  0  0  0  0  0  0  0  0  0
  140.6420   76.5800  221.0100 N   0  0  0  0  0  0  0  0  0  0  0  0
  141.9300   76.1700  220.4790 C   0  0  0  0  0  0  0  0  0  0  0  0
  142.2670   77.0540  219.3260 C   0  0  0  0  0  0  0  0  0  0  0  0
  141.3690   78.2410  219.4900 C   0  0  0  0  0  0  0  0  0  0  0  0
  140.5750   78.0140  220.7630 C   0  0  2  0  0  0  0  0  0  0  0  0
  141.2510   78.7940  221.8340 C   0  0  0  0  0  0  0  0  0  0  0  0
  141.9650   79.9420  221.5530 C   0  0  0  0  0  0  0  0  0  0  0  0
  142.5760   80.6430  222.5260 N   0  0  0  0  0  0  0  0  0  0  0  0
  142.5170   80.2540  223.8250 C   0  0  0  0  0  0  0  0  0  0  0  0
  141.8020   79.1010  224.1170 C   0  0  0  0  0  0  0  0  0  0  0  0
  141.1990   78.4140  223.1300 N   0  0  0  0  0  0  0  0  0  0  0  0
  140.2330   71.5360  223.6930 C   0  0  0  0  0  0  0  0  0  0  0  0
  139.5880   70.3270  223.5250 C   0  0  0  0  0  0  0  0  0  0  0  0
  139.4150   69.4610  224.5830 C   0  0  0  0  0  0  0  0  0  0  0  0
  139.8980   69.8160  225.8240 C   0  0  0  0  0  0  0  0  0  0  0  0
  139.7280   68.9550  226.8850 C   0  0  0  0  0  0  0  0  0  0  0  0
  140.2180   69.3290  228.1110 C   0  0  0  0  0  0  0  0  0  0  0  0
  140.0510   68.4880  229.1440 F   0  0  0  0  0  0  0  0  0  0  0  0
  140.8730   70.5430  228.3120 C   0  0  0  0  0  0  0  0  0  0  0  0
  141.0330   71.4020  227.2220 C   0  0  0  0  0  0  0  0  0  0  0  0
  140.5450   71.0430  225.9620 C   0  0  0  0  0  0  0  0  0  0  0  0
  140.6940   71.8630  224.9060 N   0  0  0  0  0  0  0  0  0  0  0  0
  138.6230   73.5830  222.9970 H   0  0  0  0  0  0  0  0  0  0  0  0
  140.4469   74.1068  220.6729 H   0  0  0  0  0  0  0  0  0  0  0  0
  138.6239   74.2686  220.6523 H   0  0  0  0  0  0  0  0  0  0  0  0
  142.7005   76.2658  221.2582 H   0  0  0  0  0  0  0  0  0  0  0  0
  141.8869   75.1210  220.1509 H   0  0  0  0  0  0  0  0  0  0  0  0
  143.3236   77.3574  219.3643 H   0  0  0  0  0  0  0  0  0  0  0  0
  142.1246   76.5518  218.3577 H   0  0  0  0  0  0  0  0  0  0  0  0
  141.9673   79.1602  219.5751 H   0  0  0  0  0  0  0  0  0  0  0  0
  140.7022   78.3557  218.6227 H   0  0  0  0  0  0  0  0  0  0  0  0
  139.5235   78.3329  220.7110 H   0  0  0  0  0  0  0  0  0  0  0  0
  142.0359   80.2909  220.5122 H   0  0  0  0  0  0  0  0  0  0  0  0
  143.0172   80.8311  224.6167 H   0  0  0  0  0  0  0  0  0  0  0  0
  141.7283   78.7485  225.1564 H   0  0  0  0  0  0  0  0  0  0  0  0
  139.2062   70.0506  222.5311 H   0  0  0  0  0  0  0  0  0  0  0  0
  138.8989   68.5003  224.4390 H   0  0  0  0  0  0  0  0  0  0  0  0
  139.2127   67.9922  226.7532 H   0  0  0  0  0  0  0  0  0  0  0  0
  141.2551   70.8183  229.3061 H   0  0  0  0  0  0  0  0  0  0  0  0
  141.5457   72.3660  227.3558 H   0  0  0  0  0  0  0  0  0  0  0  0
  1  2  2  0
  2  3  1  0
  3  4  1  0
  4  5  1  0
  5  6  2  0
  5  7  1  0
  7  8  1  0
  8  9  1  0
  9 10  1  0
 10 11  1  0
 11 12  1  0
 12 13  2  0
 13 14  1  0
 14 15  2  0
 15 16  1  0
 16 17  2  0
  2 18  1  0
 18 19  2  0
 19 20  1  0
 20 21  2  0
 21 22  1  0
 22 23  2  0
 23 24  1  0
 23 25  1  0
 25 26  2  0
 26 27  1  0
 27 28  2  0
 11  7  1  0
 17 12  1  0
 28 18  1  0
 27 21  1  0
  3 29  1  0
  4 30  1  0
  4 31  1  0
  8 32  1  0
  8 33  1  0
  9 34  1  0
  9 35  1  0
 10 36  1  0
 10 37  1  0
 11 38  1  6
 13 39  1  0
 15 40  1  0
 16 41  1  0
 19 42  1  0
 20 43  1  0
 22 44  1  0
 25 45  1  0
 26 46  1  0
M  END
>  <smiles>  (40) 
O=C(NCC(=O)N1CCCC1c1cnccn1)c1ccc2cc(F)ccc2n1

>  <score_type>  (40) 
oracle

>  <origin>  (40) 
autodockgpu

>  <m_score__min__energy>  (40) 
-8.4600000000000009

>  <m_primary>  (40) 
energy

>  <rmsd>  (40) 
2.010562619389122

>  <m_score__min__rmsd>  (40) 
2.010562619389122

>  <meeko>  (40) 
{"free_energy": -8.45, "intermolecular_energy": -9.94, "internal_energy": -1.32, "cluster_size": 38, "cluster_id": 1, "rank_in_cluster": 5}

>  <energy>  (40) 
-8.12

>  <cluster_rmsd>  (40) 
0.14

>  <cluster>  (40) 
2

$$$$

     RDKit          3D

 46 49  0  0  0  0  0  0  0  0999 V2000
  141.0730   73.7860  220.5010 O   0  0  0  0  0  0  0  0  0  0  0  0
  140.5350   74.6150  221.2830 C   0  0  0  0  0  0  0  0  0  0  0  0
  139.4700   74.1360  222.1260 N   0  0  0  0  0  0  0  0  0  0  0  0
  139.0360   72.7760  222.0790 C   0  0  0  0  0  0  0  0  0  0  0  0
  139.9490   71.8360  222.7480 C   0  0  0  0  0  0  0  0  0  0  0  0
  141.1680   71.8160  222.4180 O   0  0  0  0  0  0  0  0  0  0  0  0
  139.4050   70.9830  223.7520 N   0  0  0  0  0  0  0  0  0  0  0  0
  138.0160   70.8150  224.1440 C   0  0  0  0  0  0  0  0  0  0  0  0
  137.8260   69.4110  224.6110 C   0  0  0  0  0  0  0  0  0  0  0  0
  139.2130   68.9190  224.8920 C   0  0  0  0  0  0  0  0  0  0  0  0
  140.1510   70.0790  224.6160 C   0  0  2  0  0  0  0  0  0  0  0  0
  140.4610   70.7000  225.9320 C   0  0  0  0  0  0  0  0  0  0  0  0
  140.0470   70.1270  227.1190 C   0  0  0  0  0  0  0  0  0  0  0  0
  140.3300   70.6940  228.3060 N   0  0  0  0  0  0  0  0  0  0  0  0
  141.0330   71.8510  228.3910 C   0  0  0  0  0  0  0  0  0  0  0  0
  141.4530   72.4350  227.2030 C   0  0  0  0  0  0  0  0  0  0  0  0
  141.1600   71.8530  226.0260 N   0  0  0  0  0  0  0  0  0  0  0  0
  140.9320   76.0000  221.3720 C   0  0  0  0  0  0  0  0  0  0  0  0
  141.5830   76.5930  220.3080 C   0  0  0  0  0  0  0  0  0  0  0  0
  141.9750   77.9130  220.3610 C   0  0  0  0  0  0  0  0  0  0  0  0
  141.7070   78.6450  221.4980 C   0  0  0  0  0  0  0  0  0  0  0  0
  142.0970   79.9650  221.5570 C   0  0  0  0  0  0  0  0  0  0  0  0
  141.8190   80.6740  222.6990 C   0  0  0  0  0  0  0  0  0  0  0  0
  142.2000   81.9600  222.7540 F   0  0  0  0  0  0  0  0  0  0  0  0
  141.1640   80.1040  223.7890 C   0  0  0  0  0  0  0  0  0  0  0  0
  140.7790   78.7630  223.7070 C   0  0  0  0  0  0  0  0  0  0  0  0
  141.0480   78.0190  222.5550 C   0  0  0  0  0  0  0  0  0  0  0  0
  140.6820   76.7280  222.4660 N   0  0  0  0  0  0  0  0  0  0  0  0
  138.9900   74.7830  222.7920 H   0  0  0  0  0  0  0  0  0  0  0  0
  138.0520   72.7093  222.5662 H   0  0  0  0  0  0  0  0  0  0  0  0
  139.0019   72.4879  221.0179 H   0  0  0  0  0  0  0  0  0  0  0  0
  137.7724   71.5136  224.9580 H   0  0  0  0  0  0  0  0  0  0  0  0
  137.3542   71.0226  223.2902 H   0  0  0  0  0  0  0  0  0  0  0  0
  137.2116   69.3842  225.5230 H   0  0  0  0  0  0  0  0  0  0  0  0
  137.3040   68.7898  223.8683 H   0  0  0  0  0  0  0  0  0  0  0  0
  139.2981   68.6043  225.9426 H   0  0  0  0  0  0  0  0  0  0  0  0
  139.4604   68.0515  224.2625 H   0  0  0  0  0  0  0  0  0  0  0  0
  141.0973   69.7983  224.1306 H   0  0  0  0  0  0  0  0  0  0  0  0
  139.4744   69.1882  227.0932 H   0  0  0  0  0  0  0  0  0  0  0  0
  141.2618   72.3095  229.3644 H   0  0  0  0  0  0  0  0  0  0  0  0
  142.0256   73.3740  227.2244 H   0  0  0  0  0  0  0  0  0  0  0  0
  141.7919   76.0022  219.4039 H   0  0  0  0  0  0  0  0  0  0  0  0
  142.4941   78.3758  219.5087 H   0  0  0  0  0  0  0  0  0  0  0  0
  142.6174   80.4383  220.7113 H   0  0  0  0  0  0  0  0  0  0  0  0
  140.9550   80.6955  224.6925 H   0  0  0  0  0  0  0  0  0  0  0  0
  140.2610   78.2902  224.5545 H   0  0  0  0  0  0  0  0  0  0  0  0
  1  2  2  0
  2  3  1  0
  3  4  1  0
  4  5  1  0
  5  6  2  0
  5  7  1  0
  7  8  1  0
  8  9  1  0
  9 10  1  0
 10 11  1  0
 11 12  1  0
 12 13  2  0
 13 14  1  0
 14 15  2  0
 15 16  1  0
 16 17  2  0
  2 18  1  0
 18 19  2  0
 19 20  1  0
 20 21  2  0
 21 22  1  0
 22 23  2  0
 23 24  1  0
 23 25  1  0
 25 26  2  0
 26 27  1  0
 27 28  2  0
 11  7  1  0
 17 12  1  0
 28 18  1  0
 27 21  1  0
  3 29  1  0
  4 30  1  0
  4 31  1  0
  8 32  1  0
  8 33  1  0
  9 34  1  0
  9 35  1  0
 10 36  1  0
 10 37  1  0
 11 38  1  6
 13 39  1  0
 15 40  1  0
 16 41  1  0
 19 42  1  0
 20 43  1  0
 22 44  1  0
 25 45  1  0
 26 46  1  0
M  END
>  <smiles>  (41) 
O=C(NCC(=O)N1CCCC1c1cnccn1)c1ccc2cc(F)ccc2n1

>  <score_type>  (41) 
oracle

>  <origin>  (41) 
autodockgpu

>  <m_score__min__energy>  (41) 
-8.4600000000000009

>  <m_primary>  (41) 
energy

>  <rmsd>  (41) 
8.696338512049168

>  <m_score__min__rmsd>  (41) 
8.696338512049168

>  <meeko>  (41) 
{"free_energy": -8.16, "intermolecular_energy": -9.65, "internal_energy": -1.34, "cluster_size": 8, "cluster_id": 2, "rank_in_cluster": 1}

>  <energy>  (41) 
-8.11

>  <cluster_rmsd>  (41) 
0.13

>  <cluster>  (41) 
2

$$$$

     RDKit          3D

 46 49  0  0  0  0  0  0  0  0999 V2000
  141.1470   72.3990  221.6640 O   0  0  0  0  0  0  0  0  0  0  0  0
  140.2230   72.4160  222.5200 C   0  0  0  0  0  0  0  0  0  0  0  0
  139.1750   73.3890  222.3460 N   0  0  0  0  0  0  0  0  0  0  0  0
  139.1820   74.3020  221.2470 C   0  0  0  0  0  0  0  0  0  0  0  0
  139.4530   75.6960  221.6330 C   0  0  0  0  0  0  0  0  0  0  0  0
  138.6540   76.2900  222.4100 O   0  0  0  0  0  0  0  0  0  0  0  0
  140.6210   76.3160  221.1020 N   0  0  0  0  0  0  0  0  0  0  0  0
  141.9180   75.7210  220.8260 C   0  0  0  0  0  0  0  0  0  0  0  0
  142.5260   76.4360  219.6680 C   0  0  0  0  0  0  0  0  0  0  0  0
  141.7580   77.7200  219.5750 C   0  0  0  0  0  0  0  0  0  0  0  0
  140.7600   77.7140  220.7170 C   0  0  2  0  0  0  0  0  0  0  0  0
  141.3530   78.5320  221.8080 C   0  0  0  0  0  0  0  0  0  0  0  0
  141.9880   79.7320  221.5500 C   0  0  0  0  0  0  0  0  0  0  0  0
  142.5230   80.4680  222.5410 N   0  0  0  0  0  0  0  0  0  0  0  0
  142.4630   80.0670  223.8360 C   0  0  0  0  0  0  0  0  0  0  0  0
  141.8270   78.8630  224.1050 C   0  0  0  0  0  0  0  0  0  0  0  0
  141.2990   78.1410  223.1000 N   0  0  0  0  0  0  0  0  0  0  0  0
  140.1660   71.5180  223.6490 C   0  0  0  0  0  0  0  0  0  0  0  0
  139.6070   70.2640  223.4970 C   0  0  0  0  0  0  0  0  0  0  0  0
  139.5380   69.3840  224.5550 C   0  0  0  0  0  0  0  0  0  0  0  0
  140.0390   69.7690  225.7790 C   0  0  0  0  0  0  0  0  0  0  0  0
  139.9730   68.8940  226.8400 C   0  0  0  0  0  0  0  0  0  0  0  0
  140.4780   69.2990  228.0500 C   0  0  0  0  0  0  0  0  0  0  0  0
  140.4130   68.4440  229.0830 F   0  0  0  0  0  0  0  0  0  0  0  0
  141.0490   70.5570  228.2350 C   0  0  0  0  0  0  0  0  0  0  0  0
  141.1050   71.4300  227.1450 C   0  0  0  0  0  0  0  0  0  0  0  0
  140.5980   71.0410  225.9020 C   0  0  0  0  0  0  0  0  0  0  0  0
  140.6470   71.8730  224.8460 N   0  0  0  0  0  0  0  0  0  0  0  0
  138.3860   73.4450  223.0280 H   0  0  0  0  0  0  0  0  0  0  0  0
  139.9578   73.9823  220.5358 H   0  0  0  0  0  0  0  0  0  0  0  0
  138.1735   74.2820  220.8082 H   0  0  0  0  0  0  0  0  0  0  0  0
  142.5681   75.8213  221.7077 H   0  0  0  0  0  0  0  0  0  0  0  0
  141.8019   74.6524  220.5922 H   0  0  0  0  0  0  0  0  0  0  0  0
  143.5929   76.6332  219.8494 H   0  0  0  0  0  0  0  0  0  0  0  0
  142.4736   75.8488  218.7393 H   0  0  0  0  0  0  0  0  0  0  0  0
  142.4400   78.5776  219.6719 H   0  0  0  0  0  0  0  0  0  0  0  0
  141.2482   77.8069  218.6042 H   0  0  0  0  0  0  0  0  0  0  0  0
  139.7733   78.1303  220.4655 H   0  0  0  0  0  0  0  0  0  0  0  0
  142.0575   80.0928  220.5132 H   0  0  0  0  0  0  0  0  0  0  0  0
  142.9018   80.6733  224.6421 H   0  0  0  0  0  0  0  0  0  0  0  0
  141.7546   78.4989  225.1405 H   0  0  0  0  0  0  0  0  0  0  0  0
  139.2107   69.9632  222.5159 H   0  0  0  0  0  0  0  0  0  0  0  0
  139.0892   68.3883  224.4241 H   0  0  0  0  0  0  0  0  0  0  0  0
  139.5268   67.8956  226.7208 H   0  0  0  0  0  0  0  0  0  0  0  0
  141.4464   70.8558  229.2162 H   0  0  0  0  0  0  0  0  0  0  0  0
  141.5504   72.4285  227.2660 H   0  0  0  0  0  0  0  0  0  0  0  0
  1  2  2  0
  2  3  1  0
  3  4  1  0
  4  5  1  0
  5  6  2  0
  5  7  1  0
  7  8  1  0
  8  9  1  0
  9 10  1  0
 10 11  1  0
 11 12  1  0
 12 13  2  0
 13 14  1  0
 14 15  2  0
 15 16  1  0
 16 17  2  0
  2 18  1  0
 18 19  2  0
 19 20  1  0
 20 21  2  0
 21 22  1  0
 22 23  2  0
 23 24  1  0
 23 25  1  0
 25 26  2  0
 26 27  1  0
 27 28  2  0
 11  7  1  0
 17 12  1  0
 28 18  1  0
 27 21  1  0
  3 29  1  0
  4 30  1  0
  4 31  1  0
  8 32  1  0
  8 33  1  0
  9 34  1  0
  9 35  1  0
 10 36  1  0
 10 37  1  0
 11 38  1  6
 13 39  1  0
 15 40  1  0
 16 41  1  0
 19 42  1  0
 20 43  1  0
 22 44  1  0
 25 45  1  0
 26 46  1  0
M  END
>  <smiles>  (42) 
O=C(NCC(=O)N1CCCC1c1cnccn1)c1ccc2cc(F)ccc2n1

>  <score_type>  (42) 
oracle

>  <origin>  (42) 
autodockgpu

>  <m_score__min__energy>  (42) 
-8.4600000000000009

>  <m_primary>  (42) 
energy

>  <rmsd>  (42) 
1.9789271215517934

>  <m_score__min__rmsd>  (42) 
1.9789271215517934

>  <meeko>  (42) 
{"free_energy": -8.42, "intermolecular_energy": -9.91, "internal_energy": -1.31, "cluster_size": 38, "cluster_id": 1, "rank_in_cluster": 13}

>  <energy>  (42) 
-8.1

>  <cluster_rmsd>  (42) 
0.52

>  <cluster>  (42) 
2

$$$$

     RDKit          3D

 46 49  0  0  0  0  0  0  0  0999 V2000
  141.2710   72.7850  221.9750 O   0  0  0  0  0  0  0  0  0  0  0  0
  140.2320   72.5760  222.6560 C   0  0  0  0  0  0  0  0  0  0  0  0
  139.0640   73.3560  222.3390 N   0  0  0  0  0  0  0  0  0  0  0  0
  139.0800   74.3320  221.2950 C   0  0  0  0  0  0  0  0  0  0  0  0
  139.4330   75.6850  221.7500 C   0  0  0  0  0  0  0  0  0  0  0  0
  138.7240   76.2480  222.6300 O   0  0  0  0  0  0  0  0  0  0  0  0
  140.5760   76.3040  221.1650 N   0  0  0  0  0  0  0  0  0  0  0  0
  141.8640   75.7120  220.8450 C   0  0  0  0  0  0  0  0  0  0  0  0
  142.4230   76.4160  219.6550 C   0  0  0  0  0  0  0  0  0  0  0  0
  141.6450   77.6940  219.5770 C   0  0  0  0  0  0  0  0  0  0  0  0
  140.6920   77.6980  220.7580 C   0  0  2  0  0  0  0  0  0  0  0  0
  141.3240   78.5320  221.8150 C   0  0  0  0  0  0  0  0  0  0  0  0
  141.9870   79.7060  221.5110 C   0  0  0  0  0  0  0  0  0  0  0  0
  142.5570   80.4560  222.4710 N   0  0  0  0  0  0  0  0  0  0  0  0
  142.5060   80.0970  223.7780 C   0  0  0  0  0  0  0  0  0  0  0  0
  141.8420   78.9190  224.0930 C   0  0  0  0  0  0  0  0  0  0  0  0
  141.2790   78.1820  223.1190 N   0  0  0  0  0  0  0  0  0  0  0  0
  140.1590   71.6040  223.7220 C   0  0  0  0  0  0  0  0  0  0  0  0
  139.5810   70.3730  223.4860 C   0  0  0  0  0  0  0  0  0  0  0  0
  139.4960   69.4240  224.4810 C   0  0  0  0  0  0  0  0  0  0  0  0
  140.0010   69.7180  225.7290 C   0  0  0  0  0  0  0  0  0  0  0  0
  139.9190   68.7740  226.7290 C   0  0  0  0  0  0  0  0  0  0  0  0
  140.4290   69.0890  227.9630 C   0  0  0  0  0  0  0  0  0  0  0  0
  140.3480   68.1670  228.9370 F   0  0  0  0  0  0  0  0  0  0  0  0
  141.0180   70.3230  228.2330 C   0  0  0  0  0  0  0  0  0  0  0  0
  141.0900   71.2660  227.2050 C   0  0  0  0  0  0  0  0  0  0  0  0
  140.5800   70.9700  225.9380 C   0  0  0  0  0  0  0  0  0  0  0  0
  140.6430   71.8700  224.9410 N   0  0  0  0  0  0  0  0  0  0  0  0
  138.1760   73.2220  222.8740 H   0  0  0  0  0  0  0  0  0  0  0  0
  139.8145   74.0182  220.5387 H   0  0  0  0  0  0  0  0  0  0  0  0
  138.0575   74.3867  220.8932 H   0  0  0  0  0  0  0  0  0  0  0  0
  142.5477   75.8259  221.6991 H   0  0  0  0  0  0  0  0  0  0  0  0
  141.7440   74.6403  220.6283 H   0  0  0  0  0  0  0  0  0  0  0  0
  143.4950   76.6209  219.7923 H   0  0  0  0  0  0  0  0  0  0  0  0
  142.3381   75.8173  218.7361 H   0  0  0  0  0  0  0  0  0  0  0  0
  142.3255   78.5562  219.6363 H   0  0  0  0  0  0  0  0  0  0  0  0
  141.0966   77.7656  218.6262 H   0  0  0  0  0  0  0  0  0  0  0  0
  139.6942   78.1068  220.5408 H   0  0  0  0  0  0  0  0  0  0  0  0
  142.0497   80.0336  220.4628 H   0  0  0  0  0  0  0  0  0  0  0  0
  142.9729   80.7155  224.5586 H   0  0  0  0  0  0  0  0  0  0  0  0
  141.7764   78.5882  225.1400 H   0  0  0  0  0  0  0  0  0  0  0  0
  139.1815   70.1459  222.4866 H   0  0  0  0  0  0  0  0  0  0  0  0
  139.0321   68.4466  224.2823 H   0  0  0  0  0  0  0  0  0  0  0  0
  139.4567   67.7934  226.5429 H   0  0  0  0  0  0  0  0  0  0  0  0
  141.4171   70.5491  229.2328 H   0  0  0  0  0  0  0  0  0  0  0  0
  141.5506   72.2469  227.3938 H   0  0  0  0  0  0  0  0  0  0  0  0
  1  2  2  0
  2  3  1  0
  3  4  1  0
  4  5  1  0
  5  6  2  0
  5  7  1  0
  7  8  1  0
  8  9  1  0
  9 10  1  0
 10 11  1  0
 11 12  1  0
 12 13  2  0
 13 14  1  0
 14 15  2  0
 15 16  1  0
 16 17  2  0
  2 18  1  0
 18 19  2  0
 19 20  1  0
 20 21  2  0
 21 22  1  0
 22 23  2  0
 23 24  1  0
 23 25  1  0
 25 26  2  0
 26 27  1  0
 27 28  2  0
 11  7  1  0
 17 12  1  0
 28 18  1  0
 27 21  1  0
  3 29  1  0
  4 30  1  0
  4 31  1  0
  8 32  1  0
  8 33  1  0
  9 34  1  0
  9 35  1  0
 10 36  1  0
 10 37  1  0
 11 38  1  6
 13 39  1  0
 15 40  1  0
 16 41  1  0
 19 42  1  0
 20 43  1  0
 22 44  1  0
 25 45  1  0
 26 46  1  0
M  END
>  <smiles>  (43) 
O=C(NCC(=O)N1CCCC1c1cnccn1)c1ccc2cc(F)ccc2n1

>  <score_type>  (43) 
oracle

>  <origin>  (43) 
autodockgpu

>  <m_score__min__energy>  (43) 
-8.4600000000000009

>  <m_primary>  (43) 
energy

>  <rmsd>  (43) 
1.9827925885691942

>  <m_score__min__rmsd>  (43) 
1.9827925885691942

>  <meeko>  (43) 
{"free_energy": -8.42, "intermolecular_energy": -9.91, "internal_energy": -1.31, "cluster_size": 38, "cluster_id": 1, "rank_in_cluster": 14}

>  <energy>  (43) 
-8.08

>  <cluster_rmsd>  (43) 
0.52

>  <cluster>  (43) 
2

$$$$

     RDKit          3D

 46 49  0  0  0  0  0  0  0  0999 V2000
  140.7780   73.8450  220.4080 O   0  0  0  0  0  0  0  0  0  0  0  0
  140.3940   74.6500  221.2970 C   0  0  0  0  0  0  0  0  0  0  0  0
  139.4540   74.1620  222.2730 N   0  0  0  0  0  0  0  0  0  0  0  0
  138.9740   72.8170  222.2370 C   0  0  0  0  0  0  0  0  0  0  0  0
  139.9300   71.8280  222.7590 C   0  0  0  0  0  0  0  0  0  0  0  0
  141.1170   71.8280  222.3290 O   0  0  0  0  0  0  0  0  0  0  0  0
  139.4610   70.9060  223.7390 N   0  0  0  0  0  0  0  0  0  0  0  0
  138.0910   70.5840  224.1010 C   0  0  0  0  0  0  0  0  0  0  0  0
  138.0430   69.1610  224.5440 C   0  0  0  0  0  0  0  0  0  0  0  0
  139.4700   68.8150  224.8460 C   0  0  0  0  0  0  0  0  0  0  0  0
  140.2840   70.0720  224.6060 C   0  0  2  0  0  0  0  0  0  0  0  0
  140.5010   70.7020  225.9350 C   0  0  0  0  0  0  0  0  0  0  0  0
  141.2760   71.8360  226.0820 C   0  0  0  0  0  0  0  0  0  0  0  0
  141.4690   72.4010  227.2880 N   0  0  0  0  0  0  0  0  0  0  0  0
  140.9110   71.8840  228.4120 C   0  0  0  0  0  0  0  0  0  0  0  0
  140.1310   70.7450  228.2750 C   0  0  0  0  0  0  0  0  0  0  0  0
  139.9500   70.1940  227.0600 N   0  0  0  0  0  0  0  0  0  0  0  0
  140.8460   76.0190  221.3810 C   0  0  0  0  0  0  0  0  0  0  0  0
  141.6990   76.5170  220.4170 C   0  0  0  0  0  0  0  0  0  0  0  0
  142.1490   77.8190  220.4690 C   0  0  0  0  0  0  0  0  0  0  0  0
  141.7320   78.6290  221.5030 C   0  0  0  0  0  0  0  0  0  0  0  0
  142.1780   79.9310  221.5600 C   0  0  0  0  0  0  0  0  0  0  0  0
  141.7500   80.7190  222.5990 C   0  0  0  0  0  0  0  0  0  0  0  0
  142.1860   81.9880  222.6520 F   0  0  0  0  0  0  0  0  0  0  0  0
  140.8890   80.2460  223.5870 C   0  0  0  0  0  0  0  0  0  0  0  0
  140.4500   78.9220  223.5100 C   0  0  0  0  0  0  0  0  0  0  0  0
  140.8700   78.0980  222.4610 C   0  0  0  0  0  0  0  0  0  0  0  0
  140.4540   76.8220  222.3770 N   0  0  0  0  0  0  0  0  0  0  0  0
  139.1040   74.7890  223.0310 H   0  0  0  0  0  0  0  0  0  0  0  0
  138.0549   72.7612  222.8388 H   0  0  0  0  0  0  0  0  0  0  0  0
  138.8026   72.5677  221.1794 H   0  0  0  0  0  0  0  0  0  0  0  0
  137.7593   71.2394  224.9198 H   0  0  0  0  0  0  0  0  0  0  0  0
  137.4268   70.7333  223.2369 H   0  0  0  0  0  0  0  0  0  0  0  0
  137.4182   69.0543  225.4430 H   0  0  0  0  0  0  0  0  0  0  0  0
  137.6039   68.4998  223.7824 H   0  0  0  0  0  0  0  0  0  0  0  0
  139.5686   68.4938  225.8934 H   0  0  0  0  0  0  0  0  0  0  0  0
  139.8201   67.9895  224.2088 H   0  0  0  0  0  0  0  0  0  0  0  0
  141.2640   69.9005  224.1368 H   0  0  0  0  0  0  0  0  0  0  0  0
  141.7451   72.2865  225.1949 H   0  0  0  0  0  0  0  0  0  0  0  0
  141.0713   72.3508  229.3951 H   0  0  0  0  0  0  0  0  0  0  0  0
  139.6600   70.2917  229.1597 H   0  0  0  0  0  0  0  0  0  0  0  0
  142.0251   75.8643  219.5938 H   0  0  0  0  0  0  0  0  0  0  0  0
  142.8305   78.2055  219.6969 H   0  0  0  0  0  0  0  0  0  0  0  0
  142.8591   80.3286  220.7932 H   0  0  0  0  0  0  0  0  0  0  0  0
  140.5624   80.9001  224.4089 H   0  0  0  0  0  0  0  0  0  0  0  0
  139.7703   78.5255  224.2786 H   0  0  0  0  0  0  0  0  0  0  0  0
  1  2  2  0
  2  3  1  0
  3  4  1  0
  4  5  1  0
  5  6  2  0
  5  7  1  0
  7  8  1  0
  8  9  1  0
  9 10  1  0
 10 11  1  0
 11 12  1  0
 12 13  2  0
 13 14  1  0
 14 15  2  0
 15 16  1  0
 16 17  2  0
  2 18  1  0
 18 19  2  0
 19 20  1  0
 20 21  2  0
 21 22  1  0
 22 23  2  0
 23 24  1  0
 23 25  1  0
 25 26  2  0
 26 27  1  0
 27 28  2  0
 11  7  1  0
 17 12  1  0
 28 18  1  0
 27 21  1  0
  3 29  1  0
  4 30  1  0
  4 31  1  0
  8 32  1  0
  8 33  1  0
  9 34  1  0
  9 35  1  0
 10 36  1  0
 10 37  1  0
 11 38  1  6
 13 39  1  0
 15 40  1  0
 16 41  1  0
 19 42  1  0
 20 43  1  0
 22 44  1  0
 25 45  1  0
 26 46  1  0
M  END
>  <smiles>  (44) 
O=C(NCC(=O)N1CCCC1c1cnccn1)c1ccc2cc(F)ccc2n1

>  <score_type>  (44) 
oracle

>  <origin>  (44) 
autodockgpu

>  <m_score__min__energy>  (44) 
-8.4600000000000009

>  <m_primary>  (44) 
energy

>  <rmsd>  (44) 
8.913932718930548

>  <m_score__min__rmsd>  (44) 
8.913932718930548

>  <meeko>  (44) 
{"free_energy": -8.03, "intermolecular_energy": -9.53, "internal_energy": -1.39, "cluster_size": 8, "cluster_id": 2, "rank_in_cluster": 6}

>  <energy>  (44) 
-8.03

>  <cluster_rmsd>  (44) 
0.54

>  <cluster>  (44) 
2

$$$$

     RDKit          3D

 46 49  0  0  0  0  0  0  0  0999 V2000
  141.1720   72.0920  221.4910 O   0  0  0  0  0  0  0  0  0  0  0  0
  140.3740   72.3420  222.4340 C   0  0  0  0  0  0  0  0  0  0  0  0
  139.5890   73.5460  222.3370 N   0  0  0  0  0  0  0  0  0  0  0  0
  139.7090   74.4250  221.2170 C   0  0  0  0  0  0  0  0  0  0  0  0
  139.7500   75.8500  221.5800 C   0  0  0  0  0  0  0  0  0  0  0  0
  138.9070   76.3030  222.4050 O   0  0  0  0  0  0  0  0  0  0  0  0
  140.7530   76.6610  220.9750 N   0  0  0  0  0  0  0  0  0  0  0  0
  142.0550   76.2640  220.4650 C   0  0  0  0  0  0  0  0  0  0  0  0
  142.4070   77.1590  219.3260 C   0  0  0  0  0  0  0  0  0  0  0  0
  141.4950   78.3380  219.4810 C   0  0  0  0  0  0  0  0  0  0  0  0
  140.6780   78.0960  220.7360 C   0  0  2  0  0  0  0  0  0  0  0  0
  141.3270   78.8730  221.8250 C   0  0  0  0  0  0  0  0  0  0  0  0
  142.0210   80.0400  221.5680 C   0  0  0  0  0  0  0  0  0  0  0  0
  142.6070   80.7380  222.5580 N   0  0  0  0  0  0  0  0  0  0  0  0
  142.5420   80.3300  223.8500 C   0  0  0  0  0  0  0  0  0  0  0  0
  141.8470   79.1590  224.1180 C   0  0  0  0  0  0  0  0  0  0  0  0
  141.2680   78.4740  223.1150 N   0  0  0  0  0  0  0  0  0  0  0  0
  140.2130   71.4900  223.5890 C   0  0  0  0  0  0  0  0  0  0  0  0
  139.5630   70.2790  223.4590 C   0  0  0  0  0  0  0  0  0  0  0  0
  139.3930   69.4430  224.5410 C   0  0  0  0  0  0  0  0  0  0  0  0
  139.8850   69.8310  225.7680 C   0  0  0  0  0  0  0  0  0  0  0  0
  139.7180   69.0000  226.8540 C   0  0  0  0  0  0  0  0  0  0  0  0
  140.2160   69.4070  228.0660 C   0  0  0  0  0  0  0  0  0  0  0  0
  140.0520   68.5950  229.1240 F   0  0  0  0  0  0  0  0  0  0  0  0
  140.8760   70.6240  228.2300 C   0  0  0  0  0  0  0  0  0  0  0  0
  141.0330   71.4510  227.1160 C   0  0  0  0  0  0  0  0  0  0  0  0
  140.5370   71.0590  225.8690 C   0  0  0  0  0  0  0  0  0  0  0  0
  140.6820   71.8490  224.7890 N   0  0  0  0  0  0  0  0  0  0  0  0
  138.9140   73.8000  223.0920 H   0  0  0  0  0  0  0  0  0  0  0  0
  140.6366   74.1774  220.6801 H   0  0  0  0  0  0  0  0  0  0  0  0
  138.8114   74.2786  220.5983 H   0  0  0  0  0  0  0  0  0  0  0  0
  142.8099   76.3592  221.2593 H   0  0  0  0  0  0  0  0  0  0  0  0
  142.0258   75.2173  220.1282 H   0  0  0  0  0  0  0  0  0  0  0  0
  143.4600   77.4710  219.3875 H   0  0  0  0  0  0  0  0  0  0  0  0
  142.2882   76.6629  218.3514 H   0  0  0  0  0  0  0  0  0  0  0  0
  142.0837   79.2615  219.5842 H   0  0  0  0  0  0  0  0  0  0  0  0
  140.8442   78.4528  218.6016 H   0  0  0  0  0  0  0  0  0  0  0  0
  139.6252   78.4068  220.6651 H   0  0  0  0  0  0  0  0  0  0  0  0
  142.0959   80.4057  220.5333 H   0  0  0  0  0  0  0  0  0  0  0  0
  143.0221   80.9056  224.6551 H   0  0  0  0  0  0  0  0  0  0  0  0
  141.7694   78.7905  225.1515 H   0  0  0  0  0  0  0  0  0  0  0  0
  139.1744   69.9765  222.4754 H   0  0  0  0  0  0  0  0  0  0  0  0
  138.8725   68.4807  224.4269 H   0  0  0  0  0  0  0  0  0  0  0  0
  139.1990   68.0355  226.7522 H   0  0  0  0  0  0  0  0  0  0  0  0
  141.2640   70.9257  229.2141 H   0  0  0  0  0  0  0  0  0  0  0  0
  141.5499   72.4164  227.2201 H   0  0  0  0  0  0  0  0  0  0  0  0
  1  2  2  0
  2  3  1  0
  3  4  1  0
  4  5  1  0
  5  6  2  0
  5  7  1  0
  7  8  1  0
  8  9  1  0
  9 10  1  0
 10 11  1  0
 11 12  1  0
 12 13  2  0
 13 14  1  0
 14 15  2  0
 15 16  1  0
 16 17  2  0
  2 18  1  0
 18 19  2  0
 19 20  1  0
 20 21  2  0
 21 22  1  0
 22 23  2  0
 23 24  1  0
 23 25  1  0
 25 26  2  0
 26 27  1  0
 27 28  2  0
 11  7  1  0
 17 12  1  0
 28 18  1  0
 27 21  1  0
  3 29  1  0
  4 30  1  0
  4 31  1  0
  8 32  1  0
  8 33  1  0
  9 34  1  0
  9 35  1  0
 10 36  1  0
 10 37  1  0
 11 38  1  6
 13 39  1  0
 15 40  1  0
 16 41  1  0
 19 42  1  0
 20 43  1  0
 22 44  1  0
 25 45  1  0
 26 46  1  0
M  END
>  <smiles>  (45) 
O=C(NCC(=O)N1CCCC1c1cnccn1)c1ccc2cc(F)ccc2n1

>  <score_type>  (45) 
oracle

>  <origin>  (45) 
autodockgpu

>  <m_score__min__energy>  (45) 
-8.4600000000000009

>  <m_primary>  (45) 
energy

>  <rmsd>  (45) 
2.047434473944273

>  <m_score__min__rmsd>  (45) 
2.047434473944273

>  <meeko>  (45) 
{"free_energy": -8.45, "intermolecular_energy": -9.94, "internal_energy": -1.37, "cluster_size": 38, "cluster_id": 1, "rank_in_cluster": 4}

>  <energy>  (45) 
-7.58

>  <cluster_rmsd>  (45) 
1.43

>  <cluster>  (45) 
2

$$$$

     RDKit          3D

 46 49  0  0  0  0  0  0  0  0999 V2000
  140.9660   73.6930  220.3640 O   0  0  0  0  0  0  0  0  0  0  0  0
  140.4970   74.5090  221.2010 C   0  0  0  0  0  0  0  0  0  0  0  0
  139.4770   74.0280  222.0960 N   0  0  0  0  0  0  0  0  0  0  0  0
  139.0120   72.6780  222.0400 C   0  0  0  0  0  0  0  0  0  0  0  0
  139.8950   71.7160  222.7180 C   0  0  0  0  0  0  0  0  0  0  0  0
  141.1090   71.6440  222.3780 O   0  0  0  0  0  0  0  0  0  0  0  0
  139.3270   70.9000  223.7390 N   0  0  0  0  0  0  0  0  0  0  0  0
  137.9340   70.7790  224.1340 C   0  0  0  0  0  0  0  0  0  0  0  0
  137.7050   69.3920  224.6320 C   0  0  0  0  0  0  0  0  0  0  0  0
  139.0780   68.8680  224.9250 C   0  0  0  0  0  0  0  0  0  0  0  0
  140.0480   69.9960  224.6240 C   0  0  2  0  0  0  0  0  0  0  0  0
  140.3740   70.6380  225.9260 C   0  0  0  0  0  0  0  0  0  0  0  0
  141.1520   71.7770  225.9970 C   0  0  0  0  0  0  0  0  0  0  0  0
  141.4440   72.3530  227.1770 N   0  0  0  0  0  0  0  0  0  0  0  0
  140.9880   71.8430  228.3490 C   0  0  0  0  0  0  0  0  0  0  0  0
  140.2070   70.6970  228.2880 C   0  0  0  0  0  0  0  0  0  0  0  0
  139.9260   70.1360  227.0980 N   0  0  0  0  0  0  0  0  0  0  0  0
  140.9280   75.8840  221.3010 C   0  0  0  0  0  0  0  0  0  0  0  0
  141.7710   76.4070  220.3410 C   0  0  0  0  0  0  0  0  0  0  0  0
  142.2010   77.7140  220.4080 C   0  0  0  0  0  0  0  0  0  0  0  0
  141.7760   78.5050  221.4540 C   0  0  0  0  0  0  0  0  0  0  0  0
  142.2030   79.8120  221.5270 C   0  0  0  0  0  0  0  0  0  0  0  0
  141.7670   80.5800  222.5770 C   0  0  0  0  0  0  0  0  0  0  0  0
  142.1830   81.8550  222.6460 F   0  0  0  0  0  0  0  0  0  0  0  0
  140.9160   80.0820  223.5620 C   0  0  0  0  0  0  0  0  0  0  0  0
  140.4970   78.7520  223.4690 C   0  0  0  0  0  0  0  0  0  0  0  0
  140.9250   77.9490  222.4080 C   0  0  0  0  0  0  0  0  0  0  0  0
  140.5280   76.6670  222.3090 N   0  0  0  0  0  0  0  0  0  0  0  0
  139.0540   74.6650  222.8090 H   0  0  0  0  0  0  0  0  0  0  0  0
  138.0208   72.6329  222.5148 H   0  0  0  0  0  0  0  0  0  0  0  0
  138.9841   72.3931  220.9779 H   0  0  0  0  0  0  0  0  0  0  0  0
  137.7100   71.5021  224.9321 H   0  0  0  0  0  0  0  0  0  0  0  0
  137.2782   70.9855  223.2753 H   0  0  0  0  0  0  0  0  0  0  0  0
  137.0900   69.4027  225.5439 H   0  0  0  0  0  0  0  0  0  0  0  0
  137.1660   68.7691  223.9030 H   0  0  0  0  0  0  0  0  0  0  0  0
  139.1542   68.5743  225.9823 H   0  0  0  0  0  0  0  0  0  0  0  0
  139.3015   67.9803  224.3151 H   0  0  0  0  0  0  0  0  0  0  0  0
  140.9868   69.6788  224.1463 H   0  0  0  0  0  0  0  0  0  0  0  0
  141.5409   72.2223  225.0694 H   0  0  0  0  0  0  0  0  0  0  0  0
  141.2282   72.3196  229.3108 H   0  0  0  0  0  0  0  0  0  0  0  0
  139.8176   70.2473  229.2133 H   0  0  0  0  0  0  0  0  0  0  0  0
  142.1048   75.7696  219.5089 H   0  0  0  0  0  0  0  0  0  0  0  0
  142.8735   78.1205  219.6383 H   0  0  0  0  0  0  0  0  0  0  0  0
  142.8760   80.2294  220.7636 H   0  0  0  0  0  0  0  0  0  0  0  0
  140.5820   80.7207  224.3930 H   0  0  0  0  0  0  0  0  0  0  0  0
  139.8267   78.3348  224.2349 H   0  0  0  0  0  0  0  0  0  0  0  0
  1  2  2  0
  2  3  1  0
  3  4  1  0
  4  5  1  0
  5  6  2  0
  5  7  1  0
  7  8  1  0
  8  9  1  0
  9 10  1  0
 10 11  1  0
 11 12  1  0
 12 13  2  0
 13 14  1  0
 14 15  2  0
 15 16  1  0
 16 17  2  0
  2 18  1  0
 18 19  2  0
 19 20  1  0
 20 21  2  0
 21 22  1  0
 22 23  2  0
 23 24  1  0
 23 25  1  0
 25 26  2  0
 26 27  1  0
 27 28  2  0
 11  7  1  0
 17 12  1  0
 28 18  1  0
 27 21  1  0
  3 29  1  0
  4 30  1  0
  4 31  1  0
  8 32  1  0
  8 33  1  0
  9 34  1  0
  9 35  1  0
 10 36  1  0
 10 37  1  0
 11 38  1  6
 13 39  1  0
 15 40  1  0
 16 41  1  0
 19 42  1  0
 20 43  1  0
 22 44  1  0
 25 45  1  0
 26 46  1  0
M  END
>  <smiles>  (46) 
O=C(NCC(=O)N1CCCC1c1cnccn1)c1ccc2cc(F)ccc2n1

>  <score_type>  (46) 
oracle

>  <origin>  (46) 
autodockgpu

>  <m_score__min__energy>  (46) 
-8.4600000000000009

>  <m_primary>  (46) 
energy

>  <rmsd>  (46) 
8.883983196826584

>  <m_score__min__rmsd>  (46) 
8.883983196826584

>  <meeko>  (46) 
{"free_energy": -8.08, "intermolecular_energy": -9.57, "internal_energy": -1.39, "cluster_size": 8, "cluster_id": 2, "rank_in_cluster": 5}

>  <energy>  (46) 
-7.55

>  <cluster_rmsd>  (46) 
1.43

>  <cluster>  (46) 
2

$$$$

     RDKit          3D

 46 49  0  0  0  0  0  0  0  0999 V2000
  141.1170   73.7770  220.3760 O   0  0  0  0  0  0  0  0  0  0  0  0
  140.5920   74.5850  221.1870 C   0  0  0  0  0  0  0  0  0  0  0  0
  139.5390   74.0860  222.0340 N   0  0  0  0  0  0  0  0  0  0  0  0
  139.1040   72.7270  221.9590 C   0  0  0  0  0  0  0  0  0  0  0  0
  139.9560   71.7860  222.7040 C   0  0  0  0  0  0  0  0  0  0  0  0
  141.1890   71.7220  222.4360 O   0  0  0  0  0  0  0  0  0  0  0  0
  139.3390   70.9830  223.7060 N   0  0  0  0  0  0  0  0  0  0  0  0
  137.9420   70.9420  224.1030 C   0  0  0  0  0  0  0  0  0  0  0  0
  137.6240   69.5610  224.5650 C   0  0  0  0  0  0  0  0  0  0  0  0
  138.9610   68.9420  224.8390 C   0  0  0  0  0  0  0  0  0  0  0  0
  140.0010   70.0110  224.5640 C   0  0  2  0  0  0  0  0  0  0  0  0
  140.3710   70.5960  225.8810 C   0  0  0  0  0  0  0  0  0  0  0  0
  139.9990   69.9980  227.0700 C   0  0  0  0  0  0  0  0  0  0  0  0
  140.3370   70.5320  228.2580 N   0  0  0  0  0  0  0  0  0  0  0  0
  141.0570   71.6790  228.3420 C   0  0  0  0  0  0  0  0  0  0  0  0
  141.4340   72.2870  227.1530 C   0  0  0  0  0  0  0  0  0  0  0  0
  141.0870   71.7380  225.9750 N   0  0  0  0  0  0  0  0  0  0  0  0
  140.9910   75.9680  221.3050 C   0  0  0  0  0  0  0  0  0  0  0  0
  141.7220   76.5570  220.2920 C   0  0  0  0  0  0  0  0  0  0  0  0
  142.1190   77.8740  220.3740 C   0  0  0  0  0  0  0  0  0  0  0  0
  141.7740   78.6070  221.4890 C   0  0  0  0  0  0  0  0  0  0  0  0
  142.1670   79.9240  221.5760 C   0  0  0  0  0  0  0  0  0  0  0  0
  141.8120   80.6350  222.6950 C   0  0  0  0  0  0  0  0  0  0  0  0
  142.1960   81.9190  222.7790 F   0  0  0  0  0  0  0  0  0  0  0  0
  141.0740   80.0700  223.7340 C   0  0  0  0  0  0  0  0  0  0  0  0
  140.6870   78.7320  223.6240 C   0  0  0  0  0  0  0  0  0  0  0  0
  141.0340   77.9860  222.4950 C   0  0  0  0  0  0  0  0  0  0  0  0
  140.6670   76.6970  222.3790 N   0  0  0  0  0  0  0  0  0  0  0  0
  139.0710   74.7150  222.7230 H   0  0  0  0  0  0  0  0  0  0  0  0
  138.0837   72.6670  222.3658 H   0  0  0  0  0  0  0  0  0  0  0  0
  139.1544   72.4336  220.9000 H   0  0  0  0  0  0  0  0  0  0  0  0
  137.7671   71.6567  224.9207 H   0  0  0  0  0  0  0  0  0  0  0  0
  137.2995   71.2131  223.2523 H   0  0  0  0  0  0  0  0  0  0  0  0
  137.0127   69.5875  225.4791 H   0  0  0  0  0  0  0  0  0  0  0  0
  137.0438   68.9938  223.8223 H   0  0  0  0  0  0  0  0  0  0  0  0
  139.0202   68.6165  225.8881 H   0  0  0  0  0  0  0  0  0  0  0  0
  139.1251   68.0581  224.2051 H   0  0  0  0  0  0  0  0  0  0  0  0
  140.9159   69.6458  224.0745 H   0  0  0  0  0  0  0  0  0  0  0  0
  139.4146   69.0664  227.0448 H   0  0  0  0  0  0  0  0  0  0  0  0
  141.3315   72.1106  229.3158 H   0  0  0  0  0  0  0  0  0  0  0  0
  142.0175   73.2193  227.1738 H   0  0  0  0  0  0  0  0  0  0  0  0
  141.9918   75.9650  219.4050 H   0  0  0  0  0  0  0  0  0  0  0  0
  142.7022   78.3332  219.5622 H   0  0  0  0  0  0  0  0  0  0  0  0
  142.7500   80.3937  220.7700 H   0  0  0  0  0  0  0  0  0  0  0  0
  140.8028   80.6636  224.6195 H   0  0  0  0  0  0  0  0  0  0  0  0
  140.1054   78.2631  224.4314 H   0  0  0  0  0  0  0  0  0  0  0  0
  1  2  2  0
  2  3  1  0
  3  4  1  0
  4  5  1  0
  5  6  2  0
  5  7  1  0
  7  8  1  0
  8  9  1  0
  9 10  1  0
 10 11  1  0
 11 12  1  0
 12 13  2  0
 13 14  1  0
 14 15  2  0
 15 16  1  0
 16 17  2  0
  2 18  1  0
 18 19  2  0
 19 20  1  0
 20 21  2  0
 21 22  1  0
 22 23  2  0
 23 24  1  0
 23 25  1  0
 25 26  2  0
 26 27  1  0
 27 28  2  0
 11  7  1  0
 17 12  1  0
 28 18  1  0
 27 21  1  0
  3 29  1  0
  4 30  1  0
  4 31  1  0
  8 32  1  0
  8 33  1  0
  9 34  1  0
  9 35  1  0
 10 36  1  0
 10 37  1  0
 11 38  1  6
 13 39  1  0
 15 40  1  0
 16 41  1  0
 19 42  1  0
 20 43  1  0
 22 44  1  0
 25 45  1  0
 26 46  1  0
M  END
>  <smiles>  (47) 
O=C(NCC(=O)N1CCCC1c1cnccn1)c1ccc2cc(F)ccc2n1

>  <score_type>  (47) 
oracle

>  <origin>  (47) 
autodockgpu

>  <m_score__min__energy>  (47) 
-8.4600000000000009

>  <m_primary>  (47) 
energy

>  <rmsd>  (47) 
8.698025775060419

>  <m_score__min__rmsd>  (47) 
8.698025775060419

>  <meeko>  (47) 
{"free_energy": -8.12, "intermolecular_energy": -9.61, "internal_energy": -1.38, "cluster_size": 8, "cluster_id": 2, "rank_in_cluster": 2}

>  <energy>  (47) 
-8.15

>  <cluster_rmsd>  (47) 
0.0

>  <cluster>  (47) 
3

$$$$

     RDKit          3D

 46 49  0  0  0  0  0  0  0  0999 V2000
  140.9010   73.8050  220.3600 O   0  0  0  0  0  0  0  0  0  0  0  0
  140.4850   74.5960  221.2480 C   0  0  0  0  0  0  0  0  0  0  0  0
  139.5260   74.0860  222.1940 N   0  0  0  0  0  0  0  0  0  0  0  0
  139.0610   72.7360  222.1300 C   0  0  0  0  0  0  0  0  0  0  0  0
  139.9590   71.7660  222.7760 C   0  0  0  0  0  0  0  0  0  0  0  0
  141.1680   71.7070  222.4180 O   0  0  0  0  0  0  0  0  0  0  0  0
  139.4100   70.9280  223.7900 N   0  0  0  0  0  0  0  0  0  0  0  0
  138.0200   70.7680  224.1810 C   0  0  0  0  0  0  0  0  0  0  0  0
  137.8260   69.3720  224.6670 C   0  0  0  0  0  0  0  0  0  0  0  0
  139.2110   68.8810  224.9590 C   0  0  0  0  0  0  0  0  0  0  0  0
  140.1520   70.0350  224.6690 C   0  0  2  0  0  0  0  0  0  0  0  0
  140.4600   70.6740  225.9760 C   0  0  0  0  0  0  0  0  0  0  0  0
  140.0250   70.1300  227.1690 C   0  0  0  0  0  0  0  0  0  0  0  0
  140.3060   70.7130  228.3490 N   0  0  0  0  0  0  0  0  0  0  0  0
  141.0280   71.8590  228.4200 C   0  0  0  0  0  0  0  0  0  0  0  0
  141.4690   72.4140  227.2270 C   0  0  0  0  0  0  0  0  0  0  0  0
  141.1780   71.8170  226.0570 N   0  0  0  0  0  0  0  0  0  0  0  0
  140.9190   75.9680  221.3590 C   0  0  0  0  0  0  0  0  0  0  0  0
  141.7460   76.5040  220.3910 C   0  0  0  0  0  0  0  0  0  0  0  0
  142.1780   77.8100  220.4680 C   0  0  0  0  0  0  0  0  0  0  0  0
  141.7720   78.5870  221.5310 C   0  0  0  0  0  0  0  0  0  0  0  0
  142.2010   79.8930  221.6140 C   0  0  0  0  0  0  0  0  0  0  0  0
  141.7840   80.6470  222.6820 C   0  0  0  0  0  0  0  0  0  0  0  0
  142.2030   81.9210  222.7600 F   0  0  0  0  0  0  0  0  0  0  0  0
  140.9500   80.1360  223.6750 C   0  0  0  0  0  0  0  0  0  0  0  0
  140.5280   78.8080  223.5710 C   0  0  0  0  0  0  0  0  0  0  0  0
  140.9370   78.0190  222.4930 C   0  0  0  0  0  0  0  0  0  0  0  0
  140.5370   76.7390  222.3840 N   0  0  0  0  0  0  0  0  0  0  0  0
  139.1490   74.7010  222.9490 H   0  0  0  0  0  0  0  0  0  0  0  0
  138.0802   72.6835  222.6253 H   0  0  0  0  0  0  0  0  0  0  0  0
  139.0108   72.4652  221.0650 H   0  0  0  0  0  0  0  0  0  0  0  0
  137.7759   71.4785  224.9845 H   0  0  0  0  0  0  0  0  0  0  0  0
  137.3607   70.9646  223.3227 H   0  0  0  0  0  0  0  0  0  0  0  0
  137.2089   69.3594  225.5775 H   0  0  0  0  0  0  0  0  0  0  0  0
  137.3049   68.7415  223.9315 H   0  0  0  0  0  0  0  0  0  0  0  0
  139.2925   68.5812  226.0142 H   0  0  0  0  0  0  0  0  0  0  0  0
  139.4583   68.0040  224.3428 H   0  0  0  0  0  0  0  0  0  0  0  0
  141.0990   69.7454  224.1903 H   0  0  0  0  0  0  0  0  0  0  0  0
  139.4365   69.2007  227.1542 H   0  0  0  0  0  0  0  0  0  0  0  0
  141.2555   72.3309  229.3872 H   0  0  0  0  0  0  0  0  0  0  0  0
  142.0573   73.3434  227.2380 H   0  0  0  0  0  0  0  0  0  0  0  0
  142.0649   75.8778  219.5448 H   0  0  0  0  0  0  0  0  0  0  0  0
  142.8374   78.2263  219.6922 H   0  0  0  0  0  0  0  0  0  0  0  0
  142.8606   80.3205  220.8444 H   0  0  0  0  0  0  0  0  0  0  0  0
  140.6315   80.7633  224.5206 H   0  0  0  0  0  0  0  0  0  0  0  0
  139.8700   78.3813  224.3423 H   0  0  0  0  0  0  0  0  0  0  0  0
  1  2  2  0
  2  3  1  0
  3  4  1  0
  4  5  1  0
  5  6  2  0
  5  7  1  0
  7  8  1  0
  8  9  1  0
  9 10  1  0
 10 11  1  0
 11 12  1  0
 12 13  2  0
 13 14  1  0
 14 15  2  0
 15 16  1  0
 16 17  2  0
  2 18  1  0
 18 19  2  0
 19 20  1  0
 20 21  2  0
 21 22  1  0
 22 23  2  0
 23 24  1  0
 23 25  1  0
 25 26  2  0
 26 27  1  0
 27 28  2  0
 11  7  1  0
 17 12  1  0
 28 18  1  0
 27 21  1  0
  3 29  1  0
  4 30  1  0
  4 31  1  0
  8 32  1  0
  8 33  1  0
  9 34  1  0
  9 35  1  0
 10 36  1  0
 10 37  1  0
 11 38  1  6
 13 39  1  0
 15 40  1  0
 16 41  1  0
 19 42  1  0
 20 43  1  0
 22 44  1  0
 25 45  1  0
 26 46  1  0
M  END
>  <smiles>  (48) 
O=C(NCC(=O)N1CCCC1c1cnccn1)c1ccc2cc(F)ccc2n1

>  <score_type>  (48) 
oracle

>  <origin>  (48) 
autodockgpu

>  <m_score__min__energy>  (48) 
-8.4600000000000009

>  <m_primary>  (48) 
energy

>  <rmsd>  (48) 
8.712002039107471

>  <m_score__min__rmsd>  (48) 
8.712002039107471

>  <meeko>  (48) 
{"free_energy": -8.11, "intermolecular_energy": -9.6, "internal_energy": -1.41, "cluster_size": 8, "cluster_id": 2, "rank_in_cluster": 3}

>  <energy>  (48) 
-7.82

>  <cluster_rmsd>  (48) 
1.43

>  <cluster>  (48) 
3

$$$$

     RDKit          3D

 46 49  0  0  0  0  0  0  0  0999 V2000
  140.7910   71.9190  221.1880 O   0  0  0  0  0  0  0  0  0  0  0  0
  140.3210   72.3540  222.2730 C   0  0  0  0  0  0  0  0  0  0  0  0
  139.9510   73.7450  222.3260 N   0  0  0  0  0  0  0  0  0  0  0  0
  140.1100   74.6020  221.1940 C   0  0  0  0  0  0  0  0  0  0  0  0
  141.5120   74.9060  220.8690 C   0  0  0  0  0  0  0  0  0  0  0  0
  142.4000   74.0340  221.0830 O   0  0  0  0  0  0  0  0  0  0  0  0
  141.8020   76.1890  220.3210 N   0  0  0  0  0  0  0  0  0  0  0  0
  142.9590   76.6050  219.5460 C   0  0  0  0  0  0  0  0  0  0  0  0
  142.5320   77.6770  218.6020 C   0  0  0  0  0  0  0  0  0  0  0  0
  141.2290   78.1670  219.1570 C   0  0  0  0  0  0  0  0  0  0  0  0
  140.9760   77.3840  220.4310 C   0  0  2  0  0  0  0  0  0  0  0  0
  141.4050   78.2530  221.5590 C   0  0  0  0  0  0  0  0  0  0  0  0
  141.8240   79.5530  221.3540 C   0  0  0  0  0  0  0  0  0  0  0  0
  142.2110   80.3340  222.3790 N   0  0  0  0  0  0  0  0  0  0  0  0
  142.2070   79.8810  223.6580 C   0  0  0  0  0  0  0  0  0  0  0  0
  141.7870   78.5760  223.8740 C   0  0  0  0  0  0  0  0  0  0  0  0
  141.4040   77.8110  222.8360 N   0  0  0  0  0  0  0  0  0  0  0  0
  140.1390   71.5340  223.4480 C   0  0  0  0  0  0  0  0  0  0  0  0
  139.4140   70.3630  223.3580 C   0  0  0  0  0  0  0  0  0  0  0  0
  139.2220   69.5580  224.4600 C   0  0  0  0  0  0  0  0  0  0  0  0
  139.7680   69.9370  225.6670 C   0  0  0  0  0  0  0  0  0  0  0  0
  139.5790   69.1380  226.7720 C   0  0  0  0  0  0  0  0  0  0  0  0
  140.1320   69.5350  227.9640 C   0  0  0  0  0  0  0  0  0  0  0  0
  139.9480   68.7540  229.0400 F   0  0  0  0  0  0  0  0  0  0  0  0
  140.8690   70.7120  228.0870 C   0  0  0  0  0  0  0  0  0  0  0  0
  141.0470   71.5080  226.9530 C   0  0  0  0  0  0  0  0  0  0  0  0
  140.4950   71.1250  225.7270 C   0  0  0  0  0  0  0  0  0  0  0  0
  140.6600   71.8850  224.6290 N   0  0  0  0  0  0  0  0  0  0  0  0
  139.5570   74.1550  223.2020 H   0  0  0  0  0  0  0  0  0  0  0  0
  139.6505   74.1132  220.3223 H   0  0  0  0  0  0  0  0  0  0  0  0
  139.6263   75.5572  221.4462 H   0  0  0  0  0  0  0  0  0  0  0  0
  143.7379   76.9917  220.2196 H   0  0  0  0  0  0  0  0  0  0  0  0
  143.3672   75.7498  218.9873 H   0  0  0  0  0  0  0  0  0  0  0  0
  143.2733   78.4893  218.5748 H   0  0  0  0  0  0  0  0  0  0  0  0
  142.4361   77.3115  217.5690 H   0  0  0  0  0  0  0  0  0  0  0  0
  141.2921   79.2425  219.3792 H   0  0  0  0  0  0  0  0  0  0  0  0
  140.4119   78.0224  218.4348 H   0  0  0  0  0  0  0  0  0  0  0  0
  139.9266   77.0962  220.5922 H   0  0  0  0  0  0  0  0  0  0  0  0
  141.8417   79.9583  220.3315 H   0  0  0  0  0  0  0  0  0  0  0  0
  142.5247   80.5238  224.4922 H   0  0  0  0  0  0  0  0  0  0  0  0
  141.7673   78.1669  224.8949 H   0  0  0  0  0  0  0  0  0  0  0  0
  138.9822   70.0673  222.3905 H   0  0  0  0  0  0  0  0  0  0  0  0
  138.6417   68.6272  224.3773 H   0  0  0  0  0  0  0  0  0  0  0  0
  138.9998   68.2055  226.7016 H   0  0  0  0  0  0  0  0  0  0  0  0
  141.3005   71.0071  229.0549 H   0  0  0  0  0  0  0  0  0  0  0  0
  141.6247   72.4413  227.0251 H   0  0  0  0  0  0  0  0  0  0  0  0
  1  2  2  0
  2  3  1  0
  3  4  1  0
  4  5  1  0
  5  6  2  0
  5  7  1  0
  7  8  1  0
  8  9  1  0
  9 10  1  0
 10 11  1  0
 11 12  1  0
 12 13  2  0
 13 14  1  0
 14 15  2  0
 15 16  1  0
 16 17  2  0
  2 18  1  0
 18 19  2  0
 19 20  1  0
 20 21  2  0
 21 22  1  0
 22 23  2  0
 23 24  1  0
 23 25  1  0
 25 26  2  0
 26 27  1  0
 27 28  2  0
 11  7  1  0
 17 12  1  0
 28 18  1  0
 27 21  1  0
  3 29  1  0
  4 30  1  0
  4 31  1  0
  8 32  1  0
  8 33  1  0
  9 34  1  0
  9 35  1  0
 10 36  1  0
 10 37  1  0
 11 38  1  1
 13 39  1  0
 15 40  1  0
 16 41  1  0
 19 42  1  0
 20 43  1  0
 22 44  1  0
 25 45  1  0
 26 46  1  0
M  END
>  <smiles>  (49) 
O=C(NCC(=O)N1CCCC1c1cnccn1)c1ccc2cc(F)ccc2n1

>  <score_type>  (49) 
oracle

>  <origin>  (49) 
autodockgpu

>  <m_score__min__energy>  (49) 
-8.4600000000000009

>  <m_primary>  (49) 
energy

>  <rmsd>  (49) 
2.1069803399196716

>  <m_score__min__rmsd>  (49) 
2.1069803399196716

>  <meeko>  (49) 
{"free_energy": -8.17, "intermolecular_energy": -9.66, "internal_energy": -1.18, "cluster_size": 38, "cluster_id": 1, "rank_in_cluster": 29}

>  <energy>  (49) 
-7.75

>  <cluster_rmsd>  (49) 
0.91

>  <cluster>  (49) 
3

$$$$

     RDKit          3D

 46 49  0  0  0  0  0  0  0  0999 V2000
  141.0170   73.6930  221.7650 O   0  0  0  0  0  0  0  0  0  0  0  0
  139.9490   73.3570  222.3430 C   0  0  0  0  0  0  0  0  0  0  0  0
  138.8480   74.2830  222.2930 N   0  0  0  0  0  0  0  0  0  0  0  0
  138.9580   75.5350  221.6140 C   0  0  0  0  0  0  0  0  0  0  0  0
  138.6190   76.6980  222.4500 C   0  0  0  0  0  0  0  0  0  0  0  0
  137.5020   76.7340  223.0370 O   0  0  0  0  0  0  0  0  0  0  0  0
  139.5840   77.7400  222.5580 N   0  0  0  0  0  0  0  0  0  0  0  0
  139.3680   79.1560  222.8040 C   0  0  0  0  0  0  0  0  0  0  0  0
  140.5410   79.6890  223.5540 C   0  0  0  0  0  0  0  0  0  0  0  0
  141.6150   78.6650  223.3440 C   0  0  0  0  0  0  0  0  0  0  0  0
  141.0290   77.5970  222.4400 C   0  0  2  0  0  0  0  0  0  0  0  0
  141.5040   77.8960  221.0620 C   0  0  0  0  0  0  0  0  0  0  0  0
  142.0450   76.9150  220.2540 C   0  0  0  0  0  0  0  0  0  0  0  0
  142.4730   77.1910  219.0090 N   0  0  0  0  0  0  0  0  0  0  0  0
  142.3930   78.4430  218.4910 C   0  0  0  0  0  0  0  0  0  0  0  0
  141.8520   79.4350  219.2960 C   0  0  0  0  0  0  0  0  0  0  0  0
  141.4300   79.1400  220.5390 N   0  0  0  0  0  0  0  0  0  0  0  0
  139.7830   72.1050  223.0440 C   0  0  0  0  0  0  0  0  0  0  0  0
  139.0050   71.1090  222.4880 C   0  0  0  0  0  0  0  0  0  0  0  0
  138.8260   69.9040  223.1310 C   0  0  0  0  0  0  0  0  0  0  0  0
  139.4380   69.6980  224.3470 C   0  0  0  0  0  0  0  0  0  0  0  0
  139.2630   68.4950  224.9950 C   0  0  0  0  0  0  0  0  0  0  0  0
  139.8830   68.3130  226.2060 C   0  0  0  0  0  0  0  0  0  0  0  0
  139.7110   67.1390  226.8350 F   0  0  0  0  0  0  0  0  0  0  0  0
  140.6740   69.2980  226.7930 C   0  0  0  0  0  0  0  0  0  0  0  0
  140.8380   70.5110  226.1190 C   0  0  0  0  0  0  0  0  0  0  0  0
  140.2180   70.7220  224.8840 C   0  0  0  0  0  0  0  0  0  0  0  0
  140.3680   71.8860  224.2270 N   0  0  0  0  0  0  0  0  0  0  0  0
  137.9410   74.0530  222.7570 H   0  0  0  0  0  0  0  0  0  0  0  0
  139.9947   75.6498  221.2647 H   0  0  0  0  0  0  0  0  0  0  0  0
  138.2337   75.5144  220.7864 H   0  0  0  0  0  0  0  0  0  0  0  0
  139.2666   79.6879  221.8465 H   0  0  0  0  0  0  0  0  0  0  0  0
  138.4481   79.3013  223.3894 H   0  0  0  0  0  0  0  0  0  0  0  0
  140.8497   80.6649  223.1512 H   0  0  0  0  0  0  0  0  0  0  0  0
  140.3190   79.8510  224.6191 H   0  0  0  0  0  0  0  0  0  0  0  0
  142.4912   79.1273  222.8659 H   0  0  0  0  0  0  0  0  0  0  0  0
  141.9445   78.2354  224.3015 H   0  0  0  0  0  0  0  0  0  0  0  0
  141.3227   76.5682  222.6956 H   0  0  0  0  0  0  0  0  0  0  0  0
  142.1275   75.8870  220.6365 H   0  0  0  0  0  0  0  0  0  0  0  0
  142.7437   78.6628  217.4718 H   0  0  0  0  0  0  0  0  0  0  0  0
  141.7680   80.4644  218.9174 H   0  0  0  0  0  0  0  0  0  0  0  0
  138.5202   71.2806  221.5156 H   0  0  0  0  0  0  0  0  0  0  0  0
  138.2032   69.1177  222.6795 H   0  0  0  0  0  0  0  0  0  0  0  0
  138.6427   67.7011  224.5535 H   0  0  0  0  0  0  0  0  0  0  0  0
  141.1586   69.1248  227.7652 H   0  0  0  0  0  0  0  0  0  0  0  0
  141.4581   71.3039  226.5625 H   0  0  0  0  0  0  0  0  0  0  0  0
  1  2  2  0
  2  3  1  0
  3  4  1  0
  4  5  1  0
  5  6  2  0
  5  7  1  0
  7  8  1  0
  8  9  1  0
  9 10  1  0
 10 11  1  0
 11 12  1  0
 12 13  2  0
 13 14  1  0
 14 15  2  0
 15 16  1  0
 16 17  2  0
  2 18  1  0
 18 19  2  0
 19 20  1  0
 20 21  2  0
 21 22  1  0
 22 23  2  0
 23 24  1  0
 23 25  1  0
 25 26  2  0
 26 27  1  0
 27 28  2  0
 11  7  1  0
 17 12  1  0
 28 18  1  0
 27 21  1  0
  3 29  1  0
  4 30  1  0
  4 31  1  0
  8 32  1  0
  8 33  1  0
  9 34  1  0
  9 35  1  0
 10 36  1  0
 10 37  1  0
 11 38  1  1
 13 39  1  0
 15 40  1  0
 16 41  1  0
 19 42  1  0
 20 43  1  0
 22 44  1  0
 25 45  1  0
 26 46  1  0
M  END
>  <smiles>  (50) 
O=C(NCC(=O)N1CCCC1c1cnccn1)c1ccc2cc(F)ccc2n1

>  <score_type>  (50) 
oracle

>  <origin>  (50) 
autodockgpu

>  <m_score__min__energy>  (50) 
-8.4600000000000009

>  <m_primary>  (50) 
energy

>  <rmsd>  (50) 
3.6793594232678086

>  <m_score__min__rmsd>  (50) 
3.6793594232678086

>  <meeko>  (50) 
{"free_energy": -7.49, "intermolecular_energy": -8.99, "internal_energy": -1.38, "cluster_size": 38, "cluster_id": 1, "rank_in_cluster": 37}

>  <energy>  (50) 
-7.69

>  <cluster_rmsd>  (50) 
1.49

>  <cluster>  (50) 
3

$$$$

     RDKit          3D

 46 49  0  0  0  0  0  0  0  0999 V2000
  140.3640   71.7690  221.0550 O   0  0  0  0  0  0  0  0  0  0  0  0
  140.0740   72.2490  222.1950 C   0  0  0  0  0  0  0  0  0  0  0  0
  139.7570   73.6430  222.3090 N   0  0  0  0  0  0  0  0  0  0  0  0
  139.7900   74.4230  221.0970 C   0  0  0  0  0  0  0  0  0  0  0  0
  140.9820   75.2950  221.0230 C   0  0  0  0  0  0  0  0  0  0  0  0
  142.1580   74.8920  221.2150 O   0  0  0  0  0  0  0  0  0  0  0  0
  140.7850   76.6680  220.7170 N   0  0  0  0  0  0  0  0  0  0  0  0
  139.5100   77.3390  220.4420 C   0  0  0  0  0  0  0  0  0  0  0  0
  139.8570   78.1350  219.2060 C   0  0  0  0  0  0  0  0  0  0  0  0
  141.3360   78.4010  219.3270 C   0  0  0  0  0  0  0  0  0  0  0  0
  141.7790   77.7200  220.6090 C   0  0  1  0  0  0  0  0  0  0  0  0
  141.7970   78.6540  221.7380 C   0  0  0  0  0  0  0  0  0  0  0  0
  141.4540   78.2850  223.0200 C   0  0  0  0  0  0  0  0  0  0  0  0
  141.4790   79.1590  224.0360 N   0  0  0  0  0  0  0  0  0  0  0  0
  141.8400   80.4340  223.8580 C   0  0  0  0  0  0  0  0  0  0  0  0
  142.1910   80.8330  222.5780 C   0  0  0  0  0  0  0  0  0  0  0  0
  142.1620   79.9530  221.5680 N   0  0  0  0  0  0  0  0  0  0  0  0
  140.0530   71.4160  223.3990 C   0  0  0  0  0  0  0  0  0  0  0  0
  139.5200   70.1440  223.3040 C   0  0  0  0  0  0  0  0  0  0  0  0
  139.5040   69.3660  224.4430 C   0  0  0  0  0  0  0  0  0  0  0  0
  140.0110   69.8540  225.6420 C   0  0  0  0  0  0  0  0  0  0  0  0
  139.9930   69.0690  226.7860 C   0  0  0  0  0  0  0  0  0  0  0  0
  140.5100   69.6110  227.9460 C   0  0  0  0  0  0  0  0  0  0  0  0
  140.5000   68.8610  229.0610 F   0  0  0  0  0  0  0  0  0  0  0  0
  141.0370   70.8760  228.0270 C   0  0  0  0  0  0  0  0  0  0  0  0
  141.0360   71.6310  226.8570 C   0  0  0  0  0  0  0  0  0  0  0  0
  140.5260   71.1140  225.6860 C   0  0  0  0  0  0  0  0  0  0  0  0
  140.5430   71.8840  224.5630 N   0  0  0  0  0  0  0  0  0  0  0  0
  139.5110   74.0760  223.2460 H   0  0  0  0  0  0  0  0  0  0  0  0
  139.7985   73.7385  220.2360 H   0  0  0  0  0  0  0  0  0  0  0  0
  138.8996   75.0688  221.0881 H   0  0  0  0  0  0  0  0  0  0  0  0
  138.7077   76.6135  220.2420 H   0  0  0  0  0  0  0  0  0  0  0  0
  139.1300   77.9455  221.2773 H   0  0  0  0  0  0  0  0  0  0  0  0
  139.6400   77.5548  218.2970 H   0  0  0  0  0  0  0  0  0  0  0  0
  139.2714   79.0630  219.1297 H   0  0  0  0  0  0  0  0  0  0  0  0
  141.8723   77.9785  218.4645 H   0  0  0  0  0  0  0  0  0  0  0  0
  141.5514   79.4795  219.3480 H   0  0  0  0  0  0  0  0  0  0  0  0
  142.8091   77.3342  220.6088 H   0  0  0  0  0  0  0  0  0  0  0  0
  141.1515   77.2456  223.2152 H   0  0  0  0  0  0  0  0  0  0  0  0
  141.8578   81.1425  224.6992 H   0  0  0  0  0  0  0  0  0  0  0  0
  142.4939   81.8738  222.3909 H   0  0  0  0  0  0  0  0  0  0  0  0
  139.1217   69.7647  222.3514 H   0  0  0  0  0  0  0  0  0  0  0  0
  139.0859   68.3494  224.4022 H   0  0  0  0  0  0  0  0  0  0  0  0
  139.5808   68.0493  226.7694 H   0  0  0  0  0  0  0  0  0  0  0  0
  141.4403   71.2737  228.9699 H   0  0  0  0  0  0  0  0  0  0  0  0
  141.4468   72.6513  226.8677 H   0  0  0  0  0  0  0  0  0  0  0  0
  1  2  2  0
  2  3  1  0
  3  4  1  0
  4  5  1  0
  5  6  2  0
  5  7  1  0
  7  8  1  0
  8  9  1  0
  9 10  1  0
 10 11  1  0
 11 12  1  0
 12 13  2  0
 13 14  1  0
 14 15  2  0
 15 16  1  0
 16 17  2  0
  2 18  1  0
 18 19  2  0
 19 20  1  0
 20 21  2  0
 21 22  1  0
 22 23  2  0
 23 24  1  0
 23 25  1  0
 25 26  2  0
 26 27  1  0
 27 28  2  0
 11  7  1  0
 17 12  1  0
 28 18  1  0
 27 21  1  0
  3 29  1  0
  4 30  1  0
  4 31  1  0
  8 32  1  0
  8 33  1  0
  9 34  1  0
  9 35  1  0
 10 36  1  0
 10 37  1  0
 11 38  1  6
 13 39  1  0
 15 40  1  0
 16 41  1  0
 19 42  1  0
 20 43  1  0
 22 44  1  0
 25 45  1  0
 26 46  1  0
M  END
>  <smiles>  (51) 
O=C(NCC(=O)N1CCCC1c1cnccn1)c1ccc2cc(F)ccc2n1

>  <score_type>  (51) 
oracle

>  <origin>  (51) 
autodockgpu

>  <m_score__min__energy>  (51) 
-8.5299999999999994

>  <m_primary>  (51) 
energy

>  <rmsd>  (51) 
1.7548559301969358

>  <m_score__min__rmsd>  (51) 
1.7548559301969358

>  <meeko>  (51) 
{"free_energy": -7.83, "intermolecular_energy": -9.32, "internal_energy": -1.21, "cluster_size": 20, "cluster_id": 2, "rank_in_cluster": 19}

>  <energy>  (51) 
-8.53

>  <cluster_rmsd>  (51) 
0.0

>  <cluster>  (51) 
1

$$$$

     RDKit          3D

 46 49  0  0  0  0  0  0  0  0999 V2000
  141.3630   72.4110  221.7900 O   0  0  0  0  0  0  0  0  0  0  0  0
  140.3580   72.4670  222.5660 C   0  0  0  0  0  0  0  0  0  0  0  0
  139.3450   73.4560  222.3330 N   0  0  0  0  0  0  0  0  0  0  0  0
  139.5390   74.3390  221.2090 C   0  0  0  0  0  0  0  0  0  0  0  0
  140.4890   75.4300  221.5110 C   0  0  0  0  0  0  0  0  0  0  0  0
  141.7360   75.2780  221.5730 O   0  0  0  0  0  0  0  0  0  0  0  0
  139.9590   76.7270  221.7470 N   0  0  0  0  0  0  0  0  0  0  0  0
  138.8490   77.0810  222.6370 C   0  0  0  0  0  0  0  0  0  0  0  0
  138.0360   77.9920  221.7480 C   0  0  0  0  0  0  0  0  0  0  0  0
  139.0440   78.6020  220.8060 C   0  0  0  0  0  0  0  0  0  0  0  0
  140.3830   77.9930  221.1750 C   0  0  1  0  0  0  0  0  0  0  0  0
  141.1320   78.8520  222.0970 C   0  0  0  0  0  0  0  0  0  0  0  0
  141.4870   78.4550  223.3670 C   0  0  0  0  0  0  0  0  0  0  0  0
  142.1730   79.2610  224.1910 N   0  0  0  0  0  0  0  0  0  0  0  0
  142.5490   80.4900  223.8220 C   0  0  0  0  0  0  0  0  0  0  0  0
  142.2050   80.9140  222.5480 C   0  0  0  0  0  0  0  0  0  0  0  0
  141.5190   80.1040  221.7320 N   0  0  0  0  0  0  0  0  0  0  0  0
  140.2050   71.5480  223.6950 C   0  0  0  0  0  0  0  0  0  0  0  0
  139.5500   70.3490  223.4770 C   0  0  0  0  0  0  0  0  0  0  0  0
  139.4090   69.4890  224.5470 C   0  0  0  0  0  0  0  0  0  0  0  0
  139.9130   69.8250  225.7980 C   0  0  0  0  0  0  0  0  0  0  0  0
  139.7700   68.9580  226.8720 C   0  0  0  0  0  0  0  0  0  0  0  0
  140.2910   69.3500  228.0890 C   0  0  0  0  0  0  0  0  0  0  0  0
  140.1600   68.5180  229.1370 F   0  0  0  0  0  0  0  0  0  0  0  0
  140.9390   70.5430  228.2920 C   0  0  0  0  0  0  0  0  0  0  0  0
  141.0620   71.3840  227.1900 C   0  0  0  0  0  0  0  0  0  0  0  0
  140.5500   71.0170  225.9630 C   0  0  0  0  0  0  0  0  0  0  0  0
  140.6900   71.8690  224.9100 N   0  0  0  0  0  0  0  0  0  0  0  0
  138.4940   73.5300  222.9620 H   0  0  0  0  0  0  0  0  0  0  0  0
  139.9291   73.7543  220.3629 H   0  0  0  0  0  0  0  0  0  0  0  0
  138.5677   74.7954  220.9677 H   0  0  0  0  0  0  0  0  0  0  0  0
  138.2739   76.1924  222.9366 H   0  0  0  0  0  0  0  0  0  0  0  0
  139.1617   77.5398  223.5866 H   0  0  0  0  0  0  0  0  0  0  0  0
  137.2810   77.4182  221.1906 H   0  0  0  0  0  0  0  0  0  0  0  0
  137.4865   78.7531  222.3213 H   0  0  0  0  0  0  0  0  0  0  0  0
  138.7884   78.3602  219.7638 H   0  0  0  0  0  0  0  0  0  0  0  0
  139.0629   79.6985  220.8912 H   0  0  0  0  0  0  0  0  0  0  0  0
  141.0917   77.8692  220.3429 H   0  0  0  0  0  0  0  0  0  0  0  0
  141.2007   77.4514  223.7145 H   0  0  0  0  0  0  0  0  0  0  0  0
  143.1119   81.1421  224.5060 H   0  0  0  0  0  0  0  0  0  0  0  0
  142.4963   81.9183  222.2066 H   0  0  0  0  0  0  0  0  0  0  0  0
  139.1547   70.0898  222.4837 H   0  0  0  0  0  0  0  0  0  0  0  0
  138.8925   68.5278  224.4084 H   0  0  0  0  0  0  0  0  0  0  0  0
  139.2587   67.9908  226.7576 H   0  0  0  0  0  0  0  0  0  0  0  0
  141.3413   70.8207  229.2774 H   0  0  0  0  0  0  0  0  0  0  0  0
  141.5731   72.3520  227.2987 H   0  0  0  0  0  0  0  0  0  0  0  0
  1  2  2  0
  2  3  1  0
  3  4  1  0
  4  5  1  0
  5  6  2  0
  5  7  1  0
  7  8  1  0
  8  9  1  0
  9 10  1  0
 10 11  1  0
 11 12  1  0
 12 13  2  0
 13 14  1  0
 14 15  2  0
 15 16  1  0
 16 17  2  0
  2 18  1  0
 18 19  2  0
 19 20  1  0
 20 21  2  0
 21 22  1  0
 22 23  2  0
 23 24  1  0
 23 25  1  0
 25 26  2  0
 26 27  1  0
 27 28  2  0
 11  7  1  0
 17 12  1  0
 28 18  1  0
 27 21  1  0
  3 29  1  0
  4 30  1  0
  4 31  1  0
  8 32  1  0
  8 33  1  0
  9 34  1  0
  9 35  1  0
 10 36  1  0
 10 37  1  0
 11 38  1  6
 13 39  1  0
 15 40  1  0
 16 41  1  0
 19 42  1  0
 20 43  1  0
 22 44  1  0
 25 45  1  0
 26 46  1  0
M  END
>  <smiles>  (52) 
O=C(NCC(=O)N1CCCC1c1cnccn1)c1ccc2cc(F)ccc2n1

>  <score_type>  (52) 
oracle

>  <origin>  (52) 
autodockgpu

>  <m_score__min__energy>  (52) 
-8.5299999999999994

>  <m_primary>  (52) 
energy

>  <rmsd>  (52) 
2.428495851810742

>  <m_score__min__rmsd>  (52) 
2.428495851810742

>  <meeko>  (52) 
{"free_energy": -8.21, "intermolecular_energy": -9.7, "internal_energy": -1.02, "cluster_size": 20, "cluster_id": 2, "rank_in_cluster": 1}

>  <energy>  (52) 
-8.5

>  <cluster_rmsd>  (52) 
0.14

>  <cluster>  (52) 
1

$$$$

     RDKit          3D

 46 49  0  0  0  0  0  0  0  0999 V2000
  141.4440   72.6210  221.7340 O   0  0  0  0  0  0  0  0  0  0  0  0
  140.4420   72.6610  222.5130 C   0  0  0  0  0  0  0  0  0  0  0  0
  139.4680   73.7020  222.3540 N   0  0  0  0  0  0  0  0  0  0  0  0
  139.6980   74.6550  221.2950 C   0  0  0  0  0  0  0  0  0  0  0  0
  139.2370   76.0130  221.6530 C   0  0  0  0  0  0  0  0  0  0  0  0
  138.2730   76.2440  222.4280 O   0  0  0  0  0  0  0  0  0  0  0  0
  139.9230   77.1200  221.0850 N   0  0  0  0  0  0  0  0  0  0  0  0
  139.3440   78.2050  220.2880 C   0  0  0  0  0  0  0  0  0  0  0  0
  140.3170   78.2770  219.1360 C   0  0  0  0  0  0  0  0  0  0  0  0
  141.6240   77.7950  219.7120 C   0  0  0  0  0  0  0  0  0  0  0  0
  141.3370   77.4380  221.1580 C   0  0  1  0  0  0  0  0  0  0  0  0
  141.6620   78.5450  222.0620 C   0  0  0  0  0  0  0  0  0  0  0  0
  141.4960   78.4690  223.4280 C   0  0  0  0  0  0  0  0  0  0  0  0
  141.8020   79.4970  224.2330 N   0  0  0  0  0  0  0  0  0  0  0  0
  142.2840   80.6480  223.7530 C   0  0  0  0  0  0  0  0  0  0  0  0
  142.4610   80.7510  222.3830 C   0  0  0  0  0  0  0  0  0  0  0  0
  142.1530   79.7200  221.5850 N   0  0  0  0  0  0  0  0  0  0  0  0
  140.2520   71.6700  223.5750 C   0  0  0  0  0  0  0  0  0  0  0  0
  139.5690   70.5070  223.2670 C   0  0  0  0  0  0  0  0  0  0  0  0
  139.3940   69.5790  224.2730 C   0  0  0  0  0  0  0  0  0  0  0  0
  139.8920   69.8130  225.5500 C   0  0  0  0  0  0  0  0  0  0  0  0
  139.7140   68.8780  226.5590 C   0  0  0  0  0  0  0  0  0  0  0  0
  140.2310   69.1710  227.8050 C   0  0  0  0  0  0  0  0  0  0  0  0
  140.0670   68.2720  228.7910 F   0  0  0  0  0  0  0  0  0  0  0  0
  140.9080   70.3290  228.0970 C   0  0  0  0  0  0  0  0  0  0  0  0
  141.0650   71.2410  227.0570 C   0  0  0  0  0  0  0  0  0  0  0  0
  140.5570   70.9740  225.8030 C   0  0  0  0  0  0  0  0  0  0  0  0
  140.7320   71.8920  224.8130 N   0  0  0  0  0  0  0  0  0  0  0  0
  138.6200   73.7640  222.9880 H   0  0  0  0  0  0  0  0  0  0  0  0
  140.7763   74.6924  221.0807 H   0  0  0  0  0  0  0  0  0  0  0  0
  139.1250   74.3259  220.4156 H   0  0  0  0  0  0  0  0  0  0  0  0
  138.3298   77.9547  219.9435 H   0  0  0  0  0  0  0  0  0  0  0  0
  139.2231   79.1513  220.8355 H   0  0  0  0  0  0  0  0  0  0  0  0
  139.9919   77.6252  218.3117 H   0  0  0  0  0  0  0  0  0  0  0  0
  140.3942   79.2914  218.7177 H   0  0  0  0  0  0  0  0  0  0  0  0
  141.9805   76.9107  219.1635 H   0  0  0  0  0  0  0  0  0  0  0  0
  142.4066   78.5641  219.6345 H   0  0  0  0  0  0  0  0  0  0  0  0
  141.9383   76.6146  221.5709 H   0  0  0  0  0  0  0  0  0  0  0  0
  141.1025   77.5414  223.8693 H   0  0  0  0  0  0  0  0  0  0  0  0
  142.5315   81.4845  224.4230 H   0  0  0  0  0  0  0  0  0  0  0  0
  142.8555   81.6817  221.9492 H   0  0  0  0  0  0  0  0  0  0  0  0
  139.1786   70.3281  222.2543 H   0  0  0  0  0  0  0  0  0  0  0  0
  138.8546   68.6438  224.0625 H   0  0  0  0  0  0  0  0  0  0  0  0
  139.1791   67.9351  226.3726 H   0  0  0  0  0  0  0  0  0  0  0  0
  141.3067   70.5265  229.1030 H   0  0  0  0  0  0  0  0  0  0  0  0
  141.6001   72.1850  227.2375 H   0  0  0  0  0  0  0  0  0  0  0  0
  1  2  2  0
  2  3  1  0
  3  4  1  0
  4  5  1  0
  5  6  2  0
  5  7  1  0
  7  8  1  0
  8  9  1  0
  9 10  1  0
 10 11  1  0
 11 12  1  0
 12 13  2  0
 13 14  1  0
 14 15  2  0
 15 16  1  0
 16 17  2  0
  2 18  1  0
 18 19  2  0
 19 20  1  0
 20 21  2  0
 21 22  1  0
 22 23  2  0
 23 24  1  0
 23 25  1  0
 25 26  2  0
 26 27  1  0
 27 28  2  0
 11  7  1  0
 17 12  1  0
 28 18  1  0
 27 21  1  0
  3 29  1  0
  4 30  1  0
  4 31  1  0
  8 32  1  0
  8 33  1  0
  9 34  1  0
  9 35  1  0
 10 36  1  0
 10 37  1  0
 11 38  1  1
 13 39  1  0
 15 40  1  0
 16 41  1  0
 19 42  1  0
 20 43  1  0
 22 44  1  0
 25 45  1  0
 26 46  1  0
M  END
>  <smiles>  (53) 
O=C(NCC(=O)N1CCCC1c1cnccn1)c1ccc2cc(F)ccc2n1

>  <score_type>  (53) 
oracle

>  <origin>  (53) 
autodockgpu

>  <m_score__min__energy>  (53) 
-8.5299999999999994

>  <m_primary>  (53) 
energy

>  <rmsd>  (53) 
2.0261286237900604

>  <m_score__min__rmsd>  (53) 
2.0261286237900604

>  <meeko>  (53) 
{"free_energy": -7.99, "intermolecular_energy": -9.48, "internal_energy": -1.32, "cluster_size": 20, "cluster_id": 2, "rank_in_cluster": 14}

>  <energy>  (53) 
-8.48

>  <cluster_rmsd>  (53) 
0.21

>  <cluster>  (53) 
1

$$$$

     RDKit          3D

 46 49  0  0  0  0  0  0  0  0999 V2000
  141.4430   72.3200  221.7090 O   0  0  0  0  0  0  0  0  0  0  0  0
  140.4250   72.4380  222.4600 C   0  0  0  0  0  0  0  0  0  0  0  0
  139.4550   73.4550  222.1750 N   0  0  0  0  0  0  0  0  0  0  0  0
  139.7060   74.2960  221.0300 C   0  0  0  0  0  0  0  0  0  0  0  0
  140.7340   75.3230  221.3030 C   0  0  0  0  0  0  0  0  0  0  0  0
  140.7780   76.0090  222.3560 O   0  0  0  0  0  0  0  0  0  0  0  0
  141.7290   75.5470  220.3140 N   0  0  0  0  0  0  0  0  0  0  0  0
  142.4850   76.7820  220.0830 C   0  0  0  0  0  0  0  0  0  0  0  0
  142.3730   76.9220  218.5840 C   0  0  0  0  0  0  0  0  0  0  0  0
  142.2260   75.5090  218.0800 C   0  0  0  0  0  0  0  0  0  0  0  0
  142.2300   74.6230  219.3120 C   0  0  1  0  0  0  0  0  0  0  0  0
  143.5680   74.0940  219.5920 C   0  0  0  0  0  0  0  0  0  0  0  0
  144.1340   74.1190  220.8480 C   0  0  0  0  0  0  0  0  0  0  0  0
  145.3600   73.6270  221.0780 N   0  0  0  0  0  0  0  0  0  0  0  0
  146.0960   73.0860  220.1020 C   0  0  0  0  0  0  0  0  0  0  0  0
  145.5500   73.0480  218.8290 C   0  0  0  0  0  0  0  0  0  0  0  0
  144.3250   73.5420  218.6070 N   0  0  0  0  0  0  0  0  0  0  0  0
  140.2140   71.5600  223.6120 C   0  0  0  0  0  0  0  0  0  0  0  0
  139.5030   70.3890  223.4190 C   0  0  0  0  0  0  0  0  0  0  0  0
  139.3080   69.5670  224.5100 C   0  0  0  0  0  0  0  0  0  0  0  0
  139.8130   69.9130  225.7580 C   0  0  0  0  0  0  0  0  0  0  0  0
  139.6150   69.0850  226.8530 C   0  0  0  0  0  0  0  0  0  0  0  0
  140.1410   69.4850  228.0650 C   0  0  0  0  0  0  0  0  0  0  0  0
  139.9570   68.6910  229.1350 F   0  0  0  0  0  0  0  0  0  0  0  0
  140.8450   70.6500  228.2440 C   0  0  0  0  0  0  0  0  0  0  0  0
  141.0220   71.4530  227.1200 C   0  0  0  0  0  0  0  0  0  0  0  0
  140.5070   71.0770  225.8980 C   0  0  0  0  0  0  0  0  0  0  0  0
  140.7010   71.8900  224.8230 N   0  0  0  0  0  0  0  0  0  0  0  0
  138.5950   73.5800  222.7830 H   0  0  0  0  0  0  0  0  0  0  0  0
  140.0485   73.6655  220.1962 H   0  0  0  0  0  0  0  0  0  0  0  0
  138.7687   74.8155  220.7820 H   0  0  0  0  0  0  0  0  0  0  0  0
  142.0278   77.6370  220.6025 H   0  0  0  0  0  0  0  0  0  0  0  0
  143.5192   76.7534  220.4565 H   0  0  0  0  0  0  0  0  0  0  0  0
  141.4924   77.5238  218.3149 H   0  0  0  0  0  0  0  0  0  0  0  0
  143.2437   77.4324  218.1465 H   0  0  0  0  0  0  0  0  0  0  0  0
  141.2797   75.3956  217.5307 H   0  0  0  0  0  0  0  0  0  0  0  0
  143.0385   75.2413  217.3885 H   0  0  0  0  0  0  0  0  0  0  0  0
  141.6269   73.7061  219.2382 H   0  0  0  0  0  0  0  0  0  0  0  0
  143.5656   74.5537  221.6834 H   0  0  0  0  0  0  0  0  0  0  0  0
  147.1004   72.6848  220.3025 H   0  0  0  0  0  0  0  0  0  0  0  0
  146.1241   72.6110  217.9987 H   0  0  0  0  0  0  0  0  0  0  0  0
  139.1062   70.1220  222.4284 H   0  0  0  0  0  0  0  0  0  0  0  0
  138.7471   68.6282  224.3909 H   0  0  0  0  0  0  0  0  0  0  0  0
  139.0576   68.1414  226.7588 H   0  0  0  0  0  0  0  0  0  0  0  0
  141.2492   70.9350  229.2265 H   0  0  0  0  0  0  0  0  0  0  0  0
  141.5788   72.3975  227.2084 H   0  0  0  0  0  0  0  0  0  0  0  0
  1  2  2  0
  2  3  1  0
  3  4  1  0
  4  5  1  0
  5  6  2  0
  5  7  1  0
  7  8  1  0
  8  9  1  0
  9 10  1  0
 10 11  1  0
 11 12  1  0
 12 13  2  0
 13 14  1  0
 14 15  2  0
 15 16  1  0
 16 17  2  0
  2 18  1  0
 18 19  2  0
 19 20  1  0
 20 21  2  0
 21 22  1  0
 22 23  2  0
 23 24  1  0
 23 25  1  0
 25 26  2  0
 26 27  1  0
 27 28  2  0
 11  7  1  0
 17 12  1  0
 28 18  1  0
 27 21  1  0
  3 29  1  0
  4 30  1  0
  4 31  1  0
  8 32  1  0
  8 33  1  0
  9 34  1  0
  9 35  1  0
 10 36  1  0
 10 37  1  0
 11 38  1  6
 13 39  1  0
 15 40  1  0
 16 41  1  0
 19 42  1  0
 20 43  1  0
 22 44  1  0
 25 45  1  0
 26 46  1  0
M  END
>  <smiles>  (54) 
O=C(NCC(=O)N1CCCC1c1cnccn1)c1ccc2cc(F)ccc2n1

>  <score_type>  (54) 
oracle

>  <origin>  (54) 
autodockgpu

>  <m_score__min__energy>  (54) 
-8.5299999999999994

>  <m_primary>  (54) 
energy

>  <rmsd>  (54) 
3.6601241363376267

>  <m_score__min__rmsd>  (54) 
3.6601241363376267

>  <meeko>  (54) 
{"free_energy": -7.71, "intermolecular_energy": -9.2, "internal_energy": -1.38, "cluster_size": 16, "cluster_id": 1, "rank_in_cluster": 11}

>  <energy>  (54) 
-8.47

>  <cluster_rmsd>  (54) 
0.15

>  <cluster>  (54) 
1

$$$$

     RDKit          3D

 46 49  0  0  0  0  0  0  0  0999 V2000
  138.7770   74.8910  222.0660 O   0  0  0  0  0  0  0  0  0  0  0  0
  139.9770   75.2920  221.9610 C   0  0  0  0  0  0  0  0  0  0  0  0
  140.2860   76.6660  222.2390 N   0  0  0  0  0  0  0  0  0  0  0  0
  139.1880   77.5170  222.6270 C   0  0  0  0  0  0  0  0  0  0  0  0
  139.6450   78.8340  223.1180 C   0  0  0  0  0  0  0  0  0  0  0  0
  138.9930   79.5460  223.9240 O   0  0  0  0  0  0  0  0  0  0  0  0
  140.8940   79.3220  222.6480 N   0  0  0  0  0  0  0  0  0  0  0  0
  142.2140   79.0970  223.2460 C   0  0  0  0  0  0  0  0  0  0  0  0
  142.7850   80.4950  223.2340 C   0  0  0  0  0  0  0  0  0  0  0  0
  142.1100   81.1720  222.0680 C   0  0  0  0  0  0  0  0  0  0  0  0
  141.1590   80.1460  221.4820 C   0  0  1  0  0  0  0  0  0  0  0  0
  141.7670   79.4260  220.3590 C   0  0  0  0  0  0  0  0  0  0  0  0
  142.1940   80.0550  219.2110 C   0  0  0  0  0  0  0  0  0  0  0  0
  142.7480   79.3730  218.1980 N   0  0  0  0  0  0  0  0  0  0  0  0
  142.9160   78.0480  218.2500 C   0  0  0  0  0  0  0  0  0  0  0  0
  142.4950   77.3900  219.3950 C   0  0  0  0  0  0  0  0  0  0  0  0
  141.9420   78.0780  220.4020 N   0  0  0  0  0  0  0  0  0  0  0  0
  141.0590   74.3900  221.5640 C   0  0  0  0  0  0  0  0  0  0  0  0
  140.8110   73.0290  221.5730 C   0  0  0  0  0  0  0  0  0  0  0  0
  141.8370   72.1850  221.1980 C   0  0  0  0  0  0  0  0  0  0  0  0
  143.0740   72.6960  220.8240 C   0  0  0  0  0  0  0  0  0  0  0  0
  144.1030   71.8450  220.4470 C   0  0  0  0  0  0  0  0  0  0  0  0
  145.3090   72.4130  220.0870 C   0  0  0  0  0  0  0  0  0  0  0  0
  146.3140   71.6000  219.7190 F   0  0  0  0  0  0  0  0  0  0  0  0
  145.5420   73.7660  220.0830 C   0  0  0  0  0  0  0  0  0  0  0  0
  144.4850   74.5860  220.4670 C   0  0  0  0  0  0  0  0  0  0  0  0
  143.2700   74.0430  220.8310 C   0  0  0  0  0  0  0  0  0  0  0  0
  142.2610   74.8790  221.2010 N   0  0  0  0  0  0  0  0  0  0  0  0
  141.2780   77.0330  222.1610 H   0  0  0  0  0  0  0  0  0  0  0  0
  138.5352   77.6716  221.7553 H   0  0  0  0  0  0  0  0  0  0  0  0
  138.6509   77.0197  223.4481 H   0  0  0  0  0  0  0  0  0  0  0  0
  142.1307   78.7046  224.2702 H   0  0  0  0  0  0  0  0  0  0  0  0
  142.8285   78.3543  222.7161 H   0  0  0  0  0  0  0  0  0  0  0  0
  142.5528   81.0173  224.1738 H   0  0  0  0  0  0  0  0  0  0  0  0
  143.8810   80.4970  223.1399 H   0  0  0  0  0  0  0  0  0  0  0  0
  141.5538   82.0573  222.4098 H   0  0  0  0  0  0  0  0  0  0  0  0
  142.8423   81.5147  221.3221 H   0  0  0  0  0  0  0  0  0  0  0  0
  140.2425   80.5536  221.0305 H   0  0  0  0  0  0  0  0  0  0  0  0
  142.0777   81.1452  219.1225 H   0  0  0  0  0  0  0  0  0  0  0  0
  143.3725   77.4989  217.4133 H   0  0  0  0  0  0  0  0  0  0  0  0
  142.6155   76.2997  219.4767 H   0  0  0  0  0  0  0  0  0  0  0  0
  139.8287   72.6325  221.8692 H   0  0  0  0  0  0  0  0  0  0  0  0
  141.6738   71.0972  221.1952 H   0  0  0  0  0  0  0  0  0  0  0  0
  143.9627   70.7540  220.4353 H   0  0  0  0  0  0  0  0  0  0  0  0
  146.5173   74.1820  219.7903 H   0  0  0  0  0  0  0  0  0  0  0  0
  144.6196   75.6776  220.4804 H   0  0  0  0  0  0  0  0  0  0  0  0
  1  2  2  0
  2  3  1  0
  3  4  1  0
  4  5  1  0
  5  6  2  0
  5  7  1  0
  7  8  1  0
  8  9  1  0
  9 10  1  0
 10 11  1  0
 11 12  1  0
 12 13  2  0
 13 14  1  0
 14 15  2  0
 15 16  1  0
 16 17  2  0
  2 18  1  0
 18 19  2  0
 19 20  1  0
 20 21  2  0
 21 22  1  0
 22 23  2  0
 23 24  1  0
 23 25  1  0
 25 26  2  0
 26 27  1  0
 27 28  2  0
 11  7  1  0
 17 12  1  0
 28 18  1  0
 27 21  1  0
  3 29  1  0
  4 30  1  0
  4 31  1  0
  8 32  1  0
  8 33  1  0
  9 34  1  0
  9 35  1  0
 10 36  1  0
 10 37  1  0
 11 38  1  6
 13 39  1  0
 15 40  1  0
 16 41  1  0
 19 42  1  0
 20 43  1  0
 22 44  1  0
 25 45  1  0
 26 46  1  0
M  END
>  <smiles>  (55) 
O=C(NCC(=O)N1CCCC1c1cnccn1)c1ccc2cc(F)ccc2n1

>  <score_type>  (55) 
oracle

>  <origin>  (55) 
autodockgpu

>  <m_score__min__energy>  (55) 
-8.5299999999999994

>  <m_primary>  (55) 
energy

>  <rmsd>  (55) 
6.340140599628877

>  <m_score__min__rmsd>  (55) 
6.340140599628877

>  <meeko>  (55) 
{"free_energy": -6.71, "intermolecular_energy": -8.2, "internal_energy": -2.64, "cluster_size": 7, "cluster_id": 5, "rank_in_cluster": 1}

>  <energy>  (55) 
-8.47

>  <cluster_rmsd>  (55) 
0.17

>  <cluster>  (55) 
1

$$$$

     RDKit          3D

 46 49  0  0  0  0  0  0  0  0999 V2000
  138.8480   74.8010  222.2790 O   0  0  0  0  0  0  0  0  0  0  0  0
  139.9980   75.2420  221.9690 C   0  0  0  0  0  0  0  0  0  0  0  0
  140.2530   76.6520  222.0410 N   0  0  0  0  0  0  0  0  0  0  0  0
  139.1620   77.4920  222.4690 C   0  0  0  0  0  0  0  0  0  0  0  0
  139.6300   78.7850  223.0130 C   0  0  0  0  0  0  0  0  0  0  0  0
  138.9840   79.4680  223.8480 O   0  0  0  0  0  0  0  0  0  0  0  0
  140.8830   79.2820  222.5630 N   0  0  0  0  0  0  0  0  0  0  0  0
  142.2000   79.0280  223.1550 C   0  0  0  0  0  0  0  0  0  0  0  0
  142.7800   80.4220  223.1940 C   0  0  0  0  0  0  0  0  0  0  0  0
  142.1110   81.1450  222.0520 C   0  0  0  0  0  0  0  0  0  0  0  0
  141.1550   80.1450  221.4280 C   0  0  1  0  0  0  0  0  0  0  0  0
  141.7600   79.4630  220.2810 C   0  0  0  0  0  0  0  0  0  0  0  0
  142.1590   80.1260  219.1410 C   0  0  0  0  0  0  0  0  0  0  0  0
  142.7120   79.4780  218.1060 N   0  0  0  0  0  0  0  0  0  0  0  0
  142.9050   78.1550  218.1260 C   0  0  0  0  0  0  0  0  0  0  0  0
  142.5140   77.4630  219.2610 C   0  0  0  0  0  0  0  0  0  0  0  0
  141.9620   78.1180  220.2910 N   0  0  0  0  0  0  0  0  0  0  0  0
  141.0760   74.3480  221.5400 C   0  0  0  0  0  0  0  0  0  0  0  0
  140.8170   72.9900  221.4910 C   0  0  0  0  0  0  0  0  0  0  0  0
  141.8380   72.1550  221.0860 C   0  0  0  0  0  0  0  0  0  0  0  0
  143.0810   72.6710  220.7400 C   0  0  0  0  0  0  0  0  0  0  0  0
  144.1060   71.8280  220.3320 C   0  0  0  0  0  0  0  0  0  0  0  0
  145.3170   72.4010  220.0030 C   0  0  0  0  0  0  0  0  0  0  0  0
  146.3180   71.5960  219.6060 F   0  0  0  0  0  0  0  0  0  0  0  0
  145.5610   73.7510  220.0560 C   0  0  0  0  0  0  0  0  0  0  0  0
  144.5080   74.5620  220.4690 C   0  0  0  0  0  0  0  0  0  0  0  0
  143.2880   74.0150  220.8040 C   0  0  0  0  0  0  0  0  0  0  0  0
  142.2830   74.8420  221.2040 N   0  0  0  0  0  0  0  0  0  0  0  0
  141.2030   77.0520  221.7890 H   0  0  0  0  0  0  0  0  0  0  0  0
  138.5065   77.6870  221.6074 H   0  0  0  0  0  0  0  0  0  0  0  0
  138.6248   76.9640  223.2706 H   0  0  0  0  0  0  0  0  0  0  0  0
  142.1121   78.5999  224.1645 H   0  0  0  0  0  0  0  0  0  0  0  0
  142.8110   78.3009  222.6000 H   0  0  0  0  0  0  0  0  0  0  0  0
  142.5497   80.9117  224.1517 H   0  0  0  0  0  0  0  0  0  0  0  0
  143.8761   80.4203  223.1014 H   0  0  0  0  0  0  0  0  0  0  0  0
  141.5590   82.0205  222.4246 H   0  0  0  0  0  0  0  0  0  0  0  0
  142.8463   81.5109  221.3202 H   0  0  0  0  0  0  0  0  0  0  0  0
  140.2415   80.5733  220.9899 H   0  0  0  0  0  0  0  0  0  0  0  0
  142.0201   81.2154  219.0786 H   0  0  0  0  0  0  0  0  0  0  0  0
  143.3588   77.6336  217.2703 H   0  0  0  0  0  0  0  0  0  0  0  0
  142.6571   76.3738  219.3164 H   0  0  0  0  0  0  0  0  0  0  0  0
  139.8301   72.5893  221.7657 H   0  0  0  0  0  0  0  0  0  0  0  0
  141.6663   71.0696  221.0365 H   0  0  0  0  0  0  0  0  0  0  0  0
  143.9574   70.7397  220.2731 H   0  0  0  0  0  0  0  0  0  0  0  0
  146.5409   74.1712  219.7853 H   0  0  0  0  0  0  0  0  0  0  0  0
  144.6509   75.6510  220.5287 H   0  0  0  0  0  0  0  0  0  0  0  0
  1  2  2  0
  2  3  1  0
  3  4  1  0
  4  5  1  0
  5  6  2  0
  5  7  1  0
  7  8  1  0
  8  9  1  0
  9 10  1  0
 10 11  1  0
 11 12  1  0
 12 13  2  0
 13 14  1  0
 14 15  2  0
 15 16  1  0
 16 17  2  0
  2 18  1  0
 18 19  2  0
 19 20  1  0
 20 21  2  0
 21 22  1  0
 22 23  2  0
 23 24  1  0
 23 25  1  0
 25 26  2  0
 26 27  1  0
 27 28  2  0
 11  7  1  0
 17 12  1  0
 28 18  1  0
 27 21  1  0
  3 29  1  0
  4 30  1  0
  4 31  1  0
  8 32  1  0
  8 33  1  0
  9 34  1  0
  9 35  1  0
 10 36  1  0
 10 37  1  0
 11 38  1  6
 13 39  1  0
 15 40  1  0
 16 41  1  0
 19 42  1  0
 20 43  1  0
 22 44  1  0
 25 45  1  0
 26 46  1  0
M  END
>  <smiles>  (56) 
O=C(NCC(=O)N1CCCC1c1cnccn1)c1ccc2cc(F)ccc2n1

>  <score_type>  (56) 
oracle

>  <origin>  (56) 
autodockgpu

>  <m_score__min__energy>  (56) 
-8.5299999999999994

>  <m_primary>  (56) 
energy

>  <rmsd>  (56) 
6.3380164719916765

>  <m_score__min__rmsd>  (56) 
6.3380164719916765

>  <meeko>  (56) 
{"free_energy": -6.62, "intermolecular_energy": -8.12, "internal_energy": -2.66, "cluster_size": 7, "cluster_id": 5, "rank_in_cluster": 6}

>  <energy>  (56) 
-8.47

>  <cluster_rmsd>  (56) 
0.18

>  <cluster>  (56) 
1

$$$$

     RDKit          3D

 46 49  0  0  0  0  0  0  0  0999 V2000
  139.9630   73.6860  222.3100 O   0  0  0  0  0  0  0  0  0  0  0  0
  140.4750   72.5240  222.2660 C   0  0  0  0  0  0  0  0  0  0  0  0
  141.2440   72.1370  221.1190 N   0  0  0  0  0  0  0  0  0  0  0  0
  141.3860   73.1140  220.0680 C   0  0  0  0  0  0  0  0  0  0  0  0
  142.6160   73.9210  220.2140 C   0  0  0  0  0  0  0  0  0  0  0  0
  142.6220   75.1690  220.3660 O   0  0  0  0  0  0  0  0  0  0  0  0
  143.8650   73.2430  220.1790 N   0  0  0  0  0  0  0  0  0  0  0  0
  144.8680   73.1790  221.2470 C   0  0  0  0  0  0  0  0  0  0  0  0
  146.1340   73.4820  220.4820 C   0  0  0  0  0  0  0  0  0  0  0  0
  145.8580   72.9930  219.0820 C   0  0  0  0  0  0  0  0  0  0  0  0
  144.4370   72.4610  219.0980 C   0  0  1  0  0  0  0  0  0  0  0  0
  144.4050   71.0120  219.3160 C   0  0  0  0  0  0  0  0  0  0  0  0
  145.5310   70.2220  219.2520 C   0  0  0  0  0  0  0  0  0  0  0  0
  145.4750   68.8980  219.4570 N   0  0  0  0  0  0  0  0  0  0  0  0
  144.3240   68.2760  219.7340 C   0  0  0  0  0  0  0  0  0  0  0  0
  143.1760   69.0490  219.8050 C   0  0  0  0  0  0  0  0  0  0  0  0
  143.2400   70.3700  219.5990 N   0  0  0  0  0  0  0  0  0  0  0  0
  140.3030   71.5650  223.3590 C   0  0  0  0  0  0  0  0  0  0  0  0
  139.7240   70.3420  223.0700 C   0  0  0  0  0  0  0  0  0  0  0  0
  139.5640   69.4450  224.1060 C   0  0  0  0  0  0  0  0  0  0  0  0
  139.9760   69.7680  225.3940 C   0  0  0  0  0  0  0  0  0  0  0  0
  139.8150   68.8630  226.4330 C   0  0  0  0  0  0  0  0  0  0  0  0
  140.2430   69.2430  227.6890 C   0  0  0  0  0  0  0  0  0  0  0  0
  140.0930   68.3760  228.7050 F   0  0  0  0  0  0  0  0  0  0  0  0
  140.8160   70.4600  227.9630 C   0  0  0  0  0  0  0  0  0  0  0  0
  140.9610   71.3390  226.8940 C   0  0  0  0  0  0  0  0  0  0  0  0
  140.5410   70.9840  225.6290 C   0  0  0  0  0  0  0  0  0  0  0  0
  140.7000   71.8730  224.6090 N   0  0  0  0  0  0  0  0  0  0  0  0
  141.6840   71.1740  221.0510 H   0  0  0  0  0  0  0  0  0  0  0  0
  141.4190   72.5908  219.1009 H   0  0  0  0  0  0  0  0  0  0  0  0
  140.5263   73.7977  220.1260 H   0  0  0  0  0  0  0  0  0  0  0  0
  144.6770   73.9333  222.0246 H   0  0  0  0  0  0  0  0  0  0  0  0
  144.8876   72.2226  221.7900 H   0  0  0  0  0  0  0  0  0  0  0  0
  146.3390   74.5627  220.4826 H   0  0  0  0  0  0  0  0  0  0  0  0
  147.0163   72.9985  220.9267 H   0  0  0  0  0  0  0  0  0  0  0  0
  145.9483   73.8207  218.3632 H   0  0  0  0  0  0  0  0  0  0  0  0
  146.5756   72.2170  218.7772 H   0  0  0  0  0  0  0  0  0  0  0  0
  143.8809   72.5671  218.1549 H   0  0  0  0  0  0  0  0  0  0  0  0
  146.5012   70.6889  219.0270 H   0  0  0  0  0  0  0  0  0  0  0  0
  144.2897   67.1891  219.8996 H   0  0  0  0  0  0  0  0  0  0  0  0
  142.2092   68.5755  220.0313 H   0  0  0  0  0  0  0  0  0  0  0  0
  139.4019   70.0931  222.0481 H   0  0  0  0  0  0  0  0  0  0  0  0
  139.1057   68.4642  223.9109 H   0  0  0  0  0  0  0  0  0  0  0  0
  139.3614   67.8756  226.2616 H   0  0  0  0  0  0  0  0  0  0  0  0
  141.1445   70.7273  228.9782 H   0  0  0  0  0  0  0  0  0  0  0  0
  141.4152   72.3271  227.0595 H   0  0  0  0  0  0  0  0  0  0  0  0
  1  2  2  0
  2  3  1  0
  3  4  1  0
  4  5  1  0
  5  6  2  0
  5  7  1  0
  7  8  1  0
  8  9  1  0
  9 10  1  0
 10 11  1  0
 11 12  1  0
 12 13  2  0
 13 14  1  0
 14 15  2  0
 15 16  1  0
 16 17  2  0
  2 18  1  0
 18 19  2  0
 19 20  1  0
 20 21  2  0
 21 22  1  0
 22 23  2  0
 23 24  1  0
 23 25  1  0
 25 26  2  0
 26 27  1  0
 27 28  2  0
 11  7  1  0
 17 12  1  0
 28 18  1  0
 27 21  1  0
  3 29  1  0
  4 30  1  0
  4 31  1  0
  8 32  1  0
  8 33  1  0
  9 34  1  0
  9 35  1  0
 10 36  1  0
 10 37  1  0
 11 38  1  6
 13 39  1  0
 15 40  1  0
 16 41  1  0
 19 42  1  0
 20 43  1  0
 22 44  1  0
 25 45  1  0
 26 46  1  0
M  END
>  <smiles>  (57) 
O=C(NCC(=O)N1CCCC1c1cnccn1)c1ccc2cc(F)ccc2n1

>  <score_type>  (57) 
oracle

>  <origin>  (57) 
autodockgpu

>  <m_score__min__energy>  (57) 
-8.5299999999999994

>  <m_primary>  (57) 
energy

>  <rmsd>  (57) 
5.54555697513234

>  <m_score__min__rmsd>  (57) 
5.54555697513234

>  <meeko>  (57) 
{"free_energy": -7.47, "intermolecular_energy": -8.96, "internal_energy": -1.98, "cluster_size": 3, "cluster_id": 4, "rank_in_cluster": 3}

>  <energy>  (57) 
-8.46

>  <cluster_rmsd>  (57) 
0.19

>  <cluster>  (57) 
1

$$$$

     RDKit          3D

 46 49  0  0  0  0  0  0  0  0999 V2000
  140.6460   73.5620  220.4160 O   0  0  0  0  0  0  0  0  0  0  0  0
  140.2680   74.3690  221.3210 C   0  0  0  0  0  0  0  0  0  0  0  0
  139.3240   73.9280  222.3070 N   0  0  0  0  0  0  0  0  0  0  0  0
  138.8570   72.5680  222.2010 C   0  0  0  0  0  0  0  0  0  0  0  0
  139.7630   71.6100  222.8700 C   0  0  0  0  0  0  0  0  0  0  0  0
  140.9840   71.8280  223.0770 O   0  0  0  0  0  0  0  0  0  0  0  0
  139.2190   70.3700  223.3010 N   0  0  0  0  0  0  0  0  0  0  0  0
  139.2050   69.1040  222.5600 C   0  0  0  0  0  0  0  0  0  0  0  0
  137.7720   68.6670  222.7500 C   0  0  0  0  0  0  0  0  0  0  0  0
  137.3590   69.2770  224.0660 C   0  0  0  0  0  0  0  0  0  0  0  0
  138.5610   70.0620  224.5580 C   0  0  1  0  0  0  0  0  0  0  0  0
  139.3750   69.2760  225.4900 C   0  0  0  0  0  0  0  0  0  0  0  0
  140.3260   69.8390  226.3110 C   0  0  0  0  0  0  0  0  0  0  0  0
  141.0560   69.0970  227.1560 N   0  0  0  0  0  0  0  0  0  0  0  0
  140.8990   67.7720  227.2450 C   0  0  0  0  0  0  0  0  0  0  0  0
  139.9480   67.1800  226.4300 C   0  0  0  0  0  0  0  0  0  0  0  0
  139.2230   67.9270  225.5880 N   0  0  0  0  0  0  0  0  0  0  0  0
  140.7710   75.7430  221.3870 C   0  0  0  0  0  0  0  0  0  0  0  0
  141.6500   76.1640  220.4050 C   0  0  0  0  0  0  0  0  0  0  0  0
  142.1190   77.4600  220.4760 C   0  0  0  0  0  0  0  0  0  0  0  0
  141.7150   78.3060  221.5010 C   0  0  0  0  0  0  0  0  0  0  0  0
  142.1890   79.6090  221.5680 C   0  0  0  0  0  0  0  0  0  0  0  0
  141.7510   80.3990  222.6120 C   0  0  0  0  0  0  0  0  0  0  0  0
  142.2020   81.6630  222.6880 F   0  0  0  0  0  0  0  0  0  0  0  0
  140.8780   79.9690  223.5790 C   0  0  0  0  0  0  0  0  0  0  0  0
  140.4260   78.6560  223.4760 C   0  0  0  0  0  0  0  0  0  0  0  0
  140.8480   77.8450  222.4440 C   0  0  0  0  0  0  0  0  0  0  0  0
  140.3830   76.5670  222.3790 N   0  0  0  0  0  0  0  0  0  0  0  0
  138.9880   74.5770  223.0750 H   0  0  0  0  0  0  0  0  0  0  0  0
  137.8625   72.4982  222.6659 H   0  0  0  0  0  0  0  0  0  0  0  0
  138.8203   72.3070  221.1330 H   0  0  0  0  0  0  0  0  0  0  0  0
  139.4420   69.2569  221.4968 H   0  0  0  0  0  0  0  0  0  0  0  0
  139.9494   68.3713  222.9051 H   0  0  0  0  0  0  0  0  0  0  0  0
  137.1397   69.0432  221.9323 H   0  0  0  0  0  0  0  0  0  0  0  0
  137.6660   67.5721  222.7464 H   0  0  0  0  0  0  0  0  0  0  0  0
  136.4976   69.9461  223.9236 H   0  0  0  0  0  0  0  0  0  0  0  0
  137.0568   68.5064  224.7904 H   0  0  0  0  0  0  0  0  0  0  0  0
  138.3300   70.9601  225.1496 H   0  0  0  0  0  0  0  0  0  0  0  0
  140.4912   70.9258  226.2727 H   0  0  0  0  0  0  0  0  0  0  0  0
  141.5041   67.1728  227.9413 H   0  0  0  0  0  0  0  0  0  0  0  0
  139.7880   66.0926  226.4748 H   0  0  0  0  0  0  0  0  0  0  0  0
  141.9643   75.4889  219.5954 H   0  0  0  0  0  0  0  0  0  0  0  0
  142.8205   77.8271  219.7124 H   0  0  0  0  0  0  0  0  0  0  0  0
  142.8897   79.9988  220.8149 H   0  0  0  0  0  0  0  0  0  0  0  0
  140.5511   80.6292  224.3958 H   0  0  0  0  0  0  0  0  0  0  0  0
  139.7247   78.2616  224.2261 H   0  0  0  0  0  0  0  0  0  0  0  0
  1  2  2  0
  2  3  1  0
  3  4  1  0
  4  5  1  0
  5  6  2  0
  5  7  1  0
  7  8  1  0
  8  9  1  0
  9 10  1  0
 10 11  1  0
 11 12  1  0
 12 13  2  0
 13 14  1  0
 14 15  2  0
 15 16  1  0
 16 17  2  0
  2 18  1  0
 18 19  2  0
 19 20  1  0
 20 21  2  0
 21 22  1  0
 22 23  2  0
 23 24  1  0
 23 25  1  0
 25 26  2  0
 26 27  1  0
 27 28  2  0
 11  7  1  0
 17 12  1  0
 28 18  1  0
 27 21  1  0
  3 29  1  0
  4 30  1  0
  4 31  1  0
  8 32  1  0
  8 33  1  0
  9 34  1  0
  9 35  1  0
 10 36  1  0
 10 37  1  0
 11 38  1  1
 13 39  1  0
 15 40  1  0
 16 41  1  0
 19 42  1  0
 20 43  1  0
 22 44  1  0
 25 45  1  0
 26 46  1  0
M  END
>  <smiles>  (58) 
O=C(NCC(=O)N1CCCC1c1cnccn1)c1ccc2cc(F)ccc2n1

>  <score_type>  (58) 
oracle

>  <origin>  (58) 
autodockgpu

>  <m_score__min__energy>  (58) 
-8.5299999999999994

>  <m_primary>  (58) 
energy

>  <rmsd>  (58) 
9.143090469651595

>  <m_score__min__rmsd>  (58) 
9.143090469651595

>  <meeko>  (58) 
{"free_energy": -7.63, "intermolecular_energy": -9.12, "internal_energy": -1.4, "cluster_size": 4, "cluster_id": 3, "rank_in_cluster": 3}

>  <energy>  (58) 
-8.45

>  <cluster_rmsd>  (58) 
0.21

>  <cluster>  (58) 
1

$$$$

     RDKit          3D

 46 49  0  0  0  0  0  0  0  0999 V2000
  140.0570   73.7490  222.3420 O   0  0  0  0  0  0  0  0  0  0  0  0
  140.5260   72.5700  222.2780 C   0  0  0  0  0  0  0  0  0  0  0  0
  141.2630   72.1690  221.1140 N   0  0  0  0  0  0  0  0  0  0  0  0
  141.4250   73.1530  220.0720 C   0  0  0  0  0  0  0  0  0  0  0  0
  142.6520   73.9590  220.2480 C   0  0  0  0  0  0  0  0  0  0  0  0
  142.6520   75.2010  220.4460 O   0  0  0  0  0  0  0  0  0  0  0  0
  143.9030   73.2890  220.1870 N   0  0  0  0  0  0  0  0  0  0  0  0
  144.9290   73.2330  221.2330 C   0  0  0  0  0  0  0  0  0  0  0  0
  146.1770   73.5420  220.4410 C   0  0  0  0  0  0  0  0  0  0  0  0
  145.8740   73.0510  219.0480 C   0  0  0  0  0  0  0  0  0  0  0  0
  144.4570   72.5100  219.0940 C   0  0  1  0  0  0  0  0  0  0  0  0
  144.4390   71.0610  219.3140 C   0  0  0  0  0  0  0  0  0  0  0  0
  145.5700   70.2790  219.2400 C   0  0  0  0  0  0  0  0  0  0  0  0
  145.5270   68.9550  219.4470 N   0  0  0  0  0  0  0  0  0  0  0  0
  144.3840   68.3250  219.7360 C   0  0  0  0  0  0  0  0  0  0  0  0
  143.2300   69.0880  219.8180 C   0  0  0  0  0  0  0  0  0  0  0  0
  143.2810   70.4100  219.6090 N   0  0  0  0  0  0  0  0  0  0  0  0
  140.3340   71.6060  223.3620 C   0  0  0  0  0  0  0  0  0  0  0  0
  139.7270   70.3990  223.0640 C   0  0  0  0  0  0  0  0  0  0  0  0
  139.5500   69.4960  224.0920 C   0  0  0  0  0  0  0  0  0  0  0  0
  139.9720   69.7980  225.3810 C   0  0  0  0  0  0  0  0  0  0  0  0
  139.7930   68.8870  226.4130 C   0  0  0  0  0  0  0  0  0  0  0  0
  140.2320   69.2460  227.6710 C   0  0  0  0  0  0  0  0  0  0  0  0
  140.0650   68.3730  228.6790 F   0  0  0  0  0  0  0  0  0  0  0  0
  140.8340   70.4480  227.9540 C   0  0  0  0  0  0  0  0  0  0  0  0
  140.9950   71.3330  226.8930 C   0  0  0  0  0  0  0  0  0  0  0  0
  140.5650   70.9990  225.6260 C   0  0  0  0  0  0  0  0  0  0  0  0
  140.7410   71.8930  224.6140 N   0  0  0  0  0  0  0  0  0  0  0  0
  141.6670   71.1920  221.0290 H   0  0  0  0  0  0  0  0  0  0  0  0
  141.4771   72.6363  219.1023 H   0  0  0  0  0  0  0  0  0  0  0  0
  140.5640   73.8361  220.1171 H   0  0  0  0  0  0  0  0  0  0  0  0
  144.7502   73.9876  222.0132 H   0  0  0  0  0  0  0  0  0  0  0  0
  144.9659   72.2775  221.7768 H   0  0  0  0  0  0  0  0  0  0  0  0
  146.3765   74.6238  220.4367 H   0  0  0  0  0  0  0  0  0  0  0  0
  147.0710   73.0632  220.8671 H   0  0  0  0  0  0  0  0  0  0  0  0
  145.9437   73.8791  218.3273 H   0  0  0  0  0  0  0  0  0  0  0  0
  146.5897   72.2792  218.7284 H   0  0  0  0  0  0  0  0  0  0  0  0
  143.8806   72.6120  218.1627 H   0  0  0  0  0  0  0  0  0  0  0  0
  146.5343   70.7531  219.0048 H   0  0  0  0  0  0  0  0  0  0  0  0
  144.3602   67.2380  219.9030 H   0  0  0  0  0  0  0  0  0  0  0  0
  142.2698   68.6067  220.0553 H   0  0  0  0  0  0  0  0  0  0  0  0
  139.3963   70.1669  222.0409 H   0  0  0  0  0  0  0  0  0  0  0  0
  139.0700   68.5273  223.8892 H   0  0  0  0  0  0  0  0  0  0  0  0
  139.3171   67.9116  226.2339 H   0  0  0  0  0  0  0  0  0  0  0  0
  141.1723   70.6984  228.9703 H   0  0  0  0  0  0  0  0  0  0  0  0
  141.4704   72.3097  227.0665 H   0  0  0  0  0  0  0  0  0  0  0  0
  1  2  2  0
  2  3  1  0
  3  4  1  0
  4  5  1  0
  5  6  2  0
  5  7  1  0
  7  8  1  0
  8  9  1  0
  9 10  1  0
 10 11  1  0
 11 12  1  0
 12 13  2  0
 13 14  1  0
 14 15  2  0
 15 16  1  0
 16 17  2  0
  2 18  1  0
 18 19  2  0
 19 20  1  0
 20 21  2  0
 21 22  1  0
 22 23  2  0
 23 24  1  0
 23 25  1  0
 25 26  2  0
 26 27  1  0
 27 28  2  0
 11  7  1  0
 17 12  1  0
 28 18  1  0
 27 21  1  0
  3 29  1  0
  4 30  1  0
  4 31  1  0
  8 32  1  0
  8 33  1  0
  9 34  1  0
  9 35  1  0
 10 36  1  0
 10 37  1  0
 11 38  1  6
 13 39  1  0
 15 40  1  0
 16 41  1  0
 19 42  1  0
 20 43  1  0
 22 44  1  0
 25 45  1  0
 26 46  1  0
M  END
>  <smiles>  (59) 
O=C(NCC(=O)N1CCCC1c1cnccn1)c1ccc2cc(F)ccc2n1

>  <score_type>  (59) 
oracle

>  <origin>  (59) 
autodockgpu

>  <m_score__min__energy>  (59) 
-8.5299999999999994

>  <m_primary>  (59) 
energy

>  <rmsd>  (59) 
5.542034998507545

>  <m_score__min__rmsd>  (59) 
5.542034998507545

>  <meeko>  (59) 
{"free_energy": -7.51, "intermolecular_energy": -9.0, "internal_energy": -1.95, "cluster_size": 3, "cluster_id": 4, "rank_in_cluster": 1}

>  <energy>  (59) 
-8.39

>  <cluster_rmsd>  (59) 
0.31

>  <cluster>  (59) 
1

$$$$

     RDKit          3D

 46 49  0  0  0  0  0  0  0  0999 V2000
  141.3260   72.6970  221.8600 O   0  0  0  0  0  0  0  0  0  0  0  0
  140.2950   72.6170  222.5970 C   0  0  0  0  0  0  0  0  0  0  0  0
  139.2040   73.5240  222.3800 N   0  0  0  0  0  0  0  0  0  0  0  0
  139.3550   74.4850  221.3160 C   0  0  0  0  0  0  0  0  0  0  0  0
  140.2670   75.5890  221.6830 C   0  0  0  0  0  0  0  0  0  0  0  0
  141.5060   75.4480  221.8520 O   0  0  0  0  0  0  0  0  0  0  0  0
  139.7090   76.8840  221.8560 N   0  0  0  0  0  0  0  0  0  0  0  0
  138.5800   77.2540  222.7160 C   0  0  0  0  0  0  0  0  0  0  0  0
  137.7620   78.1090  221.7780 C   0  0  0  0  0  0  0  0  0  0  0  0
  138.7690   78.6980  220.8230 C   0  0  0  0  0  0  0  0  0  0  0  0
  140.1150   78.1320  221.2340 C   0  0  1  0  0  0  0  0  0  0  0  0
  140.8350   79.0450  222.1260 C   0  0  0  0  0  0  0  0  0  0  0  0
  142.2030   79.0120  222.2850 C   0  0  0  0  0  0  0  0  0  0  0  0
  142.8380   79.8590  223.1080 N   0  0  0  0  0  0  0  0  0  0  0  0
  142.1770   80.7810  223.8160 C   0  0  0  0  0  0  0  0  0  0  0  0
  140.7990   80.8370  223.6740 C   0  0  0  0  0  0  0  0  0  0  0  0
  140.1720   79.9860  222.8510 N   0  0  0  0  0  0  0  0  0  0  0  0
  140.1870   71.6230  223.6660 C   0  0  0  0  0  0  0  0  0  0  0  0
  139.5830   70.4130  223.3750 C   0  0  0  0  0  0  0  0  0  0  0  0
  139.4860   69.4820  224.3880 C   0  0  0  0  0  0  0  0  0  0  0  0
  139.9830   69.7590  225.6560 C   0  0  0  0  0  0  0  0  0  0  0  0
  139.8830   68.8200  226.6730 C   0  0  0  0  0  0  0  0  0  0  0  0
  140.3950   69.1570  227.9110 C   0  0  0  0  0  0  0  0  0  0  0  0
  140.3050   68.2550  228.9050 F   0  0  0  0  0  0  0  0  0  0  0  0
  140.9920   70.3610  228.1870 C   0  0  0  0  0  0  0  0  0  0  0  0
  141.0720   71.2750  227.1400 C   0  0  0  0  0  0  0  0  0  0  0  0
  140.5690   70.9650  225.8950 C   0  0  0  0  0  0  0  0  0  0  0  0
  140.6660   71.8860  224.8970 N   0  0  0  0  0  0  0  0  0  0  0  0
  138.3290   73.4840  222.9790 H   0  0  0  0  0  0  0  0  0  0  0  0
  139.7587   73.9721  220.4306 H   0  0  0  0  0  0  0  0  0  0  0  0
  138.3653   74.9196  221.1118 H   0  0  0  0  0  0  0  0  0  0  0  0
  138.0182   76.3679  223.0466 H   0  0  0  0  0  0  0  0  0  0  0  0
  138.8707   77.7595  223.6487 H   0  0  0  0  0  0  0  0  0  0  0  0
  137.0258   77.4965  221.2368 H   0  0  0  0  0  0  0  0  0  0  0  0
  137.1907   78.8832  222.3110 H   0  0  0  0  0  0  0  0  0  0  0  0
  138.5313   78.4067  219.7892 H   0  0  0  0  0  0  0  0  0  0  0  0
  138.7654   79.7973  220.8608 H   0  0  0  0  0  0  0  0  0  0  0  0
  140.8362   77.9860  220.4163 H   0  0  0  0  0  0  0  0  0  0  0  0
  142.7899   78.2713  221.7220 H   0  0  0  0  0  0  0  0  0  0  0  0
  142.7083   81.4712  224.4879 H   0  0  0  0  0  0  0  0  0  0  0  0
  140.2191   81.5820  224.2385 H   0  0  0  0  0  0  0  0  0  0  0  0
  139.1929   70.2003  222.3687 H   0  0  0  0  0  0  0  0  0  0  0  0
  139.0103   68.5101  224.1902 H   0  0  0  0  0  0  0  0  0  0  0  0
  139.4122   67.8411  226.4993 H   0  0  0  0  0  0  0  0  0  0  0  0
  141.3881   70.5928  229.1867 H   0  0  0  0  0  0  0  0  0  0  0  0
  141.5418   72.2553  227.3083 H   0  0  0  0  0  0  0  0  0  0  0  0
  1  2  2  0
  2  3  1  0
  3  4  1  0
  4  5  1  0
  5  6  2  0
  5  7  1  0
  7  8  1  0
  8  9  1  0
  9 10  1  0
 10 11  1  0
 11 12  1  0
 12 13  2  0
 13 14  1  0
 14 15  2  0
 15 16  1  0
 16 17  2  0
  2 18  1  0
 18 19  2  0
 19 20  1  0
 20 21  2  0
 21 22  1  0
 22 23  2  0
 23 24  1  0
 23 25  1  0
 25 26  2  0
 26 27  1  0
 27 28  2  0
 11  7  1  0
 17 12  1  0
 28 18  1  0
 27 21  1  0
  3 29  1  0
  4 30  1  0
  4 31  1  0
  8 32  1  0
  8 33  1  0
  9 34  1  0
  9 35  1  0
 10 36  1  0
 10 37  1  0
 11 38  1  6
 13 39  1  0
 15 40  1  0
 16 41  1  0
 19 42  1  0
 20 43  1  0
 22 44  1  0
 25 45  1  0
 26 46  1  0
M  END
>  <smiles>  (60) 
O=C(NCC(=O)N1CCCC1c1cnccn1)c1ccc2cc(F)ccc2n1

>  <score_type>  (60) 
oracle

>  <origin>  (60) 
autodockgpu

>  <m_score__min__energy>  (60) 
-8.5299999999999994

>  <m_primary>  (60) 
energy

>  <rmsd>  (60) 
2.5016605718851794

>  <m_score__min__rmsd>  (60) 
2.5016605718851794

>  <meeko>  (60) 
{"free_energy": -8.04, "intermolecular_energy": -9.53, "internal_energy": -1.11, "cluster_size": 20, "cluster_id": 2, "rank_in_cluster": 8}

>  <energy>  (60) 
-8.37

>  <cluster_rmsd>  (60) 
0.34

>  <cluster>  (60) 
1

$$$$

     RDKit          3D

 46 49  0  0  0  0  0  0  0  0999 V2000
  139.6180   70.9550  221.4170 O   0  0  0  0  0  0  0  0  0  0  0  0
  139.6360   71.4630  222.5810 C   0  0  0  0  0  0  0  0  0  0  0  0
  139.5740   72.8890  222.7260 N   0  0  0  0  0  0  0  0  0  0  0  0
  139.4940   73.6670  221.5140 C   0  0  0  0  0  0  0  0  0  0  0  0
  140.8170   74.1520  221.0710 C   0  0  0  0  0  0  0  0  0  0  0  0
  141.2760   75.2900  221.3480 O   0  0  0  0  0  0  0  0  0  0  0  0
  141.6160   73.2800  220.2830 N   0  0  0  0  0  0  0  0  0  0  0  0
  141.5920   73.1340  218.8240 C   0  0  0  0  0  0  0  0  0  0  0  0
  141.5630   71.6310  218.6780 C   0  0  0  0  0  0  0  0  0  0  0  0
  142.2610   71.1160  219.9110 C   0  0  0  0  0  0  0  0  0  0  0  0
  142.6320   72.3420  220.7240 C   0  0  1  0  0  0  0  0  0  0  0  0
  144.0080   72.7710  220.4580 C   0  0  0  0  0  0  0  0  0  0  0  0
  144.7750   72.2350  219.4470 C   0  0  0  0  0  0  0  0  0  0  0  0
  146.0320   72.6460  219.2230 N   0  0  0  0  0  0  0  0  0  0  0  0
  146.6050   73.5970  219.9690 C   0  0  0  0  0  0  0  0  0  0  0  0
  145.8540   74.1530  220.9920 C   0  0  0  0  0  0  0  0  0  0  0  0
  144.6000   73.7370  221.2100 N   0  0  0  0  0  0  0  0  0  0  0  0
  139.7180   70.6320  223.7830 C   0  0  0  0  0  0  0  0  0  0  0  0
  139.2030   69.3490  223.7260 C   0  0  0  0  0  0  0  0  0  0  0  0
  139.2850   68.5720  224.8630 C   0  0  0  0  0  0  0  0  0  0  0  0
  139.8680   69.0700  226.0230 C   0  0  0  0  0  0  0  0  0  0  0  0
  139.9480   68.2860  227.1650 C   0  0  0  0  0  0  0  0  0  0  0  0
  140.5370   68.8390  228.2840 C   0  0  0  0  0  0  0  0  0  0  0  0
  140.6220   68.0900  229.3970 F   0  0  0  0  0  0  0  0  0  0  0  0
  141.0450   70.1140  228.3270 C   0  0  0  0  0  0  0  0  0  0  0  0
  140.9450   70.8680  227.1610 C   0  0  0  0  0  0  0  0  0  0  0  0
  140.3600   70.3400  226.0290 C   0  0  0  0  0  0  0  0  0  0  0  0
  140.2810   71.1090  224.9090 N   0  0  0  0  0  0  0  0  0  0  0  0
  139.5870   73.3450  223.6840 H   0  0  0  0  0  0  0  0  0  0  0  0
  139.0626   73.0406  220.7194 H   0  0  0  0  0  0  0  0  0  0  0  0
  138.8648   74.5457  221.7190 H   0  0  0  0  0  0  0  0  0  0  0  0
  140.6955   73.5985  218.3874 H   0  0  0  0  0  0  0  0  0  0  0  0
  142.4330   73.6208  218.3085 H   0  0  0  0  0  0  0  0  0  0  0  0
  140.5266   71.2647  218.6368 H   0  0  0  0  0  0  0  0  0  0  0  0
  142.0491   71.2923  217.7511 H   0  0  0  0  0  0  0  0  0  0  0  0
  141.5877   70.4645  220.4874 H   0  0  0  0  0  0  0  0  0  0  0  0
  143.1487   70.5202  219.6523 H   0  0  0  0  0  0  0  0  0  0  0  0
  142.6381   72.2022  221.8151 H   0  0  0  0  0  0  0  0  0  0  0  0
  144.3457   71.4500  218.8071 H   0  0  0  0  0  0  0  0  0  0  0  0
  147.6368   73.9263  219.7769 H   0  0  0  0  0  0  0  0  0  0  0  0
  146.2893   74.9386  221.6271 H   0  0  0  0  0  0  0  0  0  0  0  0
  138.7435   68.9615  222.8048 H   0  0  0  0  0  0  0  0  0  0  0  0
  138.8849   67.5474  224.8518 H   0  0  0  0  0  0  0  0  0  0  0  0
  139.5553   67.2586  227.1781 H   0  0  0  0  0  0  0  0  0  0  0  0
  141.5084   70.5198  229.2384 H   0  0  0  0  0  0  0  0  0  0  0  0
  141.3367   71.8957  227.1423 H   0  0  0  0  0  0  0  0  0  0  0  0
  1  2  2  0
  2  3  1  0
  3  4  1  0
  4  5  1  0
  5  6  2  0
  5  7  1  0
  7  8  1  0
  8  9  1  0
  9 10  1  0
 10 11  1  0
 11 12  1  0
 12 13  2  0
 13 14  1  0
 14 15  2  0
 15 16  1  0
 16 17  2  0
  2 18  1  0
 18 19  2  0
 19 20  1  0
 20 21  2  0
 21 22  1  0
 22 23  2  0
 23 24  1  0
 23 25  1  0
 25 26  2  0
 26 27  1  0
 27 28  2  0
 11  7  1  0
 17 12  1  0
 28 18  1  0
 27 21  1  0
  3 29  1  0
  4 30  1  0
  4 31  1  0
  8 32  1  0
  8 33  1  0
  9 34  1  0
  9 35  1  0
 10 36  1  0
 10 37  1  0
 11 38  1  1
 13 39  1  0
 15 40  1  0
 16 41  1  0
 19 42  1  0
 20 43  1  0
 22 44  1  0
 25 45  1  0
 26 46  1  0
M  END
>  <smiles>  (61) 
O=C(NCC(=O)N1CCCC1c1cnccn1)c1ccc2cc(F)ccc2n1

>  <score_type>  (61) 
oracle

>  <origin>  (61) 
autodockgpu

>  <m_score__min__energy>  (61) 
-8.5299999999999994

>  <m_primary>  (61) 
energy

>  <rmsd>  (61) 
3.852456596310066

>  <m_score__min__rmsd>  (61) 
3.852456596310066

>  <meeko>  (61) 
{"free_energy": -7.41, "intermolecular_energy": -8.9, "internal_energy": -1.66, "cluster_size": 16, "cluster_id": 1, "rank_in_cluster": 14}

>  <energy>  (61) 
-7.71

>  <cluster_rmsd>  (61) 
0.51

>  <cluster>  (61) 
1

$$$$

     RDKit          3D

 46 49  0  0  0  0  0  0  0  0999 V2000
  141.1380   72.1700  221.4970 O   0  0  0  0  0  0  0  0  0  0  0  0
  140.2890   72.3990  222.4140 C   0  0  0  0  0  0  0  0  0  0  0  0
  139.4470   73.5560  222.3190 N   0  0  0  0  0  0  0  0  0  0  0  0
  139.6240   74.4010  221.1630 C   0  0  0  0  0  0  0  0  0  0  0  0
  140.5330   75.5350  221.4310 C   0  0  0  0  0  0  0  0  0  0  0  0
  141.7880   75.4510  221.3990 O   0  0  0  0  0  0  0  0  0  0  0  0
  139.9530   76.7940  221.7450 N   0  0  0  0  0  0  0  0  0  0  0  0
  138.8800   77.0580  222.7090 C   0  0  0  0  0  0  0  0  0  0  0  0
  137.9720   77.9540  221.9020 C   0  0  0  0  0  0  0  0  0  0  0  0
  138.8900   78.6490  220.9290 C   0  0  0  0  0  0  0  0  0  0  0  0
  140.2780   78.0980  221.1980 C   0  0  1  0  0  0  0  0  0  0  0  0
  141.0350   78.9640  222.1070 C   0  0  0  0  0  0  0  0  0  0  0  0
  141.3990   80.2520  221.7830 C   0  0  0  0  0  0  0  0  0  0  0  0
  142.0910   81.0240  222.6340 N   0  0  0  0  0  0  0  0  0  0  0  0
  142.4630   80.5830  223.8400 C   0  0  0  0  0  0  0  0  0  0  0  0
  142.1090   79.2900  224.1920 C   0  0  0  0  0  0  0  0  0  0  0  0
  141.4190   78.5250  223.3360 N   0  0  0  0  0  0  0  0  0  0  0  0
  140.1460   71.5120  223.5690 C   0  0  0  0  0  0  0  0  0  0  0  0
  139.5010   70.3010  223.3870 C   0  0  0  0  0  0  0  0  0  0  0  0
  139.3710   69.4710  224.4820 C   0  0  0  0  0  0  0  0  0  0  0  0
  139.8740   69.8470  225.7220 C   0  0  0  0  0  0  0  0  0  0  0  0
  139.7410   69.0100  226.8200 C   0  0  0  0  0  0  0  0  0  0  0  0
  140.2620   69.4410  228.0240 C   0  0  0  0  0  0  0  0  0  0  0  0
  140.1400   68.6390  229.0960 F   0  0  0  0  0  0  0  0  0  0  0  0
  140.9000   70.6450  228.1910 C   0  0  0  0  0  0  0  0  0  0  0  0
  141.0130   71.4560  227.0650 C   0  0  0  0  0  0  0  0  0  0  0  0
  140.5010   71.0490  225.8510 C   0  0  0  0  0  0  0  0  0  0  0  0
  140.6320   71.8710  224.7730 N   0  0  0  0  0  0  0  0  0  0  0  0
  138.7280   73.7760  223.0680 H   0  0  0  0  0  0  0  0  0  0  0  0
  140.0432   73.7974  220.3445 H   0  0  0  0  0  0  0  0  0  0  0  0
  138.6406   74.8142  220.8945 H   0  0  0  0  0  0  0  0  0  0  0  0
  138.3693   76.1305  223.0072 H   0  0  0  0  0  0  0  0  0  0  0  0
  139.2236   77.4998  223.6560 H   0  0  0  0  0  0  0  0  0  0  0  0
  137.2165   77.3603  221.3666 H   0  0  0  0  0  0  0  0  0  0  0  0
  137.4186   78.6646  222.5335 H   0  0  0  0  0  0  0  0  0  0  0  0
  138.5861   78.4313  219.8945 H   0  0  0  0  0  0  0  0  0  0  0  0
  138.8585   79.7413  221.0549 H   0  0  0  0  0  0  0  0  0  0  0  0
  140.9422   78.0392  220.3231 H   0  0  0  0  0  0  0  0  0  0  0  0
  141.1149   80.6582  220.8010 H   0  0  0  0  0  0  0  0  0  0  0  0
  143.0309   81.2247  224.5297 H   0  0  0  0  0  0  0  0  0  0  0  0
  142.3953   78.8913  225.1764 H   0  0  0  0  0  0  0  0  0  0  0  0
  139.1053   70.0099  222.4028 H   0  0  0  0  0  0  0  0  0  0  0  0
  138.8637   68.5012  224.3722 H   0  0  0  0  0  0  0  0  0  0  0  0
  139.2375   68.0357  226.7346 H   0  0  0  0  0  0  0  0  0  0  0  0
  141.3024   70.9540  229.1670 H   0  0  0  0  0  0  0  0  0  0  0  0
  141.5157   72.4312  227.1446 H   0  0  0  0  0  0  0  0  0  0  0  0
  1  2  2  0
  2  3  1  0
  3  4  1  0
  4  5  1  0
  5  6  2  0
  5  7  1  0
  7  8  1  0
  8  9  1  0
  9 10  1  0
 10 11  1  0
 11 12  1  0
 12 13  2  0
 13 14  1  0
 14 15  2  0
 15 16  1  0
 16 17  2  0
  2 18  1  0
 18 19  2  0
 19 20  1  0
 20 21  2  0
 21 22  1  0
 22 23  2  0
 23 24  1  0
 23 25  1  0
 25 26  2  0
 26 27  1  0
 27 28  2  0
 11  7  1  0
 17 12  1  0
 28 18  1  0
 27 21  1  0
  3 29  1  0
  4 30  1  0
  4 31  1  0
  8 32  1  0
  8 33  1  0
  9 34  1  0
  9 35  1  0
 10 36  1  0
 10 37  1  0
 11 38  1  6
 13 39  1  0
 15 40  1  0
 16 41  1  0
 19 42  1  0
 20 43  1  0
 22 44  1  0
 25 45  1  0
 26 46  1  0
M  END
>  <smiles>  (62) 
O=C(NCC(=O)N1CCCC1c1cnccn1)c1ccc2cc(F)ccc2n1

>  <score_type>  (62) 
oracle

>  <origin>  (62) 
autodockgpu

>  <m_score__min__energy>  (62) 
-8.5299999999999994

>  <m_primary>  (62) 
energy

>  <rmsd>  (62) 
2.4525709212328

>  <m_score__min__rmsd>  (62) 
2.4525709212328

>  <meeko>  (62) 
{"free_energy": -8.05, "intermolecular_energy": -9.54, "internal_energy": -1.16, "cluster_size": 20, "cluster_id": 2, "rank_in_cluster": 7}

>  <energy>  (62) 
-7.66

>  <cluster_rmsd>  (62) 
0.53

>  <cluster>  (62) 
1

$$$$

     RDKit          3D

 46 49  0  0  0  0  0  0  0  0999 V2000
  141.0770   72.2060  221.4570 O   0  0  0  0  0  0  0  0  0  0  0  0
  140.2440   72.4090  222.3940 C   0  0  0  0  0  0  0  0  0  0  0  0
  139.3740   73.5480  222.3270 N   0  0  0  0  0  0  0  0  0  0  0  0
  139.5070   74.4040  221.1740 C   0  0  0  0  0  0  0  0  0  0  0  0
  140.7030   75.2700  221.2530 C   0  0  0  0  0  0  0  0  0  0  0  0
  141.8430   74.8610  221.5910 O   0  0  0  0  0  0  0  0  0  0  0  0
  140.5510   76.6450  220.9300 N   0  0  0  0  0  0  0  0  0  0  0  0
  139.2940   77.3820  220.7610 C   0  0  0  0  0  0  0  0  0  0  0  0
  139.5590   78.1280  219.4760 C   0  0  0  0  0  0  0  0  0  0  0  0
  141.0550   78.3110  219.4440 C   0  0  0  0  0  0  0  0  0  0  0  0
  141.5860   77.6360  220.6940 C   0  0  1  0  0  0  0  0  0  0  0  0
  141.7680   78.5930  221.7890 C   0  0  0  0  0  0  0  0  0  0  0  0
  141.5440   78.2700  223.1090 C   0  0  0  0  0  0  0  0  0  0  0  0
  141.7180   79.1650  224.0930 N   0  0  0  0  0  0  0  0  0  0  0  0
  142.1180   80.4160  223.8440 C   0  0  0  0  0  0  0  0  0  0  0  0
  142.3510   80.7670  222.5230 C   0  0  0  0  0  0  0  0  0  0  0  0
  142.1740   79.8680  221.5470 N   0  0  0  0  0  0  0  0  0  0  0  0
  140.1460   71.5100  223.5460 C   0  0  0  0  0  0  0  0  0  0  0  0
  139.5160   70.2910  223.3710 C   0  0  0  0  0  0  0  0  0  0  0  0
  139.4280   69.4510  224.4620 C   0  0  0  0  0  0  0  0  0  0  0  0
  139.9580   69.8240  225.6900 C   0  0  0  0  0  0  0  0  0  0  0  0
  139.8680   68.9760  226.7850 C   0  0  0  0  0  0  0  0  0  0  0  0
  140.4140   69.4060  227.9780 C   0  0  0  0  0  0  0  0  0  0  0  0
  140.3330   68.5940  229.0460 F   0  0  0  0  0  0  0  0  0  0  0  0
  141.0370   70.6190  228.1380 C   0  0  0  0  0  0  0  0  0  0  0  0
  141.1070   71.4400  227.0160 C   0  0  0  0  0  0  0  0  0  0  0  0
  140.5700   71.0350  225.8130 C   0  0  0  0  0  0  0  0  0  0  0  0
  140.6580   71.8680  224.7390 N   0  0  0  0  0  0  0  0  0  0  0  0
  138.6680   73.7460  223.0930 H   0  0  0  0  0  0  0  0  0  0  0  0
  139.5838   73.7760  220.2742 H   0  0  0  0  0  0  0  0  0  0  0  0
  138.6217   75.0556  221.1347 H   0  0  0  0  0  0  0  0  0  0  0  0
  138.4373   76.6994  220.6610 H   0  0  0  0  0  0  0  0  0  0  0  0
  139.0331   78.0287  221.6117 H   0  0  0  0  0  0  0  0  0  0  0  0
  139.2210   77.5409  218.6094 H   0  0  0  0  0  0  0  0  0  0  0  0
  139.0205   79.0861  219.4313 H   0  0  0  0  0  0  0  0  0  0  0  0
  141.4786   77.8387  218.5454 H   0  0  0  0  0  0  0  0  0  0  0  0
  141.3299   79.3757  219.4135 H   0  0  0  0  0  0  0  0  0  0  0  0
  142.5883   77.1921  220.6028 H   0  0  0  0  0  0  0  0  0  0  0  0
  141.2139   77.2519  223.3629 H   0  0  0  0  0  0  0  0  0  0  0  0
  142.2574   81.1417  224.6588 H   0  0  0  0  0  0  0  0  0  0  0  0
  142.6821   81.7866  222.2764 H   0  0  0  0  0  0  0  0  0  0  0  0
  139.0993   70.0012  222.3951 H   0  0  0  0  0  0  0  0  0  0  0  0
  138.9323   68.4746  224.3578 H   0  0  0  0  0  0  0  0  0  0  0  0
  139.3781   67.9943  226.7051 H   0  0  0  0  0  0  0  0  0  0  0  0
  141.4601   70.9270  229.1055 H   0  0  0  0  0  0  0  0  0  0  0  0
  141.5961   72.4225  227.0903 H   0  0  0  0  0  0  0  0  0  0  0  0
  1  2  2  0
  2  3  1  0
  3  4  1  0
  4  5  1  0
  5  6  2  0
  5  7  1  0
  7  8  1  0
  8  9  1  0
  9 10  1  0
 10 11  1  0
 11 12  1  0
 12 13  2  0
 13 14  1  0
 14 15  2  0
 15 16  1  0
 16 17  2  0
  2 18  1  0
 18 19  2  0
 19 20  1  0
 20 21  2  0
 21 22  1  0
 22 23  2  0
 23 24  1  0
 23 25  1  0
 25 26  2  0
 26 27  1  0
 27 28  2  0
 11  7  1  0
 17 12  1  0
 28 18  1  0
 27 21  1  0
  3 29  1  0
  4 30  1  0
  4 31  1  0
  8 32  1  0
  8 33  1  0
  9 34  1  0
  9 35  1  0
 10 36  1  0
 10 37  1  0
 11 38  1  6
 13 39  1  0
 15 40  1  0
 16 41  1  0
 19 42  1  0
 20 43  1  0
 22 44  1  0
 25 45  1  0
 26 46  1  0
M  END
>  <smiles>  (63) 
O=C(NCC(=O)N1CCCC1c1cnccn1)c1ccc2cc(F)ccc2n1

>  <score_type>  (63) 
oracle

>  <origin>  (63) 
autodockgpu

>  <m_score__min__energy>  (63) 
-8.5299999999999994

>  <m_primary>  (63) 
energy

>  <rmsd>  (63) 
1.7923923881182169

>  <m_score__min__rmsd>  (63) 
1.7923923881182169

>  <meeko>  (63) 
{"free_energy": -8.06, "intermolecular_energy": -9.55, "internal_energy": -1.1, "cluster_size": 20, "cluster_id": 2, "rank_in_cluster": 6}

>  <energy>  (63) 
-7.53

>  <cluster_rmsd>  (63) 
1.06

>  <cluster>  (63) 
1

$$$$

     RDKit          3D

 46 49  0  0  0  0  0  0  0  0999 V2000
  141.2120   72.2580  221.5650 O   0  0  0  0  0  0  0  0  0  0  0  0
  140.3220   72.4320  222.4550 C   0  0  0  0  0  0  0  0  0  0  0  0
  139.4180   73.5390  222.3380 N   0  0  0  0  0  0  0  0  0  0  0  0
  139.5830   74.4000  221.1930 C   0  0  0  0  0  0  0  0  0  0  0  0
  140.5780   75.4670  221.4320 C   0  0  0  0  0  0  0  0  0  0  0  0
  141.8100   75.2580  221.5750 O   0  0  0  0  0  0  0  0  0  0  0  0
  140.1110   76.8070  221.5050 N   0  0  0  0  0  0  0  0  0  0  0  0
  138.8890   77.2840  222.1600 C   0  0  0  0  0  0  0  0  0  0  0  0
  138.3170   78.1890  221.0950 C   0  0  0  0  0  0  0  0  0  0  0  0
  139.5180   78.6760  220.3250 C   0  0  0  0  0  0  0  0  0  0  0  0
  140.7220   78.0060  220.9600 C   0  0  1  0  0  0  0  0  0  0  0  0
  141.3560   78.8700  221.9600 C   0  0  0  0  0  0  0  0  0  0  0  0
  141.9880   80.0500  221.6360 C   0  0  0  0  0  0  0  0  0  0  0  0
  142.5590   80.8230  222.5710 N   0  0  0  0  0  0  0  0  0  0  0  0
  142.5450   80.4890  223.8650 C   0  0  0  0  0  0  0  0  0  0  0  0
  141.9150   79.3070  224.2190 C   0  0  0  0  0  0  0  0  0  0  0  0
  141.3470   78.5400  223.2790 N   0  0  0  0  0  0  0  0  0  0  0  0
  140.1940   71.5300  223.6010 C   0  0  0  0  0  0  0  0  0  0  0  0
  139.5760   70.3070  223.4050 C   0  0  0  0  0  0  0  0  0  0  0  0
  139.4590   69.4640  224.4910 C   0  0  0  0  0  0  0  0  0  0  0  0
  139.9490   69.8390  225.7360 C   0  0  0  0  0  0  0  0  0  0  0  0
  139.8290   68.9880  226.8260 C   0  0  0  0  0  0  0  0  0  0  0  0
  140.3350   69.4190  228.0360 C   0  0  0  0  0  0  0  0  0  0  0  0
  140.2260   68.6040  229.1000 F   0  0  0  0  0  0  0  0  0  0  0  0
  140.9450   70.6350  228.2180 C   0  0  0  0  0  0  0  0  0  0  0  0
  141.0460   71.4590  227.1000 C   0  0  0  0  0  0  0  0  0  0  0  0
  140.5490   71.0530  225.8800 C   0  0  0  0  0  0  0  0  0  0  0  0
  140.6660   71.8880  224.8110 N   0  0  0  0  0  0  0  0  0  0  0  0
  138.6640   73.7120  223.0640 H   0  0  0  0  0  0  0  0  0  0  0  0
  139.9145   73.7922  220.3382 H   0  0  0  0  0  0  0  0  0  0  0  0
  138.6147   74.8817  220.9919 H   0  0  0  0  0  0  0  0  0  0  0  0
  138.2061   76.4535  222.3922 H   0  0  0  0  0  0  0  0  0  0  0  0
  139.0599   77.7786  223.1275 H   0  0  0  0  0  0  0  0  0  0  0  0
  137.6340   77.6314  220.4373 H   0  0  0  0  0  0  0  0  0  0  0  0
  137.7310   79.0166  221.5213 H   0  0  0  0  0  0  0  0  0  0  0  0
  139.4352   78.3892  219.2663 H   0  0  0  0  0  0  0  0  0  0  0  0
  139.6018   79.7722  220.3604 H   0  0  0  0  0  0  0  0  0  0  0  0
  141.5566   77.7869  220.2778 H   0  0  0  0  0  0  0  0  0  0  0  0
  142.0253   80.3664  220.5832 H   0  0  0  0  0  0  0  0  0  0  0  0
  143.0176   81.1308  224.6232 H   0  0  0  0  0  0  0  0  0  0  0  0
  141.8811   78.9977  225.2741 H   0  0  0  0  0  0  0  0  0  0  0  0
  139.1910   70.0168  222.4163 H   0  0  0  0  0  0  0  0  0  0  0  0
  138.9727   68.4848  224.3699 H   0  0  0  0  0  0  0  0  0  0  0  0
  139.3472   68.0039  226.7290 H   0  0  0  0  0  0  0  0  0  0  0  0
  141.3351   70.9436  229.1991 H   0  0  0  0  0  0  0  0  0  0  0  0
  141.5273   72.4439  227.1913 H   0  0  0  0  0  0  0  0  0  0  0  0
  1  2  2  0
  2  3  1  0
  3  4  1  0
  4  5  1  0
  5  6  2  0
  5  7  1  0
  7  8  1  0
  8  9  1  0
  9 10  1  0
 10 11  1  0
 11 12  1  0
 12 13  2  0
 13 14  1  0
 14 15  2  0
 15 16  1  0
 16 17  2  0
  2 18  1  0
 18 19  2  0
 19 20  1  0
 20 21  2  0
 21 22  1  0
 22 23  2  0
 23 24  1  0
 23 25  1  0
 25 26  2  0
 26 27  1  0
 27 28  2  0
 11  7  1  0
 17 12  1  0
 28 18  1  0
 27 21  1  0
  3 29  1  0
  4 30  1  0
  4 31  1  0
  8 32  1  0
  8 33  1  0
  9 34  1  0
  9 35  1  0
 10 36  1  0
 10 37  1  0
 11 38  1  6
 13 39  1  0
 15 40  1  0
 16 41  1  0
 19 42  1  0
 20 43  1  0
 22 44  1  0
 25 45  1  0
 26 46  1  0
M  END
>  <smiles>  (64) 
O=C(NCC(=O)N1CCCC1c1cnccn1)c1ccc2cc(F)ccc2n1

>  <score_type>  (64) 
oracle

>  <origin>  (64) 
autodockgpu

>  <m_score__min__energy>  (64) 
-8.5299999999999994

>  <m_primary>  (64) 
energy

>  <rmsd>  (64) 
2.2158609846893693

>  <m_score__min__rmsd>  (64) 
2.2158609846893693

>  <meeko>  (64) 
{"free_energy": -8.17, "intermolecular_energy": -9.66, "internal_energy": -1.14, "cluster_size": 20, "cluster_id": 2, "rank_in_cluster": 2}

>  <energy>  (64) 
-7.41

>  <cluster_rmsd>  (64) 
1.45

>  <cluster>  (64) 
1

$$$$

     RDKit          3D

 46 49  0  0  0  0  0  0  0  0999 V2000
  141.4110   71.9470  221.3800 O   0  0  0  0  0  0  0  0  0  0  0  0
  140.5360   72.2710  222.2430 C   0  0  0  0  0  0  0  0  0  0  0  0
  139.7640   73.4640  222.0470 N   0  0  0  0  0  0  0  0  0  0  0  0
  140.0390   74.2330  220.8590 C   0  0  0  0  0  0  0  0  0  0  0  0
  140.9890   75.3370  221.1120 C   0  0  0  0  0  0  0  0  0  0  0  0
  140.9200   76.1090  222.1030 O   0  0  0  0  0  0  0  0  0  0  0  0
  142.0420   75.5360  220.1790 N   0  0  0  0  0  0  0  0  0  0  0  0
  142.8460   76.7490  219.9970 C   0  0  0  0  0  0  0  0  0  0  0  0
  142.8170   76.9000  218.4950 C   0  0  0  0  0  0  0  0  0  0  0  0
  142.6560   75.4940  217.9740 C   0  0  0  0  0  0  0  0  0  0  0  0
  142.5670   74.6030  219.1990 C   0  0  1  0  0  0  0  0  0  0  0  0
  143.8720   74.0320  219.5460 C   0  0  0  0  0  0  0  0  0  0  0  0
  144.7220   73.4840  218.6100 C   0  0  0  0  0  0  0  0  0  0  0  0
  145.9110   72.9690  218.9550 N   0  0  0  0  0  0  0  0  0  0  0  0
  146.3340   72.9610  220.2230 C   0  0  0  0  0  0  0  0  0  0  0  0
  145.4990   73.5070  221.1840 C   0  0  0  0  0  0  0  0  0  0  0  0
  144.3120   74.0190  220.8330 N   0  0  0  0  0  0  0  0  0  0  0  0
  140.2930   71.4570  223.4350 C   0  0  0  0  0  0  0  0  0  0  0  0
  139.5820   70.2790  223.2880 C   0  0  0  0  0  0  0  0  0  0  0  0
  139.3570   69.5180  224.4170 C   0  0  0  0  0  0  0  0  0  0  0  0
  139.8330   69.9300  225.6560 C   0  0  0  0  0  0  0  0  0  0  0  0
  139.6050   69.1620  226.7890 C   0  0  0  0  0  0  0  0  0  0  0  0
  140.1020   69.6260  227.9910 C   0  0  0  0  0  0  0  0  0  0  0  0
  139.8890   68.8910  229.0960 F   0  0  0  0  0  0  0  0  0  0  0  0
  140.8060   70.7970  228.1230 C   0  0  0  0  0  0  0  0  0  0  0  0
  141.0140   71.5370  226.9630 C   0  0  0  0  0  0  0  0  0  0  0  0
  140.5270   71.0970  225.7500 C   0  0  0  0  0  0  0  0  0  0  0  0
  140.7510   71.8510  224.6390 N   0  0  0  0  0  0  0  0  0  0  0  0
  139.0260   73.7620  222.7490 H   0  0  0  0  0  0  0  0  0  0  0  0
  140.4675   73.5654  220.0969 H   0  0  0  0  0  0  0  0  0  0  0  0
  139.0915   74.6761  220.5185 H   0  0  0  0  0  0  0  0  0  0  0  0
  142.3879   77.6147  220.4977 H   0  0  0  0  0  0  0  0  0  0  0  0
  143.8577   76.6874  220.4243 H   0  0  0  0  0  0  0  0  0  0  0  0
  141.9695   77.5286  218.1843 H   0  0  0  0  0  0  0  0  0  0  0  0
  143.7239   77.3871  218.1073 H   0  0  0  0  0  0  0  0  0  0  0  0
  141.7380   75.4114  217.3736 H   0  0  0  0  0  0  0  0  0  0  0  0
  143.4963   75.2054  217.3255 H   0  0  0  0  0  0  0  0  0  0  0  0
  141.9404   73.7058  219.0874 H   0  0  0  0  0  0  0  0  0  0  0  0
  144.4174   73.4687  217.5531 H   0  0  0  0  0  0  0  0  0  0  0  0
  147.3115   72.5355  220.4940 H   0  0  0  0  0  0  0  0  0  0  0  0
  145.8116   73.5202  222.2386 H   0  0  0  0  0  0  0  0  0  0  0  0
  139.2085   69.9597  222.3038 H   0  0  0  0  0  0  0  0  0  0  0  0
  138.7952   68.5758  224.3354 H   0  0  0  0  0  0  0  0  0  0  0  0
  139.0472   68.2156  226.7317 H   0  0  0  0  0  0  0  0  0  0  0  0
  141.1872   71.1340  229.0983 H   0  0  0  0  0  0  0  0  0  0  0  0
  141.5729   72.4831  227.0141 H   0  0  0  0  0  0  0  0  0  0  0  0
  1  2  2  0
  2  3  1  0
  3  4  1  0
  4  5  1  0
  5  6  2  0
  5  7  1  0
  7  8  1  0
  8  9  1  0
  9 10  1  0
 10 11  1  0
 11 12  1  0
 12 13  2  0
 13 14  1  0
 14 15  2  0
 15 16  1  0
 16 17  2  0
  2 18  1  0
 18 19  2  0
 19 20  1  0
 20 21  2  0
 21 22  1  0
 22 23  2  0
 23 24  1  0
 23 25  1  0
 25 26  2  0
 26 27  1  0
 27 28  2  0
 11  7  1  0
 17 12  1  0
 28 18  1  0
 27 21  1  0
  3 29  1  0
  4 30  1  0
  4 31  1  0
  8 32  1  0
  8 33  1  0
  9 34  1  0
  9 35  1  0
 10 36  1  0
 10 37  1  0
 11 38  1  6
 13 39  1  0
 15 40  1  0
 16 41  1  0
 19 42  1  0
 20 43  1  0
 22 44  1  0
 25 45  1  0
 26 46  1  0
M  END
>  <smiles>  (65) 
O=C(NCC(=O)N1CCCC1c1cnccn1)c1ccc2cc(F)ccc2n1

>  <score_type>  (65) 
oracle

>  <origin>  (65) 
autodockgpu

>  <m_score__min__energy>  (65) 
-8.5299999999999994

>  <m_primary>  (65) 
energy

>  <rmsd>  (65) 
3.5273379603477957

>  <m_score__min__rmsd>  (65) 
3.5273379603477957

>  <meeko>  (65) 
{"free_energy": -8.47, "intermolecular_energy": -9.96, "internal_energy": -1.46, "cluster_size": 16, "cluster_id": 1, "rank_in_cluster": 5}

>  <energy>  (65) 
-7.3

>  <cluster_rmsd>  (65) 
1.65

>  <cluster>  (65) 
1

$$$$

     RDKit          3D

 46 49  0  0  0  0  0  0  0  0999 V2000
  141.3490   71.8860  221.3080 O   0  0  0  0  0  0  0  0  0  0  0  0
  140.5210   72.2470  222.2000 C   0  0  0  0  0  0  0  0  0  0  0  0
  139.7920   73.4710  222.0290 N   0  0  0  0  0  0  0  0  0  0  0  0
  140.0560   74.2260  220.8280 C   0  0  0  0  0  0  0  0  0  0  0  0
  140.9890   75.3470  221.0650 C   0  0  0  0  0  0  0  0  0  0  0  0
  140.9000   76.1410  222.0360 O   0  0  0  0  0  0  0  0  0  0  0  0
  142.0490   75.5370  220.1370 N   0  0  0  0  0  0  0  0  0  0  0  0
  142.8600   76.7450  219.9560 C   0  0  0  0  0  0  0  0  0  0  0  0
  142.8410   76.8920  218.4530 C   0  0  0  0  0  0  0  0  0  0  0  0
  142.6750   75.4850  217.9360 C   0  0  0  0  0  0  0  0  0  0  0  0
  142.5740   74.5980  219.1630 C   0  0  1  0  0  0  0  0  0  0  0  0
  143.8730   74.0210  219.5190 C   0  0  0  0  0  0  0  0  0  0  0  0
  144.7560   73.5300  218.5830 C   0  0  0  0  0  0  0  0  0  0  0  0
  145.9390   73.0070  218.9360 N   0  0  0  0  0  0  0  0  0  0  0  0
  146.3250   72.9370  220.2140 C   0  0  0  0  0  0  0  0  0  0  0  0
  145.4560   73.4240  221.1770 C   0  0  0  0  0  0  0  0  0  0  0  0
  144.2750   73.9440  220.8170 N   0  0  0  0  0  0  0  0  0  0  0  0
  140.2870   71.4460  223.4030 C   0  0  0  0  0  0  0  0  0  0  0  0
  139.6060   70.2490  223.2690 C   0  0  0  0  0  0  0  0  0  0  0  0
  139.3900   69.5010  224.4080 C   0  0  0  0  0  0  0  0  0  0  0  0
  139.8460   69.9430  225.6440 C   0  0  0  0  0  0  0  0  0  0  0  0
  139.6270   69.1870  226.7880 C   0  0  0  0  0  0  0  0  0  0  0  0
  140.1040   69.6810  227.9850 C   0  0  0  0  0  0  0  0  0  0  0  0
  139.8990   68.9590  229.1000 F   0  0  0  0  0  0  0  0  0  0  0  0
  140.7790   70.8710  228.1050 C   0  0  0  0  0  0  0  0  0  0  0  0
  140.9780   71.5980  226.9350 C   0  0  0  0  0  0  0  0  0  0  0  0
  140.5120   71.1280  225.7250 C   0  0  0  0  0  0  0  0  0  0  0  0
  140.7270   71.8690  224.6040 N   0  0  0  0  0  0  0  0  0  0  0  0
  139.0930   73.8010  222.7550 H   0  0  0  0  0  0  0  0  0  0  0  0
  140.4947   73.5533  220.0764 H   0  0  0  0  0  0  0  0  0  0  0  0
  139.1023   74.6493  220.4798 H   0  0  0  0  0  0  0  0  0  0  0  0
  142.4034   77.6145  220.4514 H   0  0  0  0  0  0  0  0  0  0  0  0
  143.8689   76.6793  220.3894 H   0  0  0  0  0  0  0  0  0  0  0  0
  141.9990   77.5245  218.1352 H   0  0  0  0  0  0  0  0  0  0  0  0
  143.7527   77.3730  218.0690 H   0  0  0  0  0  0  0  0  0  0  0  0
  141.7600   75.4057  217.3306 H   0  0  0  0  0  0  0  0  0  0  0  0
  143.5176   75.1897  217.2935 H   0  0  0  0  0  0  0  0  0  0  0  0
  141.9431   73.7040  219.0504 H   0  0  0  0  0  0  0  0  0  0  0  0
  144.4835   73.5679  217.5179 H   0  0  0  0  0  0  0  0  0  0  0  0
  147.2990   72.5076  220.4915 H   0  0  0  0  0  0  0  0  0  0  0  0
  145.7365   73.3836  222.2399 H   0  0  0  0  0  0  0  0  0  0  0  0
  139.2487   69.9052  222.2871 H   0  0  0  0  0  0  0  0  0  0  0  0
  138.8511   68.5447  224.3370 H   0  0  0  0  0  0  0  0  0  0  0  0
  139.0916   68.2272  226.7417 H   0  0  0  0  0  0  0  0  0  0  0  0
  141.1443   71.2317  229.0778 H   0  0  0  0  0  0  0  0  0  0  0  0
  141.5130   72.5583  226.9758 H   0  0  0  0  0  0  0  0  0  0  0  0
  1  2  2  0
  2  3  1  0
  3  4  1  0
  4  5  1  0
  5  6  2  0
  5  7  1  0
  7  8  1  0
  8  9  1  0
  9 10  1  0
 10 11  1  0
 11 12  1  0
 12 13  2  0
 13 14  1  0
 14 15  2  0
 15 16  1  0
 16 17  2  0
  2 18  1  0
 18 19  2  0
 19 20  1  0
 20 21  2  0
 21 22  1  0
 22 23  2  0
 23 24  1  0
 23 25  1  0
 25 26  2  0
 26 27  1  0
 27 28  2  0
 11  7  1  0
 17 12  1  0
 28 18  1  0
 27 21  1  0
  3 29  1  0
  4 30  1  0
  4 31  1  0
  8 32  1  0
  8 33  1  0
  9 34  1  0
  9 35  1  0
 10 36  1  0
 10 37  1  0
 11 38  1  6
 13 39  1  0
 15 40  1  0
 16 41  1  0
 19 42  1  0
 20 43  1  0
 22 44  1  0
 25 45  1  0
 26 46  1  0
M  END
>  <smiles>  (66) 
O=C(NCC(=O)N1CCCC1c1cnccn1)c1ccc2cc(F)ccc2n1

>  <score_type>  (66) 
oracle

>  <origin>  (66) 
autodockgpu

>  <m_score__min__energy>  (66) 
-8.5299999999999994

>  <m_primary>  (66) 
energy

>  <rmsd>  (66) 
3.537142078299674

>  <m_score__min__rmsd>  (66) 
3.537142078299674

>  <meeko>  (66) 
{"free_energy": -8.45, "intermolecular_energy": -9.94, "internal_energy": -1.47, "cluster_size": 16, "cluster_id": 1, "rank_in_cluster": 8}

>  <energy>  (66) 
-7.16

>  <cluster_rmsd>  (66) 
1.53

>  <cluster>  (66) 
1

$$$$

     RDKit          3D

 46 49  0  0  0  0  0  0  0  0999 V2000
  141.0080   73.1960  222.1170 O   0  0  0  0  0  0  0  0  0  0  0  0
  139.9540   72.7580  222.6750 C   0  0  0  0  0  0  0  0  0  0  0  0
  138.6880   73.3470  222.3460 N   0  0  0  0  0  0  0  0  0  0  0  0
  138.6970   74.4200  221.3820 C   0  0  0  0  0  0  0  0  0  0  0  0
  138.8450   75.7450  222.0200 C   0  0  0  0  0  0  0  0  0  0  0  0
  138.2230   76.0990  223.0540 O   0  0  0  0  0  0  0  0  0  0  0  0
  139.7420   76.6730  221.4250 N   0  0  0  0  0  0  0  0  0  0  0  0
  139.4940   77.5160  220.2510 C   0  0  0  0  0  0  0  0  0  0  0  0
  140.7590   77.2950  219.4570 C   0  0  0  0  0  0  0  0  0  0  0  0
  141.8090   76.9820  220.4920 C   0  0  0  0  0  0  0  0  0  0  0  0
  141.0950   77.0060  221.8310 C   0  0  1  0  0  0  0  0  0  0  0  0
  141.2260   78.3090  222.4890 C   0  0  0  0  0  0  0  0  0  0  0  0
  140.2190   78.8690  223.2440 C   0  0  0  0  0  0  0  0  0  0  0  0
  140.3650   80.0630  223.8370 N   0  0  0  0  0  0  0  0  0  0  0  0
  141.4940   80.7710  223.7270 C   0  0  0  0  0  0  0  0  0  0  0  0
  142.5230   80.2290  222.9740 C   0  0  0  0  0  0  0  0  0  0  0  0
  142.3700   79.0370  222.3840 N   0  0  0  0  0  0  0  0  0  0  0  0
  139.9960   71.6660  223.6490 C   0  0  0  0  0  0  0  0  0  0  0  0
  139.5180   70.4260  223.2610 C   0  0  0  0  0  0  0  0  0  0  0  0
  139.5610   69.4030  224.1850 C   0  0  0  0  0  0  0  0  0  0  0  0
  140.0690   69.6190  225.4600 C   0  0  0  0  0  0  0  0  0  0  0  0
  140.1100   68.5860  226.3870 C   0  0  0  0  0  0  0  0  0  0  0  0
  140.6260   68.8650  227.6370 C   0  0  0  0  0  0  0  0  0  0  0  0
  140.6720   67.8740  228.5430 F   0  0  0  0  0  0  0  0  0  0  0  0
  141.0960   70.0990  228.0090 C   0  0  0  0  0  0  0  0  0  0  0  0
  141.0380   71.1080  227.0510 C   0  0  0  0  0  0  0  0  0  0  0  0
  140.5270   70.8560  225.7950 C   0  0  0  0  0  0  0  0  0  0  0  0
  140.4870   71.8690  224.8860 N   0  0  0  0  0  0  0  0  0  0  0  0
  137.7890   73.0040  222.7940 H   0  0  0  0  0  0  0  0  0  0  0  0
  139.5366   74.2655  220.6883 H   0  0  0  0  0  0  0  0  0  0  0  0
  137.7322   74.4064  220.8538 H   0  0  0  0  0  0  0  0  0  0  0  0
  138.6058   77.1813  219.6951 H   0  0  0  0  0  0  0  0  0  0  0  0
  139.2889   78.5704  220.4882 H   0  0  0  0  0  0  0  0  0  0  0  0
  140.6377   76.4526  218.7601 H   0  0  0  0  0  0  0  0  0  0  0  0
  141.0249   78.1694  218.8448 H   0  0  0  0  0  0  0  0  0  0  0  0
  142.2432   75.9882  220.3079 H   0  0  0  0  0  0  0  0  0  0  0  0
  142.6344   77.7086  220.4619 H   0  0  0  0  0  0  0  0  0  0  0  0
  141.4926   76.3187  222.5922 H   0  0  0  0  0  0  0  0  0  0  0  0
  139.2715   78.3232  223.3635 H   0  0  0  0  0  0  0  0  0  0  0  0
  141.6021   81.7497  224.2173 H   0  0  0  0  0  0  0  0  0  0  0  0
  143.4684   80.7797  222.8606 H   0  0  0  0  0  0  0  0  0  0  0  0
  139.1174   70.2622  222.2497 H   0  0  0  0  0  0  0  0  0  0  0  0
  139.1890   68.4051  223.9095 H   0  0  0  0  0  0  0  0  0  0  0  0
  139.7440   67.5799  226.1342 H   0  0  0  0  0  0  0  0  0  0  0  0
  141.4993   70.2826  229.0158 H   0  0  0  0  0  0  0  0  0  0  0  0
  141.4032   72.1157  227.2984 H   0  0  0  0  0  0  0  0  0  0  0  0
  1  2  2  0
  2  3  1  0
  3  4  1  0
  4  5  1  0
  5  6  2  0
  5  7  1  0
  7  8  1  0
  8  9  1  0
  9 10  1  0
 10 11  1  0
 11 12  1  0
 12 13  2  0
 13 14  1  0
 14 15  2  0
 15 16  1  0
 16 17  2  0
  2 18  1  0
 18 19  2  0
 19 20  1  0
 20 21  2  0
 21 22  1  0
 22 23  2  0
 23 24  1  0
 23 25  1  0
 25 26  2  0
 26 27  1  0
 27 28  2  0
 11  7  1  0
 17 12  1  0
 28 18  1  0
 27 21  1  0
  3 29  1  0
  4 30  1  0
  4 31  1  0
  8 32  1  0
  8 33  1  0
  9 34  1  0
  9 35  1  0
 10 36  1  0
 10 37  1  0
 11 38  1  1
 13 39  1  0
 15 40  1  0
 16 41  1  0
 19 42  1  0
 20 43  1  0
 22 44  1  0
 25 45  1  0
 26 46  1  0
M  END
>  <smiles>  (67) 
O=C(NCC(=O)N1CCCC1c1cnccn1)c1ccc2cc(F)ccc2n1

>  <score_type>  (67) 
oracle

>  <origin>  (67) 
autodockgpu

>  <m_score__min__energy>  (67) 
-8.5299999999999994

>  <m_primary>  (67) 
energy

>  <rmsd>  (67) 
1.9274555418651484

>  <m_score__min__rmsd>  (67) 
1.9274555418651484

>  <meeko>  (67) 
{"free_energy": -7.87, "intermolecular_energy": -9.36, "internal_energy": -1.25, "cluster_size": 20, "cluster_id": 2, "rank_in_cluster": 18}

>  <energy>  (67) 
-8.21

>  <cluster_rmsd>  (67) 
0.0

>  <cluster>  (67) 
2

$$$$

     RDKit          3D

 46 49  0  0  0  0  0  0  0  0999 V2000
  138.9430   70.7560  221.5800 O   0  0  0  0  0  0  0  0  0  0  0  0
  139.3300   71.2300  222.6930 C   0  0  0  0  0  0  0  0  0  0  0  0
  139.5870   72.6360  222.8070 N   0  0  0  0  0  0  0  0  0  0  0  0
  139.3830   73.4360  221.6250 C   0  0  0  0  0  0  0  0  0  0  0  0
  140.6530   73.9430  221.0650 C   0  0  0  0  0  0  0  0  0  0  0  0
  141.0580   75.1260  221.2030 O   0  0  0  0  0  0  0  0  0  0  0  0
  141.4620   73.0390  220.3250 N   0  0  0  0  0  0  0  0  0  0  0  0
  141.4380   72.8110  218.8770 C   0  0  0  0  0  0  0  0  0  0  0  0
  141.4290   71.3020  218.8150 C   0  0  0  0  0  0  0  0  0  0  0  0
  142.1350   70.8660  220.0740 C   0  0  0  0  0  0  0  0  0  0  0  0
  142.4910   72.1400  220.8170 C   0  0  1  0  0  0  0  0  0  0  0  0
  143.8610   72.5710  220.5240 C   0  0  0  0  0  0  0  0  0  0  0  0
  144.7000   71.8750  219.6820 C   0  0  0  0  0  0  0  0  0  0  0  0
  145.9490   72.2910  219.4300 N   0  0  0  0  0  0  0  0  0  0  0  0
  146.4450   73.4030  219.9820 C   0  0  0  0  0  0  0  0  0  0  0  0
  145.6220   74.1230  220.8330 C   0  0  0  0  0  0  0  0  0  0  0  0
  144.3750   73.7000  221.0800 N   0  0  0  0  0  0  0  0  0  0  0  0
  139.5230   70.3760  223.8670 C   0  0  0  0  0  0  0  0  0  0  0  0
  139.1130   69.0570  223.7900 C   0  0  0  0  0  0  0  0  0  0  0  0
  139.2980   68.2610  224.9010 C   0  0  0  0  0  0  0  0  0  0  0  0
  139.8800   68.7750  226.0540 C   0  0  0  0  0  0  0  0  0  0  0  0
  140.0650   67.9710  227.1700 C   0  0  0  0  0  0  0  0  0  0  0  0
  140.6470   68.5410  228.2840 C   0  0  0  0  0  0  0  0  0  0  0  0
  140.8320   67.7720  229.3710 F   0  0  0  0  0  0  0  0  0  0  0  0
  141.0500   69.8510  228.3470 C   0  0  0  0  0  0  0  0  0  0  0  0
  140.8480   70.6250  227.2070 C   0  0  0  0  0  0  0  0  0  0  0  0
  140.2680   70.0800  226.0810 C   0  0  0  0  0  0  0  0  0  0  0  0
  140.0860   70.8690  224.9870 N   0  0  0  0  0  0  0  0  0  0  0  0
  139.9120   73.0630  223.7230 H   0  0  0  0  0  0  0  0  0  0  0  0
  138.8813   72.8207  220.8636 H   0  0  0  0  0  0  0  0  0  0  0  0
  138.7696   74.3041  221.9079 H   0  0  0  0  0  0  0  0  0  0  0  0
  140.5348   73.2383  218.4170 H   0  0  0  0  0  0  0  0  0  0  0  0
  142.2719   73.2792  218.3334 H   0  0  0  0  0  0  0  0  0  0  0  0
  140.3976   70.9202  218.7959 H   0  0  0  0  0  0  0  0  0  0  0  0
  141.9187   70.9186  217.9077 H   0  0  0  0  0  0  0  0  0  0  0  0
  141.4708   70.2390  220.6870 H   0  0  0  0  0  0  0  0  0  0  0  0
  143.0303   70.2684  219.8473 H   0  0  0  0  0  0  0  0  0  0  0  0
  142.5001   72.0617  221.9142 H   0  0  0  0  0  0  0  0  0  0  0  0
  144.3355   70.9538  219.2040 H   0  0  0  0  0  0  0  0  0  0  0  0
  147.4716   73.7351  219.7679 H   0  0  0  0  0  0  0  0  0  0  0  0
  145.9932   75.0437  221.3067 H   0  0  0  0  0  0  0  0  0  0  0  0
  138.6549   68.6566  222.8736 H   0  0  0  0  0  0  0  0  0  0  0  0
  138.9815   67.2078  224.8744 H   0  0  0  0  0  0  0  0  0  0  0  0
  139.7580   66.9147  227.1667 H   0  0  0  0  0  0  0  0  0  0  0  0
  141.5104   70.2697  229.2541 H   0  0  0  0  0  0  0  0  0  0  0  0
  141.1542   71.6815  227.2048 H   0  0  0  0  0  0  0  0  0  0  0  0
  1  2  2  0
  2  3  1  0
  3  4  1  0
  4  5  1  0
  5  6  2  0
  5  7  1  0
  7  8  1  0
  8  9  1  0
  9 10  1  0
 10 11  1  0
 11 12  1  0
 12 13  2  0
 13 14  1  0
 14 15  2  0
 15 16  1  0
 16 17  2  0
  2 18  1  0
 18 19  2  0
 19 20  1  0
 20 21  2  0
 21 22  1  0
 22 23  2  0
 23 24  1  0
 23 25  1  0
 25 26  2  0
 26 27  1  0
 27 28  2  0
 11  7  1  0
 17 12  1  0
 28 18  1  0
 27 21  1  0
  3 29  1  0
  4 30  1  0
  4 31  1  0
  8 32  1  0
  8 33  1  0
  9 34  1  0
  9 35  1  0
 10 36  1  0
 10 37  1  0
 11 38  1  1
 13 39  1  0
 15 40  1  0
 16 41  1  0
 19 42  1  0
 20 43  1  0
 22 44  1  0
 25 45  1  0
 26 46  1  0
M  END
>  <smiles>  (68) 
O=C(NCC(=O)N1CCCC1c1cnccn1)c1ccc2cc(F)ccc2n1

>  <score_type>  (68) 
oracle

>  <origin>  (68) 
autodockgpu

>  <m_score__min__energy>  (68) 
-8.5299999999999994

>  <m_primary>  (68) 
energy

>  <rmsd>  (68) 
3.920088143259777

>  <m_score__min__rmsd>  (68) 
3.920088143259777

>  <meeko>  (68) 
{"free_energy": -7.3, "intermolecular_energy": -8.79, "internal_energy": -1.76, "cluster_size": 16, "cluster_id": 1, "rank_in_cluster": 15}

>  <energy>  (68) 
-8.17

>  <cluster_rmsd>  (68) 
0.57

>  <cluster>  (68) 
2

$$$$

     RDKit          3D

 46 49  0  0  0  0  0  0  0  0999 V2000
  140.8080   71.7070  221.0790 O   0  0  0  0  0  0  0  0  0  0  0  0
  140.3540   72.1950  222.1600 C   0  0  0  0  0  0  0  0  0  0  0  0
  139.9570   73.5730  222.1970 N   0  0  0  0  0  0  0  0  0  0  0  0
  140.1040   74.3290  220.9770 C   0  0  0  0  0  0  0  0  0  0  0  0
  141.0670   75.4410  221.1190 C   0  0  0  0  0  0  0  0  0  0  0  0
  141.0260   76.2910  222.0450 O   0  0  0  0  0  0  0  0  0  0  0  0
  142.0980   75.5560  220.1480 N   0  0  0  0  0  0  0  0  0  0  0  0
  142.9230   76.7350  219.8680 C   0  0  0  0  0  0  0  0  0  0  0  0
  142.8570   76.7910  218.3600 C   0  0  0  0  0  0  0  0  0  0  0  0
  142.6500   75.3590  217.9350 C   0  0  0  0  0  0  0  0  0  0  0  0
  142.5760   74.5500  219.2160 C   0  0  1  0  0  0  0  0  0  0  0  0
  143.8760   73.9710  219.5660 C   0  0  0  0  0  0  0  0  0  0  0  0
  144.7470   73.4650  218.6260 C   0  0  0  0  0  0  0  0  0  0  0  0
  145.9320   72.9420  218.9720 N   0  0  0  0  0  0  0  0  0  0  0  0
  146.3300   72.8850  220.2470 C   0  0  0  0  0  0  0  0  0  0  0  0
  145.4740   73.3870  221.2130 C   0  0  0  0  0  0  0  0  0  0  0  0
  144.2910   73.9080  220.8600 N   0  0  0  0  0  0  0  0  0  0  0  0
  140.2230   71.3880  223.3740 C   0  0  0  0  0  0  0  0  0  0  0  0
  139.6240   70.1450  223.2710 C   0  0  0  0  0  0  0  0  0  0  0  0
  139.5050   69.3910  224.4200 C   0  0  0  0  0  0  0  0  0  0  0  0
  139.9760   69.8720  225.6360 C   0  0  0  0  0  0  0  0  0  0  0  0
  139.8540   69.1100  226.7900 C   0  0  0  0  0  0  0  0  0  0  0  0
  140.3410   69.6440  227.9660 C   0  0  0  0  0  0  0  0  0  0  0  0
  140.2300   68.9160  229.0910 F   0  0  0  0  0  0  0  0  0  0  0  0
  140.9340   70.8790  228.0550 C   0  0  0  0  0  0  0  0  0  0  0  0
  141.0370   71.6110  226.8760 C   0  0  0  0  0  0  0  0  0  0  0  0
  140.5590   71.1010  225.6870 C   0  0  0  0  0  0  0  0  0  0  0  0
  140.6780   71.8490  224.5550 N   0  0  0  0  0  0  0  0  0  0  0  0
  139.5740   74.0120  223.0840 H   0  0  0  0  0  0  0  0  0  0  0  0
  140.4571   73.6544  220.1832 H   0  0  0  0  0  0  0  0  0  0  0  0
  139.1237   74.7622  220.7293 H   0  0  0  0  0  0  0  0  0  0  0  0
  142.4978   77.6414  220.3236 H   0  0  0  0  0  0  0  0  0  0  0  0
  143.9443   76.6765  220.2724 H   0  0  0  0  0  0  0  0  0  0  0  0
  142.0160   77.4191  218.0312 H   0  0  0  0  0  0  0  0  0  0  0  0
  143.7638   77.2302  217.9187 H   0  0  0  0  0  0  0  0  0  0  0  0
  141.7137   75.2606  217.3660 H   0  0  0  0  0  0  0  0  0  0  0  0
  143.4651   75.0098  217.2841 H   0  0  0  0  0  0  0  0  0  0  0  0
  141.9278   73.6621  219.1775 H   0  0  0  0  0  0  0  0  0  0  0  0
  144.4626   73.4908  217.5637 H   0  0  0  0  0  0  0  0  0  0  0  0
  147.3046   72.4539  220.5196 H   0  0  0  0  0  0  0  0  0  0  0  0
  145.7661   73.3580  222.2731 H   0  0  0  0  0  0  0  0  0  0  0  0
  139.2549   69.7705  222.3048 H   0  0  0  0  0  0  0  0  0  0  0  0
  139.0325   68.3988  224.3734 H   0  0  0  0  0  0  0  0  0  0  0  0
  139.3854   68.1150  226.7680 H   0  0  0  0  0  0  0  0  0  0  0  0
  141.3095   71.2709  229.0118 H   0  0  0  0  0  0  0  0  0  0  0  0
  141.5044   72.6066  226.8925 H   0  0  0  0  0  0  0  0  0  0  0  0
  1  2  2  0
  2  3  1  0
  3  4  1  0
  4  5  1  0
  5  6  2  0
  5  7  1  0
  7  8  1  0
  8  9  1  0
  9 10  1  0
 10 11  1  0
 11 12  1  0
 12 13  2  0
 13 14  1  0
 14 15  2  0
 15 16  1  0
 16 17  2  0
  2 18  1  0
 18 19  2  0
 19 20  1  0
 20 21  2  0
 21 22  1  0
 22 23  2  0
 23 24  1  0
 23 25  1  0
 25 26  2  0
 26 27  1  0
 27 28  2  0
 11  7  1  0
 17 12  1  0
 28 18  1  0
 27 21  1  0
  3 29  1  0
  4 30  1  0
  4 31  1  0
  8 32  1  0
  8 33  1  0
  9 34  1  0
  9 35  1  0
 10 36  1  0
 10 37  1  0
 11 38  1  6
 13 39  1  0
 15 40  1  0
 16 41  1  0
 19 42  1  0
 20 43  1  0
 22 44  1  0
 25 45  1  0
 26 46  1  0
M  END
>  <smiles>  (69) 
O=C(NCC(=O)N1CCCC1c1cnccn1)c1ccc2cc(F)ccc2n1

>  <score_type>  (69) 
oracle

>  <origin>  (69) 
autodockgpu

>  <m_score__min__energy>  (69) 
-8.5299999999999994

>  <m_primary>  (69) 
energy

>  <rmsd>  (69) 
3.5417071619572753

>  <m_score__min__rmsd>  (69) 
3.5417071619572753

>  <meeko>  (69) 
{"free_energy": -8.37, "intermolecular_energy": -9.86, "internal_energy": -1.51, "cluster_size": 16, "cluster_id": 1, "rank_in_cluster": 10}

>  <energy>  (69) 
-8.15

>  <cluster_rmsd>  (69) 
0.64

>  <cluster>  (69) 
2

$$$$

     RDKit          3D

 46 49  0  0  0  0  0  0  0  0999 V2000
  140.5560   74.1110  220.2560 O   0  0  0  0  0  0  0  0  0  0  0  0
  140.2290   74.8420  221.2420 C   0  0  0  0  0  0  0  0  0  0  0  0
  139.3290   74.3250  222.2320 N   0  0  0  0  0  0  0  0  0  0  0  0
  138.8450   72.9810  222.0370 C   0  0  0  0  0  0  0  0  0  0  0  0
  139.6530   71.9820  222.7670 C   0  0  0  0  0  0  0  0  0  0  0  0
  140.8560   72.1550  223.0920 O   0  0  0  0  0  0  0  0  0  0  0  0
  139.0330   70.7530  223.1190 N   0  0  0  0  0  0  0  0  0  0  0  0
  138.9280   69.5450  222.2940 C   0  0  0  0  0  0  0  0  0  0  0  0
  137.4720   69.1910  222.4720 C   0  0  0  0  0  0  0  0  0  0  0  0
  137.1110   69.7340  223.8310 C   0  0  0  0  0  0  0  0  0  0  0  0
  138.3660   70.4020  224.3600 C   0  0  1  0  0  0  0  0  0  0  0  0
  139.1340   69.5020  225.2260 C   0  0  0  0  0  0  0  0  0  0  0  0
  138.8100   68.1740  225.3980 C   0  0  0  0  0  0  0  0  0  0  0  0
  139.5300   67.3710  226.1950 N   0  0  0  0  0  0  0  0  0  0  0  0
  140.5990   67.8170  226.8630 C   0  0  0  0  0  0  0  0  0  0  0  0
  140.9470   69.1490  226.7070 C   0  0  0  0  0  0  0  0  0  0  0  0
  140.2230   69.9450  225.9100 N   0  0  0  0  0  0  0  0  0  0  0  0
  140.7470   76.2030  221.3970 C   0  0  0  0  0  0  0  0  0  0  0  0
  141.6740   76.6580  220.4760 C   0  0  0  0  0  0  0  0  0  0  0  0
  142.1580   77.9410  220.6300 C   0  0  0  0  0  0  0  0  0  0  0  0
  141.7210   78.7420  221.6780 C   0  0  0  0  0  0  0  0  0  0  0  0
  142.2100   80.0320  221.8300 C   0  0  0  0  0  0  0  0  0  0  0  0
  141.7380   80.7770  222.8920 C   0  0  0  0  0  0  0  0  0  0  0  0
  142.2030   82.0290  223.0500 F   0  0  0  0  0  0  0  0  0  0  0  0
  140.8180   80.3140  223.7990 C   0  0  0  0  0  0  0  0  0  0  0  0
  140.3530   79.0150  223.6120 C   0  0  0  0  0  0  0  0  0  0  0  0
  140.8080   78.2490  222.5600 C   0  0  0  0  0  0  0  0  0  0  0  0
  140.3290   76.9840  222.4110 N   0  0  0  0  0  0  0  0  0  0  0  0
  139.0360   74.9100  223.0680 H   0  0  0  0  0  0  0  0  0  0  0  0
  137.8059   72.9241  222.3934 H   0  0  0  0  0  0  0  0  0  0  0  0
  138.9150   72.7508  220.9636 H   0  0  0  0  0  0  0  0  0  0  0  0
  139.1655   69.7549  221.2407 H   0  0  0  0  0  0  0  0  0  0  0  0
  139.6247   68.7429  222.5790 H   0  0  0  0  0  0  0  0  0  0  0  0
  136.8593   69.6633  221.6900 H   0  0  0  0  0  0  0  0  0  0  0  0
  137.2940   68.1082  222.3951 H   0  0  0  0  0  0  0  0  0  0  0  0
  136.2949   70.4665  223.7456 H   0  0  0  0  0  0  0  0  0  0  0  0
  136.7638   68.9368  224.5047 H   0  0  0  0  0  0  0  0  0  0  0  0
  138.1995   71.2701  225.0148 H   0  0  0  0  0  0  0  0  0  0  0  0
  137.9386   67.7619  224.8681 H   0  0  0  0  0  0  0  0  0  0  0  0
  141.1822   67.1492  227.5141 H   0  0  0  0  0  0  0  0  0  0  0  0
  141.8204   69.5537  227.2393 H   0  0  0  0  0  0  0  0  0  0  0  0
  142.0139   76.0181  219.6484 H   0  0  0  0  0  0  0  0  0  0  0  0
  142.8971   78.3336  219.9161 H   0  0  0  0  0  0  0  0  0  0  0  0
  142.9485   80.4466  221.1281 H   0  0  0  0  0  0  0  0  0  0  0  0
  140.4652   80.9386  224.6329 H   0  0  0  0  0  0  0  0  0  0  0  0
  139.6147   78.5954  224.3112 H   0  0  0  0  0  0  0  0  0  0  0  0
  1  2  2  0
  2  3  1  0
  3  4  1  0
  4  5  1  0
  5  6  2  0
  5  7  1  0
  7  8  1  0
  8  9  1  0
  9 10  1  0
 10 11  1  0
 11 12  1  0
 12 13  2  0
 13 14  1  0
 14 15  2  0
 15 16  1  0
 16 17  2  0
  2 18  1  0
 18 19  2  0
 19 20  1  0
 20 21  2  0
 21 22  1  0
 22 23  2  0
 23 24  1  0
 23 25  1  0
 25 26  2  0
 26 27  1  0
 27 28  2  0
 11  7  1  0
 17 12  1  0
 28 18  1  0
 27 21  1  0
  3 29  1  0
  4 30  1  0
  4 31  1  0
  8 32  1  0
  8 33  1  0
  9 34  1  0
  9 35  1  0
 10 36  1  0
 10 37  1  0
 11 38  1  1
 13 39  1  0
 15 40  1  0
 16 41  1  0
 19 42  1  0
 20 43  1  0
 22 44  1  0
 25 45  1  0
 26 46  1  0
M  END
>  <smiles>  (70) 
O=C(NCC(=O)N1CCCC1c1cnccn1)c1ccc2cc(F)ccc2n1

>  <score_type>  (70) 
oracle

>  <origin>  (70) 
autodockgpu

>  <m_score__min__energy>  (70) 
-8.5299999999999994

>  <m_primary>  (70) 
energy

>  <rmsd>  (70) 
8.954407632961551

>  <m_score__min__rmsd>  (70) 
8.954407632961551

>  <meeko>  (70) 
{"free_energy": -7.36, "intermolecular_energy": -8.86, "internal_energy": -1.38, "cluster_size": 4, "cluster_id": 3, "rank_in_cluster": 4}

>  <energy>  (70) 
-8.11

>  <cluster_rmsd>  (70) 
0.18

>  <cluster>  (70) 
2

$$$$

     RDKit          3D

 46 49  0  0  0  0  0  0  0  0999 V2000
  138.7840   74.8510  222.1420 O   0  0  0  0  0  0  0  0  0  0  0  0
  139.9710   75.2680  221.9710 C   0  0  0  0  0  0  0  0  0  0  0  0
  140.2630   76.6580  222.1710 N   0  0  0  0  0  0  0  0  0  0  0  0
  139.1640   77.5070  222.5630 C   0  0  0  0  0  0  0  0  0  0  0  0
  139.6220   78.8050  223.1010 C   0  0  0  0  0  0  0  0  0  0  0  0
  138.9680   79.4920  223.9270 O   0  0  0  0  0  0  0  0  0  0  0  0
  140.8760   79.3050  222.6560 N   0  0  0  0  0  0  0  0  0  0  0  0
  142.1920   79.0510  223.2520 C   0  0  0  0  0  0  0  0  0  0  0  0
  142.7700   80.4460  223.2960 C   0  0  0  0  0  0  0  0  0  0  0  0
  142.1040   81.1700  222.1530 C   0  0  0  0  0  0  0  0  0  0  0  0
  141.1510   80.1710  221.5240 C   0  0  1  0  0  0  0  0  0  0  0  0
  141.7610   79.4910  220.3780 C   0  0  0  0  0  0  0  0  0  0  0  0
  142.1780   80.1590  219.2470 C   0  0  0  0  0  0  0  0  0  0  0  0
  142.7340   79.5130  218.2120 N   0  0  0  0  0  0  0  0  0  0  0  0
  142.9140   78.1880  218.2230 C   0  0  0  0  0  0  0  0  0  0  0  0
  142.5050   77.4920  219.3490 C   0  0  0  0  0  0  0  0  0  0  0  0
  141.9490   78.1440  220.3790 N   0  0  0  0  0  0  0  0  0  0  0  0
  141.0540   74.3670  221.5720 C   0  0  0  0  0  0  0  0  0  0  0  0
  140.8080   73.0060  221.5830 C   0  0  0  0  0  0  0  0  0  0  0  0
  141.8350   72.1640  221.2070 C   0  0  0  0  0  0  0  0  0  0  0  0
  143.0700   72.6770  220.8300 C   0  0  0  0  0  0  0  0  0  0  0  0
  144.1000   71.8270  220.4520 C   0  0  0  0  0  0  0  0  0  0  0  0
  145.3040   72.3980  220.0890 C   0  0  0  0  0  0  0  0  0  0  0  0
  146.3100   71.5860  219.7200 F   0  0  0  0  0  0  0  0  0  0  0  0
  145.5350   73.7510  220.0820 C   0  0  0  0  0  0  0  0  0  0  0  0
  144.4770   74.5690  220.4680 C   0  0  0  0  0  0  0  0  0  0  0  0
  143.2640   74.0250  220.8350 C   0  0  0  0  0  0  0  0  0  0  0  0
  142.2530   74.8580  221.2060 N   0  0  0  0  0  0  0  0  0  0  0  0
  141.2440   77.0390  222.0360 H   0  0  0  0  0  0  0  0  0  0  0  0
  138.5294   77.6926  221.6839 H   0  0  0  0  0  0  0  0  0  0  0  0
  138.6072   76.9906  223.3588 H   0  0  0  0  0  0  0  0  0  0  0  0
  142.1014   78.6205  224.2602 H   0  0  0  0  0  0  0  0  0  0  0  0
  142.8058   78.3259  222.6975 H   0  0  0  0  0  0  0  0  0  0  0  0
  142.5354   80.9335  224.2538 H   0  0  0  0  0  0  0  0  0  0  0  0
  143.8664   80.4462  223.2076 H   0  0  0  0  0  0  0  0  0  0  0  0
  141.5502   82.0444  222.5253 H   0  0  0  0  0  0  0  0  0  0  0  0
  142.8416   81.5373  221.4242 H   0  0  0  0  0  0  0  0  0  0  0  0
  140.2388   80.6001  221.0839 H   0  0  0  0  0  0  0  0  0  0  0  0
  142.0514   81.2503  219.1920 H   0  0  0  0  0  0  0  0  0  0  0  0
  143.3710   77.6687  217.3677 H   0  0  0  0  0  0  0  0  0  0  0  0
  142.6371   76.4010  219.3975 H   0  0  0  0  0  0  0  0  0  0  0  0
  139.8269   72.6080  221.8813 H   0  0  0  0  0  0  0  0  0  0  0  0
  141.6741   71.0758  221.2058 H   0  0  0  0  0  0  0  0  0  0  0  0
  143.9621   70.7357  220.4419 H   0  0  0  0  0  0  0  0  0  0  0  0
  146.5087   74.1685  219.7858 H   0  0  0  0  0  0  0  0  0  0  0  0
  144.6098   75.6609  220.4805 H   0  0  0  0  0  0  0  0  0  0  0  0
  1  2  2  0
  2  3  1  0
  3  4  1  0
  4  5  1  0
  5  6  2  0
  5  7  1  0
  7  8  1  0
  8  9  1  0
  9 10  1  0
 10 11  1  0
 11 12  1  0
 12 13  2  0
 13 14  1  0
 14 15  2  0
 15 16  1  0
 16 17  2  0
  2 18  1  0
 18 19  2  0
 19 20  1  0
 20 21  2  0
 21 22  1  0
 22 23  2  0
 23 24  1  0
 23 25  1  0
 25 26  2  0
 26 27  1  0
 27 28  2  0
 11  7  1  0
 17 12  1  0
 28 18  1  0
 27 21  1  0
  3 29  1  0
  4 30  1  0
  4 31  1  0
  8 32  1  0
  8 33  1  0
  9 34  1  0
  9 35  1  0
 10 36  1  0
 10 37  1  0
 11 38  1  6
 13 39  1  0
 15 40  1  0
 16 41  1  0
 19 42  1  0
 20 43  1  0
 22 44  1  0
 25 45  1  0
 26 46  1  0
M  END
>  <smiles>  (71) 
O=C(NCC(=O)N1CCCC1c1cnccn1)c1ccc2cc(F)ccc2n1

>  <score_type>  (71) 
oracle

>  <origin>  (71) 
autodockgpu

>  <m_score__min__energy>  (71) 
-8.5299999999999994

>  <m_primary>  (71) 
energy

>  <rmsd>  (71) 
6.332101368271908

>  <m_score__min__rmsd>  (71) 
6.332101368271908

>  <meeko>  (71) 
{"free_energy": -6.7, "intermolecular_energy": -8.19, "internal_energy": -2.64, "cluster_size": 7, "cluster_id": 5, "rank_in_cluster": 2}

>  <energy>  (71) 
-8.06

>  <cluster_rmsd>  (71) 
1.01

>  <cluster>  (71) 
2

$$$$

     RDKit          3D

 46 49  0  0  0  0  0  0  0  0999 V2000
  141.0600   72.2490  221.4110 O   0  0  0  0  0  0  0  0  0  0  0  0
  140.2380   72.4500  222.3590 C   0  0  0  0  0  0  0  0  0  0  0  0
  139.3820   73.6000  222.3150 N   0  0  0  0  0  0  0  0  0  0  0  0
  139.5140   74.4700  221.1720 C   0  0  0  0  0  0  0  0  0  0  0  0
  140.7510   75.2770  221.2220 C   0  0  0  0  0  0  0  0  0  0  0  0
  141.8680   74.8280  221.5890 O   0  0  0  0  0  0  0  0  0  0  0  0
  140.6720   76.6420  220.8340 N   0  0  0  0  0  0  0  0  0  0  0  0
  139.4660   77.3860  220.4550 C   0  0  0  0  0  0  0  0  0  0  0  0
  139.9320   78.0830  219.2000 C   0  0  0  0  0  0  0  0  0  0  0  0
  141.4190   78.2490  219.3850 C   0  0  0  0  0  0  0  0  0  0  0  0
  141.7460   77.6120  220.7230 C   0  0  1  0  0  0  0  0  0  0  0  0
  141.7780   78.6050  221.8000 C   0  0  0  0  0  0  0  0  0  0  0  0
  142.1440   79.9170  221.5970 C   0  0  0  0  0  0  0  0  0  0  0  0
  142.1640   80.8070  222.6010 N   0  0  0  0  0  0  0  0  0  0  0  0
  141.8280   80.4670  223.8490 C   0  0  0  0  0  0  0  0  0  0  0  0
  141.4550   79.1530  224.0810 C   0  0  0  0  0  0  0  0  0  0  0  0
  141.4390   78.2700  223.0740 N   0  0  0  0  0  0  0  0  0  0  0  0
  140.1400   71.5370  223.5000 C   0  0  0  0  0  0  0  0  0  0  0  0
  139.5300   70.3110  223.3050 C   0  0  0  0  0  0  0  0  0  0  0  0
  139.4410   69.4580  224.3850 C   0  0  0  0  0  0  0  0  0  0  0  0
  139.9520   69.8260  225.6240 C   0  0  0  0  0  0  0  0  0  0  0  0
  139.8610   68.9650  226.7080 C   0  0  0  0  0  0  0  0  0  0  0  0
  140.3870   69.3900  227.9120 C   0  0  0  0  0  0  0  0  0  0  0  0
  140.3060   68.5650  228.9700 F   0  0  0  0  0  0  0  0  0  0  0  0
  140.9900   70.6100  228.0930 C   0  0  0  0  0  0  0  0  0  0  0  0
  141.0610   71.4440  226.9810 C   0  0  0  0  0  0  0  0  0  0  0  0
  140.5440   71.0440  225.7660 C   0  0  0  0  0  0  0  0  0  0  0  0
  140.6330   71.8890  224.7030 N   0  0  0  0  0  0  0  0  0  0  0  0
  138.6850   73.7970  223.0900 H   0  0  0  0  0  0  0  0  0  0  0  0
  139.5289   73.8557  220.2596 H   0  0  0  0  0  0  0  0  0  0  0  0
  138.6596   75.1628  221.1756 H   0  0  0  0  0  0  0  0  0  0  0  0
  138.6229   76.7096  220.2508 H   0  0  0  0  0  0  0  0  0  0  0  0
  139.0913   78.0649  221.2352 H   0  0  0  0  0  0  0  0  0  0  0  0
  139.7175   77.4692  218.3128 H   0  0  0  0  0  0  0  0  0  0  0  0
  139.4218   79.0449  219.0439 H   0  0  0  0  0  0  0  0  0  0  0  0
  141.9642   77.7408  218.5760 H   0  0  0  0  0  0  0  0  0  0  0  0
  141.7130   79.3087  219.3599 H   0  0  0  0  0  0  0  0  0  0  0  0
  142.7431   77.1536  220.7980 H   0  0  0  0  0  0  0  0  0  0  0  0
  142.4273   80.2438  220.5856 H   0  0  0  0  0  0  0  0  0  0  0  0
  141.8469   81.2052  224.6643 H   0  0  0  0  0  0  0  0  0  0  0  0
  141.1713   78.8341  225.0948 H   0  0  0  0  0  0  0  0  0  0  0  0
  139.1292   70.0258  222.3211 H   0  0  0  0  0  0  0  0  0  0  0  0
  138.9604   68.4759  224.2645 H   0  0  0  0  0  0  0  0  0  0  0  0
  139.3861   67.9775  226.6117 H   0  0  0  0  0  0  0  0  0  0  0  0
  141.3970   70.9134  229.0688 H   0  0  0  0  0  0  0  0  0  0  0  0
  141.5344   72.4327  227.0718 H   0  0  0  0  0  0  0  0  0  0  0  0
  1  2  2  0
  2  3  1  0
  3  4  1  0
  4  5  1  0
  5  6  2  0
  5  7  1  0
  7  8  1  0
  8  9  1  0
  9 10  1  0
 10 11  1  0
 11 12  1  0
 12 13  2  0
 13 14  1  0
 14 15  2  0
 15 16  1  0
 16 17  2  0
  2 18  1  0
 18 19  2  0
 19 20  1  0
 20 21  2  0
 21 22  1  0
 22 23  2  0
 23 24  1  0
 23 25  1  0
 25 26  2  0
 26 27  1  0
 27 28  2  0
 11  7  1  0
 17 12  1  0
 28 18  1  0
 27 21  1  0
  3 29  1  0
  4 30  1  0
  4 31  1  0
  8 32  1  0
  8 33  1  0
  9 34  1  0
  9 35  1  0
 10 36  1  0
 10 37  1  0
 11 38  1  6
 13 39  1  0
 15 40  1  0
 16 41  1  0
 19 42  1  0
 20 43  1  0
 22 44  1  0
 25 45  1  0
 26 46  1  0
M  END
>  <smiles>  (72) 
O=C(NCC(=O)N1CCCC1c1cnccn1)c1ccc2cc(F)ccc2n1

>  <score_type>  (72) 
oracle

>  <origin>  (72) 
autodockgpu

>  <m_score__min__energy>  (72) 
-8.5299999999999994

>  <m_primary>  (72) 
energy

>  <rmsd>  (72) 
1.6984127885027376

>  <m_score__min__rmsd>  (72) 
1.6984127885027376

>  <meeko>  (72) 
{"free_energy": -8.02, "intermolecular_energy": -9.51, "internal_energy": -1.14, "cluster_size": 20, "cluster_id": 2, "rank_in_cluster": 10}

>  <energy>  (72) 
-8.06

>  <cluster_rmsd>  (72) 
0.67

>  <cluster>  (72) 
2

$$$$

     RDKit          3D

 46 49  0  0  0  0  0  0  0  0999 V2000
  141.3990   72.5210  221.5770 O   0  0  0  0  0  0  0  0  0  0  0  0
  140.4700   72.6590  222.4310 C   0  0  0  0  0  0  0  0  0  0  0  0
  139.6140   73.8090  222.3590 N   0  0  0  0  0  0  0  0  0  0  0  0
  139.8740   74.7510  221.2980 C   0  0  0  0  0  0  0  0  0  0  0  0
  139.1080   76.0050  221.4620 C   0  0  0  0  0  0  0  0  0  0  0  0
  137.9660   76.0660  221.9840 O   0  0  0  0  0  0  0  0  0  0  0  0
  139.7000   77.2110  220.9990 N   0  0  0  0  0  0  0  0  0  0  0  0
  139.0070   78.3990  220.4900 C   0  0  0  0  0  0  0  0  0  0  0  0
  139.8010   78.6920  219.2400 C   0  0  0  0  0  0  0  0  0  0  0  0
  141.1800   78.1560  219.5310 C   0  0  0  0  0  0  0  0  0  0  0  0
  141.1090   77.5520  220.9220 C   0  0  1  0  0  0  0  0  0  0  0  0
  141.5590   78.5000  221.9450 C   0  0  0  0  0  0  0  0  0  0  0  0
  141.4220   78.2630  223.2950 C   0  0  0  0  0  0  0  0  0  0  0  0
  141.8430   79.1460  224.2120 N   0  0  0  0  0  0  0  0  0  0  0  0
  142.4180   80.3020  223.8640 C   0  0  0  0  0  0  0  0  0  0  0  0
  142.5680   80.5650  222.5120 C   0  0  0  0  0  0  0  0  0  0  0  0
  142.1450   79.6780  221.6020 N   0  0  0  0  0  0  0  0  0  0  0  0
  140.2450   71.6750  223.4920 C   0  0  0  0  0  0  0  0  0  0  0  0
  139.5490   70.5220  223.1760 C   0  0  0  0  0  0  0  0  0  0  0  0
  139.3420   69.6000  224.1810 C   0  0  0  0  0  0  0  0  0  0  0  0
  139.8210   69.8300  225.4650 C   0  0  0  0  0  0  0  0  0  0  0  0
  139.6100   68.9010  226.4740 C   0  0  0  0  0  0  0  0  0  0  0  0
  140.1090   69.1890  227.7280 C   0  0  0  0  0  0  0  0  0  0  0  0
  139.9130   68.2970  228.7140 F   0  0  0  0  0  0  0  0  0  0  0  0
  140.7980   70.3380  228.0290 C   0  0  0  0  0  0  0  0  0  0  0  0
  140.9880   71.2450  226.9900 C   0  0  0  0  0  0  0  0  0  0  0  0
  140.5000   70.9810  225.7270 C   0  0  0  0  0  0  0  0  0  0  0  0
  140.7060   71.8940  224.7380 N   0  0  0  0  0  0  0  0  0  0  0  0
  138.8290   73.9550  223.0570 H   0  0  0  0  0  0  0  0  0  0  0  0
  140.9476   74.9903  221.2924 H   0  0  0  0  0  0  0  0  0  0  0  0
  139.5614   74.2866  220.3511 H   0  0  0  0  0  0  0  0  0  0  0  0
  137.9542   78.1819  220.2566 H   0  0  0  0  0  0  0  0  0  0  0  0
  138.9644   79.2356  221.2030 H   0  0  0  0  0  0  0  0  0  0  0  0
  139.3608   78.1803  218.3715 H   0  0  0  0  0  0  0  0  0  0  0  0
  139.8133   79.7644  218.9954 H   0  0  0  0  0  0  0  0  0  0  0  0
  141.4546   77.3870  218.7939 H   0  0  0  0  0  0  0  0  0  0  0  0
  141.9407   78.9485  219.4741 H   0  0  0  0  0  0  0  0  0  0  0  0
  141.7669   76.6882  221.0982 H   0  0  0  0  0  0  0  0  0  0  0  0
  140.9550   77.3249  223.6295 H   0  0  0  0  0  0  0  0  0  0  0  0
  142.7600   81.0192  224.6247 H   0  0  0  0  0  0  0  0  0  0  0  0
  143.0359   81.5052  222.1849 H   0  0  0  0  0  0  0  0  0  0  0  0
  139.1731   70.3462  222.1573 H   0  0  0  0  0  0  0  0  0  0  0  0
  138.7918   68.6726  223.9636 H   0  0  0  0  0  0  0  0  0  0  0  0
  139.0633   67.9663  226.2807 H   0  0  0  0  0  0  0  0  0  0  0  0
  141.1811   70.5323  229.0416 H   0  0  0  0  0  0  0  0  0  0  0  0
  141.5329   72.1819  227.1781 H   0  0  0  0  0  0  0  0  0  0  0  0
  1  2  2  0
  2  3  1  0
  3  4  1  0
  4  5  1  0
  5  6  2  0
  5  7  1  0
  7  8  1  0
  8  9  1  0
  9 10  1  0
 10 11  1  0
 11 12  1  0
 12 13  2  0
 13 14  1  0
 14 15  2  0
 15 16  1  0
 16 17  2  0
  2 18  1  0
 18 19  2  0
 19 20  1  0
 20 21  2  0
 21 22  1  0
 22 23  2  0
 23 24  1  0
 23 25  1  0
 25 26  2  0
 26 27  1  0
 27 28  2  0
 11  7  1  0
 17 12  1  0
 28 18  1  0
 27 21  1  0
  3 29  1  0
  4 30  1  0
  4 31  1  0
  8 32  1  0
  8 33  1  0
  9 34  1  0
  9 35  1  0
 10 36  1  0
 10 37  1  0
 11 38  1  6
 13 39  1  0
 15 40  1  0
 16 41  1  0
 19 42  1  0
 20 43  1  0
 22 44  1  0
 25 45  1  0
 26 46  1  0
M  END
>  <smiles>  (73) 
O=C(NCC(=O)N1CCCC1c1cnccn1)c1ccc2cc(F)ccc2n1

>  <score_type>  (73) 
oracle

>  <origin>  (73) 
autodockgpu

>  <m_score__min__energy>  (73) 
-8.5299999999999994

>  <m_primary>  (73) 
energy

>  <rmsd>  (73) 
2.10040373769623

>  <m_score__min__rmsd>  (73) 
2.10040373769623

>  <meeko>  (73) 
{"free_energy": -7.81, "intermolecular_energy": -9.31, "internal_energy": -1.34, "cluster_size": 20, "cluster_id": 2, "rank_in_cluster": 20}

>  <energy>  (73) 
-8.05

>  <cluster_rmsd>  (73) 
0.53

>  <cluster>  (73) 
2

$$$$

     RDKit          3D

 46 49  0  0  0  0  0  0  0  0999 V2000
  139.9250   73.7110  222.3130 O   0  0  0  0  0  0  0  0  0  0  0  0
  140.4870   72.5730  222.2760 C   0  0  0  0  0  0  0  0  0  0  0  0
  141.2990   72.2270  221.1450 N   0  0  0  0  0  0  0  0  0  0  0  0
  141.4250   73.2160  220.1030 C   0  0  0  0  0  0  0  0  0  0  0  0
  142.6770   73.9940  220.2170 C   0  0  0  0  0  0  0  0  0  0  0  0
  142.7160   75.2430  220.3550 O   0  0  0  0  0  0  0  0  0  0  0  0
  143.9080   73.2850  220.1640 N   0  0  0  0  0  0  0  0  0  0  0  0
  144.9160   73.1820  221.2230 C   0  0  0  0  0  0  0  0  0  0  0  0
  146.1840   73.4630  220.4530 C   0  0  0  0  0  0  0  0  0  0  0  0
  145.8860   73.0010  219.0490 C   0  0  0  0  0  0  0  0  0  0  0  0
  144.4520   72.5050  219.0670 C   0  0  1  0  0  0  0  0  0  0  0  0
  144.3860   71.0540  219.2660 C   0  0  0  0  0  0  0  0  0  0  0  0
  145.4930   70.2380  219.1990 C   0  0  0  0  0  0  0  0  0  0  0  0
  145.4050   68.9130  219.3860 N   0  0  0  0  0  0  0  0  0  0  0  0
  144.2380   68.3150  219.6480 C   0  0  0  0  0  0  0  0  0  0  0  0
  143.1080   69.1130  219.7220 C   0  0  0  0  0  0  0  0  0  0  0  0
  143.2040   70.4360  219.5330 N   0  0  0  0  0  0  0  0  0  0  0  0
  140.3290   71.6000  223.3590 C   0  0  0  0  0  0  0  0  0  0  0  0
  139.7290   70.3880  223.0660 C   0  0  0  0  0  0  0  0  0  0  0  0
  139.5830   69.4780  224.0930 C   0  0  0  0  0  0  0  0  0  0  0  0
  140.0290   69.7770  225.3740 C   0  0  0  0  0  0  0  0  0  0  0  0
  139.8820   68.8590  226.4040 C   0  0  0  0  0  0  0  0  0  0  0  0
  140.3440   69.2160  227.6550 C   0  0  0  0  0  0  0  0  0  0  0  0
  140.2080   68.3350  228.6620 F   0  0  0  0  0  0  0  0  0  0  0  0
  140.9390   70.4220  227.9320 C   0  0  0  0  0  0  0  0  0  0  0  0
  141.0680   71.3150  226.8720 C   0  0  0  0  0  0  0  0  0  0  0  0
  140.6140   70.9840  225.6130 C   0  0  0  0  0  0  0  0  0  0  0  0
  140.7590   71.8850  224.6030 N   0  0  0  0  0  0  0  0  0  0  0  0
  141.7820   71.2840  221.0830 H   0  0  0  0  0  0  0  0  0  0  0  0
  141.4125   72.7065  219.1282 H   0  0  0  0  0  0  0  0  0  0  0  0
  140.5829   73.9170  220.2004 H   0  0  0  0  0  0  0  0  0  0  0  0
  144.7495   73.9306  222.0116 H   0  0  0  0  0  0  0  0  0  0  0  0
  144.9153   72.2183  221.7534 H   0  0  0  0  0  0  0  0  0  0  0  0
  146.4168   74.5380  220.4670 H   0  0  0  0  0  0  0  0  0  0  0  0
  147.0566   72.9508  220.8846 H   0  0  0  0  0  0  0  0  0  0  0  0
  145.9926   73.8362  218.3411 H   0  0  0  0  0  0  0  0  0  0  0  0
  146.5814   72.2111  218.7288 H   0  0  0  0  0  0  0  0  0  0  0  0
  143.8921   72.6389  218.1296 H   0  0  0  0  0  0  0  0  0  0  0  0
  146.4755   70.6847  218.9865 H   0  0  0  0  0  0  0  0  0  0  0  0
  144.1774   67.2272  219.7995 H   0  0  0  0  0  0  0  0  0  0  0  0
  142.1292   68.6592  219.9365 H   0  0  0  0  0  0  0  0  0  0  0  0
  139.3801   70.1577  222.0485 H   0  0  0  0  0  0  0  0  0  0  0  0
  139.1084   68.5056  223.8951 H   0  0  0  0  0  0  0  0  0  0  0  0
  139.4130   67.8794  226.2296 H   0  0  0  0  0  0  0  0  0  0  0  0
  141.2963   70.6704  228.9423 H   0  0  0  0  0  0  0  0  0  0  0  0
  141.5373   72.2955  227.0407 H   0  0  0  0  0  0  0  0  0  0  0  0
  1  2  2  0
  2  3  1  0
  3  4  1  0
  4  5  1  0
  5  6  2  0
  5  7  1  0
  7  8  1  0
  8  9  1  0
  9 10  1  0
 10 11  1  0
 11 12  1  0
 12 13  2  0
 13 14  1  0
 14 15  2  0
 15 16  1  0
 16 17  2  0
  2 18  1  0
 18 19  2  0
 19 20  1  0
 20 21  2  0
 21 22  1  0
 22 23  2  0
 23 24  1  0
 23 25  1  0
 25 26  2  0
 26 27  1  0
 27 28  2  0
 11  7  1  0
 17 12  1  0
 28 18  1  0
 27 21  1  0
  3 29  1  0
  4 30  1  0
  4 31  1  0
  8 32  1  0
  8 33  1  0
  9 34  1  0
  9 35  1  0
 10 36  1  0
 10 37  1  0
 11 38  1  6
 13 39  1  0
 15 40  1  0
 16 41  1  0
 19 42  1  0
 20 43  1  0
 22 44  1  0
 25 45  1  0
 26 46  1  0
M  END
>  <smiles>  (74) 
O=C(NCC(=O)N1CCCC1c1cnccn1)c1ccc2cc(F)ccc2n1

>  <score_type>  (74) 
oracle

>  <origin>  (74) 
autodockgpu

>  <m_score__min__energy>  (74) 
-8.5299999999999994

>  <m_primary>  (74) 
energy

>  <rmsd>  (74) 
5.544566180718919

>  <m_score__min__rmsd>  (74) 
5.544566180718919

>  <meeko>  (74) 
{"free_energy": -7.5, "intermolecular_energy": -8.99, "internal_energy": -1.97, "cluster_size": 3, "cluster_id": 4, "rank_in_cluster": 2}

>  <energy>  (74) 
-8.04

>  <cluster_rmsd>  (74) 
0.62

>  <cluster>  (74) 
2

$$$$

     RDKit          3D

 46 49  0  0  0  0  0  0  0  0999 V2000
  141.2080   72.2010  221.5540 O   0  0  0  0  0  0  0  0  0  0  0  0
  140.3300   72.3990  222.4500 C   0  0  0  0  0  0  0  0  0  0  0  0
  139.4540   73.5300  222.3400 N   0  0  0  0  0  0  0  0  0  0  0  0
  139.6330   74.3850  221.1930 C   0  0  0  0  0  0  0  0  0  0  0  0
  140.5310   75.5240  221.4770 C   0  0  0  0  0  0  0  0  0  0  0  0
  141.7870   75.4420  221.4860 O   0  0  0  0  0  0  0  0  0  0  0  0
  139.9390   76.7850  221.7600 N   0  0  0  0  0  0  0  0  0  0  0  0
  138.8390   77.0570  222.6900 C   0  0  0  0  0  0  0  0  0  0  0  0
  137.9510   77.9410  221.8480 C   0  0  0  0  0  0  0  0  0  0  0  0
  138.8930   78.6260  220.8910 C   0  0  0  0  0  0  0  0  0  0  0  0
  140.2750   78.0840  221.2050 C   0  0  1  0  0  0  0  0  0  0  0  0
  141.0040   78.9630  222.1230 C   0  0  0  0  0  0  0  0  0  0  0  0
  141.5350   78.5230  223.3160 C   0  0  0  0  0  0  0  0  0  0  0  0
  142.1990   79.3480  224.1380 N   0  0  0  0  0  0  0  0  0  0  0  0
  142.3810   80.6400  223.8430 C   0  0  0  0  0  0  0  0  0  0  0  0
  141.8580   81.1080  222.6490 C   0  0  0  0  0  0  0  0  0  0  0  0
  141.1950   80.2780  221.8330 N   0  0  0  0  0  0  0  0  0  0  0  0
  140.1860   71.5010  223.5980 C   0  0  0  0  0  0  0  0  0  0  0  0
  139.5470   70.2900  223.4040 C   0  0  0  0  0  0  0  0  0  0  0  0
  139.4160   69.4500  224.4910 C   0  0  0  0  0  0  0  0  0  0  0  0
  139.9130   69.8180  225.7350 C   0  0  0  0  0  0  0  0  0  0  0  0
  139.7780   68.9710  226.8260 C   0  0  0  0  0  0  0  0  0  0  0  0
  140.2920   69.3940  228.0360 C   0  0  0  0  0  0  0  0  0  0  0  0
  140.1700   68.5830  229.1010 F   0  0  0  0  0  0  0  0  0  0  0  0
  140.9250   70.6000  228.2160 C   0  0  0  0  0  0  0  0  0  0  0  0
  141.0390   71.4200  227.0970 C   0  0  0  0  0  0  0  0  0  0  0  0
  140.5340   71.0210  225.8770 C   0  0  0  0  0  0  0  0  0  0  0  0
  140.6650   71.8530  224.8070 N   0  0  0  0  0  0  0  0  0  0  0  0
  138.7110   73.7230  223.0710 H   0  0  0  0  0  0  0  0  0  0  0  0
  140.0632   73.7913  220.3730 H   0  0  0  0  0  0  0  0  0  0  0  0
  138.6484   74.7927  220.9203 H   0  0  0  0  0  0  0  0  0  0  0  0
  138.3227   76.1315  222.9846 H   0  0  0  0  0  0  0  0  0  0  0  0
  139.1550   77.5110  223.6408 H   0  0  0  0  0  0  0  0  0  0  0  0
  137.2110   77.3390  221.3003 H   0  0  0  0  0  0  0  0  0  0  0  0
  137.3798   78.6581  222.4558 H   0  0  0  0  0  0  0  0  0  0  0  0
  138.6181   78.3931  219.8517 H   0  0  0  0  0  0  0  0  0  0  0  0
  138.8545   79.7198  221.0012 H   0  0  0  0  0  0  0  0  0  0  0  0
  140.9630   78.0173  220.3493 H   0  0  0  0  0  0  0  0  0  0  0  0
  141.4109   77.4679  223.6011 H   0  0  0  0  0  0  0  0  0  0  0  0
  142.9273   81.3078  224.5253 H   0  0  0  0  0  0  0  0  0  0  0  0
  141.9874   82.1641  222.3700 H   0  0  0  0  0  0  0  0  0  0  0  0
  139.1561   70.0057  222.4159 H   0  0  0  0  0  0  0  0  0  0  0  0
  138.9129   68.4791  224.3712 H   0  0  0  0  0  0  0  0  0  0  0  0
  139.2785   67.9957  226.7302 H   0  0  0  0  0  0  0  0  0  0  0  0
  141.3222   70.9027  229.1961 H   0  0  0  0  0  0  0  0  0  0  0  0
  141.5371   72.3966  227.1866 H   0  0  0  0  0  0  0  0  0  0  0  0
  1  2  2  0
  2  3  1  0
  3  4  1  0
  4  5  1  0
  5  6  2  0
  5  7  1  0
  7  8  1  0
  8  9  1  0
  9 10  1  0
 10 11  1  0
 11 12  1  0
 12 13  2  0
 13 14  1  0
 14 15  2  0
 15 16  1  0
 16 17  2  0
  2 18  1  0
 18 19  2  0
 19 20  1  0
 20 21  2  0
 21 22  1  0
 22 23  2  0
 23 24  1  0
 23 25  1  0
 25 26  2  0
 26 27  1  0
 27 28  2  0
 11  7  1  0
 17 12  1  0
 28 18  1  0
 27 21  1  0
  3 29  1  0
  4 30  1  0
  4 31  1  0
  8 32  1  0
  8 33  1  0
  9 34  1  0
  9 35  1  0
 10 36  1  0
 10 37  1  0
 11 38  1  6
 13 39  1  0
 15 40  1  0
 16 41  1  0
 19 42  1  0
 20 43  1  0
 22 44  1  0
 25 45  1  0
 26 46  1  0
M  END
>  <smiles>  (75) 
O=C(NCC(=O)N1CCCC1c1cnccn1)c1ccc2cc(F)ccc2n1

>  <score_type>  (75) 
oracle

>  <origin>  (75) 
autodockgpu

>  <m_score__min__energy>  (75) 
-8.5299999999999994

>  <m_primary>  (75) 
energy

>  <rmsd>  (75) 
2.4630364972905565

>  <m_score__min__rmsd>  (75) 
2.4630364972905565

>  <meeko>  (75) 
{"free_energy": -8.11, "intermolecular_energy": -9.6, "internal_energy": -1.07, "cluster_size": 20, "cluster_id": 2, "rank_in_cluster": 4}

>  <energy>  (75) 
-8.02

>  <cluster_rmsd>  (75) 
1.1

>  <cluster>  (75) 
2

$$$$

     RDKit          3D

 46 49  0  0  0  0  0  0  0  0999 V2000
  141.1780   72.3340  221.6180 O   0  0  0  0  0  0  0  0  0  0  0  0
  140.2500   72.4330  222.4790 C   0  0  0  0  0  0  0  0  0  0  0  0
  139.2650   73.4660  222.3360 N   0  0  0  0  0  0  0  0  0  0  0  0
  139.3970   74.3420  221.1980 C   0  0  0  0  0  0  0  0  0  0  0  0
  140.4690   75.3420  221.3820 C   0  0  0  0  0  0  0  0  0  0  0  0
  141.6730   75.0480  221.5960 O   0  0  0  0  0  0  0  0  0  0  0  0
  140.1160   76.7170  221.3130 N   0  0  0  0  0  0  0  0  0  0  0  0
  138.8480   77.3270  221.7240 C   0  0  0  0  0  0  0  0  0  0  0  0
  138.5450   78.2090  220.5370 C   0  0  0  0  0  0  0  0  0  0  0  0
  139.8970   78.5540  219.9650 C   0  0  0  0  0  0  0  0  0  0  0  0
  140.9130   77.8300  220.8280 C   0  0  1  0  0  0  0  0  0  0  0  0
  141.4420   78.6990  221.8830 C   0  0  0  0  0  0  0  0  0  0  0  0
  142.0690   79.8970  221.6200 C   0  0  0  0  0  0  0  0  0  0  0  0
  142.5440   80.6740  222.6040 N   0  0  0  0  0  0  0  0  0  0  0  0
  142.4330   80.3280  223.8910 C   0  0  0  0  0  0  0  0  0  0  0  0
  141.8050   79.1270  224.1830 C   0  0  0  0  0  0  0  0  0  0  0  0
  141.3350   78.3560  223.1950 N   0  0  0  0  0  0  0  0  0  0  0  0
  140.1580   71.5190  223.6200 C   0  0  0  0  0  0  0  0  0  0  0  0
  139.5700   70.2830  223.4200 C   0  0  0  0  0  0  0  0  0  0  0  0
  139.4860   69.4280  224.5000 C   0  0  0  0  0  0  0  0  0  0  0  0
  139.9810   69.8050  225.7430 C   0  0  0  0  0  0  0  0  0  0  0  0
  139.8960   68.9430  226.8260 C   0  0  0  0  0  0  0  0  0  0  0  0
  140.4050   69.3760  228.0340 C   0  0  0  0  0  0  0  0  0  0  0  0
  140.3290   68.5500  229.0920 F   0  0  0  0  0  0  0  0  0  0  0  0
  140.9860   70.6060  228.2190 C   0  0  0  0  0  0  0  0  0  0  0  0
  141.0530   71.4410  227.1080 C   0  0  0  0  0  0  0  0  0  0  0  0
  140.5520   71.0330  225.8900 C   0  0  0  0  0  0  0  0  0  0  0  0
  140.6350   71.8790  224.8260 N   0  0  0  0  0  0  0  0  0  0  0  0
  138.4780   73.5760  223.0390 H   0  0  0  0  0  0  0  0  0  0  0  0
  139.6275   73.7357  220.3096 H   0  0  0  0  0  0  0  0  0  0  0  0
  138.4475   74.8844  221.0787 H   0  0  0  0  0  0  0  0  0  0  0  0
  138.0655   76.5682  221.8719 H   0  0  0  0  0  0  0  0  0  0  0  0
  138.8965   77.8636  222.6830 H   0  0  0  0  0  0  0  0  0  0  0  0
  137.9365   77.6686  219.7969 H   0  0  0  0  0  0  0  0  0  0  0  0
  137.9700   79.1037  220.8179 H   0  0  0  0  0  0  0  0  0  0  0  0
  139.9691   78.2126  218.9218 H   0  0  0  0  0  0  0  0  0  0  0  0
  140.0693   79.6404  219.9652 H   0  0  0  0  0  0  0  0  0  0  0  0
  141.8280   77.5058  220.3106 H   0  0  0  0  0  0  0  0  0  0  0  0
  142.1829   80.2245  220.5761 H   0  0  0  0  0  0  0  0  0  0  0  0
  142.8262   80.9737  224.6900 H   0  0  0  0  0  0  0  0  0  0  0  0
  141.6927   78.8069  225.2294 H   0  0  0  0  0  0  0  0  0  0  0  0
  139.1822   69.9913  222.4328 H   0  0  0  0  0  0  0  0  0  0  0  0
  139.0226   68.4381  224.3760 H   0  0  0  0  0  0  0  0  0  0  0  0
  139.4384   67.9477  226.7259 H   0  0  0  0  0  0  0  0  0  0  0  0
  141.3795   70.9164  229.1982 H   0  0  0  0  0  0  0  0  0  0  0  0
  141.5104   72.4369  227.2024 H   0  0  0  0  0  0  0  0  0  0  0  0
  1  2  2  0
  2  3  1  0
  3  4  1  0
  4  5  1  0
  5  6  2  0
  5  7  1  0
  7  8  1  0
  8  9  1  0
  9 10  1  0
 10 11  1  0
 11 12  1  0
 12 13  2  0
 13 14  1  0
 14 15  2  0
 15 16  1  0
 16 17  2  0
  2 18  1  0
 18 19  2  0
 19 20  1  0
 20 21  2  0
 21 22  1  0
 22 23  2  0
 23 24  1  0
 23 25  1  0
 25 26  2  0
 26 27  1  0
 27 28  2  0
 11  7  1  0
 17 12  1  0
 28 18  1  0
 27 21  1  0
  3 29  1  0
  4 30  1  0
  4 31  1  0
  8 32  1  0
  8 33  1  0
  9 34  1  0
  9 35  1  0
 10 36  1  0
 10 37  1  0
 11 38  1  6
 13 39  1  0
 15 40  1  0
 16 41  1  0
 19 42  1  0
 20 43  1  0
 22 44  1  0
 25 45  1  0
 26 46  1  0
M  END
>  <smiles>  (76) 
O=C(NCC(=O)N1CCCC1c1cnccn1)c1ccc2cc(F)ccc2n1

>  <score_type>  (76) 
oracle

>  <origin>  (76) 
autodockgpu

>  <m_score__min__energy>  (76) 
-8.5299999999999994

>  <m_primary>  (76) 
energy

>  <rmsd>  (76) 
2.0204596140014335

>  <m_score__min__rmsd>  (76) 
2.0204596140014335

>  <meeko>  (76) 
{"free_energy": -8.15, "intermolecular_energy": -9.64, "internal_energy": -1.13, "cluster_size": 20, "cluster_id": 2, "rank_in_cluster": 3}

>  <energy>  (76) 
-8.02

>  <cluster_rmsd>  (76) 
0.89

>  <cluster>  (76) 
2

$$$$

     RDKit          3D

 46 49  0  0  0  0  0  0  0  0999 V2000
  140.8360   71.8340  221.0670 O   0  0  0  0  0  0  0  0  0  0  0  0
  140.3160   72.2860  222.1350 C   0  0  0  0  0  0  0  0  0  0  0  0
  139.8510   73.6430  222.1710 N   0  0  0  0  0  0  0  0  0  0  0  0
  140.0090   74.4200  220.9670 C   0  0  0  0  0  0  0  0  0  0  0  0
  141.0340   75.4760  221.1100 C   0  0  0  0  0  0  0  0  0  0  0  0
  141.0660   76.2970  222.0630 O   0  0  0  0  0  0  0  0  0  0  0  0
  142.0400   75.5680  220.1110 N   0  0  0  0  0  0  0  0  0  0  0  0
  142.8380   76.7480  219.7640 C   0  0  0  0  0  0  0  0  0  0  0  0
  142.7350   76.7430  218.2580 C   0  0  0  0  0  0  0  0  0  0  0  0
  142.5430   75.2920  217.8950 C   0  0  0  0  0  0  0  0  0  0  0  0
  142.5120   74.5330  219.2090 C   0  0  1  0  0  0  0  0  0  0  0  0
  143.8300   73.9900  219.5500 C   0  0  0  0  0  0  0  0  0  0  0  0
  144.7130   73.5210  218.6020 C   0  0  0  0  0  0  0  0  0  0  0  0
  145.9140   73.0290  218.9410 N   0  0  0  0  0  0  0  0  0  0  0  0
  146.3170   72.9700  220.2140 C   0  0  0  0  0  0  0  0  0  0  0  0
  145.4480   73.4360  221.1880 C   0  0  0  0  0  0  0  0  0  0  0  0
  144.2500   73.9250  220.8420 N   0  0  0  0  0  0  0  0  0  0  0  0
  140.1770   71.4570  223.3340 C   0  0  0  0  0  0  0  0  0  0  0  0
  139.5630   70.2240  223.2080 C   0  0  0  0  0  0  0  0  0  0  0  0
  139.4360   69.4500  224.3430 C   0  0  0  0  0  0  0  0  0  0  0  0
  139.9140   69.9030  225.5680 C   0  0  0  0  0  0  0  0  0  0  0  0
  139.7840   69.1210  226.7070 C   0  0  0  0  0  0  0  0  0  0  0  0
  140.2780   69.6280  227.8930 C   0  0  0  0  0  0  0  0  0  0  0  0
  140.1600   68.8810  229.0040 F   0  0  0  0  0  0  0  0  0  0  0  0
  140.8860   70.8540  228.0040 C   0  0  0  0  0  0  0  0  0  0  0  0
  140.9960   71.6060  226.8390 C   0  0  0  0  0  0  0  0  0  0  0  0
  140.5110   71.1240  225.6410 C   0  0  0  0  0  0  0  0  0  0  0  0
  140.6380   71.8910  224.5230 N   0  0  0  0  0  0  0  0  0  0  0  0
  139.4130   74.0510  223.0470 H   0  0  0  0  0  0  0  0  0  0  0  0
  140.3059   73.7476  220.1487 H   0  0  0  0  0  0  0  0  0  0  0  0
  139.0477   74.9111  220.7553 H   0  0  0  0  0  0  0  0  0  0  0  0
  142.4086   77.6650  220.1939 H   0  0  0  0  0  0  0  0  0  0  0  0
  143.8696   76.7218  220.1449 H   0  0  0  0  0  0  0  0  0  0  0  0
  141.8755   77.3436  217.9255 H   0  0  0  0  0  0  0  0  0  0  0  0
  143.6231   77.1793  217.7775 H   0  0  0  0  0  0  0  0  0  0  0  0
  141.5959   75.1558  217.3524 H   0  0  0  0  0  0  0  0  0  0  0  0
  143.3490   74.9304  217.2396 H   0  0  0  0  0  0  0  0  0  0  0  0
  141.8778   73.6343  219.2216 H   0  0  0  0  0  0  0  0  0  0  0  0
  144.4259   73.5508  217.5405 H   0  0  0  0  0  0  0  0  0  0  0  0
  147.3048   72.5654  220.4796 H   0  0  0  0  0  0  0  0  0  0  0  0
  145.7428   73.4042  222.2473 H   0  0  0  0  0  0  0  0  0  0  0  0
  139.1885   69.8723  222.2353 H   0  0  0  0  0  0  0  0  0  0  0  0
  138.9517   68.4645  224.2784 H   0  0  0  0  0  0  0  0  0  0  0  0
  139.3043   68.1319  226.6667 H   0  0  0  0  0  0  0  0  0  0  0  0
  141.2675   71.2235  228.9673 H   0  0  0  0  0  0  0  0  0  0  0  0
  141.4749   72.5957  226.8734 H   0  0  0  0  0  0  0  0  0  0  0  0
  1  2  2  0
  2  3  1  0
  3  4  1  0
  4  5  1  0
  5  6  2  0
  5  7  1  0
  7  8  1  0
  8  9  1  0
  9 10  1  0
 10 11  1  0
 11 12  1  0
 12 13  2  0
 13 14  1  0
 14 15  2  0
 15 16  1  0
 16 17  2  0
  2 18  1  0
 18 19  2  0
 19 20  1  0
 20 21  2  0
 21 22  1  0
 22 23  2  0
 23 24  1  0
 23 25  1  0
 25 26  2  0
 26 27  1  0
 27 28  2  0
 11  7  1  0
 17 12  1  0
 28 18  1  0
 27 21  1  0
  3 29  1  0
  4 30  1  0
  4 31  1  0
  8 32  1  0
  8 33  1  0
  9 34  1  0
  9 35  1  0
 10 36  1  0
 10 37  1  0
 11 38  1  6
 13 39  1  0
 15 40  1  0
 16 41  1  0
 19 42  1  0
 20 43  1  0
 22 44  1  0
 25 45  1  0
 26 46  1  0
M  END
>  <smiles>  (77) 
O=C(NCC(=O)N1CCCC1c1cnccn1)c1ccc2cc(F)ccc2n1

>  <score_type>  (77) 
oracle

>  <origin>  (77) 
autodockgpu

>  <m_score__min__energy>  (77) 
-8.5299999999999994

>  <m_primary>  (77) 
energy

>  <rmsd>  (77) 
3.50675892279527

>  <m_score__min__rmsd>  (77) 
3.50675892279527

>  <meeko>  (77) 
{"free_energy": -8.39, "intermolecular_energy": -9.88, "internal_energy": -1.51, "cluster_size": 16, "cluster_id": 1, "rank_in_cluster": 9}

>  <energy>  (77) 
-8.02

>  <cluster_rmsd>  (77) 
0.99

>  <cluster>  (77) 
2

$$$$

     RDKit          3D

 46 49  0  0  0  0  0  0  0  0999 V2000
  139.2920   74.7610  222.2310 O   0  0  0  0  0  0  0  0  0  0  0  0
  140.4880   75.0870  221.9550 C   0  0  0  0  0  0  0  0  0  0  0  0
  140.9150   76.4400  222.1670 N   0  0  0  0  0  0  0  0  0  0  0  0
  139.9350   77.3600  222.6910 C   0  0  0  0  0  0  0  0  0  0  0  0
  140.4770   78.7250  222.8540 C   0  0  0  0  0  0  0  0  0  0  0  0
  140.4420   79.3700  223.9330 O   0  0  0  0  0  0  0  0  0  0  0  0
  141.0720   79.3450  221.7210 N   0  0  0  0  0  0  0  0  0  0  0  0
  142.2200   80.2570  221.7120 C   0  0  0  0  0  0  0  0  0  0  0  0
  141.7150   81.3580  220.8110 C   0  0  0  0  0  0  0  0  0  0  0  0
  140.7330   80.6770  219.8920 C   0  0  0  0  0  0  0  0  0  0  0  0
  140.6940   79.2240  220.3250 C   0  0  1  0  0  0  0  0  0  0  0  0
  141.6000   78.3970  219.5230 C   0  0  0  0  0  0  0  0  0  0  0  0
  141.6510   78.4620  218.1480 C   0  0  0  0  0  0  0  0  0  0  0  0
  142.4910   77.6950  217.4370 N   0  0  0  0  0  0  0  0  0  0  0  0
  143.3210   76.8280  218.0250 C   0  0  0  0  0  0  0  0  0  0  0  0
  143.2900   76.7420  219.4080 C   0  0  0  0  0  0  0  0  0  0  0  0
  142.4480   77.5110  220.1110 N   0  0  0  0  0  0  0  0  0  0  0  0
  141.4480   74.1170  221.4250 C   0  0  0  0  0  0  0  0  0  0  0  0
  141.0060   72.8300  221.1750 C   0  0  0  0  0  0  0  0  0  0  0  0
  141.9170   71.9220  220.6760 C   0  0  0  0  0  0  0  0  0  0  0  0
  143.2330   72.2980  220.4330 C   0  0  0  0  0  0  0  0  0  0  0  0
  144.1460   71.3820  219.9310 C   0  0  0  0  0  0  0  0  0  0  0  0
  145.4380   71.8170  219.7130 C   0  0  0  0  0  0  0  0  0  0  0  0
  146.3330   70.9400  219.2250 F   0  0  0  0  0  0  0  0  0  0  0  0
  145.8640   73.0970  219.9640 C   0  0  0  0  0  0  0  0  0  0  0  0
  144.9180   73.9850  220.4670 C   0  0  0  0  0  0  0  0  0  0  0  0
  143.6210   73.5770  220.6950 C   0  0  0  0  0  0  0  0  0  0  0  0
  142.7240   74.4750  221.1880 N   0  0  0  0  0  0  0  0  0  0  0  0
  141.9060   76.7450  221.9460 H   0  0  0  0  0  0  0  0  0  0  0  0
  139.0809   77.3990  221.9988 H   0  0  0  0  0  0  0  0  0  0  0  0
  139.6313   76.9980  223.6843 H   0  0  0  0  0  0  0  0  0  0  0  0
  142.4436   80.6331  222.7212 H   0  0  0  0  0  0  0  0  0  0  0  0
  143.1601   79.7951  221.3760 H   0  0  0  0  0  0  0  0  0  0  0  0
  141.2167   82.1429  221.3988 H   0  0  0  0  0  0  0  0  0  0  0  0
  142.5287   81.8520  220.2597 H   0  0  0  0  0  0  0  0  0  0  0  0
  139.7368   81.1325  219.9920 H   0  0  0  0  0  0  0  0  0  0  0  0
  141.0323   80.7755  218.8381 H   0  0  0  0  0  0  0  0  0  0  0  0
  139.7288   78.7147  220.1871 H   0  0  0  0  0  0  0  0  0  0  0  0
  140.9859   79.1608  217.6195 H   0  0  0  0  0  0  0  0  0  0  0  0
  144.0054   76.2040  217.4315 H   0  0  0  0  0  0  0  0  0  0  0  0
  143.9582   76.0408  219.9294 H   0  0  0  0  0  0  0  0  0  0  0  0
  139.9625   72.5402  221.3678 H   0  0  0  0  0  0  0  0  0  0  0  0
  141.5987   70.8898  220.4683 H   0  0  0  0  0  0  0  0  0  0  0  0
  143.8507   70.3448  219.7141 H   0  0  0  0  0  0  0  0  0  0  0  0
  146.9029   73.4062  219.7767 H   0  0  0  0  0  0  0  0  0  0  0  0
  145.2081   75.0234  220.6850 H   0  0  0  0  0  0  0  0  0  0  0  0
  1  2  2  0
  2  3  1  0
  3  4  1  0
  4  5  1  0
  5  6  2  0
  5  7  1  0
  7  8  1  0
  8  9  1  0
  9 10  1  0
 10 11  1  0
 11 12  1  0
 12 13  2  0
 13 14  1  0
 14 15  2  0
 15 16  1  0
 16 17  2  0
  2 18  1  0
 18 19  2  0
 19 20  1  0
 20 21  2  0
 21 22  1  0
 22 23  2  0
 23 24  1  0
 23 25  1  0
 25 26  2  0
 26 27  1  0
 27 28  2  0
 11  7  1  0
 17 12  1  0
 28 18  1  0
 27 21  1  0
  3 29  1  0
  4 30  1  0
  4 31  1  0
  8 32  1  0
  8 33  1  0
  9 34  1  0
  9 35  1  0
 10 36  1  0
 10 37  1  0
 11 38  1  1
 13 39  1  0
 15 40  1  0
 16 41  1  0
 19 42  1  0
 20 43  1  0
 22 44  1  0
 25 45  1  0
 26 46  1  0
M  END
>  <smiles>  (78) 
O=C(NCC(=O)N1CCCC1c1cnccn1)c1ccc2cc(F)ccc2n1

>  <score_type>  (78) 
oracle

>  <origin>  (78) 
autodockgpu

>  <m_score__min__energy>  (78) 
-8.5299999999999994

>  <m_primary>  (78) 
energy

>  <rmsd>  (78) 
6.244994944198273

>  <m_score__min__rmsd>  (78) 
6.244994944198273

>  <meeko>  (78) 
{"free_energy": -6.1, "intermolecular_energy": -7.59, "internal_energy": -2.69, "cluster_size": 7, "cluster_id": 5, "rank_in_cluster": 7}

>  <energy>  (78) 
-8.01

>  <cluster_rmsd>  (78) 
1.26

>  <cluster>  (78) 
2

$$$$

     RDKit          3D

 46 49  0  0  0  0  0  0  0  0999 V2000
  141.1840   72.9510  222.0880 O   0  0  0  0  0  0  0  0  0  0  0  0
  140.0940   72.6950  222.6880 C   0  0  0  0  0  0  0  0  0  0  0  0
  138.9100   73.4230  222.3350 N   0  0  0  0  0  0  0  0  0  0  0  0
  139.0390   74.4200  221.3010 C   0  0  0  0  0  0  0  0  0  0  0  0
  138.8990   75.7950  221.8270 C   0  0  0  0  0  0  0  0  0  0  0  0
  138.0710   76.1260  222.7130 O   0  0  0  0  0  0  0  0  0  0  0  0
  139.7510   76.8010  221.2950 N   0  0  0  0  0  0  0  0  0  0  0  0
  139.4710   77.6910  220.1650 C   0  0  0  0  0  0  0  0  0  0  0  0
  140.7550   77.5820  219.3780 C   0  0  0  0  0  0  0  0  0  0  0  0
  141.8090   77.2700  220.4100 C   0  0  0  0  0  0  0  0  0  0  0  0
  141.0800   77.1830  221.7380 C   0  0  1  0  0  0  0  0  0  0  0  0
  141.1330   78.4530  222.4670 C   0  0  0  0  0  0  0  0  0  0  0  0
  142.2670   79.2320  222.5310 C   0  0  0  0  0  0  0  0  0  0  0  0
  142.2880   80.3910  223.2040 N   0  0  0  0  0  0  0  0  0  0  0  0
  141.2110   80.8520  223.8470 C   0  0  0  0  0  0  0  0  0  0  0  0
  140.0560   80.0880  223.7990 C   0  0  0  0  0  0  0  0  0  0  0  0
  140.0420   78.9300  223.1250 N   0  0  0  0  0  0  0  0  0  0  0  0
  140.0120   71.6720  223.7320 C   0  0  0  0  0  0  0  0  0  0  0  0
  139.3680   70.4840  223.4350 C   0  0  0  0  0  0  0  0  0  0  0  0
  139.2950   69.5270  224.4250 C   0  0  0  0  0  0  0  0  0  0  0  0
  139.8550   69.7560  225.6770 C   0  0  0  0  0  0  0  0  0  0  0  0
  139.7790   68.7910  226.6710 C   0  0  0  0  0  0  0  0  0  0  0  0
  140.3530   69.0800  227.8920 C   0  0  0  0  0  0  0  0  0  0  0  0
  140.2880   68.1520  228.8640 F   0  0  0  0  0  0  0  0  0  0  0  0
  140.9900   70.2620  228.1750 C   0  0  0  0  0  0  0  0  0  0  0  0
  141.0440   71.2050  227.1520 C   0  0  0  0  0  0  0  0  0  0  0  0
  140.4790   70.9420  225.9220 C   0  0  0  0  0  0  0  0  0  0  0  0
  140.5520   71.8890  224.9470 N   0  0  0  0  0  0  0  0  0  0  0  0
  137.9840   73.2340  222.8170 H   0  0  0  0  0  0  0  0  0  0  0  0
  140.0297   74.3191  220.8338 H   0  0  0  0  0  0  0  0  0  0  0  0
  138.2324   74.2548  220.5716 H   0  0  0  0  0  0  0  0  0  0  0  0
  138.6087   77.3395  219.5795 H   0  0  0  0  0  0  0  0  0  0  0  0
  139.2062   78.7184  220.4553 H   0  0  0  0  0  0  0  0  0  0  0  0
  140.6876   76.7735  218.6352 H   0  0  0  0  0  0  0  0  0  0  0  0
  140.9797   78.5014  218.8174 H   0  0  0  0  0  0  0  0  0  0  0  0
  142.2986   76.3124  220.1791 H   0  0  0  0  0  0  0  0  0  0  0  0
  142.5939   78.0404  220.4305 H   0  0  0  0  0  0  0  0  0  0  0  0
  141.5056   76.4775  222.4668 H   0  0  0  0  0  0  0  0  0  0  0  0
  143.1788   78.8944  222.0167 H   0  0  0  0  0  0  0  0  0  0  0  0
  141.2404   81.8051  224.3955 H   0  0  0  0  0  0  0  0  0  0  0  0
  139.1482   80.4330  224.3156 H   0  0  0  0  0  0  0  0  0  0  0  0
  138.9287   70.3087  222.4419 H   0  0  0  0  0  0  0  0  0  0  0  0
  138.7882   68.5720  224.2221 H   0  0  0  0  0  0  0  0  0  0  0  0
  139.2781   67.8282  226.4917 H   0  0  0  0  0  0  0  0  0  0  0  0
  141.4361   70.4551  229.1618 H   0  0  0  0  0  0  0  0  0  0  0  0
  141.5426   72.1698  227.3268 H   0  0  0  0  0  0  0  0  0  0  0  0
  1  2  2  0
  2  3  1  0
  3  4  1  0
  4  5  1  0
  5  6  2  0
  5  7  1  0
  7  8  1  0
  8  9  1  0
  9 10  1  0
 10 11  1  0
 11 12  1  0
 12 13  2  0
 13 14  1  0
 14 15  2  0
 15 16  1  0
 16 17  2  0
  2 18  1  0
 18 19  2  0
 19 20  1  0
 20 21  2  0
 21 22  1  0
 22 23  2  0
 23 24  1  0
 23 25  1  0
 25 26  2  0
 26 27  1  0
 27 28  2  0
 11  7  1  0
 17 12  1  0
 28 18  1  0
 27 21  1  0
  3 29  1  0
  4 30  1  0
  4 31  1  0
  8 32  1  0
  8 33  1  0
  9 34  1  0
  9 35  1  0
 10 36  1  0
 10 37  1  0
 11 38  1  1
 13 39  1  0
 15 40  1  0
 16 41  1  0
 19 42  1  0
 20 43  1  0
 22 44  1  0
 25 45  1  0
 26 46  1  0
M  END
>  <smiles>  (79) 
O=C(NCC(=O)N1CCCC1c1cnccn1)c1ccc2cc(F)ccc2n1

>  <score_type>  (79) 
oracle

>  <origin>  (79) 
autodockgpu

>  <m_score__min__energy>  (79) 
-8.5299999999999994

>  <m_primary>  (79) 
energy

>  <rmsd>  (79) 
1.9436844991984195

>  <m_score__min__rmsd>  (79) 
1.9436844991984195

>  <meeko>  (79) 
{"free_energy": -7.99, "intermolecular_energy": -9.48, "internal_energy": -1.27, "cluster_size": 20, "cluster_id": 2, "rank_in_cluster": 15}

>  <energy>  (79) 
-8.0

>  <cluster_rmsd>  (79) 
0.6

>  <cluster>  (79) 
2

$$$$

     RDKit          3D

 46 49  0  0  0  0  0  0  0  0999 V2000
  140.7090   70.9730  221.7680 O   0  0  0  0  0  0  0  0  0  0  0  0
  140.3700   71.6500  222.7870 C   0  0  0  0  0  0  0  0  0  0  0  0
  139.8780   72.9860  222.6120 N   0  0  0  0  0  0  0  0  0  0  0  0
  139.7990   73.4810  221.2590 C   0  0  0  0  0  0  0  0  0  0  0  0
  140.7060   74.6250  221.0270 C   0  0  0  0  0  0  0  0  0  0  0  0
  140.7580   75.6410  221.7670 O   0  0  0  0  0  0  0  0  0  0  0  0
  141.5690   74.5710  219.8990 N   0  0  0  0  0  0  0  0  0  0  0  0
  141.9660   75.6870  219.0350 C   0  0  0  0  0  0  0  0  0  0  0  0
  141.7620   75.0870  217.6640 C   0  0  0  0  0  0  0  0  0  0  0  0
  141.9700   73.6070  217.8620 C   0  0  0  0  0  0  0  0  0  0  0  0
  142.2530   73.4190  219.3410 C   0  0  1  0  0  0  0  0  0  0  0  0
  143.6930   73.3800  219.6140 C   0  0  0  0  0  0  0  0  0  0  0  0
  144.6180   72.9470  218.6900 C   0  0  0  0  0  0  0  0  0  0  0  0
  145.9300   72.9230  218.9650 N   0  0  0  0  0  0  0  0  0  0  0  0
  146.4090   73.3180  220.1500 C   0  0  0  0  0  0  0  0  0  0  0  0
  145.4990   73.7590  221.0970 C   0  0  0  0  0  0  0  0  0  0  0  0
  144.1900   73.7800  220.8150 N   0  0  0  0  0  0  0  0  0  0  0  0
  140.4680   71.1040  224.1420 C   0  0  0  0  0  0  0  0  0  0  0  0
  141.0080   71.9050  225.1320 C   0  0  0  0  0  0  0  0  0  0  0  0
  141.0970   71.3820  226.4060 C   0  0  0  0  0  0  0  0  0  0  0  0
  140.6550   70.0920  226.6760 C   0  0  0  0  0  0  0  0  0  0  0  0
  140.7460   69.5700  227.9580 C   0  0  0  0  0  0  0  0  0  0  0  0
  140.2910   68.2820  228.1610 C   0  0  0  0  0  0  0  0  0  0  0  0
  140.3730   67.7640  229.3990 F   0  0  0  0  0  0  0  0  0  0  0  0
  139.7570   67.4970  227.1690 C   0  0  0  0  0  0  0  0  0  0  0  0
  139.6830   68.0580  225.8980 C   0  0  0  0  0  0  0  0  0  0  0  0
  140.1310   69.3420  225.6670 C   0  0  0  0  0  0  0  0  0  0  0  0
  140.0420   69.8550  224.4090 N   0  0  0  0  0  0  0  0  0  0  0  0
  139.5870   73.5790  223.4420 H   0  0  0  0  0  0  0  0  0  0  0  0
  140.0702   72.6687  220.5686 H   0  0  0  0  0  0  0  0  0  0  0  0
  138.7692   73.8273  221.0866 H   0  0  0  0  0  0  0  0  0  0  0  0
  141.3220   76.5652  219.1901 H   0  0  0  0  0  0  0  0  0  0  0  0
  142.9856   76.0573  219.2175 H   0  0  0  0  0  0  0  0  0  0  0  0
  140.7447   75.2907  217.2984 H   0  0  0  0  0  0  0  0  0  0  0  0
  142.4507   75.5089  216.9172 H   0  0  0  0  0  0  0  0  0  0  0  0
  141.0657   73.0517  217.5722 H   0  0  0  0  0  0  0  0  0  0  0  0
  142.7968   73.2297  217.2423 H   0  0  0  0  0  0  0  0  0  0  0  0
  141.9068   72.4680  219.7721 H   0  0  0  0  0  0  0  0  0  0  0  0
  144.2715   72.6123  217.7011 H   0  0  0  0  0  0  0  0  0  0  0  0
  147.4875   73.2935  220.3649 H   0  0  0  0  0  0  0  0  0  0  0  0
  145.8528   74.0929  222.0836 H   0  0  0  0  0  0  0  0  0  0  0  0
  141.3550   72.9252  224.9111 H   0  0  0  0  0  0  0  0  0  0  0  0
  141.5222   71.9924  227.2164 H   0  0  0  0  0  0  0  0  0  0  0  0
  141.1662   70.1617  228.7846 H   0  0  0  0  0  0  0  0  0  0  0  0
  139.4049   66.4744  227.3695 H   0  0  0  0  0  0  0  0  0  0  0  0
  139.2626   67.4711  225.0681 H   0  0  0  0  0  0  0  0  0  0  0  0
  1  2  2  0
  2  3  1  0
  3  4  1  0
  4  5  1  0
  5  6  2  0
  5  7  1  0
  7  8  1  0
  8  9  1  0
  9 10  1  0
 10 11  1  0
 11 12  1  0
 12 13  2  0
 13 14  1  0
 14 15  2  0
 15 16  1  0
 16 17  2  0
  2 18  1  0
 18 19  2  0
 19 20  1  0
 20 21  2  0
 21 22  1  0
 22 23  2  0
 23 24  1  0
 23 25  1  0
 25 26  2  0
 26 27  1  0
 27 28  2  0
 11  7  1  0
 17 12  1  0
 28 18  1  0
 27 21  1  0
  3 29  1  0
  4 30  1  0
  4 31  1  0
  8 32  1  0
  8 33  1  0
  9 34  1  0
  9 35  1  0
 10 36  1  0
 10 37  1  0
 11 38  1  1
 13 39  1  0
 15 40  1  0
 16 41  1  0
 19 42  1  0
 20 43  1  0
 22 44  1  0
 25 45  1  0
 26 46  1  0
M  END
>  <smiles>  (80) 
O=C(NCC(=O)N1CCCC1c1cnccn1)c1ccc2cc(F)ccc2n1

>  <score_type>  (80) 
oracle

>  <origin>  (80) 
autodockgpu

>  <m_score__min__energy>  (80) 
-8.5299999999999994

>  <m_primary>  (80) 
energy

>  <rmsd>  (80) 
4.008069851147191

>  <m_score__min__rmsd>  (80) 
4.008069851147191

>  <meeko>  (80) 
{"free_energy": -7.53, "intermolecular_energy": -9.02, "internal_energy": -1.37, "cluster_size": 16, "cluster_id": 1, "rank_in_cluster": 13}

>  <energy>  (80) 
-7.99

>  <cluster_rmsd>  (80) 
0.99

>  <cluster>  (80) 
2

$$$$

     RDKit          3D

 46 49  0  0  0  0  0  0  0  0999 V2000
  140.1900   70.8910  221.3490 O   0  0  0  0  0  0  0  0  0  0  0  0
  139.8230   71.5330  222.3820 C   0  0  0  0  0  0  0  0  0  0  0  0
  139.1420   72.7860  222.2260 N   0  0  0  0  0  0  0  0  0  0  0  0
  138.9150   73.2430  220.8760 C   0  0  0  0  0  0  0  0  0  0  0  0
  138.9160   74.7170  220.7760 C   0  0  0  0  0  0  0  0  0  0  0  0
  137.8950   75.4020  220.5070 O   0  0  0  0  0  0  0  0  0  0  0  0
  140.1430   75.3990  220.9940 N   0  0  0  0  0  0  0  0  0  0  0  0
  140.6080   76.0050  222.2460 C   0  0  0  0  0  0  0  0  0  0  0  0
  141.0890   77.3520  221.7610 C   0  0  0  0  0  0  0  0  0  0  0  0
  141.5040   77.1150  220.3310 C   0  0  0  0  0  0  0  0  0  0  0  0
  141.2140   75.6530  220.0480 C   0  0  1  0  0  0  0  0  0  0  0  0
  142.4040   74.8200  220.2430 C   0  0  0  0  0  0  0  0  0  0  0  0
  143.6840   75.2820  220.0320 C   0  0  0  0  0  0  0  0  0  0  0  0
  144.7560   74.4990  220.2190 N   0  0  0  0  0  0  0  0  0  0  0  0
  144.6390   73.2290  220.6210 C   0  0  0  0  0  0  0  0  0  0  0  0
  143.3620   72.7390  220.8420 C   0  0  0  0  0  0  0  0  0  0  0  0
  142.2960   73.5270  220.6520 N   0  0  0  0  0  0  0  0  0  0  0  0
  140.0760   71.0290  223.7330 C   0  0  0  0  0  0  0  0  0  0  0  0
  140.7050   71.8670  224.6370 C   0  0  0  0  0  0  0  0  0  0  0  0
  140.9400   71.3830  225.9070 C   0  0  0  0  0  0  0  0  0  0  0  0
  140.5540   70.0950  226.2580 C   0  0  0  0  0  0  0  0  0  0  0  0
  140.7920   69.6120  227.5370 C   0  0  0  0  0  0  0  0  0  0  0  0
  140.3860   68.3240  227.8230 C   0  0  0  0  0  0  0  0  0  0  0  0
  140.6100   67.8440  229.0590 F   0  0  0  0  0  0  0  0  0  0  0  0
  139.7630   67.5020  226.9180 C   0  0  0  0  0  0  0  0  0  0  0  0
  139.5420   68.0240  225.6460 C   0  0  0  0  0  0  0  0  0  0  0  0
  139.9390   69.3070  225.3340 C   0  0  0  0  0  0  0  0  0  0  0  0
  139.7050   69.7810  224.0790 N   0  0  0  0  0  0  0  0  0  0  0  0
  138.8230   73.3470  223.0670 H   0  0  0  0  0  0  0  0  0  0  0  0
  139.7100   72.8439  220.2289 H   0  0  0  0  0  0  0  0  0  0  0  0
  137.9237   72.8848  220.5614 H   0  0  0  0  0  0  0  0  0  0  0  0
  139.7885   76.1076  222.9726 H   0  0  0  0  0  0  0  0  0  0  0  0
  141.3726   75.4169  222.7748 H   0  0  0  0  0  0  0  0  0  0  0  0
  140.2795   78.0950  221.8124 H   0  0  0  0  0  0  0  0  0  0  0  0
  141.9123   77.7468  222.3745 H   0  0  0  0  0  0  0  0  0  0  0  0
  140.9235   77.7579  219.6530 H   0  0  0  0  0  0  0  0  0  0  0  0
  142.5668   77.3523  220.1754 H   0  0  0  0  0  0  0  0  0  0  0  0
  140.9310   75.4179  219.0114 H   0  0  0  0  0  0  0  0  0  0  0  0
  143.8307   76.3208  219.7013 H   0  0  0  0  0  0  0  0  0  0  0  0
  145.5256   72.5955  220.7710 H   0  0  0  0  0  0  0  0  0  0  0  0
  143.2234   71.6997  221.1745 H   0  0  0  0  0  0  0  0  0  0  0  0
  141.0076   72.8855  224.3521 H   0  0  0  0  0  0  0  0  0  0  0  0
  141.4382   72.0233  226.6498 H   0  0  0  0  0  0  0  0  0  0  0  0
  141.2873   70.2342  228.2970 H   0  0  0  0  0  0  0  0  0  0  0  0
  139.4533   66.4806  227.1842 H   0  0  0  0  0  0  0  0  0  0  0  0
  139.0458   67.4067  224.8826 H   0  0  0  0  0  0  0  0  0  0  0  0
  1  2  2  0
  2  3  1  0
  3  4  1  0
  4  5  1  0
  5  6  2  0
  5  7  1  0
  7  8  1  0
  8  9  1  0
  9 10  1  0
 10 11  1  0
 11 12  1  0
 12 13  2  0
 13 14  1  0
 14 15  2  0
 15 16  1  0
 16 17  2  0
  2 18  1  0
 18 19  2  0
 19 20  1  0
 20 21  2  0
 21 22  1  0
 22 23  2  0
 23 24  1  0
 23 25  1  0
 25 26  2  0
 26 27  1  0
 27 28  2  0
 11  7  1  0
 17 12  1  0
 28 18  1  0
 27 21  1  0
  3 29  1  0
  4 30  1  0
  4 31  1  0
  8 32  1  0
  8 33  1  0
  9 34  1  0
  9 35  1  0
 10 36  1  0
 10 37  1  0
 11 38  1  6
 13 39  1  0
 15 40  1  0
 16 41  1  0
 19 42  1  0
 20 43  1  0
 22 44  1  0
 25 45  1  0
 26 46  1  0
M  END
>  <smiles>  (81) 
O=C(NCC(=O)N1CCCC1c1cnccn1)c1ccc2cc(F)ccc2n1

>  <score_type>  (81) 
oracle

>  <origin>  (81) 
autodockgpu

>  <m_score__min__energy>  (81) 
-8.5299999999999994

>  <m_primary>  (81) 
energy

>  <rmsd>  (81) 
3.874360602712536

>  <m_score__min__rmsd>  (81) 
3.874360602712536

>  <meeko>  (81) 
{"free_energy": -7.16, "intermolecular_energy": -8.65, "internal_energy": -1.55, "cluster_size": 16, "cluster_id": 1, "rank_in_cluster": 16}

>  <energy>  (81) 
-7.99

>  <cluster_rmsd>  (81) 
1.26

>  <cluster>  (81) 
2

$$$$

     RDKit          3D

 46 49  0  0  0  0  0  0  0  0999 V2000
  138.8690   74.8190  222.2620 O   0  0  0  0  0  0  0  0  0  0  0  0
  140.0240   75.2570  221.9660 C   0  0  0  0  0  0  0  0  0  0  0  0
  140.2850   76.6640  222.0500 N   0  0  0  0  0  0  0  0  0  0  0  0
  139.1950   77.5080  222.4750 C   0  0  0  0  0  0  0  0  0  0  0  0
  139.6650   78.7900  223.0410 C   0  0  0  0  0  0  0  0  0  0  0  0
  139.0260   79.4540  223.8970 O   0  0  0  0  0  0  0  0  0  0  0  0
  140.9110   79.3000  222.5870 N   0  0  0  0  0  0  0  0  0  0  0  0
  142.2320   79.0650  223.1790 C   0  0  0  0  0  0  0  0  0  0  0  0
  142.7950   80.4650  223.2120 C   0  0  0  0  0  0  0  0  0  0  0  0
  142.1170   81.1750  222.0680 C   0  0  0  0  0  0  0  0  0  0  0  0
  141.1720   80.1620  221.4490 C   0  0  1  0  0  0  0  0  0  0  0  0
  141.7850   79.4820  220.3040 C   0  0  0  0  0  0  0  0  0  0  0  0
  142.1920   80.1480  219.1690 C   0  0  0  0  0  0  0  0  0  0  0  0
  142.7520   79.5020  218.1360 N   0  0  0  0  0  0  0  0  0  0  0  0
  142.9430   78.1790  218.1530 C   0  0  0  0  0  0  0  0  0  0  0  0
  142.5430   77.4840  219.2830 C   0  0  0  0  0  0  0  0  0  0  0  0
  141.9840   78.1370  220.3110 N   0  0  0  0  0  0  0  0  0  0  0  0
  141.1000   74.3600  221.5390 C   0  0  0  0  0  0  0  0  0  0  0  0
  140.8400   73.0020  221.4920 C   0  0  0  0  0  0  0  0  0  0  0  0
  141.8600   72.1650  221.0890 C   0  0  0  0  0  0  0  0  0  0  0  0
  143.1040   72.6790  220.7430 C   0  0  0  0  0  0  0  0  0  0  0  0
  144.1270   71.8340  220.3380 C   0  0  0  0  0  0  0  0  0  0  0  0
  145.3400   72.4050  220.0080 C   0  0  0  0  0  0  0  0  0  0  0  0
  146.3400   71.5970  219.6130 F   0  0  0  0  0  0  0  0  0  0  0  0
  145.5860   73.7550  220.0580 C   0  0  0  0  0  0  0  0  0  0  0  0
  144.5330   74.5680  220.4690 C   0  0  0  0  0  0  0  0  0  0  0  0
  143.3120   74.0230  220.8050 C   0  0  0  0  0  0  0  0  0  0  0  0
  142.3080   74.8520  221.2020 N   0  0  0  0  0  0  0  0  0  0  0  0
  141.2390   77.0620  221.8090 H   0  0  0  0  0  0  0  0  0  0  0  0
  138.5522   77.7189  221.6077 H   0  0  0  0  0  0  0  0  0  0  0  0
  138.6442   76.9742  223.2635 H   0  0  0  0  0  0  0  0  0  0  0  0
  142.1502   78.6400  224.1903 H   0  0  0  0  0  0  0  0  0  0  0  0
  142.8514   78.3435  222.6261 H   0  0  0  0  0  0  0  0  0  0  0  0
  142.5594   80.9558  224.1678 H   0  0  0  0  0  0  0  0  0  0  0  0
  143.8910   80.4760  223.1188 H   0  0  0  0  0  0  0  0  0  0  0  0
  141.5555   82.0458  222.4374 H   0  0  0  0  0  0  0  0  0  0  0  0
  142.8475   81.5459  221.3340 H   0  0  0  0  0  0  0  0  0  0  0  0
  140.2532   80.5784  221.0104 H   0  0  0  0  0  0  0  0  0  0  0  0
  142.0541   81.2376  219.1085 H   0  0  0  0  0  0  0  0  0  0  0  0
  143.4021   77.6597  217.2989 H   0  0  0  0  0  0  0  0  0  0  0  0
  142.6846   76.3945  219.3363 H   0  0  0  0  0  0  0  0  0  0  0  0
  139.8526   72.6028  221.7669 H   0  0  0  0  0  0  0  0  0  0  0  0
  141.6869   71.0798  221.0411 H   0  0  0  0  0  0  0  0  0  0  0  0
  143.9768   70.7458  220.2817 H   0  0  0  0  0  0  0  0  0  0  0  0
  146.5665   74.1735  219.7868 H   0  0  0  0  0  0  0  0  0  0  0  0
  144.6769   75.6570  220.5262 H   0  0  0  0  0  0  0  0  0  0  0  0
  1  2  2  0
  2  3  1  0
  3  4  1  0
  4  5  1  0
  5  6  2  0
  5  7  1  0
  7  8  1  0
  8  9  1  0
  9 10  1  0
 10 11  1  0
 11 12  1  0
 12 13  2  0
 13 14  1  0
 14 15  2  0
 15 16  1  0
 16 17  2  0
  2 18  1  0
 18 19  2  0
 19 20  1  0
 20 21  2  0
 21 22  1  0
 22 23  2  0
 23 24  1  0
 23 25  1  0
 25 26  2  0
 26 27  1  0
 27 28  2  0
 11  7  1  0
 17 12  1  0
 28 18  1  0
 27 21  1  0
  3 29  1  0
  4 30  1  0
  4 31  1  0
  8 32  1  0
  8 33  1  0
  9 34  1  0
  9 35  1  0
 10 36  1  0
 10 37  1  0
 11 38  1  6
 13 39  1  0
 15 40  1  0
 16 41  1  0
 19 42  1  0
 20 43  1  0
 22 44  1  0
 25 45  1  0
 26 46  1  0
M  END
>  <smiles>  (82) 
O=C(NCC(=O)N1CCCC1c1cnccn1)c1ccc2cc(F)ccc2n1

>  <score_type>  (82) 
oracle

>  <origin>  (82) 
autodockgpu

>  <m_score__min__energy>  (82) 
-8.5299999999999994

>  <m_primary>  (82) 
energy

>  <rmsd>  (82) 
6.354494003878849

>  <m_score__min__rmsd>  (82) 
6.354494003878849

>  <meeko>  (82) 
{"free_energy": -6.63, "intermolecular_energy": -8.12, "internal_energy": -2.65, "cluster_size": 7, "cluster_id": 5, "rank_in_cluster": 5}

>  <energy>  (82) 
-7.95

>  <cluster_rmsd>  (82) 
1.3

>  <cluster>  (82) 
2

$$$$

     RDKit          3D

 46 49  0  0  0  0  0  0  0  0999 V2000
  141.3440   72.3650  221.7140 O   0  0  0  0  0  0  0  0  0  0  0  0
  140.3710   72.4750  222.5230 C   0  0  0  0  0  0  0  0  0  0  0  0
  139.4040   73.5140  222.3220 N   0  0  0  0  0  0  0  0  0  0  0  0
  139.6050   74.3840  221.1890 C   0  0  0  0  0  0  0  0  0  0  0  0
  140.4720   75.5370  221.5140 C   0  0  0  0  0  0  0  0  0  0  0  0
  141.7280   75.4790  221.5600 O   0  0  0  0  0  0  0  0  0  0  0  0
  139.8470   76.7820  221.7930 N   0  0  0  0  0  0  0  0  0  0  0  0
  138.7520   77.0320  222.7360 C   0  0  0  0  0  0  0  0  0  0  0  0
  137.8270   77.8810  221.8970 C   0  0  0  0  0  0  0  0  0  0  0  0
  138.7370   78.5840  220.9220 C   0  0  0  0  0  0  0  0  0  0  0  0
  140.1380   78.0850  221.2220 C   0  0  1  0  0  0  0  0  0  0  0  0
  140.8530   78.9930  222.1230 C   0  0  0  0  0  0  0  0  0  0  0  0
  142.2270   79.0290  222.2120 C   0  0  0  0  0  0  0  0  0  0  0  0
  142.8570   79.8710  223.0440 N   0  0  0  0  0  0  0  0  0  0  0  0
  142.1850   80.7190  223.8290 C   0  0  0  0  0  0  0  0  0  0  0  0
  140.8010   80.7040  223.7590 C   0  0  0  0  0  0  0  0  0  0  0  0
  140.1790   79.8600  222.9260 N   0  0  0  0  0  0  0  0  0  0  0  0
  140.2090   71.5660  223.6600 C   0  0  0  0  0  0  0  0  0  0  0  0
  139.5450   70.3710  223.4510 C   0  0  0  0  0  0  0  0  0  0  0  0
  139.3960   69.5210  224.5280 C   0  0  0  0  0  0  0  0  0  0  0  0
  139.9020   69.8630  225.7770 C   0  0  0  0  0  0  0  0  0  0  0  0
  139.7510   69.0060  226.8580 C   0  0  0  0  0  0  0  0  0  0  0  0
  140.2740   69.4040  228.0720 C   0  0  0  0  0  0  0  0  0  0  0  0
  140.1350   68.5830  229.1270 F   0  0  0  0  0  0  0  0  0  0  0  0
  140.9320   70.5930  228.2650 C   0  0  0  0  0  0  0  0  0  0  0  0
  141.0630   71.4250  227.1560 C   0  0  0  0  0  0  0  0  0  0  0  0
  140.5490   71.0520  225.9320 C   0  0  0  0  0  0  0  0  0  0  0  0
  140.6970   71.8930  224.8720 N   0  0  0  0  0  0  0  0  0  0  0  0
  138.5800   73.6340  222.9800 H   0  0  0  0  0  0  0  0  0  0  0  0
  140.0733   73.8066  220.3783 H   0  0  0  0  0  0  0  0  0  0  0  0
  138.6226   74.7761  220.8871 H   0  0  0  0  0  0  0  0  0  0  0  0
  138.2670   76.0951  223.0474 H   0  0  0  0  0  0  0  0  0  0  0  0
  139.0676   77.5051  223.6776 H   0  0  0  0  0  0  0  0  0  0  0  0
  137.0986   77.2519  221.3643 H   0  0  0  0  0  0  0  0  0  0  0  0
  137.2417   78.5866  222.5049 H   0  0  0  0  0  0  0  0  0  0  0  0
  138.4556   78.3341  219.8884 H   0  0  0  0  0  0  0  0  0  0  0  0
  138.6686   79.6771  221.0238 H   0  0  0  0  0  0  0  0  0  0  0  0
  140.8163   78.0304  220.3577 H   0  0  0  0  0  0  0  0  0  0  0  0
  142.8227   78.3497  221.5846 H   0  0  0  0  0  0  0  0  0  0  0  0
  142.7127   81.4054  224.5075 H   0  0  0  0  0  0  0  0  0  0  0  0
  140.2122   81.3869  224.3891 H   0  0  0  0  0  0  0  0  0  0  0  0
  139.1488   70.1068  222.4594 H   0  0  0  0  0  0  0  0  0  0  0  0
  138.8715   68.5630  224.3969 H   0  0  0  0  0  0  0  0  0  0  0  0
  139.2321   68.0420  226.7511 H   0  0  0  0  0  0  0  0  0  0  0  0
  141.3364   70.8751  229.2483 H   0  0  0  0  0  0  0  0  0  0  0  0
  141.5818   72.3896  227.2574 H   0  0  0  0  0  0  0  0  0  0  0  0
  1  2  2  0
  2  3  1  0
  3  4  1  0
  4  5  1  0
  5  6  2  0
  5  7  1  0
  7  8  1  0
  8  9  1  0
  9 10  1  0
 10 11  1  0
 11 12  1  0
 12 13  2  0
 13 14  1  0
 14 15  2  0
 15 16  1  0
 16 17  2  0
  2 18  1  0
 18 19  2  0
 19 20  1  0
 20 21  2  0
 21 22  1  0
 22 23  2  0
 23 24  1  0
 23 25  1  0
 25 26  2  0
 26 27  1  0
 27 28  2  0
 11  7  1  0
 17 12  1  0
 28 18  1  0
 27 21  1  0
  3 29  1  0
  4 30  1  0
  4 31  1  0
  8 32  1  0
  8 33  1  0
  9 34  1  0
  9 35  1  0
 10 36  1  0
 10 37  1  0
 11 38  1  6
 13 39  1  0
 15 40  1  0
 16 41  1  0
 19 42  1  0
 20 43  1  0
 22 44  1  0
 25 45  1  0
 26 46  1  0
M  END
>  <smiles>  (83) 
O=C(NCC(=O)N1CCCC1c1cnccn1)c1ccc2cc(F)ccc2n1

>  <score_type>  (83) 
oracle

>  <origin>  (83) 
autodockgpu

>  <m_score__min__energy>  (83) 
-8.5299999999999994

>  <m_primary>  (83) 
energy

>  <rmsd>  (83) 
2.4921726320490256

>  <m_score__min__rmsd>  (83) 
2.4921726320490256

>  <meeko>  (83) 
{"free_energy": -8.0, "intermolecular_energy": -9.49, "internal_energy": -1.15, "cluster_size": 20, "cluster_id": 2, "rank_in_cluster": 13}

>  <energy>  (83) 
-7.89

>  <cluster_rmsd>  (83) 
0.74

>  <cluster>  (83) 
2

$$$$

     RDKit          3D

 46 49  0  0  0  0  0  0  0  0999 V2000
  141.2510   72.0410  221.3640 O   0  0  0  0  0  0  0  0  0  0  0  0
  140.4490   72.3490  222.2990 C   0  0  0  0  0  0  0  0  0  0  0  0
  139.7020   73.5700  222.2110 N   0  0  0  0  0  0  0  0  0  0  0  0
  139.9160   74.3840  221.0400 C   0  0  0  0  0  0  0  0  0  0  0  0
  141.0190   75.3510  221.2240 C   0  0  0  0  0  0  0  0  0  0  0  0
  141.1510   76.0800  222.2410 O   0  0  0  0  0  0  0  0  0  0  0  0
  141.9860   75.4630  220.1880 N   0  0  0  0  0  0  0  0  0  0  0  0
  142.7390   76.6620  219.8060 C   0  0  0  0  0  0  0  0  0  0  0  0
  142.5820   76.6440  218.3050 C   0  0  0  0  0  0  0  0  0  0  0  0
  142.4160   75.1860  217.9570 C   0  0  0  0  0  0  0  0  0  0  0  0
  142.4530   74.4350  219.2760 C   0  0  1  0  0  0  0  0  0  0  0  0
  143.7960   73.9300  219.5710 C   0  0  0  0  0  0  0  0  0  0  0  0
  144.6570   73.4790  218.5950 C   0  0  0  0  0  0  0  0  0  0  0  0
  145.8820   73.0220  218.8920 N   0  0  0  0  0  0  0  0  0  0  0  0
  146.3320   72.9800  220.1510 C   0  0  0  0  0  0  0  0  0  0  0  0
  145.4860   73.4280  221.1530 C   0  0  0  0  0  0  0  0  0  0  0  0
  144.2630   73.8830  220.8480 N   0  0  0  0  0  0  0  0  0  0  0  0
  140.2650   71.4880  223.4700 C   0  0  0  0  0  0  0  0  0  0  0  0
  139.6380   70.2680  223.2910 C   0  0  0  0  0  0  0  0  0  0  0  0
  139.4680   69.4640  224.4000 C   0  0  0  0  0  0  0  0  0  0  0  0
  139.9160   69.8750  225.6500 C   0  0  0  0  0  0  0  0  0  0  0  0
  139.7430   69.0640  226.7620 C   0  0  0  0  0  0  0  0  0  0  0  0
  140.2090   69.5290  227.9750 C   0  0  0  0  0  0  0  0  0  0  0  0
  140.0490   68.7520  229.0610 F   0  0  0  0  0  0  0  0  0  0  0  0
  140.8300   70.7430  228.1390 C   0  0  0  0  0  0  0  0  0  0  0  0
  140.9840   71.5260  226.9990 C   0  0  0  0  0  0  0  0  0  0  0  0
  140.5270   71.0850  225.7750 C   0  0  0  0  0  0  0  0  0  0  0  0
  140.6960   71.8820  224.6830 N   0  0  0  0  0  0  0  0  0  0  0  0
  139.0240   73.8560  222.9750 H   0  0  0  0  0  0  0  0  0  0  0  0
  140.1591   73.7270  220.1919 H   0  0  0  0  0  0  0  0  0  0  0  0
  138.9946   74.9553  220.8538 H   0  0  0  0  0  0  0  0  0  0  0  0
  142.3007   77.5700  220.2459 H   0  0  0  0  0  0  0  0  0  0  0  0
  143.7839   76.6662  220.1496 H   0  0  0  0  0  0  0  0  0  0  0  0
  141.6953   77.2193  218.0004 H   0  0  0  0  0  0  0  0  0  0  0  0
  143.4404   77.1004  217.7904 H   0  0  0  0  0  0  0  0  0  0  0  0
  141.4539   75.0211  217.4500 H   0  0  0  0  0  0  0  0  0  0  0  0
  143.2071   74.8417  217.2746 H   0  0  0  0  0  0  0  0  0  0  0  0
  141.8443   73.5197  219.3176 H   0  0  0  0  0  0  0  0  0  0  0  0
  144.3311   73.4941  217.5445 H   0  0  0  0  0  0  0  0  0  0  0  0
  147.3389   72.6028  220.3830 H   0  0  0  0  0  0  0  0  0  0  0  0
  145.8191   73.4101  222.2012 H   0  0  0  0  0  0  0  0  0  0  0  0
  139.2868   69.9494  222.2985 H   0  0  0  0  0  0  0  0  0  0  0  0
  138.9727   68.4876  224.2935 H   0  0  0  0  0  0  0  0  0  0  0  0
  139.2511   68.0836  226.6798 H   0  0  0  0  0  0  0  0  0  0  0  0
  141.1880   71.0798  229.1231 H   0  0  0  0  0  0  0  0  0  0  0  0
  141.4755   72.5071  227.0750 H   0  0  0  0  0  0  0  0  0  0  0  0
  1  2  2  0
  2  3  1  0
  3  4  1  0
  4  5  1  0
  5  6  2  0
  5  7  1  0
  7  8  1  0
  8  9  1  0
  9 10  1  0
 10 11  1  0
 11 12  1  0
 12 13  2  0
 13 14  1  0
 14 15  2  0
 15 16  1  0
 16 17  2  0
  2 18  1  0
 18 19  2  0
 19 20  1  0
 20 21  2  0
 21 22  1  0
 22 23  2  0
 23 24  1  0
 23 25  1  0
 25 26  2  0
 26 27  1  0
 27 28  2  0
 11  7  1  0
 17 12  1  0
 28 18  1  0
 27 21  1  0
  3 29  1  0
  4 30  1  0
  4 31  1  0
  8 32  1  0
  8 33  1  0
  9 34  1  0
  9 35  1  0
 10 36  1  0
 10 37  1  0
 11 38  1  6
 13 39  1  0
 15 40  1  0
 16 41  1  0
 19 42  1  0
 20 43  1  0
 22 44  1  0
 25 45  1  0
 26 46  1  0
M  END
>  <smiles>  (84) 
O=C(NCC(=O)N1CCCC1c1cnccn1)c1ccc2cc(F)ccc2n1

>  <score_type>  (84) 
oracle

>  <origin>  (84) 
autodockgpu

>  <m_score__min__energy>  (84) 
-8.5299999999999994

>  <m_primary>  (84) 
energy

>  <rmsd>  (84) 
3.5047436427223175

>  <m_score__min__rmsd>  (84) 
3.5047436427223175

>  <meeko>  (84) 
{"free_energy": -8.47, "intermolecular_energy": -9.96, "internal_energy": -1.49, "cluster_size": 16, "cluster_id": 1, "rank_in_cluster": 6}

>  <energy>  (84) 
-7.87

>  <cluster_rmsd>  (84) 
1.24

>  <cluster>  (84) 
2

$$$$

     RDKit          3D

 46 49  0  0  0  0  0  0  0  0999 V2000
  138.7820   74.8420  222.0890 O   0  0  0  0  0  0  0  0  0  0  0  0
  139.9800   75.2500  221.9820 C   0  0  0  0  0  0  0  0  0  0  0  0
  140.2860   76.6190  222.2800 N   0  0  0  0  0  0  0  0  0  0  0  0
  139.1880   77.4600  222.6890 C   0  0  0  0  0  0  0  0  0  0  0  0
  139.6270   78.8280  223.0350 C   0  0  0  0  0  0  0  0  0  0  0  0
  138.9400   79.6360  223.7120 O   0  0  0  0  0  0  0  0  0  0  0  0
  140.9020   79.2540  222.5740 N   0  0  0  0  0  0  0  0  0  0  0  0
  142.2030   78.9910  223.1970 C   0  0  0  0  0  0  0  0  0  0  0  0
  142.8310   80.3630  223.1620 C   0  0  0  0  0  0  0  0  0  0  0  0
  142.2010   81.0390  221.9700 C   0  0  0  0  0  0  0  0  0  0  0  0
  141.2180   80.0380  221.3930 C   0  0  1  0  0  0  0  0  0  0  0  0
  141.8120   79.2680  220.2970 C   0  0  0  0  0  0  0  0  0  0  0  0
  142.2010   79.8400  219.1060 C   0  0  0  0  0  0  0  0  0  0  0  0
  142.7430   79.1120  218.1190 N   0  0  0  0  0  0  0  0  0  0  0  0
  142.9360   77.7940  218.2400 C   0  0  0  0  0  0  0  0  0  0  0  0
  142.5540   77.1940  219.4290 C   0  0  0  0  0  0  0  0  0  0  0  0
  142.0120   77.9270  220.4100 N   0  0  0  0  0  0  0  0  0  0  0  0
  141.0620   74.3580  221.5620 C   0  0  0  0  0  0  0  0  0  0  0  0
  140.8110   72.9980  221.5240 C   0  0  0  0  0  0  0  0  0  0  0  0
  141.8360   72.1640  221.1270 C   0  0  0  0  0  0  0  0  0  0  0  0
  143.0770   72.6830  220.7790 C   0  0  0  0  0  0  0  0  0  0  0  0
  144.1070   71.8420  220.3800 C   0  0  0  0  0  0  0  0  0  0  0  0
  145.3160   72.4190  220.0480 C   0  0  0  0  0  0  0  0  0  0  0  0
  146.3210   71.6150  219.6590 F   0  0  0  0  0  0  0  0  0  0  0  0
  145.5530   73.7700  220.0900 C   0  0  0  0  0  0  0  0  0  0  0  0
  144.4950   74.5800  220.4950 C   0  0  0  0  0  0  0  0  0  0  0  0
  143.2770   74.0290  220.8320 C   0  0  0  0  0  0  0  0  0  0  0  0
  142.2670   74.8550  221.2240 N   0  0  0  0  0  0  0  0  0  0  0  0
  141.2760   76.9910  222.2000 H   0  0  0  0  0  0  0  0  0  0  0  0
  138.4621   77.5195  221.8647 H   0  0  0  0  0  0  0  0  0  0  0  0
  138.7394   77.0133  223.5885 H   0  0  0  0  0  0  0  0  0  0  0  0
  142.0891   78.6266  224.2286 H   0  0  0  0  0  0  0  0  0  0  0  0
  142.7943   78.2122  222.6932 H   0  0  0  0  0  0  0  0  0  0  0  0
  142.6068   80.9165  224.0858 H   0  0  0  0  0  0  0  0  0  0  0  0
  143.9274   80.3183  223.0852 H   0  0  0  0  0  0  0  0  0  0  0  0
  141.6760   81.9537  222.2826 H   0  0  0  0  0  0  0  0  0  0  0  0
  142.9574   81.3346  221.2280 H   0  0  0  0  0  0  0  0  0  0  0  0
  140.3256   80.4709  220.9173 H   0  0  0  0  0  0  0  0  0  0  0  0
  142.0635   80.9217  218.9608 H   0  0  0  0  0  0  0  0  0  0  0  0
  143.3825   77.2069  217.4240 H   0  0  0  0  0  0  0  0  0  0  0  0
  142.6964   76.1121  219.5676 H   0  0  0  0  0  0  0  0  0  0  0  0
  139.8260   72.5945  221.8014 H   0  0  0  0  0  0  0  0  0  0  0  0
  141.6690   71.0775  221.0856 H   0  0  0  0  0  0  0  0  0  0  0  0
  143.9643   70.7524  220.3301 H   0  0  0  0  0  0  0  0  0  0  0  0
  146.5312   74.1926  219.8170 H   0  0  0  0  0  0  0  0  0  0  0  0
  144.6325   75.6702  220.5465 H   0  0  0  0  0  0  0  0  0  0  0  0
  1  2  2  0
  2  3  1  0
  3  4  1  0
  4  5  1  0
  5  6  2  0
  5  7  1  0
  7  8  1  0
  8  9  1  0
  9 10  1  0
 10 11  1  0
 11 12  1  0
 12 13  2  0
 13 14  1  0
 14 15  2  0
 15 16  1  0
 16 17  2  0
  2 18  1  0
 18 19  2  0
 19 20  1  0
 20 21  2  0
 21 22  1  0
 22 23  2  0
 23 24  1  0
 23 25  1  0
 25 26  2  0
 26 27  1  0
 27 28  2  0
 11  7  1  0
 17 12  1  0
 28 18  1  0
 27 21  1  0
  3 29  1  0
  4 30  1  0
  4 31  1  0
  8 32  1  0
  8 33  1  0
  9 34  1  0
  9 35  1  0
 10 36  1  0
 10 37  1  0
 11 38  1  6
 13 39  1  0
 15 40  1  0
 16 41  1  0
 19 42  1  0
 20 43  1  0
 22 44  1  0
 25 45  1  0
 26 46  1  0
M  END
>  <smiles>  (85) 
O=C(NCC(=O)N1CCCC1c1cnccn1)c1ccc2cc(F)ccc2n1

>  <score_type>  (85) 
oracle

>  <origin>  (85) 
autodockgpu

>  <m_score__min__energy>  (85) 
-8.5299999999999994

>  <m_primary>  (85) 
energy

>  <rmsd>  (85) 
6.3208944584464595

>  <m_score__min__rmsd>  (85) 
6.3208944584464595

>  <meeko>  (85) 
{"free_energy": -6.63, "intermolecular_energy": -8.12, "internal_energy": -2.64, "cluster_size": 7, "cluster_id": 5, "rank_in_cluster": 4}

>  <energy>  (85) 
-7.83

>  <cluster_rmsd>  (85) 
0.87

>  <cluster>  (85) 
2

$$$$

     RDKit          3D

 46 49  0  0  0  0  0  0  0  0999 V2000
  140.9960   73.4910  220.6250 O   0  0  0  0  0  0  0  0  0  0  0  0
  140.4430   74.3570  221.3710 C   0  0  0  0  0  0  0  0  0  0  0  0
  139.3400   73.9680  222.2020 N   0  0  0  0  0  0  0  0  0  0  0  0
  138.9240   72.5880  222.1320 C   0  0  0  0  0  0  0  0  0  0  0  0
  139.7460   71.7100  222.9920 C   0  0  0  0  0  0  0  0  0  0  0  0
  140.9040   72.0020  223.3890 O   0  0  0  0  0  0  0  0  0  0  0  0
  139.1950   70.4630  223.3890 N   0  0  0  0  0  0  0  0  0  0  0  0
  139.1860   69.2140  222.6210 C   0  0  0  0  0  0  0  0  0  0  0  0
  137.7500   68.7770  222.7840 C   0  0  0  0  0  0  0  0  0  0  0  0
  137.3230   69.3590  224.1080 C   0  0  0  0  0  0  0  0  0  0  0  0
  138.5210   70.1300  224.6310 C   0  0  1  0  0  0  0  0  0  0  0  0
  139.3210   69.3210  225.5550 C   0  0  0  0  0  0  0  0  0  0  0  0
  140.2510   69.8660  226.4130 C   0  0  0  0  0  0  0  0  0  0  0  0
  140.9700   69.1030  227.2500 N   0  0  0  0  0  0  0  0  0  0  0  0
  140.8210   67.7760  227.2960 C   0  0  0  0  0  0  0  0  0  0  0  0
  139.8920   67.2010  226.4430 C   0  0  0  0  0  0  0  0  0  0  0  0
  139.1780   67.9690  225.6100 N   0  0  0  0  0  0  0  0  0  0  0  0
  140.9000   75.7480  221.4080 C   0  0  0  0  0  0  0  0  0  0  0  0
  141.7440   76.1840  220.4020 C   0  0  0  0  0  0  0  0  0  0  0  0
  142.1700   77.4960  220.4440 C   0  0  0  0  0  0  0  0  0  0  0  0
  141.7600   78.3420  221.4670 C   0  0  0  0  0  0  0  0  0  0  0  0
  142.1920   79.6610  221.5070 C   0  0  0  0  0  0  0  0  0  0  0  0
  141.7500   80.4510  222.5490 C   0  0  0  0  0  0  0  0  0  0  0  0
  142.1600   81.7300  222.5990 F   0  0  0  0  0  0  0  0  0  0  0  0
  140.9120   80.0050  223.5410 C   0  0  0  0  0  0  0  0  0  0  0  0
  140.5030   78.6770  223.4660 C   0  0  0  0  0  0  0  0  0  0  0  0
  140.9290   77.8660  222.4350 C   0  0  0  0  0  0  0  0  0  0  0  0
  140.5070   76.5720  222.3970 N   0  0  0  0  0  0  0  0  0  0  0  0
  138.8560   74.6670  222.8370 H   0  0  0  0  0  0  0  0  0  0  0  0
  137.8748   72.5179  222.4551 H   0  0  0  0  0  0  0  0  0  0  0  0
  139.0473   72.2516  221.0920 H   0  0  0  0  0  0  0  0  0  0  0  0
  139.4361   69.3892  221.5643 H   0  0  0  0  0  0  0  0  0  0  0  0
  139.9240   68.4717  222.9593 H   0  0  0  0  0  0  0  0  0  0  0  0
  137.1285   69.1729  221.9673 H   0  0  0  0  0  0  0  0  0  0  0  0
  137.6412   67.6828  222.7549 H   0  0  0  0  0  0  0  0  0  0  0  0
  136.4648   70.0332  223.9703 H   0  0  0  0  0  0  0  0  0  0  0  0
  137.0105   68.5735  224.8118 H   0  0  0  0  0  0  0  0  0  0  0  0
  138.2856   71.0161  225.2387 H   0  0  0  0  0  0  0  0  0  0  0  0
  140.4080   70.9547  226.4117 H   0  0  0  0  0  0  0  0  0  0  0  0
  141.4154   67.1607  227.9874 H   0  0  0  0  0  0  0  0  0  0  0  0
  139.7409   66.1114  226.4503 H   0  0  0  0  0  0  0  0  0  0  0  0
  142.0646   75.5077  219.5959 H   0  0  0  0  0  0  0  0  0  0  0  0
  142.8410   77.8758  219.6595 H   0  0  0  0  0  0  0  0  0  0  0  0
  142.8639   80.0628  220.7343 H   0  0  0  0  0  0  0  0  0  0  0  0
  140.5800   80.6655  224.3556 H   0  0  0  0  0  0  0  0  0  0  0  0
  139.8328   78.2697  224.2373 H   0  0  0  0  0  0  0  0  0  0  0  0
  1  2  2  0
  2  3  1  0
  3  4  1  0
  4  5  1  0
  5  6  2  0
  5  7  1  0
  7  8  1  0
  8  9  1  0
  9 10  1  0
 10 11  1  0
 11 12  1  0
 12 13  2  0
 13 14  1  0
 14 15  2  0
 15 16  1  0
 16 17  2  0
  2 18  1  0
 18 19  2  0
 19 20  1  0
 20 21  2  0
 21 22  1  0
 22 23  2  0
 23 24  1  0
 23 25  1  0
 25 26  2  0
 26 27  1  0
 27 28  2  0
 11  7  1  0
 17 12  1  0
 28 18  1  0
 27 21  1  0
  3 29  1  0
  4 30  1  0
  4 31  1  0
  8 32  1  0
  8 33  1  0
  9 34  1  0
  9 35  1  0
 10 36  1  0
 10 37  1  0
 11 38  1  1
 13 39  1  0
 15 40  1  0
 16 41  1  0
 19 42  1  0
 20 43  1  0
 22 44  1  0
 25 45  1  0
 26 46  1  0
M  END
>  <smiles>  (86) 
O=C(NCC(=O)N1CCCC1c1cnccn1)c1ccc2cc(F)ccc2n1

>  <score_type>  (86) 
oracle

>  <origin>  (86) 
autodockgpu

>  <m_score__min__energy>  (86) 
-8.5299999999999994

>  <m_primary>  (86) 
energy

>  <rmsd>  (86) 
9.15874580625069

>  <m_score__min__rmsd>  (86) 
9.15874580625069

>  <meeko>  (86) 
{"free_energy": -7.7, "intermolecular_energy": -9.19, "internal_energy": -1.38, "cluster_size": 4, "cluster_id": 3, "rank_in_cluster": 1}

>  <energy>  (86) 
-7.81

>  <cluster_rmsd>  (86) 
1.0

>  <cluster>  (86) 
2

$$$$

     RDKit          3D

 46 49  0  0  0  0  0  0  0  0999 V2000
  141.3580   72.5270  221.5990 O   0  0  0  0  0  0  0  0  0  0  0  0
  140.4170   72.6210  222.4470 C   0  0  0  0  0  0  0  0  0  0  0  0
  139.4940   73.7150  222.3540 N   0  0  0  0  0  0  0  0  0  0  0  0
  139.7010   74.6560  221.2810 C   0  0  0  0  0  0  0  0  0  0  0  0
  139.3340   76.0350  221.6660 C   0  0  0  0  0  0  0  0  0  0  0  0
  138.4220   76.3160  222.4850 O   0  0  0  0  0  0  0  0  0  0  0  0
  140.0550   77.1060  221.0720 N   0  0  0  0  0  0  0  0  0  0  0  0
  139.5250   78.1420  220.1780 C   0  0  0  0  0  0  0  0  0  0  0  0
  140.5620   78.1440  219.0810 C   0  0  0  0  0  0  0  0  0  0  0  0
  141.8330   77.6970  219.7580 C   0  0  0  0  0  0  0  0  0  0  0  0
  141.4640   77.4290  221.2050 C   0  0  1  0  0  0  0  0  0  0  0  0
  141.7410   78.5880  222.0570 C   0  0  0  0  0  0  0  0  0  0  0  0
  142.1500   79.8040  221.5550 C   0  0  0  0  0  0  0  0  0  0  0  0
  142.3960   80.8510  222.3570 N   0  0  0  0  0  0  0  0  0  0  0  0
  142.2570   80.7690  223.6840 C   0  0  0  0  0  0  0  0  0  0  0  0
  141.8460   79.5560  224.2150 C   0  0  0  0  0  0  0  0  0  0  0  0
  141.6030   78.5160  223.4080 N   0  0  0  0  0  0  0  0  0  0  0  0
  140.2470   71.6400  223.5200 C   0  0  0  0  0  0  0  0  0  0  0  0
  139.6040   70.4510  223.2230 C   0  0  0  0  0  0  0  0  0  0  0  0
  139.4480   69.5330  224.2410 C   0  0  0  0  0  0  0  0  0  0  0  0
  139.9250   69.8010  225.5180 C   0  0  0  0  0  0  0  0  0  0  0  0
  139.7660   68.8750  226.5390 C   0  0  0  0  0  0  0  0  0  0  0  0
  140.2610   69.2010  227.7860 C   0  0  0  0  0  0  0  0  0  0  0  0
  140.1140   68.3120  228.7830 F   0  0  0  0  0  0  0  0  0  0  0  0
  140.8980   70.3840  228.0680 C   0  0  0  0  0  0  0  0  0  0  0  0
  141.0370   71.2860  227.0170 C   0  0  0  0  0  0  0  0  0  0  0  0
  140.5510   70.9850  225.7620 C   0  0  0  0  0  0  0  0  0  0  0  0
  140.7070   71.8950  224.7600 N   0  0  0  0  0  0  0  0  0  0  0  0
  138.6970   73.8230  223.0470 H   0  0  0  0  0  0  0  0  0  0  0  0
  140.7632   74.6392  220.9957 H   0  0  0  0  0  0  0  0  0  0  0  0
  139.0551   74.3575  220.4422 H   0  0  0  0  0  0  0  0  0  0  0  0
  138.5311   77.8712  219.7922 H   0  0  0  0  0  0  0  0  0  0  0  0
  139.3763   79.1198  220.6594 H   0  0  0  0  0  0  0  0  0  0  0  0
  140.2816   77.4438  218.2803 H   0  0  0  0  0  0  0  0  0  0  0  0
  140.6666   79.1315  218.6077 H   0  0  0  0  0  0  0  0  0  0  0  0
  142.2160   76.7806  219.2852 H   0  0  0  0  0  0  0  0  0  0  0  0
  142.6218   78.4594  219.6779 H   0  0  0  0  0  0  0  0  0  0  0  0
  142.0391   76.6328  221.7004 H   0  0  0  0  0  0  0  0  0  0  0  0
  142.2782   79.9195  220.4686 H   0  0  0  0  0  0  0  0  0  0  0  0
  142.4616   81.6339  224.3322 H   0  0  0  0  0  0  0  0  0  0  0  0
  141.7192   79.4479  225.3023 H   0  0  0  0  0  0  0  0  0  0  0  0
  139.2299   70.2448  222.2093 H   0  0  0  0  0  0  0  0  0  0  0  0
  138.9403   68.5782  224.0393 H   0  0  0  0  0  0  0  0  0  0  0  0
  139.2625   67.9134  226.3609 H   0  0  0  0  0  0  0  0  0  0  0  0
  141.2798   70.6080  229.0750 H   0  0  0  0  0  0  0  0  0  0  0  0
  141.5398   72.2491  227.1893 H   0  0  0  0  0  0  0  0  0  0  0  0
  1  2  2  0
  2  3  1  0
  3  4  1  0
  4  5  1  0
  5  6  2  0
  5  7  1  0
  7  8  1  0
  8  9  1  0
  9 10  1  0
 10 11  1  0
 11 12  1  0
 12 13  2  0
 13 14  1  0
 14 15  2  0
 15 16  1  0
 16 17  2  0
  2 18  1  0
 18 19  2  0
 19 20  1  0
 20 21  2  0
 21 22  1  0
 22 23  2  0
 23 24  1  0
 23 25  1  0
 25 26  2  0
 26 27  1  0
 27 28  2  0
 11  7  1  0
 17 12  1  0
 28 18  1  0
 27 21  1  0
  3 29  1  0
  4 30  1  0
  4 31  1  0
  8 32  1  0
  8 33  1  0
  9 34  1  0
  9 35  1  0
 10 36  1  0
 10 37  1  0
 11 38  1  1
 13 39  1  0
 15 40  1  0
 16 41  1  0
 19 42  1  0
 20 43  1  0
 22 44  1  0
 25 45  1  0
 26 46  1  0
M  END
>  <smiles>  (87) 
O=C(NCC(=O)N1CCCC1c1cnccn1)c1ccc2cc(F)ccc2n1

>  <score_type>  (87) 
oracle

>  <origin>  (87) 
autodockgpu

>  <m_score__min__energy>  (87) 
-8.5299999999999994

>  <m_primary>  (87) 
energy

>  <rmsd>  (87) 
1.9696319923994878

>  <m_score__min__rmsd>  (87) 
1.9696319923994878

>  <meeko>  (87) 
{"free_energy": -8.02, "intermolecular_energy": -9.51, "internal_energy": -1.3, "cluster_size": 20, "cluster_id": 2, "rank_in_cluster": 9}

>  <energy>  (87) 
-7.7

>  <cluster_rmsd>  (87) 
0.0

>  <cluster>  (87) 
3

$$$$

     RDKit          3D

 46 49  0  0  0  0  0  0  0  0999 V2000
  141.4470   72.1520  221.5840 O   0  0  0  0  0  0  0  0  0  0  0  0
  140.4860   72.3730  222.3860 C   0  0  0  0  0  0  0  0  0  0  0  0
  139.6080   73.4800  222.1410 N   0  0  0  0  0  0  0  0  0  0  0  0
  139.8800   74.2860  220.9770 C   0  0  0  0  0  0  0  0  0  0  0  0
  140.9150   75.3100  221.2330 C   0  0  0  0  0  0  0  0  0  0  0  0
  140.9600   76.0170  222.2720 O   0  0  0  0  0  0  0  0  0  0  0  0
  141.9160   75.5070  220.2430 N   0  0  0  0  0  0  0  0  0  0  0  0
  142.6560   76.7420  219.9660 C   0  0  0  0  0  0  0  0  0  0  0  0
  142.5550   76.8150  218.4610 C   0  0  0  0  0  0  0  0  0  0  0  0
  142.4340   75.3790  218.0180 C   0  0  0  0  0  0  0  0  0  0  0  0
  142.4390   74.5480  219.2870 C   0  0  1  0  0  0  0  0  0  0  0  0
  143.7820   74.0510  219.6010 C   0  0  0  0  0  0  0  0  0  0  0  0
  144.6070   73.4780  218.6590 C   0  0  0  0  0  0  0  0  0  0  0  0
  145.8320   73.0320  218.9730 N   0  0  0  0  0  0  0  0  0  0  0  0
  146.3170   73.1220  220.2160 C   0  0  0  0  0  0  0  0  0  0  0  0
  145.5070   73.6960  221.1830 C   0  0  0  0  0  0  0  0  0  0  0  0
  144.2840   74.1380  220.8620 N   0  0  0  0  0  0  0  0  0  0  0  0
  140.2490   71.5260  223.5560 C   0  0  0  0  0  0  0  0  0  0  0  0
  139.5520   70.3450  223.3770 C   0  0  0  0  0  0  0  0  0  0  0  0
  139.3330   69.5530  224.4860 C   0  0  0  0  0  0  0  0  0  0  0  0
  139.8030   69.9370  225.7360 C   0  0  0  0  0  0  0  0  0  0  0  0
  139.5810   69.1380  226.8490 C   0  0  0  0  0  0  0  0  0  0  0  0
  140.0720   69.5760  228.0630 C   0  0  0  0  0  0  0  0  0  0  0  0
  139.8640   68.8110  229.1480 F   0  0  0  0  0  0  0  0  0  0  0  0
  140.7630   70.7500  228.2270 C   0  0  0  0  0  0  0  0  0  0  0  0
  140.9640   71.5230  227.0860 C   0  0  0  0  0  0  0  0  0  0  0  0
  140.4840   71.1090  225.8620 C   0  0  0  0  0  0  0  0  0  0  0  0
  140.7020   71.8940  224.7700 N   0  0  0  0  0  0  0  0  0  0  0  0
  138.7960   73.6920  222.7910 H   0  0  0  0  0  0  0  0  0  0  0  0
  140.2253   73.6293  220.1649 H   0  0  0  0  0  0  0  0  0  0  0  0
  138.9507   74.8076  220.7043 H   0  0  0  0  0  0  0  0  0  0  0  0
  142.1818   77.6117  220.4443 H   0  0  0  0  0  0  0  0  0  0  0  0
  143.6870   76.7455  220.3494 H   0  0  0  0  0  0  0  0  0  0  0  0
  141.6677   77.3907  218.1588 H   0  0  0  0  0  0  0  0  0  0  0  0
  143.4215   77.3196  218.0087 H   0  0  0  0  0  0  0  0  0  0  0  0
  141.4950   75.2273  217.4655 H   0  0  0  0  0  0  0  0  0  0  0  0
  143.2573   75.0938  217.3465 H   0  0  0  0  0  0  0  0  0  0  0  0
  141.8494   73.6202  219.2484 H   0  0  0  0  0  0  0  0  0  0  0  0
  144.2519   73.3837  217.6222 H   0  0  0  0  0  0  0  0  0  0  0  0
  147.3237   72.7533  220.4623 H   0  0  0  0  0  0  0  0  0  0  0  0
  145.8696   73.7889  222.2174 H   0  0  0  0  0  0  0  0  0  0  0  0
  139.1845   70.0468  222.3840 H   0  0  0  0  0  0  0  0  0  0  0  0
  138.7805   68.6078  224.3792 H   0  0  0  0  0  0  0  0  0  0  0  0
  139.0325   68.1881  226.7668 H   0  0  0  0  0  0  0  0  0  0  0  0
  141.1397   71.0652  229.2113 H   0  0  0  0  0  0  0  0  0  0  0  0
  141.5116   72.4739  227.1624 H   0  0  0  0  0  0  0  0  0  0  0  0
  1  2  2  0
  2  3  1  0
  3  4  1  0
  4  5  1  0
  5  6  2  0
  5  7  1  0
  7  8  1  0
  8  9  1  0
  9 10  1  0
 10 11  1  0
 11 12  1  0
 12 13  2  0
 13 14  1  0
 14 15  2  0
 15 16  1  0
 16 17  2  0
  2 18  1  0
 18 19  2  0
 19 20  1  0
 20 21  2  0
 21 22  1  0
 22 23  2  0
 23 24  1  0
 23 25  1  0
 25 26  2  0
 26 27  1  0
 27 28  2  0
 11  7  1  0
 17 12  1  0
 28 18  1  0
 27 21  1  0
  3 29  1  0
  4 30  1  0
  4 31  1  0
  8 32  1  0
  8 33  1  0
  9 34  1  0
  9 35  1  0
 10 36  1  0
 10 37  1  0
 11 38  1  6
 13 39  1  0
 15 40  1  0
 16 41  1  0
 19 42  1  0
 20 43  1  0
 22 44  1  0
 25 45  1  0
 26 46  1  0
M  END
>  <smiles>  (88) 
O=C(NCC(=O)N1CCCC1c1cnccn1)c1ccc2cc(F)ccc2n1

>  <score_type>  (88) 
oracle

>  <origin>  (88) 
autodockgpu

>  <m_score__min__energy>  (88) 
-8.5299999999999994

>  <m_primary>  (88) 
energy

>  <rmsd>  (88) 
3.452248695337219

>  <m_score__min__rmsd>  (88) 
3.452248695337219

>  <meeko>  (88) 
{"free_energy": -8.53, "intermolecular_energy": -10.02, "internal_energy": -1.45, "cluster_size": 16, "cluster_id": 1, "rank_in_cluster": 1}

>  <energy>  (88) 
-7.67

>  <cluster_rmsd>  (88) 
0.05

>  <cluster>  (88) 
3

$$$$

     RDKit          3D

 46 49  0  0  0  0  0  0  0  0999 V2000
  141.5660   72.2410  221.6480 O   0  0  0  0  0  0  0  0  0  0  0  0
  140.5690   72.3940  222.4200 C   0  0  0  0  0  0  0  0  0  0  0  0
  139.6350   73.4510  222.1610 N   0  0  0  0  0  0  0  0  0  0  0  0
  139.8960   74.2880  221.0150 C   0  0  0  0  0  0  0  0  0  0  0  0
  140.9920   75.2490  221.2610 C   0  0  0  0  0  0  0  0  0  0  0  0
  141.0990   75.9380  222.3070 O   0  0  0  0  0  0  0  0  0  0  0  0
  141.9810   75.4030  220.2520 N   0  0  0  0  0  0  0  0  0  0  0  0
  142.7280   76.6210  219.9230 C   0  0  0  0  0  0  0  0  0  0  0  0
  142.6070   76.6440  218.4180 C   0  0  0  0  0  0  0  0  0  0  0  0
  142.4660   75.1950  218.0250 C   0  0  0  0  0  0  0  0  0  0  0  0
  142.4820   74.4070  219.3210 C   0  0  1  0  0  0  0  0  0  0  0  0
  143.8240   73.9090  219.6340 C   0  0  0  0  0  0  0  0  0  0  0  0
  144.6870   73.4310  218.6730 C   0  0  0  0  0  0  0  0  0  0  0  0
  145.9110   72.9810  218.9860 N   0  0  0  0  0  0  0  0  0  0  0  0
  146.3570   72.9740  220.2460 C   0  0  0  0  0  0  0  0  0  0  0  0
  145.5090   73.4500  221.2330 C   0  0  0  0  0  0  0  0  0  0  0  0
  144.2880   73.8970  220.9130 N   0  0  0  0  0  0  0  0  0  0  0  0
  140.3460   71.5190  223.5720 C   0  0  0  0  0  0  0  0  0  0  0  0
  139.6620   70.3330  223.3690 C   0  0  0  0  0  0  0  0  0  0  0  0
  139.4560   69.5140  224.4600 C   0  0  0  0  0  0  0  0  0  0  0  0
  139.9240   69.8770  225.7180 C   0  0  0  0  0  0  0  0  0  0  0  0
  139.7150   69.0510  226.8130 C   0  0  0  0  0  0  0  0  0  0  0  0
  140.2040   69.4670  228.0350 C   0  0  0  0  0  0  0  0  0  0  0  0
  140.0080   68.6760  229.1040 F   0  0  0  0  0  0  0  0  0  0  0  0
  140.8810   70.6470  228.2230 C   0  0  0  0  0  0  0  0  0  0  0  0
  141.0700   71.4470  227.1000 C   0  0  0  0  0  0  0  0  0  0  0  0
  140.5920   71.0540  225.8680 C   0  0  0  0  0  0  0  0  0  0  0  0
  140.7970   71.8650  224.7930 N   0  0  0  0  0  0  0  0  0  0  0  0
  138.7920   73.6070  222.7870 H   0  0  0  0  0  0  0  0  0  0  0  0
  140.1714   73.6474  220.1643 H   0  0  0  0  0  0  0  0  0  0  0  0
  138.9833   74.8647  220.8043 H   0  0  0  0  0  0  0  0  0  0  0  0
  142.2681   77.5108  220.3777 H   0  0  0  0  0  0  0  0  0  0  0  0
  143.7642   76.6278  220.2921 H   0  0  0  0  0  0  0  0  0  0  0  0
  141.7213   77.2182  218.1085 H   0  0  0  0  0  0  0  0  0  0  0  0
  143.4722   77.1240  217.9374 H   0  0  0  0  0  0  0  0  0  0  0  0
  141.5175   75.0342  217.4915 H   0  0  0  0  0  0  0  0  0  0  0  0
  143.2765   74.8794  217.3515 H   0  0  0  0  0  0  0  0  0  0  0  0
  141.8840   73.4837  219.3208 H   0  0  0  0  0  0  0  0  0  0  0  0
  144.3640   73.4180  217.6216 H   0  0  0  0  0  0  0  0  0  0  0  0
  147.3631   72.6029  220.4911 H   0  0  0  0  0  0  0  0  0  0  0  0
  145.8396   73.4607  222.2821 H   0  0  0  0  0  0  0  0  0  0  0  0
  139.2948   70.0526  222.3707 H   0  0  0  0  0  0  0  0  0  0  0  0
  138.9160   68.5641  224.3333 H   0  0  0  0  0  0  0  0  0  0  0  0
  139.1776   68.0966  226.7108 H   0  0  0  0  0  0  0  0  0  0  0  0
  141.2557   70.9454  229.2132 H   0  0  0  0  0  0  0  0  0  0  0  0
  141.6062   72.4026  227.1963 H   0  0  0  0  0  0  0  0  0  0  0  0
  1  2  2  0
  2  3  1  0
  3  4  1  0
  4  5  1  0
  5  6  2  0
  5  7  1  0
  7  8  1  0
  8  9  1  0
  9 10  1  0
 10 11  1  0
 11 12  1  0
 12 13  2  0
 13 14  1  0
 14 15  2  0
 15 16  1  0
 16 17  2  0
  2 18  1  0
 18 19  2  0
 19 20  1  0
 20 21  2  0
 21 22  1  0
 22 23  2  0
 23 24  1  0
 23 25  1  0
 25 26  2  0
 26 27  1  0
 27 28  2  0
 11  7  1  0
 17 12  1  0
 28 18  1  0
 27 21  1  0
  3 29  1  0
  4 30  1  0
  4 31  1  0
  8 32  1  0
  8 33  1  0
  9 34  1  0
  9 35  1  0
 10 36  1  0
 10 37  1  0
 11 38  1  6
 13 39  1  0
 15 40  1  0
 16 41  1  0
 19 42  1  0
 20 43  1  0
 22 44  1  0
 25 45  1  0
 26 46  1  0
M  END
>  <smiles>  (89) 
O=C(NCC(=O)N1CCCC1c1cnccn1)c1ccc2cc(F)ccc2n1

>  <score_type>  (89) 
oracle

>  <origin>  (89) 
autodockgpu

>  <m_score__min__energy>  (89) 
-8.5299999999999994

>  <m_primary>  (89) 
energy

>  <rmsd>  (89) 
3.5154428117964263

>  <m_score__min__rmsd>  (89) 
3.5154428117964263

>  <meeko>  (89) 
{"free_energy": -8.47, "intermolecular_energy": -9.96, "internal_energy": -1.47, "cluster_size": 16, "cluster_id": 1, "rank_in_cluster": 4}

>  <energy>  (89) 
-7.63

>  <cluster_rmsd>  (89) 
0.15

>  <cluster>  (89) 
3

$$$$

     RDKit          3D

 46 49  0  0  0  0  0  0  0  0999 V2000
  141.0290   71.8940  221.2520 O   0  0  0  0  0  0  0  0  0  0  0  0
  140.3490   72.2940  222.2470 C   0  0  0  0  0  0  0  0  0  0  0  0
  139.7380   73.5920  222.2050 N   0  0  0  0  0  0  0  0  0  0  0  0
  139.9420   74.3720  221.0090 C   0  0  0  0  0  0  0  0  0  0  0  0
  140.9800   75.4090  221.1870 C   0  0  0  0  0  0  0  0  0  0  0  0
  141.0290   76.1920  222.1710 O   0  0  0  0  0  0  0  0  0  0  0  0
  141.9800   75.5290  220.1840 N   0  0  0  0  0  0  0  0  0  0  0  0
  142.7530   76.7280  219.8440 C   0  0  0  0  0  0  0  0  0  0  0  0
  142.6440   76.7320  218.3380 C   0  0  0  0  0  0  0  0  0  0  0  0
  142.4790   75.2800  217.9650 C   0  0  0  0  0  0  0  0  0  0  0  0
  142.4690   74.5110  219.2720 C   0  0  1  0  0  0  0  0  0  0  0  0
  143.7990   73.9910  219.6030 C   0  0  0  0  0  0  0  0  0  0  0  0
  144.6370   73.4290  218.6660 C   0  0  0  0  0  0  0  0  0  0  0  0
  145.8500   72.9620  218.9950 N   0  0  0  0  0  0  0  0  0  0  0  0
  146.3090   73.0180  220.2490 C   0  0  0  0  0  0  0  0  0  0  0  0
  145.4860   73.5800  221.2120 C   0  0  0  0  0  0  0  0  0  0  0  0
  144.2760   74.0430  220.8760 N   0  0  0  0  0  0  0  0  0  0  0  0
  140.1700   71.4650  223.4400 C   0  0  0  0  0  0  0  0  0  0  0  0
  139.5320   70.2450  223.2990 C   0  0  0  0  0  0  0  0  0  0  0  0
  139.3670   69.4710  224.4290 C   0  0  0  0  0  0  0  0  0  0  0  0
  139.8310   69.9100  225.6630 C   0  0  0  0  0  0  0  0  0  0  0  0
  139.6630   69.1280  226.7980 C   0  0  0  0  0  0  0  0  0  0  0  0
  140.1450   69.6200  227.9940 C   0  0  0  0  0  0  0  0  0  0  0  0
  139.9890   68.8720  229.1010 F   0  0  0  0  0  0  0  0  0  0  0  0
  140.7760   70.8320  228.1210 C   0  0  0  0  0  0  0  0  0  0  0  0
  140.9240   71.5860  226.9600 C   0  0  0  0  0  0  0  0  0  0  0  0
  140.4520   71.1180  225.7520 C   0  0  0  0  0  0  0  0  0  0  0  0
  140.6160   71.8850  224.6390 N   0  0  0  0  0  0  0  0  0  0  0  0
  139.1640   73.9560  223.0200 H   0  0  0  0  0  0  0  0  0  0  0  0
  140.2502   73.6987  220.1956 H   0  0  0  0  0  0  0  0  0  0  0  0
  138.9954   74.8799  220.7725 H   0  0  0  0  0  0  0  0  0  0  0  0
  142.3068   77.6327  220.2826 H   0  0  0  0  0  0  0  0  0  0  0  0
  143.7863   76.7202  220.2212 H   0  0  0  0  0  0  0  0  0  0  0  0
  141.7715   77.3180  218.0133 H   0  0  0  0  0  0  0  0  0  0  0  0
  143.5214   77.1892  217.8573 H   0  0  0  0  0  0  0  0  0  0  0  0
  141.5323   75.1292  217.4256 H   0  0  0  0  0  0  0  0  0  0  0  0
  143.2892   74.9395  217.3035 H   0  0  0  0  0  0  0  0  0  0  0  0
  141.8530   73.5997  219.2803 H   0  0  0  0  0  0  0  0  0  0  0  0
  144.3025   73.3614  217.6203 H   0  0  0  0  0  0  0  0  0  0  0  0
  147.3057   72.6313  220.5078 H   0  0  0  0  0  0  0  0  0  0  0  0
  145.8281   73.6457  222.2554 H   0  0  0  0  0  0  0  0  0  0  0  0
  139.1685   69.9038  222.3185 H   0  0  0  0  0  0  0  0  0  0  0  0
  138.8630   68.4963  224.3523 H   0  0  0  0  0  0  0  0  0  0  0  0
  139.1628   68.1497  226.7457 H   0  0  0  0  0  0  0  0  0  0  0  0
  141.1468   71.1903  229.0927 H   0  0  0  0  0  0  0  0  0  0  0  0
  141.4227   72.5653  227.0069 H   0  0  0  0  0  0  0  0  0  0  0  0
  1  2  2  0
  2  3  1  0
  3  4  1  0
  4  5  1  0
  5  6  2  0
  5  7  1  0
  7  8  1  0
  8  9  1  0
  9 10  1  0
 10 11  1  0
 11 12  1  0
 12 13  2  0
 13 14  1  0
 14 15  2  0
 15 16  1  0
 16 17  2  0
  2 18  1  0
 18 19  2  0
 19 20  1  0
 20 21  2  0
 21 22  1  0
 22 23  2  0
 23 24  1  0
 23 25  1  0
 25 26  2  0
 26 27  1  0
 27 28  2  0
 11  7  1  0
 17 12  1  0
 28 18  1  0
 27 21  1  0
  3 29  1  0
  4 30  1  0
  4 31  1  0
  8 32  1  0
  8 33  1  0
  9 34  1  0
  9 35  1  0
 10 36  1  0
 10 37  1  0
 11 38  1  6
 13 39  1  0
 15 40  1  0
 16 41  1  0
 19 42  1  0
 20 43  1  0
 22 44  1  0
 25 45  1  0
 26 46  1  0
M  END
>  <smiles>  (90) 
O=C(NCC(=O)N1CCCC1c1cnccn1)c1ccc2cc(F)ccc2n1

>  <score_type>  (90) 
oracle

>  <origin>  (90) 
autodockgpu

>  <m_score__min__energy>  (90) 
-8.5299999999999994

>  <m_primary>  (90) 
energy

>  <rmsd>  (90) 
3.472635578537672

>  <m_score__min__rmsd>  (90) 
3.472635578537672

>  <meeko>  (90) 
{"free_energy": -8.46, "intermolecular_energy": -9.95, "internal_energy": -1.48, "cluster_size": 16, "cluster_id": 1, "rank_in_cluster": 7}

>  <energy>  (90) 
-7.36

>  <cluster_rmsd>  (90) 
0.65

>  <cluster>  (90) 
3

$$$$

     RDKit          3D

 46 49  0  0  0  0  0  0  0  0999 V2000
  141.4370   72.7610  221.9690 O   0  0  0  0  0  0  0  0  0  0  0  0
  140.3590   72.6520  222.6310 C   0  0  0  0  0  0  0  0  0  0  0  0
  139.2600   73.5250  222.3340 N   0  0  0  0  0  0  0  0  0  0  0  0
  139.4580   74.4900  221.2810 C   0  0  0  0  0  0  0  0  0  0  0  0
  139.1760   75.8710  221.7250 C   0  0  0  0  0  0  0  0  0  0  0  0
  138.3250   76.1660  222.6030 O   0  0  0  0  0  0  0  0  0  0  0  0
  139.9100   76.9280  221.1210 N   0  0  0  0  0  0  0  0  0  0  0  0
  139.3970   77.9520  220.2060 C   0  0  0  0  0  0  0  0  0  0  0  0
  140.4450   77.9300  219.1190 C   0  0  0  0  0  0  0  0  0  0  0  0
  141.7060   77.4860  219.8160 C   0  0  0  0  0  0  0  0  0  0  0  0
  141.3200   77.2430  221.2640 C   0  0  1  0  0  0  0  0  0  0  0  0
  141.5970   78.4140  222.1000 C   0  0  0  0  0  0  0  0  0  0  0  0
  141.5280   78.3840  223.4750 C   0  0  0  0  0  0  0  0  0  0  0  0
  141.7870   79.4700  224.2180 N   0  0  0  0  0  0  0  0  0  0  0  0
  142.1250   80.6380  223.6620 C   0  0  0  0  0  0  0  0  0  0  0  0
  142.2020   80.6960  222.2800 C   0  0  0  0  0  0  0  0  0  0  0  0
  141.9410   79.6070  221.5450 N   0  0  0  0  0  0  0  0  0  0  0  0
  140.2050   71.6560  223.6930 C   0  0  0  0  0  0  0  0  0  0  0  0
  139.5340   70.4830  223.3960 C   0  0  0  0  0  0  0  0  0  0  0  0
  139.3930   69.5500  224.4020 C   0  0  0  0  0  0  0  0  0  0  0  0
  139.9130   69.7890  225.6690 C   0  0  0  0  0  0  0  0  0  0  0  0
  139.7700   68.8480  226.6790 C   0  0  0  0  0  0  0  0  0  0  0  0
  140.3070   69.1450  227.9160 C   0  0  0  0  0  0  0  0  0  0  0  0
  140.1750   68.2420  228.9030 F   0  0  0  0  0  0  0  0  0  0  0  0
  140.9710   70.3130  228.1970 C   0  0  0  0  0  0  0  0  0  0  0  0
  141.0930   71.2310  227.1580 C   0  0  0  0  0  0  0  0  0  0  0  0
  140.5650   70.9590  225.9130 C   0  0  0  0  0  0  0  0  0  0  0  0
  140.7060   71.8820  224.9220 N   0  0  0  0  0  0  0  0  0  0  0  0
  138.3460   73.4600  222.8690 H   0  0  0  0  0  0  0  0  0  0  0  0
  140.5029   74.4340  220.9418 H   0  0  0  0  0  0  0  0  0  0  0  0
  138.7579   74.2486  220.4676 H   0  0  0  0  0  0  0  0  0  0  0  0
  138.4052   77.6817  219.8145 H   0  0  0  0  0  0  0  0  0  0  0  0
  139.2506   78.9383  220.6705 H   0  0  0  0  0  0  0  0  0  0  0  0
  140.1681   77.2188  218.3268 H   0  0  0  0  0  0  0  0  0  0  0  0
  140.5606   78.9090  218.6309 H   0  0  0  0  0  0  0  0  0  0  0  0
  142.0881   76.5599  219.3617 H   0  0  0  0  0  0  0  0  0  0  0  0
  142.5005   78.2422  219.7321 H   0  0  0  0  0  0  0  0  0  0  0  0
  141.8836   76.4506  221.7783 H   0  0  0  0  0  0  0  0  0  0  0  0
  141.2532   77.4446  223.9771 H   0  0  0  0  0  0  0  0  0  0  0  0
  142.3348   81.5229  224.2809 H   0  0  0  0  0  0  0  0  0  0  0  0
  142.4782   81.6387  221.7850 H   0  0  0  0  0  0  0  0  0  0  0  0
  139.1264   70.3005  222.3907 H   0  0  0  0  0  0  0  0  0  0  0  0
  138.8637   68.6072  224.1997 H   0  0  0  0  0  0  0  0  0  0  0  0
  139.2464   67.8973  226.5001 H   0  0  0  0  0  0  0  0  0  0  0  0
  141.3867   70.5139  229.1954 H   0  0  0  0  0  0  0  0  0  0  0  0
  141.6158   72.1832  227.3314 H   0  0  0  0  0  0  0  0  0  0  0  0
  1  2  2  0
  2  3  1  0
  3  4  1  0
  4  5  1  0
  5  6  2  0
  5  7  1  0
  7  8  1  0
  8  9  1  0
  9 10  1  0
 10 11  1  0
 11 12  1  0
 12 13  2  0
 13 14  1  0
 14 15  2  0
 15 16  1  0
 16 17  2  0
  2 18  1  0
 18 19  2  0
 19 20  1  0
 20 21  2  0
 21 22  1  0
 22 23  2  0
 23 24  1  0
 23 25  1  0
 25 26  2  0
 26 27  1  0
 27 28  2  0
 11  7  1  0
 17 12  1  0
 28 18  1  0
 27 21  1  0
  3 29  1  0
  4 30  1  0
  4 31  1  0
  8 32  1  0
  8 33  1  0
  9 34  1  0
  9 35  1  0
 10 36  1  0
 10 37  1  0
 11 38  1  1
 13 39  1  0
 15 40  1  0
 16 41  1  0
 19 42  1  0
 20 43  1  0
 22 44  1  0
 25 45  1  0
 26 46  1  0
M  END
>  <smiles>  (91) 
O=C(NCC(=O)N1CCCC1c1cnccn1)c1ccc2cc(F)ccc2n1

>  <score_type>  (91) 
oracle

>  <origin>  (91) 
autodockgpu

>  <m_score__min__energy>  (91) 
-8.5299999999999994

>  <m_primary>  (91) 
energy

>  <rmsd>  (91) 
1.9280668313215423

>  <m_score__min__rmsd>  (91) 
1.9280668313215423

>  <meeko>  (91) 
{"free_energy": -8.02, "intermolecular_energy": -9.51, "internal_energy": -1.26, "cluster_size": 20, "cluster_id": 2, "rank_in_cluster": 11}

>  <energy>  (91) 
-7.51

>  <cluster_rmsd>  (91) 
0.0

>  <cluster>  (91) 
4

$$$$

     RDKit          3D

 46 49  0  0  0  0  0  0  0  0999 V2000
  141.1620   71.8990  221.2400 O   0  0  0  0  0  0  0  0  0  0  0  0
  140.4390   72.2860  222.2100 C   0  0  0  0  0  0  0  0  0  0  0  0
  139.7930   73.5650  222.1390 N   0  0  0  0  0  0  0  0  0  0  0  0
  140.0120   74.3420  220.9440 C   0  0  0  0  0  0  0  0  0  0  0  0
  141.0280   75.3980  221.1400 C   0  0  0  0  0  0  0  0  0  0  0  0
  141.0430   76.1830  222.1230 O   0  0  0  0  0  0  0  0  0  0  0  0
  142.0460   75.5340  220.1580 N   0  0  0  0  0  0  0  0  0  0  0  0
  142.8420   76.7300  219.8670 C   0  0  0  0  0  0  0  0  0  0  0  0
  142.7580   76.7830  218.3610 C   0  0  0  0  0  0  0  0  0  0  0  0
  142.5780   75.3460  217.9400 C   0  0  0  0  0  0  0  0  0  0  0  0
  142.5350   74.5370  219.2220 C   0  0  1  0  0  0  0  0  0  0  0  0
  143.8510   73.9870  219.5580 C   0  0  0  0  0  0  0  0  0  0  0  0
  144.7330   73.5240  218.6070 C   0  0  0  0  0  0  0  0  0  0  0  0
  145.9320   73.0260  218.9410 N   0  0  0  0  0  0  0  0  0  0  0  0
  146.3350   72.9540  220.2140 C   0  0  0  0  0  0  0  0  0  0  0  0
  145.4670   73.4140  221.1910 C   0  0  0  0  0  0  0  0  0  0  0  0
  144.2710   73.9090  220.8500 N   0  0  0  0  0  0  0  0  0  0  0  0
  140.2450   71.4610  223.4040 C   0  0  0  0  0  0  0  0  0  0  0  0
  139.5860   70.2520  223.2630 C   0  0  0  0  0  0  0  0  0  0  0  0
  139.4080   69.4810  224.3930 C   0  0  0  0  0  0  0  0  0  0  0  0
  139.8790   69.9120  225.6270 C   0  0  0  0  0  0  0  0  0  0  0  0
  139.6980   69.1340  226.7620 C   0  0  0  0  0  0  0  0  0  0  0  0
  140.1890   69.6180  227.9580 C   0  0  0  0  0  0  0  0  0  0  0  0
  140.0210   68.8730  229.0650 F   0  0  0  0  0  0  0  0  0  0  0  0
  140.8410   70.8190  228.0850 C   0  0  0  0  0  0  0  0  0  0  0  0
  141.0030   71.5690  226.9240 C   0  0  0  0  0  0  0  0  0  0  0  0
  140.5220   71.1090  225.7160 C   0  0  0  0  0  0  0  0  0  0  0  0
  140.6990   71.8730  224.6030 N   0  0  0  0  0  0  0  0  0  0  0  0
  139.1820   73.9180  222.9320 H   0  0  0  0  0  0  0  0  0  0  0  0
  140.3507   73.6697  220.1420 H   0  0  0  0  0  0  0  0  0  0  0  0
  139.0627   74.8325  220.6827 H   0  0  0  0  0  0  0  0  0  0  0  0
  142.4025   77.6276  220.3265 H   0  0  0  0  0  0  0  0  0  0  0  0
  143.8689   76.6938  220.2596 H   0  0  0  0  0  0  0  0  0  0  0  0
  141.8997   77.3920  218.0410 H   0  0  0  0  0  0  0  0  0  0  0  0
  143.6497   77.2419  217.9090 H   0  0  0  0  0  0  0  0  0  0  0  0
  141.6383   75.2264  217.3809 H   0  0  0  0  0  0  0  0  0  0  0  0
  143.3940   75.0140  217.2813 H   0  0  0  0  0  0  0  0  0  0  0  0
  141.9055   73.6354  219.1916 H   0  0  0  0  0  0  0  0  0  0  0  0
  144.4462   73.5639  217.5458 H   0  0  0  0  0  0  0  0  0  0  0  0
  147.3214   72.5438  220.4764 H   0  0  0  0  0  0  0  0  0  0  0  0
  145.7616   73.3723  222.2500 H   0  0  0  0  0  0  0  0  0  0  0  0
  139.2165   69.9171  222.2825 H   0  0  0  0  0  0  0  0  0  0  0  0
  138.8877   68.5149  224.3163 H   0  0  0  0  0  0  0  0  0  0  0  0
  139.1808   68.1645  226.7103 H   0  0  0  0  0  0  0  0  0  0  0  0
  141.2171   71.1715  229.0568 H   0  0  0  0  0  0  0  0  0  0  0  0
  141.5201   72.5388  226.9702 H   0  0  0  0  0  0  0  0  0  0  0  0
  1  2  2  0
  2  3  1  0
  3  4  1  0
  4  5  1  0
  5  6  2  0
  5  7  1  0
  7  8  1  0
  8  9  1  0
  9 10  1  0
 10 11  1  0
 11 12  1  0
 12 13  2  0
 13 14  1  0
 14 15  2  0
 15 16  1  0
 16 17  2  0
  2 18  1  0
 18 19  2  0
 19 20  1  0
 20 21  2  0
 21 22  1  0
 22 23  2  0
 23 24  1  0
 23 25  1  0
 25 26  2  0
 26 27  1  0
 27 28  2  0
 11  7  1  0
 17 12  1  0
 28 18  1  0
 27 21  1  0
  3 29  1  0
  4 30  1  0
  4 31  1  0
  8 32  1  0
  8 33  1  0
  9 34  1  0
  9 35  1  0
 10 36  1  0
 10 37  1  0
 11 38  1  6
 13 39  1  0
 15 40  1  0
 16 41  1  0
 19 42  1  0
 20 43  1  0
 22 44  1  0
 25 45  1  0
 26 46  1  0
M  END
>  <smiles>  (92) 
O=C(NCC(=O)N1CCCC1c1cnccn1)c1ccc2cc(F)ccc2n1

>  <score_type>  (92) 
oracle

>  <origin>  (92) 
autodockgpu

>  <m_score__min__energy>  (92) 
-8.5299999999999994

>  <m_primary>  (92) 
energy

>  <rmsd>  (92) 
3.524241632359585

>  <m_score__min__rmsd>  (92) 
3.524241632359585

>  <meeko>  (92) 
{"free_energy": -8.48, "intermolecular_energy": -9.97, "internal_energy": -1.48, "cluster_size": 16, "cluster_id": 1, "rank_in_cluster": 3}

>  <energy>  (92) 
-7.5

>  <cluster_rmsd>  (92) 
0.09

>  <cluster>  (92) 
4

$$$$

     RDKit          3D

 46 49  0  0  0  0  0  0  0  0999 V2000
  140.0350   71.3890  221.1070 O   0  0  0  0  0  0  0  0  0  0  0  0
  139.8620   71.8850  222.2630 C   0  0  0  0  0  0  0  0  0  0  0  0
  139.6700   73.3000  222.4000 N   0  0  0  0  0  0  0  0  0  0  0  0
  139.6870   74.0820  221.1880 C   0  0  0  0  0  0  0  0  0  0  0  0
  140.6190   75.2260  221.2710 C   0  0  0  0  0  0  0  0  0  0  0  0
  141.8670   75.1230  221.1560 O   0  0  0  0  0  0  0  0  0  0  0  0
  140.0700   76.5170  221.4970 N   0  0  0  0  0  0  0  0  0  0  0  0
  138.9010   76.8500  222.3170 C   0  0  0  0  0  0  0  0  0  0  0  0
  138.1470   77.7770  221.3930 C   0  0  0  0  0  0  0  0  0  0  0  0
  139.2130   78.4080  220.5340 C   0  0  0  0  0  0  0  0  0  0  0  0
  140.5270   77.7940  220.9800 C   0  0  1  0  0  0  0  0  0  0  0  0
  141.2090   78.6360  221.9670 C   0  0  0  0  0  0  0  0  0  0  0  0
  141.8730   79.7950  221.6290 C   0  0  0  0  0  0  0  0  0  0  0  0
  142.4890   80.5480  222.5520 N   0  0  0  0  0  0  0  0  0  0  0  0
  142.4900   80.2150  223.8470 C   0  0  0  0  0  0  0  0  0  0  0  0
  141.8280   79.0540  224.2140 C   0  0  0  0  0  0  0  0  0  0  0  0
  141.2160   78.3060  223.2860 N   0  0  0  0  0  0  0  0  0  0  0  0
  139.8530   71.0500  223.4660 C   0  0  0  0  0  0  0  0  0  0  0  0
  139.3160   69.7780  223.3740 C   0  0  0  0  0  0  0  0  0  0  0  0
  139.3120   68.9980  224.5120 C   0  0  0  0  0  0  0  0  0  0  0  0
  139.8320   69.4820  225.7060 C   0  0  0  0  0  0  0  0  0  0  0  0
  139.8260   68.6940  226.8480 C   0  0  0  0  0  0  0  0  0  0  0  0
  140.3570   69.2330  228.0030 C   0  0  0  0  0  0  0  0  0  0  0  0
  140.3570   68.4800  229.1170 F   0  0  0  0  0  0  0  0  0  0  0  0
  140.8870   70.4970  228.0810 C   0  0  0  0  0  0  0  0  0  0  0  0
  140.8740   71.2550  226.9140 C   0  0  0  0  0  0  0  0  0  0  0  0
  140.3500   70.7410  225.7470 C   0  0  0  0  0  0  0  0  0  0  0  0
  140.3560   71.5140  224.6260 N   0  0  0  0  0  0  0  0  0  0  0  0
  139.5240   73.7460  223.3510 H   0  0  0  0  0  0  0  0  0  0  0  0
  139.9951   73.4346  220.3537 H   0  0  0  0  0  0  0  0  0  0  0  0
  138.6747   74.4835  221.0327 H   0  0  0  0  0  0  0  0  0  0  0  0
  138.3102   75.9542  222.5589 H   0  0  0  0  0  0  0  0  0  0  0  0
  139.1467   77.2898  223.2948 H   0  0  0  0  0  0  0  0  0  0  0  0
  137.4335   77.2128  220.7745 H   0  0  0  0  0  0  0  0  0  0  0  0
  137.5576   78.5253  221.9431 H   0  0  0  0  0  0  0  0  0  0  0  0
  139.0287   78.1871  219.4723 H   0  0  0  0  0  0  0  0  0  0  0  0
  139.2223   79.5026  220.6424 H   0  0  0  0  0  0  0  0  0  0  0  0
  141.2904   77.6880  220.1951 H   0  0  0  0  0  0  0  0  0  0  0  0
  141.8985   80.1106  220.5755 H   0  0  0  0  0  0  0  0  0  0  0  0
  142.9986   80.8408  224.5951 H   0  0  0  0  0  0  0  0  0  0  0  0
  141.8050   78.7459  225.2697 H   0  0  0  0  0  0  0  0  0  0  0  0
  138.9060   69.4013  222.4253 H   0  0  0  0  0  0  0  0  0  0  0  0
  138.8925   67.9818  224.4736 H   0  0  0  0  0  0  0  0  0  0  0  0
  139.4124   67.6748  226.8337 H   0  0  0  0  0  0  0  0  0  0  0  0
  141.3018   70.8915  229.0203 H   0  0  0  0  0  0  0  0  0  0  0  0
  141.2861   72.2749  226.9228 H   0  0  0  0  0  0  0  0  0  0  0  0
  1  2  2  0
  2  3  1  0
  3  4  1  0
  4  5  1  0
  5  6  2  0
  5  7  1  0
  7  8  1  0
  8  9  1  0
  9 10  1  0
 10 11  1  0
 11 12  1  0
 12 13  2  0
 13 14  1  0
 14 15  2  0
 15 16  1  0
 16 17  2  0
  2 18  1  0
 18 19  2  0
 19 20  1  0
 20 21  2  0
 21 22  1  0
 22 23  2  0
 23 24  1  0
 23 25  1  0
 25 26  2  0
 26 27  1  0
 27 28  2  0
 11  7  1  0
 17 12  1  0
 28 18  1  0
 27 21  1  0
  3 29  1  0
  4 30  1  0
  4 31  1  0
  8 32  1  0
  8 33  1  0
  9 34  1  0
  9 35  1  0
 10 36  1  0
 10 37  1  0
 11 38  1  6
 13 39  1  0
 15 40  1  0
 16 41  1  0
 19 42  1  0
 20 43  1  0
 22 44  1  0
 25 45  1  0
 26 46  1  0
M  END
>  <smiles>  (93) 
O=C(NCC(=O)N1CCCC1c1cnccn1)c1ccc2cc(F)ccc2n1

>  <score_type>  (93) 
oracle

>  <origin>  (93) 
autodockgpu

>  <m_score__min__energy>  (93) 
-8.5299999999999994

>  <m_primary>  (93) 
energy

>  <rmsd>  (93) 
2.1399381369697488

>  <m_score__min__rmsd>  (93) 
2.1399381369697488

>  <meeko>  (93) 
{"free_energy": -7.89, "intermolecular_energy": -9.39, "internal_energy": -1.22, "cluster_size": 20, "cluster_id": 2, "rank_in_cluster": 17}

>  <energy>  (93) 
-7.47

>  <cluster_rmsd>  (93) 
0.06

>  <cluster>  (93) 
4

$$$$

     RDKit          3D

 46 49  0  0  0  0  0  0  0  0999 V2000
  141.3240   72.5150  221.5140 O   0  0  0  0  0  0  0  0  0  0  0  0
  140.4040   72.6310  222.3830 C   0  0  0  0  0  0  0  0  0  0  0  0
  139.5210   73.7600  222.3260 N   0  0  0  0  0  0  0  0  0  0  0  0
  139.7410   74.7090  221.2620 C   0  0  0  0  0  0  0  0  0  0  0  0
  139.3500   76.0820  221.6460 C   0  0  0  0  0  0  0  0  0  0  0  0
  138.4330   76.3470  222.4650 O   0  0  0  0  0  0  0  0  0  0  0  0
  140.0530   77.1650  221.0510 N   0  0  0  0  0  0  0  0  0  0  0  0
  139.5090   78.1840  220.1480 C   0  0  0  0  0  0  0  0  0  0  0  0
  140.5540   78.2020  219.0590 C   0  0  0  0  0  0  0  0  0  0  0  0
  141.8290   77.7870  219.7490 C   0  0  0  0  0  0  0  0  0  0  0  0
  141.4540   77.5180  221.1940 C   0  0  1  0  0  0  0  0  0  0  0  0
  141.6990   78.6880  222.0420 C   0  0  0  0  0  0  0  0  0  0  0  0
  141.7670   78.6150  223.4160 C   0  0  0  0  0  0  0  0  0  0  0  0
  141.9930   79.7010  224.1690 N   0  0  0  0  0  0  0  0  0  0  0  0
  142.1660   80.9110  223.6260 C   0  0  0  0  0  0  0  0  0  0  0  0
  142.1030   81.0120  222.2460 C   0  0  0  0  0  0  0  0  0  0  0  0
  141.8750   79.9230  221.5000 N   0  0  0  0  0  0  0  0  0  0  0  0
  140.2200   71.6400  223.4450 C   0  0  0  0  0  0  0  0  0  0  0  0
  139.5580   70.4660  223.1350 C   0  0  0  0  0  0  0  0  0  0  0  0
  139.3880   69.5380  224.1420 C   0  0  0  0  0  0  0  0  0  0  0  0
  139.8710   69.7840  225.4220 C   0  0  0  0  0  0  0  0  0  0  0  0
  139.6990   68.8480  226.4320 C   0  0  0  0  0  0  0  0  0  0  0  0
  140.2010   69.1520  227.6820 C   0  0  0  0  0  0  0  0  0  0  0  0
  140.0410   68.2540  228.6690 F   0  0  0  0  0  0  0  0  0  0  0  0
  140.8570   70.3220  227.9760 C   0  0  0  0  0  0  0  0  0  0  0  0
  141.0090   71.2340  226.9360 C   0  0  0  0  0  0  0  0  0  0  0  0
  140.5170   70.9550  225.6780 C   0  0  0  0  0  0  0  0  0  0  0  0
  140.6860   71.8730  224.6870 N   0  0  0  0  0  0  0  0  0  0  0  0
  138.7440   73.8860  223.0360 H   0  0  0  0  0  0  0  0  0  0  0  0
  140.8093   74.7055  221.0000 H   0  0  0  0  0  0  0  0  0  0  0  0
  139.1172   74.4077  220.4076 H   0  0  0  0  0  0  0  0  0  0  0  0
  138.5240   77.8904  219.7561 H   0  0  0  0  0  0  0  0  0  0  0  0
  139.3363   79.1610  220.6230 H   0  0  0  0  0  0  0  0  0  0  0  0
  140.2953   77.4909  218.2606 H   0  0  0  0  0  0  0  0  0  0  0  0
  140.6407   79.1885  218.5801 H   0  0  0  0  0  0  0  0  0  0  0  0
  142.2364   76.8771  219.2841 H   0  0  0  0  0  0  0  0  0  0  0  0
  142.6011   78.5666  219.6716 H   0  0  0  0  0  0  0  0  0  0  0  0
  142.0414   76.7365  221.6981 H   0  0  0  0  0  0  0  0  0  0  0  0
  141.6324   77.6404  223.9080 H   0  0  0  0  0  0  0  0  0  0  0  0
  142.3518   81.7951  224.2535 H   0  0  0  0  0  0  0  0  0  0  0  0
  142.2406   81.9897  221.7611 H   0  0  0  0  0  0  0  0  0  0  0  0
  139.1795   70.2782  222.1194 H   0  0  0  0  0  0  0  0  0  0  0  0
  138.8649   68.5939  223.9296 H   0  0  0  0  0  0  0  0  0  0  0  0
  139.1805   67.8964  226.2433 H   0  0  0  0  0  0  0  0  0  0  0  0
  141.2437   70.5284  228.9849 H   0  0  0  0  0  0  0  0  0  0  0  0
  141.5268   72.1871  227.1190 H   0  0  0  0  0  0  0  0  0  0  0  0
  1  2  2  0
  2  3  1  0
  3  4  1  0
  4  5  1  0
  5  6  2  0
  5  7  1  0
  7  8  1  0
  8  9  1  0
  9 10  1  0
 10 11  1  0
 11 12  1  0
 12 13  2  0
 13 14  1  0
 14 15  2  0
 15 16  1  0
 16 17  2  0
  2 18  1  0
 18 19  2  0
 19 20  1  0
 20 21  2  0
 21 22  1  0
 22 23  2  0
 23 24  1  0
 23 25  1  0
 25 26  2  0
 26 27  1  0
 27 28  2  0
 11  7  1  0
 17 12  1  0
 28 18  1  0
 27 21  1  0
  3 29  1  0
  4 30  1  0
  4 31  1  0
  8 32  1  0
  8 33  1  0
  9 34  1  0
  9 35  1  0
 10 36  1  0
 10 37  1  0
 11 38  1  1
 13 39  1  0
 15 40  1  0
 16 41  1  0
 19 42  1  0
 20 43  1  0
 22 44  1  0
 25 45  1  0
 26 46  1  0
M  END
>  <smiles>  (94) 
O=C(NCC(=O)N1CCCC1c1cnccn1)c1ccc2cc(F)ccc2n1

>  <score_type>  (94) 
oracle

>  <origin>  (94) 
autodockgpu

>  <m_score__min__energy>  (94) 
-8.5299999999999994

>  <m_primary>  (94) 
energy

>  <rmsd>  (94) 
2.016522593362876

>  <m_score__min__rmsd>  (94) 
2.016522593362876

>  <meeko>  (94) 
{"free_energy": -8.06, "intermolecular_energy": -9.55, "internal_energy": -1.33, "cluster_size": 20, "cluster_id": 2, "rank_in_cluster": 5}

>  <energy>  (94) 
-6.71

>  <cluster_rmsd>  (94) 
0.0

>  <cluster>  (94) 
5

$$$$

     RDKit          3D

 46 49  0  0  0  0  0  0  0  0999 V2000
  138.7700   74.8810  222.0580 O   0  0  0  0  0  0  0  0  0  0  0  0
  139.9730   75.2780  221.9740 C   0  0  0  0  0  0  0  0  0  0  0  0
  140.2850   76.6450  222.2780 N   0  0  0  0  0  0  0  0  0  0  0  0
  139.1870   77.4950  222.6670 C   0  0  0  0  0  0  0  0  0  0  0  0
  139.6410   78.8280  223.1160 C   0  0  0  0  0  0  0  0  0  0  0  0
  138.9830   79.5690  223.8900 O   0  0  0  0  0  0  0  0  0  0  0  0
  140.8950   79.2990  222.6400 N   0  0  0  0  0  0  0  0  0  0  0  0
  142.2120   79.0750  223.2440 C   0  0  0  0  0  0  0  0  0  0  0  0
  142.7940   80.4680  223.2090 C   0  0  0  0  0  0  0  0  0  0  0  0
  142.1260   81.1300  222.0310 C   0  0  0  0  0  0  0  0  0  0  0  0
  141.1680   80.1000  221.4600 C   0  0  1  0  0  0  0  0  0  0  0  0
  141.7730   79.3560  220.3510 C   0  0  0  0  0  0  0  0  0  0  0  0
  142.1850   79.9590  219.1840 C   0  0  0  0  0  0  0  0  0  0  0  0
  142.7360   79.2560  218.1840 N   0  0  0  0  0  0  0  0  0  0  0  0
  142.9150   77.9330  218.2690 C   0  0  0  0  0  0  0  0  0  0  0  0
  142.5100   77.3020  219.4340 C   0  0  0  0  0  0  0  0  0  0  0  0
  141.9590   78.0110  220.4270 N   0  0  0  0  0  0  0  0  0  0  0  0
  141.0560   74.3770  221.5740 C   0  0  0  0  0  0  0  0  0  0  0  0
  140.8080   73.0160  221.5790 C   0  0  0  0  0  0  0  0  0  0  0  0
  141.8330   72.1740  221.2010 C   0  0  0  0  0  0  0  0  0  0  0  0
  143.0710   72.6850  220.8290 C   0  0  0  0  0  0  0  0  0  0  0  0
  144.1000   71.8350  220.4490 C   0  0  0  0  0  0  0  0  0  0  0  0
  145.3050   72.4050  220.0910 C   0  0  0  0  0  0  0  0  0  0  0  0
  146.3100   71.5930  219.7210 F   0  0  0  0  0  0  0  0  0  0  0  0
  145.5380   73.7580  220.0900 C   0  0  0  0  0  0  0  0  0  0  0  0
  144.4810   74.5760  220.4770 C   0  0  0  0  0  0  0  0  0  0  0  0
  143.2660   74.0330  220.8400 C   0  0  0  0  0  0  0  0  0  0  0  0
  142.2570   74.8670  221.2130 N   0  0  0  0  0  0  0  0  0  0  0  0
  141.2800   77.0080  222.2170 H   0  0  0  0  0  0  0  0  0  0  0  0
  138.5154   77.6219  221.8052 H   0  0  0  0  0  0  0  0  0  0  0  0
  138.6713   77.0134  223.5109 H   0  0  0  0  0  0  0  0  0  0  0  0
  142.1240   78.7011  224.2747 H   0  0  0  0  0  0  0  0  0  0  0  0
  142.8217   78.3188  222.7279 H   0  0  0  0  0  0  0  0  0  0  0  0
  142.5647   81.0081  224.1394 H   0  0  0  0  0  0  0  0  0  0  0  0
  143.8901   80.4598  223.1165 H   0  0  0  0  0  0  0  0  0  0  0  0
  141.5754   82.0247  222.3570 H   0  0  0  0  0  0  0  0  0  0  0  0
  142.8619   81.4552  221.2809 H   0  0  0  0  0  0  0  0  0  0  0  0
  140.2555   80.5059  220.9990 H   0  0  0  0  0  0  0  0  0  0  0  0
  142.0589   81.0457  219.0690 H   0  0  0  0  0  0  0  0  0  0  0  0
  143.3680   77.3658  217.4425 H   0  0  0  0  0  0  0  0  0  0  0  0
  142.6415   76.2154  219.5434 H   0  0  0  0  0  0  0  0  0  0  0  0
  139.8259   72.6185  221.8746 H   0  0  0  0  0  0  0  0  0  0  0  0
  141.6690   71.0863  221.1939 H   0  0  0  0  0  0  0  0  0  0  0  0
  143.9601   70.7440  220.4336 H   0  0  0  0  0  0  0  0  0  0  0  0
  146.5129   74.1751  219.7975 H   0  0  0  0  0  0  0  0  0  0  0  0
  144.6158   75.6676  220.4937 H   0  0  0  0  0  0  0  0  0  0  0  0
  1  2  2  0
  2  3  1  0
  3  4  1  0
  4  5  1  0
  5  6  2  0
  5  7  1  0
  7  8  1  0
  8  9  1  0
  9 10  1  0
 10 11  1  0
 11 12  1  0
 12 13  2  0
 13 14  1  0
 14 15  2  0
 15 16  1  0
 16 17  2  0
  2 18  1  0
 18 19  2  0
 19 20  1  0
 20 21  2  0
 21 22  1  0
 22 23  2  0
 23 24  1  0
 23 25  1  0
 25 26  2  0
 26 27  1  0
 27 28  2  0
 11  7  1  0
 17 12  1  0
 28 18  1  0
 27 21  1  0
  3 29  1  0
  4 30  1  0
  4 31  1  0
  8 32  1  0
  8 33  1  0
  9 34  1  0
  9 35  1  0
 10 36  1  0
 10 37  1  0
 11 38  1  6
 13 39  1  0
 15 40  1  0
 16 41  1  0
 19 42  1  0
 20 43  1  0
 22 44  1  0
 25 45  1  0
 26 46  1  0
M  END
>  <smiles>  (95) 
O=C(NCC(=O)N1CCCC1c1cnccn1)c1ccc2cc(F)ccc2n1

>  <score_type>  (95) 
oracle

>  <origin>  (95) 
autodockgpu

>  <m_score__min__energy>  (95) 
-8.5299999999999994

>  <m_primary>  (95) 
energy

>  <rmsd>  (95) 
6.3274593574781335

>  <m_score__min__rmsd>  (95) 
6.3274593574781335

>  <meeko>  (95) 
{"free_energy": -6.7, "intermolecular_energy": -8.19, "internal_energy": -2.64, "cluster_size": 7, "cluster_id": 5, "rank_in_cluster": 3}

>  <energy>  (95) 
-6.7

>  <cluster_rmsd>  (95) 
0.07

>  <cluster>  (95) 
5

$$$$

     RDKit          3D

 46 49  0  0  0  0  0  0  0  0999 V2000
  141.1100   71.9580  221.2990 O   0  0  0  0  0  0  0  0  0  0  0  0
  140.3620   72.2990  222.2680 C   0  0  0  0  0  0  0  0  0  0  0  0
  139.6460   73.5400  222.2000 N   0  0  0  0  0  0  0  0  0  0  0  0
  139.8280   74.3360  221.0120 C   0  0  0  0  0  0  0  0  0  0  0  0
  140.7710   75.4540  221.2240 C   0  0  0  0  0  0  0  0  0  0  0  0
  140.7220   76.2360  222.2080 O   0  0  0  0  0  0  0  0  0  0  0  0
  141.7920   75.6570  220.2560 N   0  0  0  0  0  0  0  0  0  0  0  0
  142.5800   76.8750  220.0430 C   0  0  0  0  0  0  0  0  0  0  0  0
  142.5020   77.0190  218.5420 C   0  0  0  0  0  0  0  0  0  0  0  0
  142.3340   75.6100  218.0330 C   0  0  0  0  0  0  0  0  0  0  0  0
  142.2920   74.7230  219.2640 C   0  0  1  0  0  0  0  0  0  0  0  0
  143.6110   74.1630  219.5710 C   0  0  0  0  0  0  0  0  0  0  0  0
  144.1440   74.1590  220.8410 C   0  0  0  0  0  0  0  0  0  0  0  0
  145.3540   73.6400  221.0960 N   0  0  0  0  0  0  0  0  0  0  0  0
  146.1040   73.0970  220.1310 C   0  0  0  0  0  0  0  0  0  0  0  0
  145.5910   73.0870  218.8440 C   0  0  0  0  0  0  0  0  0  0  0  0
  144.3830   73.6090  218.5970 N   0  0  0  0  0  0  0  0  0  0  0  0
  140.2090   71.4570  223.4560 C   0  0  0  0  0  0  0  0  0  0  0  0
  139.5650   70.2400  223.3150 C   0  0  0  0  0  0  0  0  0  0  0  0
  139.4250   69.4530  224.4400 C   0  0  0  0  0  0  0  0  0  0  0  0
  139.9180   69.8760  225.6680 C   0  0  0  0  0  0  0  0  0  0  0  0
  139.7750   69.0820  226.7970 C   0  0  0  0  0  0  0  0  0  0  0  0
  140.2860   69.5590  227.9880 C   0  0  0  0  0  0  0  0  0  0  0  0
  140.1550   68.7990  229.0890 F   0  0  0  0  0  0  0  0  0  0  0  0
  140.9230   70.7690  228.1130 C   0  0  0  0  0  0  0  0  0  0  0  0
  141.0460   71.5350  226.9580 C   0  0  0  0  0  0  0  0  0  0  0  0
  140.5440   71.0820  225.7560 C   0  0  0  0  0  0  0  0  0  0  0  0
  140.6840   71.8620  224.6490 N   0  0  0  0  0  0  0  0  0  0  0  0
  139.0130   73.8540  222.9920 H   0  0  0  0  0  0  0  0  0  0  0  0
  140.2184   73.6913  220.2108 H   0  0  0  0  0  0  0  0  0  0  0  0
  138.8520   74.7659  220.7426 H   0  0  0  0  0  0  0  0  0  0  0  0
  142.1314   77.7394  220.5543 H   0  0  0  0  0  0  0  0  0  0  0  0
  143.6053   76.8230  220.4379 H   0  0  0  0  0  0  0  0  0  0  0  0
  141.6408   77.6406  218.2558 H   0  0  0  0  0  0  0  0  0  0  0  0
  143.3926   77.5104  218.1233 H   0  0  0  0  0  0  0  0  0  0  0  0
  141.3973   75.5184  217.4637 H   0  0  0  0  0  0  0  0  0  0  0  0
  143.1547   75.3246  217.3584 H   0  0  0  0  0  0  0  0  0  0  0  0
  141.6695   73.8203  219.1765 H   0  0  0  0  0  0  0  0  0  0  0  0
  143.5621   74.5928  221.6676 H   0  0  0  0  0  0  0  0  0  0  0  0
  147.0946   72.6727  220.3516 H   0  0  0  0  0  0  0  0  0  0  0  0
  146.1777   72.6491  218.0230 H   0  0  0  0  0  0  0  0  0  0  0  0
  139.1779   69.9112  222.3393 H   0  0  0  0  0  0  0  0  0  0  0  0
  138.9175   68.4801  224.3635 H   0  0  0  0  0  0  0  0  0  0  0  0
  139.2715   68.1054  226.7450 H   0  0  0  0  0  0  0  0  0  0  0  0
  141.3170   71.1160  229.0796 H   0  0  0  0  0  0  0  0  0  0  0  0
  141.5489   72.5122  227.0041 H   0  0  0  0  0  0  0  0  0  0  0  0
  1  2  2  0
  2  3  1  0
  3  4  1  0
  4  5  1  0
  5  6  2  0
  5  7  1  0
  7  8  1  0
  8  9  1  0
  9 10  1  0
 10 11  1  0
 11 12  1  0
 12 13  2  0
 13 14  1  0
 14 15  2  0
 15 16  1  0
 16 17  2  0
  2 18  1  0
 18 19  2  0
 19 20  1  0
 20 21  2  0
 21 22  1  0
 22 23  2  0
 23 24  1  0
 23 25  1  0
 25 26  2  0
 26 27  1  0
 27 28  2  0
 11  7  1  0
 17 12  1  0
 28 18  1  0
 27 21  1  0
  3 29  1  0
  4 30  1  0
  4 31  1  0
  8 32  1  0
  8 33  1  0
  9 34  1  0
  9 35  1  0
 10 36  1  0
 10 37  1  0
 11 38  1  6
 13 39  1  0
 15 40  1  0
 16 41  1  0
 19 42  1  0
 20 43  1  0
 22 44  1  0
 25 45  1  0
 26 46  1  0
M  END
>  <smiles>  (96) 
O=C(NCC(=O)N1CCCC1c1cnccn1)c1ccc2cc(F)ccc2n1

>  <score_type>  (96) 
oracle

>  <origin>  (96) 
autodockgpu

>  <m_score__min__energy>  (96) 
-8.5299999999999994

>  <m_primary>  (96) 
energy

>  <rmsd>  (96) 
3.6564650864530104

>  <m_score__min__rmsd>  (96) 
3.6564650864530104

>  <meeko>  (96) 
{"free_energy": -7.66, "intermolecular_energy": -9.15, "internal_energy": -1.39, "cluster_size": 16, "cluster_id": 1, "rank_in_cluster": 12}

>  <energy>  (96) 
-6.7

>  <cluster_rmsd>  (96) 
0.05

>  <cluster>  (96) 
5

$$$$

     RDKit          3D

 46 49  0  0  0  0  0  0  0  0999 V2000
  141.4610   72.2670  221.6000 O   0  0  0  0  0  0  0  0  0  0  0  0
  140.4710   72.4280  222.3800 C   0  0  0  0  0  0  0  0  0  0  0  0
  139.5450   73.4940  222.1290 N   0  0  0  0  0  0  0  0  0  0  0  0
  139.8050   74.3300  220.9830 C   0  0  0  0  0  0  0  0  0  0  0  0
  140.9350   75.2560  221.2090 C   0  0  0  0  0  0  0  0  0  0  0  0
  141.0840   75.9370  222.2560 O   0  0  0  0  0  0  0  0  0  0  0  0
  141.9080   75.3830  220.1810 N   0  0  0  0  0  0  0  0  0  0  0  0
  142.6310   76.5980  219.7920 C   0  0  0  0  0  0  0  0  0  0  0  0
  142.4890   76.5570  218.2890 C   0  0  0  0  0  0  0  0  0  0  0  0
  142.3670   75.0910  217.9580 C   0  0  0  0  0  0  0  0  0  0  0  0
  142.4120   74.3580  219.2860 C   0  0  1  0  0  0  0  0  0  0  0  0
  143.7670   73.8940  219.6000 C   0  0  0  0  0  0  0  0  0  0  0  0
  144.6290   73.4030  218.6450 C   0  0  0  0  0  0  0  0  0  0  0  0
  145.8640   72.9850  218.9590 N   0  0  0  0  0  0  0  0  0  0  0  0
  146.3230   73.0240  220.2140 C   0  0  0  0  0  0  0  0  0  0  0  0
  145.4750   73.5150  221.1950 C   0  0  0  0  0  0  0  0  0  0  0  0
  144.2430   73.9290  220.8740 N   0  0  0  0  0  0  0  0  0  0  0  0
  140.2480   71.5520  223.5320 C   0  0  0  0  0  0  0  0  0  0  0  0
  139.5560   70.3710  223.3310 C   0  0  0  0  0  0  0  0  0  0  0  0
  139.3500   69.5530  224.4220 C   0  0  0  0  0  0  0  0  0  0  0  0
  139.8270   69.9100  225.6770 C   0  0  0  0  0  0  0  0  0  0  0  0
  139.6180   69.0840  226.7720 C   0  0  0  0  0  0  0  0  0  0  0  0
  140.1160   69.4960  227.9920 C   0  0  0  0  0  0  0  0  0  0  0  0
  139.9200   68.7040  229.0610 F   0  0  0  0  0  0  0  0  0  0  0  0
  140.8010   70.6700  228.1790 C   0  0  0  0  0  0  0  0  0  0  0  0
  140.9900   71.4700  227.0560 C   0  0  0  0  0  0  0  0  0  0  0  0
  140.5030   71.0830  225.8250 C   0  0  0  0  0  0  0  0  0  0  0  0
  140.7080   71.8940  224.7510 N   0  0  0  0  0  0  0  0  0  0  0  0
  138.7080   73.6550  222.7600 H   0  0  0  0  0  0  0  0  0  0  0  0
  140.0412   73.6870  220.1223 H   0  0  0  0  0  0  0  0  0  0  0  0
  138.9057   74.9355  220.7971 H   0  0  0  0  0  0  0  0  0  0  0  0
  142.1631   77.4985  220.2165 H   0  0  0  0  0  0  0  0  0  0  0  0
  143.6719   76.6361  220.1457 H   0  0  0  0  0  0  0  0  0  0  0  0
  141.5896   77.1035  217.9689 H   0  0  0  0  0  0  0  0  0  0  0  0
  143.3393   77.0308  217.7767 H   0  0  0  0  0  0  0  0  0  0  0  0
  141.4148   74.8930  217.4441 H   0  0  0  0  0  0  0  0  0  0  0  0
  143.1740   74.7605  217.2875 H   0  0  0  0  0  0  0  0  0  0  0  0
  141.8283   73.4268  219.3331 H   0  0  0  0  0  0  0  0  0  0  0  0
  144.2961   73.3523  217.5978 H   0  0  0  0  0  0  0  0  0  0  0  0
  147.3380   72.6786  220.4598 H   0  0  0  0  0  0  0  0  0  0  0  0
  145.8155   73.5645  222.2398 H   0  0  0  0  0  0  0  0  0  0  0  0
  139.1825   70.0937  222.3342 H   0  0  0  0  0  0  0  0  0  0  0  0
  138.8020   68.6074  224.2971 H   0  0  0  0  0  0  0  0  0  0  0  0
  139.0740   68.1332  226.6715 H   0  0  0  0  0  0  0  0  0  0  0  0
  141.1821   70.9645  229.1680 H   0  0  0  0  0  0  0  0  0  0  0  0
  141.5338   72.4214  227.1512 H   0  0  0  0  0  0  0  0  0  0  0  0
  1  2  2  0
  2  3  1  0
  3  4  1  0
  4  5  1  0
  5  6  2  0
  5  7  1  0
  7  8  1  0
  8  9  1  0
  9 10  1  0
 10 11  1  0
 11 12  1  0
 12 13  2  0
 13 14  1  0
 14 15  2  0
 15 16  1  0
 16 17  2  0
  2 18  1  0
 18 19  2  0
 19 20  1  0
 20 21  2  0
 21 22  1  0
 22 23  2  0
 23 24  1  0
 23 25  1  0
 25 26  2  0
 26 27  1  0
 27 28  2  0
 11  7  1  0
 17 12  1  0
 28 18  1  0
 27 21  1  0
  3 29  1  0
  4 30  1  0
  4 31  1  0
  8 32  1  0
  8 33  1  0
  9 34  1  0
  9 35  1  0
 10 36  1  0
 10 37  1  0
 11 38  1  6
 13 39  1  0
 15 40  1  0
 16 41  1  0
 19 42  1  0
 20 43  1  0
 22 44  1  0
 25 45  1  0
 26 46  1  0
M  END
>  <smiles>  (97) 
O=C(NCC(=O)N1CCCC1c1cnccn1)c1ccc2cc(F)ccc2n1

>  <score_type>  (97) 
oracle

>  <origin>  (97) 
autodockgpu

>  <m_score__min__energy>  (97) 
-8.5299999999999994

>  <m_primary>  (97) 
energy

>  <rmsd>  (97) 
3.4752432406135663

>  <m_score__min__rmsd>  (97) 
3.4752432406135663

>  <meeko>  (97) 
{"free_energy": -8.5, "intermolecular_energy": -9.99, "internal_energy": -1.47, "cluster_size": 16, "cluster_id": 1, "rank_in_cluster": 2}

>  <energy>  (97) 
-6.63

>  <cluster_rmsd>  (97) 
0.13

>  <cluster>  (97) 
5

$$$$

     RDKit          3D

 46 49  0  0  0  0  0  0  0  0999 V2000
  141.0890   73.0900  222.1350 O   0  0  0  0  0  0  0  0  0  0  0  0
  140.0220   72.7120  222.7100 C   0  0  0  0  0  0  0  0  0  0  0  0
  138.7750   73.3260  222.3520 N   0  0  0  0  0  0  0  0  0  0  0  0
  138.8190   74.3530  221.3410 C   0  0  0  0  0  0  0  0  0  0  0  0
  138.8540   75.7120  221.9230 C   0  0  0  0  0  0  0  0  0  0  0  0
  138.1410   76.0780  222.8920 O   0  0  0  0  0  0  0  0  0  0  0  0
  139.7460   76.6580  221.3500 N   0  0  0  0  0  0  0  0  0  0  0  0
  139.5120   77.4920  220.1670 C   0  0  0  0  0  0  0  0  0  0  0  0
  140.8030   77.2970  219.4080 C   0  0  0  0  0  0  0  0  0  0  0  0
  141.8310   77.0110  220.4740 C   0  0  0  0  0  0  0  0  0  0  0  0
  141.0800   77.0230  221.7920 C   0  0  1  0  0  0  0  0  0  0  0  0
  141.1630   78.3310  222.4490 C   0  0  0  0  0  0  0  0  0  0  0  0
  142.3000   79.1080  222.4270 C   0  0  0  0  0  0  0  0  0  0  0  0
  142.3490   80.3020  223.0350 N   0  0  0  0  0  0  0  0  0  0  0  0
  141.2980   80.8000  223.6950 C   0  0  0  0  0  0  0  0  0  0  0  0
  140.1410   80.0380  223.7320 C   0  0  0  0  0  0  0  0  0  0  0  0
  140.0990   78.8460  223.1220 N   0  0  0  0  0  0  0  0  0  0  0  0
  140.0280   71.6640  223.7320 C   0  0  0  0  0  0  0  0  0  0  0  0
  139.4960   70.4290  223.4040 C   0  0  0  0  0  0  0  0  0  0  0  0
  139.5050   69.4470  224.3740 C   0  0  0  0  0  0  0  0  0  0  0  0
  140.0340   69.7000  225.6340 C   0  0  0  0  0  0  0  0  0  0  0  0
  140.0410   68.7100  226.6070 C   0  0  0  0  0  0  0  0  0  0  0  0
  140.5790   69.0230  227.8390 C   0  0  0  0  0  0  0  0  0  0  0  0
  140.5930   68.0720  228.7890 F   0  0  0  0  0  0  0  0  0  0  0  0
  141.1040   70.2520  228.1510 C   0  0  0  0  0  0  0  0  0  0  0  0
  141.0770   71.2180  227.1490 C   0  0  0  0  0  0  0  0  0  0  0  0
  140.5460   70.9310  225.9090 C   0  0  0  0  0  0  0  0  0  0  0  0
  140.5380   71.9030  224.9550 N   0  0  0  0  0  0  0  0  0  0  0  0
  137.8660   73.0340  222.8140 H   0  0  0  0  0  0  0  0  0  0  0  0
  139.7206   74.2074  220.7278 H   0  0  0  0  0  0  0  0  0  0  0  0
  137.9041   74.2693  220.7361 H   0  0  0  0  0  0  0  0  0  0  0  0
  138.6468   77.1363  219.5882 H   0  0  0  0  0  0  0  0  0  0  0  0
  139.2776   78.5422  220.3952 H   0  0  0  0  0  0  0  0  0  0  0  0
  140.7198   76.4498  218.7113 H   0  0  0  0  0  0  0  0  0  0  0  0
  141.0660   78.1747  218.7994 H   0  0  0  0  0  0  0  0  0  0  0  0
  142.2925   76.0268  220.3059 H   0  0  0  0  0  0  0  0  0  0  0  0
  142.6401   77.7562  220.4642 H   0  0  0  0  0  0  0  0  0  0  0  0
  141.4720   76.3472  222.5663 H   0  0  0  0  0  0  0  0  0  0  0  0
  143.1907   78.7395  221.8970 H   0  0  0  0  0  0  0  0  0  0  0  0
  141.3500   81.7803  224.1913 H   0  0  0  0  0  0  0  0  0  0  0  0
  139.2543   80.4132  224.2640 H   0  0  0  0  0  0  0  0  0  0  0  0
  139.0800   70.2366  222.4040 H   0  0  0  0  0  0  0  0  0  0  0  0
  139.0893   68.4541  224.1474 H   0  0  0  0  0  0  0  0  0  0  0  0
  139.6316   67.7096  226.4031 H   0  0  0  0  0  0  0  0  0  0  0  0
  141.5257   70.4635  229.1447 H   0  0  0  0  0  0  0  0  0  0  0  0
  141.4834   72.2206  227.3483 H   0  0  0  0  0  0  0  0  0  0  0  0
  1  2  2  0
  2  3  1  0
  3  4  1  0
  4  5  1  0
  5  6  2  0
  5  7  1  0
  7  8  1  0
  8  9  1  0
  9 10  1  0
 10 11  1  0
 11 12  1  0
 12 13  2  0
 13 14  1  0
 14 15  2  0
 15 16  1  0
 16 17  2  0
  2 18  1  0
 18 19  2  0
 19 20  1  0
 20 21  2  0
 21 22  1  0
 22 23  2  0
 23 24  1  0
 23 25  1  0
 25 26  2  0
 26 27  1  0
 27 28  2  0
 11  7  1  0
 17 12  1  0
 28 18  1  0
 27 21  1  0
  3 29  1  0
  4 30  1  0
  4 31  1  0
  8 32  1  0
  8 33  1  0
  9 34  1  0
  9 35  1  0
 10 36  1  0
 10 37  1  0
 11 38  1  1
 13 39  1  0
 15 40  1  0
 16 41  1  0
 19 42  1  0
 20 43  1  0
 22 44  1  0
 25 45  1  0
 26 46  1  0
M  END
>  <smiles>  (98) 
O=C(NCC(=O)N1CCCC1c1cnccn1)c1ccc2cc(F)ccc2n1

>  <score_type>  (98) 
oracle

>  <origin>  (98) 
autodockgpu

>  <m_score__min__energy>  (98) 
-8.5299999999999994

>  <m_primary>  (98) 
energy

>  <rmsd>  (98) 
1.8944263449979322

>  <m_score__min__rmsd>  (98) 
1.8944263449979322

>  <meeko>  (98) 
{"free_energy": -7.95, "intermolecular_energy": -9.44, "internal_energy": -1.29, "cluster_size": 20, "cluster_id": 2, "rank_in_cluster": 16}

>  <energy>  (98) 
-6.63

>  <cluster_rmsd>  (98) 
0.12

>  <cluster>  (98) 
5

$$$$

     RDKit          3D

 46 49  0  0  0  0  0  0  0  0999 V2000
  141.2250   72.8210  221.9790 O   0  0  0  0  0  0  0  0  0  0  0  0
  140.1640   72.6160  222.6460 C   0  0  0  0  0  0  0  0  0  0  0  0
  138.9890   73.3830  222.3490 N   0  0  0  0  0  0  0  0  0  0  0  0
  139.0940   74.3570  221.2900 C   0  0  0  0  0  0  0  0  0  0  0  0
  138.9200   75.7400  221.7810 C   0  0  0  0  0  0  0  0  0  0  0  0
  138.0550   76.0800  222.6280 O   0  0  0  0  0  0  0  0  0  0  0  0
  139.7810   76.7440  221.2610 N   0  0  0  0  0  0  0  0  0  0  0  0
  139.5220   77.6300  220.1220 C   0  0  0  0  0  0  0  0  0  0  0  0
  140.8190   77.5180  219.3580 C   0  0  0  0  0  0  0  0  0  0  0  0
  141.8540   77.2100  220.4110 C   0  0  0  0  0  0  0  0  0  0  0  0
  141.1020   77.1280  221.7260 C   0  0  1  0  0  0  0  0  0  0  0  0
  141.1400   78.4020  222.4500 C   0  0  0  0  0  0  0  0  0  0  0  0
  142.2510   79.2170  222.4710 C   0  0  0  0  0  0  0  0  0  0  0  0
  142.2600   80.3780  223.1410 N   0  0  0  0  0  0  0  0  0  0  0  0
  141.1920   80.8060  223.8230 C   0  0  0  0  0  0  0  0  0  0  0  0
  140.0610   80.0050  223.8180 C   0  0  0  0  0  0  0  0  0  0  0  0
  140.0600   78.8460  223.1470 N   0  0  0  0  0  0  0  0  0  0  0  0
  140.1060   71.6160  223.7130 C   0  0  0  0  0  0  0  0  0  0  0  0
  139.5320   70.3890  223.4280 C   0  0  0  0  0  0  0  0  0  0  0  0
  139.4820   69.4530  224.4400 C   0  0  0  0  0  0  0  0  0  0  0  0
  139.9930   69.7400  225.7000 C   0  0  0  0  0  0  0  0  0  0  0  0
  139.9400   68.7950  226.7150 C   0  0  0  0  0  0  0  0  0  0  0  0
  140.4640   69.1430  227.9440 C   0  0  0  0  0  0  0  0  0  0  0  0
  140.4200   68.2360  228.9360 F   0  0  0  0  0  0  0  0  0  0  0  0
  141.0310   70.3630  228.2140 C   0  0  0  0  0  0  0  0  0  0  0  0
  141.0650   71.2830  227.1690 C   0  0  0  0  0  0  0  0  0  0  0  0
  140.5480   70.9620  225.9320 C   0  0  0  0  0  0  0  0  0  0  0  0
  140.6000   71.8890  224.9360 N   0  0  0  0  0  0  0  0  0  0  0  0
  138.0860   73.2370  222.8870 H   0  0  0  0  0  0  0  0  0  0  0  0
  140.0872   74.2688  220.8254 H   0  0  0  0  0  0  0  0  0  0  0  0
  138.2920   74.1538  220.5650 H   0  0  0  0  0  0  0  0  0  0  0  0
  138.6700   77.2765  219.5227 H   0  0  0  0  0  0  0  0  0  0  0  0
  139.2531   78.6587  220.4040 H   0  0  0  0  0  0  0  0  0  0  0  0
  140.7648   76.7065  218.6174 H   0  0  0  0  0  0  0  0  0  0  0  0
  141.0538   78.4346  218.7971 H   0  0  0  0  0  0  0  0  0  0  0  0
  142.3477   76.2515  220.1927 H   0  0  0  0  0  0  0  0  0  0  0  0
  142.6379   77.9811  220.4428 H   0  0  0  0  0  0  0  0  0  0  0  0
  141.5157   76.4258  222.4648 H   0  0  0  0  0  0  0  0  0  0  0  0
  143.1536   78.9069  221.9240 H   0  0  0  0  0  0  0  0  0  0  0  0
  141.2107   81.7607  224.3690 H   0  0  0  0  0  0  0  0  0  0  0  0
  139.1618   80.3220  224.3666 H   0  0  0  0  0  0  0  0  0  0  0  0
  139.1294   70.1679  222.4285 H   0  0  0  0  0  0  0  0  0  0  0  0
  139.0323   68.4678  224.2474 H   0  0  0  0  0  0  0  0  0  0  0  0
  139.4958   67.8029  226.5461 H   0  0  0  0  0  0  0  0  0  0  0  0
  141.4387   70.6026  229.2072 H   0  0  0  0  0  0  0  0  0  0  0  0
  141.5090   72.2761  227.3323 H   0  0  0  0  0  0  0  0  0  0  0  0
  1  2  2  0
  2  3  1  0
  3  4  1  0
  4  5  1  0
  5  6  2  0
  5  7  1  0
  7  8  1  0
  8  9  1  0
  9 10  1  0
 10 11  1  0
 11 12  1  0
 12 13  2  0
 13 14  1  0
 14 15  2  0
 15 16  1  0
 16 17  2  0
  2 18  1  0
 18 19  2  0
 19 20  1  0
 20 21  2  0
 21 22  1  0
 22 23  2  0
 23 24  1  0
 23 25  1  0
 25 26  2  0
 26 27  1  0
 27 28  2  0
 11  7  1  0
 17 12  1  0
 28 18  1  0
 27 21  1  0
  3 29  1  0
  4 30  1  0
  4 31  1  0
  8 32  1  0
  8 33  1  0
  9 34  1  0
  9 35  1  0
 10 36  1  0
 10 37  1  0
 11 38  1  1
 13 39  1  0
 15 40  1  0
 16 41  1  0
 19 42  1  0
 20 43  1  0
 22 44  1  0
 25 45  1  0
 26 46  1  0
M  END
>  <smiles>  (99) 
O=C(NCC(=O)N1CCCC1c1cnccn1)c1ccc2cc(F)ccc2n1

>  <score_type>  (99) 
oracle

>  <origin>  (99) 
autodockgpu

>  <m_score__min__energy>  (99) 
-8.5299999999999994

>  <m_primary>  (99) 
energy

>  <rmsd>  (99) 
1.9182534962278557

>  <m_score__min__rmsd>  (99) 
1.9182534962278557

>  <meeko>  (99) 
{"free_energy": -8.01, "intermolecular_energy": -9.5, "internal_energy": -1.28, "cluster_size": 20, "cluster_id": 2, "rank_in_cluster": 12}

>  <energy>  (99) 
-6.62

>  <cluster_rmsd>  (99) 
0.13

>  <cluster>  (99) 
5

$$$$

     RDKit          3D

 46 49  0  0  0  0  0  0  0  0999 V2000
  140.9780   73.5430  220.5290 O   0  0  0  0  0  0  0  0  0  0  0  0
  140.4550   74.3830  221.3250 C   0  0  0  0  0  0  0  0  0  0  0  0
  139.3910   73.9620  222.1910 N   0  0  0  0  0  0  0  0  0  0  0  0
  138.9790   72.5830  222.0970 C   0  0  0  0  0  0  0  0  0  0  0  0
  139.7730   71.6990  222.9760 C   0  0  0  0  0  0  0  0  0  0  0  0
  140.9310   71.9730  223.3840 O   0  0  0  0  0  0  0  0  0  0  0  0
  139.1940   70.4660  223.3790 N   0  0  0  0  0  0  0  0  0  0  0  0
  139.1620   69.2130  222.6180 C   0  0  0  0  0  0  0  0  0  0  0  0
  137.7160   68.8070  222.7770 C   0  0  0  0  0  0  0  0  0  0  0  0
  137.2950   69.4070  224.0950 C   0  0  0  0  0  0  0  0  0  0  0  0
  138.5070   70.1550  224.6190 C   0  0  1  0  0  0  0  0  0  0  0  0
  139.2850   69.3360  225.5520 C   0  0  0  0  0  0  0  0  0  0  0  0
  140.1960   69.8700  226.4360 C   0  0  0  0  0  0  0  0  0  0  0  0
  140.8960   69.0980  227.2810 N   0  0  0  0  0  0  0  0  0  0  0  0
  140.7450   67.7700  227.3090 C   0  0  0  0  0  0  0  0  0  0  0  0
  139.8340   67.2060  226.4300 C   0  0  0  0  0  0  0  0  0  0  0  0
  139.1400   67.9840  225.5890 N   0  0  0  0  0  0  0  0  0  0  0  0
  140.9080   75.7740  221.3840 C   0  0  0  0  0  0  0  0  0  0  0  0
  141.7590   76.2260  220.3910 C   0  0  0  0  0  0  0  0  0  0  0  0
  142.1810   77.5380  220.4550 C   0  0  0  0  0  0  0  0  0  0  0  0
  141.7600   78.3700  221.4850 C   0  0  0  0  0  0  0  0  0  0  0  0
  142.1870   79.6890  221.5460 C   0  0  0  0  0  0  0  0  0  0  0  0
  141.7330   80.4640  222.5950 C   0  0  0  0  0  0  0  0  0  0  0  0
  142.1390   81.7440  222.6650 F   0  0  0  0  0  0  0  0  0  0  0  0
  140.8890   80.0030  223.5740 C   0  0  0  0  0  0  0  0  0  0  0  0
  140.4840   78.6750  223.4770 C   0  0  0  0  0  0  0  0  0  0  0  0
  140.9220   77.8790  222.4400 C   0  0  0  0  0  0  0  0  0  0  0  0
  140.5030   76.5850  222.3800 N   0  0  0  0  0  0  0  0  0  0  0  0
  138.9320   74.6390  222.8670 H   0  0  0  0  0  0  0  0  0  0  0  0
  137.9200   72.5098  222.3853 H   0  0  0  0  0  0  0  0  0  0  0  0
  139.1365   72.2548  221.0590 H   0  0  0  0  0  0  0  0  0  0  0  0
  139.4204   69.3769  221.5614 H   0  0  0  0  0  0  0  0  0  0  0  0
  139.8827   68.4574  222.9639 H   0  0  0  0  0  0  0  0  0  0  0  0
  137.1068   69.2101  221.9546 H   0  0  0  0  0  0  0  0  0  0  0  0
  137.5845   67.7151  222.7548 H   0  0  0  0  0  0  0  0  0  0  0  0
  136.4525   70.0989  223.9485 H   0  0  0  0  0  0  0  0  0  0  0  0
  136.9617   68.6333  224.8023 H   0  0  0  0  0  0  0  0  0  0  0  0
  138.2873   71.0496  225.2202 H   0  0  0  0  0  0  0  0  0  0  0  0
  140.3540   70.9585  226.4497 H   0  0  0  0  0  0  0  0  0  0  0  0
  141.3240   67.1463  228.0059 H   0  0  0  0  0  0  0  0  0  0  0  0
  139.6805   66.1168  226.4229 H   0  0  0  0  0  0  0  0  0  0  0  0
  142.0879   75.5618  219.5782 H   0  0  0  0  0  0  0  0  0  0  0  0
  142.8584   77.9297  219.6819 H   0  0  0  0  0  0  0  0  0  0  0  0
  142.8642   80.1032  220.7845 H   0  0  0  0  0  0  0  0  0  0  0  0
  140.5493   80.6513  224.3951 H   0  0  0  0  0  0  0  0  0  0  0  0
  139.8070   78.2559  224.2360 H   0  0  0  0  0  0  0  0  0  0  0  0
  1  2  2  0
  2  3  1  0
  3  4  1  0
  4  5  1  0
  5  6  2  0
  5  7  1  0
  7  8  1  0
  8  9  1  0
  9 10  1  0
 10 11  1  0
 11 12  1  0
 12 13  2  0
 13 14  1  0
 14 15  2  0
 15 16  1  0
 16 17  2  0
  2 18  1  0
 18 19  2  0
 19 20  1  0
 20 21  2  0
 21 22  1  0
 22 23  2  0
 23 24  1  0
 23 25  1  0
 25 26  2  0
 26 27  1  0
 27 28  2  0
 11  7  1  0
 17 12  1  0
 28 18  1  0
 27 21  1  0
  3 29  1  0
  4 30  1  0
  4 31  1  0
  8 32  1  0
  8 33  1  0
  9 34  1  0
  9 35  1  0
 10 36  1  0
 10 37  1  0
 11 38  1  1
 13 39  1  0
 15 40  1  0
 16 41  1  0
 19 42  1  0
 20 43  1  0
 22 44  1  0
 25 45  1  0
 26 46  1  0
M  END
>  <smiles>  (100) 
O=C(NCC(=O)N1CCCC1c1cnccn1)c1ccc2cc(F)ccc2n1

>  <score_type>  (100) 
oracle

>  <origin>  (100) 
autodockgpu

>  <m_score__min__energy>  (100) 
-8.5299999999999994

>  <m_primary>  (100) 
energy

>  <rmsd>  (100) 
9.159057160574095

>  <m_score__min__rmsd>  (100) 
9.159057160574095

>  <meeko>  (100) 
{"free_energy": -7.67, "intermolecular_energy": -9.16, "internal_energy": -1.38, "cluster_size": 4, "cluster_id": 3, "rank_in_cluster": 2}

>  <energy>  (100) 
-6.1

>  <cluster_rmsd>  (100) 
1.0

>  <cluster>  (100) 
5

$$$$
