
     RDKit          3D

 48 51  0  0  0  0  0  0  0  0999 V2000
  139.1640   74.3940  221.8270 O   0  0  0  0  0  0  0  0  0  0  0  0
  140.1870   75.1440  221.9250 C   0  0  0  0  0  0  0  0  0  0  0  0
  141.4830   74.6250  221.6180 N   0  0  0  0  0  0  0  0  0  0  0  0
  141.6890   73.2520  221.1880 C   0  0  0  0  0  0  0  0  0  0  0  0
  142.6330   73.2580  220.0690 C   0  0  0  0  0  0  0  0  0  0  0  0
  143.5630   72.4220  219.9300 O   0  0  0  0  0  0  0  0  0  0  0  0
  142.5180   74.2570  219.0610 N   0  0  0  0  0  0  0  0  0  0  0  0
  141.3220   74.3560  218.2230 C   0  0  0  0  0  0  0  0  0  0  0  0
  141.6260   74.6280  216.8020 C   0  0  0  0  0  0  0  0  0  0  0  0
  143.0510   74.6460  216.3880 C   0  0  0  0  0  0  0  0  0  0  0  0
  144.0760   74.8830  217.4230 C   0  0  0  0  0  0  0  0  0  0  0  0
  143.5590   75.2360  218.7960 C   0  0  1  0  0  0  0  0  0  0  0  0
  143.0060   76.6150  218.8520 C   0  0  0  0  0  0  0  0  0  0  0  0
  142.8540   77.4400  217.8130 N   0  0  0  0  0  0  0  0  0  0  0  0
  142.3240   78.6110  218.2260 C   0  0  0  0  0  0  0  0  0  0  0  0
  142.1370   78.5080  219.6060 C   0  0  0  0  0  0  0  0  0  0  0  0
  142.5700   77.2710  219.9340 N   0  0  0  0  0  0  0  0  0  0  0  0
  140.0520   76.5450  222.3520 C   0  0  0  0  0  0  0  0  0  0  0  0
  138.7910   77.0580  222.5580 C   0  0  0  0  0  0  0  0  0  0  0  0
  138.7280   78.3870  222.9610 C   0  0  0  0  0  0  0  0  0  0  0  0
  139.8640   79.1520  223.1450 C   0  0  0  0  0  0  0  0  0  0  0  0
  139.8160   80.4700  223.5450 C   0  0  0  0  0  0  0  0  0  0  0  0
  138.2780   81.2430  223.8400 Cl  0  0  0  0  0  0  0  0  0  0  0  0
  140.9710   81.1770  223.7110 C   0  0  0  0  0  0  0  0  0  0  0  0
  142.2280   80.6210  223.4920 C   0  0  0  0  0  0  0  0  0  0  0  0
  142.2670   79.2900  223.0900 C   0  0  0  0  0  0  0  0  0  0  0  0
  141.1060   78.5880  222.9250 C   0  0  0  0  0  0  0  0  0  0  0  0
  141.1530   77.3070  222.5370 N   0  0  0  0  0  0  0  0  0  0  0  0
  142.2910   75.3030  221.7200 H   0  0  0  0  0  0  0  0  0  0  0  0
  142.1004   72.6597  222.0187 H   0  0  0  0  0  0  0  0  0  0  0  0
  140.7336   72.8050  220.8758 H   0  0  0  0  0  0  0  0  0  0  0  0
  140.7711   73.4060  218.2868 H   0  0  0  0  0  0  0  0  0  0  0  0
  140.7299   75.2038  218.5982 H   0  0  0  0  0  0  0  0  0  0  0  0
  141.1212   73.8542  216.2051 H   0  0  0  0  0  0  0  0  0  0  0  0
  141.2779   75.6585  216.6377 H   0  0  0  0  0  0  0  0  0  0  0  0
  143.2697   73.6701  215.9301 H   0  0  0  0  0  0  0  0  0  0  0  0
  143.1299   75.5181  215.7222 H   0  0  0  0  0  0  0  0  0  0  0  0
  144.6792   73.9678  217.5153 H   0  0  0  0  0  0  0  0  0  0  0  0
  144.6427   75.7627  217.0838 H   0  0  0  0  0  0  0  0  0  0  0  0
  144.3662   75.2144  219.5429 H   0  0  0  0  0  0  0  0  0  0  0  0
  142.0851   79.4803  217.5957 H   0  0  0  0  0  0  0  0  0  0  0  0
  141.7248   79.2715  220.2821 H   0  0  0  0  0  0  0  0  0  0  0  0
  142.5420   76.9260  220.9220 H   0  0  0  0  0  0  0  0  0  0  0  0
  137.8853   76.4510  222.4121 H   0  0  0  0  0  0  0  0  0  0  0  0
  137.7433   78.8438  223.1389 H   0  0  0  0  0  0  0  0  0  0  0  0
  140.9062   82.2276  224.0304 H   0  0  0  0  0  0  0  0  0  0  0  0
  143.1484   81.2073  223.6305 H   0  0  0  0  0  0  0  0  0  0  0  0
  143.2348   78.8011  222.9044 H   0  0  0  0  0  0  0  0  0  0  0  0
  1  2  2  0
  2  3  1  0
  3  4  1  0
  4  5  1  0
  5  6  2  0
  5  7  1  0
  7  8  1  0
  8  9  1  0
  9 10  1  0
 10 11  1  0
 11 12  1  0
 12 13  1  0
 13 14  2  0
 14 15  1  0
 15 16  2  0
 16 17  1  0
  2 18  1  0
 18 19  2  0
 19 20  1  0
 20 21  2  0
 21 22  1  0
 22 23  1  0
 22 24  2  0
 24 25  1  0
 25 26  2  0
 26 27  1  0
 27 28  2  0
 12  7  1  0
 17 13  1  0
 28 18  1  0
 27 21  1  0
  3 29  1  0
  4 30  1  0
  4 31  1  0
  8 32  1  0
  8 33  1  0
  9 34  1  0
  9 35  1  0
 10 36  1  0
 10 37  1  0
 11 38  1  0
 11 39  1  0
 12 40  1  1
 15 41  1  0
 16 42  1  0
 17 43  1  0
 19 44  1  0
 20 45  1  0
 24 46  1  0
 25 47  1  0
 26 48  1  0
M  END
>  <smiles>  (1) 
O=C(NCC(=O)N1CCCC[C@H]1c1ncc[nH]1)c1ccc2c(Cl)cccc2n1

>  <score_type>  (1) 
oracle

>  <origin>  (1) 
autodockgpu

>  <m_score__min__energy>  (1) 
-8.8900000000000006

>  <m_primary>  (1) 
energy

>  <rmsd>  (1) 
6.308984611036372

>  <m_score__min__rmsd>  (1) 
6.308984611036372

>  <meeko>  (1) 
{"free_energy": -6.43, "intermolecular_energy": -7.92, "internal_energy": -3.13, "cluster_size": 24, "cluster_id": 7, "rank_in_cluster": 24}

>  <energy>  (1) 
-8.89

>  <cluster_rmsd>  (1) 
0.0

>  <cluster>  (1) 
1

$$$$

     RDKit          3D

 48 51  0  0  0  0  0  0  0  0999 V2000
  139.9760   74.2860  221.9680 O   0  0  0  0  0  0  0  0  0  0  0  0
  140.7550   75.2670  221.7450 C   0  0  0  0  0  0  0  0  0  0  0  0
  141.9570   75.0660  220.9980 N   0  0  0  0  0  0  0  0  0  0  0  0
  142.3350   73.7660  220.4690 C   0  0  0  0  0  0  0  0  0  0  0  0
  142.9950   73.9710  219.1770 C   0  0  0  0  0  0  0  0  0  0  0  0
  143.8580   73.1920  218.6970 O   0  0  0  0  0  0  0  0  0  0  0  0
  142.6610   75.1120  218.3940 N   0  0  0  0  0  0  0  0  0  0  0  0
  141.3620   75.2230  217.7280 C   0  0  0  0  0  0  0  0  0  0  0  0
  141.4520   75.7720  216.3590 C   0  0  0  0  0  0  0  0  0  0  0  0
  142.8040   76.0200  215.7980 C   0  0  0  0  0  0  0  0  0  0  0  0
  143.9290   76.1850  216.7370 C   0  0  0  0  0  0  0  0  0  0  0  0
  143.5680   76.2320  218.2020 C   0  0  1  0  0  0  0  0  0  0  0  0
  142.9070   77.5100  218.5760 C   0  0  0  0  0  0  0  0  0  0  0  0
  142.1110   77.7010  219.6310 N   0  0  0  0  0  0  0  0  0  0  0  0
  141.6860   78.9820  219.6640 C   0  0  0  0  0  0  0  0  0  0  0  0
  142.2520   79.6270  218.5620 C   0  0  0  0  0  0  0  0  0  0  0  0
  142.9860   78.6820  217.9350 N   0  0  0  0  0  0  0  0  0  0  0  0
  140.4340   76.6100  222.2500 C   0  0  0  0  0  0  0  0  0  0  0  0
  139.1180   76.9290  222.4990 C   0  0  0  0  0  0  0  0  0  0  0  0
  138.8780   78.2130  222.9750 C   0  0  0  0  0  0  0  0  0  0  0  0
  139.8990   79.1200  223.1870 C   0  0  0  0  0  0  0  0  0  0  0  0
  139.6750   80.3950  223.6590 C   0  0  0  0  0  0  0  0  0  0  0  0
  138.0500   80.9270  224.0140 Cl  0  0  0  0  0  0  0  0  0  0  0  0
  140.7220   81.2480  223.8490 C   0  0  0  0  0  0  0  0  0  0  0  0
  142.0400   80.8860  223.5850 C   0  0  0  0  0  0  0  0  0  0  0  0
  142.2580   79.5970  223.1100 C   0  0  0  0  0  0  0  0  0  0  0  0
  141.2030   78.7480  222.9210 C   0  0  0  0  0  0  0  0  0  0  0  0
  141.4210   77.5090  222.4630 N   0  0  0  0  0  0  0  0  0  0  0  0
  142.5600   75.9240  220.8490 H   0  0  0  0  0  0  0  0  0  0  0  0
  143.0258   73.2675  221.1649 H   0  0  0  0  0  0  0  0  0  0  0  0
  141.4439   73.1333  220.3440 H   0  0  0  0  0  0  0  0  0  0  0  0
  140.9109   74.2212  217.6735 H   0  0  0  0  0  0  0  0  0  0  0  0
  140.7513   75.9210  218.3194 H   0  0  0  0  0  0  0  0  0  0  0  0
  140.9436   75.0640  215.6880 H   0  0  0  0  0  0  0  0  0  0  0  0
  140.9958   76.7703  216.4314 H   0  0  0  0  0  0  0  0  0  0  0  0
  143.0469   75.1692  215.1444 H   0  0  0  0  0  0  0  0  0  0  0  0
  142.7178   76.9979  215.3018 H   0  0  0  0  0  0  0  0  0  0  0  0
  144.6185   75.3411  216.5874 H   0  0  0  0  0  0  0  0  0  0  0  0
  144.3643   77.1688  216.5076 H   0  0  0  0  0  0  0  0  0  0  0  0
  144.4644   76.1691  218.8364 H   0  0  0  0  0  0  0  0  0  0  0  0
  141.0207   79.4320  220.4156 H   0  0  0  0  0  0  0  0  0  0  0  0
  142.1268   80.6795  218.2676 H   0  0  0  0  0  0  0  0  0  0  0  0
  143.5260   78.8990  217.0630 H   0  0  0  0  0  0  0  0  0  0  0  0
  138.3033   76.2093  222.3309 H   0  0  0  0  0  0  0  0  0  0  0  0
  137.8428   78.5166  223.1897 H   0  0  0  0  0  0  0  0  0  0  0  0
  140.5171   82.2611  224.2254 H   0  0  0  0  0  0  0  0  0  0  0  0
  142.8718   81.5879  223.7449 H   0  0  0  0  0  0  0  0  0  0  0  0
  143.2809   79.2601  222.8860 H   0  0  0  0  0  0  0  0  0  0  0  0
  1  2  2  0
  2  3  1  0
  3  4  1  0
  4  5  1  0
  5  6  2  0
  5  7  1  0
  7  8  1  0
  8  9  1  0
  9 10  1  0
 10 11  1  0
 11 12  1  0
 12 13  1  0
 13 14  2  0
 14 15  1  0
 15 16  2  0
 16 17  1  0
  2 18  1  0
 18 19  2  0
 19 20  1  0
 20 21  2  0
 21 22  1  0
 22 23  1  0
 22 24  2  0
 24 25  1  0
 25 26  2  0
 26 27  1  0
 27 28  2  0
 12  7  1  0
 17 13  1  0
 28 18  1  0
 27 21  1  0
  3 29  1  0
  4 30  1  0
  4 31  1  0
  8 32  1  0
  8 33  1  0
  9 34  1  0
  9 35  1  0
 10 36  1  0
 10 37  1  0
 11 38  1  0
 11 39  1  0
 12 40  1  1
 15 41  1  0
 16 42  1  0
 17 43  1  0
 19 44  1  0
 20 45  1  0
 24 46  1  0
 25 47  1  0
 26 48  1  0
M  END
>  <smiles>  (2) 
O=C(NCC(=O)N1CCCC[C@H]1c1ncc[nH]1)c1ccc2c(Cl)cccc2n1

>  <score_type>  (2) 
oracle

>  <origin>  (2) 
autodockgpu

>  <m_score__min__energy>  (2) 
-8.8900000000000006

>  <m_primary>  (2) 
energy

>  <rmsd>  (2) 
6.4110951156046285

>  <m_score__min__rmsd>  (2) 
6.4110951156046285

>  <meeko>  (2) 
{"free_energy": -7.02, "intermolecular_energy": -8.51, "internal_energy": -3.07, "cluster_size": 24, "cluster_id": 7, "rank_in_cluster": 7}

>  <energy>  (2) 
-8.85

>  <cluster_rmsd>  (2) 
1.03

>  <cluster>  (2) 
1

$$$$

     RDKit          3D

 48 51  0  0  0  0  0  0  0  0999 V2000
  141.1250   72.1590  221.3750 O   0  0  0  0  0  0  0  0  0  0  0  0
  140.3190   72.4010  222.3290 C   0  0  0  0  0  0  0  0  0  0  0  0
  139.4570   73.5390  222.2610 N   0  0  0  0  0  0  0  0  0  0  0  0
  139.4590   74.4490  221.1280 C   0  0  0  0  0  0  0  0  0  0  0  0
  140.6470   75.3000  221.2230 C   0  0  0  0  0  0  0  0  0  0  0  0
  141.8270   74.8660  221.1830 O   0  0  0  0  0  0  0  0  0  0  0  0
  140.4910   76.7070  221.3710 N   0  0  0  0  0  0  0  0  0  0  0  0
  139.2490   77.2830  221.8890 C   0  0  0  0  0  0  0  0  0  0  0  0
  138.8210   78.4970  221.1630 C   0  0  0  0  0  0  0  0  0  0  0  0
  139.6000   78.9020  219.9670 C   0  0  0  0  0  0  0  0  0  0  0  0
  140.9860   78.4130  219.8390 C   0  0  0  0  0  0  0  0  0  0  0  0
  141.5340   77.6590  221.0260 C   0  0  1  0  0  0  0  0  0  0  0  0
  141.8250   78.5550  222.1760 C   0  0  0  0  0  0  0  0  0  0  0  0
  141.3930   78.3890  223.4280 N   0  0  0  0  0  0  0  0  0  0  0  0
  141.8460   79.3910  224.2120 C   0  0  0  0  0  0  0  0  0  0  0  0
  142.6060   80.2320  223.3960 C   0  0  0  0  0  0  0  0  0  0  0  0
  142.5590   79.6750  222.1660 N   0  0  0  0  0  0  0  0  0  0  0  0
  140.2640   71.5220  223.5070 C   0  0  0  0  0  0  0  0  0  0  0  0
  139.7960   70.2360  223.3540 C   0  0  0  0  0  0  0  0  0  0  0  0
  139.7680   69.4530  224.5030 C   0  0  0  0  0  0  0  0  0  0  0  0
  140.1850   69.9350  225.7290 C   0  0  0  0  0  0  0  0  0  0  0  0
  140.1620   69.1710  226.8750 C   0  0  0  0  0  0  0  0  0  0  0  0
  139.5910   67.5210  226.8200 Cl  0  0  0  0  0  0  0  0  0  0  0  0
  140.5860   69.6990  228.0590 C   0  0  0  0  0  0  0  0  0  0  0  0
  141.0530   71.0060  228.1710 C   0  0  0  0  0  0  0  0  0  0  0  0
  141.0730   71.7710  227.0100 C   0  0  0  0  0  0  0  0  0  0  0  0
  140.6460   71.2340  225.8270 C   0  0  0  0  0  0  0  0  0  0  0  0
  140.6680   71.9780  224.7130 N   0  0  0  0  0  0  0  0  0  0  0  0
  138.8110   73.6830  223.0890 H   0  0  0  0  0  0  0  0  0  0  0  0
  139.4869   73.8750  220.1901 H   0  0  0  0  0  0  0  0  0  0  0  0
  138.5489   75.0668  221.1369 H   0  0  0  0  0  0  0  0  0  0  0  0
  138.4531   76.5282  221.8070 H   0  0  0  0  0  0  0  0  0  0  0  0
  139.4359   77.5760  222.9327 H   0  0  0  0  0  0  0  0  0  0  0  0
  137.7826   78.3353  220.8381 H   0  0  0  0  0  0  0  0  0  0  0  0
  138.9733   79.3159  221.8815 H   0  0  0  0  0  0  0  0  0  0  0  0
  139.0472   78.5504  219.0834 H   0  0  0  0  0  0  0  0  0  0  0  0
  139.7040   79.9926  220.0661 H   0  0  0  0  0  0  0  0  0  0  0  0
  141.0276   77.7439  218.9669 H   0  0  0  0  0  0  0  0  0  0  0  0
  141.6107   79.3136  219.7457 H   0  0  0  0  0  0  0  0  0  0  0  0
  142.4914   77.1749  220.7832 H   0  0  0  0  0  0  0  0  0  0  0  0
  141.6533   79.5201  225.2873 H   0  0  0  0  0  0  0  0  0  0  0  0
  143.1311   81.1522  223.6919 H   0  0  0  0  0  0  0  0  0  0  0  0
  143.0520   80.1080  221.3500 H   0  0  0  0  0  0  0  0  0  0  0  0
  139.4634   69.8502  222.3790 H   0  0  0  0  0  0  0  0  0  0  0  0
  139.4025   68.4178  224.4337 H   0  0  0  0  0  0  0  0  0  0  0  0
  140.5579   69.0682  228.9598 H   0  0  0  0  0  0  0  0  0  0  0  0
  141.3909   71.4150  229.1346 H   0  0  0  0  0  0  0  0  0  0  0  0
  141.4329   72.8099  227.0432 H   0  0  0  0  0  0  0  0  0  0  0  0
  1  2  2  0
  2  3  1  0
  3  4  1  0
  4  5  1  0
  5  6  2  0
  5  7  1  0
  7  8  1  0
  8  9  1  0
  9 10  1  0
 10 11  1  0
 11 12  1  0
 12 13  1  0
 13 14  2  0
 14 15  1  0
 15 16  2  0
 16 17  1  0
  2 18  1  0
 18 19  2  0
 19 20  1  0
 20 21  2  0
 21 22  1  0
 22 23  1  0
 22 24  2  0
 24 25  1  0
 25 26  2  0
 26 27  1  0
 27 28  2  0
 12  7  1  0
 17 13  1  0
 28 18  1  0
 27 21  1  0
  3 29  1  0
  4 30  1  0
  4 31  1  0
  8 32  1  0
  8 33  1  0
  9 34  1  0
  9 35  1  0
 10 36  1  0
 10 37  1  0
 11 38  1  0
 11 39  1  0
 12 40  1  6
 15 41  1  0
 16 42  1  0
 17 43  1  0
 19 44  1  0
 20 45  1  0
 24 46  1  0
 25 47  1  0
 26 48  1  0
M  END
>  <smiles>  (3) 
O=C(NCC(=O)N1CCCC[C@H]1c1ncc[nH]1)c1ccc2c(Cl)cccc2n1

>  <score_type>  (3) 
oracle

>  <origin>  (3) 
autodockgpu

>  <m_score__min__energy>  (3) 
-8.8900000000000006

>  <m_primary>  (3) 
energy

>  <rmsd>  (3) 
2.334939163094113

>  <m_score__min__rmsd>  (3) 
2.334939163094113

>  <meeko>  (3) 
{"free_energy": -8.89, "intermolecular_energy": -10.38, "internal_energy": -1.28, "cluster_size": 12, "cluster_id": 1, "rank_in_cluster": 1}

>  <energy>  (3) 
-8.76

>  <cluster_rmsd>  (3) 
0.97

>  <cluster>  (3) 
1

$$$$

     RDKit          3D

 48 51  0  0  0  0  0  0  0  0999 V2000
  139.7030   71.6200  220.9880 O   0  0  0  0  0  0  0  0  0  0  0  0
  139.7110   72.1530  222.1430 C   0  0  0  0  0  0  0  0  0  0  0  0
  139.5870   73.5700  222.2740 N   0  0  0  0  0  0  0  0  0  0  0  0
  139.4480   74.4490  221.1240 C   0  0  0  0  0  0  0  0  0  0  0  0
  140.6240   75.3190  221.0670 C   0  0  0  0  0  0  0  0  0  0  0  0
  140.8680   76.2270  221.9030 O   0  0  0  0  0  0  0  0  0  0  0  0
  141.5670   75.1530  220.0130 N   0  0  0  0  0  0  0  0  0  0  0  0
  141.3700   74.1460  218.9690 C   0  0  0  0  0  0  0  0  0  0  0  0
  142.6110   73.4280  218.6090 C   0  0  0  0  0  0  0  0  0  0  0  0
  143.8330   73.7150  219.4000 C   0  0  0  0  0  0  0  0  0  0  0  0
  143.9040   74.9910  220.1380 C   0  0  0  0  0  0  0  0  0  0  0  0
  142.7710   75.9590  219.8950 C   0  0  1  0  0  0  0  0  0  0  0  0
  142.8500   76.5890  218.5510 C   0  0  0  0  0  0  0  0  0  0  0  0
  142.0490   77.5520  218.0900 N   0  0  0  0  0  0  0  0  0  0  0  0
  142.4050   77.8870  216.8310 C   0  0  0  0  0  0  0  0  0  0  0  0
  143.4940   77.0820  216.4900 C   0  0  0  0  0  0  0  0  0  0  0  0
  143.7220   76.3110  217.5750 N   0  0  0  0  0  0  0  0  0  0  0  0
  139.8470   71.3240  223.3500 C   0  0  0  0  0  0  0  0  0  0  0  0
  139.5140   69.9900  223.2810 C   0  0  0  0  0  0  0  0  0  0  0  0
  139.6640   69.2590  224.4550 C   0  0  0  0  0  0  0  0  0  0  0  0
  140.1210   69.8350  225.6250 C   0  0  0  0  0  0  0  0  0  0  0  0
  140.2750   69.1230  226.7940 C   0  0  0  0  0  0  0  0  0  0  0  0
  139.8870   67.4210  226.8430 Cl  0  0  0  0  0  0  0  0  0  0  0  0
  140.7310   69.7450  227.9190 C   0  0  0  0  0  0  0  0  0  0  0  0
  141.0580   71.0980  227.9470 C   0  0  0  0  0  0  0  0  0  0  0  0
  140.9000   71.8090  226.7630 C   0  0  0  0  0  0  0  0  0  0  0  0
  140.4420   71.1790  225.6390 C   0  0  0  0  0  0  0  0  0  0  0  0
  140.2930   71.8720  224.5030 N   0  0  0  0  0  0  0  0  0  0  0  0
  139.6000   73.9490  223.2640 H   0  0  0  0  0  0  0  0  0  0  0  0
  139.3831   73.8502  220.2036 H   0  0  0  0  0  0  0  0  0  0  0  0
  138.5333   75.0530  221.2164 H   0  0  0  0  0  0  0  0  0  0  0  0
  140.6328   73.4119  219.3263 H   0  0  0  0  0  0  0  0  0  0  0  0
  141.0252   74.6737  218.0676 H   0  0  0  0  0  0  0  0  0  0  0  0
  142.4055   72.3514  218.7025 H   0  0  0  0  0  0  0  0  0  0  0  0
  142.8496   73.7806  217.5947 H   0  0  0  0  0  0  0  0  0  0  0  0
  143.9415   72.9058  220.1371 H   0  0  0  0  0  0  0  0  0  0  0  0
  144.6321   73.7911  218.6479 H   0  0  0  0  0  0  0  0  0  0  0  0
  143.9230   74.7577  221.2128 H   0  0  0  0  0  0  0  0  0  0  0  0
  144.8099   75.4960  219.7715 H   0  0  0  0  0  0  0  0  0  0  0  0
  142.7977   76.7936  220.6110 H   0  0  0  0  0  0  0  0  0  0  0  0
  141.9284   78.6482  216.1958 H   0  0  0  0  0  0  0  0  0  0  0  0
  144.0482   77.0770  215.5398 H   0  0  0  0  0  0  0  0  0  0  0  0
  144.4950   75.6040  217.5910 H   0  0  0  0  0  0  0  0  0  0  0  0
  139.1503   69.5287  222.3510 H   0  0  0  0  0  0  0  0  0  0  0  0
  139.4108   68.1885  224.4519 H   0  0  0  0  0  0  0  0  0  0  0  0
  140.8448   69.1546  228.8401 H   0  0  0  0  0  0  0  0  0  0  0  0
  141.4246   71.5822  228.8641 H   0  0  0  0  0  0  0  0  0  0  0  0
  141.1440   72.8811  226.7301 H   0  0  0  0  0  0  0  0  0  0  0  0
  1  2  2  0
  2  3  1  0
  3  4  1  0
  4  5  1  0
  5  6  2  0
  5  7  1  0
  7  8  1  0
  8  9  1  0
  9 10  1  0
 10 11  1  0
 11 12  1  0
 12 13  1  0
 13 14  2  0
 14 15  1  0
 15 16  2  0
 16 17  1  0
  2 18  1  0
 18 19  2  0
 19 20  1  0
 20 21  2  0
 21 22  1  0
 22 23  1  0
 22 24  2  0
 24 25  1  0
 25 26  2  0
 26 27  1  0
 27 28  2  0
 12  7  1  0
 17 13  1  0
 28 18  1  0
 27 21  1  0
  3 29  1  0
  4 30  1  0
  4 31  1  0
  8 32  1  0
  8 33  1  0
  9 34  1  0
  9 35  1  0
 10 36  1  0
 10 37  1  0
 11 38  1  0
 11 39  1  0
 12 40  1  1
 15 41  1  0
 16 42  1  0
 17 43  1  0
 19 44  1  0
 20 45  1  0
 24 46  1  0
 25 47  1  0
 26 48  1  0
M  END
>  <smiles>  (4) 
O=C(NCC(=O)N1CCCC[C@H]1c1ncc[nH]1)c1ccc2c(Cl)cccc2n1

>  <score_type>  (4) 
oracle

>  <origin>  (4) 
autodockgpu

>  <m_score__min__energy>  (4) 
-8.8900000000000006

>  <m_primary>  (4) 
energy

>  <rmsd>  (4) 
3.2516233841250157

>  <m_score__min__rmsd>  (4) 
3.2516233841250157

>  <meeko>  (4) 
{"free_energy": -7.84, "intermolecular_energy": -9.33, "internal_energy": -1.83, "cluster_size": 1, "cluster_id": 4, "rank_in_cluster": 1}

>  <energy>  (4) 
-8.74

>  <cluster_rmsd>  (4) 
0.36

>  <cluster>  (4) 
1

$$$$

     RDKit          3D

 48 51  0  0  0  0  0  0  0  0999 V2000
  140.0120   74.2880  221.9760 O   0  0  0  0  0  0  0  0  0  0  0  0
  140.7800   75.2770  221.7520 C   0  0  0  0  0  0  0  0  0  0  0  0
  141.9800   75.0890  221.0000 N   0  0  0  0  0  0  0  0  0  0  0  0
  142.3710   73.7940  220.4680 C   0  0  0  0  0  0  0  0  0  0  0  0
  142.9880   74.0040  219.1560 C   0  0  0  0  0  0  0  0  0  0  0  0
  143.8310   73.2240  218.6430 O   0  0  0  0  0  0  0  0  0  0  0  0
  142.6330   75.1500  218.3900 N   0  0  0  0  0  0  0  0  0  0  0  0
  141.3180   75.2650  217.7580 C   0  0  0  0  0  0  0  0  0  0  0  0
  141.3730   75.8250  216.3920 C   0  0  0  0  0  0  0  0  0  0  0  0
  142.7100   76.0800  215.8000 C   0  0  0  0  0  0  0  0  0  0  0  0
  143.8580   76.2380  216.7120 C   0  0  0  0  0  0  0  0  0  0  0  0
  143.5330   76.2730  218.1850 C   0  0  1  0  0  0  0  0  0  0  0  0
  142.8790   77.5470  218.5860 C   0  0  0  0  0  0  0  0  0  0  0  0
  142.0960   77.7240  219.6520 N   0  0  0  0  0  0  0  0  0  0  0  0
  141.6750   79.0060  219.7100 C   0  0  0  0  0  0  0  0  0  0  0  0
  142.2300   79.6650  218.6120 C   0  0  0  0  0  0  0  0  0  0  0  0
  142.9550   78.7290  217.9620 N   0  0  0  0  0  0  0  0  0  0  0  0
  140.4460   76.6170  222.2590 C   0  0  0  0  0  0  0  0  0  0  0  0
  139.1280   76.9230  222.5090 C   0  0  0  0  0  0  0  0  0  0  0  0
  138.8760   78.2040  222.9880 C   0  0  0  0  0  0  0  0  0  0  0  0
  139.8890   79.1200  223.2000 C   0  0  0  0  0  0  0  0  0  0  0  0
  139.6530   80.3920  223.6740 C   0  0  0  0  0  0  0  0  0  0  0  0
  138.0240   80.9090  224.0310 Cl  0  0  0  0  0  0  0  0  0  0  0  0
  140.6930   81.2550  223.8640 C   0  0  0  0  0  0  0  0  0  0  0  0
  142.0140   80.9060  223.5990 C   0  0  0  0  0  0  0  0  0  0  0  0
  142.2430   79.6190  223.1210 C   0  0  0  0  0  0  0  0  0  0  0  0
  141.1960   78.7610  222.9320 C   0  0  0  0  0  0  0  0  0  0  0  0
  141.4250   77.5240  222.4720 N   0  0  0  0  0  0  0  0  0  0  0  0
  142.5750   75.9540  220.8490 H   0  0  0  0  0  0  0  0  0  0  0  0
  143.0928   73.3156  221.1464 H   0  0  0  0  0  0  0  0  0  0  0  0
  141.4907   73.1413  220.3732 H   0  0  0  0  0  0  0  0  0  0  0  0
  140.8665   74.2632  217.7067 H   0  0  0  0  0  0  0  0  0  0  0  0
  140.7218   75.9576  218.3702 H   0  0  0  0  0  0  0  0  0  0  0  0
  140.8494   75.1214  215.7280 H   0  0  0  0  0  0  0  0  0  0  0  0
  140.9169   76.8218  216.4836 H   0  0  0  0  0  0  0  0  0  0  0  0
  142.9375   75.2356  215.1328 H   0  0  0  0  0  0  0  0  0  0  0  0
  142.6102   77.0624  215.3152 H   0  0  0  0  0  0  0  0  0  0  0  0
  144.5439   75.3957  216.5387 H   0  0  0  0  0  0  0  0  0  0  0  0
  144.2876   77.2236  216.4797 H   0  0  0  0  0  0  0  0  0  0  0  0
  144.4450   76.2071  218.7965 H   0  0  0  0  0  0  0  0  0  0  0  0
  141.0200   79.4465  220.4761 H   0  0  0  0  0  0  0  0  0  0  0  0
  142.1038   80.7220  218.3349 H   0  0  0  0  0  0  0  0  0  0  0  0
  143.4850   78.9570  217.0880 H   0  0  0  0  0  0  0  0  0  0  0  0
  138.3200   76.1960  222.3397 H   0  0  0  0  0  0  0  0  0  0  0  0
  137.8383   78.4973  223.2049 H   0  0  0  0  0  0  0  0  0  0  0  0
  140.4789   82.2658  224.2413 H   0  0  0  0  0  0  0  0  0  0  0  0
  142.8395   81.6150  223.7600 H   0  0  0  0  0  0  0  0  0  0  0  0
  143.2686   79.2918  222.8949 H   0  0  0  0  0  0  0  0  0  0  0  0
  1  2  2  0
  2  3  1  0
  3  4  1  0
  4  5  1  0
  5  6  2  0
  5  7  1  0
  7  8  1  0
  8  9  1  0
  9 10  1  0
 10 11  1  0
 11 12  1  0
 12 13  1  0
 13 14  2  0
 14 15  1  0
 15 16  2  0
 16 17  1  0
  2 18  1  0
 18 19  2  0
 19 20  1  0
 20 21  2  0
 21 22  1  0
 22 23  1  0
 22 24  2  0
 24 25  1  0
 25 26  2  0
 26 27  1  0
 27 28  2  0
 12  7  1  0
 17 13  1  0
 28 18  1  0
 27 21  1  0
  3 29  1  0
  4 30  1  0
  4 31  1  0
  8 32  1  0
  8 33  1  0
  9 34  1  0
  9 35  1  0
 10 36  1  0
 10 37  1  0
 11 38  1  0
 11 39  1  0
 12 40  1  1
 15 41  1  0
 16 42  1  0
 17 43  1  0
 19 44  1  0
 20 45  1  0
 24 46  1  0
 25 47  1  0
 26 48  1  0
M  END
>  <smiles>  (5) 
O=C(NCC(=O)N1CCCC[C@H]1c1ncc[nH]1)c1ccc2c(Cl)cccc2n1

>  <score_type>  (5) 
oracle

>  <origin>  (5) 
autodockgpu

>  <m_score__min__energy>  (5) 
-8.8900000000000006

>  <m_primary>  (5) 
energy

>  <rmsd>  (5) 
6.405439165160441

>  <m_score__min__rmsd>  (5) 
6.405439165160441

>  <meeko>  (5) 
{"free_energy": -7.04, "intermolecular_energy": -8.53, "internal_energy": -3.08, "cluster_size": 24, "cluster_id": 7, "rank_in_cluster": 1}

>  <energy>  (5) 
-8.74

>  <cluster_rmsd>  (5) 
0.98

>  <cluster>  (5) 
1

$$$$

     RDKit          3D

 48 51  0  0  0  0  0  0  0  0999 V2000
  141.2000   74.5800  221.1080 O   0  0  0  0  0  0  0  0  0  0  0  0
  140.2320   74.9120  221.8630 C   0  0  0  0  0  0  0  0  0  0  0  0
  139.3050   73.9210  222.3110 N   0  0  0  0  0  0  0  0  0  0  0  0
  139.4220   72.5210  221.9360 C   0  0  0  0  0  0  0  0  0  0  0  0
  138.4260   71.7590  222.6930 C   0  0  0  0  0  0  0  0  0  0  0  0
  137.3410   72.2390  223.1090 O   0  0  0  0  0  0  0  0  0  0  0  0
  138.6730   70.3890  222.9910 N   0  0  0  0  0  0  0  0  0  0  0  0
  139.5760   69.5830  222.1690 C   0  0  0  0  0  0  0  0  0  0  0  0
  139.0710   68.2180  221.9110 C   0  0  0  0  0  0  0  0  0  0  0  0
  137.7080   67.8800  222.3920 C   0  0  0  0  0  0  0  0  0  0  0  0
  137.1330   68.6890  223.4840 C   0  0  0  0  0  0  0  0  0  0  0  0
  138.0570   69.7020  224.1150 C   0  0  1  0  0  0  0  0  0  0  0  0
  139.0930   69.0620  224.9680 C   0  0  0  0  0  0  0  0  0  0  0  0
  139.1530   67.7680  225.2910 N   0  0  0  0  0  0  0  0  0  0  0  0
  140.2240   67.5360  226.0790 C   0  0  0  0  0  0  0  0  0  0  0  0
  140.8690   68.7610  226.2580 C   0  0  0  0  0  0  0  0  0  0  0  0
  140.1380   69.6560  225.5590 N   0  0  0  0  0  0  0  0  0  0  0  0
  140.0540   76.3110  222.2820 C   0  0  0  0  0  0  0  0  0  0  0  0
  138.7770   76.8110  222.3980 C   0  0  0  0  0  0  0  0  0  0  0  0
  138.6730   78.1390  222.7980 C   0  0  0  0  0  0  0  0  0  0  0  0
  139.7850   78.9140  223.0650 C   0  0  0  0  0  0  0  0  0  0  0  0
  139.6970   80.2310  223.4620 C   0  0  0  0  0  0  0  0  0  0  0  0
  138.1340   80.9890  223.6470 Cl  0  0  0  0  0  0  0  0  0  0  0  0
  140.8300   80.9480  223.7120 C   0  0  0  0  0  0  0  0  0  0  0  0
  142.1040   80.4040  223.5830 C   0  0  0  0  0  0  0  0  0  0  0  0
  142.1850   79.0740  223.1820 C   0  0  0  0  0  0  0  0  0  0  0  0
  141.0450   78.3620  222.9330 C   0  0  0  0  0  0  0  0  0  0  0  0
  141.1320   77.0820  222.5470 N   0  0  0  0  0  0  0  0  0  0  0  0
  138.5230   74.2650  222.9370 H   0  0  0  0  0  0  0  0  0  0  0  0
  139.2366   72.4077  220.8577 H   0  0  0  0  0  0  0  0  0  0  0  0
  140.4335   72.1512  222.1599 H   0  0  0  0  0  0  0  0  0  0  0  0
  139.7166   70.0914  221.2037 H   0  0  0  0  0  0  0  0  0  0  0  0
  140.5193   69.4813  222.7256 H   0  0  0  0  0  0  0  0  0  0  0  0
  139.0814   68.0652  220.8217 H   0  0  0  0  0  0  0  0  0  0  0  0
  139.7385   67.5626  222.4897 H   0  0  0  0  0  0  0  0  0  0  0  0
  137.0283   67.9640  221.5312 H   0  0  0  0  0  0  0  0  0  0  0  0
  137.8134   66.8741  222.8246 H   0  0  0  0  0  0  0  0  0  0  0  0
  136.2651   69.2309  223.0801 H   0  0  0  0  0  0  0  0  0  0  0  0
  136.8860   67.9749  224.2834 H   0  0  0  0  0  0  0  0  0  0  0  0
  137.5076   70.3823  224.7824 H   0  0  0  0  0  0  0  0  0  0  0  0
  140.5301   66.5668  226.4997 H   0  0  0  0  0  0  0  0  0  0  0  0
  141.7793   68.9559  226.8439 H   0  0  0  0  0  0  0  0  0  0  0  0
  140.4020   70.6690  225.5210 H   0  0  0  0  0  0  0  0  0  0  0  0
  137.8899   76.1959  222.1866 H   0  0  0  0  0  0  0  0  0  0  0  0
  137.6738   78.5863  222.9052 H   0  0  0  0  0  0  0  0  0  0  0  0
  140.7327   81.9972  224.0279 H   0  0  0  0  0  0  0  0  0  0  0  0
  143.0064   80.9984  223.7887 H   0  0  0  0  0  0  0  0  0  0  0  0
  143.1682   78.5947  223.0652 H   0  0  0  0  0  0  0  0  0  0  0  0
  1  2  2  0
  2  3  1  0
  3  4  1  0
  4  5  1  0
  5  6  2  0
  5  7  1  0
  7  8  1  0
  8  9  1  0
  9 10  1  0
 10 11  1  0
 11 12  1  0
 12 13  1  0
 13 14  2  0
 14 15  1  0
 15 16  2  0
 16 17  1  0
  2 18  1  0
 18 19  2  0
 19 20  1  0
 20 21  2  0
 21 22  1  0
 22 23  1  0
 22 24  2  0
 24 25  1  0
 25 26  2  0
 26 27  1  0
 27 28  2  0
 12  7  1  0
 17 13  1  0
 28 18  1  0
 27 21  1  0
  3 29  1  0
  4 30  1  0
  4 31  1  0
  8 32  1  0
  8 33  1  0
  9 34  1  0
  9 35  1  0
 10 36  1  0
 10 37  1  0
 11 38  1  0
 11 39  1  0
 12 40  1  1
 15 41  1  0
 16 42  1  0
 17 43  1  0
 19 44  1  0
 20 45  1  0
 24 46  1  0
 25 47  1  0
 26 48  1  0
M  END
>  <smiles>  (6) 
O=C(NCC(=O)N1CCCC[C@H]1c1ncc[nH]1)c1ccc2c(Cl)cccc2n1

>  <score_type>  (6) 
oracle

>  <origin>  (6) 
autodockgpu

>  <m_score__min__energy>  (6) 
-8.8900000000000006

>  <m_primary>  (6) 
energy

>  <rmsd>  (6) 
8.668697333178415

>  <m_score__min__rmsd>  (6) 
8.668697333178415

>  <meeko>  (6) 
{"free_energy": -7.47, "intermolecular_energy": -8.96, "internal_energy": -1.69, "cluster_size": 2, "cluster_id": 3, "rank_in_cluster": 2}

>  <energy>  (6) 
-8.67

>  <cluster_rmsd>  (6) 
0.96

>  <cluster>  (6) 
1

$$$$

     RDKit          3D

 48 51  0  0  0  0  0  0  0  0999 V2000
  140.0810   74.2710  222.0090 O   0  0  0  0  0  0  0  0  0  0  0  0
  140.8310   75.2720  221.7760 C   0  0  0  0  0  0  0  0  0  0  0  0
  142.0360   75.1000  221.0270 N   0  0  0  0  0  0  0  0  0  0  0  0
  142.4510   73.8080  220.5070 C   0  0  0  0  0  0  0  0  0  0  0  0
  142.9800   74.0060  219.1550 C   0  0  0  0  0  0  0  0  0  0  0  0
  143.7790   73.2160  218.5910 O   0  0  0  0  0  0  0  0  0  0  0  0
  142.5840   75.1530  218.4100 N   0  0  0  0  0  0  0  0  0  0  0  0
  141.2320   75.2750  217.8630 C   0  0  0  0  0  0  0  0  0  0  0  0
  141.2040   75.8300  216.4930 C   0  0  0  0  0  0  0  0  0  0  0  0
  142.5020   76.0730  215.8160 C   0  0  0  0  0  0  0  0  0  0  0  0
  143.7080   76.2270  216.6530 C   0  0  0  0  0  0  0  0  0  0  0  0
  143.4770   76.2690  218.1440 C   0  0  1  0  0  0  0  0  0  0  0  0
  142.8600   77.5480  218.5810 C   0  0  0  0  0  0  0  0  0  0  0  0
  142.1030   77.7220  219.6660 N   0  0  0  0  0  0  0  0  0  0  0  0
  141.7110   79.0110  219.7560 C   0  0  0  0  0  0  0  0  0  0  0  0
  142.2580   79.6790  218.6580 C   0  0  0  0  0  0  0  0  0  0  0  0
  142.9480   78.7400  217.9760 N   0  0  0  0  0  0  0  0  0  0  0  0
  140.4730   76.6090  222.2720 C   0  0  0  0  0  0  0  0  0  0  0  0
  139.1480   76.8950  222.5150 C   0  0  0  0  0  0  0  0  0  0  0  0
  138.8720   78.1750  222.9820 C   0  0  0  0  0  0  0  0  0  0  0  0
  139.8680   79.1100  223.1920 C   0  0  0  0  0  0  0  0  0  0  0  0
  139.6090   80.3810  223.6560 C   0  0  0  0  0  0  0  0  0  0  0  0
  137.9690   80.8730  224.0020 Cl  0  0  0  0  0  0  0  0  0  0  0  0
  140.6330   81.2630  223.8450 C   0  0  0  0  0  0  0  0  0  0  0  0
  141.9600   80.9340  223.5880 C   0  0  0  0  0  0  0  0  0  0  0  0
  142.2140   79.6480  223.1210 C   0  0  0  0  0  0  0  0  0  0  0  0
  141.1820   78.7710  222.9340 C   0  0  0  0  0  0  0  0  0  0  0  0
  141.4350   77.5350  222.4840 N   0  0  0  0  0  0  0  0  0  0  0  0
  142.6140   75.9750  220.8700 H   0  0  0  0  0  0  0  0  0  0  0  0
  143.2316   73.3801  221.1531 H   0  0  0  0  0  0  0  0  0  0  0  0
  141.5960   73.1163  220.4825 H   0  0  0  0  0  0  0  0  0  0  0  0
  140.7712   74.2763  217.8448 H   0  0  0  0  0  0  0  0  0  0  0  0
  140.6806   75.9738  218.5093 H   0  0  0  0  0  0  0  0  0  0  0  0
  140.6341   75.1279  215.8666 H   0  0  0  0  0  0  0  0  0  0  0  0
  140.7619   76.8305  216.6095 H   0  0  0  0  0  0  0  0  0  0  0  0
  142.6808   75.2242  215.1396 H   0  0  0  0  0  0  0  0  0  0  0  0
  142.3781   77.0540  215.3340 H   0  0  0  0  0  0  0  0  0  0  0  0
  144.3763   75.3798  216.4396 H   0  0  0  0  0  0  0  0  0  0  0  0
  144.1284   77.2089  216.3900 H   0  0  0  0  0  0  0  0  0  0  0  0
  144.4254   76.1982  218.6967 H   0  0  0  0  0  0  0  0  0  0  0  0
  141.0813   79.4509  220.5434 H   0  0  0  0  0  0  0  0  0  0  0  0
  142.1497   80.7436  218.4032 H   0  0  0  0  0  0  0  0  0  0  0  0
  143.4650   78.9720  217.0950 H   0  0  0  0  0  0  0  0  0  0  0  0
  138.3532   76.1528  222.3490 H   0  0  0  0  0  0  0  0  0  0  0  0
  137.8282   78.4524  223.1909 H   0  0  0  0  0  0  0  0  0  0  0  0
  140.4003   82.2726  224.2146 H   0  0  0  0  0  0  0  0  0  0  0  0
  142.7725   81.6583  223.7469 H   0  0  0  0  0  0  0  0  0  0  0  0
  143.2461   79.3368  222.9021 H   0  0  0  0  0  0  0  0  0  0  0  0
  1  2  2  0
  2  3  1  0
  3  4  1  0
  4  5  1  0
  5  6  2  0
  5  7  1  0
  7  8  1  0
  8  9  1  0
  9 10  1  0
 10 11  1  0
 11 12  1  0
 12 13  1  0
 13 14  2  0
 14 15  1  0
 15 16  2  0
 16 17  1  0
  2 18  1  0
 18 19  2  0
 19 20  1  0
 20 21  2  0
 21 22  1  0
 22 23  1  0
 22 24  2  0
 24 25  1  0
 25 26  2  0
 26 27  1  0
 27 28  2  0
 12  7  1  0
 17 13  1  0
 28 18  1  0
 27 21  1  0
  3 29  1  0
  4 30  1  0
  4 31  1  0
  8 32  1  0
  8 33  1  0
  9 34  1  0
  9 35  1  0
 10 36  1  0
 10 37  1  0
 11 38  1  0
 11 39  1  0
 12 40  1  1
 15 41  1  0
 16 42  1  0
 17 43  1  0
 19 44  1  0
 20 45  1  0
 24 46  1  0
 25 47  1  0
 26 48  1  0
M  END
>  <smiles>  (7) 
O=C(NCC(=O)N1CCCC[C@H]1c1ncc[nH]1)c1ccc2c(Cl)cccc2n1

>  <score_type>  (7) 
oracle

>  <origin>  (7) 
autodockgpu

>  <m_score__min__energy>  (7) 
-8.8900000000000006

>  <m_primary>  (7) 
energy

>  <rmsd>  (7) 
6.39839490473007

>  <m_score__min__rmsd>  (7) 
6.39839490473007

>  <meeko>  (7) 
{"free_energy": -7.03, "intermolecular_energy": -8.52, "internal_energy": -3.07, "cluster_size": 24, "cluster_id": 7, "rank_in_cluster": 3}

>  <energy>  (7) 
-8.54

>  <cluster_rmsd>  (7) 
1.01

>  <cluster>  (7) 
1

$$$$

     RDKit          3D

 48 51  0  0  0  0  0  0  0  0999 V2000
  136.3150   76.7060  221.8090 O   0  0  0  0  0  0  0  0  0  0  0  0
  136.3490   75.7110  222.6010 C   0  0  0  0  0  0  0  0  0  0  0  0
  137.3060   74.6700  222.3960 N   0  0  0  0  0  0  0  0  0  0  0  0
  138.2630   74.6970  221.3020 C   0  0  0  0  0  0  0  0  0  0  0  0
  139.4820   75.3570  221.7760 C   0  0  0  0  0  0  0  0  0  0  0  0
  140.4580   74.7480  222.2840 O   0  0  0  0  0  0  0  0  0  0  0  0
  139.5990   76.7720  221.6690 N   0  0  0  0  0  0  0  0  0  0  0  0
  139.1440   77.4840  220.4740 C   0  0  0  0  0  0  0  0  0  0  0  0
  140.0680   78.5540  220.0450 C   0  0  0  0  0  0  0  0  0  0  0  0
  141.3540   78.6940  220.7720 C   0  0  0  0  0  0  0  0  0  0  0  0
  141.4500   78.1360  222.1340 C   0  0  0  0  0  0  0  0  0  0  0  0
  140.1670   77.6000  222.7210 C   0  0  1  0  0  0  0  0  0  0  0  0
  139.2250   78.6860  223.0980 C   0  0  0  0  0  0  0  0  0  0  0  0
  139.5500   79.8300  223.7030 N   0  0  0  0  0  0  0  0  0  0  0  0
  138.4460   80.5830  223.8940 C   0  0  0  0  0  0  0  0  0  0  0  0
  137.3680   79.8620  223.3770 C   0  0  0  0  0  0  0  0  0  0  0  0
  137.9000   78.7140  222.9050 N   0  0  0  0  0  0  0  0  0  0  0  0
  135.4100   75.6180  223.7290 C   0  0  0  0  0  0  0  0  0  0  0  0
  134.8410   76.7730  224.2170 C   0  0  0  0  0  0  0  0  0  0  0  0
  133.9620   76.6200  225.2840 C   0  0  0  0  0  0  0  0  0  0  0  0
  133.6740   75.3820  225.8250 C   0  0  0  0  0  0  0  0  0  0  0  0
  132.8050   75.2170  226.8820 C   0  0  0  0  0  0  0  0  0  0  0  0
  132.0160   76.6020  227.5950 Cl  0  0  0  0  0  0  0  0  0  0  0  0
  132.5580   73.9690  227.3760 C   0  0  0  0  0  0  0  0  0  0  0  0
  133.1530   72.8250  226.8530 C   0  0  0  0  0  0  0  0  0  0  0  0
  134.0290   73.0010  225.7870 C   0  0  0  0  0  0  0  0  0  0  0  0
  134.2720   74.2540  225.2970 C   0  0  0  0  0  0  0  0  0  0  0  0
  135.1170   74.4140  224.2700 N   0  0  0  0  0  0  0  0  0  0  0  0
  137.2800   73.8700  223.0910 H   0  0  0  0  0  0  0  0  0  0  0  0
  138.4951   73.6696  220.9849 H   0  0  0  0  0  0  0  0  0  0  0  0
  137.8441   75.2436  220.4443 H   0  0  0  0  0  0  0  0  0  0  0  0
  139.0434   76.7592  219.6527 H   0  0  0  0  0  0  0  0  0  0  0  0
  138.1853   77.9618  220.7242 H   0  0  0  0  0  0  0  0  0  0  0  0
  140.3079   78.3747  218.9866 H   0  0  0  0  0  0  0  0  0  0  0  0
  139.5271   79.4876  220.2592 H   0  0  0  0  0  0  0  0  0  0  0  0
  142.1277   78.2031  220.1633 H   0  0  0  0  0  0  0  0  0  0  0  0
  141.4700   79.7787  220.9135 H   0  0  0  0  0  0  0  0  0  0  0  0
  142.1789   77.3125  222.1098 H   0  0  0  0  0  0  0  0  0  0  0  0
  141.7428   78.9773  222.7794 H   0  0  0  0  0  0  0  0  0  0  0  0
  140.3556   77.0414  223.6497 H   0  0  0  0  0  0  0  0  0  0  0  0
  138.4038   81.5753  224.3668 H   0  0  0  0  0  0  0  0  0  0  0  0
  136.3106   80.1646  223.3581 H   0  0  0  0  0  0  0  0  0  0  0  0
  137.3040   77.9780  222.4570 H   0  0  0  0  0  0  0  0  0  0  0  0
  135.0685   77.7599  223.7877 H   0  0  0  0  0  0  0  0  0  0  0  0
  133.4811   77.5127  225.7104 H   0  0  0  0  0  0  0  0  0  0  0  0
  131.8613   73.8633  228.2207 H   0  0  0  0  0  0  0  0  0  0  0  0
  132.9403   71.8270  227.2638 H   0  0  0  0  0  0  0  0  0  0  0  0
  134.5276   72.1298  225.3371 H   0  0  0  0  0  0  0  0  0  0  0  0
  1  2  2  0
  2  3  1  0
  3  4  1  0
  4  5  1  0
  5  6  2  0
  5  7  1  0
  7  8  1  0
  8  9  1  0
  9 10  1  0
 10 11  1  0
 11 12  1  0
 12 13  1  0
 13 14  2  0
 14 15  1  0
 15 16  2  0
 16 17  1  0
  2 18  1  0
 18 19  2  0
 19 20  1  0
 20 21  2  0
 21 22  1  0
 22 23  1  0
 22 24  2  0
 24 25  1  0
 25 26  2  0
 26 27  1  0
 27 28  2  0
 12  7  1  0
 17 13  1  0
 28 18  1  0
 27 21  1  0
  3 29  1  0
  4 30  1  0
  4 31  1  0
  8 32  1  0
  8 33  1  0
  9 34  1  0
  9 35  1  0
 10 36  1  0
 10 37  1  0
 11 38  1  0
 11 39  1  0
 12 40  1  1
 15 41  1  0
 16 42  1  0
 17 43  1  0
 19 44  1  0
 20 45  1  0
 24 46  1  0
 25 47  1  0
 26 48  1  0
M  END
>  <smiles>  (8) 
O=C(NCC(=O)N1CCCC[C@H]1c1ncc[nH]1)c1ccc2c(Cl)cccc2n1

>  <score_type>  (8) 
oracle

>  <origin>  (8) 
autodockgpu

>  <m_score__min__energy>  (8) 
-8.8900000000000006

>  <m_primary>  (8) 
energy

>  <rmsd>  (8) 
5.713046317692006

>  <m_score__min__rmsd>  (8) 
5.713046317692006

>  <meeko>  (8) 
{"free_energy": -6.1, "intermolecular_energy": -7.59, "internal_energy": -2.79, "cluster_size": 1, "cluster_id": 10, "rank_in_cluster": 1}

>  <energy>  (8) 
-8.53

>  <cluster_rmsd>  (8) 
0.89

>  <cluster>  (8) 
1

$$$$

     RDKit          3D

 48 51  0  0  0  0  0  0  0  0999 V2000
  140.2770   72.2760  220.9770 O   0  0  0  0  0  0  0  0  0  0  0  0
  139.9490   72.6680  222.1410 C   0  0  0  0  0  0  0  0  0  0  0  0
  139.5330   74.0200  222.3470 N   0  0  0  0  0  0  0  0  0  0  0  0
  139.4640   74.9860  221.2630 C   0  0  0  0  0  0  0  0  0  0  0  0
  139.1520   76.2970  221.8350 C   0  0  0  0  0  0  0  0  0  0  0  0
  138.2530   76.4930  222.6930 O   0  0  0  0  0  0  0  0  0  0  0  0
  139.8920   77.4390  221.4160 N   0  0  0  0  0  0  0  0  0  0  0  0
  139.2770   78.4860  220.5990 C   0  0  0  0  0  0  0  0  0  0  0  0
  140.1590   78.9780  219.5200 C   0  0  0  0  0  0  0  0  0  0  0  0
  141.4630   78.2970  219.3230 C   0  0  0  0  0  0  0  0  0  0  0  0
  142.0290   77.5340  220.4520 C   0  0  0  0  0  0  0  0  0  0  0  0
  141.2890   77.6450  221.7630 C   0  0  1  0  0  0  0  0  0  0  0  0
  141.4780   78.9730  222.4030 C   0  0  0  0  0  0  0  0  0  0  0  0
  142.5760   79.7280  222.3330 N   0  0  0  0  0  0  0  0  0  0  0  0
  142.4000   80.8700  223.0320 C   0  0  0  0  0  0  0  0  0  0  0  0
  141.1130   80.8200  223.5720 C   0  0  0  0  0  0  0  0  0  0  0  0
  140.5960   79.6430  223.1560 N   0  0  0  0  0  0  0  0  0  0  0  0
  139.9940   71.7440  223.2850 C   0  0  0  0  0  0  0  0  0  0  0  0
  139.5650   70.4480  223.1080 C   0  0  0  0  0  0  0  0  0  0  0  0
  139.6320   69.6230  224.2250 C   0  0  0  0  0  0  0  0  0  0  0  0
  140.1010   70.0740  225.4440 C   0  0  0  0  0  0  0  0  0  0  0  0
  140.1720   69.2670  226.5580 C   0  0  0  0  0  0  0  0  0  0  0  0
  139.6580   67.6000  226.4700 Cl  0  0  0  0  0  0  0  0  0  0  0  0
  140.6440   69.7670  227.7370 C   0  0  0  0  0  0  0  0  0  0  0  0
  141.0690   71.0850  227.8740 C   0  0  0  0  0  0  0  0  0  0  0  0
  140.9940   71.8930  226.7440 C   0  0  0  0  0  0  0  0  0  0  0  0
  140.5190   71.3850  225.5660 C   0  0  0  0  0  0  0  0  0  0  0  0
  140.4500   72.1700  224.4840 N   0  0  0  0  0  0  0  0  0  0  0  0
  139.2730   74.2810  223.3410 H   0  0  0  0  0  0  0  0  0  0  0  0
  140.4311   75.0287  220.7407 H   0  0  0  0  0  0  0  0  0  0  0  0
  138.6867   74.6921  220.5423 H   0  0  0  0  0  0  0  0  0  0  0  0
  138.3609   78.0812  220.1441 H   0  0  0  0  0  0  0  0  0  0  0  0
  139.0680   79.3375  221.2632 H   0  0  0  0  0  0  0  0  0  0  0  0
  139.6000   78.8941  218.5764 H   0  0  0  0  0  0  0  0  0  0  0  0
  140.4256   80.0001  219.8268 H   0  0  0  0  0  0  0  0  0  0  0  0
  141.3413   77.5960  218.4841 H   0  0  0  0  0  0  0  0  0  0  0  0
  142.1777   79.1179  219.1634 H   0  0  0  0  0  0  0  0  0  0  0  0
  142.0476   76.4723  220.1649 H   0  0  0  0  0  0  0  0  0  0  0  0
  143.0229   77.9684  220.6348 H   0  0  0  0  0  0  0  0  0  0  0  0
  141.6601   76.9118  222.4942 H   0  0  0  0  0  0  0  0  0  0  0  0
  143.1303   81.6836  223.1529 H   0  0  0  0  0  0  0  0  0  0  0  0
  140.6242   81.5777  224.2020 H   0  0  0  0  0  0  0  0  0  0  0  0
  139.6270   79.3470  223.4220 H   0  0  0  0  0  0  0  0  0  0  0  0
  139.1909   70.0861  222.1389 H   0  0  0  0  0  0  0  0  0  0  0  0
  139.3011   68.5778  224.1355 H   0  0  0  0  0  0  0  0  0  0  0  0
  140.6902   69.1027  228.6125 H   0  0  0  0  0  0  0  0  0  0  0  0
  141.4471   71.4705  228.8323 H   0  0  0  0  0  0  0  0  0  0  0  0
  141.3175   72.9430  226.7979 H   0  0  0  0  0  0  0  0  0  0  0  0
  1  2  2  0
  2  3  1  0
  3  4  1  0
  4  5  1  0
  5  6  2  0
  5  7  1  0
  7  8  1  0
  8  9  1  0
  9 10  1  0
 10 11  1  0
 11 12  1  0
 12 13  1  0
 13 14  2  0
 14 15  1  0
 15 16  2  0
 16 17  1  0
  2 18  1  0
 18 19  2  0
 19 20  1  0
 20 21  2  0
 21 22  1  0
 22 23  1  0
 22 24  2  0
 24 25  1  0
 25 26  2  0
 26 27  1  0
 27 28  2  0
 12  7  1  0
 17 13  1  0
 28 18  1  0
 27 21  1  0
  3 29  1  0
  4 30  1  0
  4 31  1  0
  8 32  1  0
  8 33  1  0
  9 34  1  0
  9 35  1  0
 10 36  1  0
 10 37  1  0
 11 38  1  0
 11 39  1  0
 12 40  1  1
 15 41  1  0
 16 42  1  0
 17 43  1  0
 19 44  1  0
 20 45  1  0
 24 46  1  0
 25 47  1  0
 26 48  1  0
M  END
>  <smiles>  (9) 
O=C(NCC(=O)N1CCCC[C@H]1c1ncc[nH]1)c1ccc2c(Cl)cccc2n1

>  <score_type>  (9) 
oracle

>  <origin>  (9) 
autodockgpu

>  <m_score__min__energy>  (9) 
-8.8900000000000006

>  <m_primary>  (9) 
energy

>  <rmsd>  (9) 
2.360707199419008

>  <m_score__min__rmsd>  (9) 
2.360707199419008

>  <meeko>  (9) 
{"free_energy": -8.07, "intermolecular_energy": -9.56, "internal_energy": -1.77, "cluster_size": 12, "cluster_id": 1, "rank_in_cluster": 12}

>  <energy>  (9) 
-8.51

>  <cluster_rmsd>  (9) 
0.93

>  <cluster>  (9) 
1

$$$$

     RDKit          3D

 48 51  0  0  0  0  0  0  0  0999 V2000
  141.3020   72.8570  221.8530 O   0  0  0  0  0  0  0  0  0  0  0  0
  140.2500   72.7000  222.5510 C   0  0  0  0  0  0  0  0  0  0  0  0
  139.0960   73.5010  222.2890 N   0  0  0  0  0  0  0  0  0  0  0  0
  139.0680   74.5060  221.2390 C   0  0  0  0  0  0  0  0  0  0  0  0
  138.8620   75.8160  221.8610 C   0  0  0  0  0  0  0  0  0  0  0  0
  137.9940   76.0460  222.7410 O   0  0  0  0  0  0  0  0  0  0  0  0
  139.6790   76.9140  221.4680 N   0  0  0  0  0  0  0  0  0  0  0  0
  139.1420   78.0090  220.6590 C   0  0  0  0  0  0  0  0  0  0  0  0
  140.0670   78.4600  219.5990 C   0  0  0  0  0  0  0  0  0  0  0  0
  141.3270   77.7000  219.4080 C   0  0  0  0  0  0  0  0  0  0  0  0
  141.8300   76.8880  220.5320 C   0  0  0  0  0  0  0  0  0  0  0  0
  141.0810   77.0270  221.8350 C   0  0  1  0  0  0  0  0  0  0  0  0
  141.3440   78.3310  222.4980 C   0  0  0  0  0  0  0  0  0  0  0  0
  140.6130   78.8760  223.4730 N   0  0  0  0  0  0  0  0  0  0  0  0
  141.1400   80.0640  223.8380 C   0  0  0  0  0  0  0  0  0  0  0  0
  142.2680   80.2700  223.0400 C   0  0  0  0  0  0  0  0  0  0  0  0
  142.3450   79.1830  222.2430 N   0  0  0  0  0  0  0  0  0  0  0  0
  140.2080   71.7010  223.6290 C   0  0  0  0  0  0  0  0  0  0  0  0
  139.7040   70.4490  223.3550 C   0  0  0  0  0  0  0  0  0  0  0  0
  139.6900   69.5490  224.4150 C   0  0  0  0  0  0  0  0  0  0  0  0
  140.1540   69.8880  225.6720 C   0  0  0  0  0  0  0  0  0  0  0  0
  140.1460   69.0060  226.7300 C   0  0  0  0  0  0  0  0  0  0  0  0
  139.5330   67.3850  226.5180 Cl  0  0  0  0  0  0  0  0  0  0  0  0
  140.6160   69.3960  227.9500 C   0  0  0  0  0  0  0  0  0  0  0  0
  141.1180   70.6730  228.1860 C   0  0  0  0  0  0  0  0  0  0  0  0
  141.1230   71.5570  227.1120 C   0  0  0  0  0  0  0  0  0  0  0  0
  140.6490   71.1590  225.8930 C   0  0  0  0  0  0  0  0  0  0  0  0
  140.6570   72.0170  224.8640 N   0  0  0  0  0  0  0  0  0  0  0  0
  138.2540   73.3190  222.9070 H   0  0  0  0  0  0  0  0  0  0  0  0
  140.0227   74.4997  220.6927 H   0  0  0  0  0  0  0  0  0  0  0  0
  138.2545   74.2910  220.5304 H   0  0  0  0  0  0  0  0  0  0  0  0
  138.2086   77.6690  220.1865 H   0  0  0  0  0  0  0  0  0  0  0  0
  138.9780   78.8625  221.3333 H   0  0  0  0  0  0  0  0  0  0  0  0
  139.5164   78.4260  218.6473 H   0  0  0  0  0  0  0  0  0  0  0  0
  140.3937   79.4587  219.9243 H   0  0  0  0  0  0  0  0  0  0  0  0
  141.1712   77.0191  218.5582 H   0  0  0  0  0  0  0  0  0  0  0  0
  142.0941   78.4760  219.2685 H   0  0  0  0  0  0  0  0  0  0  0  0
  141.7866   75.8312  220.2298 H   0  0  0  0  0  0  0  0  0  0  0  0
  142.8466   77.2569  220.7331 H   0  0  0  0  0  0  0  0  0  0  0  0
  141.3961   76.2616  222.5595 H   0  0  0  0  0  0  0  0  0  0  0  0
  140.7549   80.7405  224.6152 H   0  0  0  0  0  0  0  0  0  0  0  0
  142.9486   81.1340  223.0573 H   0  0  0  0  0  0  0  0  0  0  0  0
  143.1100   79.0770  221.5350 H   0  0  0  0  0  0  0  0  0  0  0  0
  139.3339   70.1767  222.3555 H   0  0  0  0  0  0  0  0  0  0  0  0
  139.2972   68.5352  224.2478 H   0  0  0  0  0  0  0  0  0  0  0  0
  140.5976   68.6735  228.7793 H   0  0  0  0  0  0  0  0  0  0  0  0
  141.4935   70.9693  229.1765 H   0  0  0  0  0  0  0  0  0  0  0  0
  141.5092   72.5785  227.2438 H   0  0  0  0  0  0  0  0  0  0  0  0
  1  2  2  0
  2  3  1  0
  3  4  1  0
  4  5  1  0
  5  6  2  0
  5  7  1  0
  7  8  1  0
  8  9  1  0
  9 10  1  0
 10 11  1  0
 11 12  1  0
 12 13  1  0
 13 14  2  0
 14 15  1  0
 15 16  2  0
 16 17  1  0
  2 18  1  0
 18 19  2  0
 19 20  1  0
 20 21  2  0
 21 22  1  0
 22 23  1  0
 22 24  2  0
 24 25  1  0
 25 26  2  0
 26 27  1  0
 27 28  2  0
 12  7  1  0
 17 13  1  0
 28 18  1  0
 27 21  1  0
  3 29  1  0
  4 30  1  0
  4 31  1  0
  8 32  1  0
  8 33  1  0
  9 34  1  0
  9 35  1  0
 10 36  1  0
 10 37  1  0
 11 38  1  0
 11 39  1  0
 12 40  1  1
 15 41  1  0
 16 42  1  0
 17 43  1  0
 19 44  1  0
 20 45  1  0
 24 46  1  0
 25 47  1  0
 26 48  1  0
M  END
>  <smiles>  (10) 
O=C(NCC(=O)N1CCCC[C@H]1c1ncc[nH]1)c1ccc2c(Cl)cccc2n1

>  <score_type>  (10) 
oracle

>  <origin>  (10) 
autodockgpu

>  <m_score__min__energy>  (10) 
-8.8900000000000006

>  <m_primary>  (10) 
energy

>  <rmsd>  (10) 
2.1880802422578984

>  <m_score__min__rmsd>  (10) 
2.1880802422578984

>  <meeko>  (10) 
{"free_energy": -8.85, "intermolecular_energy": -10.34, "internal_energy": -1.54, "cluster_size": 12, "cluster_id": 1, "rank_in_cluster": 2}

>  <energy>  (10) 
-8.4

>  <cluster_rmsd>  (10) 
0.94

>  <cluster>  (10) 
1

$$$$

     RDKit          3D

 48 51  0  0  0  0  0  0  0  0999 V2000
  140.6680   76.8660  218.2040 O   0  0  0  0  0  0  0  0  0  0  0  0
  141.8500   76.8900  218.6710 C   0  0  0  0  0  0  0  0  0  0  0  0
  142.4710   78.1400  218.9760 N   0  0  0  0  0  0  0  0  0  0  0  0
  141.7980   79.4130  218.7730 C   0  0  0  0  0  0  0  0  0  0  0  0
  141.5900   80.0360  220.0820 C   0  0  0  0  0  0  0  0  0  0  0  0
  141.9230   81.2160  220.3590 O   0  0  0  0  0  0  0  0  0  0  0  0
  140.9750   79.2860  221.1250 N   0  0  0  0  0  0  0  0  0  0  0  0
  139.5740   79.4970  221.4890 C   0  0  0  0  0  0  0  0  0  0  0  0
  139.3430   79.4910  222.9490 C   0  0  0  0  0  0  0  0  0  0  0  0
  140.5270   79.3980  223.8390 C   0  0  0  0  0  0  0  0  0  0  0  0
  141.7740   78.8390  223.2840 C   0  0  0  0  0  0  0  0  0  0  0  0
  141.6820   78.2710  221.8890 C   0  0  1  0  0  0  0  0  0  0  0  0
  140.9420   76.9820  221.8550 C   0  0  0  0  0  0  0  0  0  0  0  0
  139.6260   76.8290  222.0160 N   0  0  0  0  0  0  0  0  0  0  0  0
  139.2970   75.5230  221.9260 C   0  0  0  0  0  0  0  0  0  0  0  0
  140.4820   74.8200  221.6950 C   0  0  0  0  0  0  0  0  0  0  0  0
  141.4520   75.7590  221.6620 N   0  0  0  0  0  0  0  0  0  0  0  0
  142.5910   75.6400  218.9030 C   0  0  0  0  0  0  0  0  0  0  0  0
  142.1640   74.4900  218.2780 C   0  0  0  0  0  0  0  0  0  0  0  0
  142.9050   73.3420  218.5360 C   0  0  0  0  0  0  0  0  0  0  0  0
  144.0060   73.3500  219.3710 C   0  0  0  0  0  0  0  0  0  0  0  0
  144.7480   72.2200  219.6350 C   0  0  0  0  0  0  0  0  0  0  0  0
  144.3140   70.6940  218.9050 Cl  0  0  0  0  0  0  0  0  0  0  0  0
  145.8260   72.2880  220.4680 C   0  0  0  0  0  0  0  0  0  0  0  0
  146.2250   73.4730  221.0810 C   0  0  0  0  0  0  0  0  0  0  0  0
  145.4700   74.6090  220.8090 C   0  0  0  0  0  0  0  0  0  0  0  0
  144.3910   74.5330  219.9730 C   0  0  0  0  0  0  0  0  0  0  0  0
  143.6700   75.6320  219.7170 N   0  0  0  0  0  0  0  0  0  0  0  0
  143.4570   78.0890  219.3620 H   0  0  0  0  0  0  0  0  0  0  0  0
  142.4203   80.0668  218.1444 H   0  0  0  0  0  0  0  0  0  0  0  0
  140.8325   79.2557  218.2699 H   0  0  0  0  0  0  0  0  0  0  0  0
  139.2516   80.4694  221.0883 H   0  0  0  0  0  0  0  0  0  0  0  0
  138.9972   78.6623  221.0640 H   0  0  0  0  0  0  0  0  0  0  0  0
  138.8161   80.4231  223.2011 H   0  0  0  0  0  0  0  0  0  0  0  0
  138.7838   78.5624  223.1360 H   0  0  0  0  0  0  0  0  0  0  0  0
  140.7532   80.4162  224.1884 H   0  0  0  0  0  0  0  0  0  0  0  0
  140.2281   78.6789  224.6159 H   0  0  0  0  0  0  0  0  0  0  0  0
  142.5261   79.6416  223.2714 H   0  0  0  0  0  0  0  0  0  0  0  0
  142.0324   77.9894  223.9332 H   0  0  0  0  0  0  0  0  0  0  0  0
  142.6793   78.0468  221.4827 H   0  0  0  0  0  0  0  0  0  0  0  0
  138.2882   75.0940  222.0171 H   0  0  0  0  0  0  0  0  0  0  0  0
  140.5997   73.7338  221.5673 H   0  0  0  0  0  0  0  0  0  0  0  0
  142.4550   75.5030  221.5010 H   0  0  0  0  0  0  0  0  0  0  0  0
  141.2877   74.4799  217.6132 H   0  0  0  0  0  0  0  0  0  0  0  0
  142.6050   72.3968  218.0599 H   0  0  0  0  0  0  0  0  0  0  0  0
  146.4023   71.3716  220.6630 H   0  0  0  0  0  0  0  0  0  0  0  0
  147.0976   73.5090  221.7498 H   0  0  0  0  0  0  0  0  0  0  0  0
  145.7418   75.5711  221.2678 H   0  0  0  0  0  0  0  0  0  0  0  0
  1  2  2  0
  2  3  1  0
  3  4  1  0
  4  5  1  0
  5  6  2  0
  5  7  1  0
  7  8  1  0
  8  9  1  0
  9 10  1  0
 10 11  1  0
 11 12  1  0
 12 13  1  0
 13 14  2  0
 14 15  1  0
 15 16  2  0
 16 17  1  0
  2 18  1  0
 18 19  2  0
 19 20  1  0
 20 21  2  0
 21 22  1  0
 22 23  1  0
 22 24  2  0
 24 25  1  0
 25 26  2  0
 26 27  1  0
 27 28  2  0
 12  7  1  0
 17 13  1  0
 28 18  1  0
 27 21  1  0
  3 29  1  0
  4 30  1  0
  4 31  1  0
  8 32  1  0
  8 33  1  0
  9 34  1  0
  9 35  1  0
 10 36  1  0
 10 37  1  0
 11 38  1  0
 11 39  1  0
 12 40  1  6
 15 41  1  0
 16 42  1  0
 17 43  1  0
 19 44  1  0
 20 45  1  0
 24 46  1  0
 25 47  1  0
 26 48  1  0
M  END
>  <smiles>  (11) 
O=C(NCC(=O)N1CCCC[C@H]1c1ncc[nH]1)c1ccc2c(Cl)cccc2n1

>  <score_type>  (11) 
oracle

>  <origin>  (11) 
autodockgpu

>  <m_score__min__energy>  (11) 
-8.8900000000000006

>  <m_primary>  (11) 
energy

>  <rmsd>  (11) 
6.901004378341601

>  <m_score__min__rmsd>  (11) 
6.901004378341601

>  <meeko>  (11) 
{"free_energy": -6.72, "intermolecular_energy": -8.21, "internal_energy": -2.88, "cluster_size": 1, "cluster_id": 8, "rank_in_cluster": 1}

>  <energy>  (11) 
-8.23

>  <cluster_rmsd>  (11) 
1.39

>  <cluster>  (11) 
1

$$$$

     RDKit          3D

 48 51  0  0  0  0  0  0  0  0999 V2000
  140.1000   71.8770  220.9980 O   0  0  0  0  0  0  0  0  0  0  0  0
  139.9280   72.3490  222.1670 C   0  0  0  0  0  0  0  0  0  0  0  0
  139.6990   73.7480  222.3420 N   0  0  0  0  0  0  0  0  0  0  0  0
  139.6520   74.6750  221.2240 C   0  0  0  0  0  0  0  0  0  0  0  0
  139.1660   75.9670  221.7180 C   0  0  0  0  0  0  0  0  0  0  0  0
  138.1460   76.1040  222.4400 O   0  0  0  0  0  0  0  0  0  0  0  0
  139.8710   77.1560  221.3760 N   0  0  0  0  0  0  0  0  0  0  0  0
  139.2050   78.2620  220.6870 C   0  0  0  0  0  0  0  0  0  0  0  0
  140.0320   78.8700  219.6240 C   0  0  0  0  0  0  0  0  0  0  0  0
  141.3360   78.2340  219.3100 C   0  0  0  0  0  0  0  0  0  0  0  0
  141.9620   77.3810  220.3370 C   0  0  0  0  0  0  0  0  0  0  0  0
  141.2780   77.3560  221.6830 C   0  0  1  0  0  0  0  0  0  0  0  0
  141.4740   78.6220  222.4370 C   0  0  0  0  0  0  0  0  0  0  0  0
  140.6500   79.1190  223.3620 N   0  0  0  0  0  0  0  0  0  0  0  0
  141.1370   80.2830  223.8400 C   0  0  0  0  0  0  0  0  0  0  0  0
  142.3390   80.5260  223.1690 C   0  0  0  0  0  0  0  0  0  0  0  0
  142.4940   79.4820  222.3270 N   0  0  0  0  0  0  0  0  0  0  0  0
  139.9630   71.4680  223.3440 C   0  0  0  0  0  0  0  0  0  0  0  0
  139.5310   70.1680  223.2140 C   0  0  0  0  0  0  0  0  0  0  0  0
  139.5880   69.3850  224.3620 C   0  0  0  0  0  0  0  0  0  0  0  0
  140.0510   69.8810  225.5660 C   0  0  0  0  0  0  0  0  0  0  0  0
  140.1130   69.1160  226.7100 C   0  0  0  0  0  0  0  0  0  0  0  0
  139.5950   67.4490  226.6820 Cl  0  0  0  0  0  0  0  0  0  0  0  0
  140.5790   69.6590  227.8720 C   0  0  0  0  0  0  0  0  0  0  0  0
  141.0070   70.9810  227.9620 C   0  0  0  0  0  0  0  0  0  0  0  0
  140.9410   71.7450  226.8010 C   0  0  0  0  0  0  0  0  0  0  0  0
  140.4730   71.1940  225.6410 C   0  0  0  0  0  0  0  0  0  0  0  0
  140.4130   71.9380  224.5290 N   0  0  0  0  0  0  0  0  0  0  0  0
  139.5640   74.0760  223.3420 H   0  0  0  0  0  0  0  0  0  0  0  0
  140.6588   74.7947  220.7973 H   0  0  0  0  0  0  0  0  0  0  0  0
  138.9808   74.2915  220.4414 H   0  0  0  0  0  0  0  0  0  0  0  0
  138.2770   77.8831  220.2339 H   0  0  0  0  0  0  0  0  0  0  0  0
  139.0108   79.0435  221.4364 H   0  0  0  0  0  0  0  0  0  0  0  0
  139.4342   78.8651  218.7006 H   0  0  0  0  0  0  0  0  0  0  0  0
  140.2964   79.8639  220.0143 H   0  0  0  0  0  0  0  0  0  0  0  0
  141.1879   77.6114  218.4153 H   0  0  0  0  0  0  0  0  0  0  0  0
  142.0309   79.0794  219.1982 H   0  0  0  0  0  0  0  0  0  0  0  0
  141.9840   76.3510  219.9514 H   0  0  0  0  0  0  0  0  0  0  0  0
  142.9564   77.8152  220.5175 H   0  0  0  0  0  0  0  0  0  0  0  0
  141.6920   76.5659  222.3267 H   0  0  0  0  0  0  0  0  0  0  0  0
  140.6763   80.9190  224.6103 H   0  0  0  0  0  0  0  0  0  0  0  0
  143.0144   81.3845  223.2992 H   0  0  0  0  0  0  0  0  0  0  0  0
  143.3260   79.4090  221.6940 H   0  0  0  0  0  0  0  0  0  0  0  0
  139.1618   69.7709  222.2570 H   0  0  0  0  0  0  0  0  0  0  0  0
  139.2541   68.3382  224.3101 H   0  0  0  0  0  0  0  0  0  0  0  0
  140.6180   69.0281  228.7722 H   0  0  0  0  0  0  0  0  0  0  0  0
  141.3801   71.4019  228.9073 H   0  0  0  0  0  0  0  0  0  0  0  0
  141.2664   72.7956  226.8167 H   0  0  0  0  0  0  0  0  0  0  0  0
  1  2  2  0
  2  3  1  0
  3  4  1  0
  4  5  1  0
  5  6  2  0
  5  7  1  0
  7  8  1  0
  8  9  1  0
  9 10  1  0
 10 11  1  0
 11 12  1  0
 12 13  1  0
 13 14  2  0
 14 15  1  0
 15 16  2  0
 16 17  1  0
  2 18  1  0
 18 19  2  0
 19 20  1  0
 20 21  2  0
 21 22  1  0
 22 23  1  0
 22 24  2  0
 24 25  1  0
 25 26  2  0
 26 27  1  0
 27 28  2  0
 12  7  1  0
 17 13  1  0
 28 18  1  0
 27 21  1  0
  3 29  1  0
  4 30  1  0
  4 31  1  0
  8 32  1  0
  8 33  1  0
  9 34  1  0
  9 35  1  0
 10 36  1  0
 10 37  1  0
 11 38  1  0
 11 39  1  0
 12 40  1  1
 15 41  1  0
 16 42  1  0
 17 43  1  0
 19 44  1  0
 20 45  1  0
 24 46  1  0
 25 47  1  0
 26 48  1  0
M  END
>  <smiles>  (12) 
O=C(NCC(=O)N1CCCC[C@H]1c1ncc[nH]1)c1ccc2c(Cl)cccc2n1

>  <score_type>  (12) 
oracle

>  <origin>  (12) 
autodockgpu

>  <m_score__min__energy>  (12) 
-8.8900000000000006

>  <m_primary>  (12) 
energy

>  <rmsd>  (12) 
2.2332741591710934

>  <m_score__min__rmsd>  (12) 
2.2332741591710934

>  <meeko>  (12) 
{"free_energy": -8.76, "intermolecular_energy": -10.25, "internal_energy": -1.67, "cluster_size": 12, "cluster_id": 1, "rank_in_cluster": 3}

>  <energy>  (12) 
-8.07

>  <cluster_rmsd>  (12) 
1.36

>  <cluster>  (12) 
1

$$$$

     RDKit          3D

 48 51  0  0  0  0  0  0  0  0999 V2000
  140.1720   74.2910  221.9380 O   0  0  0  0  0  0  0  0  0  0  0  0
  140.9010   75.3120  221.7270 C   0  0  0  0  0  0  0  0  0  0  0  0
  142.1130   75.1790  220.9820 N   0  0  0  0  0  0  0  0  0  0  0  0
  142.5590   73.9050  220.4410 C   0  0  0  0  0  0  0  0  0  0  0  0
  142.1940   73.8550  219.0230 C   0  0  0  0  0  0  0  0  0  0  0  0
  141.8700   72.8020  218.4180 O   0  0  0  0  0  0  0  0  0  0  0  0
  142.1970   75.0560  218.2570 N   0  0  0  0  0  0  0  0  0  0  0  0
  141.0810   75.3970  217.3740 C   0  0  0  0  0  0  0  0  0  0  0  0
  141.5130   75.9580  216.0770 C   0  0  0  0  0  0  0  0  0  0  0  0
  142.9680   75.9940  215.7860 C   0  0  0  0  0  0  0  0  0  0  0  0
  143.9080   75.9450  216.9220 C   0  0  0  0  0  0  0  0  0  0  0  0
  143.2890   76.0150  218.2970 C   0  0  1  0  0  0  0  0  0  0  0  0
  142.7800   77.3740  218.6160 C   0  0  0  0  0  0  0  0  0  0  0  0
  141.9560   77.6870  219.6190 N   0  0  0  0  0  0  0  0  0  0  0  0
  141.7000   79.0130  219.6110 C   0  0  0  0  0  0  0  0  0  0  0  0
  142.4080   79.5570  218.5370 C   0  0  0  0  0  0  0  0  0  0  0  0
  143.0470   78.5140  217.9660 N   0  0  0  0  0  0  0  0  0  0  0  0
  140.5110   76.6320  222.2440 C   0  0  0  0  0  0  0  0  0  0  0  0
  139.1820   76.8760  222.5080 C   0  0  0  0  0  0  0  0  0  0  0  0
  138.8760   78.1420  222.9940 C   0  0  0  0  0  0  0  0  0  0  0  0
  139.8470   79.1030  223.2020 C   0  0  0  0  0  0  0  0  0  0  0  0
  139.5580   80.3610  223.6840 C   0  0  0  0  0  0  0  0  0  0  0  0
  137.9100   80.8000  224.0590 Cl  0  0  0  0  0  0  0  0  0  0  0  0
  140.5580   81.2690  223.8700 C   0  0  0  0  0  0  0  0  0  0  0  0
  141.8910   80.9830  223.5920 C   0  0  0  0  0  0  0  0  0  0  0  0
  142.1750   79.7100  223.1060 C   0  0  0  0  0  0  0  0  0  0  0  0
  141.1670   78.8050  222.9220 C   0  0  0  0  0  0  0  0  0  0  0  0
  141.4490   77.5830  222.4540 N   0  0  0  0  0  0  0  0  0  0  0  0
  142.6730   76.0680  220.8420 H   0  0  0  0  0  0  0  0  0  0  0  0
  143.6503   73.8171  220.5476 H   0  0  0  0  0  0  0  0  0  0  0  0
  142.0838   73.0750  220.9844 H   0  0  0  0  0  0  0  0  0  0  0  0
  140.4958   74.4854  217.1827 H   0  0  0  0  0  0  0  0  0  0  0  0
  140.4875   76.1710  217.8826 H   0  0  0  0  0  0  0  0  0  0  0  0
  141.0355   75.3606  215.2863 H   0  0  0  0  0  0  0  0  0  0  0  0
  141.2142   77.0157  216.1207 H   0  0  0  0  0  0  0  0  0  0  0  0
  143.1926   75.1328  215.1395 H   0  0  0  0  0  0  0  0  0  0  0  0
  143.1320   76.9858  215.3394 H   0  0  0  0  0  0  0  0  0  0  0  0
  144.4697   75.0017  216.8535 H   0  0  0  0  0  0  0  0  0  0  0  0
  144.5304   76.8474  216.8308 H   0  0  0  0  0  0  0  0  0  0  0  0
  144.0283   75.7894  219.0796 H   0  0  0  0  0  0  0  0  0  0  0  0
  141.0567   79.5601  220.3158 H   0  0  0  0  0  0  0  0  0  0  0  0
  142.4384   80.6109  218.2233 H   0  0  0  0  0  0  0  0  0  0  0  0
  143.6590   78.6420  217.1250 H   0  0  0  0  0  0  0  0  0  0  0  0
  138.4068   76.1130  222.3438 H   0  0  0  0  0  0  0  0  0  0  0  0
  137.8277   78.3865  223.2202 H   0  0  0  0  0  0  0  0  0  0  0  0
  140.3008   82.2668  224.2549 H   0  0  0  0  0  0  0  0  0  0  0  0
  142.6841   81.7288  223.7491 H   0  0  0  0  0  0  0  0  0  0  0  0
  143.2126   79.4316  222.8695 H   0  0  0  0  0  0  0  0  0  0  0  0
  1  2  2  0
  2  3  1  0
  3  4  1  0
  4  5  1  0
  5  6  2  0
  5  7  1  0
  7  8  1  0
  8  9  1  0
  9 10  1  0
 10 11  1  0
 11 12  1  0
 12 13  1  0
 13 14  2  0
 14 15  1  0
 15 16  2  0
 16 17  1  0
  2 18  1  0
 18 19  2  0
 19 20  1  0
 20 21  2  0
 21 22  1  0
 22 23  1  0
 22 24  2  0
 24 25  1  0
 25 26  2  0
 26 27  1  0
 27 28  2  0
 12  7  1  0
 17 13  1  0
 28 18  1  0
 27 21  1  0
  3 29  1  0
  4 30  1  0
  4 31  1  0
  8 32  1  0
  8 33  1  0
  9 34  1  0
  9 35  1  0
 10 36  1  0
 10 37  1  0
 11 38  1  0
 11 39  1  0
 12 40  1  1
 15 41  1  0
 16 42  1  0
 17 43  1  0
 19 44  1  0
 20 45  1  0
 24 46  1  0
 25 47  1  0
 26 48  1  0
M  END
>  <smiles>  (13) 
O=C(NCC(=O)N1CCCC[C@H]1c1ncc[nH]1)c1ccc2c(Cl)cccc2n1

>  <score_type>  (13) 
oracle

>  <origin>  (13) 
autodockgpu

>  <m_score__min__energy>  (13) 
-8.8900000000000006

>  <m_primary>  (13) 
energy

>  <rmsd>  (13) 
6.420879605880872

>  <m_score__min__rmsd>  (13) 
6.420879605880872

>  <meeko>  (13) 
{"free_energy": -6.7, "intermolecular_energy": -8.19, "internal_energy": -3.06, "cluster_size": 24, "cluster_id": 7, "rank_in_cluster": 13}

>  <energy>  (13) 
-8.37

>  <cluster_rmsd>  (13) 
0.0

>  <cluster>  (13) 
2

$$$$

     RDKit          3D

 48 51  0  0  0  0  0  0  0  0999 V2000
  139.9930   74.2960  221.9770 O   0  0  0  0  0  0  0  0  0  0  0  0
  140.7660   75.2800  221.7460 C   0  0  0  0  0  0  0  0  0  0  0  0
  141.9610   75.0840  220.9880 N   0  0  0  0  0  0  0  0  0  0  0  0
  142.3420   73.7850  220.4580 C   0  0  0  0  0  0  0  0  0  0  0  0
  143.0040   73.9920  219.1670 C   0  0  0  0  0  0  0  0  0  0  0  0
  143.8710   73.2160  218.6900 O   0  0  0  0  0  0  0  0  0  0  0  0
  142.6670   75.1320  218.3830 N   0  0  0  0  0  0  0  0  0  0  0  0
  141.3750   75.2310  217.7030 C   0  0  0  0  0  0  0  0  0  0  0  0
  141.4750   75.7840  216.3360 C   0  0  0  0  0  0  0  0  0  0  0  0
  142.8300   76.0480  215.7920 C   0  0  0  0  0  0  0  0  0  0  0  0
  143.9440   76.2210  216.7440 C   0  0  0  0  0  0  0  0  0  0  0  0
  143.5640   76.2610  218.2050 C   0  0  1  0  0  0  0  0  0  0  0  0
  142.8860   77.5320  218.5740 C   0  0  0  0  0  0  0  0  0  0  0  0
  142.0940   77.7180  219.6320 N   0  0  0  0  0  0  0  0  0  0  0  0
  141.6500   78.9930  219.6600 C   0  0  0  0  0  0  0  0  0  0  0  0
  142.1990   79.6380  218.5500 C   0  0  0  0  0  0  0  0  0  0  0  0
  142.9440   78.7010  217.9240 N   0  0  0  0  0  0  0  0  0  0  0  0
  140.4420   76.6230  222.2510 C   0  0  0  0  0  0  0  0  0  0  0  0
  139.1270   76.9350  222.5120 C   0  0  0  0  0  0  0  0  0  0  0  0
  138.8840   78.2200  222.9870 C   0  0  0  0  0  0  0  0  0  0  0  0
  139.9020   79.1320  223.1880 C   0  0  0  0  0  0  0  0  0  0  0  0
  139.6760   80.4070  223.6590 C   0  0  0  0  0  0  0  0  0  0  0  0
  138.0520   80.9310  224.0280 Cl  0  0  0  0  0  0  0  0  0  0  0  0
  140.7210   81.2660  223.8370 C   0  0  0  0  0  0  0  0  0  0  0  0
  142.0380   80.9100  223.5620 C   0  0  0  0  0  0  0  0  0  0  0  0
  142.2580   79.6210  223.0870 C   0  0  0  0  0  0  0  0  0  0  0  0
  141.2060   78.7660  222.9100 C   0  0  0  0  0  0  0  0  0  0  0  0
  141.4260   77.5270  222.4530 N   0  0  0  0  0  0  0  0  0  0  0  0
  142.5590   75.9450  220.8320 H   0  0  0  0  0  0  0  0  0  0  0  0
  143.0324   73.2868  221.1546 H   0  0  0  0  0  0  0  0  0  0  0  0
  141.4519   73.1513  220.3307 H   0  0  0  0  0  0  0  0  0  0  0  0
  140.9349   74.2248  217.6413 H   0  0  0  0  0  0  0  0  0  0  0  0
  140.7503   75.9213  218.2889 H   0  0  0  0  0  0  0  0  0  0  0  0
  140.9825   75.0718  215.6576 H   0  0  0  0  0  0  0  0  0  0  0  0
  141.0068   76.7770  216.4048 H   0  0  0  0  0  0  0  0  0  0  0  0
  143.0889   75.2024  215.1378 H   0  0  0  0  0  0  0  0  0  0  0  0
  142.7390   77.0274  215.2995 H   0  0  0  0  0  0  0  0  0  0  0  0
  144.6428   75.3837  216.6005 H   0  0  0  0  0  0  0  0  0  0  0  0
  144.3744   77.2086  216.5216 H   0  0  0  0  0  0  0  0  0  0  0  0
  144.4529   76.2057  218.8506 H   0  0  0  0  0  0  0  0  0  0  0  0
  140.9833   79.4383  220.4132 H   0  0  0  0  0  0  0  0  0  0  0  0
  142.0554   80.6863  218.2492 H   0  0  0  0  0  0  0  0  0  0  0  0
  143.4740   78.9190  217.0480 H   0  0  0  0  0  0  0  0  0  0  0  0
  138.3149   76.2101  222.3541 H   0  0  0  0  0  0  0  0  0  0  0  0
  137.8491   78.5190  223.2094 H   0  0  0  0  0  0  0  0  0  0  0  0
  140.5145   82.2791  224.2124 H   0  0  0  0  0  0  0  0  0  0  0  0
  142.8678   81.6161  223.7134 H   0  0  0  0  0  0  0  0  0  0  0  0
  143.2804   79.2891  222.8534 H   0  0  0  0  0  0  0  0  0  0  0  0
  1  2  2  0
  2  3  1  0
  3  4  1  0
  4  5  1  0
  5  6  2  0
  5  7  1  0
  7  8  1  0
  8  9  1  0
  9 10  1  0
 10 11  1  0
 11 12  1  0
 12 13  1  0
 13 14  2  0
 14 15  1  0
 15 16  2  0
 16 17  1  0
  2 18  1  0
 18 19  2  0
 19 20  1  0
 20 21  2  0
 21 22  1  0
 22 23  1  0
 22 24  2  0
 24 25  1  0
 25 26  2  0
 26 27  1  0
 27 28  2  0
 12  7  1  0
 17 13  1  0
 28 18  1  0
 27 21  1  0
  3 29  1  0
  4 30  1  0
  4 31  1  0
  8 32  1  0
  8 33  1  0
  9 34  1  0
  9 35  1  0
 10 36  1  0
 10 37  1  0
 11 38  1  0
 11 39  1  0
 12 40  1  1
 15 41  1  0
 16 42  1  0
 17 43  1  0
 19 44  1  0
 20 45  1  0
 24 46  1  0
 25 47  1  0
 26 48  1  0
M  END
>  <smiles>  (14) 
O=C(NCC(=O)N1CCCC[C@H]1c1ncc[nH]1)c1ccc2c(Cl)cccc2n1

>  <score_type>  (14) 
oracle

>  <origin>  (14) 
autodockgpu

>  <m_score__min__energy>  (14) 
-8.8900000000000006

>  <m_primary>  (14) 
energy

>  <rmsd>  (14) 
6.422610734468415

>  <m_score__min__rmsd>  (14) 
6.422610734468415

>  <meeko>  (14) 
{"free_energy": -7.03, "intermolecular_energy": -8.52, "internal_energy": -3.08, "cluster_size": 24, "cluster_id": 7, "rank_in_cluster": 4}

>  <energy>  (14) 
-8.07

>  <cluster_rmsd>  (14) 
0.54

>  <cluster>  (14) 
2

$$$$

     RDKit          3D

 48 51  0  0  0  0  0  0  0  0999 V2000
  140.1180   71.9310  220.9680 O   0  0  0  0  0  0  0  0  0  0  0  0
  139.8930   72.3670  222.1420 C   0  0  0  0  0  0  0  0  0  0  0  0
  139.5800   73.7470  222.3410 N   0  0  0  0  0  0  0  0  0  0  0  0
  139.5050   74.6940  221.2410 C   0  0  0  0  0  0  0  0  0  0  0  0
  139.1170   75.9990  221.7840 C   0  0  0  0  0  0  0  0  0  0  0  0
  138.1520   76.1730  222.5700 O   0  0  0  0  0  0  0  0  0  0  0  0
  139.8590   77.1570  221.4170 N   0  0  0  0  0  0  0  0  0  0  0  0
  139.2350   78.2580  220.6810 C   0  0  0  0  0  0  0  0  0  0  0  0
  140.0960   78.8080  219.6130 C   0  0  0  0  0  0  0  0  0  0  0  0
  141.3870   78.1290  219.3440 C   0  0  0  0  0  0  0  0  0  0  0  0
  141.9730   77.2940  220.4100 C   0  0  0  0  0  0  0  0  0  0  0  0
  141.2650   77.3310  221.7420 C   0  0  1  0  0  0  0  0  0  0  0  0
  141.4820   78.6150  222.4580 C   0  0  0  0  0  0  0  0  0  0  0  0
  140.6780   79.1400  223.3860 N   0  0  0  0  0  0  0  0  0  0  0  0
  141.1810   80.3140  223.8240 C   0  0  0  0  0  0  0  0  0  0  0  0
  142.3690   80.5330  223.1230 C   0  0  0  0  0  0  0  0  0  0  0  0
  142.5030   79.4670  222.3060 N   0  0  0  0  0  0  0  0  0  0  0  0
  139.9510   71.4640  223.3020 C   0  0  0  0  0  0  0  0  0  0  0  0
  139.5240   70.1640  223.1530 C   0  0  0  0  0  0  0  0  0  0  0  0
  139.6040   69.3600  224.2850 C   0  0  0  0  0  0  0  0  0  0  0  0
  140.0830   69.8350  225.4910 C   0  0  0  0  0  0  0  0  0  0  0  0
  140.1680   69.0490  226.6190 C   0  0  0  0  0  0  0  0  0  0  0  0
  139.6580   67.3800  226.5670 Cl  0  0  0  0  0  0  0  0  0  0  0  0
  140.6510   69.5720  227.7830 C   0  0  0  0  0  0  0  0  0  0  0  0
  141.0730   70.8940  227.8910 C   0  0  0  0  0  0  0  0  0  0  0  0
  140.9850   71.6800  226.7470 C   0  0  0  0  0  0  0  0  0  0  0  0
  140.5000   71.1490  225.5850 C   0  0  0  0  0  0  0  0  0  0  0  0
  140.4180   71.9140  224.4880 N   0  0  0  0  0  0  0  0  0  0  0  0
  139.4040   74.0440  223.3440 H   0  0  0  0  0  0  0  0  0  0  0  0
  140.4861   74.7722  220.7497 H   0  0  0  0  0  0  0  0  0  0  0  0
  138.7657   74.3566  220.4996 H   0  0  0  0  0  0  0  0  0  0  0  0
  138.3043   77.8899  220.2246 H   0  0  0  0  0  0  0  0  0  0  0  0
  139.0504   79.0687  221.4012 H   0  0  0  0  0  0  0  0  0  0  0  0
  139.5141   78.7871  218.6797 H   0  0  0  0  0  0  0  0  0  0  0  0
  140.3799   79.8073  219.9746 H   0  0  0  0  0  0  0  0  0  0  0  0
  141.2379   77.4812  218.4676 H   0  0  0  0  0  0  0  0  0  0  0  0
  142.1057   78.9521  219.2175 H   0  0  0  0  0  0  0  0  0  0  0  0
  141.9751   76.2517  220.0585 H   0  0  0  0  0  0  0  0  0  0  0  0
  142.9752   77.7081  220.5946 H   0  0  0  0  0  0  0  0  0  0  0  0
  141.6462   76.5516  222.4182 H   0  0  0  0  0  0  0  0  0  0  0  0
  140.7396   80.9721  224.5870 H   0  0  0  0  0  0  0  0  0  0  0  0
  143.0504   81.3915  223.2168 H   0  0  0  0  0  0  0  0  0  0  0  0
  143.3220   79.3740  221.6580 H   0  0  0  0  0  0  0  0  0  0  0  0
  139.1417   69.7832  222.1944 H   0  0  0  0  0  0  0  0  0  0  0  0
  139.2754   68.3123  224.2182 H   0  0  0  0  0  0  0  0  0  0  0  0
  140.7091   68.9241  228.6700 H   0  0  0  0  0  0  0  0  0  0  0  0
  141.4587   71.2988  228.8383 H   0  0  0  0  0  0  0  0  0  0  0  0
  141.3065   72.7315  226.7776 H   0  0  0  0  0  0  0  0  0  0  0  0
  1  2  2  0
  2  3  1  0
  3  4  1  0
  4  5  1  0
  5  6  2  0
  5  7  1  0
  7  8  1  0
  8  9  1  0
  9 10  1  0
 10 11  1  0
 11 12  1  0
 12 13  1  0
 13 14  2  0
 14 15  1  0
 15 16  2  0
 16 17  1  0
  2 18  1  0
 18 19  2  0
 19 20  1  0
 20 21  2  0
 21 22  1  0
 22 23  1  0
 22 24  2  0
 24 25  1  0
 25 26  2  0
 26 27  1  0
 27 28  2  0
 12  7  1  0
 17 13  1  0
 28 18  1  0
 27 21  1  0
  3 29  1  0
  4 30  1  0
  4 31  1  0
  8 32  1  0
  8 33  1  0
  9 34  1  0
  9 35  1  0
 10 36  1  0
 10 37  1  0
 11 38  1  0
 11 39  1  0
 12 40  1  1
 15 41  1  0
 16 42  1  0
 17 43  1  0
 19 44  1  0
 20 45  1  0
 24 46  1  0
 25 47  1  0
 26 48  1  0
M  END
>  <smiles>  (15) 
O=C(NCC(=O)N1CCCC[C@H]1c1ncc[nH]1)c1ccc2c(Cl)cccc2n1

>  <score_type>  (15) 
oracle

>  <origin>  (15) 
autodockgpu

>  <m_score__min__energy>  (15) 
-8.8900000000000006

>  <m_primary>  (15) 
energy

>  <rmsd>  (15) 
2.2205944346514648

>  <m_score__min__rmsd>  (15) 
2.2205944346514648

>  <meeko>  (15) 
{"free_energy": -8.74, "intermolecular_energy": -10.24, "internal_energy": -1.68, "cluster_size": 12, "cluster_id": 1, "rank_in_cluster": 5}

>  <energy>  (15) 
-8.02

>  <cluster_rmsd>  (15) 
1.92

>  <cluster>  (15) 
2

$$$$

     RDKit          3D

 48 51  0  0  0  0  0  0  0  0999 V2000
  138.5310   75.2590  221.9280 O   0  0  0  0  0  0  0  0  0  0  0  0
  139.7190   75.7100  221.9820 C   0  0  0  0  0  0  0  0  0  0  0  0
  140.8260   74.8080  221.9340 N   0  0  0  0  0  0  0  0  0  0  0  0
  140.6530   73.3690  221.8220 C   0  0  0  0  0  0  0  0  0  0  0  0
  141.8670   72.8050  221.2280 C   0  0  0  0  0  0  0  0  0  0  0  0
  142.3740   71.7080  221.5740 O   0  0  0  0  0  0  0  0  0  0  0  0
  142.5360   73.5190  220.1940 N   0  0  0  0  0  0  0  0  0  0  0  0
  142.2730   73.2380  218.7820 C   0  0  0  0  0  0  0  0  0  0  0  0
  143.4950   73.2250  217.9510 C   0  0  0  0  0  0  0  0  0  0  0  0
  144.8030   73.3710  218.6370 C   0  0  0  0  0  0  0  0  0  0  0  0
  144.8230   73.9930  219.9750 C   0  0  0  0  0  0  0  0  0  0  0  0
  143.5120   74.5630  220.4590 C   0  0  1  0  0  0  0  0  0  0  0  0
  143.1460   75.8150  219.7460 C   0  0  0  0  0  0  0  0  0  0  0  0
  143.3670   76.0750  218.4550 N   0  0  0  0  0  0  0  0  0  0  0  0
  142.9060   77.3050  218.1450 C   0  0  0  0  0  0  0  0  0  0  0  0
  142.3670   77.8440  219.3150 C   0  0  0  0  0  0  0  0  0  0  0  0
  142.5400   76.8930  220.2590 N   0  0  0  0  0  0  0  0  0  0  0  0
  139.9680   77.1550  222.0940 C   0  0  0  0  0  0  0  0  0  0  0  0
  139.0480   78.0310  221.5640 C   0  0  0  0  0  0  0  0  0  0  0  0
  139.3400   79.3840  221.7010 C   0  0  0  0  0  0  0  0  0  0  0  0
  140.4860   79.8270  222.3330 C   0  0  0  0  0  0  0  0  0  0  0  0
  140.7860   81.1640  222.4760 C   0  0  0  0  0  0  0  0  0  0  0  0
  139.7030   82.3810  221.8470 Cl  0  0  0  0  0  0  0  0  0  0  0  0
  141.9330   81.5440  223.1100 C   0  0  0  0  0  0  0  0  0  0  0  0
  142.8390   80.6250  223.6340 C   0  0  0  0  0  0  0  0  0  0  0  0
  142.5270   79.2780  223.4850 C   0  0  0  0  0  0  0  0  0  0  0  0
  141.3760   78.9050  222.8480 C   0  0  0  0  0  0  0  0  0  0  0  0
  141.0850   77.6050  222.7100 N   0  0  0  0  0  0  0  0  0  0  0  0
  141.7890   75.2500  221.9830 H   0  0  0  0  0  0  0  0  0  0  0  0
  140.4908   72.9351  222.8197 H   0  0  0  0  0  0  0  0  0  0  0  0
  139.7809   73.1399  221.1919 H   0  0  0  0  0  0  0  0  0  0  0  0
  141.7888   72.2532  218.7063 H   0  0  0  0  0  0  0  0  0  0  0  0
  141.6301   74.0462  218.4033 H   0  0  0  0  0  0  0  0  0  0  0  0
  143.5136   72.2670  217.4108 H   0  0  0  0  0  0  0  0  0  0  0  0
  143.4110   74.1242  217.3230 H   0  0  0  0  0  0  0  0  0  0  0  0
  145.2319   72.3632  218.7393 H   0  0  0  0  0  0  0  0  0  0  0  0
  145.3669   74.0708  218.0027 H   0  0  0  0  0  0  0  0  0  0  0  0
  145.1444   73.2279  220.6971 H   0  0  0  0  0  0  0  0  0  0  0  0
  145.5072   74.8504  219.8934 H   0  0  0  0  0  0  0  0  0  0  0  0
  143.5651   74.8377  221.5228 H   0  0  0  0  0  0  0  0  0  0  0  0
  142.9470   77.7904  217.1587 H   0  0  0  0  0  0  0  0  0  0  0  0
  141.9009   78.8323  219.4412 H   0  0  0  0  0  0  0  0  0  0  0  0
  142.2210   77.0380  221.2460 H   0  0  0  0  0  0  0  0  0  0  0  0
  138.1344   77.6812  221.0610 H   0  0  0  0  0  0  0  0  0  0  0  0
  138.6363   80.1247  221.2933 H   0  0  0  0  0  0  0  0  0  0  0  0
  142.1505   82.6175  223.2112 H   0  0  0  0  0  0  0  0  0  0  0  0
  143.7589   80.9497  224.1423 H   0  0  0  0  0  0  0  0  0  0  0  0
  143.2082   78.5103  223.8808 H   0  0  0  0  0  0  0  0  0  0  0  0
  1  2  2  0
  2  3  1  0
  3  4  1  0
  4  5  1  0
  5  6  2  0
  5  7  1  0
  7  8  1  0
  8  9  1  0
  9 10  1  0
 10 11  1  0
 11 12  1  0
 12 13  1  0
 13 14  2  0
 14 15  1  0
 15 16  2  0
 16 17  1  0
  2 18  1  0
 18 19  2  0
 19 20  1  0
 20 21  2  0
 21 22  1  0
 22 23  1  0
 22 24  2  0
 24 25  1  0
 25 26  2  0
 26 27  1  0
 27 28  2  0
 12  7  1  0
 17 13  1  0
 28 18  1  0
 27 21  1  0
  3 29  1  0
  4 30  1  0
  4 31  1  0
  8 32  1  0
  8 33  1  0
  9 34  1  0
  9 35  1  0
 10 36  1  0
 10 37  1  0
 11 38  1  0
 11 39  1  0
 12 40  1  1
 15 41  1  0
 16 42  1  0
 17 43  1  0
 19 44  1  0
 20 45  1  0
 24 46  1  0
 25 47  1  0
 26 48  1  0
M  END
>  <smiles>  (16) 
O=C(NCC(=O)N1CCCC[C@H]1c1ncc[nH]1)c1ccc2c(Cl)cccc2n1

>  <score_type>  (16) 
oracle

>  <origin>  (16) 
autodockgpu

>  <m_score__min__energy>  (16) 
-8.8900000000000006

>  <m_primary>  (16) 
energy

>  <rmsd>  (16) 
6.814240867131819

>  <m_score__min__rmsd>  (16) 
6.814240867131819

>  <meeko>  (16) 
{"free_energy": -6.59, "intermolecular_energy": -8.09, "internal_energy": -2.89, "cluster_size": 24, "cluster_id": 7, "rank_in_cluster": 22}

>  <energy>  (16) 
-8.02

>  <cluster_rmsd>  (16) 
1.93

>  <cluster>  (16) 
2

$$$$

     RDKit          3D

 48 51  0  0  0  0  0  0  0  0999 V2000
  140.0730   71.7200  221.0060 O   0  0  0  0  0  0  0  0  0  0  0  0
  139.9190   72.2320  222.1610 C   0  0  0  0  0  0  0  0  0  0  0  0
  139.6880   73.6360  222.2920 N   0  0  0  0  0  0  0  0  0  0  0  0
  139.6190   74.5240  221.1430 C   0  0  0  0  0  0  0  0  0  0  0  0
  140.8690   75.2850  221.0740 C   0  0  0  0  0  0  0  0  0  0  0  0
  141.1830   76.1940  221.8840 O   0  0  0  0  0  0  0  0  0  0  0  0
  141.8050   75.0010  220.0390 N   0  0  0  0  0  0  0  0  0  0  0  0
  141.6110   73.8720  219.1280 C   0  0  0  0  0  0  0  0  0  0  0  0
  142.8560   73.1290  218.8460 C   0  0  0  0  0  0  0  0  0  0  0  0
  144.0820   73.5220  219.5850 C   0  0  0  0  0  0  0  0  0  0  0  0
  144.1440   74.8780  220.1620 C   0  0  0  0  0  0  0  0  0  0  0  0
  142.9990   75.7980  219.8140 C   0  0  1  0  0  0  0  0  0  0  0  0
  143.0600   76.2610  218.4030 C   0  0  0  0  0  0  0  0  0  0  0  0
  142.1910   77.0830  217.8100 N   0  0  0  0  0  0  0  0  0  0  0  0
  142.5520   77.2910  216.5250 C   0  0  0  0  0  0  0  0  0  0  0  0
  143.7170   76.5510  216.3060 C   0  0  0  0  0  0  0  0  0  0  0  0
  143.9810   75.9440  217.4840 N   0  0  0  0  0  0  0  0  0  0  0  0
  139.9760   71.3930  223.3670 C   0  0  0  0  0  0  0  0  0  0  0  0
  139.5620   70.0820  223.2850 C   0  0  0  0  0  0  0  0  0  0  0  0
  139.6400   69.3400  224.4580 C   0  0  0  0  0  0  0  0  0  0  0  0
  140.1060   69.8830  225.6400 C   0  0  0  0  0  0  0  0  0  0  0  0
  140.1880   69.1590  226.8090 C   0  0  0  0  0  0  0  0  0  0  0  0
  139.6940   67.4840  226.8420 Cl  0  0  0  0  0  0  0  0  0  0  0  0
  140.6570   69.7480  227.9480 C   0  0  0  0  0  0  0  0  0  0  0  0
  141.0670   71.0770  227.9890 C   0  0  0  0  0  0  0  0  0  0  0  0
  140.9800   71.8010  226.8040 C   0  0  0  0  0  0  0  0  0  0  0  0
  140.5090   71.2040  225.6670 C   0  0  0  0  0  0  0  0  0  0  0  0
  140.4300   71.9090  224.5310 N   0  0  0  0  0  0  0  0  0  0  0  0
  139.5690   73.9970  223.2820 H   0  0  0  0  0  0  0  0  0  0  0  0
  139.4918   73.9335  220.2237 H   0  0  0  0  0  0  0  0  0  0  0  0
  138.7637   75.2084  221.2438 H   0  0  0  0  0  0  0  0  0  0  0  0
  140.8856   73.1794  219.5798 H   0  0  0  0  0  0  0  0  0  0  0  0
  141.2524   74.2820  218.1724 H   0  0  0  0  0  0  0  0  0  0  0  0
  142.6634   72.0696  219.0710 H   0  0  0  0  0  0  0  0  0  0  0  0
  143.0822   73.3589  217.7943 H   0  0  0  0  0  0  0  0  0  0  0  0
  144.2059   72.8091  220.4135 H   0  0  0  0  0  0  0  0  0  0  0  0
  144.8742   73.5143  218.8219 H   0  0  0  0  0  0  0  0  0  0  0  0
  144.1736   74.7768  221.2569 H   0  0  0  0  0  0  0  0  0  0  0  0
  145.0412   75.3440  219.7286 H   0  0  0  0  0  0  0  0  0  0  0  0
  143.0229   76.7132  220.4238 H   0  0  0  0  0  0  0  0  0  0  0  0
  142.0290   77.9221  215.7914 H   0  0  0  0  0  0  0  0  0  0  0  0
  144.2958   76.4782  215.3734 H   0  0  0  0  0  0  0  0  0  0  0  0
  144.8120   75.3170  217.6020 H   0  0  0  0  0  0  0  0  0  0  0  0
  139.1909   69.6470  222.3453 H   0  0  0  0  0  0  0  0  0  0  0  0
  139.3207   68.2874  224.4447 H   0  0  0  0  0  0  0  0  0  0  0  0
  140.7129   69.1488  228.8687 H   0  0  0  0  0  0  0  0  0  0  0  0
  141.4428   71.5345  228.9161 H   0  0  0  0  0  0  0  0  0  0  0  0
  141.2907   72.8560  226.7815 H   0  0  0  0  0  0  0  0  0  0  0  0
  1  2  2  0
  2  3  1  0
  3  4  1  0
  4  5  1  0
  5  6  2  0
  5  7  1  0
  7  8  1  0
  8  9  1  0
  9 10  1  0
 10 11  1  0
 11 12  1  0
 12 13  1  0
 13 14  2  0
 14 15  1  0
 15 16  2  0
 16 17  1  0
  2 18  1  0
 18 19  2  0
 19 20  1  0
 20 21  2  0
 21 22  1  0
 22 23  1  0
 22 24  2  0
 24 25  1  0
 25 26  2  0
 26 27  1  0
 27 28  2  0
 12  7  1  0
 17 13  1  0
 28 18  1  0
 27 21  1  0
  3 29  1  0
  4 30  1  0
  4 31  1  0
  8 32  1  0
  8 33  1  0
  9 34  1  0
  9 35  1  0
 10 36  1  0
 10 37  1  0
 11 38  1  0
 11 39  1  0
 12 40  1  1
 15 41  1  0
 16 42  1  0
 17 43  1  0
 19 44  1  0
 20 45  1  0
 24 46  1  0
 25 47  1  0
 26 48  1  0
M  END
>  <smiles>  (17) 
O=C(NCC(=O)N1CCCC[C@H]1c1ncc[nH]1)c1ccc2c(Cl)cccc2n1

>  <score_type>  (17) 
oracle

>  <origin>  (17) 
autodockgpu

>  <m_score__min__energy>  (17) 
-8.8900000000000006

>  <m_primary>  (17) 
energy

>  <rmsd>  (17) 
3.4938105694293093

>  <m_score__min__rmsd>  (17) 
3.4938105694293093

>  <meeko>  (17) 
{"free_energy": -8.02, "intermolecular_energy": -9.51, "internal_energy": -1.81, "cluster_size": 5, "cluster_id": 2, "rank_in_cluster": 4}

>  <energy>  (17) 
-7.76

>  <cluster_rmsd>  (17) 
1.81

>  <cluster>  (17) 
2

$$$$

     RDKit          3D

 48 51  0  0  0  0  0  0  0  0999 V2000
  139.7650   71.9810  220.9430 O   0  0  0  0  0  0  0  0  0  0  0  0
  139.7170   72.4410  222.1280 C   0  0  0  0  0  0  0  0  0  0  0  0
  139.5380   73.8430  222.3400 N   0  0  0  0  0  0  0  0  0  0  0  0
  139.4040   74.7850  221.2420 C   0  0  0  0  0  0  0  0  0  0  0  0
  139.0590   76.0950  221.8000 C   0  0  0  0  0  0  0  0  0  0  0  0
  138.1270   76.2840  222.6230 O   0  0  0  0  0  0  0  0  0  0  0  0
  139.8050   77.2420  221.4050 N   0  0  0  0  0  0  0  0  0  0  0  0
  139.1750   78.3440  220.6760 C   0  0  0  0  0  0  0  0  0  0  0  0
  140.0160   78.8770  219.5830 C   0  0  0  0  0  0  0  0  0  0  0  0
  141.2920   78.1800  219.2870 C   0  0  0  0  0  0  0  0  0  0  0  0
  141.8940   77.3470  220.3440 C   0  0  0  0  0  0  0  0  0  0  0  0
  141.2200   77.4010  221.6940 C   0  0  1  0  0  0  0  0  0  0  0  0
  141.4700   78.6890  222.3940 C   0  0  0  0  0  0  0  0  0  0  0  0
  140.8750   79.0980  223.5170 N   0  0  0  0  0  0  0  0  0  0  0  0
  141.3410   80.3150  223.8720 C   0  0  0  0  0  0  0  0  0  0  0  0
  142.2820   80.6850  222.9090 C   0  0  0  0  0  0  0  0  0  0  0  0
  142.3200   79.6570  222.0330 N   0  0  0  0  0  0  0  0  0  0  0  0
  139.8440   71.5450  223.2870 C   0  0  0  0  0  0  0  0  0  0  0  0
  139.4940   70.2210  223.1440 C   0  0  0  0  0  0  0  0  0  0  0  0
  139.6370   69.4240  224.2750 C   0  0  0  0  0  0  0  0  0  0  0  0
  140.1020   69.9280  225.4740 C   0  0  0  0  0  0  0  0  0  0  0  0
  140.2480   69.1500  226.6010 C   0  0  0  0  0  0  0  0  0  0  0  0
  139.8390   67.4530  226.5560 Cl  0  0  0  0  0  0  0  0  0  0  0  0
  140.7130   69.7020  227.7590 C   0  0  0  0  0  0  0  0  0  0  0  0
  141.0570   71.0470  227.8620 C   0  0  0  0  0  0  0  0  0  0  0  0
  140.9070   71.8260  226.7190 C   0  0  0  0  0  0  0  0  0  0  0  0
  140.4400   71.2650  225.5620 C   0  0  0  0  0  0  0  0  0  0  0  0
  140.2980   72.0220  224.4670 N   0  0  0  0  0  0  0  0  0  0  0  0
  139.5070   74.1600  223.3510 H   0  0  0  0  0  0  0  0  0  0  0  0
  140.3544   74.8533  220.6923 H   0  0  0  0  0  0  0  0  0  0  0  0
  138.6190   74.4496  220.5483 H   0  0  0  0  0  0  0  0  0  0  0  0
  138.2297   77.9826  220.2450 H   0  0  0  0  0  0  0  0  0  0  0  0
  139.0164   79.1619  221.3942 H   0  0  0  0  0  0  0  0  0  0  0  0
  139.4110   78.8573  218.6645 H   0  0  0  0  0  0  0  0  0  0  0  0
  140.3206   79.8752  219.9304 H   0  0  0  0  0  0  0  0  0  0  0  0
  141.1132   77.5272  218.4199 H   0  0  0  0  0  0  0  0  0  0  0  0
  142.0172   78.9932  219.1357 H   0  0  0  0  0  0  0  0  0  0  0  0
  141.8757   76.3022  220.0003 H   0  0  0  0  0  0  0  0  0  0  0  0
  142.9047   77.7518  220.5009 H   0  0  0  0  0  0  0  0  0  0  0  0
  141.6084   76.6219  222.3665 H   0  0  0  0  0  0  0  0  0  0  0  0
  141.0374   80.9022  224.7512 H   0  0  0  0  0  0  0  0  0  0  0  0
  142.8677   81.6154  222.8715 H   0  0  0  0  0  0  0  0  0  0  0  0
  142.9530   79.6730  221.1980 H   0  0  0  0  0  0  0  0  0  0  0  0
  139.1228   69.8170  222.1906 H   0  0  0  0  0  0  0  0  0  0  0  0
  139.3713   68.3584  224.2126 H   0  0  0  0  0  0  0  0  0  0  0  0
  140.8202   69.0594  228.6453 H   0  0  0  0  0  0  0  0  0  0  0  0
  141.4305   71.4745  228.8042 H   0  0  0  0  0  0  0  0  0  0  0  0
  141.1644   72.8951  226.7457 H   0  0  0  0  0  0  0  0  0  0  0  0
  1  2  2  0
  2  3  1  0
  3  4  1  0
  4  5  1  0
  5  6  2  0
  5  7  1  0
  7  8  1  0
  8  9  1  0
  9 10  1  0
 10 11  1  0
 11 12  1  0
 12 13  1  0
 13 14  2  0
 14 15  1  0
 15 16  2  0
 16 17  1  0
  2 18  1  0
 18 19  2  0
 19 20  1  0
 20 21  2  0
 21 22  1  0
 22 23  1  0
 22 24  2  0
 24 25  1  0
 25 26  2  0
 26 27  1  0
 27 28  2  0
 12  7  1  0
 17 13  1  0
 28 18  1  0
 27 21  1  0
  3 29  1  0
  4 30  1  0
  4 31  1  0
  8 32  1  0
  8 33  1  0
  9 34  1  0
  9 35  1  0
 10 36  1  0
 10 37  1  0
 11 38  1  0
 11 39  1  0
 12 40  1  1
 15 41  1  0
 16 42  1  0
 17 43  1  0
 19 44  1  0
 20 45  1  0
 24 46  1  0
 25 47  1  0
 26 48  1  0
M  END
>  <smiles>  (18) 
O=C(NCC(=O)N1CCCC[C@H]1c1ncc[nH]1)c1ccc2c(Cl)cccc2n1

>  <score_type>  (18) 
oracle

>  <origin>  (18) 
autodockgpu

>  <m_score__min__energy>  (18) 
-8.8900000000000006

>  <m_primary>  (18) 
energy

>  <rmsd>  (18) 
2.2287666026949906

>  <m_score__min__rmsd>  (18) 
2.2287666026949906

>  <meeko>  (18) 
{"free_energy": -8.54, "intermolecular_energy": -10.03, "internal_energy": -1.72, "cluster_size": 12, "cluster_id": 1, "rank_in_cluster": 7}

>  <energy>  (18) 
-8.0

>  <cluster_rmsd>  (18) 
0.0

>  <cluster>  (18) 
3

$$$$

     RDKit          3D

 48 51  0  0  0  0  0  0  0  0999 V2000
  140.2700   74.2440  221.9240 O   0  0  0  0  0  0  0  0  0  0  0  0
  140.9610   75.2890  221.7030 C   0  0  0  0  0  0  0  0  0  0  0  0
  142.1930   75.1890  220.9860 N   0  0  0  0  0  0  0  0  0  0  0  0
  142.7020   73.9220  220.4860 C   0  0  0  0  0  0  0  0  0  0  0  0
  142.8940   74.0430  219.0390 C   0  0  0  0  0  0  0  0  0  0  0  0
  143.4550   73.1700  218.3290 O   0  0  0  0  0  0  0  0  0  0  0  0
  142.4290   75.2090  218.3660 N   0  0  0  0  0  0  0  0  0  0  0  0
  141.0180   75.3720  218.0160 C   0  0  0  0  0  0  0  0  0  0  0  0
  140.8130   75.9440  216.6690 C   0  0  0  0  0  0  0  0  0  0  0  0
  142.0090   76.1620  215.8180 C   0  0  0  0  0  0  0  0  0  0  0  0
  143.3230   76.2740  216.4770 C   0  0  0  0  0  0  0  0  0  0  0  0
  143.3060   76.3040  217.9860 C   0  0  1  0  0  0  0  0  0  0  0  0
  142.7920   77.5940  218.5170 C   0  0  0  0  0  0  0  0  0  0  0  0
  142.0860   77.7540  219.6390 N   0  0  0  0  0  0  0  0  0  0  0  0
  141.7840   79.0590  219.8140 C   0  0  0  0  0  0  0  0  0  0  0  0
  142.3360   79.7510  218.7340 C   0  0  0  0  0  0  0  0  0  0  0  0
  142.9380   78.8100  217.9750 N   0  0  0  0  0  0  0  0  0  0  0  0
  140.5060   76.6040  222.1780 C   0  0  0  0  0  0  0  0  0  0  0  0
  139.1550   76.8350  222.3010 C   0  0  0  0  0  0  0  0  0  0  0  0
  138.7880   78.0970  222.7550 C   0  0  0  0  0  0  0  0  0  0  0  0
  139.7220   79.0660  223.0670 C   0  0  0  0  0  0  0  0  0  0  0  0
  139.3720   80.3200  223.5190 C   0  0  0  0  0  0  0  0  0  0  0  0
  137.6900   80.7430  223.7180 Cl  0  0  0  0  0  0  0  0  0  0  0  0
  140.3390   81.2360  223.8110 C   0  0  0  0  0  0  0  0  0  0  0  0
  141.6970   80.9630  223.6740 C   0  0  0  0  0  0  0  0  0  0  0  0
  142.0420   79.6940  223.2180 C   0  0  0  0  0  0  0  0  0  0  0  0
  141.0670   78.7810  222.9260 C   0  0  0  0  0  0  0  0  0  0  0  0
  141.4080   77.5630  222.4880 N   0  0  0  0  0  0  0  0  0  0  0  0
  142.7190   76.0970  220.8360 H   0  0  0  0  0  0  0  0  0  0  0  0
  143.6618   73.6894  220.9705 H   0  0  0  0  0  0  0  0  0  0  0  0
  141.9901   73.1133  220.7078 H   0  0  0  0  0  0  0  0  0  0  0  0
  140.5324   74.3857  218.0543 H   0  0  0  0  0  0  0  0  0  0  0  0
  140.5818   76.0766  218.7394 H   0  0  0  0  0  0  0  0  0  0  0  0
  140.1420   75.2644  216.1232 H   0  0  0  0  0  0  0  0  0  0  0  0
  140.4190   76.9540  216.8552 H   0  0  0  0  0  0  0  0  0  0  0  0
  142.0676   75.3175  215.1156 H   0  0  0  0  0  0  0  0  0  0  0  0
  141.8454   77.1520  215.3672 H   0  0  0  0  0  0  0  0  0  0  0  0
  143.9309   75.4122  216.1644 H   0  0  0  0  0  0  0  0  0  0  0  0
  143.7289   77.2478  216.1656 H   0  0  0  0  0  0  0  0  0  0  0  0
  144.3207   76.2018  218.3983 H   0  0  0  0  0  0  0  0  0  0  0  0
  141.2127   79.4934  220.6476 H   0  0  0  0  0  0  0  0  0  0  0  0
  142.2902   80.8332  218.5421 H   0  0  0  0  0  0  0  0  0  0  0  0
  143.4380   79.0590  217.0890 H   0  0  0  0  0  0  0  0  0  0  0  0
  138.4085   76.0657  222.0544 H   0  0  0  0  0  0  0  0  0  0  0  0
  137.7194   78.3314  222.8695 H   0  0  0  0  0  0  0  0  0  0  0  0
  140.0337   82.2303  224.1691 H   0  0  0  0  0  0  0  0  0  0  0  0
  142.4623   81.7155  223.9150 H   0  0  0  0  0  0  0  0  0  0  0  0
  143.1012   79.4251  223.0923 H   0  0  0  0  0  0  0  0  0  0  0  0
  1  2  2  0
  2  3  1  0
  3  4  1  0
  4  5  1  0
  5  6  2  0
  5  7  1  0
  7  8  1  0
  8  9  1  0
  9 10  1  0
 10 11  1  0
 11 12  1  0
 12 13  1  0
 13 14  2  0
 14 15  1  0
 15 16  2  0
 16 17  1  0
  2 18  1  0
 18 19  2  0
 19 20  1  0
 20 21  2  0
 21 22  1  0
 22 23  1  0
 22 24  2  0
 24 25  1  0
 25 26  2  0
 26 27  1  0
 27 28  2  0
 12  7  1  0
 17 13  1  0
 28 18  1  0
 27 21  1  0
  3 29  1  0
  4 30  1  0
  4 31  1  0
  8 32  1  0
  8 33  1  0
  9 34  1  0
  9 35  1  0
 10 36  1  0
 10 37  1  0
 11 38  1  0
 11 39  1  0
 12 40  1  1
 15 41  1  0
 16 42  1  0
 17 43  1  0
 19 44  1  0
 20 45  1  0
 24 46  1  0
 25 47  1  0
 26 48  1  0
M  END
>  <smiles>  (19) 
O=C(NCC(=O)N1CCCC[C@H]1c1ncc[nH]1)c1ccc2c(Cl)cccc2n1

>  <score_type>  (19) 
oracle

>  <origin>  (19) 
autodockgpu

>  <m_score__min__energy>  (19) 
-8.8900000000000006

>  <m_primary>  (19) 
energy

>  <rmsd>  (19) 
6.385477606597811

>  <m_score__min__rmsd>  (19) 
6.385477606597811

>  <meeko>  (19) 
{"free_energy": -6.81, "intermolecular_energy": -8.3, "internal_energy": -3.09, "cluster_size": 24, "cluster_id": 7, "rank_in_cluster": 9}

>  <energy>  (19) 
-7.47

>  <cluster_rmsd>  (19) 
0.84

>  <cluster>  (19) 
3

$$$$

     RDKit          3D

 48 51  0  0  0  0  0  0  0  0999 V2000
  140.2980   74.2700  221.9420 O   0  0  0  0  0  0  0  0  0  0  0  0
  140.9830   75.3180  221.7150 C   0  0  0  0  0  0  0  0  0  0  0  0
  142.2060   75.2250  220.9810 N   0  0  0  0  0  0  0  0  0  0  0  0
  142.7120   73.9610  220.4710 C   0  0  0  0  0  0  0  0  0  0  0  0
  142.6740   74.0090  219.0070 C   0  0  0  0  0  0  0  0  0  0  0  0
  143.0160   73.0540  218.2640 O   0  0  0  0  0  0  0  0  0  0  0  0
  142.2280   75.1950  218.3570 N   0  0  0  0  0  0  0  0  0  0  0  0
  140.8100   75.4190  218.0730 C   0  0  0  0  0  0  0  0  0  0  0  0
  140.5670   76.0030  216.7380 C   0  0  0  0  0  0  0  0  0  0  0  0
  141.7300   76.1710  215.8320 C   0  0  0  0  0  0  0  0  0  0  0  0
  143.0780   76.2260  216.4290 C   0  0  0  0  0  0  0  0  0  0  0  0
  143.1330   76.2530  217.9370 C   0  0  1  0  0  0  0  0  0  0  0  0
  142.6990   77.5620  218.4910 C   0  0  0  0  0  0  0  0  0  0  0  0
  141.9950   77.7450  219.6110 N   0  0  0  0  0  0  0  0  0  0  0  0
  141.7780   79.0630  219.8120 C   0  0  0  0  0  0  0  0  0  0  0  0
  142.3840   79.7400  218.7510 C   0  0  0  0  0  0  0  0  0  0  0  0
  142.9290   78.7770  217.9770 N   0  0  0  0  0  0  0  0  0  0  0  0
  140.5300   76.6300  222.2010 C   0  0  0  0  0  0  0  0  0  0  0  0
  139.1810   76.8470  222.3680 C   0  0  0  0  0  0  0  0  0  0  0  0
  138.8160   78.1070  222.8300 C   0  0  0  0  0  0  0  0  0  0  0  0
  139.7500   79.0870  223.1070 C   0  0  0  0  0  0  0  0  0  0  0  0
  139.4010   80.3380  223.5650 C   0  0  0  0  0  0  0  0  0  0  0  0
  137.7220   80.7440  223.8200 Cl  0  0  0  0  0  0  0  0  0  0  0  0
  140.3670   81.2670  223.8220 C   0  0  0  0  0  0  0  0  0  0  0  0
  141.7220   81.0070  223.6400 C   0  0  0  0  0  0  0  0  0  0  0  0
  142.0660   79.7410  223.1770 C   0  0  0  0  0  0  0  0  0  0  0  0
  141.0920   78.8160  222.9220 C   0  0  0  0  0  0  0  0  0  0  0  0
  141.4320   77.5990  222.4770 N   0  0  0  0  0  0  0  0  0  0  0  0
  142.7270   76.1350  220.8280 H   0  0  0  0  0  0  0  0  0  0  0  0
  143.7469   73.8097  220.8117 H   0  0  0  0  0  0  0  0  0  0  0  0
  142.0948   73.1285  220.8397 H   0  0  0  0  0  0  0  0  0  0  0  0
  140.2852   74.4541  218.1329 H   0  0  0  0  0  0  0  0  0  0  0  0
  140.4385   76.1395  218.8165 H   0  0  0  0  0  0  0  0  0  0  0  0
  139.8420   75.3549  216.2239 H   0  0  0  0  0  0  0  0  0  0  0  0
  140.2265   77.0287  216.9432 H   0  0  0  0  0  0  0  0  0  0  0  0
  141.7195   75.3258  215.1281 H   0  0  0  0  0  0  0  0  0  0  0  0
  141.5879   77.1677  215.3889 H   0  0  0  0  0  0  0  0  0  0  0  0
  143.6336   75.3401  216.0878 H   0  0  0  0  0  0  0  0  0  0  0  0
  143.5096   77.1825  216.0993 H   0  0  0  0  0  0  0  0  0  0  0  0
  144.1604   76.1067  218.3018 H   0  0  0  0  0  0  0  0  0  0  0  0
  141.2292   79.5164  220.6506 H   0  0  0  0  0  0  0  0  0  0  0  0
  142.4114   80.8266  218.5819 H   0  0  0  0  0  0  0  0  0  0  0  0
  143.4530   79.0110  217.1010 H   0  0  0  0  0  0  0  0  0  0  0  0
  138.4349   76.0690  222.1487 H   0  0  0  0  0  0  0  0  0  0  0  0
  137.7494   78.3307  222.9797 H   0  0  0  0  0  0  0  0  0  0  0  0
  140.0631   82.2592  224.1870 H   0  0  0  0  0  0  0  0  0  0  0  0
  142.4868   81.7685  223.8527 H   0  0  0  0  0  0  0  0  0  0  0  0
  143.1233   79.4838  223.0158 H   0  0  0  0  0  0  0  0  0  0  0  0
  1  2  2  0
  2  3  1  0
  3  4  1  0
  4  5  1  0
  5  6  2  0
  5  7  1  0
  7  8  1  0
  8  9  1  0
  9 10  1  0
 10 11  1  0
 11 12  1  0
 12 13  1  0
 13 14  2  0
 14 15  1  0
 15 16  2  0
 16 17  1  0
  2 18  1  0
 18 19  2  0
 19 20  1  0
 20 21  2  0
 21 22  1  0
 22 23  1  0
 22 24  2  0
 24 25  1  0
 25 26  2  0
 26 27  1  0
 27 28  2  0
 12  7  1  0
 17 13  1  0
 28 18  1  0
 27 21  1  0
  3 29  1  0
  4 30  1  0
  4 31  1  0
  8 32  1  0
  8 33  1  0
  9 34  1  0
  9 35  1  0
 10 36  1  0
 10 37  1  0
 11 38  1  0
 11 39  1  0
 12 40  1  6
 15 41  1  0
 16 42  1  0
 17 43  1  0
 19 44  1  0
 20 45  1  0
 24 46  1  0
 25 47  1  0
 26 48  1  0
M  END
>  <smiles>  (20) 
O=C(NCC(=O)N1CCCC[C@H]1c1ncc[nH]1)c1ccc2c(Cl)cccc2n1

>  <score_type>  (20) 
oracle

>  <origin>  (20) 
autodockgpu

>  <m_score__min__energy>  (20) 
-8.8900000000000006

>  <m_primary>  (20) 
energy

>  <rmsd>  (20) 
6.384770711298438

>  <m_score__min__rmsd>  (20) 
6.384770711298438

>  <meeko>  (20) 
{"free_energy": -6.68, "intermolecular_energy": -8.18, "internal_energy": -3.09, "cluster_size": 24, "cluster_id": 7, "rank_in_cluster": 15}

>  <energy>  (20) 
-7.84

>  <cluster_rmsd>  (20) 
0.0

>  <cluster>  (20) 
4

$$$$

     RDKit          3D

 48 51  0  0  0  0  0  0  0  0999 V2000
  141.1850   72.0180  221.3420 O   0  0  0  0  0  0  0  0  0  0  0  0
  140.4250   72.3350  222.3110 C   0  0  0  0  0  0  0  0  0  0  0  0
  139.6560   73.5380  222.2500 N   0  0  0  0  0  0  0  0  0  0  0  0
  139.7040   74.4340  221.1060 C   0  0  0  0  0  0  0  0  0  0  0  0
  140.8230   75.3610  221.2960 C   0  0  0  0  0  0  0  0  0  0  0  0
  140.8960   76.1900  222.2380 O   0  0  0  0  0  0  0  0  0  0  0  0
  141.9070   75.3460  220.3730 N   0  0  0  0  0  0  0  0  0  0  0  0
  142.6750   76.5580  220.0820 C   0  0  0  0  0  0  0  0  0  0  0  0
  142.9960   76.7160  218.6480 C   0  0  0  0  0  0  0  0  0  0  0  0
  142.4210   75.7330  217.6960 C   0  0  0  0  0  0  0  0  0  0  0  0
  141.9960   74.4210  218.2190 C   0  0  0  0  0  0  0  0  0  0  0  0
  142.3260   74.1470  219.6660 C   0  0  1  0  0  0  0  0  0  0  0  0
  143.7770   73.8980  219.8730 C   0  0  0  0  0  0  0  0  0  0  0  0
  144.4510   74.0890  221.0100 N   0  0  0  0  0  0  0  0  0  0  0  0
  145.7500   73.7610  220.8390 C   0  0  0  0  0  0  0  0  0  0  0  0
  145.8920   73.3420  219.5150 C   0  0  0  0  0  0  0  0  0  0  0  0
  144.6590   73.4460  218.9730 N   0  0  0  0  0  0  0  0  0  0  0  0
  140.3260   71.4740  223.5000 C   0  0  0  0  0  0  0  0  0  0  0  0
  139.8480   70.1910  223.3530 C   0  0  0  0  0  0  0  0  0  0  0  0
  139.7790   69.4270  224.5130 C   0  0  0  0  0  0  0  0  0  0  0  0
  140.1670   69.9230  225.7430 C   0  0  0  0  0  0  0  0  0  0  0  0
  140.1040   69.1760  226.8990 C   0  0  0  0  0  0  0  0  0  0  0  0
  139.5150   67.5330  226.8530 Cl  0  0  0  0  0  0  0  0  0  0  0  0
  140.5000   69.7180  228.0870 C   0  0  0  0  0  0  0  0  0  0  0  0
  140.9790   71.0210  228.1920 C   0  0  0  0  0  0  0  0  0  0  0  0
  141.0400   71.7680  227.0200 C   0  0  0  0  0  0  0  0  0  0  0  0
  140.6400   71.2180  225.8340 C   0  0  0  0  0  0  0  0  0  0  0  0
  140.7020   71.9440  224.7110 N   0  0  0  0  0  0  0  0  0  0  0  0
  139.0440   73.7420  223.0910 H   0  0  0  0  0  0  0  0  0  0  0  0
  139.8544   73.8529  220.1842 H   0  0  0  0  0  0  0  0  0  0  0  0
  138.7596   74.9914  221.0205 H   0  0  0  0  0  0  0  0  0  0  0  0
  142.0879   77.4298  220.4066 H   0  0  0  0  0  0  0  0  0  0  0  0
  143.6295   76.4767  220.6227 H   0  0  0  0  0  0  0  0  0  0  0  0
  142.6456   77.7126  218.3416 H   0  0  0  0  0  0  0  0  0  0  0  0
  144.0825   76.5549  218.5888 H   0  0  0  0  0  0  0  0  0  0  0  0
  141.5385   76.2021  217.2365 H   0  0  0  0  0  0  0  0  0  0  0  0
  143.2509   75.4979  217.0134 H   0  0  0  0  0  0  0  0  0  0  0  0
  140.9044   74.3503  218.1036 H   0  0  0  0  0  0  0  0  0  0  0  0
  142.5592   73.6744  217.6399 H   0  0  0  0  0  0  0  0  0  0  0  0
  141.8188   73.2399  220.0263 H   0  0  0  0  0  0  0  0  0  0  0  0
  146.5444   73.8139  221.5981 H   0  0  0  0  0  0  0  0  0  0  0  0
  146.8121   72.9999  219.0187 H   0  0  0  0  0  0  0  0  0  0  0  0
  144.4780   73.1910  217.9730 H   0  0  0  0  0  0  0  0  0  0  0  0
  139.5388   69.7936  222.3750 H   0  0  0  0  0  0  0  0  0  0  0  0
  139.4036   68.3950  224.4494 H   0  0  0  0  0  0  0  0  0  0  0  0
  140.4384   69.1020  228.9963 H   0  0  0  0  0  0  0  0  0  0  0  0
  141.2951   71.4410  229.1583 H   0  0  0  0  0  0  0  0  0  0  0  0
  141.4108   72.8032  227.0476 H   0  0  0  0  0  0  0  0  0  0  0  0
  1  2  2  0
  2  3  1  0
  3  4  1  0
  4  5  1  0
  5  6  2  0
  5  7  1  0
  7  8  1  0
  8  9  1  0
  9 10  1  0
 10 11  1  0
 11 12  1  0
 12 13  1  0
 13 14  2  0
 14 15  1  0
 15 16  2  0
 16 17  1  0
  2 18  1  0
 18 19  2  0
 19 20  1  0
 20 21  2  0
 21 22  1  0
 22 23  1  0
 22 24  2  0
 24 25  1  0
 25 26  2  0
 26 27  1  0
 27 28  2  0
 12  7  1  0
 17 13  1  0
 28 18  1  0
 27 21  1  0
  3 29  1  0
  4 30  1  0
  4 31  1  0
  8 32  1  0
  8 33  1  0
  9 34  1  0
  9 35  1  0
 10 36  1  0
 10 37  1  0
 11 38  1  0
 11 39  1  0
 12 40  1  1
 15 41  1  0
 16 42  1  0
 17 43  1  0
 19 44  1  0
 20 45  1  0
 24 46  1  0
 25 47  1  0
 26 48  1  0
M  END
>  <smiles>  (21) 
O=C(NCC(=O)N1CCCC[C@H]1c1ncc[nH]1)c1ccc2c(Cl)cccc2n1

>  <score_type>  (21) 
oracle

>  <origin>  (21) 
autodockgpu

>  <m_score__min__energy>  (21) 
-8.8900000000000006

>  <m_primary>  (21) 
energy

>  <rmsd>  (21) 
3.714369075024085

>  <m_score__min__rmsd>  (21) 
3.714369075024085

>  <meeko>  (21) 
{"free_energy": -8.07, "intermolecular_energy": -9.56, "internal_energy": -1.68, "cluster_size": 5, "cluster_id": 2, "rank_in_cluster": 2}

>  <energy>  (21) 
-7.69

>  <cluster_rmsd>  (21) 
0.0

>  <cluster>  (21) 
5

$$$$

     RDKit          3D

 48 51  0  0  0  0  0  0  0  0999 V2000
  140.0430   74.2640  222.0000 O   0  0  0  0  0  0  0  0  0  0  0  0
  140.8050   75.2530  221.7600 C   0  0  0  0  0  0  0  0  0  0  0  0
  142.0000   75.0640  220.9990 N   0  0  0  0  0  0  0  0  0  0  0  0
  142.3900   73.7660  220.4750 C   0  0  0  0  0  0  0  0  0  0  0  0
  142.9700   73.9630  219.1440 C   0  0  0  0  0  0  0  0  0  0  0  0
  143.7920   73.1750  218.6120 O   0  0  0  0  0  0  0  0  0  0  0  0
  142.6010   75.1090  218.3830 N   0  0  0  0  0  0  0  0  0  0  0  0
  141.2740   75.2240  217.7780 C   0  0  0  0  0  0  0  0  0  0  0  0
  141.3020   75.7810  216.4090 C   0  0  0  0  0  0  0  0  0  0  0  0
  142.6270   76.0320  215.7890 C   0  0  0  0  0  0  0  0  0  0  0  0
  143.7940   76.1900  216.6770 C   0  0  0  0  0  0  0  0  0  0  0  0
  143.4990   76.2300  218.1570 C   0  0  1  0  0  0  0  0  0  0  0  0
  142.8570   77.5060  218.5680 C   0  0  0  0  0  0  0  0  0  0  0  0
  142.0730   77.6810  219.6350 N   0  0  0  0  0  0  0  0  0  0  0  0
  141.6630   78.9650  219.7030 C   0  0  0  0  0  0  0  0  0  0  0  0
  142.2270   79.6290  218.6110 C   0  0  0  0  0  0  0  0  0  0  0  0
  142.9440   78.6920  217.9540 N   0  0  0  0  0  0  0  0  0  0  0  0
  140.4710   76.5960  222.2590 C   0  0  0  0  0  0  0  0  0  0  0  0
  139.1540   76.9000  222.5190 C   0  0  0  0  0  0  0  0  0  0  0  0
  138.9020   78.1840  222.9890 C   0  0  0  0  0  0  0  0  0  0  0  0
  139.9130   79.1050  223.1840 C   0  0  0  0  0  0  0  0  0  0  0  0
  139.6770   80.3810  223.6500 C   0  0  0  0  0  0  0  0  0  0  0  0
  138.0490   80.8940  224.0170 Cl  0  0  0  0  0  0  0  0  0  0  0  0
  140.7150   81.2480  223.8240 C   0  0  0  0  0  0  0  0  0  0  0  0
  142.0350   80.9020  223.5500 C   0  0  0  0  0  0  0  0  0  0  0  0
  142.2640   79.6120  223.0810 C   0  0  0  0  0  0  0  0  0  0  0  0
  141.2190   78.7480  222.9080 C   0  0  0  0  0  0  0  0  0  0  0  0
  141.4490   77.5090  222.4570 N   0  0  0  0  0  0  0  0  0  0  0  0
  142.5890   75.9290  220.8360 H   0  0  0  0  0  0  0  0  0  0  0  0
  143.1343   73.3045  221.1406 H   0  0  0  0  0  0  0  0  0  0  0  0
  141.5141   73.1035  220.4126 H   0  0  0  0  0  0  0  0  0  0  0  0
  140.8204   74.2227  217.7384 H   0  0  0  0  0  0  0  0  0  0  0  0
  140.6911   75.9187  218.4006 H   0  0  0  0  0  0  0  0  0  0  0  0
  140.7635   75.0769  215.7576 H   0  0  0  0  0  0  0  0  0  0  0  0
  140.8498   76.7789  216.5076 H   0  0  0  0  0  0  0  0  0  0  0  0
  142.8392   75.1856  215.1193 H   0  0  0  0  0  0  0  0  0  0  0  0
  142.5191   77.0134  215.3040 H   0  0  0  0  0  0  0  0  0  0  0  0
  144.4743   75.3456  216.4922 H   0  0  0  0  0  0  0  0  0  0  0  0
  144.2211   77.1739  216.4331 H   0  0  0  0  0  0  0  0  0  0  0  0
  144.4229   76.1640  218.7503 H   0  0  0  0  0  0  0  0  0  0  0  0
  141.0098   79.4045  220.4712 H   0  0  0  0  0  0  0  0  0  0  0  0
  142.1116   80.6896  218.3432 H   0  0  0  0  0  0  0  0  0  0  0  0
  143.4770   78.9230  217.0830 H   0  0  0  0  0  0  0  0  0  0  0  0
  138.3470   76.1688  222.3638 H   0  0  0  0  0  0  0  0  0  0  0  0
  137.8652   78.4756  223.2126 H   0  0  0  0  0  0  0  0  0  0  0  0
  140.5006   82.2609  224.1956 H   0  0  0  0  0  0  0  0  0  0  0  0
  142.8592   81.6154  223.6974 H   0  0  0  0  0  0  0  0  0  0  0  0
  143.2888   79.2867  222.8488 H   0  0  0  0  0  0  0  0  0  0  0  0
  1  2  2  0
  2  3  1  0
  3  4  1  0
  4  5  1  0
  5  6  2  0
  5  7  1  0
  7  8  1  0
  8  9  1  0
  9 10  1  0
 10 11  1  0
 11 12  1  0
 12 13  1  0
 13 14  2  0
 14 15  1  0
 15 16  2  0
 16 17  1  0
  2 18  1  0
 18 19  2  0
 19 20  1  0
 20 21  2  0
 21 22  1  0
 22 23  1  0
 22 24  2  0
 24 25  1  0
 25 26  2  0
 26 27  1  0
 27 28  2  0
 12  7  1  0
 17 13  1  0
 28 18  1  0
 27 21  1  0
  3 29  1  0
  4 30  1  0
  4 31  1  0
  8 32  1  0
  8 33  1  0
  9 34  1  0
  9 35  1  0
 10 36  1  0
 10 37  1  0
 11 38  1  0
 11 39  1  0
 12 40  1  1
 15 41  1  0
 16 42  1  0
 17 43  1  0
 19 44  1  0
 20 45  1  0
 24 46  1  0
 25 47  1  0
 26 48  1  0
M  END
>  <smiles>  (22) 
O=C(NCC(=O)N1CCCC[C@H]1c1ncc[nH]1)c1ccc2c(Cl)cccc2n1

>  <score_type>  (22) 
oracle

>  <origin>  (22) 
autodockgpu

>  <m_score__min__energy>  (22) 
-8.8900000000000006

>  <m_primary>  (22) 
energy

>  <rmsd>  (22) 
6.402088867597801

>  <m_score__min__rmsd>  (22) 
6.402088867597801

>  <meeko>  (22) 
{"free_energy": -7.04, "intermolecular_energy": -8.53, "internal_energy": -3.07, "cluster_size": 24, "cluster_id": 7, "rank_in_cluster": 2}

>  <energy>  (22) 
-7.24

>  <cluster_rmsd>  (22) 
0.0

>  <cluster>  (22) 
6

$$$$

     RDKit          3D

 48 51  0  0  0  0  0  0  0  0999 V2000
  141.0470   74.4770  221.3120 O   0  0  0  0  0  0  0  0  0  0  0  0
  140.0230   74.9180  221.9250 C   0  0  0  0  0  0  0  0  0  0  0  0
  138.9400   74.0360  222.2270 N   0  0  0  0  0  0  0  0  0  0  0  0
  138.9570   72.6290  221.8610 C   0  0  0  0  0  0  0  0  0  0  0  0
  139.7240   71.9000  222.8730 C   0  0  0  0  0  0  0  0  0  0  0  0
  140.7790   72.3340  223.4020 O   0  0  0  0  0  0  0  0  0  0  0  0
  139.2740   70.6200  223.3040 N   0  0  0  0  0  0  0  0  0  0  0  0
  139.4340   69.4340  222.4610 C   0  0  0  0  0  0  0  0  0  0  0  0
  138.2500   68.5490  222.4670 C   0  0  0  0  0  0  0  0  0  0  0  0
  137.0440   69.0090  223.1990 C   0  0  0  0  0  0  0  0  0  0  0  0
  137.2120   70.0270  224.2530 C   0  0  0  0  0  0  0  0  0  0  0  0
  138.6350   70.3990  224.5920 C   0  0  1  0  0  0  0  0  0  0  0  0
  139.3330   69.3240  225.3450 C   0  0  0  0  0  0  0  0  0  0  0  0
  138.8120   68.1460  225.6920 N   0  0  0  0  0  0  0  0  0  0  0  0
  139.7260   67.4160  226.3680 C   0  0  0  0  0  0  0  0  0  0  0  0
  140.8860   68.1890  226.4440 C   0  0  0  0  0  0  0  0  0  0  0  0
  140.5910   69.3420  225.8050 N   0  0  0  0  0  0  0  0  0  0  0  0
  139.9390   76.3300  222.3270 C   0  0  0  0  0  0  0  0  0  0  0  0
  138.6980   76.8980  222.5030 C   0  0  0  0  0  0  0  0  0  0  0  0
  138.6840   78.2360  222.8830 C   0  0  0  0  0  0  0  0  0  0  0  0
  139.8470   78.9560  223.0740 C   0  0  0  0  0  0  0  0  0  0  0  0
  139.8470   80.2820  223.4510 C   0  0  0  0  0  0  0  0  0  0  0  0
  138.3380   81.1230  223.7060 Cl  0  0  0  0  0  0  0  0  0  0  0  0
  141.0280   80.9430  223.6260 C   0  0  0  0  0  0  0  0  0  0  0  0
  142.2640   80.3310  223.4380 C   0  0  0  0  0  0  0  0  0  0  0  0
  142.2540   78.9930  223.0580 C   0  0  0  0  0  0  0  0  0  0  0  0
  141.0670   78.3370  222.8850 C   0  0  0  0  0  0  0  0  0  0  0  0
  141.0680   77.0490  222.5190 N   0  0  0  0  0  0  0  0  0  0  0  0
  138.1180   74.4670  222.7390 H   0  0  0  0  0  0  0  0  0  0  0  0
  137.9280   72.2419  221.8238 H   0  0  0  0  0  0  0  0  0  0  0  0
  139.4181   72.5005  220.8706 H   0  0  0  0  0  0  0  0  0  0  0  0
  139.6193   69.7624  221.4277 H   0  0  0  0  0  0  0  0  0  0  0  0
  140.2758   68.8552  222.8689 H   0  0  0  0  0  0  0  0  0  0  0  0
  137.9559   68.3879  221.4193 H   0  0  0  0  0  0  0  0  0  0  0  0
  138.5785   67.6518  223.0121 H   0  0  0  0  0  0  0  0  0  0  0  0
  136.3490   69.4233  222.4538 H   0  0  0  0  0  0  0  0  0  0  0  0
  136.6959   68.1153  223.7376 H   0  0  0  0  0  0  0  0  0  0  0  0
  136.6944   70.9403  223.9245 H   0  0  0  0  0  0  0  0  0  0  0  0
  136.7965   69.5787  225.1676 H   0  0  0  0  0  0  0  0  0  0  0  0
  138.6717   71.2836  225.2448 H   0  0  0  0  0  0  0  0  0  0  0  0
  139.5834   66.4060  226.7797 H   0  0  0  0  0  0  0  0  0  0  0  0
  141.8383   67.9169  226.9227 H   0  0  0  0  0  0  0  0  0  0  0  0
  141.2940   70.1120  225.7130 H   0  0  0  0  0  0  0  0  0  0  0  0
  137.7702   76.3267  222.3519 H   0  0  0  0  0  0  0  0  0  0  0  0
  137.7164   78.7363  223.0362 H   0  0  0  0  0  0  0  0  0  0  0  0
  141.0022   82.0006  223.9274 H   0  0  0  0  0  0  0  0  0  0  0  0
  143.2058   80.8805  223.5833 H   0  0  0  0  0  0  0  0  0  0  0  0
  143.2033   78.4614  222.8963 H   0  0  0  0  0  0  0  0  0  0  0  0
  1  2  2  0
  2  3  1  0
  3  4  1  0
  4  5  1  0
  5  6  2  0
  5  7  1  0
  7  8  1  0
  8  9  1  0
  9 10  1  0
 10 11  1  0
 11 12  1  0
 12 13  1  0
 13 14  2  0
 14 15  1  0
 15 16  2  0
 16 17  1  0
  2 18  1  0
 18 19  2  0
 19 20  1  0
 20 21  2  0
 21 22  1  0
 22 23  1  0
 22 24  2  0
 24 25  1  0
 25 26  2  0
 26 27  1  0
 27 28  2  0
 12  7  1  0
 17 13  1  0
 28 18  1  0
 27 21  1  0
  3 29  1  0
  4 30  1  0
  4 31  1  0
  8 32  1  0
  8 33  1  0
  9 34  1  0
  9 35  1  0
 10 36  1  0
 10 37  1  0
 11 38  1  0
 11 39  1  0
 12 40  1  1
 15 41  1  0
 16 42  1  0
 17 43  1  0
 19 44  1  0
 20 45  1  0
 24 46  1  0
 25 47  1  0
 26 48  1  0
M  END
>  <smiles>  (23) 
O=C(NCC(=O)N1CCCC[C@H]1c1ncc[nH]1)c1ccc2c(Cl)cccc2n1

>  <score_type>  (23) 
oracle

>  <origin>  (23) 
autodockgpu

>  <m_score__min__energy>  (23) 
-8.8900000000000006

>  <m_primary>  (23) 
energy

>  <rmsd>  (23) 
8.683471722579734

>  <m_score__min__rmsd>  (23) 
8.683471722579734

>  <meeko>  (23) 
{"free_energy": -8.0, "intermolecular_energy": -9.5, "internal_energy": -1.34, "cluster_size": 2, "cluster_id": 3, "rank_in_cluster": 1}

>  <energy>  (23) 
-6.36

>  <cluster_rmsd>  (23) 
1.1

>  <cluster>  (23) 
6

$$$$

     RDKit          3D

 48 51  0  0  0  0  0  0  0  0999 V2000
  138.4540   71.2950  221.4020 O   0  0  0  0  0  0  0  0  0  0  0  0
  139.6020   70.9530  221.8320 C   0  0  0  0  0  0  0  0  0  0  0  0
  140.6660   70.7160  220.9080 N   0  0  0  0  0  0  0  0  0  0  0  0
  140.4930   70.8530  219.4710 C   0  0  0  0  0  0  0  0  0  0  0  0
  141.5390   71.7460  218.9650 C   0  0  0  0  0  0  0  0  0  0  0  0
  142.4460   71.3870  218.1720 O   0  0  0  0  0  0  0  0  0  0  0  0
  141.5550   73.1080  219.3790 N   0  0  0  0  0  0  0  0  0  0  0  0
  141.1980   74.1870  218.4570 C   0  0  0  0  0  0  0  0  0  0  0  0
  142.0800   75.3670  218.5690 C   0  0  0  0  0  0  0  0  0  0  0  0
  143.2510   75.2750  219.4770 C   0  0  0  0  0  0  0  0  0  0  0  0
  143.2200   74.2690  220.5550 C   0  0  0  0  0  0  0  0  0  0  0  0
  141.9200   73.5200  220.7240 C   0  0  1  0  0  0  0  0  0  0  0  0
  140.8550   74.3710  221.3180 C   0  0  0  0  0  0  0  0  0  0  0  0
  141.0410   75.5330  221.9470 N   0  0  0  0  0  0  0  0  0  0  0  0
  139.8550   76.0320  222.3580 C   0  0  0  0  0  0  0  0  0  0  0  0
  138.8730   75.1220  221.9610 C   0  0  0  0  0  0  0  0  0  0  0  0
  139.5380   74.1300  221.3320 N   0  0  0  0  0  0  0  0  0  0  0  0
  139.8480   70.7980  223.2730 C   0  0  0  0  0  0  0  0  0  0  0  0
  140.3180   71.8770  223.9870 C   0  0  0  0  0  0  0  0  0  0  0  0
  140.5310   71.6680  225.3460 C   0  0  0  0  0  0  0  0  0  0  0  0
  140.2860   70.4480  225.9470 C   0  0  0  0  0  0  0  0  0  0  0  0
  140.4930   70.2270  227.2910 C   0  0  0  0  0  0  0  0  0  0  0  0
  141.0870   71.5140  228.3120 Cl  0  0  0  0  0  0  0  0  0  0  0  0
  140.2340   69.0020  227.8320 C   0  0  0  0  0  0  0  0  0  0  0  0
  139.7590   67.9350  227.0740 C   0  0  0  0  0  0  0  0  0  0  0  0
  139.5530   68.1660  225.7180 C   0  0  0  0  0  0  0  0  0  0  0  0
  139.8150   69.3970  225.1840 C   0  0  0  0  0  0  0  0  0  0  0  0
  139.6140   69.6110  223.8770 N   0  0  0  0  0  0  0  0  0  0  0  0
  141.5960   70.4350  221.3320 H   0  0  0  0  0  0  0  0  0  0  0  0
  140.5805   69.8675  218.9901 H   0  0  0  0  0  0  0  0  0  0  0  0
  139.4992   71.2677  219.2466 H   0  0  0  0  0  0  0  0  0  0  0  0
  141.2590   73.8019  217.4284 H   0  0  0  0  0  0  0  0  0  0  0  0
  140.1807   74.5147  218.7172 H   0  0  0  0  0  0  0  0  0  0  0  0
  142.4631   75.5865  217.5615 H   0  0  0  0  0  0  0  0  0  0  0  0
  141.4443   76.1452  219.0165 H   0  0  0  0  0  0  0  0  0  0  0  0
  144.1308   75.0578  218.8535 H   0  0  0  0  0  0  0  0  0  0  0  0
  143.2627   76.2399  220.0051 H   0  0  0  0  0  0  0  0  0  0  0  0
  144.0094   73.5310  220.3494 H   0  0  0  0  0  0  0  0  0  0  0  0
  143.3620   74.8314  221.4897 H   0  0  0  0  0  0  0  0  0  0  0  0
  142.0350   72.6711  221.4140 H   0  0  0  0  0  0  0  0  0  0  0  0
  139.6936   76.9747  222.9014 H   0  0  0  0  0  0  0  0  0  0  0  0
  137.7881   75.1976  222.1258 H   0  0  0  0  0  0  0  0  0  0  0  0
  139.0350   73.3040  220.9280 H   0  0  0  0  0  0  0  0  0  0  0  0
  140.5139   72.8488  223.5104 H   0  0  0  0  0  0  0  0  0  0  0  0
  140.9060   72.4995  225.9609 H   0  0  0  0  0  0  0  0  0  0  0  0
  140.4069   68.8513  228.9078 H   0  0  0  0  0  0  0  0  0  0  0  0
  139.5558   66.9535  227.5272 H   0  0  0  0  0  0  0  0  0  0  0  0
  139.1785   67.3567  225.0740 H   0  0  0  0  0  0  0  0  0  0  0  0
  1  2  2  0
  2  3  1  0
  3  4  1  0
  4  5  1  0
  5  6  2  0
  5  7  1  0
  7  8  1  0
  8  9  1  0
  9 10  1  0
 10 11  1  0
 11 12  1  0
 12 13  1  0
 13 14  2  0
 14 15  1  0
 15 16  2  0
 16 17  1  0
  2 18  1  0
 18 19  2  0
 19 20  1  0
 20 21  2  0
 21 22  1  0
 22 23  1  0
 22 24  2  0
 24 25  1  0
 25 26  2  0
 26 27  1  0
 27 28  2  0
 12  7  1  0
 17 13  1  0
 28 18  1  0
 27 21  1  0
  3 29  1  0
  4 30  1  0
  4 31  1  0
  8 32  1  0
  8 33  1  0
  9 34  1  0
  9 35  1  0
 10 36  1  0
 10 37  1  0
 11 38  1  0
 11 39  1  0
 12 40  1  1
 15 41  1  0
 16 42  1  0
 17 43  1  0
 19 44  1  0
 20 45  1  0
 24 46  1  0
 25 47  1  0
 26 48  1  0
M  END
>  <smiles>  (24) 
O=C(NCC(=O)N1CCCC[C@H]1c1ncc[nH]1)c1ccc2c(Cl)cccc2n1

>  <score_type>  (24) 
oracle

>  <origin>  (24) 
autodockgpu

>  <m_score__min__energy>  (24) 
-8.8900000000000006

>  <m_primary>  (24) 
energy

>  <rmsd>  (24) 
3.7298881672586637

>  <m_score__min__rmsd>  (24) 
3.7298881672586637

>  <meeko>  (24) 
{"free_energy": -6.36, "intermolecular_energy": -7.85, "internal_energy": -2.67, "cluster_size": 2, "cluster_id": 6, "rank_in_cluster": 2}

>  <energy>  (24) 
-7.04

>  <cluster_rmsd>  (24) 
0.0

>  <cluster>  (24) 
7

$$$$

     RDKit          3D

 48 51  0  0  0  0  0  0  0  0999 V2000
  140.2790   71.5530  221.0550 O   0  0  0  0  0  0  0  0  0  0  0  0
  140.0420   72.1390  222.1580 C   0  0  0  0  0  0  0  0  0  0  0  0
  139.7380   73.5350  222.1720 N   0  0  0  0  0  0  0  0  0  0  0  0
  139.6830   74.3310  220.9570 C   0  0  0  0  0  0  0  0  0  0  0  0
  140.6870   75.3940  221.0580 C   0  0  0  0  0  0  0  0  0  0  0  0
  140.5640   76.4080  221.7910 O   0  0  0  0  0  0  0  0  0  0  0  0
  141.8840   75.3000  220.2930 N   0  0  0  0  0  0  0  0  0  0  0  0
  142.7460   76.4640  220.0850 C   0  0  0  0  0  0  0  0  0  0  0  0
  143.2650   76.5670  218.7050 C   0  0  0  0  0  0  0  0  0  0  0  0
  142.7750   75.5880  217.7040 C   0  0  0  0  0  0  0  0  0  0  0  0
  142.2140   74.3130  218.1910 C   0  0  0  0  0  0  0  0  0  0  0  0
  142.3310   74.0630  219.6750 C   0  0  1  0  0  0  0  0  0  0  0  0
  143.7250   73.7490  220.0830 C   0  0  0  0  0  0  0  0  0  0  0  0
  144.0900   73.1070  221.1950 N   0  0  0  0  0  0  0  0  0  0  0  0
  145.4350   72.9950  221.2460 C   0  0  0  0  0  0  0  0  0  0  0  0
  145.9360   73.6060  220.0940 C   0  0  0  0  0  0  0  0  0  0  0  0
  144.8510   74.0470  219.4220 N   0  0  0  0  0  0  0  0  0  0  0  0
  140.0800   71.3950  223.4260 C   0  0  0  0  0  0  0  0  0  0  0  0
  139.6440   70.0890  223.4440 C   0  0  0  0  0  0  0  0  0  0  0  0
  139.7040   69.4390  224.6710 C   0  0  0  0  0  0  0  0  0  0  0  0
  140.1740   70.0640  225.8100 C   0  0  0  0  0  0  0  0  0  0  0  0
  140.2390   69.4310  227.0330 C   0  0  0  0  0  0  0  0  0  0  0  0
  139.7150   67.7730  227.1920 Cl  0  0  0  0  0  0  0  0  0  0  0  0
  140.7120   70.0980  228.1250 C   0  0  0  0  0  0  0  0  0  0  0  0
  141.1440   71.4200  228.0650 C   0  0  0  0  0  0  0  0  0  0  0  0
  141.0760   72.0510  226.8270 C   0  0  0  0  0  0  0  0  0  0  0  0
  140.6000   71.3760  225.7380 C   0  0  0  0  0  0  0  0  0  0  0  0
  140.5370   71.9920  224.5500 N   0  0  0  0  0  0  0  0  0  0  0  0
  139.5510   73.9610  223.1250 H   0  0  0  0  0  0  0  0  0  0  0  0
  139.9003   73.6956  220.0858 H   0  0  0  0  0  0  0  0  0  0  0  0
  138.6805   74.7667  220.8342 H   0  0  0  0  0  0  0  0  0  0  0  0
  142.1669   77.3720  220.3091 H   0  0  0  0  0  0  0  0  0  0  0  0
  143.6133   76.3509  220.7521 H   0  0  0  0  0  0  0  0  0  0  0  0
  143.0105   77.5706  218.3334 H   0  0  0  0  0  0  0  0  0  0  0  0
  144.3398   76.3519  218.7979 H   0  0  0  0  0  0  0  0  0  0  0  0
  141.9894   76.0869  217.1175 H   0  0  0  0  0  0  0  0  0  0  0  0
  143.6768   75.2935  217.1472 H   0  0  0  0  0  0  0  0  0  0  0  0
  141.1457   74.2936  217.9295 H   0  0  0  0  0  0  0  0  0  0  0  0
  142.8095   73.5235  217.7092 H   0  0  0  0  0  0  0  0  0  0  0  0
  141.7331   73.1920  219.9814 H   0  0  0  0  0  0  0  0  0  0  0  0
  146.0231   72.5148  222.0420 H   0  0  0  0  0  0  0  0  0  0  0  0
  146.9905   73.7065  219.7973 H   0  0  0  0  0  0  0  0  0  0  0  0
  144.9410   74.5510  218.5090 H   0  0  0  0  0  0  0  0  0  0  0  0
  139.2695   69.5886  222.5388 H   0  0  0  0  0  0  0  0  0  0  0  0
  139.3667   68.3941  224.7374 H   0  0  0  0  0  0  0  0  0  0  0  0
  140.7536   69.5711  229.0897 H   0  0  0  0  0  0  0  0  0  0  0  0
  141.5221   71.9422  228.9563 H   0  0  0  0  0  0  0  0  0  0  0  0
  141.4060   73.0953  226.7243 H   0  0  0  0  0  0  0  0  0  0  0  0
  1  2  2  0
  2  3  1  0
  3  4  1  0
  4  5  1  0
  5  6  2  0
  5  7  1  0
  7  8  1  0
  8  9  1  0
  9 10  1  0
 10 11  1  0
 11 12  1  0
 12 13  1  0
 13 14  2  0
 14 15  1  0
 15 16  2  0
 16 17  1  0
  2 18  1  0
 18 19  2  0
 19 20  1  0
 20 21  2  0
 21 22  1  0
 22 23  1  0
 22 24  2  0
 24 25  1  0
 25 26  2  0
 26 27  1  0
 27 28  2  0
 12  7  1  0
 17 13  1  0
 28 18  1  0
 27 21  1  0
  3 29  1  0
  4 30  1  0
  4 31  1  0
  8 32  1  0
  8 33  1  0
  9 34  1  0
  9 35  1  0
 10 36  1  0
 10 37  1  0
 11 38  1  0
 11 39  1  0
 12 40  1  1
 15 41  1  0
 16 42  1  0
 17 43  1  0
 19 44  1  0
 20 45  1  0
 24 46  1  0
 25 47  1  0
 26 48  1  0
M  END
>  <smiles>  (25) 
O=C(NCC(=O)N1CCCC[C@H]1c1ncc[nH]1)c1ccc2c(Cl)cccc2n1

>  <score_type>  (25) 
oracle

>  <origin>  (25) 
autodockgpu

>  <m_score__min__energy>  (25) 
-8.8900000000000006

>  <m_primary>  (25) 
energy

>  <rmsd>  (25) 
3.678466715120673

>  <m_score__min__rmsd>  (25) 
3.678466715120673

>  <meeko>  (25) 
{"free_energy": -8.37, "intermolecular_energy": -9.86, "internal_energy": -1.77, "cluster_size": 5, "cluster_id": 2, "rank_in_cluster": 1}

>  <energy>  (25) 
-7.04

>  <cluster_rmsd>  (25) 
0.05

>  <cluster>  (25) 
7

$$$$

     RDKit          3D

 48 51  0  0  0  0  0  0  0  0999 V2000
  139.9980   74.2900  221.9520 O   0  0  0  0  0  0  0  0  0  0  0  0
  140.7760   75.2730  221.7310 C   0  0  0  0  0  0  0  0  0  0  0  0
  141.9830   75.0740  220.9930 N   0  0  0  0  0  0  0  0  0  0  0  0
  142.3710   73.7730  220.4720 C   0  0  0  0  0  0  0  0  0  0  0  0
  142.9970   73.9710  219.1620 C   0  0  0  0  0  0  0  0  0  0  0  0
  143.8360   73.1830  218.6580 O   0  0  0  0  0  0  0  0  0  0  0  0
  142.6540   75.1170  218.3890 N   0  0  0  0  0  0  0  0  0  0  0  0
  141.3470   75.2340  217.7410 C   0  0  0  0  0  0  0  0  0  0  0  0
  141.4210   75.7900  216.3740 C   0  0  0  0  0  0  0  0  0  0  0  0
  142.7660   76.0390  215.7970 C   0  0  0  0  0  0  0  0  0  0  0  0
  143.9040   76.1960  216.7220 C   0  0  0  0  0  0  0  0  0  0  0  0
  143.5610   76.2360  218.1920 C   0  0  1  0  0  0  0  0  0  0  0  0
  142.9080   77.5140  218.5810 C   0  0  0  0  0  0  0  0  0  0  0  0
  142.1180   77.6980  219.6410 N   0  0  0  0  0  0  0  0  0  0  0  0
  141.6990   78.9810  219.6890 C   0  0  0  0  0  0  0  0  0  0  0  0
  142.2630   79.6330  218.5900 C   0  0  0  0  0  0  0  0  0  0  0  0
  142.9890   78.6920  217.9500 N   0  0  0  0  0  0  0  0  0  0  0  0
  140.4460   76.6170  222.2280 C   0  0  0  0  0  0  0  0  0  0  0  0
  139.1240   76.9420  222.4380 C   0  0  0  0  0  0  0  0  0  0  0  0
  138.8760   78.2270  222.9090 C   0  0  0  0  0  0  0  0  0  0  0  0
  139.8950   79.1280  223.1520 C   0  0  0  0  0  0  0  0  0  0  0  0
  139.6630   80.4040  223.6180 C   0  0  0  0  0  0  0  0  0  0  0  0
  138.0310   80.9440  223.9260 Cl  0  0  0  0  0  0  0  0  0  0  0  0
  140.7080   81.2520  223.8410 C   0  0  0  0  0  0  0  0  0  0  0  0
  142.0310   80.8840  223.6160 C   0  0  0  0  0  0  0  0  0  0  0  0
  142.2570   79.5950  223.1460 C   0  0  0  0  0  0  0  0  0  0  0  0
  141.2040   78.7510  222.9240 C   0  0  0  0  0  0  0  0  0  0  0  0
  141.4300   77.5110  222.4710 N   0  0  0  0  0  0  0  0  0  0  0  0
  142.5850   75.9340  220.8440 H   0  0  0  0  0  0  0  0  0  0  0  0
  143.0864   73.2957  221.1579 H   0  0  0  0  0  0  0  0  0  0  0  0
  141.4881   73.1240  220.3763 H   0  0  0  0  0  0  0  0  0  0  0  0
  140.8931   74.2335  217.6870 H   0  0  0  0  0  0  0  0  0  0  0  0
  140.7451   75.9298  218.3440 H   0  0  0  0  0  0  0  0  0  0  0  0
  140.9031   75.0863  215.7057 H   0  0  0  0  0  0  0  0  0  0  0  0
  140.9676   76.7887  216.4576 H   0  0  0  0  0  0  0  0  0  0  0  0
  142.9986   75.1919  215.1349 H   0  0  0  0  0  0  0  0  0  0  0  0
  142.6751   77.0203  215.3084 H   0  0  0  0  0  0  0  0  0  0  0  0
  144.5893   75.3511  216.5591 H   0  0  0  0  0  0  0  0  0  0  0  0
  144.3398   77.1795  216.4921 H   0  0  0  0  0  0  0  0  0  0  0  0
  144.4648   76.1676  218.8152 H   0  0  0  0  0  0  0  0  0  0  0  0
  141.0398   79.4271  220.4482 H   0  0  0  0  0  0  0  0  0  0  0  0
  142.1414   80.6888  218.3063 H   0  0  0  0  0  0  0  0  0  0  0  0
  143.5260   78.9140  217.0790 H   0  0  0  0  0  0  0  0  0  0  0  0
  138.3112   76.2265  222.2444 H   0  0  0  0  0  0  0  0  0  0  0  0
  137.8365   78.5355  223.0938 H   0  0  0  0  0  0  0  0  0  0  0  0
  140.4968   82.2654  224.2129 H   0  0  0  0  0  0  0  0  0  0  0  0
  142.8610   81.5816  223.8016 H   0  0  0  0  0  0  0  0  0  0  0  0
  143.2846   79.2535  222.9524 H   0  0  0  0  0  0  0  0  0  0  0  0
  1  2  2  0
  2  3  1  0
  3  4  1  0
  4  5  1  0
  5  6  2  0
  5  7  1  0
  7  8  1  0
  8  9  1  0
  9 10  1  0
 10 11  1  0
 11 12  1  0
 12 13  1  0
 13 14  2  0
 14 15  1  0
 15 16  2  0
 16 17  1  0
  2 18  1  0
 18 19  2  0
 19 20  1  0
 20 21  2  0
 21 22  1  0
 22 23  1  0
 22 24  2  0
 24 25  1  0
 25 26  2  0
 26 27  1  0
 27 28  2  0
 12  7  1  0
 17 13  1  0
 28 18  1  0
 27 21  1  0
  3 29  1  0
  4 30  1  0
  4 31  1  0
  8 32  1  0
  8 33  1  0
  9 34  1  0
  9 35  1  0
 10 36  1  0
 10 37  1  0
 11 38  1  0
 11 39  1  0
 12 40  1  1
 15 41  1  0
 16 42  1  0
 17 43  1  0
 19 44  1  0
 20 45  1  0
 24 46  1  0
 25 47  1  0
 26 48  1  0
M  END
>  <smiles>  (26) 
O=C(NCC(=O)N1CCCC[C@H]1c1ncc[nH]1)c1ccc2c(Cl)cccc2n1

>  <score_type>  (26) 
oracle

>  <origin>  (26) 
autodockgpu

>  <m_score__min__energy>  (26) 
-8.8900000000000006

>  <m_primary>  (26) 
energy

>  <rmsd>  (26) 
6.412975156256602

>  <m_score__min__rmsd>  (26) 
6.412975156256602

>  <meeko>  (26) 
{"free_energy": -7.02, "intermolecular_energy": -8.51, "internal_energy": -3.08, "cluster_size": 24, "cluster_id": 7, "rank_in_cluster": 6}

>  <energy>  (26) 
-7.03

>  <cluster_rmsd>  (26) 
0.08

>  <cluster>  (26) 
7

$$$$

     RDKit          3D

 48 51  0  0  0  0  0  0  0  0999 V2000
  140.0910   71.7440  220.9950 O   0  0  0  0  0  0  0  0  0  0  0  0
  139.9230   72.2550  222.1480 C   0  0  0  0  0  0  0  0  0  0  0  0
  139.6830   73.6580  222.2760 N   0  0  0  0  0  0  0  0  0  0  0  0
  139.6190   74.5450  221.1260 C   0  0  0  0  0  0  0  0  0  0  0  0
  140.8770   75.2930  221.0520 C   0  0  0  0  0  0  0  0  0  0  0  0
  141.1980   76.2070  221.8540 O   0  0  0  0  0  0  0  0  0  0  0  0
  141.8110   74.9910  220.0220 N   0  0  0  0  0  0  0  0  0  0  0  0
  141.6100   73.8540  219.1230 C   0  0  0  0  0  0  0  0  0  0  0  0
  142.8510   73.0980  218.8510 C   0  0  0  0  0  0  0  0  0  0  0  0
  144.0780   73.4900  219.5870 C   0  0  0  0  0  0  0  0  0  0  0  0
  144.1500   74.8510  220.1500 C   0  0  0  0  0  0  0  0  0  0  0  0
  143.0120   75.7760  219.7900 C   0  0  1  0  0  0  0  0  0  0  0  0
  143.0790   76.2240  218.3740 C   0  0  0  0  0  0  0  0  0  0  0  0
  142.2180   77.0460  217.7710 N   0  0  0  0  0  0  0  0  0  0  0  0
  142.5820   77.2370  216.4840 C   0  0  0  0  0  0  0  0  0  0  0  0
  143.7410   76.4850  216.2750 C   0  0  0  0  0  0  0  0  0  0  0  0
  143.9980   75.8890  217.4600 N   0  0  0  0  0  0  0  0  0  0  0  0
  139.9730   71.4180  223.3550 C   0  0  0  0  0  0  0  0  0  0  0  0
  139.5470   70.1110  223.2760 C   0  0  0  0  0  0  0  0  0  0  0  0
  139.6200   69.3700  224.4500 C   0  0  0  0  0  0  0  0  0  0  0  0
  140.0910   69.9100  225.6310 C   0  0  0  0  0  0  0  0  0  0  0  0
  140.1680   69.1870  226.8010 C   0  0  0  0  0  0  0  0  0  0  0  0
  139.6590   67.5170  226.8370 Cl  0  0  0  0  0  0  0  0  0  0  0  0
  140.6420   69.7730  227.9380 C   0  0  0  0  0  0  0  0  0  0  0  0
  141.0640   71.0990  227.9770 C   0  0  0  0  0  0  0  0  0  0  0  0
  140.9830   71.8220  226.7910 C   0  0  0  0  0  0  0  0  0  0  0  0
  140.5060   71.2280  225.6560 C   0  0  0  0  0  0  0  0  0  0  0  0
  140.4320   71.9310  224.5190 N   0  0  0  0  0  0  0  0  0  0  0  0
  139.5510   74.0200  223.2640 H   0  0  0  0  0  0  0  0  0  0  0  0
  139.4826   73.9546  220.2079 H   0  0  0  0  0  0  0  0  0  0  0  0
  138.7711   75.2382  221.2285 H   0  0  0  0  0  0  0  0  0  0  0  0
  140.8786   73.1717  219.5809 H   0  0  0  0  0  0  0  0  0  0  0  0
  141.2561   74.2564  218.1624 H   0  0  0  0  0  0  0  0  0  0  0  0
  142.6502   72.0427  219.0875 H   0  0  0  0  0  0  0  0  0  0  0  0
  143.0805   73.3144  217.7972 H   0  0  0  0  0  0  0  0  0  0  0  0
  144.1957   72.7849  220.4231 H   0  0  0  0  0  0  0  0  0  0  0  0
  144.8706   73.4690  218.8246 H   0  0  0  0  0  0  0  0  0  0  0  0
  144.1771   74.7611  221.2460 H   0  0  0  0  0  0  0  0  0  0  0  0
  145.0517   75.3056  219.7139 H   0  0  0  0  0  0  0  0  0  0  0  0
  143.0419   76.6974  220.3901 H   0  0  0  0  0  0  0  0  0  0  0  0
  142.0651   77.8642  215.7428 H   0  0  0  0  0  0  0  0  0  0  0  0
  144.3206   76.3970  215.3442 H   0  0  0  0  0  0  0  0  0  0  0  0
  144.8240   75.2570  217.5860 H   0  0  0  0  0  0  0  0  0  0  0  0
  139.1704   69.6779  222.3376 H   0  0  0  0  0  0  0  0  0  0  0  0
  139.2922   68.3200  224.4381 H   0  0  0  0  0  0  0  0  0  0  0  0
  140.6927   69.1746  228.8596 H   0  0  0  0  0  0  0  0  0  0  0  0
  141.4442   71.5545  228.9033 H   0  0  0  0  0  0  0  0  0  0  0  0
  141.3035   72.8740  226.7666 H   0  0  0  0  0  0  0  0  0  0  0  0
  1  2  2  0
  2  3  1  0
  3  4  1  0
  4  5  1  0
  5  6  2  0
  5  7  1  0
  7  8  1  0
  8  9  1  0
  9 10  1  0
 10 11  1  0
 11 12  1  0
 12 13  1  0
 13 14  2  0
 14 15  1  0
 15 16  2  0
 16 17  1  0
  2 18  1  0
 18 19  2  0
 19 20  1  0
 20 21  2  0
 21 22  1  0
 22 23  1  0
 22 24  2  0
 24 25  1  0
 25 26  2  0
 26 27  1  0
 27 28  2  0
 12  7  1  0
 17 13  1  0
 28 18  1  0
 27 21  1  0
  3 29  1  0
  4 30  1  0
  4 31  1  0
  8 32  1  0
  8 33  1  0
  9 34  1  0
  9 35  1  0
 10 36  1  0
 10 37  1  0
 11 38  1  0
 11 39  1  0
 12 40  1  1
 15 41  1  0
 16 42  1  0
 17 43  1  0
 19 44  1  0
 20 45  1  0
 24 46  1  0
 25 47  1  0
 26 48  1  0
M  END
>  <smiles>  (27) 
O=C(NCC(=O)N1CCCC[C@H]1c1ncc[nH]1)c1ccc2c(Cl)cccc2n1

>  <score_type>  (27) 
oracle

>  <origin>  (27) 
autodockgpu

>  <m_score__min__energy>  (27) 
-8.8900000000000006

>  <m_primary>  (27) 
energy

>  <rmsd>  (27) 
3.517571615429136

>  <m_score__min__rmsd>  (27) 
3.517571615429136

>  <meeko>  (27) 
{"free_energy": -8.02, "intermolecular_energy": -9.51, "internal_energy": -1.81, "cluster_size": 5, "cluster_id": 2, "rank_in_cluster": 3}

>  <energy>  (27) 
-7.03

>  <cluster_rmsd>  (27) 
0.05

>  <cluster>  (27) 
7

$$$$

     RDKit          3D

 48 51  0  0  0  0  0  0  0  0999 V2000
  139.8090   74.3190  222.0400 O   0  0  0  0  0  0  0  0  0  0  0  0
  140.6830   75.2280  221.8700 C   0  0  0  0  0  0  0  0  0  0  0  0
  141.9340   74.9060  221.2580 N   0  0  0  0  0  0  0  0  0  0  0  0
  142.2590   73.5620  220.8110 C   0  0  0  0  0  0  0  0  0  0  0  0
  142.7890   73.6470  219.4480 C   0  0  0  0  0  0  0  0  0  0  0  0
  143.5380   72.7790  218.9300 O   0  0  0  0  0  0  0  0  0  0  0  0
  142.4540   74.7670  218.6360 N   0  0  0  0  0  0  0  0  0  0  0  0
  141.1510   74.8650  217.9760 C   0  0  0  0  0  0  0  0  0  0  0  0
  141.2340   75.3750  216.5920 C   0  0  0  0  0  0  0  0  0  0  0  0
  142.5830   75.6020  216.0150 C   0  0  0  0  0  0  0  0  0  0  0  0
  143.7160   75.7870  216.9410 C   0  0  0  0  0  0  0  0  0  0  0  0
  143.3640   75.8770  218.4070 C   0  0  1  0  0  0  0  0  0  0  0  0
  142.7110   77.1680  218.7500 C   0  0  0  0  0  0  0  0  0  0  0  0
  142.3100   78.0980  217.8800 N   0  0  0  0  0  0  0  0  0  0  0  0
  141.7600   79.1410  218.5390 C   0  0  0  0  0  0  0  0  0  0  0  0
  141.8240   78.8400  219.9010 C   0  0  0  0  0  0  0  0  0  0  0  0
  142.4130   77.6270  219.9710 N   0  0  0  0  0  0  0  0  0  0  0  0
  140.4210   76.6100  222.2970 C   0  0  0  0  0  0  0  0  0  0  0  0
  139.1190   77.0500  222.3610 C   0  0  0  0  0  0  0  0  0  0  0  0
  138.9350   78.3660  222.7720 C   0  0  0  0  0  0  0  0  0  0  0  0
  139.9970   79.1870  223.0980 C   0  0  0  0  0  0  0  0  0  0  0  0
  139.8300   80.4930  223.5070 C   0  0  0  0  0  0  0  0  0  0  0  0
  138.2280   81.1760  223.6300 Cl  0  0  0  0  0  0  0  0  0  0  0  0
  140.9160   81.2580  223.8160 C   0  0  0  0  0  0  0  0  0  0  0  0
  142.2190   80.7740  223.7380 C   0  0  0  0  0  0  0  0  0  0  0  0
  142.3790   79.4560  223.3250 C   0  0  0  0  0  0  0  0  0  0  0  0
  141.2860   78.6950  223.0170 C   0  0  0  0  0  0  0  0  0  0  0  0
  141.4490   77.4270  222.6200 N   0  0  0  0  0  0  0  0  0  0  0  0
  142.6170   75.7100  221.1460 H   0  0  0  0  0  0  0  0  0  0  0  0
  143.0149   73.1208  221.4773 H   0  0  0  0  0  0  0  0  0  0  0  0
  141.3601   72.9283  220.8296 H   0  0  0  0  0  0  0  0  0  0  0  0
  140.6953   73.8641  217.9525 H   0  0  0  0  0  0  0  0  0  0  0  0
  140.5472   75.5819  218.5518 H   0  0  0  0  0  0  0  0  0  0  0  0
  140.7184   74.6505  215.9445 H   0  0  0  0  0  0  0  0  0  0  0  0
  140.7822   76.3768  216.6396 H   0  0  0  0  0  0  0  0  0  0  0  0
  142.8174   74.7331  215.3826 H   0  0  0  0  0  0  0  0  0  0  0  0
  142.4972   76.5669  215.4938 H   0  0  0  0  0  0  0  0  0  0  0  0
  144.3999   74.9354  216.8106 H   0  0  0  0  0  0  0  0  0  0  0  0
  144.1560   76.7610  216.6809 H   0  0  0  0  0  0  0  0  0  0  0  0
  144.2643   75.8283  219.0371 H   0  0  0  0  0  0  0  0  0  0  0  0
  141.3416   80.0532  218.0887 H   0  0  0  0  0  0  0  0  0  0  0  0
  141.4700   79.4591  220.7385 H   0  0  0  0  0  0  0  0  0  0  0  0
  142.5880   77.1560  220.8910 H   0  0  0  0  0  0  0  0  0  0  0  0
  138.2717   76.3981  222.1018 H   0  0  0  0  0  0  0  0  0  0  0  0
  137.9123   78.7653  222.8395 H   0  0  0  0  0  0  0  0  0  0  0  0
  140.7562   82.2972  224.1392 H   0  0  0  0  0  0  0  0  0  0  0  0
  143.0830   81.4058  223.9917 H   0  0  0  0  0  0  0  0  0  0  0  0
  143.3878   79.0245  223.2459 H   0  0  0  0  0  0  0  0  0  0  0  0
  1  2  2  0
  2  3  1  0
  3  4  1  0
  4  5  1  0
  5  6  2  0
  5  7  1  0
  7  8  1  0
  8  9  1  0
  9 10  1  0
 10 11  1  0
 11 12  1  0
 12 13  1  0
 13 14  2  0
 14 15  1  0
 15 16  2  0
 16 17  1  0
  2 18  1  0
 18 19  2  0
 19 20  1  0
 20 21  2  0
 21 22  1  0
 22 23  1  0
 22 24  2  0
 24 25  1  0
 25 26  2  0
 26 27  1  0
 27 28  2  0
 12  7  1  0
 17 13  1  0
 28 18  1  0
 27 21  1  0
  3 29  1  0
  4 30  1  0
  4 31  1  0
  8 32  1  0
  8 33  1  0
  9 34  1  0
  9 35  1  0
 10 36  1  0
 10 37  1  0
 11 38  1  0
 11 39  1  0
 12 40  1  1
 15 41  1  0
 16 42  1  0
 17 43  1  0
 19 44  1  0
 20 45  1  0
 24 46  1  0
 25 47  1  0
 26 48  1  0
M  END
>  <smiles>  (28) 
O=C(NCC(=O)N1CCCC[C@H]1c1ncc[nH]1)c1ccc2c(Cl)cccc2n1

>  <score_type>  (28) 
oracle

>  <origin>  (28) 
autodockgpu

>  <m_score__min__energy>  (28) 
-8.8900000000000006

>  <m_primary>  (28) 
energy

>  <rmsd>  (28) 
6.308559388400544

>  <m_score__min__rmsd>  (28) 
6.308559388400544

>  <meeko>  (28) 
{"free_energy": -6.75, "intermolecular_energy": -8.25, "internal_energy": -3.07, "cluster_size": 24, "cluster_id": 7, "rank_in_cluster": 10}

>  <energy>  (28) 
-7.03

>  <cluster_rmsd>  (28) 
0.06

>  <cluster>  (28) 
7

$$$$

     RDKit          3D

 48 51  0  0  0  0  0  0  0  0999 V2000
  139.9680   71.7480  221.0270 O   0  0  0  0  0  0  0  0  0  0  0  0
  139.8530   72.2580  222.1870 C   0  0  0  0  0  0  0  0  0  0  0  0
  139.6610   73.6670  222.3290 N   0  0  0  0  0  0  0  0  0  0  0  0
  139.5870   74.5610  221.1850 C   0  0  0  0  0  0  0  0  0  0  0  0
  140.6600   75.5510  221.3060 C   0  0  0  0  0  0  0  0  0  0  0  0
  141.8810   75.2840  221.1700 O   0  0  0  0  0  0  0  0  0  0  0  0
  140.3330   76.9060  221.5950 N   0  0  0  0  0  0  0  0  0  0  0  0
  139.3130   77.2470  222.5890 C   0  0  0  0  0  0  0  0  0  0  0  0
  138.4330   78.3550  222.1650 C   0  0  0  0  0  0  0  0  0  0  0  0
  138.6000   78.8880  220.7900 C   0  0  0  0  0  0  0  0  0  0  0  0
  139.8870   78.6630  220.1060 C   0  0  0  0  0  0  0  0  0  0  0  0
  140.9770   78.0320  220.9380 C   0  0  1  0  0  0  0  0  0  0  0  0
  141.5340   78.9750  221.9430 C   0  0  0  0  0  0  0  0  0  0  0  0
  141.5170   80.3080  221.8610 N   0  0  0  0  0  0  0  0  0  0  0  0
  142.1100   80.8470  222.9470 C   0  0  0  0  0  0  0  0  0  0  0  0
  142.5220   79.7830  223.7540 C   0  0  0  0  0  0  0  0  0  0  0  0
  142.1450   78.6670  223.0930 N   0  0  0  0  0  0  0  0  0  0  0  0
  139.9180   71.4130  223.3880 C   0  0  0  0  0  0  0  0  0  0  0  0
  139.4870   70.1070  223.3060 C   0  0  0  0  0  0  0  0  0  0  0  0
  139.5730   69.3590  224.4740 C   0  0  0  0  0  0  0  0  0  0  0  0
  140.0610   69.8900  225.6520 C   0  0  0  0  0  0  0  0  0  0  0  0
  140.1520   69.1600  226.8170 C   0  0  0  0  0  0  0  0  0  0  0  0
  139.6390   67.4910  226.8490 Cl  0  0  0  0  0  0  0  0  0  0  0  0
  140.6430   69.7370  227.9510 C   0  0  0  0  0  0  0  0  0  0  0  0
  141.0690   71.0620  227.9930 C   0  0  0  0  0  0  0  0  0  0  0  0
  140.9740   71.7920  226.8130 C   0  0  0  0  0  0  0  0  0  0  0  0
  140.4810   71.2070  225.6800 C   0  0  0  0  0  0  0  0  0  0  0  0
  140.3930   71.9180  224.5490 N   0  0  0  0  0  0  0  0  0  0  0  0
  139.5730   74.0270  223.3230 H   0  0  0  0  0  0  0  0  0  0  0  0
  139.7135   73.9869  220.2553 H   0  0  0  0  0  0  0  0  0  0  0  0
  138.6087   75.0631  221.1585 H   0  0  0  0  0  0  0  0  0  0  0  0
  138.6918   76.3577  222.7714 H   0  0  0  0  0  0  0  0  0  0  0  0
  139.8394   77.5774  223.4966 H   0  0  0  0  0  0  0  0  0  0  0  0
  137.3952   78.0019  222.2555 H   0  0  0  0  0  0  0  0  0  0  0  0
  138.7100   79.1934  222.8210 H   0  0  0  0  0  0  0  0  0  0  0  0
  137.8158   78.4335  220.1667 H   0  0  0  0  0  0  0  0  0  0  0  0
  138.5442   79.9797  220.9127 H   0  0  0  0  0  0  0  0  0  0  0  0
  139.6995   78.0067  219.2434 H   0  0  0  0  0  0  0  0  0  0  0  0
  140.2594   79.6628  219.8383 H   0  0  0  0  0  0  0  0  0  0  0  0
  141.8317   77.7313  220.3142 H   0  0  0  0  0  0  0  0  0  0  0  0
  142.2435   81.9185  223.1568 H   0  0  0  0  0  0  0  0  0  0  0  0
  143.0424   79.8418  224.7213 H   0  0  0  0  0  0  0  0  0  0  0  0
  142.3350   77.7130  223.4810 H   0  0  0  0  0  0  0  0  0  0  0  0
  139.0972   69.6809  222.3698 H   0  0  0  0  0  0  0  0  0  0  0  0
  139.2417   68.3102  224.4599 H   0  0  0  0  0  0  0  0  0  0  0  0
  140.7049   69.1323  228.8678 H   0  0  0  0  0  0  0  0  0  0  0  0
  141.4626   71.5107  228.9170 H   0  0  0  0  0  0  0  0  0  0  0  0
  141.2966   72.8434  226.7913 H   0  0  0  0  0  0  0  0  0  0  0  0
  1  2  2  0
  2  3  1  0
  3  4  1  0
  4  5  1  0
  5  6  2  0
  5  7  1  0
  7  8  1  0
  8  9  1  0
  9 10  1  0
 10 11  1  0
 11 12  1  0
 12 13  1  0
 13 14  2  0
 14 15  1  0
 15 16  2  0
 16 17  1  0
  2 18  1  0
 18 19  2  0
 19 20  1  0
 20 21  2  0
 21 22  1  0
 22 23  1  0
 22 24  2  0
 24 25  1  0
 25 26  2  0
 26 27  1  0
 27 28  2  0
 12  7  1  0
 17 13  1  0
 28 18  1  0
 27 21  1  0
  3 29  1  0
  4 30  1  0
  4 31  1  0
  8 32  1  0
  8 33  1  0
  9 34  1  0
  9 35  1  0
 10 36  1  0
 10 37  1  0
 11 38  1  0
 11 39  1  0
 12 40  1  6
 15 41  1  0
 16 42  1  0
 17 43  1  0
 19 44  1  0
 20 45  1  0
 24 46  1  0
 25 47  1  0
 26 48  1  0
M  END
>  <smiles>  (29) 
O=C(NCC(=O)N1CCCC[C@H]1c1ncc[nH]1)c1ccc2c(Cl)cccc2n1

>  <score_type>  (29) 
oracle

>  <origin>  (29) 
autodockgpu

>  <m_score__min__energy>  (29) 
-8.8900000000000006

>  <m_primary>  (29) 
energy

>  <rmsd>  (29) 
2.5604216493215484

>  <m_score__min__rmsd>  (29) 
2.5604216493215484

>  <meeko>  (29) 
{"free_energy": -8.4, "intermolecular_energy": -9.9, "internal_energy": -1.6, "cluster_size": 12, "cluster_id": 1, "rank_in_cluster": 10}

>  <energy>  (29) 
-7.02

>  <cluster_rmsd>  (29) 
0.05

>  <cluster>  (29) 
7

$$$$

     RDKit          3D

 48 51  0  0  0  0  0  0  0  0999 V2000
  140.6970   72.7330  221.5180 O   0  0  0  0  0  0  0  0  0  0  0  0
  139.7760   72.6290  222.3900 C   0  0  0  0  0  0  0  0  0  0  0  0
  138.6150   73.4570  222.3010 N   0  0  0  0  0  0  0  0  0  0  0  0
  138.4340   74.4310  221.2370 C   0  0  0  0  0  0  0  0  0  0  0  0
  138.7010   75.7630  221.7840 C   0  0  0  0  0  0  0  0  0  0  0  0
  137.8640   76.4340  222.4400 O   0  0  0  0  0  0  0  0  0  0  0  0
  139.9760   76.3620  221.5760 N   0  0  0  0  0  0  0  0  0  0  0  0
  140.7790   76.8490  222.6990 C   0  0  0  0  0  0  0  0  0  0  0  0
  141.4350   78.1460  222.4280 C   0  0  0  0  0  0  0  0  0  0  0  0
  141.1160   78.8310  221.1510 C   0  0  0  0  0  0  0  0  0  0  0  0
  140.5900   78.0210  220.0360 C   0  0  0  0  0  0  0  0  0  0  0  0
  140.5650   76.5280  220.2580 C   0  0  1  0  0  0  0  0  0  0  0  0
  141.9250   75.9310  220.2130 C   0  0  0  0  0  0  0  0  0  0  0  0
  143.0100   76.4920  219.6760 N   0  0  0  0  0  0  0  0  0  0  0  0
  144.0730   75.6710  219.8120 C   0  0  0  0  0  0  0  0  0  0  0  0
  143.6200   74.5280  220.4740 C   0  0  0  0  0  0  0  0  0  0  0  0
  142.3050   74.7400  220.6940 N   0  0  0  0  0  0  0  0  0  0  0  0
  139.8930   71.6630  223.4930 C   0  0  0  0  0  0  0  0  0  0  0  0
  139.5300   70.3540  223.2720 C   0  0  0  0  0  0  0  0  0  0  0  0
  139.6630   69.4900  224.3530 C   0  0  0  0  0  0  0  0  0  0  0  0
  140.1330   69.9170  225.5800 C   0  0  0  0  0  0  0  0  0  0  0  0
  140.2700   69.0710  226.6590 C   0  0  0  0  0  0  0  0  0  0  0  0
  139.8430   67.3840  226.5130 Cl  0  0  0  0  0  0  0  0  0  0  0  0
  140.7400   69.5480  227.8480 C   0  0  0  0  0  0  0  0  0  0  0  0
  141.0970   70.8810  228.0300 C   0  0  0  0  0  0  0  0  0  0  0  0
  140.9560   71.7280  226.9360 C   0  0  0  0  0  0  0  0  0  0  0  0
  140.4840   71.2420  225.7480 C   0  0  0  0  0  0  0  0  0  0  0  0
  140.3520   72.0650  224.7000 N   0  0  0  0  0  0  0  0  0  0  0  0
  137.8870   73.3190  223.0590 H   0  0  0  0  0  0  0  0  0  0  0  0
  139.1340   74.2190  220.4154 H   0  0  0  0  0  0  0  0  0  0  0  0
  137.4069   74.3800  220.8466 H   0  0  0  0  0  0  0  0  0  0  0  0
  140.1221   76.9657  223.5736 H   0  0  0  0  0  0  0  0  0  0  0  0
  141.5754   76.1109  222.8752 H   0  0  0  0  0  0  0  0  0  0  0  0
  141.1593   78.8297  223.2444 H   0  0  0  0  0  0  0  0  0  0  0  0
  142.5052   77.9036  222.3516 H   0  0  0  0  0  0  0  0  0  0  0  0
  140.3659   79.6039  221.3744 H   0  0  0  0  0  0  0  0  0  0  0  0
  142.0884   79.1948  220.7875 H   0  0  0  0  0  0  0  0  0  0  0  0
  139.5589   78.3493  219.8384 H   0  0  0  0  0  0  0  0  0  0  0  0
  141.2826   78.1849  219.1973 H   0  0  0  0  0  0  0  0  0  0  0  0
  139.9953   76.0162  219.4684 H   0  0  0  0  0  0  0  0  0  0  0  0
  145.0994   75.8652  219.4673 H   0  0  0  0  0  0  0  0  0  0  0  0
  144.2093   73.6431  220.7562 H   0  0  0  0  0  0  0  0  0  0  0  0
  141.7100   74.0300  221.1820 H   0  0  0  0  0  0  0  0  0  0  0  0
  139.1561   70.0110  222.2960 H   0  0  0  0  0  0  0  0  0  0  0  0
  139.3853   68.4331  224.2274 H   0  0  0  0  0  0  0  0  0  0  0  0
  140.8405   68.8528  228.6946 H   0  0  0  0  0  0  0  0  0  0  0  0
  141.4738   71.2481  228.9960 H   0  0  0  0  0  0  0  0  0  0  0  0
  141.2246   72.7909  227.0264 H   0  0  0  0  0  0  0  0  0  0  0  0
  1  2  2  0
  2  3  1  0
  3  4  1  0
  4  5  1  0
  5  6  2  0
  5  7  1  0
  7  8  1  0
  8  9  1  0
  9 10  1  0
 10 11  1  0
 11 12  1  0
 12 13  1  0
 13 14  2  0
 14 15  1  0
 15 16  2  0
 16 17  1  0
  2 18  1  0
 18 19  2  0
 19 20  1  0
 20 21  2  0
 21 22  1  0
 22 23  1  0
 22 24  2  0
 24 25  1  0
 25 26  2  0
 26 27  1  0
 27 28  2  0
 12  7  1  0
 17 13  1  0
 28 18  1  0
 27 21  1  0
  3 29  1  0
  4 30  1  0
  4 31  1  0
  8 32  1  0
  8 33  1  0
  9 34  1  0
  9 35  1  0
 10 36  1  0
 10 37  1  0
 11 38  1  0
 11 39  1  0
 12 40  1  6
 15 41  1  0
 16 42  1  0
 17 43  1  0
 19 44  1  0
 20 45  1  0
 24 46  1  0
 25 47  1  0
 26 48  1  0
M  END
>  <smiles>  (30) 
O=C(NCC(=O)N1CCCC[C@H]1c1ncc[nH]1)c1ccc2c(Cl)cccc2n1

>  <score_type>  (30) 
oracle

>  <origin>  (30) 
autodockgpu

>  <m_score__min__energy>  (30) 
-8.8900000000000006

>  <m_primary>  (30) 
energy

>  <rmsd>  (30) 
3.281079818696842

>  <m_score__min__rmsd>  (30) 
3.281079818696842

>  <meeko>  (30) 
{"free_energy": -7.76, "intermolecular_energy": -9.25, "internal_energy": -2.37, "cluster_size": 5, "cluster_id": 2, "rank_in_cluster": 5}

>  <energy>  (30) 
-7.02

>  <cluster_rmsd>  (30) 
0.05

>  <cluster>  (30) 
7

$$$$

     RDKit          3D

 48 51  0  0  0  0  0  0  0  0999 V2000
  139.7690   69.3740  221.0150 O   0  0  0  0  0  0  0  0  0  0  0  0
  139.7430   70.4790  221.6450 C   0  0  0  0  0  0  0  0  0  0  0  0
  139.5220   71.6980  220.9330 N   0  0  0  0  0  0  0  0  0  0  0  0
  139.3190   71.7340  219.4940 C   0  0  0  0  0  0  0  0  0  0  0  0
  140.5170   72.3080  218.8760 C   0  0  0  0  0  0  0  0  0  0  0  0
  141.1250   71.7870  217.9070 O   0  0  0  0  0  0  0  0  0  0  0  0
  141.0480   73.5280  219.3810 N   0  0  0  0  0  0  0  0  0  0  0  0
  141.0520   74.7480  218.5720 C   0  0  0  0  0  0  0  0  0  0  0  0
  142.3070   75.5210  218.6870 C   0  0  0  0  0  0  0  0  0  0  0  0
  143.4150   74.9320  219.4800 C   0  0  0  0  0  0  0  0  0  0  0  0
  143.0840   73.9030  220.4840 C   0  0  0  0  0  0  0  0  0  0  0  0
  141.6140   73.6510  220.7140 C   0  0  1  0  0  0  0  0  0  0  0  0
  140.9640   74.7630  221.4580 C   0  0  0  0  0  0  0  0  0  0  0  0
  139.7750   74.7110  222.0620 N   0  0  0  0  0  0  0  0  0  0  0  0
  139.4960   75.9000  222.6390 C   0  0  0  0  0  0  0  0  0  0  0  0
  140.5780   76.7420  222.3750 C   0  0  0  0  0  0  0  0  0  0  0  0
  141.4430   75.9980  221.6520 N   0  0  0  0  0  0  0  0  0  0  0  0
  139.9400   70.5170  223.1020 C   0  0  0  0  0  0  0  0  0  0  0  0
  140.4180   71.6730  223.6770 C   0  0  0  0  0  0  0  0  0  0  0  0
  140.5830   71.6470  225.0580 C   0  0  0  0  0  0  0  0  0  0  0  0
  140.2850   70.5280  225.8120 C   0  0  0  0  0  0  0  0  0  0  0  0
  140.4430   70.4900  227.1800 C   0  0  0  0  0  0  0  0  0  0  0  0
  141.0430   71.8900  228.0350 Cl  0  0  0  0  0  0  0  0  0  0  0  0
  140.1320   69.3570  227.8730 C   0  0  0  0  0  0  0  0  0  0  0  0
  139.6500   68.2080  227.2530 C   0  0  0  0  0  0  0  0  0  0  0  0
  139.4930   68.2550  225.8710 C   0  0  0  0  0  0  0  0  0  0  0  0
  139.8070   69.3940  225.1830 C   0  0  0  0  0  0  0  0  0  0  0  0
  139.6530   69.4310  223.8540 N   0  0  0  0  0  0  0  0  0  0  0  0
  139.5120   72.5830  221.5180 H   0  0  0  0  0  0  0  0  0  0  0  0
  139.1572   70.7140  219.1153 H   0  0  0  0  0  0  0  0  0  0  0  0
  138.4367   72.3441  219.2503 H   0  0  0  0  0  0  0  0  0  0  0  0
  140.9093   74.4685  217.5177 H   0  0  0  0  0  0  0  0  0  0  0  0
  140.2391   75.3888  218.9442 H   0  0  0  0  0  0  0  0  0  0  0  0
  142.6852   75.6853  217.6672 H   0  0  0  0  0  0  0  0  0  0  0  0
  142.0228   76.4278  219.2410 H   0  0  0  0  0  0  0  0  0  0  0  0
  144.1200   74.4780  218.7681 H   0  0  0  0  0  0  0  0  0  0  0  0
  143.8043   75.7740  220.0712 H   0  0  0  0  0  0  0  0  0  0  0  0
  143.5408   72.9566  220.1589 H   0  0  0  0  0  0  0  0  0  0  0  0
  143.4721   74.2857  221.4395 H   0  0  0  0  0  0  0  0  0  0  0  0
  141.4543   72.7536  221.3297 H   0  0  0  0  0  0  0  0  0  0  0  0
  138.5900   76.1559  223.2079 H   0  0  0  0  0  0  0  0  0  0  0  0
  140.7001   77.7891  222.6891 H   0  0  0  0  0  0  0  0  0  0  0  0
  142.3540   76.3900  221.3160 H   0  0  0  0  0  0  0  0  0  0  0  0
  140.6556   72.5653  223.0792 H   0  0  0  0  0  0  0  0  0  0  0  0
  140.9627   72.5458  225.5660 H   0  0  0  0  0  0  0  0  0  0  0  0
  140.2675   69.3513  228.9646 H   0  0  0  0  0  0  0  0  0  0  0  0
  139.4043   67.3038  227.8292 H   0  0  0  0  0  0  0  0  0  0  0  0
  139.1155   67.3740  225.3311 H   0  0  0  0  0  0  0  0  0  0  0  0
  1  2  2  0
  2  3  1  0
  3  4  1  0
  4  5  1  0
  5  6  2  0
  5  7  1  0
  7  8  1  0
  8  9  1  0
  9 10  1  0
 10 11  1  0
 11 12  1  0
 12 13  1  0
 13 14  2  0
 14 15  1  0
 15 16  2  0
 16 17  1  0
  2 18  1  0
 18 19  2  0
 19 20  1  0
 20 21  2  0
 21 22  1  0
 22 23  1  0
 22 24  2  0
 24 25  1  0
 25 26  2  0
 26 27  1  0
 27 28  2  0
 12  7  1  0
 17 13  1  0
 28 18  1  0
 27 21  1  0
  3 29  1  0
  4 30  1  0
  4 31  1  0
  8 32  1  0
  8 33  1  0
  9 34  1  0
  9 35  1  0
 10 36  1  0
 10 37  1  0
 11 38  1  0
 11 39  1  0
 12 40  1  1
 15 41  1  0
 16 42  1  0
 17 43  1  0
 19 44  1  0
 20 45  1  0
 24 46  1  0
 25 47  1  0
 26 48  1  0
M  END
>  <smiles>  (31) 
O=C(NCC(=O)N1CCCC[C@H]1c1ncc[nH]1)c1ccc2c(Cl)cccc2n1

>  <score_type>  (31) 
oracle

>  <origin>  (31) 
autodockgpu

>  <m_score__min__energy>  (31) 
-8.8900000000000006

>  <m_primary>  (31) 
energy

>  <rmsd>  (31) 
3.2815757259660927

>  <m_score__min__rmsd>  (31) 
3.2815757259660927

>  <meeko>  (31) 
{"free_energy": -7.24, "intermolecular_energy": -8.73, "internal_energy": -2.35, "cluster_size": 2, "cluster_id": 6, "rank_in_cluster": 1}

>  <energy>  (31) 
-6.99

>  <cluster_rmsd>  (31) 
0.12

>  <cluster>  (31) 
7

$$$$

     RDKit          3D

 48 51  0  0  0  0  0  0  0  0999 V2000
  139.8200   74.3010  221.9630 O   0  0  0  0  0  0  0  0  0  0  0  0
  140.7080   75.2080  221.8800 C   0  0  0  0  0  0  0  0  0  0  0  0
  141.9900   74.9010  221.3280 N   0  0  0  0  0  0  0  0  0  0  0  0
  142.3320   73.5740  220.8450 C   0  0  0  0  0  0  0  0  0  0  0  0
  142.9230   73.7080  219.5120 C   0  0  0  0  0  0  0  0  0  0  0  0
  143.7660   72.9070  219.0330 O   0  0  0  0  0  0  0  0  0  0  0  0
  142.5400   74.8000  218.6830 N   0  0  0  0  0  0  0  0  0  0  0  0
  141.2030   74.8730  218.0910 C   0  0  0  0  0  0  0  0  0  0  0  0
  141.2100   75.3390  216.6890 C   0  0  0  0  0  0  0  0  0  0  0  0
  142.5250   75.5520  216.0350 C   0  0  0  0  0  0  0  0  0  0  0  0
  143.7050   75.7700  216.8930 C   0  0  0  0  0  0  0  0  0  0  0  0
  143.4310   75.9050  218.3710 C   0  0  1  0  0  0  0  0  0  0  0  0
  142.7910   77.2040  218.7070 C   0  0  0  0  0  0  0  0  0  0  0  0
  142.4480   78.1570  217.8370 N   0  0  0  0  0  0  0  0  0  0  0  0
  141.8920   79.2010  218.4890 C   0  0  0  0  0  0  0  0  0  0  0  0
  141.8900   78.8770  219.8470 C   0  0  0  0  0  0  0  0  0  0  0  0
  142.4490   77.6500  219.9230 N   0  0  0  0  0  0  0  0  0  0  0  0
  140.4310   76.5750  222.3480 C   0  0  0  0  0  0  0  0  0  0  0  0
  139.1230   76.9550  222.5490 C   0  0  0  0  0  0  0  0  0  0  0  0
  138.9260   78.2590  222.9920 C   0  0  0  0  0  0  0  0  0  0  0  0
  139.9780   79.1240  223.2180 C   0  0  0  0  0  0  0  0  0  0  0  0
  139.7960   80.4180  223.6570 C   0  0  0  0  0  0  0  0  0  0  0  0
  138.1860   81.0270  223.9510 Cl  0  0  0  0  0  0  0  0  0  0  0  0
  140.8740   81.2280  223.8640 C   0  0  0  0  0  0  0  0  0  0  0  0
  142.1820   80.8040  223.6490 C   0  0  0  0  0  0  0  0  0  0  0  0
  142.3570   79.4970  223.2060 C   0  0  0  0  0  0  0  0  0  0  0  0
  141.2720   78.6910  223.0010 C   0  0  0  0  0  0  0  0  0  0  0  0
  141.4500   77.4340  222.5740 N   0  0  0  0  0  0  0  0  0  0  0  0
  142.6830   75.7030  221.2880 H   0  0  0  0  0  0  0  0  0  0  0  0
  143.0561   73.1050  221.5274 H   0  0  0  0  0  0  0  0  0  0  0  0
  141.4316   72.9438  220.7987 H   0  0  0  0  0  0  0  0  0  0  0  0
  140.7514   73.8705  218.1236 H   0  0  0  0  0  0  0  0  0  0  0  0
  140.6272   75.6058  218.6753 H   0  0  0  0  0  0  0  0  0  0  0  0
  140.6647   74.5925  216.0929 H   0  0  0  0  0  0  0  0  0  0  0  0
  140.7561   76.3402  216.7286 H   0  0  0  0  0  0  0  0  0  0  0  0
  142.7299   74.6643  215.4186 H   0  0  0  0  0  0  0  0  0  0  0  0
  142.4068   76.4999  215.4895 H   0  0  0  0  0  0  0  0  0  0  0  0
  144.3853   74.9170  216.7531 H   0  0  0  0  0  0  0  0  0  0  0  0
  144.1259   76.7367  216.5794 H   0  0  0  0  0  0  0  0  0  0  0  0
  144.3636   75.8790  218.9537 H   0  0  0  0  0  0  0  0  0  0  0  0
  141.5131   80.1293  218.0365 H   0  0  0  0  0  0  0  0  0  0  0  0
  141.5132   79.4908  220.6784 H   0  0  0  0  0  0  0  0  0  0  0  0
  142.5730   77.1610  220.8410 H   0  0  0  0  0  0  0  0  0  0  0  0
  138.2830   76.2678  222.3698 H   0  0  0  0  0  0  0  0  0  0  0  0
  137.8992   78.6121  223.1678 H   0  0  0  0  0  0  0  0  0  0  0  0
  140.7027   82.2565  224.2146 H   0  0  0  0  0  0  0  0  0  0  0  0
  143.0387   81.4721  223.8216 H   0  0  0  0  0  0  0  0  0  0  0  0
  143.3703   79.1113  223.0203 H   0  0  0  0  0  0  0  0  0  0  0  0
  1  2  2  0
  2  3  1  0
  3  4  1  0
  4  5  1  0
  5  6  2  0
  5  7  1  0
  7  8  1  0
  8  9  1  0
  9 10  1  0
 10 11  1  0
 11 12  1  0
 12 13  1  0
 13 14  2  0
 14 15  1  0
 15 16  2  0
 16 17  1  0
  2 18  1  0
 18 19  2  0
 19 20  1  0
 20 21  2  0
 21 22  1  0
 22 23  1  0
 22 24  2  0
 24 25  1  0
 25 26  2  0
 26 27  1  0
 27 28  2  0
 12  7  1  0
 17 13  1  0
 28 18  1  0
 27 21  1  0
  3 29  1  0
  4 30  1  0
  4 31  1  0
  8 32  1  0
  8 33  1  0
  9 34  1  0
  9 35  1  0
 10 36  1  0
 10 37  1  0
 11 38  1  0
 11 39  1  0
 12 40  1  1
 15 41  1  0
 16 42  1  0
 17 43  1  0
 19 44  1  0
 20 45  1  0
 24 46  1  0
 25 47  1  0
 26 48  1  0
M  END
>  <smiles>  (32) 
O=C(NCC(=O)N1CCCC[C@H]1c1ncc[nH]1)c1ccc2c(Cl)cccc2n1

>  <score_type>  (32) 
oracle

>  <origin>  (32) 
autodockgpu

>  <m_score__min__energy>  (32) 
-8.8900000000000006

>  <m_primary>  (32) 
energy

>  <rmsd>  (32) 
6.302902845367358

>  <m_score__min__rmsd>  (32) 
6.302902845367358

>  <meeko>  (32) 
{"free_energy": -6.65, "intermolecular_energy": -8.14, "internal_energy": -3.14, "cluster_size": 24, "cluster_id": 7, "rank_in_cluster": 18}

>  <energy>  (32) 
-6.81

>  <cluster_rmsd>  (32) 
0.32

>  <cluster>  (32) 
7

$$$$

     RDKit          3D

 48 51  0  0  0  0  0  0  0  0999 V2000
  139.7290   74.2980  222.0130 O   0  0  0  0  0  0  0  0  0  0  0  0
  140.6240   75.1910  221.8730 C   0  0  0  0  0  0  0  0  0  0  0  0
  141.8830   74.8520  221.2890 N   0  0  0  0  0  0  0  0  0  0  0  0
  142.1940   73.5060  220.8370 C   0  0  0  0  0  0  0  0  0  0  0  0
  142.9030   73.6030  219.5580 C   0  0  0  0  0  0  0  0  0  0  0  0
  143.7670   72.7770  219.1700 O   0  0  0  0  0  0  0  0  0  0  0  0
  142.6180   74.6880  218.6810 N   0  0  0  0  0  0  0  0  0  0  0  0
  141.3730   74.7380  217.9130 C   0  0  0  0  0  0  0  0  0  0  0  0
  141.5640   75.2020  216.5230 C   0  0  0  0  0  0  0  0  0  0  0  0
  142.9520   75.4350  216.0520 C   0  0  0  0  0  0  0  0  0  0  0  0
  144.0000   75.6740  217.0630 C   0  0  0  0  0  0  0  0  0  0  0  0
  143.5260   75.8070  218.4890 C   0  0  1  0  0  0  0  0  0  0  0  0
  142.8250   77.0960  218.7300 C   0  0  0  0  0  0  0  0  0  0  0  0
  142.4790   77.9860  217.7970 N   0  0  0  0  0  0  0  0  0  0  0  0
  141.8590   79.0400  218.3700 C   0  0  0  0  0  0  0  0  0  0  0  0
  141.8190   78.7900  219.7440 C   0  0  0  0  0  0  0  0  0  0  0  0
  142.4210   77.5920  219.9060 N   0  0  0  0  0  0  0  0  0  0  0  0
  140.3780   76.5750  222.3080 C   0  0  0  0  0  0  0  0  0  0  0  0
  139.0780   77.0100  222.4330 C   0  0  0  0  0  0  0  0  0  0  0  0
  138.9100   78.3270  222.8480 C   0  0  0  0  0  0  0  0  0  0  0  0
  139.9840   79.1530  223.1200 C   0  0  0  0  0  0  0  0  0  0  0  0
  139.8320   80.4590  223.5320 C   0  0  0  0  0  0  0  0  0  0  0  0
  138.2350   81.1370  223.7300 Cl  0  0  0  0  0  0  0  0  0  0  0  0
  140.9290   81.2290  223.7860 C   0  0  0  0  0  0  0  0  0  0  0  0
  142.2280   80.7500  223.6470 C   0  0  0  0  0  0  0  0  0  0  0  0
  142.3730   79.4300  223.2320 C   0  0  0  0  0  0  0  0  0  0  0  0
  141.2690   78.6650  222.9780 C   0  0  0  0  0  0  0  0  0  0  0  0
  141.4180   77.3960  222.5780 N   0  0  0  0  0  0  0  0  0  0  0  0
  142.5840   75.6430  221.2020 H   0  0  0  0  0  0  0  0  0  0  0  0
  142.8316   73.0025  221.5786 H   0  0  0  0  0  0  0  0  0  0  0  0
  141.2688   72.9238  220.7145 H   0  0  0  0  0  0  0  0  0  0  0  0
  140.9372   73.7283  217.8876 H   0  0  0  0  0  0  0  0  0  0  0  0
  140.7109   75.4617  218.4109 H   0  0  0  0  0  0  0  0  0  0  0  0
  141.1163   74.4461  215.8611 H   0  0  0  0  0  0  0  0  0  0  0  0
  141.0941   76.1963  216.4976 H   0  0  0  0  0  0  0  0  0  0  0  0
  143.2531   74.5494  215.4731 H   0  0  0  0  0  0  0  0  0  0  0  0
  142.8946   76.3790  215.4902 H   0  0  0  0  0  0  0  0  0  0  0  0
  144.7067   74.8321  217.0205 H   0  0  0  0  0  0  0  0  0  0  0  0
  144.4431   76.6475  216.8060 H   0  0  0  0  0  0  0  0  0  0  0  0
  144.3712   75.7973  219.1929 H   0  0  0  0  0  0  0  0  0  0  0  0
  141.4614   79.9261  217.8536 H   0  0  0  0  0  0  0  0  0  0  0  0
  141.3889   79.4320  220.5269 H   0  0  0  0  0  0  0  0  0  0  0  0
  142.5290   77.1590  220.8540 H   0  0  0  0  0  0  0  0  0  0  0  0
  138.2217   76.3542  222.2172 H   0  0  0  0  0  0  0  0  0  0  0  0
  137.8904   78.7234  222.9633 H   0  0  0  0  0  0  0  0  0  0  0  0
  140.7810   82.2687  224.1133 H   0  0  0  0  0  0  0  0  0  0  0  0
  143.1007   81.3862  223.8558 H   0  0  0  0  0  0  0  0  0  0  0  0
  143.3783   79.0010  223.1080 H   0  0  0  0  0  0  0  0  0  0  0  0
  1  2  2  0
  2  3  1  0
  3  4  1  0
  4  5  1  0
  5  6  2  0
  5  7  1  0
  7  8  1  0
  8  9  1  0
  9 10  1  0
 10 11  1  0
 11 12  1  0
 12 13  1  0
 13 14  2  0
 14 15  1  0
 15 16  2  0
 16 17  1  0
  2 18  1  0
 18 19  2  0
 19 20  1  0
 20 21  2  0
 21 22  1  0
 22 23  1  0
 22 24  2  0
 24 25  1  0
 25 26  2  0
 26 27  1  0
 27 28  2  0
 12  7  1  0
 17 13  1  0
 28 18  1  0
 27 21  1  0
  3 29  1  0
  4 30  1  0
  4 31  1  0
  8 32  1  0
  8 33  1  0
  9 34  1  0
  9 35  1  0
 10 36  1  0
 10 37  1  0
 11 38  1  0
 11 39  1  0
 12 40  1  1
 15 41  1  0
 16 42  1  0
 17 43  1  0
 19 44  1  0
 20 45  1  0
 24 46  1  0
 25 47  1  0
 26 48  1  0
M  END
>  <smiles>  (33) 
O=C(NCC(=O)N1CCCC[C@H]1c1ncc[nH]1)c1ccc2c(Cl)cccc2n1

>  <score_type>  (33) 
oracle

>  <origin>  (33) 
autodockgpu

>  <m_score__min__energy>  (33) 
-8.8900000000000006

>  <m_primary>  (33) 
energy

>  <rmsd>  (33) 
6.329114739381531

>  <m_score__min__rmsd>  (33) 
6.329114739381531

>  <meeko>  (33) 
{"free_energy": -6.73, "intermolecular_energy": -8.22, "internal_energy": -3.1, "cluster_size": 24, "cluster_id": 7, "rank_in_cluster": 11}

>  <energy>  (33) 
-6.75

>  <cluster_rmsd>  (33) 
0.7

>  <cluster>  (33) 
7

$$$$

     RDKit          3D

 48 51  0  0  0  0  0  0  0  0999 V2000
  141.2290   72.9620  221.8710 O   0  0  0  0  0  0  0  0  0  0  0  0
  140.1830   72.7840  222.5730 C   0  0  0  0  0  0  0  0  0  0  0  0
  139.0200   73.5770  222.3310 N   0  0  0  0  0  0  0  0  0  0  0  0
  138.9760   74.5980  221.2980 C   0  0  0  0  0  0  0  0  0  0  0  0
  138.8300   75.9030  221.9470 C   0  0  0  0  0  0  0  0  0  0  0  0
  137.9920   76.1470  222.8530 O   0  0  0  0  0  0  0  0  0  0  0  0
  139.6730   76.9800  221.5510 N   0  0  0  0  0  0  0  0  0  0  0  0
  139.1520   78.1070  220.7760 C   0  0  0  0  0  0  0  0  0  0  0  0
  140.0640   78.5460  219.6990 C   0  0  0  0  0  0  0  0  0  0  0  0
  141.2920   77.7480  219.4610 C   0  0  0  0  0  0  0  0  0  0  0  0
  141.7960   76.9000  220.5570 C   0  0  0  0  0  0  0  0  0  0  0  0
  141.0870   77.0400  221.8820 C   0  0  1  0  0  0  0  0  0  0  0  0
  141.4110   78.3230  222.5600 C   0  0  0  0  0  0  0  0  0  0  0  0
  142.5240   79.0410  222.3870 N   0  0  0  0  0  0  0  0  0  0  0  0
  142.4860   80.1470  223.1610 C   0  0  0  0  0  0  0  0  0  0  0  0
  141.2760   80.1140  223.8570 C   0  0  0  0  0  0  0  0  0  0  0  0
  140.6620   78.9810  223.4530 N   0  0  0  0  0  0  0  0  0  0  0  0
  140.1570   71.7670  223.6360 C   0  0  0  0  0  0  0  0  0  0  0  0
  139.6790   70.5100  223.3410 C   0  0  0  0  0  0  0  0  0  0  0  0
  139.6790   69.5930  224.3860 C   0  0  0  0  0  0  0  0  0  0  0  0
  140.1330   69.9210  225.6490 C   0  0  0  0  0  0  0  0  0  0  0  0
  140.1390   69.0220  226.6940 C   0  0  0  0  0  0  0  0  0  0  0  0
  139.5580   67.3930  226.4540 Cl  0  0  0  0  0  0  0  0  0  0  0  0
  140.5980   69.4020  227.9210 C   0  0  0  0  0  0  0  0  0  0  0  0
  141.0740   70.6840  228.1780 C   0  0  0  0  0  0  0  0  0  0  0  0
  141.0650   71.5850  227.1180 C   0  0  0  0  0  0  0  0  0  0  0  0
  140.6030   71.1970  225.8920 C   0  0  0  0  0  0  0  0  0  0  0  0
  140.5970   72.0710  224.8770 N   0  0  0  0  0  0  0  0  0  0  0  0
  138.1840   73.3770  222.9510 H   0  0  0  0  0  0  0  0  0  0  0  0
  139.9073   74.5756  220.7130 H   0  0  0  0  0  0  0  0  0  0  0  0
  138.1292   74.4150  220.6202 H   0  0  0  0  0  0  0  0  0  0  0  0
  138.1955   77.8070  220.3231 H   0  0  0  0  0  0  0  0  0  0  0  0
  139.0346   78.9530  221.4691 H   0  0  0  0  0  0  0  0  0  0  0  0
  139.4877   78.5476  218.7621 H   0  0  0  0  0  0  0  0  0  0  0  0
  140.4329   79.5271  220.0327 H   0  0  0  0  0  0  0  0  0  0  0  0
  141.0910   77.0881  218.6042 H   0  0  0  0  0  0  0  0  0  0  0  0
  142.0811   78.5001  219.3137 H   0  0  0  0  0  0  0  0  0  0  0  0
  141.7089   75.8509  220.2380 H   0  0  0  0  0  0  0  0  0  0  0  0
  142.8292   77.2317  220.7372 H   0  0  0  0  0  0  0  0  0  0  0  0
  141.3954   76.2518  222.5846 H   0  0  0  0  0  0  0  0  0  0  0  0
  143.2603   80.9252  223.2300 H   0  0  0  0  0  0  0  0  0  0  0  0
  140.9023   80.8535  224.5805 H   0  0  0  0  0  0  0  0  0  0  0  0
  139.7220   78.7060  223.8250 H   0  0  0  0  0  0  0  0  0  0  0  0
  139.3178   70.2463  222.3360 H   0  0  0  0  0  0  0  0  0  0  0  0
  139.3060   68.5748  224.2015 H   0  0  0  0  0  0  0  0  0  0  0  0
  140.5916   68.6665  228.7390 H   0  0  0  0  0  0  0  0  0  0  0  0
  141.4408   70.9720  229.1742 H   0  0  0  0  0  0  0  0  0  0  0  0
  141.4305   72.6117  227.2671 H   0  0  0  0  0  0  0  0  0  0  0  0
  1  2  2  0
  2  3  1  0
  3  4  1  0
  4  5  1  0
  5  6  2  0
  5  7  1  0
  7  8  1  0
  8  9  1  0
  9 10  1  0
 10 11  1  0
 11 12  1  0
 12 13  1  0
 13 14  2  0
 14 15  1  0
 15 16  2  0
 16 17  1  0
  2 18  1  0
 18 19  2  0
 19 20  1  0
 20 21  2  0
 21 22  1  0
 22 23  1  0
 22 24  2  0
 24 25  1  0
 25 26  2  0
 26 27  1  0
 27 28  2  0
 12  7  1  0
 17 13  1  0
 28 18  1  0
 27 21  1  0
  3 29  1  0
  4 30  1  0
  4 31  1  0
  8 32  1  0
  8 33  1  0
  9 34  1  0
  9 35  1  0
 10 36  1  0
 10 37  1  0
 11 38  1  0
 11 39  1  0
 12 40  1  1
 15 41  1  0
 16 42  1  0
 17 43  1  0
 19 44  1  0
 20 45  1  0
 24 46  1  0
 25 47  1  0
 26 48  1  0
M  END
>  <smiles>  (34) 
O=C(NCC(=O)N1CCCC[C@H]1c1ncc[nH]1)c1ccc2c(Cl)cccc2n1

>  <score_type>  (34) 
oracle

>  <origin>  (34) 
autodockgpu

>  <m_score__min__energy>  (34) 
-8.8900000000000006

>  <m_primary>  (34) 
energy

>  <rmsd>  (34) 
2.268639150978109

>  <m_score__min__rmsd>  (34) 
2.268639150978109

>  <meeko>  (34) 
{"free_energy": -8.23, "intermolecular_energy": -9.72, "internal_energy": -1.59, "cluster_size": 12, "cluster_id": 1, "rank_in_cluster": 11}

>  <energy>  (34) 
-6.73

>  <cluster_rmsd>  (34) 
0.73

>  <cluster>  (34) 
7

$$$$

     RDKit          3D

 48 51  0  0  0  0  0  0  0  0999 V2000
  141.3460   72.5360  221.6050 O   0  0  0  0  0  0  0  0  0  0  0  0
  140.4060   72.6640  222.4530 C   0  0  0  0  0  0  0  0  0  0  0  0
  139.4270   73.6910  222.2800 N   0  0  0  0  0  0  0  0  0  0  0  0
  139.4560   74.6120  221.1560 C   0  0  0  0  0  0  0  0  0  0  0  0
  140.5220   75.5900  221.3910 C   0  0  0  0  0  0  0  0  0  0  0  0
  141.7480   75.3150  221.3550 O   0  0  0  0  0  0  0  0  0  0  0  0
  140.1790   76.9410  221.6810 N   0  0  0  0  0  0  0  0  0  0  0  0
  139.1610   77.2710  222.6790 C   0  0  0  0  0  0  0  0  0  0  0  0
  138.2650   78.3680  222.2580 C   0  0  0  0  0  0  0  0  0  0  0  0
  138.4190   78.9020  220.8820 C   0  0  0  0  0  0  0  0  0  0  0  0
  139.7060   78.6920  220.1930 C   0  0  0  0  0  0  0  0  0  0  0  0
  140.8070   78.0740  221.0200 C   0  0  1  0  0  0  0  0  0  0  0  0
  141.3580   79.0250  222.0220 C   0  0  0  0  0  0  0  0  0  0  0  0
  141.2760   80.3560  221.9660 N   0  0  0  0  0  0  0  0  0  0  0  0
  141.8850   80.9030  223.0400 C   0  0  0  0  0  0  0  0  0  0  0  0
  142.3750   79.8460  223.8100 C   0  0  0  0  0  0  0  0  0  0  0  0
  142.0260   78.7250  223.1430 N   0  0  0  0  0  0  0  0  0  0  0  0
  140.3150   71.7660  223.6130 C   0  0  0  0  0  0  0  0  0  0  0  0
  139.8430   70.4860  223.4270 C   0  0  0  0  0  0  0  0  0  0  0  0
  139.7810   69.6850  224.5620 C   0  0  0  0  0  0  0  0  0  0  0  0
  140.1680   70.1430  225.8060 C   0  0  0  0  0  0  0  0  0  0  0  0
  140.1120   69.3600  226.9380 C   0  0  0  0  0  0  0  0  0  0  0  0
  139.5310   67.7160  226.8410 Cl  0  0  0  0  0  0  0  0  0  0  0  0
  140.5090   69.8660  228.1420 C   0  0  0  0  0  0  0  0  0  0  0  0
  140.9810   71.1670  228.2870 C   0  0  0  0  0  0  0  0  0  0  0  0
  141.0350   71.9510  227.1400 C   0  0  0  0  0  0  0  0  0  0  0  0
  140.6350   71.4370  225.9370 C   0  0  0  0  0  0  0  0  0  0  0  0
  140.6910   72.1990  224.8380 N   0  0  0  0  0  0  0  0  0  0  0  0
  138.6720   73.7420  223.0220 H   0  0  0  0  0  0  0  0  0  0  0  0
  139.6568   74.0588  220.2267 H   0  0  0  0  0  0  0  0  0  0  0  0
  138.4868   75.1231  221.0592 H   0  0  0  0  0  0  0  0  0  0  0  0
  138.5516   76.3745  222.8660 H   0  0  0  0  0  0  0  0  0  0  0  0
  139.6882   77.6093  223.5832 H   0  0  0  0  0  0  0  0  0  0  0  0
  137.2321   78.0020  222.3535 H   0  0  0  0  0  0  0  0  0  0  0  0
  138.5345   79.2103  222.9122 H   0  0  0  0  0  0  0  0  0  0  0  0
  137.6378   78.4374  220.2625 H   0  0  0  0  0  0  0  0  0  0  0  0
  138.3498   79.9931  221.0037 H   0  0  0  0  0  0  0  0  0  0  0  0
  139.5226   78.0336  219.3311 H   0  0  0  0  0  0  0  0  0  0  0  0
  140.0655   79.6963  219.9243 H   0  0  0  0  0  0  0  0  0  0  0  0
  141.6621   77.7823  220.3925 H   0  0  0  0  0  0  0  0  0  0  0  0
  141.9774   81.9757  223.2652 H   0  0  0  0  0  0  0  0  0  0  0  0
  142.9279   79.9125  224.7586 H   0  0  0  0  0  0  0  0  0  0  0  0
  142.2730   77.7740  223.5040 H   0  0  0  0  0  0  0  0  0  0  0  0
  139.5329   70.1183  222.4378 H   0  0  0  0  0  0  0  0  0  0  0  0
  139.4118   68.6533  224.4658 H   0  0  0  0  0  0  0  0  0  0  0  0
  140.4537   69.2209  229.0313 H   0  0  0  0  0  0  0  0  0  0  0  0
  141.2973   71.5577  229.2654 H   0  0  0  0  0  0  0  0  0  0  0  0
  141.4002   72.9869  227.2000 H   0  0  0  0  0  0  0  0  0  0  0  0
  1  2  2  0
  2  3  1  0
  3  4  1  0
  4  5  1  0
  5  6  2  0
  5  7  1  0
  7  8  1  0
  8  9  1  0
  9 10  1  0
 10 11  1  0
 11 12  1  0
 12 13  1  0
 13 14  2  0
 14 15  1  0
 15 16  2  0
 16 17  1  0
  2 18  1  0
 18 19  2  0
 19 20  1  0
 20 21  2  0
 21 22  1  0
 22 23  1  0
 22 24  2  0
 24 25  1  0
 25 26  2  0
 26 27  1  0
 27 28  2  0
 12  7  1  0
 17 13  1  0
 28 18  1  0
 27 21  1  0
  3 29  1  0
  4 30  1  0
  4 31  1  0
  8 32  1  0
  8 33  1  0
  9 34  1  0
  9 35  1  0
 10 36  1  0
 10 37  1  0
 11 38  1  0
 11 39  1  0
 12 40  1  6
 15 41  1  0
 16 42  1  0
 17 43  1  0
 19 44  1  0
 20 45  1  0
 24 46  1  0
 25 47  1  0
 26 48  1  0
M  END
>  <smiles>  (35) 
O=C(NCC(=O)N1CCCC[C@H]1c1ncc[nH]1)c1ccc2c(Cl)cccc2n1

>  <score_type>  (35) 
oracle

>  <origin>  (35) 
autodockgpu

>  <m_score__min__energy>  (35) 
-8.8900000000000006

>  <m_primary>  (35) 
energy

>  <rmsd>  (35) 
2.689333287324742

>  <m_score__min__rmsd>  (35) 
2.689333287324742

>  <meeko>  (35) 
{"free_energy": -8.51, "intermolecular_energy": -10.0, "internal_energy": -1.43, "cluster_size": 12, "cluster_id": 1, "rank_in_cluster": 9}

>  <energy>  (35) 
-6.7

>  <cluster_rmsd>  (35) 
0.73

>  <cluster>  (35) 
7

$$$$

     RDKit          3D

 48 51  0  0  0  0  0  0  0  0999 V2000
  140.2220   74.2700  221.8780 O   0  0  0  0  0  0  0  0  0  0  0  0
  140.9440   75.3010  221.6920 C   0  0  0  0  0  0  0  0  0  0  0  0
  142.1710   75.1900  220.9680 N   0  0  0  0  0  0  0  0  0  0  0  0
  142.6400   73.9280  220.4220 C   0  0  0  0  0  0  0  0  0  0  0  0
  142.2500   73.8650  219.0110 C   0  0  0  0  0  0  0  0  0  0  0  0
  141.9490   72.8010  218.4120 O   0  0  0  0  0  0  0  0  0  0  0  0
  142.2000   75.0640  218.2450 N   0  0  0  0  0  0  0  0  0  0  0  0
  141.0270   75.4010  217.4360 C   0  0  0  0  0  0  0  0  0  0  0  0
  141.3720   75.9620  216.1130 C   0  0  0  0  0  0  0  0  0  0  0  0
  142.8050   76.0010  215.7280 C   0  0  0  0  0  0  0  0  0  0  0  0
  143.8170   75.9570  216.8000 C   0  0  0  0  0  0  0  0  0  0  0  0
  143.2890   76.0270  218.2120 C   0  0  1  0  0  0  0  0  0  0  0  0
  142.7970   77.3850  218.5620 C   0  0  0  0  0  0  0  0  0  0  0  0
  141.9940   77.6890  219.5840 N   0  0  0  0  0  0  0  0  0  0  0  0
  141.7490   79.0160  219.6030 C   0  0  0  0  0  0  0  0  0  0  0  0
  142.4430   79.5720  218.5250 C   0  0  0  0  0  0  0  0  0  0  0  0
  143.0630   78.5330  217.9260 N   0  0  0  0  0  0  0  0  0  0  0  0
  140.5300   76.6110  222.2170 C   0  0  0  0  0  0  0  0  0  0  0  0
  139.2000   76.8200  222.5060 C   0  0  0  0  0  0  0  0  0  0  0  0
  138.8710   78.0790  222.9990 C   0  0  0  0  0  0  0  0  0  0  0  0
  139.8210   79.0640  223.1880 C   0  0  0  0  0  0  0  0  0  0  0  0
  139.5080   80.3140  223.6760 C   0  0  0  0  0  0  0  0  0  0  0  0
  137.8570   80.7110  224.0830 Cl  0  0  0  0  0  0  0  0  0  0  0  0
  140.4880   81.2490  223.8430 C   0  0  0  0  0  0  0  0  0  0  0  0
  141.8230   80.9960  223.5380 C   0  0  0  0  0  0  0  0  0  0  0  0
  142.1300   79.7320  223.0460 C   0  0  0  0  0  0  0  0  0  0  0  0
  141.1420   78.8010  222.8820 C   0  0  0  0  0  0  0  0  0  0  0  0
  141.4470   77.5860  222.4080 N   0  0  0  0  0  0  0  0  0  0  0  0
  142.7230   76.0870  220.8500 H   0  0  0  0  0  0  0  0  0  0  0  0
  143.7350   73.8692  220.5084 H   0  0  0  0  0  0  0  0  0  0  0  0
  142.1973   73.0871  220.9759 H   0  0  0  0  0  0  0  0  0  0  0  0
  140.4333   74.4875  217.2840 H   0  0  0  0  0  0  0  0  0  0  0  0
  140.4655   76.1737  217.9816 H   0  0  0  0  0  0  0  0  0  0  0  0
  140.8454   75.3629  215.3556 H   0  0  0  0  0  0  0  0  0  0  0  0
  141.0739   77.0190  216.1751 H   0  0  0  0  0  0  0  0  0  0  0  0
  142.9893   75.1389  215.0701 H   0  0  0  0  0  0  0  0  0  0  0  0
  142.9368   76.9923  215.2698 H   0  0  0  0  0  0  0  0  0  0  0  0
  144.3764   75.0155  216.6962 H   0  0  0  0  0  0  0  0  0  0  0  0
  144.4289   76.8614  216.6672 H   0  0  0  0  0  0  0  0  0  0  0  0
  144.0788   75.8051  218.9448 H   0  0  0  0  0  0  0  0  0  0  0  0
  141.1229   79.5565  220.3282 H   0  0  0  0  0  0  0  0  0  0  0  0
  142.4769   80.6306  218.2278 H   0  0  0  0  0  0  0  0  0  0  0  0
  143.6610   78.6690  217.0770 H   0  0  0  0  0  0  0  0  0  0  0  0
  138.4418   76.0373  222.3559 H   0  0  0  0  0  0  0  0  0  0  0  0
  137.8214   78.2968  223.2460 H   0  0  0  0  0  0  0  0  0  0  0  0
  140.2130   82.2400  224.2333 H   0  0  0  0  0  0  0  0  0  0  0  0
  142.5999   81.7617  223.6799 H   0  0  0  0  0  0  0  0  0  0  0  0
  143.1695   79.4807  222.7883 H   0  0  0  0  0  0  0  0  0  0  0  0
  1  2  2  0
  2  3  1  0
  3  4  1  0
  4  5  1  0
  5  6  2  0
  5  7  1  0
  7  8  1  0
  8  9  1  0
  9 10  1  0
 10 11  1  0
 11 12  1  0
 12 13  1  0
 13 14  2  0
 14 15  1  0
 15 16  2  0
 16 17  1  0
  2 18  1  0
 18 19  2  0
 19 20  1  0
 20 21  2  0
 21 22  1  0
 22 23  1  0
 22 24  2  0
 24 25  1  0
 25 26  2  0
 26 27  1  0
 27 28  2  0
 12  7  1  0
 17 13  1  0
 28 18  1  0
 27 21  1  0
  3 29  1  0
  4 30  1  0
  4 31  1  0
  8 32  1  0
  8 33  1  0
  9 34  1  0
  9 35  1  0
 10 36  1  0
 10 37  1  0
 11 38  1  0
 11 39  1  0
 12 40  1  1
 15 41  1  0
 16 42  1  0
 17 43  1  0
 19 44  1  0
 20 45  1  0
 24 46  1  0
 25 47  1  0
 26 48  1  0
M  END
>  <smiles>  (36) 
O=C(NCC(=O)N1CCCC[C@H]1c1ncc[nH]1)c1ccc2c(Cl)cccc2n1

>  <score_type>  (36) 
oracle

>  <origin>  (36) 
autodockgpu

>  <m_score__min__energy>  (36) 
-8.8900000000000006

>  <m_primary>  (36) 
energy

>  <rmsd>  (36) 
6.420123654147301

>  <m_score__min__rmsd>  (36) 
6.420123654147301

>  <meeko>  (36) 
{"free_energy": -6.66, "intermolecular_energy": -8.15, "internal_energy": -3.08, "cluster_size": 24, "cluster_id": 7, "rank_in_cluster": 17}

>  <energy>  (36) 
-6.7

>  <cluster_rmsd>  (36) 
0.46

>  <cluster>  (36) 
7

$$$$

     RDKit          3D

 48 51  0  0  0  0  0  0  0  0999 V2000
  140.7610   73.4620  222.3170 O   0  0  0  0  0  0  0  0  0  0  0  0
  140.3810   72.2480  222.3130 C   0  0  0  0  0  0  0  0  0  0  0  0
  140.0050   71.6230  221.0840 N   0  0  0  0  0  0  0  0  0  0  0  0
  140.0390   72.3260  219.8120 C   0  0  0  0  0  0  0  0  0  0  0  0
  140.8470   71.5410  218.8760 C   0  0  0  0  0  0  0  0  0  0  0  0
  140.3660   70.7640  218.0130 O   0  0  0  0  0  0  0  0  0  0  0  0
  142.2670   71.6440  218.9200 N   0  0  0  0  0  0  0  0  0  0  0  0
  143.0460   71.9350  217.7160 C   0  0  0  0  0  0  0  0  0  0  0  0
  144.2830   71.1320  217.6130 C   0  0  0  0  0  0  0  0  0  0  0  0
  144.5170   70.0830  218.6370 C   0  0  0  0  0  0  0  0  0  0  0  0
  143.8160   70.2010  219.9300 C   0  0  0  0  0  0  0  0  0  0  0  0
  143.0330   71.4730  220.1440 C   0  0  1  0  0  0  0  0  0  0  0  0
  143.9170   72.6450  220.3750 C   0  0  0  0  0  0  0  0  0  0  0  0
  143.6120   73.9190  220.1200 N   0  0  0  0  0  0  0  0  0  0  0  0
  144.6490   74.7190  220.4510 C   0  0  0  0  0  0  0  0  0  0  0  0
  145.6610   73.8900  220.9410 C   0  0  0  0  0  0  0  0  0  0  0  0
  145.1610   72.6370  220.8720 N   0  0  0  0  0  0  0  0  0  0  0  0
  140.3230   71.4760  223.5640 C   0  0  0  0  0  0  0  0  0  0  0  0
  139.8740   70.1750  223.5210 C   0  0  0  0  0  0  0  0  0  0  0  0
  139.8420   69.4970  224.7350 C   0  0  0  0  0  0  0  0  0  0  0  0
  140.2370   70.0920  225.9180 C   0  0  0  0  0  0  0  0  0  0  0  0
  140.2110   69.4320  227.1270 C   0  0  0  0  0  0  0  0  0  0  0  0
  139.6610   67.7770  227.2130 Cl  0  0  0  0  0  0  0  0  0  0  0  0
  140.6130   70.0700  228.2640 C   0  0  0  0  0  0  0  0  0  0  0  0
  141.0610   71.3880  228.2640 C   0  0  0  0  0  0  0  0  0  0  0  0
  141.0850   72.0470  227.0390 C   0  0  0  0  0  0  0  0  0  0  0  0
  140.6800   71.4010  225.9040 C   0  0  0  0  0  0  0  0  0  0  0  0
  140.7060   72.0430  224.7290 N   0  0  0  0  0  0  0  0  0  0  0  0
  139.6980   70.6110  221.1520 H   0  0  0  0  0  0  0  0  0  0  0  0
  139.0171   72.4360  219.4201 H   0  0  0  0  0  0  0  0  0  0  0  0
  140.4753   73.3272  219.9431 H   0  0  0  0  0  0  0  0  0  0  0  0
  142.4199   71.7266  216.8359 H   0  0  0  0  0  0  0  0  0  0  0  0
  143.3465   72.9918  217.7692 H   0  0  0  0  0  0  0  0  0  0  0  0
  144.2703   70.6350  216.6318 H   0  0  0  0  0  0  0  0  0  0  0  0
  145.0960   71.8563  217.7691 H   0  0  0  0  0  0  0  0  0  0  0  0
  144.2209   69.1215  218.1922 H   0  0  0  0  0  0  0  0  0  0  0  0
  145.5815   70.1863  218.8941 H   0  0  0  0  0  0  0  0  0  0  0  0
  143.1155   69.3568  220.0113 H   0  0  0  0  0  0  0  0  0  0  0  0
  144.6054   70.2061  220.6960 H   0  0  0  0  0  0  0  0  0  0  0  0
  142.3982   71.4046  221.0397 H   0  0  0  0  0  0  0  0  0  0  0  0
  144.6889   75.8139  220.3534 H   0  0  0  0  0  0  0  0  0  0  0  0
  146.6537   74.1930  221.3054 H   0  0  0  0  0  0  0  0  0  0  0  0
  145.7200   71.8080  221.1810 H   0  0  0  0  0  0  0  0  0  0  0  0
  139.5587   69.6993  222.5806 H   0  0  0  0  0  0  0  0  0  0  0  0
  139.4913   68.4546  224.7540 H   0  0  0  0  0  0  0  0  0  0  0  0
  140.5819   69.5219  229.2172 H   0  0  0  0  0  0  0  0  0  0  0  0
  141.3816   71.8860  229.1909 H   0  0  0  0  0  0  0  0  0  0  0  0
  141.4305   73.0898  226.9834 H   0  0  0  0  0  0  0  0  0  0  0  0
  1  2  2  0
  2  3  1  0
  3  4  1  0
  4  5  1  0
  5  6  2  0
  5  7  1  0
  7  8  1  0
  8  9  1  0
  9 10  1  0
 10 11  1  0
 11 12  1  0
 12 13  1  0
 13 14  2  0
 14 15  1  0
 15 16  2  0
 16 17  1  0
  2 18  1  0
 18 19  2  0
 19 20  1  0
 20 21  2  0
 21 22  1  0
 22 23  1  0
 22 24  2  0
 24 25  1  0
 25 26  2  0
 26 27  1  0
 27 28  2  0
 12  7  1  0
 17 13  1  0
 28 18  1  0
 27 21  1  0
  3 29  1  0
  4 30  1  0
  4 31  1  0
  8 32  1  0
  8 33  1  0
  9 34  1  0
  9 35  1  0
 10 36  1  0
 10 37  1  0
 11 38  1  0
 11 39  1  0
 12 40  1  1
 15 41  1  0
 16 42  1  0
 17 43  1  0
 19 44  1  0
 20 45  1  0
 24 46  1  0
 25 47  1  0
 26 48  1  0
M  END
>  <smiles>  (37) 
O=C(NCC(=O)N1CCCC[C@H]1c1ncc[nH]1)c1ccc2c(Cl)cccc2n1

>  <score_type>  (37) 
oracle

>  <origin>  (37) 
autodockgpu

>  <m_score__min__energy>  (37) 
-8.8900000000000006

>  <m_primary>  (37) 
energy

>  <rmsd>  (37) 
4.698598241954803

>  <m_score__min__rmsd>  (37) 
4.698598241954803

>  <meeko>  (37) 
{"free_energy": -7.69, "intermolecular_energy": -9.18, "internal_energy": -1.7, "cluster_size": 1, "cluster_id": 5, "rank_in_cluster": 1}

>  <energy>  (37) 
-6.69

>  <cluster_rmsd>  (37) 
0.42

>  <cluster>  (37) 
7

$$$$

     RDKit          3D

 48 51  0  0  0  0  0  0  0  0999 V2000
  140.0870   71.7650  221.0380 O   0  0  0  0  0  0  0  0  0  0  0  0
  139.9190   72.2650  222.1950 C   0  0  0  0  0  0  0  0  0  0  0  0
  139.6740   73.6660  222.3370 N   0  0  0  0  0  0  0  0  0  0  0  0
  139.6060   74.5630  221.1960 C   0  0  0  0  0  0  0  0  0  0  0  0
  139.0270   75.8320  221.6430 C   0  0  0  0  0  0  0  0  0  0  0  0
  137.9370   75.9270  222.2640 O   0  0  0  0  0  0  0  0  0  0  0  0
  139.7150   77.0490  221.3730 N   0  0  0  0  0  0  0  0  0  0  0  0
  138.9990   78.2430  220.9230 C   0  0  0  0  0  0  0  0  0  0  0  0
  139.7050   78.9780  219.8520 C   0  0  0  0  0  0  0  0  0  0  0  0
  140.9430   78.3770  219.2970 C   0  0  0  0  0  0  0  0  0  0  0  0
  141.6680   77.3890  220.1190 C   0  0  0  0  0  0  0  0  0  0  0  0
  141.1530   77.1930  221.5240 C   0  0  1  0  0  0  0  0  0  0  0  0
  141.4740   78.3470  222.4060 C   0  0  0  0  0  0  0  0  0  0  0  0
  140.7590   78.7510  223.4580 N   0  0  0  0  0  0  0  0  0  0  0  0
  141.3400   79.8290  224.0270 C   0  0  0  0  0  0  0  0  0  0  0  0
  142.4870   80.1120  223.2810 C   0  0  0  0  0  0  0  0  0  0  0  0
  142.5190   79.1780  222.3070 N   0  0  0  0  0  0  0  0  0  0  0  0
  139.9730   71.4150  223.3950 C   0  0  0  0  0  0  0  0  0  0  0  0
  139.5590   70.1060  223.3000 C   0  0  0  0  0  0  0  0  0  0  0  0
  139.6340   69.3540  224.4680 C   0  0  0  0  0  0  0  0  0  0  0  0
  140.0980   69.8860  225.6550 C   0  0  0  0  0  0  0  0  0  0  0  0
  140.1780   69.1520  226.8180 C   0  0  0  0  0  0  0  0  0  0  0  0
  139.6830   67.4780  226.8360 Cl  0  0  0  0  0  0  0  0  0  0  0  0
  140.6450   69.7310  227.9620 C   0  0  0  0  0  0  0  0  0  0  0  0
  141.0550   71.0600  228.0150 C   0  0  0  0  0  0  0  0  0  0  0  0
  140.9710   71.7940  226.8370 C   0  0  0  0  0  0  0  0  0  0  0  0
  140.5020   71.2070  225.6940 C   0  0  0  0  0  0  0  0  0  0  0  0
  140.4250   71.9210  224.5640 N   0  0  0  0  0  0  0  0  0  0  0  0
  139.5420   74.0170  223.3290 H   0  0  0  0  0  0  0  0  0  0  0  0
  140.6167   74.7352  220.7974 H   0  0  0  0  0  0  0  0  0  0  0  0
  138.9848   74.1213  220.4029 H   0  0  0  0  0  0  0  0  0  0  0  0
  138.0124   77.9370  220.5449 H   0  0  0  0  0  0  0  0  0  0  0  0
  138.9196   78.9205  221.7860 H   0  0  0  0  0  0  0  0  0  0  0  0
  138.9982   79.1007  219.0181 H   0  0  0  0  0  0  0  0  0  0  0  0
  140.0415   79.9088  220.3320 H   0  0  0  0  0  0  0  0  0  0  0  0
  140.6699   77.8796  218.3546 H   0  0  0  0  0  0  0  0  0  0  0  0
  141.6408   79.2228  219.2092 H   0  0  0  0  0  0  0  0  0  0  0  0
  141.6162   76.4189  219.6030 H   0  0  0  0  0  0  0  0  0  0  0  0
  142.6880   77.7859  220.2293 H   0  0  0  0  0  0  0  0  0  0  0  0
  141.6212   76.3201  222.0023 H   0  0  0  0  0  0  0  0  0  0  0  0
  140.9794   80.3789  224.9088 H   0  0  0  0  0  0  0  0  0  0  0  0
  143.2101   80.9233  223.4512 H   0  0  0  0  0  0  0  0  0  0  0  0
  143.2860   79.1570  221.5940 H   0  0  0  0  0  0  0  0  0  0  0  0
  139.1903   69.6792  222.3556 H   0  0  0  0  0  0  0  0  0  0  0  0
  139.3135   68.3020  224.4454 H   0  0  0  0  0  0  0  0  0  0  0  0
  140.6995   69.1239  228.8777 H   0  0  0  0  0  0  0  0  0  0  0  0
  141.4287   71.5095  228.9468 H   0  0  0  0  0  0  0  0  0  0  0  0
  141.2824   72.8489  226.8243 H   0  0  0  0  0  0  0  0  0  0  0  0
  1  2  2  0
  2  3  1  0
  3  4  1  0
  4  5  1  0
  5  6  2  0
  5  7  1  0
  7  8  1  0
  8  9  1  0
  9 10  1  0
 10 11  1  0
 11 12  1  0
 12 13  1  0
 13 14  2  0
 14 15  1  0
 15 16  2  0
 16 17  1  0
  2 18  1  0
 18 19  2  0
 19 20  1  0
 20 21  2  0
 21 22  1  0
 22 23  1  0
 22 24  2  0
 24 25  1  0
 25 26  2  0
 26 27  1  0
 27 28  2  0
 12  7  1  0
 17 13  1  0
 28 18  1  0
 27 21  1  0
  3 29  1  0
  4 30  1  0
  4 31  1  0
  8 32  1  0
  8 33  1  0
  9 34  1  0
  9 35  1  0
 10 36  1  0
 10 37  1  0
 11 38  1  0
 11 39  1  0
 12 40  1  1
 15 41  1  0
 16 42  1  0
 17 43  1  0
 19 44  1  0
 20 45  1  0
 24 46  1  0
 25 47  1  0
 26 48  1  0
M  END
>  <smiles>  (38) 
O=C(NCC(=O)N1CCCC[C@H]1c1ncc[nH]1)c1ccc2c(Cl)cccc2n1

>  <score_type>  (38) 
oracle

>  <origin>  (38) 
autodockgpu

>  <m_score__min__energy>  (38) 
-8.8900000000000006

>  <m_primary>  (38) 
energy

>  <rmsd>  (38) 
2.222514037488368

>  <m_score__min__rmsd>  (38) 
2.222514037488368

>  <meeko>  (38) 
{"free_energy": -8.67, "intermolecular_energy": -10.16, "internal_energy": -1.63, "cluster_size": 12, "cluster_id": 1, "rank_in_cluster": 6}

>  <energy>  (38) 
-6.68

>  <cluster_rmsd>  (38) 
0.4

>  <cluster>  (38) 
7

$$$$

     RDKit          3D

 48 51  0  0  0  0  0  0  0  0999 V2000
  140.1540   74.2590  221.9780 O   0  0  0  0  0  0  0  0  0  0  0  0
  140.8900   75.2710  221.7530 C   0  0  0  0  0  0  0  0  0  0  0  0
  142.1030   75.1200  221.0130 N   0  0  0  0  0  0  0  0  0  0  0  0
  142.5420   73.8350  220.4940 C   0  0  0  0  0  0  0  0  0  0  0  0
  143.0120   74.0310  219.1200 C   0  0  0  0  0  0  0  0  0  0  0  0
  143.7810   73.2370  218.5210 O   0  0  0  0  0  0  0  0  0  0  0  0
  142.5910   75.1810  218.3940 N   0  0  0  0  0  0  0  0  0  0  0  0
  141.2230   75.3010  217.8880 C   0  0  0  0  0  0  0  0  0  0  0  0
  141.1530   75.8640  216.5230 C   0  0  0  0  0  0  0  0  0  0  0  0
  142.4290   76.1160  215.8090 C   0  0  0  0  0  0  0  0  0  0  0  0
  143.6580   76.2690  216.6110 C   0  0  0  0  0  0  0  0  0  0  0  0
  143.4720   76.3010  218.1080 C   0  0  1  0  0  0  0  0  0  0  0  0
  142.8630   77.5760  218.5710 C   0  0  0  0  0  0  0  0  0  0  0  0
  142.1140   77.7350  219.6640 N   0  0  0  0  0  0  0  0  0  0  0  0
  141.7280   79.0240  219.7780 C   0  0  0  0  0  0  0  0  0  0  0  0
  142.2710   79.7080  218.6880 C   0  0  0  0  0  0  0  0  0  0  0  0
  142.9520   78.7770  217.9860 N   0  0  0  0  0  0  0  0  0  0  0  0
  140.5070   76.6020  222.2470 C   0  0  0  0  0  0  0  0  0  0  0  0
  139.1730   76.8770  222.4500 C   0  0  0  0  0  0  0  0  0  0  0  0
  138.8740   78.1520  222.9190 C   0  0  0  0  0  0  0  0  0  0  0  0
  139.8560   79.0910  223.1670 C   0  0  0  0  0  0  0  0  0  0  0  0
  139.5740   80.3570  223.6320 C   0  0  0  0  0  0  0  0  0  0  0  0
  137.9210   80.8350  223.9300 Cl  0  0  0  0  0  0  0  0  0  0  0  0
  140.5850   81.2440  223.8600 C   0  0  0  0  0  0  0  0  0  0  0  0
  141.9230   80.9260  223.6430 C   0  0  0  0  0  0  0  0  0  0  0  0
  142.1990   79.6460  223.1740 C   0  0  0  0  0  0  0  0  0  0  0  0
  141.1800   78.7630  222.9470 C   0  0  0  0  0  0  0  0  0  0  0  0
  141.4560   77.5330  222.4960 N   0  0  0  0  0  0  0  0  0  0  0  0
  142.6690   76.0030  220.8610 H   0  0  0  0  0  0  0  0  0  0  0  0
  143.3609   73.4430  221.1150 H   0  0  0  0  0  0  0  0  0  0  0  0
  141.7108   73.1148  220.5115 H   0  0  0  0  0  0  0  0  0  0  0  0
  140.7655   74.3007  217.8772 H   0  0  0  0  0  0  0  0  0  0  0  0
  140.6881   75.9936  218.5545 H   0  0  0  0  0  0  0  0  0  0  0  0
  140.5673   75.1636  215.9095 H   0  0  0  0  0  0  0  0  0  0  0  0
  140.7115   76.8623  216.6590 H   0  0  0  0  0  0  0  0  0  0  0  0
  142.5906   75.2721  215.1222 H   0  0  0  0  0  0  0  0  0  0  0  0
  142.2875   77.0993  215.3366 H   0  0  0  0  0  0  0  0  0  0  0  0
  144.3225   75.4255  216.3725 H   0  0  0  0  0  0  0  0  0  0  0  0
  144.0665   77.2543  216.3421 H   0  0  0  0  0  0  0  0  0  0  0  0
  144.4369   76.2300  218.6313 H   0  0  0  0  0  0  0  0  0  0  0  0
  141.1051   79.4532  220.5766 H   0  0  0  0  0  0  0  0  0  0  0  0
  142.1662   80.7772  218.4518 H   0  0  0  0  0  0  0  0  0  0  0  0
  143.4640   79.0220  217.1060 H   0  0  0  0  0  0  0  0  0  0  0  0
  138.3889   76.1312  222.2526 H   0  0  0  0  0  0  0  0  0  0  0  0
  137.8225   78.4208  223.0980 H   0  0  0  0  0  0  0  0  0  0  0  0
  140.3335   82.2491  224.2295 H   0  0  0  0  0  0  0  0  0  0  0  0
  142.7253   81.6539  223.8338 H   0  0  0  0  0  0  0  0  0  0  0  0
  143.2396   79.3433  222.9852 H   0  0  0  0  0  0  0  0  0  0  0  0
  1  2  2  0
  2  3  1  0
  3  4  1  0
  4  5  1  0
  5  6  2  0
  5  7  1  0
  7  8  1  0
  8  9  1  0
  9 10  1  0
 10 11  1  0
 11 12  1  0
 12 13  1  0
 13 14  2  0
 14 15  1  0
 15 16  2  0
 16 17  1  0
  2 18  1  0
 18 19  2  0
 19 20  1  0
 20 21  2  0
 21 22  1  0
 22 23  1  0
 22 24  2  0
 24 25  1  0
 25 26  2  0
 26 27  1  0
 27 28  2  0
 12  7  1  0
 17 13  1  0
 28 18  1  0
 27 21  1  0
  3 29  1  0
  4 30  1  0
  4 31  1  0
  8 32  1  0
  8 33  1  0
  9 34  1  0
  9 35  1  0
 10 36  1  0
 10 37  1  0
 11 38  1  0
 11 39  1  0
 12 40  1  1
 15 41  1  0
 16 42  1  0
 17 43  1  0
 19 44  1  0
 20 45  1  0
 24 46  1  0
 25 47  1  0
 26 48  1  0
M  END
>  <smiles>  (39) 
O=C(NCC(=O)N1CCCC[C@H]1c1ncc[nH]1)c1ccc2c(Cl)cccc2n1

>  <score_type>  (39) 
oracle

>  <origin>  (39) 
autodockgpu

>  <m_score__min__energy>  (39) 
-8.8900000000000006

>  <m_primary>  (39) 
energy

>  <rmsd>  (39) 
6.394839845835971

>  <m_score__min__rmsd>  (39) 
6.394839845835971

>  <meeko>  (39) 
{"free_energy": -6.99, "intermolecular_energy": -8.48, "internal_energy": -3.08, "cluster_size": 24, "cluster_id": 7, "rank_in_cluster": 8}

>  <energy>  (39) 
-6.66

>  <cluster_rmsd>  (39) 
0.41

>  <cluster>  (39) 
7

$$$$

     RDKit          3D

 48 51  0  0  0  0  0  0  0  0999 V2000
  140.2570   74.2110  221.9480 O   0  0  0  0  0  0  0  0  0  0  0  0
  140.9490   75.2520  221.7100 C   0  0  0  0  0  0  0  0  0  0  0  0
  142.1550   75.1460  220.9510 N   0  0  0  0  0  0  0  0  0  0  0  0
  142.6370   73.8780  220.4280 C   0  0  0  0  0  0  0  0  0  0  0  0
  142.3280   73.8250  218.9970 C   0  0  0  0  0  0  0  0  0  0  0  0
  142.1180   72.7600  218.3630 O   0  0  0  0  0  0  0  0  0  0  0  0
  142.2540   75.0360  218.2520 N   0  0  0  0  0  0  0  0  0  0  0  0
  141.0730   75.3660  217.4530 C   0  0  0  0  0  0  0  0  0  0  0  0
  141.4030   75.9550  216.1380 C   0  0  0  0  0  0  0  0  0  0  0  0
  142.8340   76.0260  215.7490 C   0  0  0  0  0  0  0  0  0  0  0  0
  143.8500   75.9820  216.8170 C   0  0  0  0  0  0  0  0  0  0  0  0
  143.3260   76.0180  218.2310 C   0  0  1  0  0  0  0  0  0  0  0  0
  142.8120   77.3610  218.6060 C   0  0  0  0  0  0  0  0  0  0  0  0
  142.0230   77.6360  219.6470 N   0  0  0  0  0  0  0  0  0  0  0  0
  141.7500   78.9580  219.6850 C   0  0  0  0  0  0  0  0  0  0  0  0
  142.4090   79.5400  218.6000 C   0  0  0  0  0  0  0  0  0  0  0  0
  143.0400   78.5210  217.9770 N   0  0  0  0  0  0  0  0  0  0  0  0
  140.5210   76.5670  222.2080 C   0  0  0  0  0  0  0  0  0  0  0  0
  139.1770   76.8020  222.3930 C   0  0  0  0  0  0  0  0  0  0  0  0
  138.8350   78.0650  222.8660 C   0  0  0  0  0  0  0  0  0  0  0  0
  139.7860   79.0300  223.1350 C   0  0  0  0  0  0  0  0  0  0  0  0
  139.4610   80.2840  223.6040 C   0  0  0  0  0  0  0  0  0  0  0  0
  137.7900   80.7120  223.8810 Cl  0  0  0  0  0  0  0  0  0  0  0  0
  140.4430   81.1980  223.8530 C   0  0  0  0  0  0  0  0  0  0  0  0
  141.7920   80.9200  223.6520 C   0  0  0  0  0  0  0  0  0  0  0  0
  142.1110   79.6520  223.1790 C   0  0  0  0  0  0  0  0  0  0  0  0
  141.1220   78.7410  222.9320 C   0  0  0  0  0  0  0  0  0  0  0  0
  141.4390   77.5230  222.4760 N   0  0  0  0  0  0  0  0  0  0  0  0
  142.6830   76.0510  220.7890 H   0  0  0  0  0  0  0  0  0  0  0  0
  143.7243   73.8031  220.5770 H   0  0  0  0  0  0  0  0  0  0  0  0
  142.1514   73.0419  220.9524 H   0  0  0  0  0  0  0  0  0  0  0  0
  140.4946   74.4450  217.2879 H   0  0  0  0  0  0  0  0  0  0  0  0
  140.5006   76.1199  218.0134 H   0  0  0  0  0  0  0  0  0  0  0  0
  140.8844   75.3591  215.3725 H   0  0  0  0  0  0  0  0  0  0  0  0
  141.0862   77.0053  216.2184 H   0  0  0  0  0  0  0  0  0  0  0  0
  143.0314   75.1785  215.0761 H   0  0  0  0  0  0  0  0  0  0  0  0
  142.9467   77.0270  215.3070 H   0  0  0  0  0  0  0  0  0  0  0  0
  144.4260   75.0528  216.6953 H   0  0  0  0  0  0  0  0  0  0  0  0
  144.4448   76.8997  216.6980 H   0  0  0  0  0  0  0  0  0  0  0  0
  144.1224   75.7967  218.9568 H   0  0  0  0  0  0  0  0  0  0  0  0
  141.1275   79.4772  220.4285 H   0  0  0  0  0  0  0  0  0  0  0  0
  142.4133   80.6021  218.3137 H   0  0  0  0  0  0  0  0  0  0  0  0
  143.6180   78.6790  217.1180 H   0  0  0  0  0  0  0  0  0  0  0  0
  138.4175   76.0355  222.1792 H   0  0  0  0  0  0  0  0  0  0  0  0
  137.7737   78.3026  223.0309 H   0  0  0  0  0  0  0  0  0  0  0  0
  140.1577   82.1924  224.2268 H   0  0  0  0  0  0  0  0  0  0  0  0
  142.5704   81.6694  223.8580 H   0  0  0  0  0  0  0  0  0  0  0  0
  143.1625   79.3810  223.0030 H   0  0  0  0  0  0  0  0  0  0  0  0
  1  2  2  0
  2  3  1  0
  3  4  1  0
  4  5  1  0
  5  6  2  0
  5  7  1  0
  7  8  1  0
  8  9  1  0
  9 10  1  0
 10 11  1  0
 11 12  1  0
 12 13  1  0
 13 14  2  0
 14 15  1  0
 15 16  2  0
 16 17  1  0
  2 18  1  0
 18 19  2  0
 19 20  1  0
 20 21  2  0
 21 22  1  0
 22 23  1  0
 22 24  2  0
 24 25  1  0
 25 26  2  0
 26 27  1  0
 27 28  2  0
 12  7  1  0
 17 13  1  0
 28 18  1  0
 27 21  1  0
  3 29  1  0
  4 30  1  0
  4 31  1  0
  8 32  1  0
  8 33  1  0
  9 34  1  0
  9 35  1  0
 10 36  1  0
 10 37  1  0
 11 38  1  0
 11 39  1  0
 12 40  1  1
 15 41  1  0
 16 42  1  0
 17 43  1  0
 19 44  1  0
 20 45  1  0
 24 46  1  0
 25 47  1  0
 26 48  1  0
M  END
>  <smiles>  (40) 
O=C(NCC(=O)N1CCCC[C@H]1c1ncc[nH]1)c1ccc2c(Cl)cccc2n1

>  <score_type>  (40) 
oracle

>  <origin>  (40) 
autodockgpu

>  <m_score__min__energy>  (40) 
-8.8900000000000006

>  <m_primary>  (40) 
energy

>  <rmsd>  (40) 
6.38630819487354

>  <m_score__min__rmsd>  (40) 
6.38630819487354

>  <meeko>  (40) 
{"free_energy": -6.69, "intermolecular_energy": -8.18, "internal_energy": -3.04, "cluster_size": 24, "cluster_id": 7, "rank_in_cluster": 14}

>  <energy>  (40) 
-6.66

>  <cluster_rmsd>  (40) 
0.45

>  <cluster>  (40) 
7

$$$$

     RDKit          3D

 48 51  0  0  0  0  0  0  0  0999 V2000
  140.0540   74.2610  222.0110 O   0  0  0  0  0  0  0  0  0  0  0  0
  140.8140   75.2530  221.7720 C   0  0  0  0  0  0  0  0  0  0  0  0
  142.0120   75.0660  221.0170 N   0  0  0  0  0  0  0  0  0  0  0  0
  142.4100   73.7670  220.4990 C   0  0  0  0  0  0  0  0  0  0  0  0
  142.9670   73.9590  219.1570 C   0  0  0  0  0  0  0  0  0  0  0  0
  143.7750   73.1650  218.6120 O   0  0  0  0  0  0  0  0  0  0  0  0
  142.5890   75.1040  218.4000 N   0  0  0  0  0  0  0  0  0  0  0  0
  141.2530   75.2220  217.8150 C   0  0  0  0  0  0  0  0  0  0  0  0
  141.2620   75.7760  216.4450 C   0  0  0  0  0  0  0  0  0  0  0  0
  142.5770   76.0230  215.8050 C   0  0  0  0  0  0  0  0  0  0  0  0
  143.7580   76.1800  216.6740 C   0  0  0  0  0  0  0  0  0  0  0  0
  143.4860   76.2220  218.1580 C   0  0  1  0  0  0  0  0  0  0  0  0
  142.8530   77.5010  218.5770 C   0  0  0  0  0  0  0  0  0  0  0  0
  142.0930   77.6810  219.6600 N   0  0  0  0  0  0  0  0  0  0  0  0
  141.6850   78.9660  219.7300 C   0  0  0  0  0  0  0  0  0  0  0  0
  142.2240   79.6250  218.6230 C   0  0  0  0  0  0  0  0  0  0  0  0
  142.9260   78.6840  217.9550 N   0  0  0  0  0  0  0  0  0  0  0  0
  140.4730   76.5960  222.2650 C   0  0  0  0  0  0  0  0  0  0  0  0
  139.1510   76.9020  222.4990 C   0  0  0  0  0  0  0  0  0  0  0  0
  138.8920   78.1870  222.9650 C   0  0  0  0  0  0  0  0  0  0  0  0
  139.9010   79.1060  223.1800 C   0  0  0  0  0  0  0  0  0  0  0  0
  139.6580   80.3810  223.6410 C   0  0  0  0  0  0  0  0  0  0  0  0
  138.0250   80.8980  223.9780 Cl  0  0  0  0  0  0  0  0  0  0  0  0
  140.6940   81.2470  223.8370 C   0  0  0  0  0  0  0  0  0  0  0  0
  142.0190   80.8980  223.5880 C   0  0  0  0  0  0  0  0  0  0  0  0
  142.2550   79.6090  223.1230 C   0  0  0  0  0  0  0  0  0  0  0  0
  141.2110   78.7470  222.9300 C   0  0  0  0  0  0  0  0  0  0  0  0
  141.4480   77.5070  222.4820 N   0  0  0  0  0  0  0  0  0  0  0  0
  142.6000   75.9330  220.8540 H   0  0  0  0  0  0  0  0  0  0  0  0
  143.1702   73.3209  221.1571 H   0  0  0  0  0  0  0  0  0  0  0  0
  141.5417   73.0931  220.4566 H   0  0  0  0  0  0  0  0  0  0  0  0
  140.7957   74.2221  217.7843 H   0  0  0  0  0  0  0  0  0  0  0  0
  140.6818   75.9197  218.4450 H   0  0  0  0  0  0  0  0  0  0  0  0
  140.7124   75.0717  215.8032 H   0  0  0  0  0  0  0  0  0  0  0  0
  140.8135   76.7751  216.5485 H   0  0  0  0  0  0  0  0  0  0  0  0
  142.7770   75.1750  215.1335 H   0  0  0  0  0  0  0  0  0  0  0  0
  142.4636   77.0040  215.3205 H   0  0  0  0  0  0  0  0  0  0  0  0
  144.4339   75.3343  216.4794 H   0  0  0  0  0  0  0  0  0  0  0  0
  144.1831   77.1628  216.4223 H   0  0  0  0  0  0  0  0  0  0  0  0
  144.4189   76.1538  218.7368 H   0  0  0  0  0  0  0  0  0  0  0  0
  141.0491   79.4095  220.5104 H   0  0  0  0  0  0  0  0  0  0  0  0
  142.1027   80.6844  218.3527 H   0  0  0  0  0  0  0  0  0  0  0  0
  143.4410   78.9110  217.0720 H   0  0  0  0  0  0  0  0  0  0  0  0
  138.3459   76.1723  222.3273 H   0  0  0  0  0  0  0  0  0  0  0  0
  137.8516   78.4804  223.1686 H   0  0  0  0  0  0  0  0  0  0  0  0
  140.4742   82.2597  224.2059 H   0  0  0  0  0  0  0  0  0  0  0  0
  142.8415   81.6098  223.7517 H   0  0  0  0  0  0  0  0  0  0  0  0
  143.2834   79.2820  222.9100 H   0  0  0  0  0  0  0  0  0  0  0  0
  1  2  2  0
  2  3  1  0
  3  4  1  0
  4  5  1  0
  5  6  2  0
  5  7  1  0
  7  8  1  0
  8  9  1  0
  9 10  1  0
 10 11  1  0
 11 12  1  0
 12 13  1  0
 13 14  2  0
 14 15  1  0
 15 16  2  0
 16 17  1  0
  2 18  1  0
 18 19  2  0
 19 20  1  0
 20 21  2  0
 21 22  1  0
 22 23  1  0
 22 24  2  0
 24 25  1  0
 25 26  2  0
 26 27  1  0
 27 28  2  0
 12  7  1  0
 17 13  1  0
 28 18  1  0
 27 21  1  0
  3 29  1  0
  4 30  1  0
  4 31  1  0
  8 32  1  0
  8 33  1  0
  9 34  1  0
  9 35  1  0
 10 36  1  0
 10 37  1  0
 11 38  1  0
 11 39  1  0
 12 40  1  1
 15 41  1  0
 16 42  1  0
 17 43  1  0
 19 44  1  0
 20 45  1  0
 24 46  1  0
 25 47  1  0
 26 48  1  0
M  END
>  <smiles>  (41) 
O=C(NCC(=O)N1CCCC[C@H]1c1ncc[nH]1)c1ccc2c(Cl)cccc2n1

>  <score_type>  (41) 
oracle

>  <origin>  (41) 
autodockgpu

>  <m_score__min__energy>  (41) 
-8.8900000000000006

>  <m_primary>  (41) 
energy

>  <rmsd>  (41) 
6.395228530390878

>  <m_score__min__rmsd>  (41) 
6.395228530390878

>  <meeko>  (41) 
{"free_energy": -7.03, "intermolecular_energy": -8.52, "internal_energy": -3.08, "cluster_size": 24, "cluster_id": 7, "rank_in_cluster": 5}

>  <energy>  (41) 
-6.65

>  <cluster_rmsd>  (41) 
0.68

>  <cluster>  (41) 
7

$$$$

     RDKit          3D

 48 51  0  0  0  0  0  0  0  0999 V2000
  138.5680   75.3820  221.9110 O   0  0  0  0  0  0  0  0  0  0  0  0
  139.7640   75.8130  221.9650 C   0  0  0  0  0  0  0  0  0  0  0  0
  140.8550   74.8890  221.9440 N   0  0  0  0  0  0  0  0  0  0  0  0
  140.6550   73.4520  221.8590 C   0  0  0  0  0  0  0  0  0  0  0  0
  141.8450   72.8580  221.2440 C   0  0  0  0  0  0  0  0  0  0  0  0
  142.3260   71.7450  221.5750 O   0  0  0  0  0  0  0  0  0  0  0  0
  142.5190   73.5610  220.2050 N   0  0  0  0  0  0  0  0  0  0  0  0
  142.2590   73.2660  218.7950 C   0  0  0  0  0  0  0  0  0  0  0  0
  143.4830   73.2420  217.9680 C   0  0  0  0  0  0  0  0  0  0  0  0
  144.7890   73.3920  218.6560 C   0  0  0  0  0  0  0  0  0  0  0  0
  144.8080   74.0270  219.9870 C   0  0  0  0  0  0  0  0  0  0  0  0
  143.4970   74.6050  220.4630 C   0  0  1  0  0  0  0  0  0  0  0  0
  143.1360   75.8510  219.7360 C   0  0  0  0  0  0  0  0  0  0  0  0
  143.3550   76.0950  218.4420 N   0  0  0  0  0  0  0  0  0  0  0  0
  142.9000   77.3240  218.1190 C   0  0  0  0  0  0  0  0  0  0  0  0
  142.3660   77.8790  219.2840 C   0  0  0  0  0  0  0  0  0  0  0  0
  142.5360   76.9380  220.2380 N   0  0  0  0  0  0  0  0  0  0  0  0
  140.0400   77.2550  222.0510 C   0  0  0  0  0  0  0  0  0  0  0  0
  139.1900   78.1320  221.4170 C   0  0  0  0  0  0  0  0  0  0  0  0
  139.5030   79.4820  221.5350 C   0  0  0  0  0  0  0  0  0  0  0  0
  140.6030   79.9210  222.2460 C   0  0  0  0  0  0  0  0  0  0  0  0
  140.9240   81.2550  222.3710 C   0  0  0  0  0  0  0  0  0  0  0  0
  139.9280   82.4730  221.6140 Cl  0  0  0  0  0  0  0  0  0  0  0  0
  142.0230   81.6300  223.0870 C   0  0  0  0  0  0  0  0  0  0  0  0
  142.8580   80.7100  223.7150 C   0  0  0  0  0  0  0  0  0  0  0  0
  142.5260   79.3650  223.5840 C   0  0  0  0  0  0  0  0  0  0  0  0
  141.4240   78.9970  222.8650 C   0  0  0  0  0  0  0  0  0  0  0  0
  141.1120   77.7000  222.7440 N   0  0  0  0  0  0  0  0  0  0  0  0
  141.8250   75.3140  221.9920 H   0  0  0  0  0  0  0  0  0  0  0  0
  140.5103   73.0362  222.8671 H   0  0  0  0  0  0  0  0  0  0  0  0
  139.7638   73.2283  221.2542 H   0  0  0  0  0  0  0  0  0  0  0  0
  141.7730   72.2815  218.7281 H   0  0  0  0  0  0  0  0  0  0  0  0
  141.6186   74.0715  218.4062 H   0  0  0  0  0  0  0  0  0  0  0  0
  143.5010   72.2785  217.4375 H   0  0  0  0  0  0  0  0  0  0  0  0
  143.4028   74.1351  217.3308 H   0  0  0  0  0  0  0  0  0  0  0  0
  145.2152   72.3843  218.7696 H   0  0  0  0  0  0  0  0  0  0  0  0
  145.3555   74.0845  218.0161 H   0  0  0  0  0  0  0  0  0  0  0  0
  145.1264   73.2685  220.7173 H   0  0  0  0  0  0  0  0  0  0  0  0
  145.4943   74.8820  219.8980 H   0  0  0  0  0  0  0  0  0  0  0  0
  143.5480   74.8895  221.5243 H   0  0  0  0  0  0  0  0  0  0  0  0
  142.9418   77.7981  217.1273 H   0  0  0  0  0  0  0  0  0  0  0  0
  141.9052   78.8711  219.4000 H   0  0  0  0  0  0  0  0  0  0  0  0
  142.2210   77.0960  221.2240 H   0  0  0  0  0  0  0  0  0  0  0  0
  138.3136   77.7854  220.8497 H   0  0  0  0  0  0  0  0  0  0  0  0
  138.8540   80.2238  221.0466 H   0  0  0  0  0  0  0  0  0  0  0  0
  142.2586   82.7012  223.1714 H   0  0  0  0  0  0  0  0  0  0  0  0
  143.7399   81.0315  224.2885 H   0  0  0  0  0  0  0  0  0  0  0  0
  143.1522   78.5963  224.0604 H   0  0  0  0  0  0  0  0  0  0  0  0
  1  2  2  0
  2  3  1  0
  3  4  1  0
  4  5  1  0
  5  6  2  0
  5  7  1  0
  7  8  1  0
  8  9  1  0
  9 10  1  0
 10 11  1  0
 11 12  1  0
 12 13  1  0
 13 14  2  0
 14 15  1  0
 15 16  2  0
 16 17  1  0
  2 18  1  0
 18 19  2  0
 19 20  1  0
 20 21  2  0
 21 22  1  0
 22 23  1  0
 22 24  2  0
 24 25  1  0
 25 26  2  0
 26 27  1  0
 27 28  2  0
 12  7  1  0
 17 13  1  0
 28 18  1  0
 27 21  1  0
  3 29  1  0
  4 30  1  0
  4 31  1  0
  8 32  1  0
  8 33  1  0
  9 34  1  0
  9 35  1  0
 10 36  1  0
 10 37  1  0
 11 38  1  0
 11 39  1  0
 12 40  1  1
 15 41  1  0
 16 42  1  0
 17 43  1  0
 19 44  1  0
 20 45  1  0
 24 46  1  0
 25 47  1  0
 26 48  1  0
M  END
>  <smiles>  (42) 
O=C(NCC(=O)N1CCCC[C@H]1c1ncc[nH]1)c1ccc2c(Cl)cccc2n1

>  <score_type>  (42) 
oracle

>  <origin>  (42) 
autodockgpu

>  <m_score__min__energy>  (42) 
-8.8900000000000006

>  <m_primary>  (42) 
energy

>  <rmsd>  (42) 
6.862328068505876

>  <m_score__min__rmsd>  (42) 
6.862328068505876

>  <meeko>  (42) 
{"free_energy": -6.63, "intermolecular_energy": -8.13, "internal_energy": -2.84, "cluster_size": 24, "cluster_id": 7, "rank_in_cluster": 20}

>  <energy>  (42) 
-6.64

>  <cluster_rmsd>  (42) 
0.41

>  <cluster>  (42) 
7

$$$$

     RDKit          3D

 48 51  0  0  0  0  0  0  0  0999 V2000
  141.2250   72.1870  221.3040 O   0  0  0  0  0  0  0  0  0  0  0  0
  140.4980   72.4900  222.3030 C   0  0  0  0  0  0  0  0  0  0  0  0
  139.8290   73.7520  222.3400 N   0  0  0  0  0  0  0  0  0  0  0  0
  139.9430   74.7250  221.2660 C   0  0  0  0  0  0  0  0  0  0  0  0
  139.1640   75.9090  221.6350 C   0  0  0  0  0  0  0  0  0  0  0  0
  138.0010   75.8650  222.1100 O   0  0  0  0  0  0  0  0  0  0  0  0
  139.7300   77.2030  221.4560 N   0  0  0  0  0  0  0  0  0  0  0  0
  138.8870   78.3960  221.3590 C   0  0  0  0  0  0  0  0  0  0  0  0
  139.3350   79.3450  220.3190 C   0  0  0  0  0  0  0  0  0  0  0  0
  140.4650   78.9380  219.4480 C   0  0  0  0  0  0  0  0  0  0  0  0
  141.3810   77.8900  219.9380 C   0  0  0  0  0  0  0  0  0  0  0  0
  141.1630   77.4320  221.3590 C   0  0  1  0  0  0  0  0  0  0  0  0
  141.5980   78.4500  222.3510 C   0  0  0  0  0  0  0  0  0  0  0  0
  141.1080   78.6030  223.5830 N   0  0  0  0  0  0  0  0  0  0  0  0
  141.7330   79.6240  224.2070 C   0  0  0  0  0  0  0  0  0  0  0  0
  142.6690   80.1380  223.3060 C   0  0  0  0  0  0  0  0  0  0  0  0
  142.5430   79.3860  222.1920 N   0  0  0  0  0  0  0  0  0  0  0  0
  140.3370   71.5530  223.4250 C   0  0  0  0  0  0  0  0  0  0  0  0
  139.7950   70.3110  223.1800 C   0  0  0  0  0  0  0  0  0  0  0  0
  139.6690   69.4700  224.2810 C   0  0  0  0  0  0  0  0  0  0  0  0
  140.0620   69.8550  225.5480 C   0  0  0  0  0  0  0  0  0  0  0  0
  139.9430   69.0320  226.6460 C   0  0  0  0  0  0  0  0  0  0  0  0
  139.2710   67.4300  226.4740 Cl  0  0  0  0  0  0  0  0  0  0  0  0
  140.3490   69.4660  227.8740 C   0  0  0  0  0  0  0  0  0  0  0  0
  140.8930   70.7310  228.0790 C   0  0  0  0  0  0  0  0  0  0  0  0
  141.0100   71.5560  226.9650 C   0  0  0  0  0  0  0  0  0  0  0  0
  140.6010   71.1140  225.7380 C   0  0  0  0  0  0  0  0  0  0  0  0
  140.7180   71.9140  224.6710 N   0  0  0  0  0  0  0  0  0  0  0  0
  139.2400   73.9410  223.2010 H   0  0  0  0  0  0  0  0  0  0  0  0
  140.9981   75.0026  221.1258 H   0  0  0  0  0  0  0  0  0  0  0  0
  139.5631   74.2987  220.3259 H   0  0  0  0  0  0  0  0  0  0  0  0
  137.8600   78.0797  221.1240 H   0  0  0  0  0  0  0  0  0  0  0  0
  138.9489   78.9182  222.3251 H   0  0  0  0  0  0  0  0  0  0  0  0
  138.4733   79.5454  219.6653 H   0  0  0  0  0  0  0  0  0  0  0  0
  139.7176   80.2097  220.8811 H   0  0  0  0  0  0  0  0  0  0  0  0
  140.0343   78.5784  218.5018 H   0  0  0  0  0  0  0  0  0  0  0  0
  141.0933   79.8382  219.3784 H   0  0  0  0  0  0  0  0  0  0  0  0
  141.2719   77.0140  219.2817 H   0  0  0  0  0  0  0  0  0  0  0  0
  142.3837   78.3420  219.9228 H   0  0  0  0  0  0  0  0  0  0  0  0
  141.7559   76.5332  221.5837 H   0  0  0  0  0  0  0  0  0  0  0  0
  141.5419   79.9826  225.2292 H   0  0  0  0  0  0  0  0  0  0  0  0
  143.3613   80.9770  223.4696 H   0  0  0  0  0  0  0  0  0  0  0  0
  143.1350   79.5580  221.3450 H   0  0  0  0  0  0  0  0  0  0  0  0
  139.4800   70.0019  222.1724 H   0  0  0  0  0  0  0  0  0  0  0  0
  139.2427   68.4661  224.1380 H   0  0  0  0  0  0  0  0  0  0  0  0
  140.2424   68.7903  228.7354 H   0  0  0  0  0  0  0  0  0  0  0  0
  141.2158   71.0632  229.0767 H   0  0  0  0  0  0  0  0  0  0  0  0
  141.4325   72.5660  227.0718 H   0  0  0  0  0  0  0  0  0  0  0  0
  1  2  2  0
  2  3  1  0
  3  4  1  0
  4  5  1  0
  5  6  2  0
  5  7  1  0
  7  8  1  0
  8  9  1  0
  9 10  1  0
 10 11  1  0
 11 12  1  0
 12 13  1  0
 13 14  2  0
 14 15  1  0
 15 16  2  0
 16 17  1  0
  2 18  1  0
 18 19  2  0
 19 20  1  0
 20 21  2  0
 21 22  1  0
 22 23  1  0
 22 24  2  0
 24 25  1  0
 25 26  2  0
 26 27  1  0
 27 28  2  0
 12  7  1  0
 17 13  1  0
 28 18  1  0
 27 21  1  0
  3 29  1  0
  4 30  1  0
  4 31  1  0
  8 32  1  0
  8 33  1  0
  9 34  1  0
  9 35  1  0
 10 36  1  0
 10 37  1  0
 11 38  1  0
 11 39  1  0
 12 40  1  1
 15 41  1  0
 16 42  1  0
 17 43  1  0
 19 44  1  0
 20 45  1  0
 24 46  1  0
 25 47  1  0
 26 48  1  0
M  END
>  <smiles>  (43) 
O=C(NCC(=O)N1CCCC[C@H]1c1ncc[nH]1)c1ccc2c(Cl)cccc2n1

>  <score_type>  (43) 
oracle

>  <origin>  (43) 
autodockgpu

>  <m_score__min__energy>  (43) 
-8.8900000000000006

>  <m_primary>  (43) 
energy

>  <rmsd>  (43) 
2.4416918732220596

>  <m_score__min__rmsd>  (43) 
2.4416918732220596

>  <meeko>  (43) 
{"free_energy": -8.53, "intermolecular_energy": -10.02, "internal_energy": -1.58, "cluster_size": 12, "cluster_id": 1, "rank_in_cluster": 8}

>  <energy>  (43) 
-6.63

>  <cluster_rmsd>  (43) 
1.68

>  <cluster>  (43) 
7

$$$$

     RDKit          3D

 48 51  0  0  0  0  0  0  0  0999 V2000
  139.0790   75.4080  220.2080 O   0  0  0  0  0  0  0  0  0  0  0  0
  140.0260   75.7430  220.9890 C   0  0  0  0  0  0  0  0  0  0  0  0
  140.8010   74.7350  221.6400 N   0  0  0  0  0  0  0  0  0  0  0  0
  140.5540   73.3160  221.4450 C   0  0  0  0  0  0  0  0  0  0  0  0
  141.8250   72.6700  221.1090 C   0  0  0  0  0  0  0  0  0  0  0  0
  142.2040   71.5710  221.5880 O   0  0  0  0  0  0  0  0  0  0  0  0
  142.7080   73.3000  220.1860 N   0  0  0  0  0  0  0  0  0  0  0  0
  142.8210   72.8350  218.8030 C   0  0  0  0  0  0  0  0  0  0  0  0
  144.2130   72.8090  218.3080 C   0  0  0  0  0  0  0  0  0  0  0  0
  145.2980   73.1250  219.2690 C   0  0  0  0  0  0  0  0  0  0  0  0
  144.9570   73.9020  220.4760 C   0  0  0  0  0  0  0  0  0  0  0  0
  143.5450   74.4340  220.5430 C   0  0  1  0  0  0  0  0  0  0  0  0
  143.3250   75.5630  219.6020 C   0  0  0  0  0  0  0  0  0  0  0  0
  143.5060   75.5280  218.2800 N   0  0  0  0  0  0  0  0  0  0  0  0
  143.2130   76.7310  217.7400 C   0  0  0  0  0  0  0  0  0  0  0  0
  142.8270   77.5650  218.7920 C   0  0  0  0  0  0  0  0  0  0  0  0
  142.9150   76.8020  219.9030 N   0  0  0  0  0  0  0  0  0  0  0  0
  140.3320   77.1600  221.2330 C   0  0  0  0  0  0  0  0  0  0  0  0
  139.8270   78.1070  220.3700 C   0  0  0  0  0  0  0  0  0  0  0  0
  140.1520   79.4290  220.6520 C   0  0  0  0  0  0  0  0  0  0  0  0
  140.9360   79.7770  221.7350 C   0  0  0  0  0  0  0  0  0  0  0  0
  141.2640   81.0830  222.0270 C   0  0  0  0  0  0  0  0  0  0  0  0
  140.6880   82.3810  221.0110 Cl  0  0  0  0  0  0  0  0  0  0  0  0
  142.0420   81.3680  223.1110 C   0  0  0  0  0  0  0  0  0  0  0  0
  142.5330   80.3800  223.9600 C   0  0  0  0  0  0  0  0  0  0  0  0
  142.1970   79.0650  223.6590 C   0  0  0  0  0  0  0  0  0  0  0  0
  141.4170   78.7870  222.5710 C   0  0  0  0  0  0  0  0  0  0  0  0
  141.0980   77.5180  222.2880 N   0  0  0  0  0  0  0  0  0  0  0  0
  141.5750   75.0820  222.2780 H   0  0  0  0  0  0  0  0  0  0  0  0
  140.1473   72.8788  222.3689 H   0  0  0  0  0  0  0  0  0  0  0  0
  139.8264   73.1659  220.6338 H   0  0  0  0  0  0  0  0  0  0  0  0
  142.4095   71.8167  218.7421 H   0  0  0  0  0  0  0  0  0  0  0  0
  142.2642   73.5448  218.1736 H   0  0  0  0  0  0  0  0  0  0  0  0
  144.4037   71.7976  217.9198 H   0  0  0  0  0  0  0  0  0  0  0  0
  144.2569   73.6201  217.5663 H   0  0  0  0  0  0  0  0  0  0  0  0
  145.7233   72.1684  219.6065 H   0  0  0  0  0  0  0  0  0  0  0  0
  145.9777   73.7814  218.7058 H   0  0  0  0  0  0  0  0  0  0  0  0
  145.1140   73.2527  221.3499 H   0  0  0  0  0  0  0  0  0  0  0  0
  145.6075   74.7887  220.4519 H   0  0  0  0  0  0  0  0  0  0  0  0
  143.3167   74.8366  221.5409 H   0  0  0  0  0  0  0  0  0  0  0  0
  143.2679   77.0021  216.6753 H   0  0  0  0  0  0  0  0  0  0  0  0
  142.5173   78.6186  218.7290 H   0  0  0  0  0  0  0  0  0  0  0  0
  142.6790   77.1840  220.8490 H   0  0  0  0  0  0  0  0  0  0  0  0
  139.2023   77.8331  219.5070 H   0  0  0  0  0  0  0  0  0  0  0  0
  139.7729   80.2231  219.9919 H   0  0  0  0  0  0  0  0  0  0  0  0
  142.2908   82.4185  223.3221 H   0  0  0  0  0  0  0  0  0  0  0  0
  143.1587   80.6286  224.8299 H   0  0  0  0  0  0  0  0  0  0  0  0
  142.5596   78.2461  224.2977 H   0  0  0  0  0  0  0  0  0  0  0  0
  1  2  2  0
  2  3  1  0
  3  4  1  0
  4  5  1  0
  5  6  2  0
  5  7  1  0
  7  8  1  0
  8  9  1  0
  9 10  1  0
 10 11  1  0
 11 12  1  0
 12 13  1  0
 13 14  2  0
 14 15  1  0
 15 16  2  0
 16 17  1  0
  2 18  1  0
 18 19  2  0
 19 20  1  0
 20 21  2  0
 21 22  1  0
 22 23  1  0
 22 24  2  0
 24 25  1  0
 25 26  2  0
 26 27  1  0
 27 28  2  0
 12  7  1  0
 17 13  1  0
 28 18  1  0
 27 21  1  0
  3 29  1  0
  4 30  1  0
  4 31  1  0
  8 32  1  0
  8 33  1  0
  9 34  1  0
  9 35  1  0
 10 36  1  0
 10 37  1  0
 11 38  1  0
 11 39  1  0
 12 40  1  1
 15 41  1  0
 16 42  1  0
 17 43  1  0
 19 44  1  0
 20 45  1  0
 24 46  1  0
 25 47  1  0
 26 48  1  0
M  END
>  <smiles>  (44) 
O=C(NCC(=O)N1CCCC[C@H]1c1ncc[nH]1)c1ccc2c(Cl)cccc2n1

>  <score_type>  (44) 
oracle

>  <origin>  (44) 
autodockgpu

>  <m_score__min__energy>  (44) 
-8.8900000000000006

>  <m_primary>  (44) 
energy

>  <rmsd>  (44) 
6.982605180164972

>  <m_score__min__rmsd>  (44) 
6.982605180164972

>  <meeko>  (44) 
{"free_energy": -6.49, "intermolecular_energy": -7.99, "internal_energy": -2.85, "cluster_size": 24, "cluster_id": 7, "rank_in_cluster": 23}

>  <energy>  (44) 
-6.63

>  <cluster_rmsd>  (44) 
1.68

>  <cluster>  (44) 
7

$$$$

     RDKit          3D

 48 51  0  0  0  0  0  0  0  0999 V2000
  140.2770   74.2820  221.9490 O   0  0  0  0  0  0  0  0  0  0  0  0
  140.9710   75.3250  221.7270 C   0  0  0  0  0  0  0  0  0  0  0  0
  142.1950   75.2240  220.9970 N   0  0  0  0  0  0  0  0  0  0  0  0
  142.6920   73.9580  220.4840 C   0  0  0  0  0  0  0  0  0  0  0  0
  142.6030   73.9880  219.0220 C   0  0  0  0  0  0  0  0  0  0  0  0
  142.8780   73.0100  218.2810 O   0  0  0  0  0  0  0  0  0  0  0  0
  142.1810   75.1820  218.3720 N   0  0  0  0  0  0  0  0  0  0  0  0
  140.7690   75.4330  218.0830 C   0  0  0  0  0  0  0  0  0  0  0  0
  140.5410   76.0220  216.7470 C   0  0  0  0  0  0  0  0  0  0  0  0
  141.7100   76.1690  215.8450 C   0  0  0  0  0  0  0  0  0  0  0  0
  143.0570   76.1970  216.4460 C   0  0  0  0  0  0  0  0  0  0  0  0
  143.1070   76.2230  217.9550 C   0  0  1  0  0  0  0  0  0  0  0  0
  142.6960   77.5400  218.5080 C   0  0  0  0  0  0  0  0  0  0  0  0
  141.9940   77.7360  219.6260 N   0  0  0  0  0  0  0  0  0  0  0  0
  141.8000   79.0570  219.8270 C   0  0  0  0  0  0  0  0  0  0  0  0
  142.4210   79.7230  218.7670 C   0  0  0  0  0  0  0  0  0  0  0  0
  142.9500   78.7510  217.9940 N   0  0  0  0  0  0  0  0  0  0  0  0
  140.5280   76.6400  222.2160 C   0  0  0  0  0  0  0  0  0  0  0  0
  139.1790   76.8700  222.3730 C   0  0  0  0  0  0  0  0  0  0  0  0
  138.8230   78.1310  222.8390 C   0  0  0  0  0  0  0  0  0  0  0  0
  139.7650   79.0990  223.1280 C   0  0  0  0  0  0  0  0  0  0  0  0
  139.4250   80.3520  223.5900 C   0  0  0  0  0  0  0  0  0  0  0  0
  137.7480   80.7740  223.8320 Cl  0  0  0  0  0  0  0  0  0  0  0  0
  140.3980   81.2690  223.8600 C   0  0  0  0  0  0  0  0  0  0  0  0
  141.7520   80.9970  223.6880 C   0  0  0  0  0  0  0  0  0  0  0  0
  142.0870   79.7290  223.2220 C   0  0  0  0  0  0  0  0  0  0  0  0
  141.1060   78.8160  222.9530 C   0  0  0  0  0  0  0  0  0  0  0  0
  141.4360   77.5980  222.5050 N   0  0  0  0  0  0  0  0  0  0  0  0
  142.7240   76.1310  220.8480 H   0  0  0  0  0  0  0  0  0  0  0  0
  143.7392   73.8178  220.7902 H   0  0  0  0  0  0  0  0  0  0  0  0
  142.0937   73.1258  220.8834 H   0  0  0  0  0  0  0  0  0  0  0  0
  140.2258   74.4782  218.1408 H   0  0  0  0  0  0  0  0  0  0  0  0
  140.4091   76.1606  218.8253 H   0  0  0  0  0  0  0  0  0  0  0  0
  139.8061   75.3874  216.2302 H   0  0  0  0  0  0  0  0  0  0  0  0
  140.2185   77.0536  216.9514 H   0  0  0  0  0  0  0  0  0  0  0  0
  141.6854   75.3253  215.1396 H   0  0  0  0  0  0  0  0  0  0  0  0
  141.5885   77.1691  215.4034 H   0  0  0  0  0  0  0  0  0  0  0  0
  143.5959   75.3001  216.1066 H   0  0  0  0  0  0  0  0  0  0  0  0
  143.5092   77.1444  216.1174 H   0  0  0  0  0  0  0  0  0  0  0  0
  144.1302   76.0575  218.3232 H   0  0  0  0  0  0  0  0  0  0  0  0
  141.2573   79.5200  220.6643 H   0  0  0  0  0  0  0  0  0  0  0  0
  142.4687   80.8089  218.5983 H   0  0  0  0  0  0  0  0  0  0  0  0
  143.4790   78.9750  217.1190 H   0  0  0  0  0  0  0  0  0  0  0  0
  138.4269   76.1009  222.1431 H   0  0  0  0  0  0  0  0  0  0  0  0
  137.7577   78.3649  222.9820 H   0  0  0  0  0  0  0  0  0  0  0  0
  140.1009   82.2621  224.2280 H   0  0  0  0  0  0  0  0  0  0  0  0
  142.5225   81.7500  223.9103 H   0  0  0  0  0  0  0  0  0  0  0  0
  143.1430   79.4612  223.0699 H   0  0  0  0  0  0  0  0  0  0  0  0
  1  2  2  0
  2  3  1  0
  3  4  1  0
  4  5  1  0
  5  6  2  0
  5  7  1  0
  7  8  1  0
  8  9  1  0
  9 10  1  0
 10 11  1  0
 11 12  1  0
 12 13  1  0
 13 14  2  0
 14 15  1  0
 15 16  2  0
 16 17  1  0
  2 18  1  0
 18 19  2  0
 19 20  1  0
 20 21  2  0
 21 22  1  0
 22 23  1  0
 22 24  2  0
 24 25  1  0
 25 26  2  0
 26 27  1  0
 27 28  2  0
 12  7  1  0
 17 13  1  0
 28 18  1  0
 27 21  1  0
  3 29  1  0
  4 30  1  0
  4 31  1  0
  8 32  1  0
  8 33  1  0
  9 34  1  0
  9 35  1  0
 10 36  1  0
 10 37  1  0
 11 38  1  0
 11 39  1  0
 12 40  1  6
 15 41  1  0
 16 42  1  0
 17 43  1  0
 19 44  1  0
 20 45  1  0
 24 46  1  0
 25 47  1  0
 26 48  1  0
M  END
>  <smiles>  (45) 
O=C(NCC(=O)N1CCCC[C@H]1c1ncc[nH]1)c1ccc2c(Cl)cccc2n1

>  <score_type>  (45) 
oracle

>  <origin>  (45) 
autodockgpu

>  <m_score__min__energy>  (45) 
-8.8900000000000006

>  <m_primary>  (45) 
energy

>  <rmsd>  (45) 
6.376843196385479

>  <m_score__min__rmsd>  (45) 
6.376843196385479

>  <meeko>  (45) 
{"free_energy": -6.64, "intermolecular_energy": -8.13, "internal_energy": -3.1, "cluster_size": 24, "cluster_id": 7, "rank_in_cluster": 19}

>  <energy>  (45) 
-6.59

>  <cluster_rmsd>  (45) 
1.65

>  <cluster>  (45) 
7

$$$$

     RDKit          3D

 48 51  0  0  0  0  0  0  0  0999 V2000
  139.7210   74.3330  222.0160 O   0  0  0  0  0  0  0  0  0  0  0  0
  140.6280   75.2180  221.9030 C   0  0  0  0  0  0  0  0  0  0  0  0
  141.8910   74.8730  221.3320 N   0  0  0  0  0  0  0  0  0  0  0  0
  142.1930   73.5300  220.8630 C   0  0  0  0  0  0  0  0  0  0  0  0
  142.9450   73.6400  219.6100 C   0  0  0  0  0  0  0  0  0  0  0  0
  143.8420   72.8320  219.2570 O   0  0  0  0  0  0  0  0  0  0  0  0
  142.6670   74.7140  218.7190 N   0  0  0  0  0  0  0  0  0  0  0  0
  141.4250   74.7590  217.9470 C   0  0  0  0  0  0  0  0  0  0  0  0
  141.6200   75.2040  216.5510 C   0  0  0  0  0  0  0  0  0  0  0  0
  143.0100   75.4250  216.0810 C   0  0  0  0  0  0  0  0  0  0  0  0
  144.0570   75.6730  217.0900 C   0  0  0  0  0  0  0  0  0  0  0  0
  143.5800   75.8270  218.5140 C   0  0  1  0  0  0  0  0  0  0  0  0
  142.8840   77.1220  218.7360 C   0  0  0  0  0  0  0  0  0  0  0  0
  142.5540   78.0060  217.7920 N   0  0  0  0  0  0  0  0  0  0  0  0
  141.9340   79.0680  218.3490 C   0  0  0  0  0  0  0  0  0  0  0  0
  141.8760   78.8300  219.7240 C   0  0  0  0  0  0  0  0  0  0  0  0
  142.4690   77.6300  219.9040 N   0  0  0  0  0  0  0  0  0  0  0  0
  140.3910   76.5970  222.3560 C   0  0  0  0  0  0  0  0  0  0  0  0
  139.0960   77.0170  222.5580 C   0  0  0  0  0  0  0  0  0  0  0  0
  138.9370   78.3300  222.9860 C   0  0  0  0  0  0  0  0  0  0  0  0
  140.0150   79.1690  223.1970 C   0  0  0  0  0  0  0  0  0  0  0  0
  139.8710   80.4720  223.6210 C   0  0  0  0  0  0  0  0  0  0  0  0
  138.2800   81.1300  223.9150 Cl  0  0  0  0  0  0  0  0  0  0  0  0
  140.9720   81.2540  223.8130 C   0  0  0  0  0  0  0  0  0  0  0  0
  142.2670   80.7910  223.5970 C   0  0  0  0  0  0  0  0  0  0  0  0
  142.4030   79.4740  223.1690 C   0  0  0  0  0  0  0  0  0  0  0  0
  141.2950   78.6960  222.9790 C   0  0  0  0  0  0  0  0  0  0  0  0
  141.4350   77.4300  222.5670 N   0  0  0  0  0  0  0  0  0  0  0  0
  142.6020   75.6570  221.2670 H   0  0  0  0  0  0  0  0  0  0  0  0
  142.7971   73.0004  221.6144 H   0  0  0  0  0  0  0  0  0  0  0  0
  141.2624   72.9669  220.6990 H   0  0  0  0  0  0  0  0  0  0  0  0
  140.9854   73.7508  217.9339 H   0  0  0  0  0  0  0  0  0  0  0  0
  140.7654   75.4926  218.4336 H   0  0  0  0  0  0  0  0  0  0  0  0
  141.1707   74.4412  215.8981 H   0  0  0  0  0  0  0  0  0  0  0  0
  141.1534   76.1993  216.5108 H   0  0  0  0  0  0  0  0  0  0  0  0
  143.3086   74.5306  215.5145 H   0  0  0  0  0  0  0  0  0  0  0  0
  142.9575   76.3622  215.5075 H   0  0  0  0  0  0  0  0  0  0  0  0
  144.7603   74.8277  217.0601 H   0  0  0  0  0  0  0  0  0  0  0  0
  144.5052   76.6408  216.8209 H   0  0  0  0  0  0  0  0  0  0  0  0
  144.4235   75.8232  219.2201 H   0  0  0  0  0  0  0  0  0  0  0  0
  141.5481   79.9522  217.8206 H   0  0  0  0  0  0  0  0  0  0  0  0
  141.4402   79.4812  220.4960 H   0  0  0  0  0  0  0  0  0  0  0  0
  142.5640   77.2030  220.8560 H   0  0  0  0  0  0  0  0  0  0  0  0
  138.2361   76.3518  222.3904 H   0  0  0  0  0  0  0  0  0  0  0  0
  137.9212   78.7134  223.1623 H   0  0  0  0  0  0  0  0  0  0  0  0
  140.8311   82.2910  224.1518 H   0  0  0  0  0  0  0  0  0  0  0  0
  143.1428   81.4369  223.7574 H   0  0  0  0  0  0  0  0  0  0  0  0
  143.4042   79.0579  222.9831 H   0  0  0  0  0  0  0  0  0  0  0  0
  1  2  2  0
  2  3  1  0
  3  4  1  0
  4  5  1  0
  5  6  2  0
  5  7  1  0
  7  8  1  0
  8  9  1  0
  9 10  1  0
 10 11  1  0
 11 12  1  0
 12 13  1  0
 13 14  2  0
 14 15  1  0
 15 16  2  0
 16 17  1  0
  2 18  1  0
 18 19  2  0
 19 20  1  0
 20 21  2  0
 21 22  1  0
 22 23  1  0
 22 24  2  0
 24 25  1  0
 25 26  2  0
 26 27  1  0
 27 28  2  0
 12  7  1  0
 17 13  1  0
 28 18  1  0
 27 21  1  0
  3 29  1  0
  4 30  1  0
  4 31  1  0
  8 32  1  0
  8 33  1  0
  9 34  1  0
  9 35  1  0
 10 36  1  0
 10 37  1  0
 11 38  1  0
 11 39  1  0
 12 40  1  1
 15 41  1  0
 16 42  1  0
 17 43  1  0
 19 44  1  0
 20 45  1  0
 24 46  1  0
 25 47  1  0
 26 48  1  0
M  END
>  <smiles>  (46) 
O=C(NCC(=O)N1CCCC[C@H]1c1ncc[nH]1)c1ccc2c(Cl)cccc2n1

>  <score_type>  (46) 
oracle

>  <origin>  (46) 
autodockgpu

>  <m_score__min__energy>  (46) 
-8.8900000000000006

>  <m_primary>  (46) 
energy

>  <rmsd>  (46) 
6.347655564002246

>  <m_score__min__rmsd>  (46) 
6.347655564002246

>  <meeko>  (46) 
{"free_energy": -6.7, "intermolecular_energy": -8.19, "internal_energy": -3.11, "cluster_size": 24, "cluster_id": 7, "rank_in_cluster": 12}

>  <energy>  (46) 
-6.49

>  <cluster_rmsd>  (46) 
1.92

>  <cluster>  (46) 
7

$$$$

     RDKit          3D

 48 51  0  0  0  0  0  0  0  0999 V2000
  140.1170   71.7200  221.0200 O   0  0  0  0  0  0  0  0  0  0  0  0
  139.9110   72.2180  222.1720 C   0  0  0  0  0  0  0  0  0  0  0  0
  139.6430   73.6150  222.3070 N   0  0  0  0  0  0  0  0  0  0  0  0
  139.5930   74.5110  221.1640 C   0  0  0  0  0  0  0  0  0  0  0  0
  140.7380   75.4210  221.2430 C   0  0  0  0  0  0  0  0  0  0  0  0
  141.9350   75.0560  221.1180 O   0  0  0  0  0  0  0  0  0  0  0  0
  140.5140   76.8080  221.4740 N   0  0  0  0  0  0  0  0  0  0  0  0
  139.3300   77.2770  222.1930 C   0  0  0  0  0  0  0  0  0  0  0  0
  138.7210   78.4820  221.5920 C   0  0  0  0  0  0  0  0  0  0  0  0
  139.2850   78.9810  220.3140 C   0  0  0  0  0  0  0  0  0  0  0  0
  140.6650   78.5960  219.9630 C   0  0  0  0  0  0  0  0  0  0  0  0
  141.4310   77.8420  221.0220 C   0  0  1  0  0  0  0  0  0  0  0  0
  141.8320   78.7170  222.1550 C   0  0  0  0  0  0  0  0  0  0  0  0
  141.4850   78.5520  223.4340 N   0  0  0  0  0  0  0  0  0  0  0  0
  142.0250   79.5310  224.1910 C   0  0  0  0  0  0  0  0  0  0  0  0
  142.7520   80.3550  223.3290 C   0  0  0  0  0  0  0  0  0  0  0  0
  142.6000   79.8130  222.1020 N   0  0  0  0  0  0  0  0  0  0  0  0
  139.9450   71.3690  223.3730 C   0  0  0  0  0  0  0  0  0  0  0  0
  139.5090   70.0670  223.2790 C   0  0  0  0  0  0  0  0  0  0  0  0
  139.5670   69.3150  224.4480 C   0  0  0  0  0  0  0  0  0  0  0  0
  140.0330   69.8420  225.6370 C   0  0  0  0  0  0  0  0  0  0  0  0
  140.0960   69.1080  226.8010 C   0  0  0  0  0  0  0  0  0  0  0  0
  139.5720   67.4420  226.8190 Cl  0  0  0  0  0  0  0  0  0  0  0  0
  140.5660   69.6810  227.9470 C   0  0  0  0  0  0  0  0  0  0  0  0
  140.9990   71.0030  228.0000 C   0  0  0  0  0  0  0  0  0  0  0  0
  140.9330   71.7360  226.8200 C   0  0  0  0  0  0  0  0  0  0  0  0
  140.4600   71.1560  225.6760 C   0  0  0  0  0  0  0  0  0  0  0  0
  140.4000   71.8690  224.5440 N   0  0  0  0  0  0  0  0  0  0  0  0
  139.4800   73.9640  223.2950 H   0  0  0  0  0  0  0  0  0  0  0  0
  139.6443   73.9286  220.2322 H   0  0  0  0  0  0  0  0  0  0  0  0
  138.6532   75.0826  221.1712 H   0  0  0  0  0  0  0  0  0  0  0  0
  138.5810   76.4714  222.1955 H   0  0  0  0  0  0  0  0  0  0  0  0
  139.6516   77.5468  223.2098 H   0  0  0  0  0  0  0  0  0  0  0  0
  137.6583   78.2589  221.4161 H   0  0  0  0  0  0  0  0  0  0  0  0
  138.9256   79.2847  222.3158 H   0  0  0  0  0  0  0  0  0  0  0  0
  138.6307   78.6211  219.5063 H   0  0  0  0  0  0  0  0  0  0  0  0
  139.3316   80.0722  220.4446 H   0  0  0  0  0  0  0  0  0  0  0  0
  140.6195   77.9622  219.0651 H   0  0  0  0  0  0  0  0  0  0  0  0
  141.2092   79.5411  219.8197 H   0  0  0  0  0  0  0  0  0  0  0  0
  142.3704   77.4341  220.6206 H   0  0  0  0  0  0  0  0  0  0  0  0
  141.9137   79.6557  225.2782 H   0  0  0  0  0  0  0  0  0  0  0  0
  143.3266   81.2549  223.5937 H   0  0  0  0  0  0  0  0  0  0  0  0
  143.0480   80.2380  221.2560 H   0  0  0  0  0  0  0  0  0  0  0  0
  139.1361   69.6452  222.3340 H   0  0  0  0  0  0  0  0  0  0  0  0
  139.2312   68.2678  224.4249 H   0  0  0  0  0  0  0  0  0  0  0  0
  140.6041   69.0749  228.8642 H   0  0  0  0  0  0  0  0  0  0  0  0
  141.3762   71.4476  228.9328 H   0  0  0  0  0  0  0  0  0  0  0  0
  141.2623   72.7855  226.8071 H   0  0  0  0  0  0  0  0  0  0  0  0
  1  2  2  0
  2  3  1  0
  3  4  1  0
  4  5  1  0
  5  6  2  0
  5  7  1  0
  7  8  1  0
  8  9  1  0
  9 10  1  0
 10 11  1  0
 11 12  1  0
 12 13  1  0
 13 14  2  0
 14 15  1  0
 15 16  2  0
 16 17  1  0
  2 18  1  0
 18 19  2  0
 19 20  1  0
 20 21  2  0
 21 22  1  0
 22 23  1  0
 22 24  2  0
 24 25  1  0
 25 26  2  0
 26 27  1  0
 27 28  2  0
 12  7  1  0
 17 13  1  0
 28 18  1  0
 27 21  1  0
  3 29  1  0
  4 30  1  0
  4 31  1  0
  8 32  1  0
  8 33  1  0
  9 34  1  0
  9 35  1  0
 10 36  1  0
 10 37  1  0
 11 38  1  0
 11 39  1  0
 12 40  1  6
 15 41  1  0
 16 42  1  0
 17 43  1  0
 19 44  1  0
 20 45  1  0
 24 46  1  0
 25 47  1  0
 26 48  1  0
M  END
>  <smiles>  (47) 
O=C(NCC(=O)N1CCCC[C@H]1c1ncc[nH]1)c1ccc2c(Cl)cccc2n1

>  <score_type>  (47) 
oracle

>  <origin>  (47) 
autodockgpu

>  <m_score__min__energy>  (47) 
-8.8900000000000006

>  <m_primary>  (47) 
energy

>  <rmsd>  (47) 
2.421004376283781

>  <m_score__min__rmsd>  (47) 
2.421004376283781

>  <meeko>  (47) 
{"free_energy": -8.74, "intermolecular_energy": -10.24, "internal_energy": -1.38, "cluster_size": 12, "cluster_id": 1, "rank_in_cluster": 4}

>  <energy>  (47) 
-6.43

>  <cluster_rmsd>  (47) 
1.04

>  <cluster>  (47) 
7

$$$$

     RDKit          3D

 48 51  0  0  0  0  0  0  0  0999 V2000
  140.3170   74.2430  221.9610 O   0  0  0  0  0  0  0  0  0  0  0  0
  140.9930   75.2960  221.7290 C   0  0  0  0  0  0  0  0  0  0  0  0
  142.2070   75.2120  220.9820 N   0  0  0  0  0  0  0  0  0  0  0  0
  142.7150   73.9530  220.4620 C   0  0  0  0  0  0  0  0  0  0  0  0
  142.3690   73.8700  219.0400 C   0  0  0  0  0  0  0  0  0  0  0  0
  142.1650   72.7910  218.4290 O   0  0  0  0  0  0  0  0  0  0  0  0
  142.2480   75.0670  218.2790 N   0  0  0  0  0  0  0  0  0  0  0  0
  141.0400   75.3580  217.5060 C   0  0  0  0  0  0  0  0  0  0  0  0
  141.3230   75.9330  216.1740 C   0  0  0  0  0  0  0  0  0  0  0  0
  142.7410   76.0290  215.7470 C   0  0  0  0  0  0  0  0  0  0  0  0
  143.7850   76.0250  216.7880 C   0  0  0  0  0  0  0  0  0  0  0  0
  143.2970   76.0720  218.2160 C   0  0  1  0  0  0  0  0  0  0  0  0
  142.7620   77.4100  218.5830 C   0  0  0  0  0  0  0  0  0  0  0  0
  141.9160   77.6680  219.5820 N   0  0  0  0  0  0  0  0  0  0  0  0
  141.6410   78.9890  219.6270 C   0  0  0  0  0  0  0  0  0  0  0  0
  142.3610   79.5890  218.5910 C   0  0  0  0  0  0  0  0  0  0  0  0
  143.0260   78.5800  217.9870 N   0  0  0  0  0  0  0  0  0  0  0  0
  140.5380   76.6040  222.2250 C   0  0  0  0  0  0  0  0  0  0  0  0
  139.1920   76.8050  222.4300 C   0  0  0  0  0  0  0  0  0  0  0  0
  138.8240   78.0610  222.8990 C   0  0  0  0  0  0  0  0  0  0  0  0
  139.7530   79.0530  223.1460 C   0  0  0  0  0  0  0  0  0  0  0  0
  139.4030   80.3020  223.6110 C   0  0  0  0  0  0  0  0  0  0  0  0
  137.7260   80.6880  223.9130 Cl  0  0  0  0  0  0  0  0  0  0  0  0
  140.3640   81.2430  223.8370 C   0  0  0  0  0  0  0  0  0  0  0  0
  141.7160   81.0000  223.6160 C   0  0  0  0  0  0  0  0  0  0  0  0
  142.0620   79.7370  223.1470 C   0  0  0  0  0  0  0  0  0  0  0  0
  141.0930   78.7990  222.9230 C   0  0  0  0  0  0  0  0  0  0  0  0
  141.4350   77.5850  222.4710 N   0  0  0  0  0  0  0  0  0  0  0  0
  142.7210   76.1260  220.8250 H   0  0  0  0  0  0  0  0  0  0  0  0
  143.8078   73.9148  220.5819 H   0  0  0  0  0  0  0  0  0  0  0  0
  142.2706   73.1093  221.0103 H   0  0  0  0  0  0  0  0  0  0  0  0
  140.4784   74.4220  217.3701 H   0  0  0  0  0  0  0  0  0  0  0  0
  140.4653   76.1079  218.0693 H   0  0  0  0  0  0  0  0  0  0  0  0
  140.7983   75.3138  215.4315 H   0  0  0  0  0  0  0  0  0  0  0  0
  140.9851   76.9773  216.2465 H   0  0  0  0  0  0  0  0  0  0  0  0
  142.9399   75.1751  215.0827 H   0  0  0  0  0  0  0  0  0  0  0  0
  142.8196   77.0250  215.2867 H   0  0  0  0  0  0  0  0  0  0  0  0
  144.3788   75.1072  216.6654 H   0  0  0  0  0  0  0  0  0  0  0  0
  144.3553   76.9538  216.6391 H   0  0  0  0  0  0  0  0  0  0  0  0
  144.1162   75.8801  218.9246 H   0  0  0  0  0  0  0  0  0  0  0  0
  140.9770   79.4960  220.3426 H   0  0  0  0  0  0  0  0  0  0  0  0
  142.3820   80.6559  218.3239 H   0  0  0  0  0  0  0  0  0  0  0  0
  143.6510   78.7520  217.1650 H   0  0  0  0  0  0  0  0  0  0  0  0
  138.4499   76.0171  222.2340 H   0  0  0  0  0  0  0  0  0  0  0  0
  137.7594   78.2714  223.0791 H   0  0  0  0  0  0  0  0  0  0  0  0
  140.0584   82.2323  224.2084 H   0  0  0  0  0  0  0  0  0  0  0  0
  142.4770   81.7718  223.8037 H   0  0  0  0  0  0  0  0  0  0  0  0
  143.1173   79.4925  222.9560 H   0  0  0  0  0  0  0  0  0  0  0  0
  1  2  2  0
  2  3  1  0
  3  4  1  0
  4  5  1  0
  5  6  2  0
  5  7  1  0
  7  8  1  0
  8  9  1  0
  9 10  1  0
 10 11  1  0
 11 12  1  0
 12 13  1  0
 13 14  2  0
 14 15  1  0
 15 16  2  0
 16 17  1  0
  2 18  1  0
 18 19  2  0
 19 20  1  0
 20 21  2  0
 21 22  1  0
 22 23  1  0
 22 24  2  0
 24 25  1  0
 25 26  2  0
 26 27  1  0
 27 28  2  0
 12  7  1  0
 17 13  1  0
 28 18  1  0
 27 21  1  0
  3 29  1  0
  4 30  1  0
  4 31  1  0
  8 32  1  0
  8 33  1  0
  9 34  1  0
  9 35  1  0
 10 36  1  0
 10 37  1  0
 11 38  1  0
 11 39  1  0
 12 40  1  1
 15 41  1  0
 16 42  1  0
 17 43  1  0
 19 44  1  0
 20 45  1  0
 24 46  1  0
 25 47  1  0
 26 48  1  0
M  END
>  <smiles>  (48) 
O=C(NCC(=O)N1CCCC[C@H]1c1ncc[nH]1)c1ccc2c(Cl)cccc2n1

>  <score_type>  (48) 
oracle

>  <origin>  (48) 
autodockgpu

>  <m_score__min__energy>  (48) 
-8.8900000000000006

>  <m_primary>  (48) 
energy

>  <rmsd>  (48) 
6.409748483104847

>  <m_score__min__rmsd>  (48) 
6.409748483104847

>  <meeko>  (48) 
{"free_energy": -6.66, "intermolecular_energy": -8.15, "internal_energy": -3.07, "cluster_size": 24, "cluster_id": 7, "rank_in_cluster": 16}

>  <energy>  (48) 
-6.72

>  <cluster_rmsd>  (48) 
0.0

>  <cluster>  (48) 
8

$$$$

     RDKit          3D

 48 51  0  0  0  0  0  0  0  0999 V2000
  138.4440   75.1900  222.2920 O   0  0  0  0  0  0  0  0  0  0  0  0
  139.6100   75.6560  222.0850 C   0  0  0  0  0  0  0  0  0  0  0  0
  140.6830   74.7700  221.7580 N   0  0  0  0  0  0  0  0  0  0  0  0
  140.4980   73.3330  221.6460 C   0  0  0  0  0  0  0  0  0  0  0  0
  141.7480   72.7460  221.1550 C   0  0  0  0  0  0  0  0  0  0  0  0
  142.2140   71.6500  221.5560 O   0  0  0  0  0  0  0  0  0  0  0  0
  142.5020   73.4360  220.1630 N   0  0  0  0  0  0  0  0  0  0  0  0
  142.3700   73.1080  218.7430 C   0  0  0  0  0  0  0  0  0  0  0  0
  143.6620   73.0840  218.0270 C   0  0  0  0  0  0  0  0  0  0  0  0
  144.9010   73.2660  218.8230 C   0  0  0  0  0  0  0  0  0  0  0  0
  144.7950   73.9300  220.1370 C   0  0  0  0  0  0  0  0  0  0  0  0
  143.4410   74.4990  220.4830 C   0  0  1  0  0  0  0  0  0  0  0  0
  143.1290   75.7240  219.7000 C   0  0  0  0  0  0  0  0  0  0  0  0
  142.2130   76.6420  220.0130 N   0  0  0  0  0  0  0  0  0  0  0  0
  142.1980   77.6190  219.0810 C   0  0  0  0  0  0  0  0  0  0  0  0
  143.1640   77.2860  218.1290 C   0  0  0  0  0  0  0  0  0  0  0  0
  143.7010   76.1230  218.5560 N   0  0  0  0  0  0  0  0  0  0  0  0
  139.8680   77.1010  222.1800 C   0  0  0  0  0  0  0  0  0  0  0  0
  138.9180   77.9780  221.7080 C   0  0  0  0  0  0  0  0  0  0  0  0
  139.2200   79.3300  221.8260 C   0  0  0  0  0  0  0  0  0  0  0  0
  140.4040   79.7720  222.3840 C   0  0  0  0  0  0  0  0  0  0  0  0
  140.7160   81.1080  222.5070 C   0  0  0  0  0  0  0  0  0  0  0  0
  139.5970   82.3260  221.9460 Cl  0  0  0  0  0  0  0  0  0  0  0  0
  141.9010   81.4860  223.0680 C   0  0  0  0  0  0  0  0  0  0  0  0
  142.8350   80.5670  223.5350 C   0  0  0  0  0  0  0  0  0  0  0  0
  142.5130   79.2190  223.4070 C   0  0  0  0  0  0  0  0  0  0  0  0
  141.3240   78.8480  222.8440 C   0  0  0  0  0  0  0  0  0  0  0  0
  141.0220   77.5490  222.7250 N   0  0  0  0  0  0  0  0  0  0  0  0
  141.6280   75.2240  221.5980 H   0  0  0  0  0  0  0  0  0  0  0  0
  140.2509   72.9117  222.6316 H   0  0  0  0  0  0  0  0  0  0  0  0
  139.6751   73.1094  220.9511 H   0  0  0  0  0  0  0  0  0  0  0  0
  141.9038   72.1155  218.6556 H   0  0  0  0  0  0  0  0  0  0  0  0
  141.7562   73.8959  218.2820 H   0  0  0  0  0  0  0  0  0  0  0  0
  143.7379   72.1102  217.5210 H   0  0  0  0  0  0  0  0  0  0  0  0
  143.6273   73.9628  217.3663 H   0  0  0  0  0  0  0  0  0  0  0  0
  145.3271   72.2668  218.9960 H   0  0  0  0  0  0  0  0  0  0  0  0
  145.5140   73.9519  218.2198 H   0  0  0  0  0  0  0  0  0  0  0  0
  145.0573   73.1919  220.9093 H   0  0  0  0  0  0  0  0  0  0  0  0
  145.4759   74.7926  220.0893 H   0  0  0  0  0  0  0  0  0  0  0  0
  143.3959   74.8064  221.5382 H   0  0  0  0  0  0  0  0  0  0  0  0
  141.5491   78.5072  219.0731 H   0  0  0  0  0  0  0  0  0  0  0  0
  143.4307   77.8511  217.2237 H   0  0  0  0  0  0  0  0  0  0  0  0
  144.4610   75.6420  218.0210 H   0  0  0  0  0  0  0  0  0  0  0  0
  137.9743   77.6294  221.2631 H   0  0  0  0  0  0  0  0  0  0  0  0
  138.4929   80.0715  221.4635 H   0  0  0  0  0  0  0  0  0  0  0  0
  142.1265   82.5592  223.1543 H   0  0  0  0  0  0  0  0  0  0  0  0
  143.7850   80.8910  223.9851 H   0  0  0  0  0  0  0  0  0  0  0  0
  143.2168   78.4507  223.7596 H   0  0  0  0  0  0  0  0  0  0  0  0
  1  2  2  0
  2  3  1  0
  3  4  1  0
  4  5  1  0
  5  6  2  0
  5  7  1  0
  7  8  1  0
  8  9  1  0
  9 10  1  0
 10 11  1  0
 11 12  1  0
 12 13  1  0
 13 14  2  0
 14 15  1  0
 15 16  2  0
 16 17  1  0
  2 18  1  0
 18 19  2  0
 19 20  1  0
 20 21  2  0
 21 22  1  0
 22 23  1  0
 22 24  2  0
 24 25  1  0
 25 26  2  0
 26 27  1  0
 27 28  2  0
 12  7  1  0
 17 13  1  0
 28 18  1  0
 27 21  1  0
  3 29  1  0
  4 30  1  0
  4 31  1  0
  8 32  1  0
  8 33  1  0
  9 34  1  0
  9 35  1  0
 10 36  1  0
 10 37  1  0
 11 38  1  0
 11 39  1  0
 12 40  1  1
 15 41  1  0
 16 42  1  0
 17 43  1  0
 19 44  1  0
 20 45  1  0
 24 46  1  0
 25 47  1  0
 26 48  1  0
M  END
>  <smiles>  (49) 
O=C(NCC(=O)N1CCCC[C@H]1c1ncc[nH]1)c1ccc2c(Cl)cccc2n1

>  <score_type>  (49) 
oracle

>  <origin>  (49) 
autodockgpu

>  <m_score__min__energy>  (49) 
-8.8900000000000006

>  <m_primary>  (49) 
energy

>  <rmsd>  (49) 
6.872271475532329

>  <m_score__min__rmsd>  (49) 
6.872271475532329

>  <meeko>  (49) 
{"free_energy": -6.63, "intermolecular_energy": -8.12, "internal_energy": -2.8, "cluster_size": 24, "cluster_id": 7, "rank_in_cluster": 21}

>  <energy>  (49) 
-6.41

>  <cluster_rmsd>  (49) 
0.0

>  <cluster>  (49) 
9

$$$$

     RDKit          3D

 48 51  0  0  0  0  0  0  0  0999 V2000
  138.8720   74.4960  221.3440 O   0  0  0  0  0  0  0  0  0  0  0  0
  140.0640   74.8670  221.5900 C   0  0  0  0  0  0  0  0  0  0  0  0
  140.2990   76.1010  222.2700 N   0  0  0  0  0  0  0  0  0  0  0  0
  139.2170   76.9690  222.7040 C   0  0  0  0  0  0  0  0  0  0  0  0
  139.7690   78.3030  222.9510 C   0  0  0  0  0  0  0  0  0  0  0  0
  139.4270   79.0380  223.9120 O   0  0  0  0  0  0  0  0  0  0  0  0
  140.7550   78.8270  222.0680 N   0  0  0  0  0  0  0  0  0  0  0  0
  142.0870   79.1990  222.5490 C   0  0  0  0  0  0  0  0  0  0  0  0
  142.5860   80.4620  221.9670 C   0  0  0  0  0  0  0  0  0  0  0  0
  141.6680   81.2360  221.0950 C   0  0  0  0  0  0  0  0  0  0  0  0
  140.5410   80.5240  220.4620 C   0  0  0  0  0  0  0  0  0  0  0  0
  140.5170   79.0260  220.6480 C   0  0  1  0  0  0  0  0  0  0  0  0
  141.5640   78.3440  219.8410 C   0  0  0  0  0  0  0  0  0  0  0  0
  141.9680   78.7000  218.6200 N   0  0  0  0  0  0  0  0  0  0  0  0
  142.9320   77.8590  218.1870 C   0  0  0  0  0  0  0  0  0  0  0  0
  143.1380   76.9220  219.2020 C   0  0  0  0  0  0  0  0  0  0  0  0
  142.2780   77.2660  220.1860 N   0  0  0  0  0  0  0  0  0  0  0  0
  141.2070   74.0370  221.1800 C   0  0  0  0  0  0  0  0  0  0  0  0
  140.9820   72.7290  220.8150 C   0  0  0  0  0  0  0  0  0  0  0  0
  142.1020   71.9970  220.4380 C   0  0  0  0  0  0  0  0  0  0  0  0
  143.3700   72.5470  220.4290 C   0  0  0  0  0  0  0  0  0  0  0  0
  144.4880   71.8320  220.0570 C   0  0  0  0  0  0  0  0  0  0  0  0
  144.3410   70.1610  219.5720 Cl  0  0  0  0  0  0  0  0  0  0  0  0
  145.7150   72.4270  220.0680 C   0  0  0  0  0  0  0  0  0  0  0  0
  145.9010   73.7540  220.4440 C   0  0  0  0  0  0  0  0  0  0  0  0
  144.7670   74.4690  220.8170 C   0  0  0  0  0  0  0  0  0  0  0  0
  143.5400   73.8650  220.8050 C   0  0  0  0  0  0  0  0  0  0  0  0
  142.4540   74.5600  221.1660 N   0  0  0  0  0  0  0  0  0  0  0  0
  141.3150   76.3510  222.4430 H   0  0  0  0  0  0  0  0  0  0  0  0
  138.4472   77.0242  221.9202 H   0  0  0  0  0  0  0  0  0  0  0  0
  138.7579   76.5727  223.6217 H   0  0  0  0  0  0  0  0  0  0  0  0
  142.0448   79.3109  223.6425 H   0  0  0  0  0  0  0  0  0  0  0  0
  142.7795   78.4018  222.2408 H   0  0  0  0  0  0  0  0  0  0  0  0
  142.8733   81.1167  222.8029 H   0  0  0  0  0  0  0  0  0  0  0  0
  143.4047   80.1535  221.3002 H   0  0  0  0  0  0  0  0  0  0  0  0
  141.2407   82.0440  221.7071 H   0  0  0  0  0  0  0  0  0  0  0  0
  142.2977   81.5541  220.2510 H   0  0  0  0  0  0  0  0  0  0  0  0
  139.6084   80.9302  220.8807 H   0  0  0  0  0  0  0  0  0  0  0  0
  140.6570   80.6869  219.3803 H   0  0  0  0  0  0  0  0  0  0  0  0
  139.5617   78.5969  220.3115 H   0  0  0  0  0  0  0  0  0  0  0  0
  143.4548   77.9035  217.2202 H   0  0  0  0  0  0  0  0  0  0  0  0
  143.8490   76.0826  219.2007 H   0  0  0  0  0  0  0  0  0  0  0  0
  142.2230   76.7210  221.0780 H   0  0  0  0  0  0  0  0  0  0  0  0
  139.9741   72.2884  220.8213 H   0  0  0  0  0  0  0  0  0  0  0  0
  141.9751   70.9466  220.1373 H   0  0  0  0  0  0  0  0  0  0  0  0
  146.5921   71.8349  219.7679 H   0  0  0  0  0  0  0  0  0  0  0  0
  146.8990   74.2166  220.4462 H   0  0  0  0  0  0  0  0  0  0  0  0
  144.8576   75.5220  221.1221 H   0  0  0  0  0  0  0  0  0  0  0  0
  1  2  2  0
  2  3  1  0
  3  4  1  0
  4  5  1  0
  5  6  2  0
  5  7  1  0
  7  8  1  0
  8  9  1  0
  9 10  1  0
 10 11  1  0
 11 12  1  0
 12 13  1  0
 13 14  2  0
 14 15  1  0
 15 16  2  0
 16 17  1  0
  2 18  1  0
 18 19  2  0
 19 20  1  0
 20 21  2  0
 21 22  1  0
 22 23  1  0
 22 24  2  0
 24 25  1  0
 25 26  2  0
 26 27  1  0
 27 28  2  0
 12  7  1  0
 17 13  1  0
 28 18  1  0
 27 21  1  0
  3 29  1  0
  4 30  1  0
  4 31  1  0
  8 32  1  0
  8 33  1  0
  9 34  1  0
  9 35  1  0
 10 36  1  0
 10 37  1  0
 11 38  1  0
 11 39  1  0
 12 40  1  6
 15 41  1  0
 16 42  1  0
 17 43  1  0
 19 44  1  0
 20 45  1  0
 24 46  1  0
 25 47  1  0
 26 48  1  0
M  END
>  <smiles>  (50) 
O=C(NCC(=O)N1CCCC[C@H]1c1ncc[nH]1)c1ccc2c(Cl)cccc2n1

>  <score_type>  (50) 
oracle

>  <origin>  (50) 
autodockgpu

>  <m_score__min__energy>  (50) 
-8.8900000000000006

>  <m_primary>  (50) 
energy

>  <rmsd>  (50) 
5.832066503248621

>  <m_score__min__rmsd>  (50) 
5.832066503248621

>  <meeko>  (50) 
{"free_energy": -6.41, "intermolecular_energy": -7.9, "internal_energy": -3.02, "cluster_size": 1, "cluster_id": 9, "rank_in_cluster": 1}

>  <energy>  (50) 
-6.1

>  <cluster_rmsd>  (50) 
0.0

>  <cluster>  (50) 
10

$$$$
