
     RDKit          3D

 45 47  0  0  0  0  0  0  0  0999 V2000
  142.9270   81.2830  224.2180 C   0  0  0  0  0  0  0  0  0  0  0  0
  142.7590   80.2350  223.2950 O   0  0  0  0  0  0  0  0  0  0  0  0
  141.5430   79.6850  222.9660 C   0  0  0  0  0  0  0  0  0  0  0  0
  140.4890   79.9110  223.8500 C   0  0  0  0  0  0  0  0  0  0  0  0
  139.2450   79.4030  223.6030 C   0  0  0  0  0  0  0  0  0  0  0  0
  139.0400   78.6550  222.4560 C   0  0  0  0  0  0  0  0  0  0  0  0
  140.0430   78.4020  221.5490 C   0  0  0  0  0  0  0  0  0  0  0  0
  139.8830   77.6200  220.3130 C   0  0  0  0  0  0  0  0  0  0  0  0
  138.9560   76.5370  220.3870 N   0  0  0  0  0  0  0  0  0  0  0  0
  139.0990   75.3820  221.1950 C   0  0  0  0  0  0  0  0  0  0  0  0
  140.1590   75.3120  221.9130 O   0  0  0  0  0  0  0  0  0  0  0  0
  138.1640   74.2690  221.2890 C   0  0  0  0  0  0  0  0  0  0  0  0
  138.3920   73.2950  222.2960 N   0  0  0  0  0  0  0  0  0  0  0  0
  139.5600   72.4820  222.3370 C   0  0  0  0  0  0  0  0  0  0  0  0
  140.4840   72.5690  221.4690 O   0  0  0  0  0  0  0  0  0  0  0  0
  139.7250   71.4970  223.4210 C   0  0  0  0  0  0  0  0  0  0  0  0
  139.3420   70.1830  223.2460 C   0  0  0  0  0  0  0  0  0  0  0  0
  139.5040   69.2750  224.2780 C   0  0  0  0  0  0  0  0  0  0  0  0
  140.0440   69.6560  225.4900 C   0  0  0  0  0  0  0  0  0  0  0  0
  140.2240   68.7870  226.5470 C   0  0  0  0  0  0  0  0  0  0  0  0
  140.7710   69.1960  227.7580 C   0  0  0  0  0  0  0  0  0  0  0  0
  141.0100   68.1290  229.1040 Cl  0  0  0  0  0  0  0  0  0  0  0  0
  141.1420   70.5400  227.8820 C   0  0  0  0  0  0  0  0  0  0  0  0
  140.9550   71.3950  226.8160 C   0  0  0  0  0  0  0  0  0  0  0  0
  140.4130   70.9930  225.6130 C   0  0  0  0  0  0  0  0  0  0  0  0
  140.2510   71.8680  224.6030 N   0  0  0  0  0  0  0  0  0  0  0  0
  141.2920   78.9390  221.8430 C   0  0  0  0  0  0  0  0  0  0  0  0
  142.8631   80.8842  225.2412 H   0  0  0  0  0  0  0  0  0  0  0  0
  143.9115   81.7500  224.0673 H   0  0  0  0  0  0  0  0  0  0  0  0
  142.1378   82.0343  224.0673 H   0  0  0  0  0  0  0  0  0  0  0  0
  140.6613   80.5064  224.7587 H   0  0  0  0  0  0  0  0  0  0  0  0
  138.4182   79.5856  224.3052 H   0  0  0  0  0  0  0  0  0  0  0  0
  138.0368   78.2474  222.2626 H   0  0  0  0  0  0  0  0  0  0  0  0
  139.5431   78.3036  219.5210 H   0  0  0  0  0  0  0  0  0  0  0  0
  140.8644   77.1646  220.1144 H   0  0  0  0  0  0  0  0  0  0  0  0
  138.0980   76.5870  219.7940 H   0  0  0  0  0  0  0  0  0  0  0  0
  137.1648   74.6942  221.4643 H   0  0  0  0  0  0  0  0  0  0  0  0
  138.2886   73.7225  220.3425 H   0  0  0  0  0  0  0  0  0  0  0  0
  137.6920   73.1210  223.0780 H   0  0  0  0  0  0  0  0  0  0  0  0
  138.9089   69.8579  222.2885 H   0  0  0  0  0  0  0  0  0  0  0  0
  139.1964   68.2294  224.1295 H   0  0  0  0  0  0  0  0  0  0  0  0
  139.9246   67.7353  226.4273 H   0  0  0  0  0  0  0  0  0  0  0  0
  141.5787   70.9109  228.8210 H   0  0  0  0  0  0  0  0  0  0  0  0
  141.2523   72.4478  226.9307 H   0  0  0  0  0  0  0  0  0  0  0  0
  142.1186   78.7564  221.1406 H   0  0  0  0  0  0  0  0  0  0  0  0
  1  2  1  0
  2  3  1  0
  3  4  2  0
  4  5  1  0
  5  6  2  0
  6  7  1  0
  7  8  1  0
  8  9  1  0
  9 10  1  0
 10 11  2  0
 10 12  1  0
 12 13  1  0
 13 14  1  0
 14 15  2  0
 14 16  1  0
 16 17  2  0
 17 18  1  0
 18 19  2  0
 19 20  1  0
 20 21  2  0
 21 22  1  0
 21 23  1  0
 23 24  2  0
 24 25  1  0
 25 26  2  0
  7 27  2  0
 27  3  1  0
 26 16  1  0
 25 19  1  0
  1 28  1  0
  1 29  1  0
  1 30  1  0
  4 31  1  0
  5 32  1  0
  6 33  1  0
  8 34  1  0
  8 35  1  0
  9 36  1  0
 12 37  1  0
 12 38  1  0
 13 39  1  0
 17 40  1  0
 18 41  1  0
 20 42  1  0
 23 43  1  0
 24 44  1  0
 27 45  1  0
M  END
>  <smiles>  (1) 
COc1cccc(CNC(=O)CNC(=O)c2ccc3cc(Cl)ccc3n2)c1

>  <score_type>  (1) 
oracle

>  <origin>  (1) 
autodockgpu

>  <m_score__min__energy>  (1) 
-8.1699999999999999

>  <m_primary>  (1) 
energy

>  <rmsd>  (1) 
2.6889771487895855

>  <m_score__min__rmsd>  (1) 
2.6889771487895855

>  <meeko>  (1) 
{"free_energy": -7.56, "intermolecular_energy": -9.35, "internal_energy": -0.85, "cluster_size": 27, "cluster_id": 2, "rank_in_cluster": 14}

>  <energy>  (1) 
-8.17

>  <cluster_rmsd>  (1) 
0.0

>  <cluster>  (1) 
1

$$$$

     RDKit          3D

 45 47  0  0  0  0  0  0  0  0999 V2000
  145.3700   69.9390  218.6730 C   0  0  0  0  0  0  0  0  0  0  0  0
  145.9740   71.2080  218.5930 O   0  0  0  0  0  0  0  0  0  0  0  0
  145.5510   72.3080  219.2990 C   0  0  0  0  0  0  0  0  0  0  0  0
  146.3190   72.6850  220.4000 C   0  0  0  0  0  0  0  0  0  0  0  0
  145.9740   73.7660  221.1590 C   0  0  0  0  0  0  0  0  0  0  0  0
  144.8420   74.4910  220.8230 C   0  0  0  0  0  0  0  0  0  0  0  0
  144.0490   74.1640  219.7470 C   0  0  0  0  0  0  0  0  0  0  0  0
  142.8410   74.8990  219.3400 C   0  0  0  0  0  0  0  0  0  0  0  0
  141.6580   74.5960  220.0800 N   0  0  0  0  0  0  0  0  0  0  0  0
  140.7290   75.5440  220.5750 C   0  0  0  0  0  0  0  0  0  0  0  0
  140.9870   76.7780  220.3370 O   0  0  0  0  0  0  0  0  0  0  0  0
  139.5150   75.2570  221.3260 C   0  0  0  0  0  0  0  0  0  0  0  0
  139.5670   74.2270  222.3010 N   0  0  0  0  0  0  0  0  0  0  0  0
  139.8660   72.8720  221.9820 C   0  0  0  0  0  0  0  0  0  0  0  0
  140.1040   72.4860  220.7950 O   0  0  0  0  0  0  0  0  0  0  0  0
  139.9080   71.8630  223.0550 C   0  0  0  0  0  0  0  0  0  0  0  0
  139.4200   70.5880  222.8460 C   0  0  0  0  0  0  0  0  0  0  0  0
  139.4670   69.6570  223.8690 C   0  0  0  0  0  0  0  0  0  0  0  0
  139.9950   69.9750  225.1040 C   0  0  0  0  0  0  0  0  0  0  0  0
  140.0630   69.0790  226.1530 C   0  0  0  0  0  0  0  0  0  0  0  0
  140.6000   69.4240  227.3880 C   0  0  0  0  0  0  0  0  0  0  0  0
  140.7000   68.3230  228.7240 Cl  0  0  0  0  0  0  0  0  0  0  0  0
  141.0810   70.7290  227.5460 C   0  0  0  0  0  0  0  0  0  0  0  0
  141.0050   71.6110  226.4870 C   0  0  0  0  0  0  0  0  0  0  0  0
  140.4730   71.2730  225.2610 C   0  0  0  0  0  0  0  0  0  0  0  0
  140.4220   72.1710  224.2600 N   0  0  0  0  0  0  0  0  0  0  0  0
  144.4400   73.0560  219.0040 C   0  0  0  0  0  0  0  0  0  0  0  0
  145.2380   69.6617  219.7293 H   0  0  0  0  0  0  0  0  0  0  0  0
  144.3890   69.9678  218.1761 H   0  0  0  0  0  0  0  0  0  0  0  0
  146.0110   69.1959  218.1761 H   0  0  0  0  0  0  0  0  0  0  0  0
  147.2154   72.1032  220.6607 H   0  0  0  0  0  0  0  0  0  0  0  0
  146.5861   74.0574  222.0252 H   0  0  0  0  0  0  0  0  0  0  0  0
  144.5671   75.3599  221.4390 H   0  0  0  0  0  0  0  0  0  0  0  0
  143.0447   75.9741  219.4521 H   0  0  0  0  0  0  0  0  0  0  0  0
  142.6357   74.5920  218.3038 H   0  0  0  0  0  0  0  0  0  0  0  0
  141.4530   73.5930  220.2850 H   0  0  0  0  0  0  0  0  0  0  0  0
  139.2223   76.1830  221.8426 H   0  0  0  0  0  0  0  0  0  0  0  0
  138.8039   74.8885  220.5720 H   0  0  0  0  0  0  0  0  0  0  0  0
  139.3820   74.4190  223.3320 H   0  0  0  0  0  0  0  0  0  0  0  0
  138.9952   70.3132  221.8692 H   0  0  0  0  0  0  0  0  0  0  0  0
  139.0759   68.6438  223.6944 H   0  0  0  0  0  0  0  0  0  0  0  0
  139.6795   68.0585  226.0063 H   0  0  0  0  0  0  0  0  0  0  0  0
  141.5153   71.0485  228.5048 H   0  0  0  0  0  0  0  0  0  0  0  0
  141.3873   72.6327  226.6281 H   0  0  0  0  0  0  0  0  0  0  0  0
  143.8285   72.7650  218.1372 H   0  0  0  0  0  0  0  0  0  0  0  0
  1  2  1  0
  2  3  1  0
  3  4  2  0
  4  5  1  0
  5  6  2  0
  6  7  1  0
  7  8  1  0
  8  9  1  0
  9 10  1  0
 10 11  2  0
 10 12  1  0
 12 13  1  0
 13 14  1  0
 14 15  2  0
 14 16  1  0
 16 17  2  0
 17 18  1  0
 18 19  2  0
 19 20  1  0
 20 21  2  0
 21 22  1  0
 21 23  1  0
 23 24  2  0
 24 25  1  0
 25 26  2  0
  7 27  2  0
 27  3  1  0
 26 16  1  0
 25 19  1  0
  1 28  1  0
  1 29  1  0
  1 30  1  0
  4 31  1  0
  5 32  1  0
  6 33  1  0
  8 34  1  0
  8 35  1  0
  9 36  1  0
 12 37  1  0
 12 38  1  0
 13 39  1  0
 17 40  1  0
 18 41  1  0
 20 42  1  0
 23 43  1  0
 24 44  1  0
 27 45  1  0
M  END
>  <smiles>  (2) 
COc1cccc(CNC(=O)CNC(=O)c2ccc3cc(Cl)ccc3n2)c1

>  <score_type>  (2) 
oracle

>  <origin>  (2) 
autodockgpu

>  <m_score__min__energy>  (2) 
-8.1699999999999999

>  <m_primary>  (2) 
energy

>  <rmsd>  (2) 
3.110503568667884

>  <m_score__min__rmsd>  (2) 
3.110503568667884

>  <meeko>  (2) 
{"free_energy": -7.87, "intermolecular_energy": -9.66, "internal_energy": -1.72, "cluster_size": 8, "cluster_id": 1, "rank_in_cluster": 5}

>  <energy>  (2) 
-8.08

>  <cluster_rmsd>  (2) 
0.3

>  <cluster>  (2) 
1

$$$$

     RDKit          3D

 45 47  0  0  0  0  0  0  0  0999 V2000
  140.9950   82.6860  221.0570 C   0  0  0  0  0  0  0  0  0  0  0  0
  140.7230   82.1130  222.3130 O   0  0  0  0  0  0  0  0  0  0  0  0
  140.8880   80.7800  222.6030 C   0  0  0  0  0  0  0  0  0  0  0  0
  142.1080   80.4010  223.1580 C   0  0  0  0  0  0  0  0  0  0  0  0
  142.3580   79.0970  223.4780 C   0  0  0  0  0  0  0  0  0  0  0  0
  141.3780   78.1460  223.2430 C   0  0  0  0  0  0  0  0  0  0  0  0
  140.1560   78.4650  222.6980 C   0  0  0  0  0  0  0  0  0  0  0  0
  139.0770   77.5010  222.4310 C   0  0  0  0  0  0  0  0  0  0  0  0
  139.5030   76.1900  222.0560 N   0  0  0  0  0  0  0  0  0  0  0  0
  140.5050   75.8900  221.1010 C   0  0  0  0  0  0  0  0  0  0  0  0
  141.0670   76.8890  220.5250 O   0  0  0  0  0  0  0  0  0  0  0  0
  140.9570   74.5620  220.7080 C   0  0  0  0  0  0  0  0  0  0  0  0
  140.9650   73.5450  221.6970 N   0  0  0  0  0  0  0  0  0  0  0  0
  139.7750   72.9780  222.2360 C   0  0  0  0  0  0  0  0  0  0  0  0
  138.6150   73.3490  221.8700 O   0  0  0  0  0  0  0  0  0  0  0  0
  139.8690   71.9200  223.2570 C   0  0  0  0  0  0  0  0  0  0  0  0
  139.4590   70.6310  222.9800 C   0  0  0  0  0  0  0  0  0  0  0  0
  139.5540   69.6540  223.9550 C   0  0  0  0  0  0  0  0  0  0  0  0
  140.0550   69.9390  225.2090 C   0  0  0  0  0  0  0  0  0  0  0  0
  140.1690   68.9970  226.2120 C   0  0  0  0  0  0  0  0  0  0  0  0
  140.6770   69.3090  227.4680 C   0  0  0  0  0  0  0  0  0  0  0  0
  140.8330   68.1490  228.7480 Cl  0  0  0  0  0  0  0  0  0  0  0  0
  141.0790   70.6310  227.6960 C   0  0  0  0  0  0  0  0  0  0  0  0
  140.9580   71.5590  226.6830 C   0  0  0  0  0  0  0  0  0  0  0  0
  140.4550   71.2530  225.4360 C   0  0  0  0  0  0  0  0  0  0  0  0
  140.3560   72.1970  224.4800 N   0  0  0  0  0  0  0  0  0  0  0  0
  139.9470   79.8050  222.3880 C   0  0  0  0  0  0  0  0  0  0  0  0
  141.4628   83.6716  221.1972 H   0  0  0  0  0  0  0  0  0  0  0  0
  141.6788   82.0320  220.4960 H   0  0  0  0  0  0  0  0  0  0  0  0
  140.0560   82.8023  220.4960 H   0  0  0  0  0  0  0  0  0  0  0  0
  142.8806   81.1623  223.3411 H   0  0  0  0  0  0  0  0  0  0  0  0
  143.3240   78.8057  223.9162 H   0  0  0  0  0  0  0  0  0  0  0  0
  141.5849   77.0971  223.5019 H   0  0  0  0  0  0  0  0  0  0  0  0
  138.4687   77.4118  223.3432 H   0  0  0  0  0  0  0  0  0  0  0  0
  138.5242   77.8979  221.5668 H   0  0  0  0  0  0  0  0  0  0  0  0
  139.0370   75.3760  222.5150 H   0  0  0  0  0  0  0  0  0  0  0  0
  140.3024   74.2210  219.8924 H   0  0  0  0  0  0  0  0  0  0  0  0
  142.0158   74.6977  220.4426 H   0  0  0  0  0  0  0  0  0  0  0  0
  141.8720   73.1510  222.0910 H   0  0  0  0  0  0  0  0  0  0  0  0
  139.0578   70.3815  221.9866 H   0  0  0  0  0  0  0  0  0  0  0  0
  139.2237   68.6300  223.7262 H   0  0  0  0  0  0  0  0  0  0  0  0
  139.8470   67.9647  226.0105 H   0  0  0  0  0  0  0  0  0  0  0  0
  141.4874   70.9264  228.6737 H   0  0  0  0  0  0  0  0  0  0  0  0
  141.2781   72.5930  226.8792 H   0  0  0  0  0  0  0  0  0  0  0  0
  138.9812   80.0967  221.9496 H   0  0  0  0  0  0  0  0  0  0  0  0
  1  2  1  0
  2  3  1  0
  3  4  2  0
  4  5  1  0
  5  6  2  0
  6  7  1  0
  7  8  1  0
  8  9  1  0
  9 10  1  0
 10 11  2  0
 10 12  1  0
 12 13  1  0
 13 14  1  0
 14 15  2  0
 14 16  1  0
 16 17  2  0
 17 18  1  0
 18 19  2  0
 19 20  1  0
 20 21  2  0
 21 22  1  0
 21 23  1  0
 23 24  2  0
 24 25  1  0
 25 26  2  0
  7 27  2  0
 27  3  1  0
 26 16  1  0
 25 19  1  0
  1 28  1  0
  1 29  1  0
  1 30  1  0
  4 31  1  0
  5 32  1  0
  6 33  1  0
  8 34  1  0
  8 35  1  0
  9 36  1  0
 12 37  1  0
 12 38  1  0
 13 39  1  0
 17 40  1  0
 18 41  1  0
 20 42  1  0
 23 43  1  0
 24 44  1  0
 27 45  1  0
M  END
>  <smiles>  (3) 
COc1cccc(CNC(=O)CNC(=O)c2ccc3cc(Cl)ccc3n2)c1

>  <score_type>  (3) 
oracle

>  <origin>  (3) 
autodockgpu

>  <m_score__min__energy>  (3) 
-8.1699999999999999

>  <m_primary>  (3) 
energy

>  <rmsd>  (3) 
3.2639809266102287

>  <m_score__min__rmsd>  (3) 
3.2639809266102287

>  <meeko>  (3) 
{"free_energy": -7.44, "intermolecular_energy": -9.23, "internal_energy": -1.55, "cluster_size": 27, "cluster_id": 2, "rank_in_cluster": 18}

>  <energy>  (3) 
-7.91

>  <cluster_rmsd>  (3) 
0.84

>  <cluster>  (3) 
1

$$$$

     RDKit          3D

 45 47  0  0  0  0  0  0  0  0999 V2000
  140.7200   83.3100  220.9380 C   0  0  0  0  0  0  0  0  0  0  0  0
  141.4800   82.7660  221.9910 O   0  0  0  0  0  0  0  0  0  0  0  0
  141.5950   81.4200  222.2410 C   0  0  0  0  0  0  0  0  0  0  0  0
  141.8780   81.0440  223.5530 C   0  0  0  0  0  0  0  0  0  0  0  0
  142.0100   79.7270  223.8930 C   0  0  0  0  0  0  0  0  0  0  0  0
  141.8600   78.7610  222.9120 C   0  0  0  0  0  0  0  0  0  0  0  0
  141.5800   79.0760  221.6010 C   0  0  0  0  0  0  0  0  0  0  0  0
  141.4050   78.0940  220.5200 C   0  0  0  0  0  0  0  0  0  0  0  0
  140.3180   77.1830  220.6860 N   0  0  0  0  0  0  0  0  0  0  0  0
  140.4260   75.8380  221.1180 C   0  0  0  0  0  0  0  0  0  0  0  0
  141.6080   75.4120  221.3740 O   0  0  0  0  0  0  0  0  0  0  0  0
  139.3310   74.8960  221.2980 C   0  0  0  0  0  0  0  0  0  0  0  0
  139.4780   73.8910  222.2890 N   0  0  0  0  0  0  0  0  0  0  0  0
  139.5190   72.5000  221.9830 C   0  0  0  0  0  0  0  0  0  0  0  0
  139.4230   72.0590  220.7950 O   0  0  0  0  0  0  0  0  0  0  0  0
  139.6810   71.5200  223.0700 C   0  0  0  0  0  0  0  0  0  0  0  0
  139.3060   70.2020  222.8970 C   0  0  0  0  0  0  0  0  0  0  0  0
  139.4660   69.2990  223.9330 C   0  0  0  0  0  0  0  0  0  0  0  0
  139.9960   69.6860  225.1470 C   0  0  0  0  0  0  0  0  0  0  0  0
  140.1730   68.8200  226.2080 C   0  0  0  0  0  0  0  0  0  0  0  0
  140.7090   69.2350  227.4210 C   0  0  0  0  0  0  0  0  0  0  0  0
  140.9450   68.1730  228.7720 Cl  0  0  0  0  0  0  0  0  0  0  0  0
  141.0740   70.5820  227.5440 C   0  0  0  0  0  0  0  0  0  0  0  0
  140.8890   71.4330  226.4740 C   0  0  0  0  0  0  0  0  0  0  0  0
  140.3570   71.0250  225.2690 C   0  0  0  0  0  0  0  0  0  0  0  0
  140.1970   71.8960  224.2550 N   0  0  0  0  0  0  0  0  0  0  0  0
  141.4550   80.4280  221.3040 C   0  0  0  0  0  0  0  0  0  0  0  0
  139.8914   83.9031  221.3522 H   0  0  0  0  0  0  0  0  0  0  0  0
  141.3602   83.9563  220.3196 H   0  0  0  0  0  0  0  0  0  0  0  0
  140.3147   82.4956  220.3196 H   0  0  0  0  0  0  0  0  0  0  0  0
  141.9968   81.8181  224.3254 H   0  0  0  0  0  0  0  0  0  0  0  0
  142.2322   79.4383  224.9309 H   0  0  0  0  0  0  0  0  0  0  0  0
  141.9686   77.7024  223.1905 H   0  0  0  0  0  0  0  0  0  0  0  0
  141.2434   78.6470  219.5829 H   0  0  0  0  0  0  0  0  0  0  0  0
  142.3169   77.4788  220.5208 H   0  0  0  0  0  0  0  0  0  0  0  0
  139.3560   77.5260  220.4660 H   0  0  0  0  0  0  0  0  0  0  0  0
  138.4346   75.4801  221.5537 H   0  0  0  0  0  0  0  0  0  0  0  0
  139.2828   74.3431  220.3483 H   0  0  0  0  0  0  0  0  0  0  0  0
  139.5640   74.1290  223.3230 H   0  0  0  0  0  0  0  0  0  0  0  0
  138.8811   69.8710  221.9379 H   0  0  0  0  0  0  0  0  0  0  0  0
  139.1646   68.2514  223.7860 H   0  0  0  0  0  0  0  0  0  0  0  0
  139.8799   67.7665  226.0889 H   0  0  0  0  0  0  0  0  0  0  0  0
  141.5038   70.9574  228.4844 H   0  0  0  0  0  0  0  0  0  0  0  0
  141.1799   72.4877  226.5876 H   0  0  0  0  0  0  0  0  0  0  0  0
  141.2328   80.7169  220.2661 H   0  0  0  0  0  0  0  0  0  0  0  0
  1  2  1  0
  2  3  1  0
  3  4  2  0
  4  5  1  0
  5  6  2  0
  6  7  1  0
  7  8  1  0
  8  9  1  0
  9 10  1  0
 10 11  2  0
 10 12  1  0
 12 13  1  0
 13 14  1  0
 14 15  2  0
 14 16  1  0
 16 17  2  0
 17 18  1  0
 18 19  2  0
 19 20  1  0
 20 21  2  0
 21 22  1  0
 21 23  1  0
 23 24  2  0
 24 25  1  0
 25 26  2  0
  7 27  2  0
 27  3  1  0
 26 16  1  0
 25 19  1  0
  1 28  1  0
  1 29  1  0
  1 30  1  0
  4 31  1  0
  5 32  1  0
  6 33  1  0
  8 34  1  0
  8 35  1  0
  9 36  1  0
 12 37  1  0
 12 38  1  0
 13 39  1  0
 17 40  1  0
 18 41  1  0
 20 42  1  0
 23 43  1  0
 24 44  1  0
 27 45  1  0
M  END
>  <smiles>  (4) 
COc1cccc(CNC(=O)CNC(=O)c2ccc3cc(Cl)ccc3n2)c1

>  <score_type>  (4) 
oracle

>  <origin>  (4) 
autodockgpu

>  <m_score__min__energy>  (4) 
-8.1699999999999999

>  <m_primary>  (4) 
energy

>  <rmsd>  (4) 
3.015935403544538

>  <m_score__min__rmsd>  (4) 
3.015935403544538

>  <meeko>  (4) 
{"free_energy": -7.98, "intermolecular_energy": -9.77, "internal_energy": -1.08, "cluster_size": 27, "cluster_id": 2, "rank_in_cluster": 2}

>  <energy>  (4) 
-7.91

>  <cluster_rmsd>  (4) 
1.1

>  <cluster>  (4) 
1

$$$$

     RDKit          3D

 45 47  0  0  0  0  0  0  0  0999 V2000
  137.5590   81.2630  224.9190 C   0  0  0  0  0  0  0  0  0  0  0  0
  138.7630   81.2580  224.1910 O   0  0  0  0  0  0  0  0  0  0  0  0
  139.3560   80.1240  223.6900 C   0  0  0  0  0  0  0  0  0  0  0  0
  140.7500   80.0960  223.6750 C   0  0  0  0  0  0  0  0  0  0  0  0
  141.4240   79.0090  223.1960 C   0  0  0  0  0  0  0  0  0  0  0  0
  140.7030   77.9250  222.7210 C   0  0  0  0  0  0  0  0  0  0  0  0
  139.3270   77.9000  222.7130 C   0  0  0  0  0  0  0  0  0  0  0  0
  138.5100   76.7780  222.2270 C   0  0  0  0  0  0  0  0  0  0  0  0
  139.2100   75.5510  222.0190 N   0  0  0  0  0  0  0  0  0  0  0  0
  139.9290   75.2000  220.8490 C   0  0  0  0  0  0  0  0  0  0  0  0
  139.9390   76.0630  219.9010 O   0  0  0  0  0  0  0  0  0  0  0  0
  140.6540   73.9580  220.6190 C   0  0  0  0  0  0  0  0  0  0  0  0
  140.7040   73.0130  221.6770 N   0  0  0  0  0  0  0  0  0  0  0  0
  139.5420   72.5380  222.3480 C   0  0  0  0  0  0  0  0  0  0  0  0
  138.3710   72.9320  222.0480 O   0  0  0  0  0  0  0  0  0  0  0  0
  139.6790   71.5510  223.4330 C   0  0  0  0  0  0  0  0  0  0  0  0
  139.2100   70.2620  223.2800 C   0  0  0  0  0  0  0  0  0  0  0  0
  139.3470   69.3520  224.3140 C   0  0  0  0  0  0  0  0  0  0  0  0
  139.9480   69.7060  225.5050 C   0  0  0  0  0  0  0  0  0  0  0  0
  140.1060   68.8330  226.5630 C   0  0  0  0  0  0  0  0  0  0  0  0
  140.7150   69.2140  227.7540 C   0  0  0  0  0  0  0  0  0  0  0  0
  140.9300   68.1420  229.1000 Cl  0  0  0  0  0  0  0  0  0  0  0  0
  141.1730   70.5330  227.8560 C   0  0  0  0  0  0  0  0  0  0  0  0
  141.0060   71.3920  226.7890 C   0  0  0  0  0  0  0  0  0  0  0  0
  140.4030   71.0180  225.6070 C   0  0  0  0  0  0  0  0  0  0  0  0
  140.2630   71.8950  224.5950 N   0  0  0  0  0  0  0  0  0  0  0  0
  138.6850   79.0290  223.2110 C   0  0  0  0  0  0  0  0  0  0  0  0
  137.7819   81.2621  225.9962 H   0  0  0  0  0  0  0  0  0  0  0  0
  136.9807   82.1636  224.6650 H   0  0  0  0  0  0  0  0  0  0  0  0
  136.9732   80.3673  224.6650 H   0  0  0  0  0  0  0  0  0  0  0  0
  141.3143   80.9608  224.0540 H   0  0  0  0  0  0  0  0  0  0  0  0
  142.5239   78.9941  223.1874 H   0  0  0  0  0  0  0  0  0  0  0  0
  141.2508   77.0522  222.3361 H   0  0  0  0  0  0  0  0  0  0  0  0
  137.7151   76.5935  222.9646 H   0  0  0  0  0  0  0  0  0  0  0  0
  138.1365   77.0832  221.2384 H   0  0  0  0  0  0  0  0  0  0  0  0
  139.1930   74.8420  222.7850 H   0  0  0  0  0  0  0  0  0  0  0  0
  140.1861   73.4602  219.7569 H   0  0  0  0  0  0  0  0  0  0  0  0
  141.6993   74.2705  220.4783 H   0  0  0  0  0  0  0  0  0  0  0  0
  141.6250   72.6090  222.0260 H   0  0  0  0  0  0  0  0  0  0  0  0
  138.7285   69.9586  222.3387 H   0  0  0  0  0  0  0  0  0  0  0  0
  138.9696   68.3270  224.1840 H   0  0  0  0  0  0  0  0  0  0  0  0
  139.7379   67.8015  226.4605 H   0  0  0  0  0  0  0  0  0  0  0  0
  141.6614   70.8814  228.7780 H   0  0  0  0  0  0  0  0  0  0  0  0
  141.3716   72.4249  226.8863 H   0  0  0  0  0  0  0  0  0  0  0  0
  137.5851   79.0438  223.2209 H   0  0  0  0  0  0  0  0  0  0  0  0
  1  2  1  0
  2  3  1  0
  3  4  2  0
  4  5  1  0
  5  6  2  0
  6  7  1  0
  7  8  1  0
  8  9  1  0
  9 10  1  0
 10 11  2  0
 10 12  1  0
 12 13  1  0
 13 14  1  0
 14 15  2  0
 14 16  1  0
 16 17  2  0
 17 18  1  0
 18 19  2  0
 19 20  1  0
 20 21  2  0
 21 22  1  0
 21 23  1  0
 23 24  2  0
 24 25  1  0
 25 26  2  0
  7 27  2  0
 27  3  1  0
 26 16  1  0
 25 19  1  0
  1 28  1  0
  1 29  1  0
  1 30  1  0
  4 31  1  0
  5 32  1  0
  6 33  1  0
  8 34  1  0
  8 35  1  0
  9 36  1  0
 12 37  1  0
 12 38  1  0
 13 39  1  0
 17 40  1  0
 18 41  1  0
 20 42  1  0
 23 43  1  0
 24 44  1  0
 27 45  1  0
M  END
>  <smiles>  (5) 
COc1cccc(CNC(=O)CNC(=O)c2ccc3cc(Cl)ccc3n2)c1

>  <score_type>  (5) 
oracle

>  <origin>  (5) 
autodockgpu

>  <m_score__min__energy>  (5) 
-8.1699999999999999

>  <m_primary>  (5) 
energy

>  <rmsd>  (5) 
2.9810158871592067

>  <m_score__min__rmsd>  (5) 
2.9810158871592067

>  <meeko>  (5) 
{"free_energy": -7.4, "intermolecular_energy": -9.19, "internal_energy": -1.51, "cluster_size": 27, "cluster_id": 2, "rank_in_cluster": 21}

>  <energy>  (5) 
-7.87

>  <cluster_rmsd>  (5) 
1.04

>  <cluster>  (5) 
1

$$$$

     RDKit          3D

 45 47  0  0  0  0  0  0  0  0999 V2000
  140.2440   83.9660  220.8890 C   0  0  0  0  0  0  0  0  0  0  0  0
  141.1300   83.1210  221.5830 O   0  0  0  0  0  0  0  0  0  0  0  0
  141.3220   81.7940  221.2820 C   0  0  0  0  0  0  0  0  0  0  0  0
  141.5770   81.4790  219.9490 C   0  0  0  0  0  0  0  0  0  0  0  0
  141.7810   80.1860  219.5600 C   0  0  0  0  0  0  0  0  0  0  0  0
  141.7300   79.1810  220.5120 C   0  0  0  0  0  0  0  0  0  0  0  0
  141.4820   79.4350  221.8410 C   0  0  0  0  0  0  0  0  0  0  0  0
  141.4210   78.4110  222.8950 C   0  0  0  0  0  0  0  0  0  0  0  0
  141.0610   77.0990  222.4590 N   0  0  0  0  0  0  0  0  0  0  0  0
  139.8240   76.7360  221.8730 C   0  0  0  0  0  0  0  0  0  0  0  0
  138.9580   77.6720  221.7330 O   0  0  0  0  0  0  0  0  0  0  0  0
  139.4390   75.4070  221.4170 C   0  0  0  0  0  0  0  0  0  0  0  0
  139.5330   74.3360  222.3430 N   0  0  0  0  0  0  0  0  0  0  0  0
  139.7800   72.9900  221.9490 C   0  0  0  0  0  0  0  0  0  0  0  0
  139.9300   72.6510  220.7330 O   0  0  0  0  0  0  0  0  0  0  0  0
  139.8690   71.9360  222.9740 C   0  0  0  0  0  0  0  0  0  0  0  0
  139.4720   70.6430  222.6960 C   0  0  0  0  0  0  0  0  0  0  0  0
  139.5630   69.6690  223.6750 C   0  0  0  0  0  0  0  0  0  0  0  0
  140.0470   69.9610  224.9340 C   0  0  0  0  0  0  0  0  0  0  0  0
  140.1560   69.0230  225.9410 C   0  0  0  0  0  0  0  0  0  0  0  0
  140.6470   69.3420  227.2020 C   0  0  0  0  0  0  0  0  0  0  0  0
  140.7960   68.1880  228.4870 Cl  0  0  0  0  0  0  0  0  0  0  0  0
  141.0360   70.6680  227.4310 C   0  0  0  0  0  0  0  0  0  0  0  0
  140.9200   71.5930  226.4130 C   0  0  0  0  0  0  0  0  0  0  0  0
  140.4340   71.2790  225.1620 C   0  0  0  0  0  0  0  0  0  0  0  0
  140.3400   72.2190  224.2020 N   0  0  0  0  0  0  0  0  0  0  0  0
  141.2810   80.7660  222.1890 C   0  0  0  0  0  0  0  0  0  0  0  0
  139.6431   84.5391  221.6104 H   0  0  0  0  0  0  0  0  0  0  0  0
  140.8181   84.6596  220.2571 H   0  0  0  0  0  0  0  0  0  0  0  0
  139.5783   83.3597  220.2571 H   0  0  0  0  0  0  0  0  0  0  0  0
  141.6145   82.2831  219.1994 H   0  0  0  0  0  0  0  0  0  0  0  0
  141.9830   79.9459  218.5057 H   0  0  0  0  0  0  0  0  0  0  0  0
  141.8939   78.1410  220.1933 H   0  0  0  0  0  0  0  0  0  0  0  0
  142.4129   78.3509  223.3667 H   0  0  0  0  0  0  0  0  0  0  0  0
  140.6222   78.7308  223.5803 H   0  0  0  0  0  0  0  0  0  0  0  0
  141.7600   76.3340  222.5840 H   0  0  0  0  0  0  0  0  0  0  0  0
  138.3912   75.4643  221.0871 H   0  0  0  0  0  0  0  0  0  0  0  0
  140.1709   75.1605  220.6337 H   0  0  0  0  0  0  0  0  0  0  0  0
  139.4210   74.4870  223.3910 H   0  0  0  0  0  0  0  0  0  0  0  0
  139.0843   70.3877  221.6987 H   0  0  0  0  0  0  0  0  0  0  0  0
  139.2433   68.6419  223.4451 H   0  0  0  0  0  0  0  0  0  0  0  0
  139.8437   67.9878  225.7388 H   0  0  0  0  0  0  0  0  0  0  0  0
  141.4302   70.9693  228.4127 H   0  0  0  0  0  0  0  0  0  0  0  0
  141.2301   72.6299  226.6095 H   0  0  0  0  0  0  0  0  0  0  0  0
  141.0792   81.0063  223.2433 H   0  0  0  0  0  0  0  0  0  0  0  0
  1  2  1  0
  2  3  1  0
  3  4  2  0
  4  5  1  0
  5  6  2  0
  6  7  1  0
  7  8  1  0
  8  9  1  0
  9 10  1  0
 10 11  2  0
 10 12  1  0
 12 13  1  0
 13 14  1  0
 14 15  2  0
 14 16  1  0
 16 17  2  0
 17 18  1  0
 18 19  2  0
 19 20  1  0
 20 21  2  0
 21 22  1  0
 21 23  1  0
 23 24  2  0
 24 25  1  0
 25 26  2  0
  7 27  2  0
 27  3  1  0
 26 16  1  0
 25 19  1  0
  1 28  1  0
  1 29  1  0
  1 30  1  0
  4 31  1  0
  5 32  1  0
  6 33  1  0
  8 34  1  0
  8 35  1  0
  9 36  1  0
 12 37  1  0
 12 38  1  0
 13 39  1  0
 17 40  1  0
 18 41  1  0
 20 42  1  0
 23 43  1  0
 24 44  1  0
 27 45  1  0
M  END
>  <smiles>  (6) 
COc1cccc(CNC(=O)CNC(=O)c2ccc3cc(Cl)ccc3n2)c1

>  <score_type>  (6) 
oracle

>  <origin>  (6) 
autodockgpu

>  <m_score__min__energy>  (6) 
-8.1699999999999999

>  <m_primary>  (6) 
energy

>  <rmsd>  (6) 
3.224770518726071

>  <m_score__min__rmsd>  (6) 
3.224770518726071

>  <meeko>  (6) 
{"free_energy": -7.88, "intermolecular_energy": -9.67, "internal_energy": -1.03, "cluster_size": 27, "cluster_id": 2, "rank_in_cluster": 4}

>  <energy>  (6) 
-7.55

>  <cluster_rmsd>  (6) 
1.17

>  <cluster>  (6) 
1

$$$$

     RDKit          3D

 45 47  0  0  0  0  0  0  0  0999 V2000
  140.7140   82.5680  220.6410 C   0  0  0  0  0  0  0  0  0  0  0  0
  141.6340   81.5070  220.7230 O   0  0  0  0  0  0  0  0  0  0  0  0
  141.5360   80.4710  221.6210 C   0  0  0  0  0  0  0  0  0  0  0  0
  142.4640   80.4480  222.6610 C   0  0  0  0  0  0  0  0  0  0  0  0
  142.4410   79.4550  223.6000 C   0  0  0  0  0  0  0  0  0  0  0  0
  141.4790   78.4630  223.5060 C   0  0  0  0  0  0  0  0  0  0  0  0
  140.5390   78.4370  222.5020 C   0  0  0  0  0  0  0  0  0  0  0  0
  139.4930   77.4140  222.3550 C   0  0  0  0  0  0  0  0  0  0  0  0
  139.9560   76.1020  222.0340 N   0  0  0  0  0  0  0  0  0  0  0  0
  140.7930   75.7680  220.9410 C   0  0  0  0  0  0  0  0  0  0  0  0
  141.1550   76.7330  220.1780 O   0  0  0  0  0  0  0  0  0  0  0  0
  141.2810   74.4390  220.5980 C   0  0  0  0  0  0  0  0  0  0  0  0
  141.2210   73.4330  221.5970 N   0  0  0  0  0  0  0  0  0  0  0  0
  139.9980   72.9840  222.1730 C   0  0  0  0  0  0  0  0  0  0  0  0
  138.8690   73.4590  221.8340 O   0  0  0  0  0  0  0  0  0  0  0  0
  140.0210   71.9290  223.2010 C   0  0  0  0  0  0  0  0  0  0  0  0
  139.5370   70.6650  222.9290 C   0  0  0  0  0  0  0  0  0  0  0  0
  139.5660   69.6900  223.9110 C   0  0  0  0  0  0  0  0  0  0  0  0
  140.0720   69.9540  225.1680 C   0  0  0  0  0  0  0  0  0  0  0  0
  140.1210   69.0140  226.1780 C   0  0  0  0  0  0  0  0  0  0  0  0
  140.6360   69.3040  227.4360 C   0  0  0  0  0  0  0  0  0  0  0  0
  140.7120   68.1460  228.7250 Cl  0  0  0  0  0  0  0  0  0  0  0  0
  141.1140   70.6010  227.6600 C   0  0  0  0  0  0  0  0  0  0  0  0
  141.0560   71.5280  226.6390 C   0  0  0  0  0  0  0  0  0  0  0  0
  140.5470   71.2440  225.3900 C   0  0  0  0  0  0  0  0  0  0  0  0
  140.5130   72.1850  224.4270 N   0  0  0  0  0  0  0  0  0  0  0  0
  140.6020   79.4680  221.5700 C   0  0  0  0  0  0  0  0  0  0  0  0
  140.4346   82.8902  221.6550 H   0  0  0  0  0  0  0  0  0  0  0  0
  141.1726   83.4101  220.1020 H   0  0  0  0  0  0  0  0  0  0  0  0
  139.8154   82.2333  220.1020 H   0  0  0  0  0  0  0  0  0  0  0  0
  143.2250   81.2396  222.7268 H   0  0  0  0  0  0  0  0  0  0  0  0
  143.1758   79.4439  224.4185 H   0  0  0  0  0  0  0  0  0  0  0  0
  141.4662   77.6653  224.2633 H   0  0  0  0  0  0  0  0  0  0  0  0
  138.9407   77.3554  223.3045 H   0  0  0  0  0  0  0  0  0  0  0  0
  138.8765   77.7334  221.5018 H   0  0  0  0  0  0  0  0  0  0  0  0
  139.6530   75.3130  222.6460 H   0  0  0  0  0  0  0  0  0  0  0  0
  140.6912   74.0845  219.7398 H   0  0  0  0  0  0  0  0  0  0  0  0
  142.3559   74.5789  220.4106 H   0  0  0  0  0  0  0  0  0  0  0  0
  142.0980   72.9580  221.9710 H   0  0  0  0  0  0  0  0  0  0  0  0
  139.1292   70.4332  221.9340 H   0  0  0  0  0  0  0  0  0  0  0  0
  139.1784   68.6855  223.6855 H   0  0  0  0  0  0  0  0  0  0  0  0
  139.7396   68.0013  225.9804 H   0  0  0  0  0  0  0  0  0  0  0  0
  141.5313   70.8781  228.6393 H   0  0  0  0  0  0  0  0  0  0  0  0
  141.4344   72.5428  226.8315 H   0  0  0  0  0  0  0  0  0  0  0  0
  139.8666   79.4793  220.7521 H   0  0  0  0  0  0  0  0  0  0  0  0
  1  2  1  0
  2  3  1  0
  3  4  2  0
  4  5  1  0
  5  6  2  0
  6  7  1  0
  7  8  1  0
  8  9  1  0
  9 10  1  0
 10 11  2  0
 10 12  1  0
 12 13  1  0
 13 14  1  0
 14 15  2  0
 14 16  1  0
 16 17  2  0
 17 18  1  0
 18 19  2  0
 19 20  1  0
 20 21  2  0
 21 22  1  0
 21 23  1  0
 23 24  2  0
 24 25  1  0
 25 26  2  0
  7 27  2  0
 27  3  1  0
 26 16  1  0
 25 19  1  0
  1 28  1  0
  1 29  1  0
  1 30  1  0
  4 31  1  0
  5 32  1  0
  6 33  1  0
  8 34  1  0
  8 35  1  0
  9 36  1  0
 12 37  1  0
 12 38  1  0
 13 39  1  0
 17 40  1  0
 18 41  1  0
 20 42  1  0
 23 43  1  0
 24 44  1  0
 27 45  1  0
M  END
>  <smiles>  (7) 
COc1cccc(CNC(=O)CNC(=O)c2ccc3cc(Cl)ccc3n2)c1

>  <score_type>  (7) 
oracle

>  <origin>  (7) 
autodockgpu

>  <m_score__min__energy>  (7) 
-8.1699999999999999

>  <m_primary>  (7) 
energy

>  <rmsd>  (7) 
3.3283536363739183

>  <m_score__min__rmsd>  (7) 
3.3283536363739183

>  <meeko>  (7) 
{"free_energy": -7.42, "intermolecular_energy": -9.21, "internal_energy": -1.6, "cluster_size": 27, "cluster_id": 2, "rank_in_cluster": 19}

>  <energy>  (7) 
-7.47

>  <cluster_rmsd>  (7) 
1.31

>  <cluster>  (7) 
1

$$$$

     RDKit          3D

 45 47  0  0  0  0  0  0  0  0999 V2000
  141.4360   67.7810  229.0960 C   0  0  0  0  0  0  0  0  0  0  0  0
  140.6330   68.9280  228.9560 O   0  0  0  0  0  0  0  0  0  0  0  0
  140.6310   69.7350  227.8440 C   0  0  0  0  0  0  0  0  0  0  0  0
  141.0180   71.0620  228.0270 C   0  0  0  0  0  0  0  0  0  0  0  0
  141.0460   71.9350  226.9770 C   0  0  0  0  0  0  0  0  0  0  0  0
  140.6810   71.4860  225.7180 C   0  0  0  0  0  0  0  0  0  0  0  0
  140.2910   70.1880  225.4810 C   0  0  0  0  0  0  0  0  0  0  0  0
  139.8990   69.6550  224.1680 C   0  0  0  0  0  0  0  0  0  0  0  0
  139.3790   70.6130  223.2450 N   0  0  0  0  0  0  0  0  0  0  0  0
  138.1140   71.2440  223.3360 C   0  0  0  0  0  0  0  0  0  0  0  0
  137.3780   70.9130  224.3330 O   0  0  0  0  0  0  0  0  0  0  0  0
  137.5670   72.2260  222.4100 C   0  0  0  0  0  0  0  0  0  0  0  0
  138.2160   73.4850  222.3200 N   0  0  0  0  0  0  0  0  0  0  0  0
  139.5010   73.6550  221.7310 C   0  0  0  0  0  0  0  0  0  0  0  0
  140.1640   72.6850  221.2460 O   0  0  0  0  0  0  0  0  0  0  0  0
  140.1040   74.9980  221.6710 C   0  0  0  0  0  0  0  0  0  0  0  0
  141.2110   75.2420  220.8840 C   0  0  0  0  0  0  0  0  0  0  0  0
  141.7620   76.5110  220.8440 C   0  0  0  0  0  0  0  0  0  0  0  0
  141.2250   77.5480  221.5790 C   0  0  0  0  0  0  0  0  0  0  0  0
  141.7400   78.8290  221.5700 C   0  0  0  0  0  0  0  0  0  0  0  0
  141.1810   79.8580  222.3200 C   0  0  0  0  0  0  0  0  0  0  0  0
  141.8030   81.4770  222.3310 Cl  0  0  0  0  0  0  0  0  0  0  0  0
  140.0580   79.5570  223.1010 C   0  0  0  0  0  0  0  0  0  0  0  0
  139.5560   78.2710  223.0970 C   0  0  0  0  0  0  0  0  0  0  0  0
  140.1090   77.2490  222.3550 C   0  0  0  0  0  0  0  0  0  0  0  0
  139.5810   76.0100  222.3870 N   0  0  0  0  0  0  0  0  0  0  0  0
  140.2790   69.3360  226.5800 C   0  0  0  0  0  0  0  0  0  0  0  0
  141.5861   67.5666  230.1644 H   0  0  0  0  0  0  0  0  0  0  0  0
  140.9391   66.9248  228.6165 H   0  0  0  0  0  0  0  0  0  0  0  0
  142.4106   67.9550  228.6165 H   0  0  0  0  0  0  0  0  0  0  0  0
  141.3045   71.4104  229.0303 H   0  0  0  0  0  0  0  0  0  0  0  0
  141.3540   72.9800  227.1287 H   0  0  0  0  0  0  0  0  0  0  0  0
  140.7039   72.1939  224.8764 H   0  0  0  0  0  0  0  0  0  0  0  0
  140.7864   69.1920  223.7117 H   0  0  0  0  0  0  0  0  0  0  0  0
  139.0794   68.9474  224.3621 H   0  0  0  0  0  0  0  0  0  0  0  0
  139.9720   70.8740  222.4260 H   0  0  0  0  0  0  0  0  0  0  0  0
  137.5842   71.7757  221.4065 H   0  0  0  0  0  0  0  0  0  0  0  0
  136.5687   72.4573  222.8098 H   0  0  0  0  0  0  0  0  0  0  0  0
  137.7690   74.3760  222.6940 H   0  0  0  0  0  0  0  0  0  0  0  0
  141.6546   74.4296  220.2897 H   0  0  0  0  0  0  0  0  0  0  0  0
  142.6447   76.6964  220.2143 H   0  0  0  0  0  0  0  0  0  0  0  0
  142.6222   79.0428  220.9487 H   0  0  0  0  0  0  0  0  0  0  0  0
  139.5807   80.3376  223.7116 H   0  0  0  0  0  0  0  0  0  0  0  0
  138.6730   78.0513  223.7151 H   0  0  0  0  0  0  0  0  0  0  0  0
  139.9721   68.2907  226.4280 H   0  0  0  0  0  0  0  0  0  0  0  0
  1  2  1  0
  2  3  1  0
  3  4  2  0
  4  5  1  0
  5  6  2  0
  6  7  1  0
  7  8  1  0
  8  9  1  0
  9 10  1  0
 10 11  2  0
 10 12  1  0
 12 13  1  0
 13 14  1  0
 14 15  2  0
 14 16  1  0
 16 17  2  0
 17 18  1  0
 18 19  2  0
 19 20  1  0
 20 21  2  0
 21 22  1  0
 21 23  1  0
 23 24  2  0
 24 25  1  0
 25 26  2  0
  7 27  2  0
 27  3  1  0
 26 16  1  0
 25 19  1  0
  1 28  1  0
  1 29  1  0
  1 30  1  0
  4 31  1  0
  5 32  1  0
  6 33  1  0
  8 34  1  0
  8 35  1  0
  9 36  1  0
 12 37  1  0
 12 38  1  0
 13 39  1  0
 17 40  1  0
 18 41  1  0
 20 42  1  0
 23 43  1  0
 24 44  1  0
 27 45  1  0
M  END
>  <smiles>  (8) 
COc1cccc(CNC(=O)CNC(=O)c2ccc3cc(Cl)ccc3n2)c1

>  <score_type>  (8) 
oracle

>  <origin>  (8) 
autodockgpu

>  <m_score__min__energy>  (8) 
-8.1699999999999999

>  <m_primary>  (8) 
energy

>  <rmsd>  (8) 
7.874924280217323

>  <m_score__min__rmsd>  (8) 
7.874924280217323

>  <meeko>  (8) 
{"free_energy": -7.18, "intermolecular_energy": -8.97, "internal_energy": -1.97, "cluster_size": 14, "cluster_id": 3, "rank_in_cluster": 5}

>  <energy>  (8) 
-6.89

>  <cluster_rmsd>  (8) 
1.33

>  <cluster>  (8) 
1

$$$$

     RDKit          3D

 45 47  0  0  0  0  0  0  0  0999 V2000
  140.7330   82.9130  220.9370 C   0  0  0  0  0  0  0  0  0  0  0  0
  141.3490   82.4590  222.1180 O   0  0  0  0  0  0  0  0  0  0  0  0
  141.3170   81.1550  222.5510 C   0  0  0  0  0  0  0  0  0  0  0  0
  142.5260   80.5960  222.9600 C   0  0  0  0  0  0  0  0  0  0  0  0
  142.5870   79.3060  223.4060 C   0  0  0  0  0  0  0  0  0  0  0  0
  141.4250   78.5520  223.4470 C   0  0  0  0  0  0  0  0  0  0  0  0
  140.2050   79.0540  223.0550 C   0  0  0  0  0  0  0  0  0  0  0  0
  138.9400   78.3030  223.0800 C   0  0  0  0  0  0  0  0  0  0  0  0
  139.0280   76.9370  222.6770 N   0  0  0  0  0  0  0  0  0  0  0  0
  139.3050   76.4800  221.3640 C   0  0  0  0  0  0  0  0  0  0  0  0
  139.4850   77.3810  220.4690 O   0  0  0  0  0  0  0  0  0  0  0  0
  139.4040   75.0920  220.9330 C   0  0  0  0  0  0  0  0  0  0  0  0
  139.3890   74.0850  221.9330 N   0  0  0  0  0  0  0  0  0  0  0  0
  140.2720   72.9680  221.9200 C   0  0  0  0  0  0  0  0  0  0  0  0
  141.1370   72.7900  221.0060 O   0  0  0  0  0  0  0  0  0  0  0  0
  140.1980   71.9680  223.0000 C   0  0  0  0  0  0  0  0  0  0  0  0
  139.6400   70.7250  222.7770 C   0  0  0  0  0  0  0  0  0  0  0  0
  139.5790   69.8030  223.8060 C   0  0  0  0  0  0  0  0  0  0  0  0
  140.0660   70.0980  225.0630 C   0  0  0  0  0  0  0  0  0  0  0  0
  140.0270   69.2100  226.1200 C   0  0  0  0  0  0  0  0  0  0  0  0
  140.5250   69.5320  227.3770 C   0  0  0  0  0  0  0  0  0  0  0  0
  140.4900   68.4400  228.7240 Cl  0  0  0  0  0  0  0  0  0  0  0  0
  141.0800   70.8060  227.5500 C   0  0  0  0  0  0  0  0  0  0  0  0
  141.1120   71.6810  226.4830 C   0  0  0  0  0  0  0  0  0  0  0  0
  140.6180   71.3650  225.2350 C   0  0  0  0  0  0  0  0  0  0  0  0
  140.6720   72.2550  224.2260 N   0  0  0  0  0  0  0  0  0  0  0  0
  140.1930   80.3710  222.6090 C   0  0  0  0  0  0  0  0  0  0  0  0
  139.8719   83.5477  221.1932 H   0  0  0  0  0  0  0  0  0  0  0  0
  141.4557   83.4961  220.3473 H   0  0  0  0  0  0  0  0  0  0  0  0
  140.3899   82.0501  220.3473 H   0  0  0  0  0  0  0  0  0  0  0  0
  143.4437   81.2014  222.9233 H   0  0  0  0  0  0  0  0  0  0  0  0
  143.5451   78.8720  223.7280 H   0  0  0  0  0  0  0  0  0  0  0  0
  141.4798   77.5137  223.8062 H   0  0  0  0  0  0  0  0  0  0  0  0
  138.5512   78.3284  224.1087 H   0  0  0  0  0  0  0  0  0  0  0  0
  138.2838   78.7927  222.3455 H   0  0  0  0  0  0  0  0  0  0  0  0
  138.8690   76.2020  223.4020 H   0  0  0  0  0  0  0  0  0  0  0  0
  138.5573   74.8969  220.2585 H   0  0  0  0  0  0  0  0  0  0  0  0
  140.4022   75.0144  220.4773 H   0  0  0  0  0  0  0  0  0  0  0  0
  138.7090   74.1150  222.7510 H   0  0  0  0  0  0  0  0  0  0  0  0
  139.2448   70.4685  221.7830 H   0  0  0  0  0  0  0  0  0  0  0  0
  139.1334   68.8149  223.6187 H   0  0  0  0  0  0  0  0  0  0  0  0
  139.5870   68.2143  225.9617 H   0  0  0  0  0  0  0  0  0  0  0  0
  141.4866   71.1065  228.5269 H   0  0  0  0  0  0  0  0  0  0  0  0
  141.5524   72.6774  226.6354 H   0  0  0  0  0  0  0  0  0  0  0  0
  139.2351   80.8054  222.2869 H   0  0  0  0  0  0  0  0  0  0  0  0
  1  2  1  0
  2  3  1  0
  3  4  2  0
  4  5  1  0
  5  6  2  0
  6  7  1  0
  7  8  1  0
  8  9  1  0
  9 10  1  0
 10 11  2  0
 10 12  1  0
 12 13  1  0
 13 14  1  0
 14 15  2  0
 14 16  1  0
 16 17  2  0
 17 18  1  0
 18 19  2  0
 19 20  1  0
 20 21  2  0
 21 22  1  0
 21 23  1  0
 23 24  2  0
 24 25  1  0
 25 26  2  0
  7 27  2  0
 27  3  1  0
 26 16  1  0
 25 19  1  0
  1 28  1  0
  1 29  1  0
  1 30  1  0
  4 31  1  0
  5 32  1  0
  6 33  1  0
  8 34  1  0
  8 35  1  0
  9 36  1  0
 12 37  1  0
 12 38  1  0
 13 39  1  0
 17 40  1  0
 18 41  1  0
 20 42  1  0
 23 43  1  0
 24 44  1  0
 27 45  1  0
M  END
>  <smiles>  (9) 
COc1cccc(CNC(=O)CNC(=O)c2ccc3cc(Cl)ccc3n2)c1

>  <score_type>  (9) 
oracle

>  <origin>  (9) 
autodockgpu

>  <m_score__min__energy>  (9) 
-8.1699999999999999

>  <m_primary>  (9) 
energy

>  <rmsd>  (9) 
3.4492067710367276

>  <m_score__min__rmsd>  (9) 
3.4492067710367276

>  <meeko>  (9) 
{"free_energy": -8.12, "intermolecular_energy": -9.91, "internal_energy": -0.88, "cluster_size": 27, "cluster_id": 2, "rank_in_cluster": 1}

>  <energy>  (9) 
-8.12

>  <cluster_rmsd>  (9) 
0.0

>  <cluster>  (9) 
2

$$$$

     RDKit          3D

 45 47  0  0  0  0  0  0  0  0999 V2000
  141.4490   72.0290  228.0050 C   0  0  0  0  0  0  0  0  0  0  0  0
  140.3260   71.6300  227.2580 O   0  0  0  0  0  0  0  0  0  0  0  0
  140.1360   70.3580  226.7720 C   0  0  0  0  0  0  0  0  0  0  0  0
  140.5100   69.3030  227.6030 C   0  0  0  0  0  0  0  0  0  0  0  0
  140.3570   68.0060  227.2020 C   0  0  0  0  0  0  0  0  0  0  0  0
  139.8240   67.7480  225.9500 C   0  0  0  0  0  0  0  0  0  0  0  0
  139.4370   68.7500  225.0900 C   0  0  0  0  0  0  0  0  0  0  0  0
  138.8610   68.5360  223.7540 C   0  0  0  0  0  0  0  0  0  0  0  0
  138.3360   69.7010  223.1160 N   0  0  0  0  0  0  0  0  0  0  0  0
  137.0750   70.2890  223.3830 C   0  0  0  0  0  0  0  0  0  0  0  0
  136.3490   69.7140  224.2710 O   0  0  0  0  0  0  0  0  0  0  0  0
  136.5230   71.4780  222.7490 C   0  0  0  0  0  0  0  0  0  0  0  0
  137.3310   72.6440  222.7090 N   0  0  0  0  0  0  0  0  0  0  0  0
  138.5160   72.7400  221.9260 C   0  0  0  0  0  0  0  0  0  0  0  0
  138.9390   71.7810  221.2060 O   0  0  0  0  0  0  0  0  0  0  0  0
  139.2960   73.9900  221.9340 C   0  0  0  0  0  0  0  0  0  0  0  0
  140.6180   74.0010  221.5360 C   0  0  0  0  0  0  0  0  0  0  0  0
  141.3320   75.1860  221.5540 C   0  0  0  0  0  0  0  0  0  0  0  0
  140.7490   76.3690  221.9640 C   0  0  0  0  0  0  0  0  0  0  0  0
  141.4220   77.5740  221.9980 C   0  0  0  0  0  0  0  0  0  0  0  0
  140.8120   78.7520  222.4150 C   0  0  0  0  0  0  0  0  0  0  0  0
  141.6280   80.2800  222.4690 Cl  0  0  0  0  0  0  0  0  0  0  0  0
  139.4690   78.6850  222.8070 C   0  0  0  0  0  0  0  0  0  0  0  0
  138.8120   77.4720  222.7670 C   0  0  0  0  0  0  0  0  0  0  0  0
  139.4140   76.3020  222.3540 C   0  0  0  0  0  0  0  0  0  0  0  0
  138.7290   75.1430  222.3340 N   0  0  0  0  0  0  0  0  0  0  0  0
  139.6120   70.0540  225.5420 C   0  0  0  0  0  0  0  0  0  0  0  0
  141.2227   71.9486  229.0785 H   0  0  0  0  0  0  0  0  0  0  0  0
  142.3020   71.3789  227.7604 H   0  0  0  0  0  0  0  0  0  0  0  0
  141.7006   73.0715  227.7604 H   0  0  0  0  0  0  0  0  0  0  0  0
  140.9340   69.5178  228.5950 H   0  0  0  0  0  0  0  0  0  0  0  0
  140.6528   67.1787  227.8638 H   0  0  0  0  0  0  0  0  0  0  0  0
  139.7055   66.7020  225.6309 H   0  0  0  0  0  0  0  0  0  0  0  0
  139.6490   68.1220  223.1078 H   0  0  0  0  0  0  0  0  0  0  0  0
  138.0053   67.8602  223.8992 H   0  0  0  0  0  0  0  0  0  0  0  0
  138.9200   70.1630  222.3840 H   0  0  0  0  0  0  0  0  0  0  0  0
  136.2795   71.2122  221.7097 H   0  0  0  0  0  0  0  0  0  0  0  0
  135.6673   71.7564  223.3817 H   0  0  0  0  0  0  0  0  0  0  0  0
  137.0880   73.5160  223.2710 H   0  0  0  0  0  0  0  0  0  0  0  0
  141.1023   73.0703  221.2055 H   0  0  0  0  0  0  0  0  0  0  0  0
  142.3849   75.1859  221.2355 H   0  0  0  0  0  0  0  0  0  0  0  0
  142.4760   77.6032  221.6847 H   0  0  0  0  0  0  0  0  0  0  0  0
  138.9430   79.5906  223.1435 H   0  0  0  0  0  0  0  0  0  0  0  0
  137.7579   77.4367  223.0794 H   0  0  0  0  0  0  0  0  0  0  0  0
  139.3156   70.8814  224.8805 H   0  0  0  0  0  0  0  0  0  0  0  0
  1  2  1  0
  2  3  1  0
  3  4  2  0
  4  5  1  0
  5  6  2  0
  6  7  1  0
  7  8  1  0
  8  9  1  0
  9 10  1  0
 10 11  2  0
 10 12  1  0
 12 13  1  0
 13 14  1  0
 14 15  2  0
 14 16  1  0
 16 17  2  0
 17 18  1  0
 18 19  2  0
 19 20  1  0
 20 21  2  0
 21 22  1  0
 21 23  1  0
 23 24  2  0
 24 25  1  0
 25 26  2  0
  7 27  2  0
 27  3  1  0
 26 16  1  0
 25 19  1  0
  1 28  1  0
  1 29  1  0
  1 30  1  0
  4 31  1  0
  5 32  1  0
  6 33  1  0
  8 34  1  0
  8 35  1  0
  9 36  1  0
 12 37  1  0
 12 38  1  0
 13 39  1  0
 17 40  1  0
 18 41  1  0
 20 42  1  0
 23 43  1  0
 24 44  1  0
 27 45  1  0
M  END
>  <smiles>  (10) 
COc1cccc(CNC(=O)CNC(=O)c2ccc3cc(Cl)ccc3n2)c1

>  <score_type>  (10) 
oracle

>  <origin>  (10) 
autodockgpu

>  <m_score__min__energy>  (10) 
-8.1699999999999999

>  <m_primary>  (10) 
energy

>  <rmsd>  (10) 
8.094116275671198

>  <m_score__min__rmsd>  (10) 
8.094116275671198

>  <meeko>  (10) 
{"free_energy": -7.04, "intermolecular_energy": -8.83, "internal_energy": -1.93, "cluster_size": 14, "cluster_id": 3, "rank_in_cluster": 11}

>  <energy>  (10) 
-7.98

>  <cluster_rmsd>  (10) 
1.31

>  <cluster>  (10) 
2

$$$$

     RDKit          3D

 45 47  0  0  0  0  0  0  0  0999 V2000
  145.3490   70.2290  218.5580 C   0  0  0  0  0  0  0  0  0  0  0  0
  145.9260   71.5090  218.4590 O   0  0  0  0  0  0  0  0  0  0  0  0
  145.4330   72.6260  219.0900 C   0  0  0  0  0  0  0  0  0  0  0  0
  146.1200   73.0680  220.2190 C   0  0  0  0  0  0  0  0  0  0  0  0
  145.7020   74.1700  220.9090 C   0  0  0  0  0  0  0  0  0  0  0  0
  144.5770   74.8510  220.4710 C   0  0  0  0  0  0  0  0  0  0  0  0
  143.8620   74.4590  219.3630 C   0  0  0  0  0  0  0  0  0  0  0  0
  142.6660   75.1450  218.8490 C   0  0  0  0  0  0  0  0  0  0  0  0
  141.4390   74.8100  219.4990 N   0  0  0  0  0  0  0  0  0  0  0  0
  140.8180   75.5610  220.5270 C   0  0  0  0  0  0  0  0  0  0  0  0
  141.4220   76.6270  220.9040 O   0  0  0  0  0  0  0  0  0  0  0  0
  139.5660   75.2400  221.1980 C   0  0  0  0  0  0  0  0  0  0  0  0
  139.5840   74.2190  222.1830 N   0  0  0  0  0  0  0  0  0  0  0  0
  140.0380   72.8950  221.9200 C   0  0  0  0  0  0  0  0  0  0  0  0
  140.4560   72.5320  220.7760 O   0  0  0  0  0  0  0  0  0  0  0  0
  140.0310   71.8940  223.0000 C   0  0  0  0  0  0  0  0  0  0  0  0
  139.5190   70.6290  222.7890 C   0  0  0  0  0  0  0  0  0  0  0  0
  139.5220   69.7050  223.8190 C   0  0  0  0  0  0  0  0  0  0  0  0
  140.0280   70.0200  225.0640 C   0  0  0  0  0  0  0  0  0  0  0  0
  140.0510   69.1310  226.1210 C   0  0  0  0  0  0  0  0  0  0  0  0
  140.5670   69.4730  227.3660 C   0  0  0  0  0  0  0  0  0  0  0  0
  140.6110   68.3810  228.7110 Cl  0  0  0  0  0  0  0  0  0  0  0  0
  141.0740   70.7690  227.5260 C   0  0  0  0  0  0  0  0  0  0  0  0
  141.0430   71.6440  226.4590 C   0  0  0  0  0  0  0  0  0  0  0  0
  140.5320   71.3090  225.2230 C   0  0  0  0  0  0  0  0  0  0  0  0
  140.5240   72.2000  224.2140 N   0  0  0  0  0  0  0  0  0  0  0  0
  144.3260   73.3320  218.6940 C   0  0  0  0  0  0  0  0  0  0  0  0
  145.2287   69.9621  219.6183 H   0  0  0  0  0  0  0  0  0  0  0  0
  144.3649   70.2314  218.0665 H   0  0  0  0  0  0  0  0  0  0  0  0
  146.0025   69.4932  218.0665 H   0  0  0  0  0  0  0  0  0  0  0  0
  147.0118   72.5214  220.5593 H   0  0  0  0  0  0  0  0  0  0  0  0
  146.2501   74.5121  221.7993 H   0  0  0  0  0  0  0  0  0  0  0  0
  144.2436   75.7377  221.0300 H   0  0  0  0  0  0  0  0  0  0  0  0
  142.8230   76.2282  218.9586 H   0  0  0  0  0  0  0  0  0  0  0  0
  142.5545   74.8170  217.8050 H   0  0  0  0  0  0  0  0  0  0  0  0
  140.9520   73.9350  219.2020 H   0  0  0  0  0  0  0  0  0  0  0  0
  139.2105   76.1596  221.6857 H   0  0  0  0  0  0  0  0  0  0  0  0
  138.9195   74.8435  220.4012 H   0  0  0  0  0  0  0  0  0  0  0  0
  139.2550   74.3940  223.1810 H   0  0  0  0  0  0  0  0  0  0  0  0
  139.1099   70.3566  221.8049 H   0  0  0  0  0  0  0  0  0  0  0  0
  139.1130   68.6993  223.6421 H   0  0  0  0  0  0  0  0  0  0  0  0
  139.6475   68.1185  225.9728 H   0  0  0  0  0  0  0  0  0  0  0  0
  141.4927   71.0862  228.4925 H   0  0  0  0  0  0  0  0  0  0  0  0
  141.4455   72.6577  226.6016 H   0  0  0  0  0  0  0  0  0  0  0  0
  143.7784   72.9899  217.8035 H   0  0  0  0  0  0  0  0  0  0  0  0
  1  2  1  0
  2  3  1  0
  3  4  2  0
  4  5  1  0
  5  6  2  0
  6  7  1  0
  7  8  1  0
  8  9  1  0
  9 10  1  0
 10 11  2  0
 10 12  1  0
 12 13  1  0
 13 14  1  0
 14 15  2  0
 14 16  1  0
 16 17  2  0
 17 18  1  0
 18 19  2  0
 19 20  1  0
 20 21  2  0
 21 22  1  0
 21 23  1  0
 23 24  2  0
 24 25  1  0
 25 26  2  0
  7 27  2  0
 27  3  1  0
 26 16  1  0
 25 19  1  0
  1 28  1  0
  1 29  1  0
  1 30  1  0
  4 31  1  0
  5 32  1  0
  6 33  1  0
  8 34  1  0
  8 35  1  0
  9 36  1  0
 12 37  1  0
 12 38  1  0
 13 39  1  0
 17 40  1  0
 18 41  1  0
 20 42  1  0
 23 43  1  0
 24 44  1  0
 27 45  1  0
M  END
>  <smiles>  (11) 
COc1cccc(CNC(=O)CNC(=O)c2ccc3cc(Cl)ccc3n2)c1

>  <score_type>  (11) 
oracle

>  <origin>  (11) 
autodockgpu

>  <m_score__min__energy>  (11) 
-8.1699999999999999

>  <m_primary>  (11) 
energy

>  <rmsd>  (11) 
2.931888236555636

>  <m_score__min__rmsd>  (11) 
2.931888236555636

>  <meeko>  (11) 
{"free_energy": -7.91, "intermolecular_energy": -9.7, "internal_energy": -1.74, "cluster_size": 8, "cluster_id": 1, "rank_in_cluster": 4}

>  <energy>  (11) 
-7.89

>  <cluster_rmsd>  (11) 
1.68

>  <cluster>  (11) 
2

$$$$

     RDKit          3D

 45 47  0  0  0  0  0  0  0  0999 V2000
  141.4660   72.6210  227.3410 C   0  0  0  0  0  0  0  0  0  0  0  0
  140.6260   71.6450  227.9080 O   0  0  0  0  0  0  0  0  0  0  0  0
  140.4920   70.3670  227.4190 C   0  0  0  0  0  0  0  0  0  0  0  0
  140.9670   69.3310  228.2210 C   0  0  0  0  0  0  0  0  0  0  0  0
  140.8740   68.0300  227.8160 C   0  0  0  0  0  0  0  0  0  0  0  0
  140.2990   67.7480  226.5880 C   0  0  0  0  0  0  0  0  0  0  0  0
  139.8130   68.7310  225.7560 C   0  0  0  0  0  0  0  0  0  0  0  0
  139.1880   68.4910  224.4460 C   0  0  0  0  0  0  0  0  0  0  0  0
  138.5990   69.6340  223.8260 N   0  0  0  0  0  0  0  0  0  0  0  0
  137.2140   69.9310  223.7890 C   0  0  0  0  0  0  0  0  0  0  0  0
  136.4320   69.0890  224.3580 O   0  0  0  0  0  0  0  0  0  0  0  0
  136.5940   71.0930  223.1670 C   0  0  0  0  0  0  0  0  0  0  0  0
  137.3990   72.2440  222.9630 N   0  0  0  0  0  0  0  0  0  0  0  0
  138.5260   72.2580  222.0930 C   0  0  0  0  0  0  0  0  0  0  0  0
  138.8950   71.2330  221.4380 O   0  0  0  0  0  0  0  0  0  0  0  0
  139.3060   73.4960  221.9300 C   0  0  0  0  0  0  0  0  0  0  0  0
  140.5690   73.4690  221.3750 C   0  0  0  0  0  0  0  0  0  0  0  0
  141.2850   74.6450  221.2340 C   0  0  0  0  0  0  0  0  0  0  0  0
  140.7610   75.8560  221.6390 C   0  0  0  0  0  0  0  0  0  0  0  0
  141.4380   77.0540  221.5180 C   0  0  0  0  0  0  0  0  0  0  0  0
  140.8880   78.2610  221.9330 C   0  0  0  0  0  0  0  0  0  0  0  0
  141.7110   79.7810  221.7950 Cl  0  0  0  0  0  0  0  0  0  0  0  0
  139.6030   78.2330  222.4890 C   0  0  0  0  0  0  0  0  0  0  0  0
  138.9410   77.0270  222.6030 C   0  0  0  0  0  0  0  0  0  0  0  0
  139.4830   75.8280  222.1920 C   0  0  0  0  0  0  0  0  0  0  0  0
  138.7960   74.6780  222.3250 N   0  0  0  0  0  0  0  0  0  0  0  0
  139.9290   70.0400  226.2120 C   0  0  0  0  0  0  0  0  0  0  0  0
  141.9575   73.1921  228.1424 H   0  0  0  0  0  0  0  0  0  0  0  0
  142.2293   72.1311  226.7187 H   0  0  0  0  0  0  0  0  0  0  0  0
  140.8679   73.3028  226.7187 H   0  0  0  0  0  0  0  0  0  0  0  0
  141.4234   69.5645  229.1942 H   0  0  0  0  0  0  0  0  0  0  0  0
  141.2502   67.2181  228.4557 H   0  0  0  0  0  0  0  0  0  0  0  0
  140.2280   66.6988  226.2653 H   0  0  0  0  0  0  0  0  0  0  0  0
  139.9611   68.0991  223.7687 H   0  0  0  0  0  0  0  0  0  0  0  0
  138.3616   67.7888  224.6305 H   0  0  0  0  0  0  0  0  0  0  0  0
  139.2340   70.3140  223.3520 H   0  0  0  0  0  0  0  0  0  0  0  0
  136.2186   70.7768  222.1826 H   0  0  0  0  0  0  0  0  0  0  0  0
  135.8273   71.4158  223.8867 H   0  0  0  0  0  0  0  0  0  0  0  0
  137.1970   73.1650  223.4570 H   0  0  0  0  0  0  0  0  0  0  0  0
  141.0059   72.5148  221.0453 H   0  0  0  0  0  0  0  0  0  0  0  0
  142.2912   74.6140  220.7906 H   0  0  0  0  0  0  0  0  0  0  0  0
  142.4463   77.0526  221.0784 H   0  0  0  0  0  0  0  0  0  0  0  0
  139.1258   79.1630  222.8316 H   0  0  0  0  0  0  0  0  0  0  0  0
  137.9328   77.0226  223.0428 H   0  0  0  0  0  0  0  0  0  0  0  0
  139.5509   70.8521  225.5736 H   0  0  0  0  0  0  0  0  0  0  0  0
  1  2  1  0
  2  3  1  0
  3  4  2  0
  4  5  1  0
  5  6  2  0
  6  7  1  0
  7  8  1  0
  8  9  1  0
  9 10  1  0
 10 11  2  0
 10 12  1  0
 12 13  1  0
 13 14  1  0
 14 15  2  0
 14 16  1  0
 16 17  2  0
 17 18  1  0
 18 19  2  0
 19 20  1  0
 20 21  2  0
 21 22  1  0
 21 23  1  0
 23 24  2  0
 24 25  1  0
 25 26  2  0
  7 27  2  0
 27  3  1  0
 26 16  1  0
 25 19  1  0
  1 28  1  0
  1 29  1  0
  1 30  1  0
  4 31  1  0
  5 32  1  0
  6 33  1  0
  8 34  1  0
  8 35  1  0
  9 36  1  0
 12 37  1  0
 12 38  1  0
 13 39  1  0
 17 40  1  0
 18 41  1  0
 20 42  1  0
 23 43  1  0
 24 44  1  0
 27 45  1  0
M  END
>  <smiles>  (12) 
COc1cccc(CNC(=O)CNC(=O)c2ccc3cc(Cl)ccc3n2)c1

>  <score_type>  (12) 
oracle

>  <origin>  (12) 
autodockgpu

>  <m_score__min__energy>  (12) 
-8.1699999999999999

>  <m_primary>  (12) 
energy

>  <rmsd>  (12) 
8.178848793816186

>  <m_score__min__rmsd>  (12) 
8.178848793816186

>  <meeko>  (12) 
{"free_energy": -7.24, "intermolecular_energy": -9.03, "internal_energy": -1.89, "cluster_size": 14, "cluster_id": 3, "rank_in_cluster": 2}

>  <energy>  (12) 
-7.88

>  <cluster_rmsd>  (12) 
1.43

>  <cluster>  (12) 
2

$$$$

     RDKit          3D

 45 47  0  0  0  0  0  0  0  0999 V2000
  141.4240   72.2160  227.9040 C   0  0  0  0  0  0  0  0  0  0  0  0
  141.1960   71.6960  226.6160 O   0  0  0  0  0  0  0  0  0  0  0  0
  140.6430   70.4610  226.3720 C   0  0  0  0  0  0  0  0  0  0  0  0
  140.7150   69.5230  227.3990 C   0  0  0  0  0  0  0  0  0  0  0  0
  140.1910   68.2710  227.2440 C   0  0  0  0  0  0  0  0  0  0  0  0
  139.5830   67.9400  226.0440 C   0  0  0  0  0  0  0  0  0  0  0  0
  139.4840   68.8270  224.9960 C   0  0  0  0  0  0  0  0  0  0  0  0
  138.8470   68.5340  223.7040 C   0  0  0  0  0  0  0  0  0  0  0  0
  138.3080   69.6610  223.0130 N   0  0  0  0  0  0  0  0  0  0  0  0
  137.1920   70.4280  223.4300 C   0  0  0  0  0  0  0  0  0  0  0  0
  136.6210   70.0640  224.5200 O   0  0  0  0  0  0  0  0  0  0  0  0
  136.6300   71.5830  222.7440 C   0  0  0  0  0  0  0  0  0  0  0  0
  137.4150   72.7640  222.6830 N   0  0  0  0  0  0  0  0  0  0  0  0
  138.6440   72.8430  221.9680 C   0  0  0  0  0  0  0  0  0  0  0  0
  139.1300   71.8540  221.3350 O   0  0  0  0  0  0  0  0  0  0  0  0
  139.3950   74.1090  221.9490 C   0  0  0  0  0  0  0  0  0  0  0  0
  140.7100   74.1450  221.5290 C   0  0  0  0  0  0  0  0  0  0  0  0
  141.3980   75.3460  221.5200 C   0  0  0  0  0  0  0  0  0  0  0  0
  140.7950   76.5200  221.9260 C   0  0  0  0  0  0  0  0  0  0  0  0
  141.4410   77.7400  221.9340 C   0  0  0  0  0  0  0  0  0  0  0  0
  140.8120   78.9090  222.3470 C   0  0  0  0  0  0  0  0  0  0  0  0
  141.5950   80.4560  222.3690 Cl  0  0  0  0  0  0  0  0  0  0  0  0
  139.4780   78.8170  222.7630 C   0  0  0  0  0  0  0  0  0  0  0  0
  138.8480   77.5900  222.7480 C   0  0  0  0  0  0  0  0  0  0  0  0
  139.4690   76.4290  222.3390 C   0  0  0  0  0  0  0  0  0  0  0  0
  138.8090   75.2550  222.3440 N   0  0  0  0  0  0  0  0  0  0  0  0
  140.0320   70.0890  225.2010 C   0  0  0  0  0  0  0  0  0  0  0  0
  141.1023   71.4824  228.6579 H   0  0  0  0  0  0  0  0  0  0  0  0
  142.4965   72.4254  228.0304 H   0  0  0  0  0  0  0  0  0  0  0  0
  140.8514   73.1467  228.0304 H   0  0  0  0  0  0  0  0  0  0  0  0
  141.2005   69.7941  228.3481 H   0  0  0  0  0  0  0  0  0  0  0  0
  140.2510   67.5362  228.0603 H   0  0  0  0  0  0  0  0  0  0  0  0
  139.1635   66.9302  225.9241 H   0  0  0  0  0  0  0  0  0  0  0  0
  139.6007   68.0666  223.0532 H   0  0  0  0  0  0  0  0  0  0  0  0
  137.9905   67.8823  223.9314 H   0  0  0  0  0  0  0  0  0  0  0  0
  138.7650   69.9510  222.1200 H   0  0  0  0  0  0  0  0  0  0  0  0
  136.4160   71.2777  221.7091 H   0  0  0  0  0  0  0  0  0  0  0  0
  135.7541   71.8639  223.3472 H   0  0  0  0  0  0  0  0  0  0  0  0
  137.1200   73.6610  223.1760 H   0  0  0  0  0  0  0  0  0  0  0  0
  141.2097   73.2211  221.2023 H   0  0  0  0  0  0  0  0  0  0  0  0
  142.4449   75.3656  221.1831 H   0  0  0  0  0  0  0  0  0  0  0  0
  142.4887   77.7888  221.6024 H   0  0  0  0  0  0  0  0  0  0  0  0
  138.9378   79.7146  223.0985 H   0  0  0  0  0  0  0  0  0  0  0  0
  137.8001   77.5352  223.0781 H   0  0  0  0  0  0  0  0  0  0  0  0
  139.9727   70.8243  224.3850 H   0  0  0  0  0  0  0  0  0  0  0  0
  1  2  1  0
  2  3  1  0
  3  4  2  0
  4  5  1  0
  5  6  2  0
  6  7  1  0
  7  8  1  0
  8  9  1  0
  9 10  1  0
 10 11  2  0
 10 12  1  0
 12 13  1  0
 13 14  1  0
 14 15  2  0
 14 16  1  0
 16 17  2  0
 17 18  1  0
 18 19  2  0
 19 20  1  0
 20 21  2  0
 21 22  1  0
 21 23  1  0
 23 24  2  0
 24 25  1  0
 25 26  2  0
  7 27  2  0
 27  3  1  0
 26 16  1  0
 25 19  1  0
  1 28  1  0
  1 29  1  0
  1 30  1  0
  4 31  1  0
  5 32  1  0
  6 33  1  0
  8 34  1  0
  8 35  1  0
  9 36  1  0
 12 37  1  0
 12 38  1  0
 13 39  1  0
 17 40  1  0
 18 41  1  0
 20 42  1  0
 23 43  1  0
 24 44  1  0
 27 45  1  0
M  END
>  <smiles>  (13) 
COc1cccc(CNC(=O)CNC(=O)c2ccc3cc(Cl)ccc3n2)c1

>  <score_type>  (13) 
oracle

>  <origin>  (13) 
autodockgpu

>  <m_score__min__energy>  (13) 
-8.1699999999999999

>  <m_primary>  (13) 
energy

>  <rmsd>  (13) 
8.099069933381394

>  <m_score__min__rmsd>  (13) 
8.099069933381394

>  <meeko>  (13) 
{"free_energy": -7.11, "intermolecular_energy": -8.9, "internal_energy": -2.0, "cluster_size": 14, "cluster_id": 3, "rank_in_cluster": 10}

>  <energy>  (13) 
-7.83

>  <cluster_rmsd>  (13) 
1.65

>  <cluster>  (13) 
2

$$$$

     RDKit          3D

 45 47  0  0  0  0  0  0  0  0999 V2000
  141.1020   72.2570  227.9360 C   0  0  0  0  0  0  0  0  0  0  0  0
  141.4060   71.5120  226.7810 O   0  0  0  0  0  0  0  0  0  0  0  0
  140.8510   70.2900  226.4850 C   0  0  0  0  0  0  0  0  0  0  0  0
  141.0710   69.2590  227.3960 C   0  0  0  0  0  0  0  0  0  0  0  0
  140.5570   68.0120  227.1820 C   0  0  0  0  0  0  0  0  0  0  0  0
  139.8080   67.7800  226.0400 C   0  0  0  0  0  0  0  0  0  0  0  0
  139.5590   68.7610  225.1070 C   0  0  0  0  0  0  0  0  0  0  0  0
  138.7690   68.5740  223.8810 C   0  0  0  0  0  0  0  0  0  0  0  0
  138.2570   69.7690  223.2910 N   0  0  0  0  0  0  0  0  0  0  0  0
  136.9300   70.2500  223.4170 C   0  0  0  0  0  0  0  0  0  0  0  0
  136.1270   69.5380  224.1200 O   0  0  0  0  0  0  0  0  0  0  0  0
  136.3900   71.4670  222.8280 C   0  0  0  0  0  0  0  0  0  0  0  0
  137.2270   72.6120  222.7900 N   0  0  0  0  0  0  0  0  0  0  0  0
  138.3560   72.7190  221.9290 C   0  0  0  0  0  0  0  0  0  0  0  0
  138.6990   71.7890  221.1330 O   0  0  0  0  0  0  0  0  0  0  0  0
  139.1710   73.9460  221.9440 C   0  0  0  0  0  0  0  0  0  0  0  0
  140.5010   73.9180  221.5730 C   0  0  0  0  0  0  0  0  0  0  0  0
  141.2480   75.0820  221.5970 C   0  0  0  0  0  0  0  0  0  0  0  0
  140.6900   76.2830  221.9860 C   0  0  0  0  0  0  0  0  0  0  0  0
  141.3960   77.4690  222.0260 C   0  0  0  0  0  0  0  0  0  0  0  0
  140.8120   78.6670  222.4220 C   0  0  0  0  0  0  0  0  0  0  0  0
  141.6700   80.1720  222.4820 Cl  0  0  0  0  0  0  0  0  0  0  0  0
  139.4600   78.6410  222.7880 C   0  0  0  0  0  0  0  0  0  0  0  0
  138.7700   77.4470  222.7420 C   0  0  0  0  0  0  0  0  0  0  0  0
  139.3460   76.2570  222.3500 C   0  0  0  0  0  0  0  0  0  0  0  0
  138.6290   75.1180  222.3240 N   0  0  0  0  0  0  0  0  0  0  0  0
  140.1030   70.0140  225.3690 C   0  0  0  0  0  0  0  0  0  0  0  0
  141.3443   71.6632  228.8297 H   0  0  0  0  0  0  0  0  0  0  0  0
  141.6936   73.1843  227.9405 H   0  0  0  0  0  0  0  0  0  0  0  0
  140.0305   72.5057  227.9405 H   0  0  0  0  0  0  0  0  0  0  0  0
  141.6670   69.4522  228.3002 H   0  0  0  0  0  0  0  0  0  0  0  0
  140.7352   67.2034  227.9061 H   0  0  0  0  0  0  0  0  0  0  0  0
  139.3966   66.7737  225.8724 H   0  0  0  0  0  0  0  0  0  0  0  0
  139.4095   68.0767  223.1378 H   0  0  0  0  0  0  0  0  0  0  0  0
  137.8898   67.9823  224.1758 H   0  0  0  0  0  0  0  0  0  0  0  0
  138.9070   70.3430  222.7090 H   0  0  0  0  0  0  0  0  0  0  0  0
  136.1080   71.2323  221.7910 H   0  0  0  0  0  0  0  0  0  0  0  0
  135.5612   71.7520  223.4927 H   0  0  0  0  0  0  0  0  0  0  0  0
  137.0510   73.4590  223.4110 H   0  0  0  0  0  0  0  0  0  0  0  0
  140.9655   72.9717  221.2589 H   0  0  0  0  0  0  0  0  0  0  0  0
  142.3068   75.0499  221.3005 H   0  0  0  0  0  0  0  0  0  0  0  0
  142.4567   77.4659  221.7346 H   0  0  0  0  0  0  0  0  0  0  0  0
  138.9535   79.5633  223.1088 H   0  0  0  0  0  0  0  0  0  0  0  0
  137.7090   77.4443  223.0321 H   0  0  0  0  0  0  0  0  0  0  0  0
  139.9246   70.8233  224.6457 H   0  0  0  0  0  0  0  0  0  0  0  0
  1  2  1  0
  2  3  1  0
  3  4  2  0
  4  5  1  0
  5  6  2  0
  6  7  1  0
  7  8  1  0
  8  9  1  0
  9 10  1  0
 10 11  2  0
 10 12  1  0
 12 13  1  0
 13 14  1  0
 14 15  2  0
 14 16  1  0
 16 17  2  0
 17 18  1  0
 18 19  2  0
 19 20  1  0
 20 21  2  0
 21 22  1  0
 21 23  1  0
 23 24  2  0
 24 25  1  0
 25 26  2  0
  7 27  2  0
 27  3  1  0
 26 16  1  0
 25 19  1  0
  1 28  1  0
  1 29  1  0
  1 30  1  0
  4 31  1  0
  5 32  1  0
  6 33  1  0
  8 34  1  0
  8 35  1  0
  9 36  1  0
 12 37  1  0
 12 38  1  0
 13 39  1  0
 17 40  1  0
 18 41  1  0
 20 42  1  0
 23 43  1  0
 24 44  1  0
 27 45  1  0
M  END
>  <smiles>  (14) 
COc1cccc(CNC(=O)CNC(=O)c2ccc3cc(Cl)ccc3n2)c1

>  <score_type>  (14) 
oracle

>  <origin>  (14) 
autodockgpu

>  <m_score__min__energy>  (14) 
-8.1699999999999999

>  <m_primary>  (14) 
energy

>  <rmsd>  (14) 
8.078154361551332

>  <m_score__min__rmsd>  (14) 
8.078154361551332

>  <meeko>  (14) 
{"free_energy": -7.12, "intermolecular_energy": -8.91, "internal_energy": -1.87, "cluster_size": 14, "cluster_id": 3, "rank_in_cluster": 9}

>  <energy>  (14) 
-7.81

>  <cluster_rmsd>  (14) 
0.75

>  <cluster>  (14) 
2

$$$$

     RDKit          3D

 45 47  0  0  0  0  0  0  0  0999 V2000
  145.5270   70.3540  218.1910 C   0  0  0  0  0  0  0  0  0  0  0  0
  146.0920   71.2690  219.0990 O   0  0  0  0  0  0  0  0  0  0  0  0
  145.4960   72.4480  219.4760 C   0  0  0  0  0  0  0  0  0  0  0  0
  146.1660   73.2190  220.4240 C   0  0  0  0  0  0  0  0  0  0  0  0
  145.6470   74.4060  220.8570 C   0  0  0  0  0  0  0  0  0  0  0  0
  144.4370   74.8400  220.3400 C   0  0  0  0  0  0  0  0  0  0  0  0
  143.7330   74.1190  219.4030 C   0  0  0  0  0  0  0  0  0  0  0  0
  142.4490   74.5310  218.8160 C   0  0  0  0  0  0  0  0  0  0  0  0
  141.2940   74.2570  219.6090 N   0  0  0  0  0  0  0  0  0  0  0  0
  140.6560   75.1720  220.4820 C   0  0  0  0  0  0  0  0  0  0  0  0
  141.1730   76.3430  220.5630 O   0  0  0  0  0  0  0  0  0  0  0  0
  139.4750   74.9140  221.2950 C   0  0  0  0  0  0  0  0  0  0  0  0
  139.5640   73.9080  222.2920 N   0  0  0  0  0  0  0  0  0  0  0  0
  139.7420   72.5280  221.9870 C   0  0  0  0  0  0  0  0  0  0  0  0
  139.8300   72.0980  220.7940 O   0  0  0  0  0  0  0  0  0  0  0  0
  139.8310   71.5460  223.0810 C   0  0  0  0  0  0  0  0  0  0  0  0
  139.4070   70.2450  222.9000 C   0  0  0  0  0  0  0  0  0  0  0  0
  139.4980   69.3390  223.9420 C   0  0  0  0  0  0  0  0  0  0  0  0
  140.0080   69.7090  225.1700 C   0  0  0  0  0  0  0  0  0  0  0  0
  140.1180   68.8400  226.2380 C   0  0  0  0  0  0  0  0  0  0  0  0
  140.6360   69.2370  227.4660 C   0  0  0  0  0  0  0  0  0  0  0  0
  140.7870   68.1720  228.8260 Cl  0  0  0  0  0  0  0  0  0  0  0  0
  141.0520   70.5680  227.5960 C   0  0  0  0  0  0  0  0  0  0  0  0
  140.9340   71.4220  226.5190 C   0  0  0  0  0  0  0  0  0  0  0  0
  140.4220   71.0320  225.3000 C   0  0  0  0  0  0  0  0  0  0  0  0
  140.3280   71.9050  224.2790 N   0  0  0  0  0  0  0  0  0  0  0  0
  144.3010   72.9180  218.9930 C   0  0  0  0  0  0  0  0  0  0  0  0
  145.0283   69.5463  218.7469 H   0  0  0  0  0  0  0  0  0  0  0  0
  144.7914   70.8721  217.5582 H   0  0  0  0  0  0  0  0  0  0  0  0
  146.3198   69.9284  217.5582 H   0  0  0  0  0  0  0  0  0  0  0  0
  147.1261   72.8668  220.8292 H   0  0  0  0  0  0  0  0  0  0  0  0
  146.1821   75.0088  221.6055 H   0  0  0  0  0  0  0  0  0  0  0  0
  144.0237   75.7968  220.6918 H   0  0  0  0  0  0  0  0  0  0  0  0
  142.4896   75.6161  218.6401 H   0  0  0  0  0  0  0  0  0  0  0  0
  142.3325   73.9367  217.8977 H   0  0  0  0  0  0  0  0  0  0  0  0
  140.8790   73.3000  219.5540 H   0  0  0  0  0  0  0  0  0  0  0  0
  139.2133   75.8550  221.8010 H   0  0  0  0  0  0  0  0  0  0  0  0
  138.7273   74.5332  220.5837 H   0  0  0  0  0  0  0  0  0  0  0  0
  139.4990   74.1370  223.3290 H   0  0  0  0  0  0  0  0  0  0  0  0
  138.9975   69.9289  221.9292 H   0  0  0  0  0  0  0  0  0  0  0  0
  139.1574   68.3043  223.7887 H   0  0  0  0  0  0  0  0  0  0  0  0
  139.7847   67.7992  226.1130 H   0  0  0  0  0  0  0  0  0  0  0  0
  141.4689   70.9290  228.5478 H   0  0  0  0  0  0  0  0  0  0  0  0
  141.2644   72.4643  226.6387 H   0  0  0  0  0  0  0  0  0  0  0  0
  143.7659   72.3150  218.2446 H   0  0  0  0  0  0  0  0  0  0  0  0
  1  2  1  0
  2  3  1  0
  3  4  2  0
  4  5  1  0
  5  6  2  0
  6  7  1  0
  7  8  1  0
  8  9  1  0
  9 10  1  0
 10 11  2  0
 10 12  1  0
 12 13  1  0
 13 14  1  0
 14 15  2  0
 14 16  1  0
 16 17  2  0
 17 18  1  0
 18 19  2  0
 19 20  1  0
 20 21  2  0
 21 22  1  0
 21 23  1  0
 23 24  2  0
 24 25  1  0
 25 26  2  0
  7 27  2  0
 27  3  1  0
 26 16  1  0
 25 19  1  0
  1 28  1  0
  1 29  1  0
  1 30  1  0
  4 31  1  0
  5 32  1  0
  6 33  1  0
  8 34  1  0
  8 35  1  0
  9 36  1  0
 12 37  1  0
 12 38  1  0
 13 39  1  0
 17 40  1  0
 18 41  1  0
 20 42  1  0
 23 43  1  0
 24 44  1  0
 27 45  1  0
M  END
>  <smiles>  (15) 
COc1cccc(CNC(=O)CNC(=O)c2ccc3cc(Cl)ccc3n2)c1

>  <score_type>  (15) 
oracle

>  <origin>  (15) 
autodockgpu

>  <m_score__min__energy>  (15) 
-8.1699999999999999

>  <m_primary>  (15) 
energy

>  <rmsd>  (15) 
2.7678110833483456

>  <m_score__min__rmsd>  (15) 
2.7678110833483456

>  <meeko>  (15) 
{"free_energy": -7.55, "intermolecular_energy": -9.34, "internal_energy": -1.83, "cluster_size": 8, "cluster_id": 1, "rank_in_cluster": 6}

>  <energy>  (15) 
-7.77

>  <cluster_rmsd>  (15) 
1.42

>  <cluster>  (15) 
2

$$$$

     RDKit          3D

 45 47  0  0  0  0  0  0  0  0999 V2000
  145.2580   72.2180  216.4400 C   0  0  0  0  0  0  0  0  0  0  0  0
  145.7090   71.9150  217.7380 O   0  0  0  0  0  0  0  0  0  0  0  0
  145.4500   72.6890  218.8430 C   0  0  0  0  0  0  0  0  0  0  0  0
  146.1240   72.3580  220.0180 C   0  0  0  0  0  0  0  0  0  0  0  0
  145.9290   73.0740  221.1640 C   0  0  0  0  0  0  0  0  0  0  0  0
  145.0470   74.1420  221.1490 C   0  0  0  0  0  0  0  0  0  0  0  0
  144.3550   74.5130  220.0180 C   0  0  0  0  0  0  0  0  0  0  0  0
  143.4110   75.6380  219.9420 C   0  0  0  0  0  0  0  0  0  0  0  0
  142.1890   75.4660  220.6600 N   0  0  0  0  0  0  0  0  0  0  0  0
  140.9350   75.1380  220.0870 C   0  0  0  0  0  0  0  0  0  0  0  0
  140.9060   74.9930  218.8130 O   0  0  0  0  0  0  0  0  0  0  0  0
  139.6790   74.9530  220.8010 C   0  0  0  0  0  0  0  0  0  0  0  0
  139.6440   73.9870  221.8400 N   0  0  0  0  0  0  0  0  0  0  0  0
  140.2260   72.6930  221.7170 C   0  0  0  0  0  0  0  0  0  0  0  0
  140.8170   72.3090  220.6590 O   0  0  0  0  0  0  0  0  0  0  0  0
  140.1510   71.7500  222.8460 C   0  0  0  0  0  0  0  0  0  0  0  0
  139.5830   70.5020  222.6890 C   0  0  0  0  0  0  0  0  0  0  0  0
  139.5220   69.6330  223.7640 C   0  0  0  0  0  0  0  0  0  0  0  0
  140.0210   69.9870  225.0010 C   0  0  0  0  0  0  0  0  0  0  0  0
  139.9820   69.1540  226.1010 C   0  0  0  0  0  0  0  0  0  0  0  0
  140.4920   69.5340  227.3380 C   0  0  0  0  0  0  0  0  0  0  0  0
  140.4590   68.5110  228.7370 Cl  0  0  0  0  0  0  0  0  0  0  0  0
  141.0580   70.8110  227.4420 C   0  0  0  0  0  0  0  0  0  0  0  0
  141.0880   71.6310  226.3330 C   0  0  0  0  0  0  0  0  0  0  0  0
  140.5840   71.2570  225.1050 C   0  0  0  0  0  0  0  0  0  0  0  0
  140.6370   72.0950  224.0530 N   0  0  0  0  0  0  0  0  0  0  0  0
  144.5870   73.7550  218.8760 C   0  0  0  0  0  0  0  0  0  0  0  0
  144.3464   72.8305  216.5022 H   0  0  0  0  0  0  0  0  0  0  0  0
  146.0384   72.7757  215.9015 H   0  0  0  0  0  0  0  0  0  0  0  0
  145.0367   71.2847  215.9015 H   0  0  0  0  0  0  0  0  0  0  0  0
  146.8225   71.5082  220.0216 H   0  0  0  0  0  0  0  0  0  0  0  0
  146.4650   72.8064  222.0866 H   0  0  0  0  0  0  0  0  0  0  0  0
  144.8937   74.7151  222.0753 H   0  0  0  0  0  0  0  0  0  0  0  0
  143.9152   76.5307  220.3406 H   0  0  0  0  0  0  0  0  0  0  0  0
  143.1285   75.7235  218.8823 H   0  0  0  0  0  0  0  0  0  0  0  0
  142.2080   75.5960  221.6960 H   0  0  0  0  0  0  0  0  0  0  0  0
  139.4084   75.9223  221.2451 H   0  0  0  0  0  0  0  0  0  0  0  0
  138.9830   74.5677  220.0413 H   0  0  0  0  0  0  0  0  0  0  0  0
  139.1730   74.1840  222.7750 H   0  0  0  0  0  0  0  0  0  0  0  0
  139.1797   70.1989  221.7115 H   0  0  0  0  0  0  0  0  0  0  0  0
  139.0669   68.6406  223.6300 H   0  0  0  0  0  0  0  0  0  0  0  0
  139.5323   68.1557  225.9957 H   0  0  0  0  0  0  0  0  0  0  0  0
  141.4748   71.1569  228.3994 H   0  0  0  0  0  0  0  0  0  0  0  0
  141.5353   72.6310  226.4330 H   0  0  0  0  0  0  0  0  0  0  0  0
  144.0521   74.0232  217.9530 H   0  0  0  0  0  0  0  0  0  0  0  0
  1  2  1  0
  2  3  1  0
  3  4  2  0
  4  5  1  0
  5  6  2  0
  6  7  1  0
  7  8  1  0
  8  9  1  0
  9 10  1  0
 10 11  2  0
 10 12  1  0
 12 13  1  0
 13 14  1  0
 14 15  2  0
 14 16  1  0
 16 17  2  0
 17 18  1  0
 18 19  2  0
 19 20  1  0
 20 21  2  0
 21 22  1  0
 21 23  1  0
 23 24  2  0
 24 25  1  0
 25 26  2  0
  7 27  2  0
 27  3  1  0
 26 16  1  0
 25 19  1  0
  1 28  1  0
  1 29  1  0
  1 30  1  0
  4 31  1  0
  5 32  1  0
  6 33  1  0
  8 34  1  0
  8 35  1  0
  9 36  1  0
 12 37  1  0
 12 38  1  0
 13 39  1  0
 17 40  1  0
 18 41  1  0
 20 42  1  0
 23 43  1  0
 24 44  1  0
 27 45  1  0
M  END
>  <smiles>  (16) 
COc1cccc(CNC(=O)CNC(=O)c2ccc3cc(Cl)ccc3n2)c1

>  <score_type>  (16) 
oracle

>  <origin>  (16) 
autodockgpu

>  <m_score__min__energy>  (16) 
-8.1699999999999999

>  <m_primary>  (16) 
energy

>  <rmsd>  (16) 
3.3644356210821793

>  <m_score__min__rmsd>  (16) 
3.3644356210821793

>  <meeko>  (16) 
{"free_energy": -8.17, "intermolecular_energy": -9.96, "internal_energy": -1.11, "cluster_size": 8, "cluster_id": 1, "rank_in_cluster": 1}

>  <energy>  (16) 
-7.74

>  <cluster_rmsd>  (16) 
0.96

>  <cluster>  (16) 
2

$$$$

     RDKit          3D

 45 47  0  0  0  0  0  0  0  0999 V2000
  142.6050   80.9210  223.8090 C   0  0  0  0  0  0  0  0  0  0  0  0
  141.2970   80.5090  223.4920 O   0  0  0  0  0  0  0  0  0  0  0  0
  141.0000   79.3790  222.7690 C   0  0  0  0  0  0  0  0  0  0  0  0
  141.9510   78.9540  221.8430 C   0  0  0  0  0  0  0  0  0  0  0  0
  141.7390   77.8400  221.0810 C   0  0  0  0  0  0  0  0  0  0  0  0
  140.5590   77.1320  221.2380 C   0  0  0  0  0  0  0  0  0  0  0  0
  139.5870   77.5060  222.1370 C   0  0  0  0  0  0  0  0  0  0  0  0
  138.3190   76.7910  222.3500 C   0  0  0  0  0  0  0  0  0  0  0  0
  138.3370   75.3990  222.0320 N   0  0  0  0  0  0  0  0  0  0  0  0
  138.1830   74.8470  220.7360 C   0  0  0  0  0  0  0  0  0  0  0  0
  138.0080   75.6780  219.7750 O   0  0  0  0  0  0  0  0  0  0  0  0
  138.2030   73.4330  220.3900 C   0  0  0  0  0  0  0  0  0  0  0  0
  138.4580   72.4990  221.4290 N   0  0  0  0  0  0  0  0  0  0  0  0
  139.5220   72.6490  222.3620 C   0  0  0  0  0  0  0  0  0  0  0  0
  140.3280   73.6320  222.3280 O   0  0  0  0  0  0  0  0  0  0  0  0
  139.7150   71.6380  223.4160 C   0  0  0  0  0  0  0  0  0  0  0  0
  139.3800   70.3160  223.1990 C   0  0  0  0  0  0  0  0  0  0  0  0
  139.5680   69.3840  224.2040 C   0  0  0  0  0  0  0  0  0  0  0  0
  140.0870   69.7470  225.4300 C   0  0  0  0  0  0  0  0  0  0  0  0
  140.2910   68.8530  226.4620 C   0  0  0  0  0  0  0  0  0  0  0  0
  140.8160   69.2430  227.6890 C   0  0  0  0  0  0  0  0  0  0  0  0
  141.0840   68.1450  229.0040 Cl  0  0  0  0  0  0  0  0  0  0  0  0
  141.1380   70.5960  227.8570 C   0  0  0  0  0  0  0  0  0  0  0  0
  140.9270   71.4760  226.8150 C   0  0  0  0  0  0  0  0  0  0  0  0
  140.4080   71.0920  225.5970 C   0  0  0  0  0  0  0  0  0  0  0  0
  140.2200   71.9910  224.6120 N   0  0  0  0  0  0  0  0  0  0  0  0
  139.8470   78.6460  222.8900 C   0  0  0  0  0  0  0  0  0  0  0  0
  142.7230   80.9582  224.9020 H   0  0  0  0  0  0  0  0  0  0  0  0
  143.3270   80.2068  223.3864 H   0  0  0  0  0  0  0  0  0  0  0  0
  142.7873   81.9201  223.3864 H   0  0  0  0  0  0  0  0  0  0  0  0
  142.8848   79.5231  221.7241 H   0  0  0  0  0  0  0  0  0  0  0  0
  142.4948   77.5100  220.3531 H   0  0  0  0  0  0  0  0  0  0  0  0
  140.3927   76.2369  220.6206 H   0  0  0  0  0  0  0  0  0  0  0  0
  138.0467   76.8927  223.4109 H   0  0  0  0  0  0  0  0  0  0  0  0
  137.5947   77.2489  221.6603 H   0  0  0  0  0  0  0  0  0  0  0  0
  138.4670   74.7210  222.8150 H   0  0  0  0  0  0  0  0  0  0  0  0
  137.2203   73.1865  219.9616 H   0  0  0  0  0  0  0  0  0  0  0  0
  139.0593   73.3277  219.7076 H   0  0  0  0  0  0  0  0  0  0  0  0
  137.8580   71.6300  221.5620 H   0  0  0  0  0  0  0  0  0  0  0  0
  138.9646   70.0047  222.2292 H   0  0  0  0  0  0  0  0  0  0  0  0
  139.2985   68.3331  224.0222 H   0  0  0  0  0  0  0  0  0  0  0  0
  140.0292   67.7957  226.3083 H   0  0  0  0  0  0  0  0  0  0  0  0
  141.5549   70.9535  228.8101 H   0  0  0  0  0  0  0  0  0  0  0  0
  141.1854   72.5348  226.9636 H   0  0  0  0  0  0  0  0  0  0  0  0
  139.0912   78.9759  223.6180 H   0  0  0  0  0  0  0  0  0  0  0  0
  1  2  1  0
  2  3  1  0
  3  4  2  0
  4  5  1  0
  5  6  2  0
  6  7  1  0
  7  8  1  0
  8  9  1  0
  9 10  1  0
 10 11  2  0
 10 12  1  0
 12 13  1  0
 13 14  1  0
 14 15  2  0
 14 16  1  0
 16 17  2  0
 17 18  1  0
 18 19  2  0
 19 20  1  0
 20 21  2  0
 21 22  1  0
 21 23  1  0
 23 24  2  0
 24 25  1  0
 25 26  2  0
  7 27  2  0
 27  3  1  0
 26 16  1  0
 25 19  1  0
  1 28  1  0
  1 29  1  0
  1 30  1  0
  4 31  1  0
  5 32  1  0
  6 33  1  0
  8 34  1  0
  8 35  1  0
  9 36  1  0
 12 37  1  0
 12 38  1  0
 13 39  1  0
 17 40  1  0
 18 41  1  0
 20 42  1  0
 23 43  1  0
 24 44  1  0
 27 45  1  0
M  END
>  <smiles>  (17) 
COc1cccc(CNC(=O)CNC(=O)c2ccc3cc(Cl)ccc3n2)c1

>  <score_type>  (17) 
oracle

>  <origin>  (17) 
autodockgpu

>  <m_score__min__energy>  (17) 
-8.1699999999999999

>  <m_primary>  (17) 
energy

>  <rmsd>  (17) 
2.549125098817938

>  <m_score__min__rmsd>  (17) 
2.549125098817938

>  <meeko>  (17) 
{"free_energy": -7.83, "intermolecular_energy": -9.62, "internal_energy": -1.49, "cluster_size": 27, "cluster_id": 2, "rank_in_cluster": 5}

>  <energy>  (17) 
-7.74

>  <cluster_rmsd>  (17) 
1.73

>  <cluster>  (17) 
2

$$$$

     RDKit          3D

 45 47  0  0  0  0  0  0  0  0999 V2000
  146.3150   73.5330  216.2200 C   0  0  0  0  0  0  0  0  0  0  0  0
  146.2830   72.8790  217.4660 O   0  0  0  0  0  0  0  0  0  0  0  0
  145.5780   73.3320  218.5550 C   0  0  0  0  0  0  0  0  0  0  0  0
  146.0700   72.9880  219.8130 C   0  0  0  0  0  0  0  0  0  0  0  0
  145.4330   73.3960  220.9510 C   0  0  0  0  0  0  0  0  0  0  0  0
  144.2840   74.1610  220.8410 C   0  0  0  0  0  0  0  0  0  0  0  0
  143.7540   74.5300  219.6260 C   0  0  0  0  0  0  0  0  0  0  0  0
  142.5420   75.3430  219.4490 C   0  0  0  0  0  0  0  0  0  0  0  0
  141.3240   74.7350  219.8810 N   0  0  0  0  0  0  0  0  0  0  0  0
  140.6640   73.6610  219.2340 C   0  0  0  0  0  0  0  0  0  0  0  0
  141.2130   73.2090  218.1670 O   0  0  0  0  0  0  0  0  0  0  0  0
  139.4260   73.0230  219.6600 C   0  0  0  0  0  0  0  0  0  0  0  0
  139.4830   72.1400  220.7690 N   0  0  0  0  0  0  0  0  0  0  0  0
  139.9280   72.5430  222.0600 C   0  0  0  0  0  0  0  0  0  0  0  0
  140.3130   73.7280  222.3110 O   0  0  0  0  0  0  0  0  0  0  0  0
  139.9510   71.5650  223.1620 C   0  0  0  0  0  0  0  0  0  0  0  0
  139.4160   70.3030  222.9990 C   0  0  0  0  0  0  0  0  0  0  0  0
  139.4460   69.4010  224.0480 C   0  0  0  0  0  0  0  0  0  0  0  0
  140.0050   69.7370  225.2650 C   0  0  0  0  0  0  0  0  0  0  0  0
  140.0570   68.8710  226.3400 C   0  0  0  0  0  0  0  0  0  0  0  0
  140.6250   69.2320  227.5560 C   0  0  0  0  0  0  0  0  0  0  0  0
  140.7070   68.1690  228.9230 Cl  0  0  0  0  0  0  0  0  0  0  0  0
  141.1540   70.5240  227.6680 C   0  0  0  0  0  0  0  0  0  0  0  0
  141.0930   71.3760  226.5840 C   0  0  0  0  0  0  0  0  0  0  0  0
  140.5300   71.0210  225.3770 C   0  0  0  0  0  0  0  0  0  0  0  0
  140.4950   71.8910  224.3490 N   0  0  0  0  0  0  0  0  0  0  0  0
  144.4370   74.0910  218.4960 C   0  0  0  0  0  0  0  0  0  0  0  0
  146.3682   74.6203  216.3779 H   0  0  0  0  0  0  0  0  0  0  0  0
  147.1980   73.2010  215.6542 H   0  0  0  0  0  0  0  0  0  0  0  0
  145.4038   73.2888  215.6542 H   0  0  0  0  0  0  0  0  0  0  0  0
  146.9833   72.3799  219.8907 H   0  0  0  0  0  0  0  0  0  0  0  0
  145.8273   73.1207  221.9403 H   0  0  0  0  0  0  0  0  0  0  0  0
  143.7753   74.4863  221.7605 H   0  0  0  0  0  0  0  0  0  0  0  0
  142.6744   76.2762  220.0161 H   0  0  0  0  0  0  0  0  0  0  0  0
  142.4357   75.4936  218.3646 H   0  0  0  0  0  0  0  0  0  0  0  0
  140.8700   75.1100  220.7430 H   0  0  0  0  0  0  0  0  0  0  0  0
  138.7154   73.8233  219.9143 H   0  0  0  0  0  0  0  0  0  0  0  0
  139.1385   72.3838  218.8122 H   0  0  0  0  0  0  0  0  0  0  0  0
  139.1930   71.1180  220.6900 H   0  0  0  0  0  0  0  0  0  0  0  0
  138.9667   70.0149  222.0371 H   0  0  0  0  0  0  0  0  0  0  0  0
  139.0166   68.3978  223.9098 H   0  0  0  0  0  0  0  0  0  0  0  0
  139.6345   67.8614  226.2298 H   0  0  0  0  0  0  0  0  0  0  0  0
  141.6135   70.8563  228.6106 H   0  0  0  0  0  0  0  0  0  0  0  0
  141.5139   72.3869  226.6883 H   0  0  0  0  0  0  0  0  0  0  0  0
  144.0425   74.3662  217.5067 H   0  0  0  0  0  0  0  0  0  0  0  0
  1  2  1  0
  2  3  1  0
  3  4  2  0
  4  5  1  0
  5  6  2  0
  6  7  1  0
  7  8  1  0
  8  9  1  0
  9 10  1  0
 10 11  2  0
 10 12  1  0
 12 13  1  0
 13 14  1  0
 14 15  2  0
 14 16  1  0
 16 17  2  0
 17 18  1  0
 18 19  2  0
 19 20  1  0
 20 21  2  0
 21 22  1  0
 21 23  1  0
 23 24  2  0
 24 25  1  0
 25 26  2  0
  7 27  2  0
 27  3  1  0
 26 16  1  0
 25 19  1  0
  1 28  1  0
  1 29  1  0
  1 30  1  0
  4 31  1  0
  5 32  1  0
  6 33  1  0
  8 34  1  0
  8 35  1  0
  9 36  1  0
 12 37  1  0
 12 38  1  0
 13 39  1  0
 17 40  1  0
 18 41  1  0
 20 42  1  0
 23 43  1  0
 24 44  1  0
 27 45  1  0
M  END
>  <smiles>  (18) 
COc1cccc(CNC(=O)CNC(=O)c2ccc3cc(Cl)ccc3n2)c1

>  <score_type>  (18) 
oracle

>  <origin>  (18) 
autodockgpu

>  <m_score__min__energy>  (18) 
-8.1699999999999999

>  <m_primary>  (18) 
energy

>  <rmsd>  (18) 
3.0834132221857184

>  <m_score__min__rmsd>  (18) 
3.0834132221857184

>  <meeko>  (18) 
{"free_energy": -7.47, "intermolecular_energy": -9.26, "internal_energy": -1.63, "cluster_size": 8, "cluster_id": 1, "rank_in_cluster": 7}

>  <energy>  (18) 
-7.73

>  <cluster_rmsd>  (18) 
1.71

>  <cluster>  (18) 
2

$$$$

     RDKit          3D

 45 47  0  0  0  0  0  0  0  0999 V2000
  137.7250   80.3900  223.7240 C   0  0  0  0  0  0  0  0  0  0  0  0
  139.0180   80.6920  224.1900 O   0  0  0  0  0  0  0  0  0  0  0  0
  140.1730   80.2140  223.6180 C   0  0  0  0  0  0  0  0  0  0  0  0
  141.3420   80.9320  223.8630 C   0  0  0  0  0  0  0  0  0  0  0  0
  142.5360   80.5300  223.3350 C   0  0  0  0  0  0  0  0  0  0  0  0
  142.5740   79.3910  222.5470 C   0  0  0  0  0  0  0  0  0  0  0  0
  141.4510   78.6440  222.2740 C   0  0  0  0  0  0  0  0  0  0  0  0
  141.4320   77.4260  221.4500 C   0  0  0  0  0  0  0  0  0  0  0  0
  140.4000   76.4890  221.7600 N   0  0  0  0  0  0  0  0  0  0  0  0
  139.8750   75.5170  220.8740 C   0  0  0  0  0  0  0  0  0  0  0  0
  140.3720   75.4890  219.6920 O   0  0  0  0  0  0  0  0  0  0  0  0
  138.8270   74.5500  221.1720 C   0  0  0  0  0  0  0  0  0  0  0  0
  139.0800   73.5900  222.1860 N   0  0  0  0  0  0  0  0  0  0  0  0
  138.8710   72.1940  222.0020 C   0  0  0  0  0  0  0  0  0  0  0  0
  138.4370   71.7060  220.9110 O   0  0  0  0  0  0  0  0  0  0  0  0
  139.1650   71.2610  223.1040 C   0  0  0  0  0  0  0  0  0  0  0  0
  138.7890   69.9350  223.0280 C   0  0  0  0  0  0  0  0  0  0  0  0
  139.0740   69.0770  224.0760 C   0  0  0  0  0  0  0  0  0  0  0  0
  139.7300   69.5200  225.2060 C   0  0  0  0  0  0  0  0  0  0  0  0
  140.0340   68.7020  226.2760 C   0  0  0  0  0  0  0  0  0  0  0  0
  140.6970   69.1720  227.4040 C   0  0  0  0  0  0  0  0  0  0  0  0
  141.0940   68.1700  228.7630 Cl  0  0  0  0  0  0  0  0  0  0  0  0
  141.0560   70.5250  227.4300 C   0  0  0  0  0  0  0  0  0  0  0  0
  140.7440   71.3290  226.3530 C   0  0  0  0  0  0  0  0  0  0  0  0
  140.0870   70.8660  225.2320 C   0  0  0  0  0  0  0  0  0  0  0  0
  139.8050   71.6920  224.2070 N   0  0  0  0  0  0  0  0  0  0  0  0
  140.2590   79.0930  222.8330 C   0  0  0  0  0  0  0  0  0  0  0  0
  137.0537   80.2332  224.5812 H   0  0  0  0  0  0  0  0  0  0  0  0
  137.3510   81.2250  223.1133 H   0  0  0  0  0  0  0  0  0  0  0  0
  137.7596   79.4758  223.1133 H   0  0  0  0  0  0  0  0  0  0  0  0
  141.3027   81.8348  224.4902 H   0  0  0  0  0  0  0  0  0  0  0  0
  143.4543   81.1024  223.5326 H   0  0  0  0  0  0  0  0  0  0  0  0
  143.5379   79.0719  222.1238 H   0  0  0  0  0  0  0  0  0  0  0  0
  141.3097   77.7294  220.3998 H   0  0  0  0  0  0  0  0  0  0  0  0
  142.3807   76.9084  221.6550 H   0  0  0  0  0  0  0  0  0  0  0  0
  139.9850   76.5190  222.7180 H   0  0  0  0  0  0  0  0  0  0  0  0
  137.9336   75.1170  221.4728 H   0  0  0  0  0  0  0  0  0  0  0  0
  138.7263   73.9584  220.2501 H   0  0  0  0  0  0  0  0  0  0  0  0
  139.4420   73.8700  223.1470 H   0  0  0  0  0  0  0  0  0  0  0  0
  138.2641   69.5611  222.1366 H   0  0  0  0  0  0  0  0  0  0  0  0
  138.7717   68.0216  224.0066 H   0  0  0  0  0  0  0  0  0  0  0  0
  139.7416   67.6424  226.2345 H   0  0  0  0  0  0  0  0  0  0  0  0
  141.5819   70.9432  228.3010 H   0  0  0  0  0  0  0  0  0  0  0  0
  141.0330   72.3897  226.3901 H   0  0  0  0  0  0  0  0  0  0  0  0
  139.3405   78.5208  222.6357 H   0  0  0  0  0  0  0  0  0  0  0  0
  1  2  1  0
  2  3  1  0
  3  4  2  0
  4  5  1  0
  5  6  2  0
  6  7  1  0
  7  8  1  0
  8  9  1  0
  9 10  1  0
 10 11  2  0
 10 12  1  0
 12 13  1  0
 13 14  1  0
 14 15  2  0
 14 16  1  0
 16 17  2  0
 17 18  1  0
 18 19  2  0
 19 20  1  0
 20 21  2  0
 21 22  1  0
 21 23  1  0
 23 24  2  0
 24 25  1  0
 25 26  2  0
  7 27  2  0
 27  3  1  0
 26 16  1  0
 25 19  1  0
  1 28  1  0
  1 29  1  0
  1 30  1  0
  4 31  1  0
  5 32  1  0
  6 33  1  0
  8 34  1  0
  8 35  1  0
  9 36  1  0
 12 37  1  0
 12 38  1  0
 13 39  1  0
 17 40  1  0
 18 41  1  0
 20 42  1  0
 23 43  1  0
 24 44  1  0
 27 45  1  0
M  END
>  <smiles>  (19) 
COc1cccc(CNC(=O)CNC(=O)c2ccc3cc(Cl)ccc3n2)c1

>  <score_type>  (19) 
oracle

>  <origin>  (19) 
autodockgpu

>  <m_score__min__energy>  (19) 
-8.1699999999999999

>  <m_primary>  (19) 
energy

>  <rmsd>  (19) 
3.0523738481342986

>  <m_score__min__rmsd>  (19) 
3.0523738481342986

>  <meeko>  (19) 
{"free_energy": -7.77, "intermolecular_energy": -9.56, "internal_energy": -1.02, "cluster_size": 27, "cluster_id": 2, "rank_in_cluster": 7}

>  <energy>  (19) 
-7.69

>  <cluster_rmsd>  (19) 
1.73

>  <cluster>  (19) 
2

$$$$

     RDKit          3D

 45 47  0  0  0  0  0  0  0  0999 V2000
  141.0890   72.2270  227.9680 C   0  0  0  0  0  0  0  0  0  0  0  0
  141.1600   71.5930  226.7130 O   0  0  0  0  0  0  0  0  0  0  0  0
  140.6210   70.3580  226.4430 C   0  0  0  0  0  0  0  0  0  0  0  0
  140.7020   69.3990  227.4510 C   0  0  0  0  0  0  0  0  0  0  0  0
  140.1920   68.1450  227.2700 C   0  0  0  0  0  0  0  0  0  0  0  0
  139.5890   67.8330  226.0620 C   0  0  0  0  0  0  0  0  0  0  0  0
  139.4810   68.7400  225.0330 C   0  0  0  0  0  0  0  0  0  0  0  0
  138.8480   68.4660  223.7340 C   0  0  0  0  0  0  0  0  0  0  0  0
  138.3200   69.6060  223.0550 N   0  0  0  0  0  0  0  0  0  0  0  0
  137.1580   70.3250  223.4310 C   0  0  0  0  0  0  0  0  0  0  0  0
  136.5330   69.9040  224.4680 O   0  0  0  0  0  0  0  0  0  0  0  0
  136.6060   71.4920  222.7560 C   0  0  0  0  0  0  0  0  0  0  0  0
  137.3990   72.6670  222.7080 N   0  0  0  0  0  0  0  0  0  0  0  0
  138.6060   72.7600  221.9580 C   0  0  0  0  0  0  0  0  0  0  0  0
  139.0620   71.7880  221.2770 O   0  0  0  0  0  0  0  0  0  0  0  0
  139.3680   74.0200  221.9550 C   0  0  0  0  0  0  0  0  0  0  0  0
  140.6900   74.0460  221.5580 C   0  0  0  0  0  0  0  0  0  0  0  0
  141.3880   75.2410  221.5660 C   0  0  0  0  0  0  0  0  0  0  0  0
  140.7880   76.4190  221.9650 C   0  0  0  0  0  0  0  0  0  0  0  0
  141.4450   77.6330  221.9890 C   0  0  0  0  0  0  0  0  0  0  0  0
  140.8180   78.8060  222.3960 C   0  0  0  0  0  0  0  0  0  0  0  0
  141.6140   80.3460  222.4370 Cl  0  0  0  0  0  0  0  0  0  0  0  0
  139.4760   78.7240  222.7890 C   0  0  0  0  0  0  0  0  0  0  0  0
  138.8360   77.5020  222.7580 C   0  0  0  0  0  0  0  0  0  0  0  0
  139.4540   76.3370  222.3560 C   0  0  0  0  0  0  0  0  0  0  0  0
  138.7850   75.1680  222.3450 N   0  0  0  0  0  0  0  0  0  0  0  0
  140.0140   70.0030  225.2650 C   0  0  0  0  0  0  0  0  0  0  0  0
  141.1734   71.4734  228.7648 H   0  0  0  0  0  0  0  0  0  0  0  0
  141.9116   72.9515  228.0599 H   0  0  0  0  0  0  0  0  0  0  0  0
  140.1265   72.7515  228.0599 H   0  0  0  0  0  0  0  0  0  0  0  0
  141.1836   69.6557  228.4061 H   0  0  0  0  0  0  0  0  0  0  0  0
  140.2589   67.3941  228.0710 H   0  0  0  0  0  0  0  0  0  0  0  0
  139.1810   66.8213  225.9203 H   0  0  0  0  0  0  0  0  0  0  0  0
  139.6016   68.0015  223.0810 H   0  0  0  0  0  0  0  0  0  0  0  0
  137.9866   67.8165  223.9487 H   0  0  0  0  0  0  0  0  0  0  0  0
  138.8210   69.9430  222.2030 H   0  0  0  0  0  0  0  0  0  0  0  0
  136.3912   71.1989  221.7177 H   0  0  0  0  0  0  0  0  0  0  0  0
  135.7318   71.7734  223.3614 H   0  0  0  0  0  0  0  0  0  0  0  0
  137.1290   73.5500  223.2390 H   0  0  0  0  0  0  0  0  0  0  0  0
  141.1873   73.1191  221.2361 H   0  0  0  0  0  0  0  0  0  0  0  0
  142.4411   75.2527  221.2484 H   0  0  0  0  0  0  0  0  0  0  0  0
  142.4988   77.6740  221.6760 H   0  0  0  0  0  0  0  0  0  0  0  0
  138.9378   79.6248  223.1190 H   0  0  0  0  0  0  0  0  0  0  0  0
  137.7819   77.4551  223.0690 H   0  0  0  0  0  0  0  0  0  0  0  0
  139.9457   70.7545  224.4647 H   0  0  0  0  0  0  0  0  0  0  0  0
  1  2  1  0
  2  3  1  0
  3  4  2  0
  4  5  1  0
  5  6  2  0
  6  7  1  0
  7  8  1  0
  8  9  1  0
  9 10  1  0
 10 11  2  0
 10 12  1  0
 12 13  1  0
 13 14  1  0
 14 15  2  0
 14 16  1  0
 16 17  2  0
 17 18  1  0
 18 19  2  0
 19 20  1  0
 20 21  2  0
 21 22  1  0
 21 23  1  0
 23 24  2  0
 24 25  1  0
 25 26  2  0
  7 27  2  0
 27  3  1  0
 26 16  1  0
 25 19  1  0
  1 28  1  0
  1 29  1  0
  1 30  1  0
  4 31  1  0
  5 32  1  0
  6 33  1  0
  8 34  1  0
  8 35  1  0
  9 36  1  0
 12 37  1  0
 12 38  1  0
 13 39  1  0
 17 40  1  0
 18 41  1  0
 20 42  1  0
 23 43  1  0
 24 44  1  0
 27 45  1  0
M  END
>  <smiles>  (20) 
COc1cccc(CNC(=O)CNC(=O)c2ccc3cc(Cl)ccc3n2)c1

>  <score_type>  (20) 
oracle

>  <origin>  (20) 
autodockgpu

>  <m_score__min__energy>  (20) 
-8.1699999999999999

>  <m_primary>  (20) 
energy

>  <rmsd>  (20) 
8.09996465090096

>  <m_score__min__rmsd>  (20) 
8.09996465090096

>  <meeko>  (20) 
{"free_energy": -7.16, "intermolecular_energy": -8.95, "internal_energy": -1.99, "cluster_size": 14, "cluster_id": 3, "rank_in_cluster": 6}

>  <energy>  (20) 
-7.69

>  <cluster_rmsd>  (20) 
1.73

>  <cluster>  (20) 
2

$$$$

     RDKit          3D

 45 47  0  0  0  0  0  0  0  0999 V2000
  138.0140   81.2320  224.4270 C   0  0  0  0  0  0  0  0  0  0  0  0
  139.2420   80.7970  223.8950 O   0  0  0  0  0  0  0  0  0  0  0  0
  139.4570   79.5410  223.3810 C   0  0  0  0  0  0  0  0  0  0  0  0
  140.7810   79.1650  223.1660 C   0  0  0  0  0  0  0  0  0  0  0  0
  141.0880   77.9340  222.6580 C   0  0  0  0  0  0  0  0  0  0  0  0
  140.0600   77.0560  222.3560 C   0  0  0  0  0  0  0  0  0  0  0  0
  138.7350   77.3750  222.5480 C   0  0  0  0  0  0  0  0  0  0  0  0
  137.6040   76.4830  222.2500 C   0  0  0  0  0  0  0  0  0  0  0  0
  137.9510   75.1350  221.9330 N   0  0  0  0  0  0  0  0  0  0  0  0
  137.8760   74.5440  220.6470 C   0  0  0  0  0  0  0  0  0  0  0  0
  137.4530   75.2930  219.6960 O   0  0  0  0  0  0  0  0  0  0  0  0
  138.2290   73.1750  220.3020 C   0  0  0  0  0  0  0  0  0  0  0  0
  138.4880   72.2690  221.3630 N   0  0  0  0  0  0  0  0  0  0  0  0
  139.4700   72.5090  222.3660 C   0  0  0  0  0  0  0  0  0  0  0  0
  140.1910   73.5560  222.3780 O   0  0  0  0  0  0  0  0  0  0  0  0
  139.6730   71.5210  223.4390 C   0  0  0  0  0  0  0  0  0  0  0  0
  139.3570   70.1910  223.2450 C   0  0  0  0  0  0  0  0  0  0  0  0
  139.5540   69.2800  224.2680 C   0  0  0  0  0  0  0  0  0  0  0  0
  140.0630   69.6730  225.4900 C   0  0  0  0  0  0  0  0  0  0  0  0
  140.2760   68.8000  226.5380 C   0  0  0  0  0  0  0  0  0  0  0  0
  140.7900   69.2210  227.7600 C   0  0  0  0  0  0  0  0  0  0  0  0
  141.0690   68.1510  229.0950 Cl  0  0  0  0  0  0  0  0  0  0  0  0
  141.0930   70.5810  227.9040 C   0  0  0  0  0  0  0  0  0  0  0  0
  140.8740   71.4390  226.8450 C   0  0  0  0  0  0  0  0  0  0  0  0
  140.3640   71.0250  225.6330 C   0  0  0  0  0  0  0  0  0  0  0  0
  140.1680   71.9030  224.6300 N   0  0  0  0  0  0  0  0  0  0  0  0
  138.4730   78.6380  223.0670 C   0  0  0  0  0  0  0  0  0  0  0  0
  138.0636   81.2144  225.5257 H   0  0  0  0  0  0  0  0  0  0  0  0
  137.8091   82.2574  224.0856 H   0  0  0  0  0  0  0  0  0  0  0  0
  137.2094   80.5642  224.0856 H   0  0  0  0  0  0  0  0  0  0  0  0
  141.5908   79.8689  223.4085 H   0  0  0  0  0  0  0  0  0  0  0  0
  142.1361   77.6446  222.4914 H   0  0  0  0  0  0  0  0  0  0  0  0
  140.3122   76.0664  221.9473 H   0  0  0  0  0  0  0  0  0  0  0  0
  136.9453   76.4651  223.1308 H   0  0  0  0  0  0  0  0  0  0  0  0
  137.1266   76.8921  221.3473 H   0  0  0  0  0  0  0  0  0  0  0  0
  138.2840   74.5200  222.7090 H   0  0  0  0  0  0  0  0  0  0  0  0
  137.3975   72.7607  219.7130 H   0  0  0  0  0  0  0  0  0  0  0  0
  139.1895   73.2625  219.7731 H   0  0  0  0  0  0  0  0  0  0  0  0
  137.9550   71.3530  221.4630 H   0  0  0  0  0  0  0  0  0  0  0  0
  138.9496   69.8563  222.2796 H   0  0  0  0  0  0  0  0  0  0  0  0
  139.3002   68.2222  224.1045 H   0  0  0  0  0  0  0  0  0  0  0  0
  140.0311   67.7362  226.4022 H   0  0  0  0  0  0  0  0  0  0  0  0
  141.5015   70.9616  228.8518 H   0  0  0  0  0  0  0  0  0  0  0  0
  141.1180   72.5038  226.9744 H   0  0  0  0  0  0  0  0  0  0  0  0
  137.4250   78.9275  223.2341 H   0  0  0  0  0  0  0  0  0  0  0  0
  1  2  1  0
  2  3  1  0
  3  4  2  0
  4  5  1  0
  5  6  2  0
  6  7  1  0
  7  8  1  0
  8  9  1  0
  9 10  1  0
 10 11  2  0
 10 12  1  0
 12 13  1  0
 13 14  1  0
 14 15  2  0
 14 16  1  0
 16 17  2  0
 17 18  1  0
 18 19  2  0
 19 20  1  0
 20 21  2  0
 21 22  1  0
 21 23  1  0
 23 24  2  0
 24 25  1  0
 25 26  2  0
  7 27  2  0
 27  3  1  0
 26 16  1  0
 25 19  1  0
  1 28  1  0
  1 29  1  0
  1 30  1  0
  4 31  1  0
  5 32  1  0
  6 33  1  0
  8 34  1  0
  8 35  1  0
  9 36  1  0
 12 37  1  0
 12 38  1  0
 13 39  1  0
 17 40  1  0
 18 41  1  0
 20 42  1  0
 23 43  1  0
 24 44  1  0
 27 45  1  0
M  END
>  <smiles>  (21) 
COc1cccc(CNC(=O)CNC(=O)c2ccc3cc(Cl)ccc3n2)c1

>  <score_type>  (21) 
oracle

>  <origin>  (21) 
autodockgpu

>  <m_score__min__energy>  (21) 
-8.1699999999999999

>  <m_primary>  (21) 
energy

>  <rmsd>  (21) 
2.7934540722739487

>  <m_score__min__rmsd>  (21) 
2.7934540722739487

>  <meeko>  (21) 
{"free_energy": -7.73, "intermolecular_energy": -9.52, "internal_energy": -1.56, "cluster_size": 27, "cluster_id": 2, "rank_in_cluster": 10}

>  <energy>  (21) 
-7.67

>  <cluster_rmsd>  (21) 
1.25

>  <cluster>  (21) 
2

$$$$

     RDKit          3D

 45 47  0  0  0  0  0  0  0  0999 V2000
  141.4130   81.5850  219.6310 C   0  0  0  0  0  0  0  0  0  0  0  0
  141.7570   81.5080  220.9930 O   0  0  0  0  0  0  0  0  0  0  0  0
  141.5140   80.4130  221.7880 C   0  0  0  0  0  0  0  0  0  0  0  0
  142.3920   80.1950  222.8480 C   0  0  0  0  0  0  0  0  0  0  0  0
  142.2260   79.1320  223.6890 C   0  0  0  0  0  0  0  0  0  0  0  0
  141.1680   78.2630  223.4750 C   0  0  0  0  0  0  0  0  0  0  0  0
  140.2710   78.4310  222.4450 C   0  0  0  0  0  0  0  0  0  0  0  0
  139.1290   77.5460  222.1730 C   0  0  0  0  0  0  0  0  0  0  0  0
  139.4620   76.2140  221.7810 N   0  0  0  0  0  0  0  0  0  0  0  0
  140.6110   75.8330  221.0440 C   0  0  0  0  0  0  0  0  0  0  0  0
  141.4090   76.7760  220.7000 O   0  0  0  0  0  0  0  0  0  0  0  0
  140.9710   74.4820  220.6390 C   0  0  0  0  0  0  0  0  0  0  0  0
  140.9800   73.4710  221.6350 N   0  0  0  0  0  0  0  0  0  0  0  0
  139.7920   72.9410  222.2130 C   0  0  0  0  0  0  0  0  0  0  0  0
  138.6320   73.3420  221.8790 O   0  0  0  0  0  0  0  0  0  0  0  0
  139.8860   71.8880  223.2380 C   0  0  0  0  0  0  0  0  0  0  0  0
  139.4880   70.5950  222.9630 C   0  0  0  0  0  0  0  0  0  0  0  0
  139.5840   69.6220  223.9420 C   0  0  0  0  0  0  0  0  0  0  0  0
  140.0730   69.9150  225.1990 C   0  0  0  0  0  0  0  0  0  0  0  0
  140.1870   68.9770  226.2060 C   0  0  0  0  0  0  0  0  0  0  0  0
  140.6830   69.2980  227.4650 C   0  0  0  0  0  0  0  0  0  0  0  0
  140.8390   68.1450  228.7500 Cl  0  0  0  0  0  0  0  0  0  0  0  0
  141.0730   70.6240  227.6910 C   0  0  0  0  0  0  0  0  0  0  0  0
  140.9520   71.5480  226.6730 C   0  0  0  0  0  0  0  0  0  0  0  0
  140.4610   71.2330  225.4240 C   0  0  0  0  0  0  0  0  0  0  0  0
  140.3620   72.1730  224.4640 N   0  0  0  0  0  0  0  0  0  0  0  0
  140.4810   79.5270  221.6150 C   0  0  0  0  0  0  0  0  0  0  0  0
  140.3436   81.8244  219.5359 H   0  0  0  0  0  0  0  0  0  0  0  0
  142.0094   82.3719  219.1461 H   0  0  0  0  0  0  0  0  0  0  0  0
  141.6171   80.6190  219.1461 H   0  0  0  0  0  0  0  0  0  0  0  0
  143.2303   80.8887  223.0095 H   0  0  0  0  0  0  0  0  0  0  0  0
  142.9223   78.9678  224.5246 H   0  0  0  0  0  0  0  0  0  0  0  0
  141.0404   77.4069  224.1538 H   0  0  0  0  0  0  0  0  0  0  0  0
  138.5203   77.4878  223.0874 H   0  0  0  0  0  0  0  0  0  0  0  0
  138.6013   77.9895  221.3158 H   0  0  0  0  0  0  0  0  0  0  0  0
  138.8060   75.4470  222.0500 H   0  0  0  0  0  0  0  0  0  0  0  0
  140.2562   74.1711  219.8629 H   0  0  0  0  0  0  0  0  0  0  0  0
  142.0195   74.5607  220.3160 H   0  0  0  0  0  0  0  0  0  0  0  0
  141.8880   73.0550  222.0050 H   0  0  0  0  0  0  0  0  0  0  0  0
  139.0955   70.3389  221.9678 H   0  0  0  0  0  0  0  0  0  0  0  0
  139.2642   68.5945  223.7140 H   0  0  0  0  0  0  0  0  0  0  0  0
  139.8751   67.9413  226.0057 H   0  0  0  0  0  0  0  0  0  0  0  0
  141.4720   70.9261  228.6706 H   0  0  0  0  0  0  0  0  0  0  0  0
  141.2621   72.5853  226.8676 H   0  0  0  0  0  0  0  0  0  0  0  0
  139.7850   79.6914  220.7792 H   0  0  0  0  0  0  0  0  0  0  0  0
  1  2  1  0
  2  3  1  0
  3  4  2  0
  4  5  1  0
  5  6  2  0
  6  7  1  0
  7  8  1  0
  8  9  1  0
  9 10  1  0
 10 11  2  0
 10 12  1  0
 12 13  1  0
 13 14  1  0
 14 15  2  0
 14 16  1  0
 16 17  2  0
 17 18  1  0
 18 19  2  0
 19 20  1  0
 20 21  2  0
 21 22  1  0
 21 23  1  0
 23 24  2  0
 24 25  1  0
 25 26  2  0
  7 27  2  0
 27  3  1  0
 26 16  1  0
 25 19  1  0
  1 28  1  0
  1 29  1  0
  1 30  1  0
  4 31  1  0
  5 32  1  0
  6 33  1  0
  8 34  1  0
  8 35  1  0
  9 36  1  0
 12 37  1  0
 12 38  1  0
 13 39  1  0
 17 40  1  0
 18 41  1  0
 20 42  1  0
 23 43  1  0
 24 44  1  0
 27 45  1  0
M  END
>  <smiles>  (22) 
COc1cccc(CNC(=O)CNC(=O)c2ccc3cc(Cl)ccc3n2)c1

>  <score_type>  (22) 
oracle

>  <origin>  (22) 
autodockgpu

>  <m_score__min__energy>  (22) 
-8.1699999999999999

>  <m_primary>  (22) 
energy

>  <rmsd>  (22) 
3.2285136438679256

>  <m_score__min__rmsd>  (22) 
3.2285136438679256

>  <meeko>  (22) 
{"free_energy": -7.25, "intermolecular_energy": -9.04, "internal_energy": -1.49, "cluster_size": 27, "cluster_id": 2, "rank_in_cluster": 26}

>  <energy>  (22) 
-7.56

>  <cluster_rmsd>  (22) 
1.65

>  <cluster>  (22) 
2

$$$$

     RDKit          3D

 45 47  0  0  0  0  0  0  0  0999 V2000
  141.0510   82.6660  221.3090 C   0  0  0  0  0  0  0  0  0  0  0  0
  141.8010   81.8490  222.1750 O   0  0  0  0  0  0  0  0  0  0  0  0
  141.5180   80.5270  222.4220 C   0  0  0  0  0  0  0  0  0  0  0  0
  142.0920   79.9610  223.5590 C   0  0  0  0  0  0  0  0  0  0  0  0
  141.8660   78.6530  223.8820 C   0  0  0  0  0  0  0  0  0  0  0  0
  141.0530   77.8880  223.0610 C   0  0  0  0  0  0  0  0  0  0  0  0
  140.4610   78.3950  221.9270 C   0  0  0  0  0  0  0  0  0  0  0  0
  139.5880   77.6330  221.0230 C   0  0  0  0  0  0  0  0  0  0  0  0
  139.9580   76.2700  220.8120 N   0  0  0  0  0  0  0  0  0  0  0  0
  141.2590   75.8090  220.4910 C   0  0  0  0  0  0  0  0  0  0  0  0
  142.1720   76.7020  220.3740 O   0  0  0  0  0  0  0  0  0  0  0  0
  141.6590   74.4250  220.2780 C   0  0  0  0  0  0  0  0  0  0  0  0
  141.4300   73.5000  221.3290 N   0  0  0  0  0  0  0  0  0  0  0  0
  140.1340   73.0200  221.6700 C   0  0  0  0  0  0  0  0  0  0  0  0
  139.0840   73.3920  221.0580 O   0  0  0  0  0  0  0  0  0  0  0  0
  139.9810   72.0530  222.7720 C   0  0  0  0  0  0  0  0  0  0  0  0
  139.1780   70.9390  222.6300 C   0  0  0  0  0  0  0  0  0  0  0  0
  139.0480   70.0460  223.6790 C   0  0  0  0  0  0  0  0  0  0  0  0
  139.7080   70.2440  224.8750 C   0  0  0  0  0  0  0  0  0  0  0  0
  139.6080   69.3800  225.9470 C   0  0  0  0  0  0  0  0  0  0  0  0
  140.2840   69.6010  227.1420 C   0  0  0  0  0  0  0  0  0  0  0  0
  140.1790   68.5370  228.5070 Cl  0  0  0  0  0  0  0  0  0  0  0  0
  141.0850   70.7460  227.2340 C   0  0  0  0  0  0  0  0  0  0  0  0
  141.1730   71.5980  226.1520 C   0  0  0  0  0  0  0  0  0  0  0  0
  140.5050   71.3820  224.9650 C   0  0  0  0  0  0  0  0  0  0  0  0
  140.6240   72.2450  223.9390 N   0  0  0  0  0  0  0  0  0  0  0  0
  140.7210   79.7310  221.6390 C   0  0  0  0  0  0  0  0  0  0  0  0
  140.4239   83.3491  221.9008 H   0  0  0  0  0  0  0  0  0  0  0  0
  141.7330   83.2512  220.6746 H   0  0  0  0  0  0  0  0  0  0  0  0
  140.4097   82.0364  220.6746 H   0  0  0  0  0  0  0  0  0  0  0  0
  142.7358   80.5759  224.2051 H   0  0  0  0  0  0  0  0  0  0  0  0
  142.3228   78.2134  224.7809 H   0  0  0  0  0  0  0  0  0  0  0  0
  140.8741   76.8355  223.3259 H   0  0  0  0  0  0  0  0  0  0  0  0
  138.5714   77.6467  221.4429 H   0  0  0  0  0  0  0  0  0  0  0  0
  139.6702   78.1227  220.0414 H   0  0  0  0  0  0  0  0  0  0  0  0
  139.2140   75.5430  220.8950 H   0  0  0  0  0  0  0  0  0  0  0  0
  141.1153   74.0588  219.3947 H   0  0  0  0  0  0  0  0  0  0  0  0
  142.7538   74.4657  220.1791 H   0  0  0  0  0  0  0  0  0  0  0  0
  142.2260   73.1140  221.9220 H   0  0  0  0  0  0  0  0  0  0  0  0
  138.6429   70.7617  221.6854 H   0  0  0  0  0  0  0  0  0  0  0  0
  138.4061   69.1610  223.5574 H   0  0  0  0  0  0  0  0  0  0  0  0
  138.9725   68.4871  225.8528 H   0  0  0  0  0  0  0  0  0  0  0  0
  141.6384   70.9640  228.1593 H   0  0  0  0  0  0  0  0  0  0  0  0
  141.8067   72.4928  226.2406 H   0  0  0  0  0  0  0  0  0  0  0  0
  140.2652   80.1706  220.7395 H   0  0  0  0  0  0  0  0  0  0  0  0
  1  2  1  0
  2  3  1  0
  3  4  2  0
  4  5  1  0
  5  6  2  0
  6  7  1  0
  7  8  1  0
  8  9  1  0
  9 10  1  0
 10 11  2  0
 10 12  1  0
 12 13  1  0
 13 14  1  0
 14 15  2  0
 14 16  1  0
 16 17  2  0
 17 18  1  0
 18 19  2  0
 19 20  1  0
 20 21  2  0
 21 22  1  0
 21 23  1  0
 23 24  2  0
 24 25  1  0
 25 26  2  0
  7 27  2  0
 27  3  1  0
 26 16  1  0
 25 19  1  0
  1 28  1  0
  1 29  1  0
  1 30  1  0
  4 31  1  0
  5 32  1  0
  6 33  1  0
  8 34  1  0
  8 35  1  0
  9 36  1  0
 12 37  1  0
 12 38  1  0
 13 39  1  0
 17 40  1  0
 18 41  1  0
 20 42  1  0
 23 43  1  0
 24 44  1  0
 27 45  1  0
M  END
>  <smiles>  (23) 
COc1cccc(CNC(=O)CNC(=O)c2ccc3cc(Cl)ccc3n2)c1

>  <score_type>  (23) 
oracle

>  <origin>  (23) 
autodockgpu

>  <m_score__min__energy>  (23) 
-8.1699999999999999

>  <m_primary>  (23) 
energy

>  <rmsd>  (23) 
3.2082131662890987

>  <m_score__min__rmsd>  (23) 
3.2082131662890987

>  <meeko>  (23) 
{"free_energy": -6.96, "intermolecular_energy": -8.75, "internal_energy": -1.7, "cluster_size": 27, "cluster_id": 2, "rank_in_cluster": 27}

>  <energy>  (23) 
-7.52

>  <cluster_rmsd>  (23) 
1.75

>  <cluster>  (23) 
2

$$$$

     RDKit          3D

 45 47  0  0  0  0  0  0  0  0999 V2000
  141.7950   80.8680  219.1570 C   0  0  0  0  0  0  0  0  0  0  0  0
  141.6910   81.2530  220.5070 O   0  0  0  0  0  0  0  0  0  0  0  0
  141.5060   80.3730  221.5460 C   0  0  0  0  0  0  0  0  0  0  0  0
  142.5930   80.1570  222.3910 C   0  0  0  0  0  0  0  0  0  0  0  0
  142.4980   79.2990  223.4500 C   0  0  0  0  0  0  0  0  0  0  0  0
  141.3020   78.6390  223.6770 C   0  0  0  0  0  0  0  0  0  0  0  0
  140.1970   78.8150  222.8750 C   0  0  0  0  0  0  0  0  0  0  0  0
  138.9020   78.1460  223.0700 C   0  0  0  0  0  0  0  0  0  0  0  0
  138.8590   76.7680  222.6990 N   0  0  0  0  0  0  0  0  0  0  0  0
  139.2940   76.2330  221.4610 C   0  0  0  0  0  0  0  0  0  0  0  0
  139.7590   77.0690  220.6060 O   0  0  0  0  0  0  0  0  0  0  0  0
  139.2640   74.8320  221.0640 C   0  0  0  0  0  0  0  0  0  0  0  0
  139.4200   73.8530  222.0790 N   0  0  0  0  0  0  0  0  0  0  0  0
  139.3380   72.4540  221.8260 C   0  0  0  0  0  0  0  0  0  0  0  0
  139.1140   71.9820  220.6670 O   0  0  0  0  0  0  0  0  0  0  0  0
  139.5190   71.5010  222.9340 C   0  0  0  0  0  0  0  0  0  0  0  0
  139.1170   70.1860  222.8090 C   0  0  0  0  0  0  0  0  0  0  0  0
  139.2950   69.3080  223.8640 C   0  0  0  0  0  0  0  0  0  0  0  0
  139.8690   69.7200  225.0500 C   0  0  0  0  0  0  0  0  0  0  0  0
  140.0650   68.8810  226.1290 C   0  0  0  0  0  0  0  0  0  0  0  0
  140.6470   69.3190  227.3130 C   0  0  0  0  0  0  0  0  0  0  0  0
  140.9080   68.2910  228.6850 Cl  0  0  0  0  0  0  0  0  0  0  0  0
  141.0360   70.6630  227.3870 C   0  0  0  0  0  0  0  0  0  0  0  0
  140.8320   71.4870  226.3000 C   0  0  0  0  0  0  0  0  0  0  0  0
  140.2560   71.0550  225.1240 C   0  0  0  0  0  0  0  0  0  0  0  0
  140.0780   71.9010  224.0910 N   0  0  0  0  0  0  0  0  0  0  0  0
  140.3410   79.6970  221.8100 C   0  0  0  0  0  0  0  0  0  0  0  0
  142.0815   79.8075  219.0992 H   0  0  0  0  0  0  0  0  0  0  0  0
  140.8253   81.0136  218.6584 H   0  0  0  0  0  0  0  0  0  0  0  0
  142.5595   81.4820  218.6584 H   0  0  0  0  0  0  0  0  0  0  0  0
  143.5399   80.6842  222.2029 H   0  0  0  0  0  0  0  0  0  0  0  0
  143.3600   79.1347  224.1134 H   0  0  0  0  0  0  0  0  0  0  0  0
  141.2323   77.9482  224.5302 H   0  0  0  0  0  0  0  0  0  0  0  0
  138.6407   78.2181  224.1361 H   0  0  0  0  0  0  0  0  0  0  0  0
  138.1937   78.6600  222.4036 H   0  0  0  0  0  0  0  0  0  0  0  0
  138.4690   76.0880  223.3880 H   0  0  0  0  0  0  0  0  0  0  0  0
  138.2940   74.6494  220.5784 H   0  0  0  0  0  0  0  0  0  0  0  0
  140.1478   74.7075  220.4210 H   0  0  0  0  0  0  0  0  0  0  0  0
  139.6070   74.1190  223.0930 H   0  0  0  0  0  0  0  0  0  0  0  0
  138.6563   69.8370  221.8731 H   0  0  0  0  0  0  0  0  0  0  0  0
  138.9729   68.2618  223.7554 H   0  0  0  0  0  0  0  0  0  0  0  0
  139.7499   67.8302  226.0489 H   0  0  0  0  0  0  0  0  0  0  0  0
  141.4997   71.0572  228.3033 H   0  0  0  0  0  0  0  0  0  0  0  0
  141.1437   72.5393  226.3748 H   0  0  0  0  0  0  0  0  0  0  0  0
  139.4791   79.8611  221.1465 H   0  0  0  0  0  0  0  0  0  0  0  0
  1  2  1  0
  2  3  1  0
  3  4  2  0
  4  5  1  0
  5  6  2  0
  6  7  1  0
  7  8  1  0
  8  9  1  0
  9 10  1  0
 10 11  2  0
 10 12  1  0
 12 13  1  0
 13 14  1  0
 14 15  2  0
 14 16  1  0
 16 17  2  0
 17 18  1  0
 18 19  2  0
 19 20  1  0
 20 21  2  0
 21 22  1  0
 21 23  1  0
 23 24  2  0
 24 25  1  0
 25 26  2  0
  7 27  2  0
 27  3  1  0
 26 16  1  0
 25 19  1  0
  1 28  1  0
  1 29  1  0
  1 30  1  0
  4 31  1  0
  5 32  1  0
  6 33  1  0
  8 34  1  0
  8 35  1  0
  9 36  1  0
 12 37  1  0
 12 38  1  0
 13 39  1  0
 17 40  1  0
 18 41  1  0
 20 42  1  0
 23 43  1  0
 24 44  1  0
 27 45  1  0
M  END
>  <smiles>  (24) 
COc1cccc(CNC(=O)CNC(=O)c2ccc3cc(Cl)ccc3n2)c1

>  <score_type>  (24) 
oracle

>  <origin>  (24) 
autodockgpu

>  <m_score__min__energy>  (24) 
-8.1699999999999999

>  <m_primary>  (24) 
energy

>  <rmsd>  (24) 
3.2805514963872313

>  <m_score__min__rmsd>  (24) 
3.2805514963872313

>  <meeko>  (24) 
{"free_energy": -7.74, "intermolecular_energy": -9.53, "internal_energy": -1.11, "cluster_size": 27, "cluster_id": 2, "rank_in_cluster": 8}

>  <energy>  (24) 
-7.47

>  <cluster_rmsd>  (24) 
1.18

>  <cluster>  (24) 
2

$$$$

     RDKit          3D

 45 47  0  0  0  0  0  0  0  0999 V2000
  137.9970   81.2430  224.6160 C   0  0  0  0  0  0  0  0  0  0  0  0
  139.2720   80.8710  224.1520 O   0  0  0  0  0  0  0  0  0  0  0  0
  139.5560   79.6600  223.5680 C   0  0  0  0  0  0  0  0  0  0  0  0
  140.9010   79.3170  223.4490 C   0  0  0  0  0  0  0  0  0  0  0  0
  141.2750   78.1320  222.8810 C   0  0  0  0  0  0  0  0  0  0  0  0
  140.2950   77.2670  222.4210 C   0  0  0  0  0  0  0  0  0  0  0  0
  138.9530   77.5560  222.5130 C   0  0  0  0  0  0  0  0  0  0  0  0
  137.8700   76.6760  222.0470 C   0  0  0  0  0  0  0  0  0  0  0  0
  138.2610   75.3450  221.7080 N   0  0  0  0  0  0  0  0  0  0  0  0
  137.6230   74.5150  220.7540 C   0  0  0  0  0  0  0  0  0  0  0  0
  136.6030   75.0100  220.1530 O   0  0  0  0  0  0  0  0  0  0  0  0
  138.0080   73.1590  220.3900 C   0  0  0  0  0  0  0  0  0  0  0  0
  138.3160   72.2530  221.4380 N   0  0  0  0  0  0  0  0  0  0  0  0
  139.3520   72.4880  222.3860 C   0  0  0  0  0  0  0  0  0  0  0  0
  140.0810   73.5280  222.3580 O   0  0  0  0  0  0  0  0  0  0  0  0
  139.6030   71.5000  223.4500 C   0  0  0  0  0  0  0  0  0  0  0  0
  139.3150   70.1640  223.2580 C   0  0  0  0  0  0  0  0  0  0  0  0
  139.5570   69.2540  224.2720 C   0  0  0  0  0  0  0  0  0  0  0  0
  140.0850   69.6540  225.4820 C   0  0  0  0  0  0  0  0  0  0  0  0
  140.3430   68.7820  226.5220 C   0  0  0  0  0  0  0  0  0  0  0  0
  140.8760   69.2100  227.7330 C   0  0  0  0  0  0  0  0  0  0  0  0
  141.2120   68.1420  229.0570 Cl  0  0  0  0  0  0  0  0  0  0  0  0
  141.1510   70.5760  227.8760 C   0  0  0  0  0  0  0  0  0  0  0  0
  140.8860   71.4330  226.8270 C   0  0  0  0  0  0  0  0  0  0  0  0
  140.3580   71.0120  225.6250 C   0  0  0  0  0  0  0  0  0  0  0  0
  140.1170   71.8890  224.6310 N   0  0  0  0  0  0  0  0  0  0  0  0
  138.6210   78.7730  223.0980 C   0  0  0  0  0  0  0  0  0  0  0  0
  137.9931   81.2441  225.7160 H   0  0  0  0  0  0  0  0  0  0  0  0
  137.7521   82.2500  224.2474 H   0  0  0  0  0  0  0  0  0  0  0  0
  137.2490   80.5256  224.2474 H   0  0  0  0  0  0  0  0  0  0  0  0
  141.6722   80.0095  223.8173 H   0  0  0  0  0  0  0  0  0  0  0  0
  142.3390   77.8683  222.7901 H   0  0  0  0  0  0  0  0  0  0  0  0
  140.6014   76.3138  221.9654 H   0  0  0  0  0  0  0  0  0  0  0  0
  137.1162   76.6145  222.8457 H   0  0  0  0  0  0  0  0  0  0  0  0
  137.4949   77.1264  221.1162 H   0  0  0  0  0  0  0  0  0  0  0  0
  139.0840   74.9360  222.2050 H   0  0  0  0  0  0  0  0  0  0  0  0
  137.1762   72.7252  219.8156 H   0  0  0  0  0  0  0  0  0  0  0  0
  138.9538   73.2783  219.8412 H   0  0  0  0  0  0  0  0  0  0  0  0
  137.7800   71.3420  221.5690 H   0  0  0  0  0  0  0  0  0  0  0  0
  138.8939   69.8232  222.3007 H   0  0  0  0  0  0  0  0  0  0  0  0
  139.3239   68.1913  224.1101 H   0  0  0  0  0  0  0  0  0  0  0  0
  140.1193   67.7134  226.3877 H   0  0  0  0  0  0  0  0  0  0  0  0
  141.5740   70.9620  228.8152 H   0  0  0  0  0  0  0  0  0  0  0  0
  141.1066   72.5029  226.9562 H   0  0  0  0  0  0  0  0  0  0  0  0
  137.5571   79.0373  223.1883 H   0  0  0  0  0  0  0  0  0  0  0  0
  1  2  1  0
  2  3  1  0
  3  4  2  0
  4  5  1  0
  5  6  2  0
  6  7  1  0
  7  8  1  0
  8  9  1  0
  9 10  1  0
 10 11  2  0
 10 12  1  0
 12 13  1  0
 13 14  1  0
 14 15  2  0
 14 16  1  0
 16 17  2  0
 17 18  1  0
 18 19  2  0
 19 20  1  0
 20 21  2  0
 21 22  1  0
 21 23  1  0
 23 24  2  0
 24 25  1  0
 25 26  2  0
  7 27  2  0
 27  3  1  0
 26 16  1  0
 25 19  1  0
  1 28  1  0
  1 29  1  0
  1 30  1  0
  4 31  1  0
  5 32  1  0
  6 33  1  0
  8 34  1  0
  8 35  1  0
  9 36  1  0
 12 37  1  0
 12 38  1  0
 13 39  1  0
 17 40  1  0
 18 41  1  0
 20 42  1  0
 23 43  1  0
 24 44  1  0
 27 45  1  0
M  END
>  <smiles>  (25) 
COc1cccc(CNC(=O)CNC(=O)c2ccc3cc(Cl)ccc3n2)c1

>  <score_type>  (25) 
oracle

>  <origin>  (25) 
autodockgpu

>  <m_score__min__energy>  (25) 
-8.1699999999999999

>  <m_primary>  (25) 
energy

>  <rmsd>  (25) 
2.800573575221108

>  <m_score__min__rmsd>  (25) 
2.800573575221108

>  <meeko>  (25) 
{"free_energy": -7.29, "intermolecular_energy": -9.08, "internal_energy": -1.5, "cluster_size": 27, "cluster_id": 2, "rank_in_cluster": 25}

>  <energy>  (25) 
-7.44

>  <cluster_rmsd>  (25) 
1.13

>  <cluster>  (25) 
2

$$$$

     RDKit          3D

 45 47  0  0  0  0  0  0  0  0999 V2000
  137.8680   80.8180  224.0510 C   0  0  0  0  0  0  0  0  0  0  0  0
  138.8630   79.8520  224.2900 O   0  0  0  0  0  0  0  0  0  0  0  0
  139.9480   79.6450  223.4710 C   0  0  0  0  0  0  0  0  0  0  0  0
  141.1630   80.1860  223.8850 C   0  0  0  0  0  0  0  0  0  0  0  0
  142.2940   80.0290  223.1340 C   0  0  0  0  0  0  0  0  0  0  0  0
  142.2190   79.3210  221.9460 C   0  0  0  0  0  0  0  0  0  0  0  0
  141.0450   78.7660  221.4900 C   0  0  0  0  0  0  0  0  0  0  0  0
  140.9070   78.0010  220.2410 C   0  0  0  0  0  0  0  0  0  0  0  0
  139.9770   76.9190  220.2810 N   0  0  0  0  0  0  0  0  0  0  0  0
  140.0480   75.8020  221.1500 C   0  0  0  0  0  0  0  0  0  0  0  0
  141.0420   75.7670  221.9600 O   0  0  0  0  0  0  0  0  0  0  0  0
  139.1090   74.6910  221.2110 C   0  0  0  0  0  0  0  0  0  0  0  0
  139.3070   73.7100  222.2170 N   0  0  0  0  0  0  0  0  0  0  0  0
  139.1050   72.3180  221.9940 C   0  0  0  0  0  0  0  0  0  0  0  0
  138.7260   71.8540  220.8730 O   0  0  0  0  0  0  0  0  0  0  0  0
  139.3390   71.3630  223.0900 C   0  0  0  0  0  0  0  0  0  0  0  0
  138.9550   70.0420  222.9720 C   0  0  0  0  0  0  0  0  0  0  0  0
  139.1830   69.1620  224.0160 C   0  0  0  0  0  0  0  0  0  0  0  0
  139.7920   69.5770  225.1830 C   0  0  0  0  0  0  0  0  0  0  0  0
  140.0390   68.7360  226.2490 C   0  0  0  0  0  0  0  0  0  0  0  0
  140.6550   69.1780  227.4150 C   0  0  0  0  0  0  0  0  0  0  0  0
  140.9800   68.1480  228.7710 Cl  0  0  0  0  0  0  0  0  0  0  0  0
  141.0250   70.5270  227.4830 C   0  0  0  0  0  0  0  0  0  0  0  0
  140.7700   71.3540  226.4080 C   0  0  0  0  0  0  0  0  0  0  0  0
  140.1600   70.9180  225.2500 C   0  0  0  0  0  0  0  0  0  0  0  0
  139.9320   71.7660  224.2290 N   0  0  0  0  0  0  0  0  0  0  0  0
  139.9220   78.9520  222.2880 C   0  0  0  0  0  0  0  0  0  0  0  0
  137.4824   81.1924  225.0107 H   0  0  0  0  0  0  0  0  0  0  0  0
  138.2975   81.6528  223.4777 H   0  0  0  0  0  0  0  0  0  0  0  0
  137.0463   80.3639  223.4777 H   0  0  0  0  0  0  0  0  0  0  0  0
  141.2129   80.7474  224.8296 H   0  0  0  0  0  0  0  0  0  0  0  0
  143.2499   80.4586  223.4682 H   0  0  0  0  0  0  0  0  0  0  0  0
  143.1317   79.1977  221.3445 H   0  0  0  0  0  0  0  0  0  0  0  0
  140.5839   78.6962  219.4521 H   0  0  0  0  0  0  0  0  0  0  0  0
  141.8912   77.5457  220.0562 H   0  0  0  0  0  0  0  0  0  0  0  0
  139.1740   76.9390  219.6140 H   0  0  0  0  0  0  0  0  0  0  0  0
  138.1062   75.1173  221.3617 H   0  0  0  0  0  0  0  0  0  0  0  0
  139.2586   74.1505  220.2647 H   0  0  0  0  0  0  0  0  0  0  0  0
  139.6190   73.9690  223.2020 H   0  0  0  0  0  0  0  0  0  0  0  0
  138.4689   69.6896  222.0503 H   0  0  0  0  0  0  0  0  0  0  0  0
  138.8728   68.1116  223.9135 H   0  0  0  0  0  0  0  0  0  0  0  0
  139.7385   67.6805  226.1739 H   0  0  0  0  0  0  0  0  0  0  0  0
  141.5143   70.9237  228.3848 H   0  0  0  0  0  0  0  0  0  0  0  0
  141.0672   72.4108  226.4778 H   0  0  0  0  0  0  0  0  0  0  0  0
  138.9660   78.5224  221.9542 H   0  0  0  0  0  0  0  0  0  0  0  0
  1  2  1  0
  2  3  1  0
  3  4  2  0
  4  5  1  0
  5  6  2  0
  6  7  1  0
  7  8  1  0
  8  9  1  0
  9 10  1  0
 10 11  2  0
 10 12  1  0
 12 13  1  0
 13 14  1  0
 14 15  2  0
 14 16  1  0
 16 17  2  0
 17 18  1  0
 18 19  2  0
 19 20  1  0
 20 21  2  0
 21 22  1  0
 21 23  1  0
 23 24  2  0
 24 25  1  0
 25 26  2  0
  7 27  2  0
 27  3  1  0
 26 16  1  0
 25 19  1  0
  1 28  1  0
  1 29  1  0
  1 30  1  0
  4 31  1  0
  5 32  1  0
  6 33  1  0
  8 34  1  0
  8 35  1  0
  9 36  1  0
 12 37  1  0
 12 38  1  0
 13 39  1  0
 17 40  1  0
 18 41  1  0
 20 42  1  0
 23 43  1  0
 24 44  1  0
 27 45  1  0
M  END
>  <smiles>  (26) 
COc1cccc(CNC(=O)CNC(=O)c2ccc3cc(Cl)ccc3n2)c1

>  <score_type>  (26) 
oracle

>  <origin>  (26) 
autodockgpu

>  <m_score__min__energy>  (26) 
-8.1699999999999999

>  <m_primary>  (26) 
energy

>  <rmsd>  (26) 
2.7779893139631144

>  <m_score__min__rmsd>  (26) 
2.7779893139631144

>  <meeko>  (26) 
{"free_energy": -7.69, "intermolecular_energy": -9.48, "internal_energy": -1.33, "cluster_size": 27, "cluster_id": 2, "rank_in_cluster": 12}

>  <energy>  (26) 
-7.44

>  <cluster_rmsd>  (26) 
1.12

>  <cluster>  (26) 
2

$$$$

     RDKit          3D

 45 47  0  0  0  0  0  0  0  0999 V2000
  141.4120   67.8920  229.1070 C   0  0  0  0  0  0  0  0  0  0  0  0
  140.4640   68.8930  228.8230 O   0  0  0  0  0  0  0  0  0  0  0  0
  140.5240   69.7220  227.7280 C   0  0  0  0  0  0  0  0  0  0  0  0
  140.9830   71.0200  227.9450 C   0  0  0  0  0  0  0  0  0  0  0  0
  141.0760   71.9120  226.9150 C   0  0  0  0  0  0  0  0  0  0  0  0
  140.7060   71.5110  225.6420 C   0  0  0  0  0  0  0  0  0  0  0  0
  140.2470   70.2420  225.3710 C   0  0  0  0  0  0  0  0  0  0  0  0
  139.8460   69.7590  224.0410 C   0  0  0  0  0  0  0  0  0  0  0  0
  139.3250   70.7520  223.1570 N   0  0  0  0  0  0  0  0  0  0  0  0
  138.0340   71.3310  223.2370 C   0  0  0  0  0  0  0  0  0  0  0  0
  137.2750   70.9150  224.1830 O   0  0  0  0  0  0  0  0  0  0  0  0
  137.4850   72.3470  222.3500 C   0  0  0  0  0  0  0  0  0  0  0  0
  138.1470   73.6010  222.2890 N   0  0  0  0  0  0  0  0  0  0  0  0
  139.4100   73.7820  221.6580 C   0  0  0  0  0  0  0  0  0  0  0  0
  140.0410   72.8260  221.1060 O   0  0  0  0  0  0  0  0  0  0  0  0
  140.0280   75.1190  221.6320 C   0  0  0  0  0  0  0  0  0  0  0  0
  141.1490   75.3660  220.8650 C   0  0  0  0  0  0  0  0  0  0  0  0
  141.7140   76.6290  220.8580 C   0  0  0  0  0  0  0  0  0  0  0  0
  141.1780   77.6580  221.6060 C   0  0  0  0  0  0  0  0  0  0  0  0
  141.7070   78.9330  221.6300 C   0  0  0  0  0  0  0  0  0  0  0  0
  141.1490   79.9530  222.3920 C   0  0  0  0  0  0  0  0  0  0  0  0
  141.7880   81.5640  222.4430 Cl  0  0  0  0  0  0  0  0  0  0  0  0
  140.0120   79.6490  223.1510 C   0  0  0  0  0  0  0  0  0  0  0  0
  139.4970   78.3700  223.1160 C   0  0  0  0  0  0  0  0  0  0  0  0
  140.0480   77.3560  222.3610 C   0  0  0  0  0  0  0  0  0  0  0  0
  139.5070   76.1230  222.3620 N   0  0  0  0  0  0  0  0  0  0  0  0
  140.1700   69.3690  226.4510 C   0  0  0  0  0  0  0  0  0  0  0  0
  141.5151   67.7832  230.1967 H   0  0  0  0  0  0  0  0  0  0  0  0
  141.0788   66.9377  228.6731 H   0  0  0  0  0  0  0  0  0  0  0  0
  142.3830   68.1729  228.6731 H   0  0  0  0  0  0  0  0  0  0  0  0
  141.2742   71.3301  228.9594 H   0  0  0  0  0  0  0  0  0  0  0  0
  141.4397   72.9346  227.0939 H   0  0  0  0  0  0  0  0  0  0  0  0
  140.7818   72.2339  224.8164 H   0  0  0  0  0  0  0  0  0  0  0  0
  140.7292   69.3099  223.5632 H   0  0  0  0  0  0  0  0  0  0  0  0
  139.0248   69.0477  224.2133 H   0  0  0  0  0  0  0  0  0  0  0  0
  139.9360   71.0820  222.3790 H   0  0  0  0  0  0  0  0  0  0  0  0
  137.4824   71.9277  221.3330 H   0  0  0  0  0  0  0  0  0  0  0  0
  136.4954   72.5769  222.7717 H   0  0  0  0  0  0  0  0  0  0  0  0
  137.7260   74.4800  222.7190 H   0  0  0  0  0  0  0  0  0  0  0  0
  141.5920   74.5606  220.2608 H   0  0  0  0  0  0  0  0  0  0  0  0
  142.6076   76.8168  220.2446 H   0  0  0  0  0  0  0  0  0  0  0  0
  142.6004   79.1491  221.0257 H   0  0  0  0  0  0  0  0  0  0  0  0
  139.5341   80.4231  223.7694 H   0  0  0  0  0  0  0  0  0  0  0  0
  138.6042   78.1482  223.7191 H   0  0  0  0  0  0  0  0  0  0  0  0
  139.8076   68.3459  226.2722 H   0  0  0  0  0  0  0  0  0  0  0  0
  1  2  1  0
  2  3  1  0
  3  4  2  0
  4  5  1  0
  5  6  2  0
  6  7  1  0
  7  8  1  0
  8  9  1  0
  9 10  1  0
 10 11  2  0
 10 12  1  0
 12 13  1  0
 13 14  1  0
 14 15  2  0
 14 16  1  0
 16 17  2  0
 17 18  1  0
 18 19  2  0
 19 20  1  0
 20 21  2  0
 21 22  1  0
 21 23  1  0
 23 24  2  0
 24 25  1  0
 25 26  2  0
  7 27  2  0
 27  3  1  0
 26 16  1  0
 25 19  1  0
  1 28  1  0
  1 29  1  0
  1 30  1  0
  4 31  1  0
  5 32  1  0
  6 33  1  0
  8 34  1  0
  8 35  1  0
  9 36  1  0
 12 37  1  0
 12 38  1  0
 13 39  1  0
 17 40  1  0
 18 41  1  0
 20 42  1  0
 23 43  1  0
 24 44  1  0
 27 45  1  0
M  END
>  <smiles>  (27) 
COc1cccc(CNC(=O)CNC(=O)c2ccc3cc(Cl)ccc3n2)c1

>  <score_type>  (27) 
oracle

>  <origin>  (27) 
autodockgpu

>  <m_score__min__energy>  (27) 
-8.1699999999999999

>  <m_primary>  (27) 
energy

>  <rmsd>  (27) 
7.876046637587793

>  <m_score__min__rmsd>  (27) 
7.876046637587793

>  <meeko>  (27) 
{"free_energy": -7.23, "intermolecular_energy": -9.02, "internal_energy": -1.98, "cluster_size": 14, "cluster_id": 3, "rank_in_cluster": 3}

>  <energy>  (27) 
-7.42

>  <cluster_rmsd>  (27) 
1.28

>  <cluster>  (27) 
2

$$$$

     RDKit          3D

 45 47  0  0  0  0  0  0  0  0999 V2000
  141.4680   72.6210  227.3350 C   0  0  0  0  0  0  0  0  0  0  0  0
  140.4080   71.7790  227.7210 O   0  0  0  0  0  0  0  0  0  0  0  0
  140.2980   70.4610  227.3490 C   0  0  0  0  0  0  0  0  0  0  0  0
  140.7060   69.5060  228.2790 C   0  0  0  0  0  0  0  0  0  0  0  0
  140.6310   68.1730  227.9940 C   0  0  0  0  0  0  0  0  0  0  0  0
  140.1410   67.7750  226.7600 C   0  0  0  0  0  0  0  0  0  0  0  0
  139.7240   68.6740  225.8060 C   0  0  0  0  0  0  0  0  0  0  0  0
  139.1920   68.3100  224.4840 C   0  0  0  0  0  0  0  0  0  0  0  0
  138.5840   69.3740  223.7510 N   0  0  0  0  0  0  0  0  0  0  0  0
  137.3180   69.9480  224.0260 C   0  0  0  0  0  0  0  0  0  0  0  0
  136.6690   69.4560  225.0170 O   0  0  0  0  0  0  0  0  0  0  0  0
  136.6830   71.0350  223.2960 C   0  0  0  0  0  0  0  0  0  0  0  0
  137.4620   72.1870  223.0110 N   0  0  0  0  0  0  0  0  0  0  0  0
  138.6170   72.1560  222.1780 C   0  0  0  0  0  0  0  0  0  0  0  0
  139.0360   71.0870  221.6320 O   0  0  0  0  0  0  0  0  0  0  0  0
  139.3680   73.3980  221.9270 C   0  0  0  0  0  0  0  0  0  0  0  0
  140.5790   73.3700  221.2650 C   0  0  0  0  0  0  0  0  0  0  0  0
  141.2680   74.5490  221.0410 C   0  0  0  0  0  0  0  0  0  0  0  0
  140.7700   75.7630  221.4680 C   0  0  0  0  0  0  0  0  0  0  0  0
  141.4220   76.9640  221.2680 C   0  0  0  0  0  0  0  0  0  0  0  0
  140.8980   78.1740  221.7070 C   0  0  0  0  0  0  0  0  0  0  0  0
  141.6910   79.6980  221.4710 Cl  0  0  0  0  0  0  0  0  0  0  0  0
  139.6660   78.1460  222.3730 C   0  0  0  0  0  0  0  0  0  0  0  0
  139.0280   76.9370  222.5650 C   0  0  0  0  0  0  0  0  0  0  0  0
  139.5450   75.7350  222.1300 C   0  0  0  0  0  0  0  0  0  0  0  0
  138.8830   74.5820  222.3430 N   0  0  0  0  0  0  0  0  0  0  0  0
  139.8200   70.0200  226.1410 C   0  0  0  0  0  0  0  0  0  0  0  0
  141.9668   73.0172  228.2318 H   0  0  0  0  0  0  0  0  0  0  0  0
  142.1914   72.0486  226.7358 H   0  0  0  0  0  0  0  0  0  0  0  0
  141.0741   73.4552  226.7358 H   0  0  0  0  0  0  0  0  0  0  0  0
  141.0936   69.8309  229.2558 H   0  0  0  0  0  0  0  0  0  0  0  0
  140.9548   67.4254  228.7331 H   0  0  0  0  0  0  0  0  0  0  0  0
  140.0835   66.6998  226.5351 H   0  0  0  0  0  0  0  0  0  0  0  0
  140.0232   67.9152  223.8813 H   0  0  0  0  0  0  0  0  0  0  0  0
  138.3929   67.5777  224.6716 H   0  0  0  0  0  0  0  0  0  0  0  0
  139.1060   69.7670  222.9360 H   0  0  0  0  0  0  0  0  0  0  0  0
  136.3380   70.6266  222.3347 H   0  0  0  0  0  0  0  0  0  0  0  0
  135.8926   71.3960  223.9705 H   0  0  0  0  0  0  0  0  0  0  0  0
  137.2200   73.1430  223.4120 H   0  0  0  0  0  0  0  0  0  0  0  0
  140.9951   72.4132  220.9165 H   0  0  0  0  0  0  0  0  0  0  0  0
  142.2319   74.5178  220.5120 H   0  0  0  0  0  0  0  0  0  0  0  0
  142.3889   76.9628  220.7434 H   0  0  0  0  0  0  0  0  0  0  0  0
  139.2114   79.0782  222.7394 H   0  0  0  0  0  0  0  0  0  0  0  0
  138.0613   76.9323  223.0899 H   0  0  0  0  0  0  0  0  0  0  0  0
  139.4970   70.7676  225.4016 H   0  0  0  0  0  0  0  0  0  0  0  0
  1  2  1  0
  2  3  1  0
  3  4  2  0
  4  5  1  0
  5  6  2  0
  6  7  1  0
  7  8  1  0
  8  9  1  0
  9 10  1  0
 10 11  2  0
 10 12  1  0
 12 13  1  0
 13 14  1  0
 14 15  2  0
 14 16  1  0
 16 17  2  0
 17 18  1  0
 18 19  2  0
 19 20  1  0
 20 21  2  0
 21 22  1  0
 21 23  1  0
 23 24  2  0
 24 25  1  0
 25 26  2  0
  7 27  2  0
 27  3  1  0
 26 16  1  0
 25 19  1  0
  1 28  1  0
  1 29  1  0
  1 30  1  0
  4 31  1  0
  5 32  1  0
  6 33  1  0
  8 34  1  0
  8 35  1  0
  9 36  1  0
 12 37  1  0
 12 38  1  0
 13 39  1  0
 17 40  1  0
 18 41  1  0
 20 42  1  0
 23 43  1  0
 24 44  1  0
 27 45  1  0
M  END
>  <smiles>  (28) 
COc1cccc(CNC(=O)CNC(=O)c2ccc3cc(Cl)ccc3n2)c1

>  <score_type>  (28) 
oracle

>  <origin>  (28) 
autodockgpu

>  <m_score__min__energy>  (28) 
-8.1699999999999999

>  <m_primary>  (28) 
energy

>  <rmsd>  (28) 
8.20967391922003

>  <m_score__min__rmsd>  (28) 
8.20967391922003

>  <meeko>  (28) 
{"free_energy": -7.21, "intermolecular_energy": -9.0, "internal_energy": -1.98, "cluster_size": 14, "cluster_id": 3, "rank_in_cluster": 4}

>  <energy>  (28) 
-7.42

>  <cluster_rmsd>  (28) 
1.81

>  <cluster>  (28) 
2

$$$$

     RDKit          3D

 45 47  0  0  0  0  0  0  0  0999 V2000
  141.4350   72.3760  227.3340 C   0  0  0  0  0  0  0  0  0  0  0  0
  140.4790   71.4300  227.7470 O   0  0  0  0  0  0  0  0  0  0  0  0
  140.3310   70.1870  227.1790 C   0  0  0  0  0  0  0  0  0  0  0  0
  140.9120   69.1130  227.8500 C   0  0  0  0  0  0  0  0  0  0  0  0
  140.8140   67.8420  227.3590 C   0  0  0  0  0  0  0  0  0  0  0  0
  140.1260   67.6300  226.1750 C   0  0  0  0  0  0  0  0  0  0  0  0
  139.5330   68.6530  225.4720 C   0  0  0  0  0  0  0  0  0  0  0  0
  138.7870   68.4870  224.2150 C   0  0  0  0  0  0  0  0  0  0  0  0
  139.1260   69.4030  223.1730 N   0  0  0  0  0  0  0  0  0  0  0  0
  138.7250   69.2960  221.8180 C   0  0  0  0  0  0  0  0  0  0  0  0
  138.0010   68.2820  221.5120 O   0  0  0  0  0  0  0  0  0  0  0  0
  139.0540   70.2200  220.7420 C   0  0  0  0  0  0  0  0  0  0  0  0
  138.8170   71.6020  220.9590 N   0  0  0  0  0  0  0  0  0  0  0  0
  139.5980   72.3930  221.8490 C   0  0  0  0  0  0  0  0  0  0  0  0
  140.5650   71.9130  222.5190 O   0  0  0  0  0  0  0  0  0  0  0  0
  139.2900   73.8240  222.0130 C   0  0  0  0  0  0  0  0  0  0  0  0
  137.9880   74.2790  221.9630 C   0  0  0  0  0  0  0  0  0  0  0  0
  137.7220   75.6280  222.1170 C   0  0  0  0  0  0  0  0  0  0  0  0
  138.7380   76.5390  222.3230 C   0  0  0  0  0  0  0  0  0  0  0  0
  138.5210   77.8930  222.4820 C   0  0  0  0  0  0  0  0  0  0  0  0
  139.5620   78.7920  222.6890 C   0  0  0  0  0  0  0  0  0  0  0  0
  139.3230   80.4970  222.8930 Cl  0  0  0  0  0  0  0  0  0  0  0  0
  140.8650   78.2780  222.7320 C   0  0  0  0  0  0  0  0  0  0  0  0
  141.0630   76.9220  222.5710 C   0  0  0  0  0  0  0  0  0  0  0  0
  140.0330   76.0290  222.3660 C   0  0  0  0  0  0  0  0  0  0  0  0
  140.2800   74.7140  222.2130 N   0  0  0  0  0  0  0  0  0  0  0  0
  139.6590   69.9290  226.0110 C   0  0  0  0  0  0  0  0  0  0  0  0
  141.9005   72.8367  228.2178 H   0  0  0  0  0  0  0  0  0  0  0  0
  142.2077   71.8771  226.7307 H   0  0  0  0  0  0  0  0  0  0  0  0
  140.9442   73.1539  226.7307 H   0  0  0  0  0  0  0  0  0  0  0  0
  141.4574   69.2911  228.7885 H   0  0  0  0  0  0  0  0  0  0  0  0
  141.2744   66.9993  227.8956 H   0  0  0  0  0  0  0  0  0  0  0  0
  140.0512   66.6051  225.7825 H   0  0  0  0  0  0  0  0  0  0  0  0
  138.9712   67.4681  223.8437 H   0  0  0  0  0  0  0  0  0  0  0  0
  137.7334   68.6858  224.4607 H   0  0  0  0  0  0  0  0  0  0  0  0
  139.7250   70.2220  223.4180 H   0  0  0  0  0  0  0  0  0  0  0  0
  140.1257   70.1015  220.5244 H   0  0  0  0  0  0  0  0  0  0  0  0
  138.3698   69.9474  219.9250 H   0  0  0  0  0  0  0  0  0  0  0  0
  138.0320   72.1230  220.4610 H   0  0  0  0  0  0  0  0  0  0  0  0
  137.1628   73.5700  221.8009 H   0  0  0  0  0  0  0  0  0  0  0  0
  136.6811   75.9811  222.0745 H   0  0  0  0  0  0  0  0  0  0  0  0
  137.4898   78.2739  222.4437 H   0  0  0  0  0  0  0  0  0  0  0  0
  141.7217   78.9491  222.8925 H   0  0  0  0  0  0  0  0  0  0  0  0
  142.0920   76.5350  222.6080 H   0  0  0  0  0  0  0  0  0  0  0  0
  139.1978   70.7717  225.4751 H   0  0  0  0  0  0  0  0  0  0  0  0
  1  2  1  0
  2  3  1  0
  3  4  2  0
  4  5  1  0
  5  6  2  0
  6  7  1  0
  7  8  1  0
  8  9  1  0
  9 10  1  0
 10 11  2  0
 10 12  1  0
 12 13  1  0
 13 14  1  0
 14 15  2  0
 14 16  1  0
 16 17  2  0
 17 18  1  0
 18 19  2  0
 19 20  1  0
 20 21  2  0
 21 22  1  0
 21 23  1  0
 23 24  2  0
 24 25  1  0
 25 26  2  0
  7 27  2  0
 27  3  1  0
 26 16  1  0
 25 19  1  0
  1 28  1  0
  1 29  1  0
  1 30  1  0
  4 31  1  0
  5 32  1  0
  6 33  1  0
  8 34  1  0
  8 35  1  0
  9 36  1  0
 12 37  1  0
 12 38  1  0
 13 39  1  0
 17 40  1  0
 18 41  1  0
 20 42  1  0
 23 43  1  0
 24 44  1  0
 27 45  1  0
M  END
>  <smiles>  (29) 
COc1cccc(CNC(=O)CNC(=O)c2ccc3cc(Cl)ccc3n2)c1

>  <score_type>  (29) 
oracle

>  <origin>  (29) 
autodockgpu

>  <m_score__min__energy>  (29) 
-8.1699999999999999

>  <m_primary>  (29) 
energy

>  <rmsd>  (29) 
8.152972580859574

>  <m_score__min__rmsd>  (29) 
8.152972580859574

>  <meeko>  (29) 
{"free_energy": -6.9, "intermolecular_energy": -8.69, "internal_energy": -1.53, "cluster_size": 14, "cluster_id": 3, "rank_in_cluster": 14}

>  <energy>  (29) 
-7.4

>  <cluster_rmsd>  (29) 
1.6

>  <cluster>  (29) 
2

$$$$

     RDKit          3D

 45 47  0  0  0  0  0  0  0  0999 V2000
  141.1170   82.1870  220.2740 C   0  0  0  0  0  0  0  0  0  0  0  0
  141.6250   81.7200  221.5010 O   0  0  0  0  0  0  0  0  0  0  0  0
  141.4790   80.4310  221.9540 C   0  0  0  0  0  0  0  0  0  0  0  0
  141.1000   80.2690  223.2850 C   0  0  0  0  0  0  0  0  0  0  0  0
  140.9320   79.0240  223.8200 C   0  0  0  0  0  0  0  0  0  0  0  0
  141.1440   77.9130  223.0200 C   0  0  0  0  0  0  0  0  0  0  0  0
  141.5180   78.0150  221.6990 C   0  0  0  0  0  0  0  0  0  0  0  0
  141.7530   76.8730  220.8020 C   0  0  0  0  0  0  0  0  0  0  0  0
  140.8090   75.8070  220.9040 N   0  0  0  0  0  0  0  0  0  0  0  0
  139.3990   75.9520  220.9310 C   0  0  0  0  0  0  0  0  0  0  0  0
  138.9450   77.1490  220.8640 O   0  0  0  0  0  0  0  0  0  0  0  0
  138.4200   74.8790  221.0290 C   0  0  0  0  0  0  0  0  0  0  0  0
  138.6220   73.8860  222.0220 N   0  0  0  0  0  0  0  0  0  0  0  0
  139.6470   72.9010  221.9370 C   0  0  0  0  0  0  0  0  0  0  0  0
  140.4540   72.8380  220.9580 O   0  0  0  0  0  0  0  0  0  0  0  0
  139.7950   71.9080  223.0150 C   0  0  0  0  0  0  0  0  0  0  0  0
  139.4050   70.5970  222.8280 C   0  0  0  0  0  0  0  0  0  0  0  0
  139.5520   69.6820  223.8560 C   0  0  0  0  0  0  0  0  0  0  0  0
  140.0830   70.0510  225.0750 C   0  0  0  0  0  0  0  0  0  0  0  0
  140.2470   69.1730  226.1280 C   0  0  0  0  0  0  0  0  0  0  0  0
  140.7850   69.5710  227.3470 C   0  0  0  0  0  0  0  0  0  0  0  0
  141.0050   68.4930  228.6880 Cl  0  0  0  0  0  0  0  0  0  0  0  0
  141.1640   70.9120  227.4840 C   0  0  0  0  0  0  0  0  0  0  0  0
  140.9920   71.7750  226.4210 C   0  0  0  0  0  0  0  0  0  0  0  0
  140.4590   71.3850  225.2110 C   0  0  0  0  0  0  0  0  0  0  0  0
  140.3120   72.2670  224.2050 N   0  0  0  0  0  0  0  0  0  0  0  0
  141.6780   79.3030  221.2000 C   0  0  0  0  0  0  0  0  0  0  0  0
  140.3192   82.9204  220.4628 H   0  0  0  0  0  0  0  0  0  0  0  0
  141.9253   82.6640  219.7002 H   0  0  0  0  0  0  0  0  0  0  0  0
  140.7096   81.3415  219.7002 H   0  0  0  0  0  0  0  0  0  0  0  0
  140.9338   81.1564  223.9135 H   0  0  0  0  0  0  0  0  0  0  0  0
  140.6325   78.9048  224.8717 H   0  0  0  0  0  0  0  0  0  0  0  0
  141.0085   76.9124  223.4564 H   0  0  0  0  0  0  0  0  0  0  0  0
  141.7333   77.2453  219.7671 H   0  0  0  0  0  0  0  0  0  0  0  0
  142.7222   76.4479  221.1019 H   0  0  0  0  0  0  0  0  0  0  0  0
  141.1780   74.8320  220.9700 H   0  0  0  0  0  0  0  0  0  0  0  0
  137.4425   75.3440  221.2245 H   0  0  0  0  0  0  0  0  0  0  0  0
  138.5068   74.3378  220.0753 H   0  0  0  0  0  0  0  0  0  0  0  0
  138.0090   73.8270  222.8910 H   0  0  0  0  0  0  0  0  0  0  0  0
  138.9786   70.2805  221.8647 H   0  0  0  0  0  0  0  0  0  0  0  0
  139.2392   68.6393  223.6980 H   0  0  0  0  0  0  0  0  0  0  0  0
  139.9420   68.1241  225.9983 H   0  0  0  0  0  0  0  0  0  0  0  0
  141.5945   71.2739  228.4294 H   0  0  0  0  0  0  0  0  0  0  0  0
  141.2949   72.8251  226.5452 H   0  0  0  0  0  0  0  0  0  0  0  0
  141.9790   79.4230  220.1488 H   0  0  0  0  0  0  0  0  0  0  0  0
  1  2  1  0
  2  3  1  0
  3  4  2  0
  4  5  1  0
  5  6  2  0
  6  7  1  0
  7  8  1  0
  8  9  1  0
  9 10  1  0
 10 11  2  0
 10 12  1  0
 12 13  1  0
 13 14  1  0
 14 15  2  0
 14 16  1  0
 16 17  2  0
 17 18  1  0
 18 19  2  0
 19 20  1  0
 20 21  2  0
 21 22  1  0
 21 23  1  0
 23 24  2  0
 24 25  1  0
 25 26  2  0
  7 27  2  0
 27  3  1  0
 26 16  1  0
 25 19  1  0
  1 28  1  0
  1 29  1  0
  1 30  1  0
  4 31  1  0
  5 32  1  0
  6 33  1  0
  8 34  1  0
  8 35  1  0
  9 36  1  0
 12 37  1  0
 12 38  1  0
 13 39  1  0
 17 40  1  0
 18 41  1  0
 20 42  1  0
 23 43  1  0
 24 44  1  0
 27 45  1  0
M  END
>  <smiles>  (30) 
COc1cccc(CNC(=O)CNC(=O)c2ccc3cc(Cl)ccc3n2)c1

>  <score_type>  (30) 
oracle

>  <origin>  (30) 
autodockgpu

>  <m_score__min__energy>  (30) 
-8.1699999999999999

>  <m_primary>  (30) 
energy

>  <rmsd>  (30) 
2.8590338370553905

>  <m_score__min__rmsd>  (30) 
2.8590338370553905

>  <meeko>  (30) 
{"free_energy": -7.39, "intermolecular_energy": -9.18, "internal_energy": -1.6, "cluster_size": 27, "cluster_id": 2, "rank_in_cluster": 22}

>  <energy>  (30) 
-7.39

>  <cluster_rmsd>  (30) 
1.2

>  <cluster>  (30) 
2

$$$$

     RDKit          3D

 45 47  0  0  0  0  0  0  0  0999 V2000
  137.4340   80.1820  223.5820 C   0  0  0  0  0  0  0  0  0  0  0  0
  138.6940   79.8950  224.1380 O   0  0  0  0  0  0  0  0  0  0  0  0
  139.8090   79.5790  223.3980 C   0  0  0  0  0  0  0  0  0  0  0  0
  141.0350   80.0310  223.8800 C   0  0  0  0  0  0  0  0  0  0  0  0
  142.1950   79.7630  223.2090 C   0  0  0  0  0  0  0  0  0  0  0  0
  142.1380   79.0310  222.0350 C   0  0  0  0  0  0  0  0  0  0  0  0
  140.9550   78.5590  221.5140 C   0  0  0  0  0  0  0  0  0  0  0  0
  140.8350   77.7750  220.2760 C   0  0  0  0  0  0  0  0  0  0  0  0
  139.9340   76.6690  220.3330 N   0  0  0  0  0  0  0  0  0  0  0  0
  140.0670   75.5390  221.1770 C   0  0  0  0  0  0  0  0  0  0  0  0
  141.0930   75.5150  221.9470 O   0  0  0  0  0  0  0  0  0  0  0  0
  139.1580   74.4040  221.2550 C   0  0  0  0  0  0  0  0  0  0  0  0
  139.3670   73.4570  222.2920 N   0  0  0  0  0  0  0  0  0  0  0  0
  138.9750   72.0920  222.1860 C   0  0  0  0  0  0  0  0  0  0  0  0
  138.4030   71.6240  221.1520 O   0  0  0  0  0  0  0  0  0  0  0  0
  139.2340   71.1710  223.3060 C   0  0  0  0  0  0  0  0  0  0  0  0
  138.8530   69.8460  223.2350 C   0  0  0  0  0  0  0  0  0  0  0  0
  139.1040   68.9990  224.3000 C   0  0  0  0  0  0  0  0  0  0  0  0
  139.7330   69.4510  225.4420 C   0  0  0  0  0  0  0  0  0  0  0  0
  140.0040   68.6430  226.5290 C   0  0  0  0  0  0  0  0  0  0  0  0
  140.6390   69.1230  227.6690 C   0  0  0  0  0  0  0  0  0  0  0  0
  140.9940   68.1340  229.0490 Cl  0  0  0  0  0  0  0  0  0  0  0  0
  141.0050   70.4740  227.6890 C   0  0  0  0  0  0  0  0  0  0  0  0
  140.7260   71.2670  226.5950 C   0  0  0  0  0  0  0  0  0  0  0  0
  140.0970   70.7950  225.4630 C   0  0  0  0  0  0  0  0  0  0  0  0
  139.8460   71.6110  224.4210 N   0  0  0  0  0  0  0  0  0  0  0  0
  139.8020   78.8580  222.2310 C   0  0  0  0  0  0  0  0  0  0  0  0
  136.7060   80.3478  224.3897 H   0  0  0  0  0  0  0  0  0  0  0  0
  137.5049   81.0870  222.9608 H   0  0  0  0  0  0  0  0  0  0  0  0
  137.1060   79.3356  222.9608 H   0  0  0  0  0  0  0  0  0  0  0  0
  141.0701   80.6117  224.8136 H   0  0  0  0  0  0  0  0  0  0  0  0
  143.1596   80.1234  223.5958 H   0  0  0  0  0  0  0  0  0  0  0  0
  143.0743   78.8186  221.4982 H   0  0  0  0  0  0  0  0  0  0  0  0
  140.4917   78.4509  219.4789 H   0  0  0  0  0  0  0  0  0  0  0  0
  141.8306   77.3440  220.0942 H   0  0  0  0  0  0  0  0  0  0  0  0
  139.1050   76.6800  219.6980 H   0  0  0  0  0  0  0  0  0  0  0  0
  138.1415   74.8060  221.3781 H   0  0  0  0  0  0  0  0  0  0  0  0
  139.3377   73.8417  220.3268 H   0  0  0  0  0  0  0  0  0  0  0  0
  139.8320   73.7240  223.2120 H   0  0  0  0  0  0  0  0  0  0  0  0
  138.3509   69.4644  222.3337 H   0  0  0  0  0  0  0  0  0  0  0  0
  138.7962   67.9450  224.2350 H   0  0  0  0  0  0  0  0  0  0  0  0
  139.7075   67.5844  226.4915 H   0  0  0  0  0  0  0  0  0  0  0  0
  141.5103   70.8994  228.5686 H   0  0  0  0  0  0  0  0  0  0  0  0
  141.0196   72.3266  226.6277 H   0  0  0  0  0  0  0  0  0  0  0  0
  138.8371   78.4989  221.8436 H   0  0  0  0  0  0  0  0  0  0  0  0
  1  2  1  0
  2  3  1  0
  3  4  2  0
  4  5  1  0
  5  6  2  0
  6  7  1  0
  7  8  1  0
  8  9  1  0
  9 10  1  0
 10 11  2  0
 10 12  1  0
 12 13  1  0
 13 14  1  0
 14 15  2  0
 14 16  1  0
 16 17  2  0
 17 18  1  0
 18 19  2  0
 19 20  1  0
 20 21  2  0
 21 22  1  0
 21 23  1  0
 23 24  2  0
 24 25  1  0
 25 26  2  0
  7 27  2  0
 27  3  1  0
 26 16  1  0
 25 19  1  0
  1 28  1  0
  1 29  1  0
  1 30  1  0
  4 31  1  0
  5 32  1  0
  6 33  1  0
  8 34  1  0
  8 35  1  0
  9 36  1  0
 12 37  1  0
 12 38  1  0
 13 39  1  0
 17 40  1  0
 18 41  1  0
 20 42  1  0
 23 43  1  0
 24 44  1  0
 27 45  1  0
M  END
>  <smiles>  (31) 
COc1cccc(CNC(=O)CNC(=O)c2ccc3cc(Cl)ccc3n2)c1

>  <score_type>  (31) 
oracle

>  <origin>  (31) 
autodockgpu

>  <m_score__min__energy>  (31) 
-8.1699999999999999

>  <m_primary>  (31) 
energy

>  <rmsd>  (31) 
2.677989098329551

>  <m_score__min__rmsd>  (31) 
2.677989098329551

>  <meeko>  (31) 
{"free_energy": -7.52, "intermolecular_energy": -9.31, "internal_energy": -1.4, "cluster_size": 27, "cluster_id": 2, "rank_in_cluster": 15}

>  <energy>  (31) 
-7.37

>  <cluster_rmsd>  (31) 
1.64

>  <cluster>  (31) 
2

$$$$

     RDKit          3D

 45 47  0  0  0  0  0  0  0  0999 V2000
  142.0620   79.8350  218.9860 C   0  0  0  0  0  0  0  0  0  0  0  0
  142.1700   80.5230  220.2090 O   0  0  0  0  0  0  0  0  0  0  0  0
  141.8020   79.9970  221.4240 C   0  0  0  0  0  0  0  0  0  0  0  0
  142.6480   80.2480  222.5020 C   0  0  0  0  0  0  0  0  0  0  0  0
  142.3600   79.7640  223.7470 C   0  0  0  0  0  0  0  0  0  0  0  0
  141.2100   79.0150  223.9280 C   0  0  0  0  0  0  0  0  0  0  0  0
  140.3390   78.7370  222.8990 C   0  0  0  0  0  0  0  0  0  0  0  0
  139.1020   77.9520  223.0330 C   0  0  0  0  0  0  0  0  0  0  0  0
  139.2080   76.5720  222.6810 N   0  0  0  0  0  0  0  0  0  0  0  0
  138.9750   76.0290  221.3930 C   0  0  0  0  0  0  0  0  0  0  0  0
  138.6340   76.8560  220.4750 O   0  0  0  0  0  0  0  0  0  0  0  0
  139.0820   74.6280  221.0120 C   0  0  0  0  0  0  0  0  0  0  0  0
  139.2860   73.6740  222.0440 N   0  0  0  0  0  0  0  0  0  0  0  0
  139.1680   72.2700  221.8370 C   0  0  0  0  0  0  0  0  0  0  0  0
  138.8640   71.7700  220.7080 O   0  0  0  0  0  0  0  0  0  0  0  0
  139.4030   71.3460  222.9590 C   0  0  0  0  0  0  0  0  0  0  0  0
  139.0190   70.0220  222.8780 C   0  0  0  0  0  0  0  0  0  0  0  0
  139.2480   69.1720  223.9450 C   0  0  0  0  0  0  0  0  0  0  0  0
  139.8570   69.6190  225.1000 C   0  0  0  0  0  0  0  0  0  0  0  0
  140.1050   68.8080  226.1900 C   0  0  0  0  0  0  0  0  0  0  0  0
  140.7200   69.2830  227.3430 C   0  0  0  0  0  0  0  0  0  0  0  0
  141.0460   68.2910  228.7270 Cl  0  0  0  0  0  0  0  0  0  0  0  0
  141.0890   70.6340  227.3730 C   0  0  0  0  0  0  0  0  0  0  0  0
  140.8330   71.4300  226.2750 C   0  0  0  0  0  0  0  0  0  0  0  0
  140.2240   70.9620  225.1300 C   0  0  0  0  0  0  0  0  0  0  0  0
  139.9960   71.7810  224.0860 N   0  0  0  0  0  0  0  0  0  0  0  0
  140.6740   79.2500  221.6510 C   0  0  0  0  0  0  0  0  0  0  0  0
  141.8941   78.7654  219.1806 H   0  0  0  0  0  0  0  0  0  0  0  0
  141.2165   80.2402  218.4108 H   0  0  0  0  0  0  0  0  0  0  0  0
  142.9910   79.9616  218.4108 H   0  0  0  0  0  0  0  0  0  0  0  0
  143.5600   80.8437  222.3489 H   0  0  0  0  0  0  0  0  0  0  0  0
  143.0325   79.9667  224.5935 H   0  0  0  0  0  0  0  0  0  0  0  0
  140.9836   78.6273  224.9322 H   0  0  0  0  0  0  0  0  0  0  0  0
  138.7758   78.0100  224.0819 H   0  0  0  0  0  0  0  0  0  0  0  0
  138.3874   78.3910  222.3213 H   0  0  0  0  0  0  0  0  0  0  0  0
  139.4730   75.8960  223.4310 H   0  0  0  0  0  0  0  0  0  0  0  0
  138.1501   74.3569  220.4943 H   0  0  0  0  0  0  0  0  0  0  0  0
  139.9964   74.5761  220.4027 H   0  0  0  0  0  0  0  0  0  0  0  0
  139.5410   73.9650  223.0360 H   0  0  0  0  0  0  0  0  0  0  0  0
  138.5320   69.6441  221.9669 H   0  0  0  0  0  0  0  0  0  0  0  0
  138.9386   68.1190  223.8715 H   0  0  0  0  0  0  0  0  0  0  0  0
  139.8058   67.7504  226.1445 H   0  0  0  0  0  0  0  0  0  0  0  0
  141.5781   71.0564  228.2631 H   0  0  0  0  0  0  0  0  0  0  0  0
  141.1290   72.4886  226.3153 H   0  0  0  0  0  0  0  0  0  0  0  0
  140.0018   79.0470  220.8043 H   0  0  0  0  0  0  0  0  0  0  0  0
  1  2  1  0
  2  3  1  0
  3  4  2  0
  4  5  1  0
  5  6  2  0
  6  7  1  0
  7  8  1  0
  8  9  1  0
  9 10  1  0
 10 11  2  0
 10 12  1  0
 12 13  1  0
 13 14  1  0
 14 15  2  0
 14 16  1  0
 16 17  2  0
 17 18  1  0
 18 19  2  0
 19 20  1  0
 20 21  2  0
 21 22  1  0
 21 23  1  0
 23 24  2  0
 24 25  1  0
 25 26  2  0
  7 27  2  0
 27  3  1  0
 26 16  1  0
 25 19  1  0
  1 28  1  0
  1 29  1  0
  1 30  1  0
  4 31  1  0
  5 32  1  0
  6 33  1  0
  8 34  1  0
  8 35  1  0
  9 36  1  0
 12 37  1  0
 12 38  1  0
 13 39  1  0
 17 40  1  0
 18 41  1  0
 20 42  1  0
 23 43  1  0
 24 44  1  0
 27 45  1  0
M  END
>  <smiles>  (32) 
COc1cccc(CNC(=O)CNC(=O)c2ccc3cc(Cl)ccc3n2)c1

>  <score_type>  (32) 
oracle

>  <origin>  (32) 
autodockgpu

>  <m_score__min__energy>  (32) 
-8.1699999999999999

>  <m_primary>  (32) 
energy

>  <rmsd>  (32) 
3.2983111805316794

>  <m_score__min__rmsd>  (32) 
3.2983111805316794

>  <meeko>  (32) 
{"free_energy": -7.67, "intermolecular_energy": -9.46, "internal_energy": -1.1, "cluster_size": 27, "cluster_id": 2, "rank_in_cluster": 13}

>  <energy>  (32) 
-7.36

>  <cluster_rmsd>  (32) 
1.86

>  <cluster>  (32) 
2

$$$$

     RDKit          3D

 45 47  0  0  0  0  0  0  0  0999 V2000
  142.8990   81.2660  224.2350 C   0  0  0  0  0  0  0  0  0  0  0  0
  142.8030   80.1450  223.3890 O   0  0  0  0  0  0  0  0  0  0  0  0
  141.6150   79.5820  222.9890 C   0  0  0  0  0  0  0  0  0  0  0  0
  140.5210   79.7480  223.8360 C   0  0  0  0  0  0  0  0  0  0  0  0
  139.3010   79.2230  223.5180 C   0  0  0  0  0  0  0  0  0  0  0  0
  139.1610   78.5150  222.3350 C   0  0  0  0  0  0  0  0  0  0  0  0
  140.2070   78.3210  221.4620 C   0  0  0  0  0  0  0  0  0  0  0  0
  140.1160   77.5850  220.1920 C   0  0  0  0  0  0  0  0  0  0  0  0
  139.3430   76.3840  220.2310 N   0  0  0  0  0  0  0  0  0  0  0  0
  139.5460   75.3010  221.1210 C   0  0  0  0  0  0  0  0  0  0  0  0
  140.5140   75.4170  221.9550 O   0  0  0  0  0  0  0  0  0  0  0  0
  138.7670   74.0720  221.1810 C   0  0  0  0  0  0  0  0  0  0  0  0
  139.0320   73.1700  222.2440 N   0  0  0  0  0  0  0  0  0  0  0  0
  138.8360   71.7640  222.1360 C   0  0  0  0  0  0  0  0  0  0  0  0
  138.4030   71.2140  221.0750 O   0  0  0  0  0  0  0  0  0  0  0  0
  139.1420   70.8950  223.2860 C   0  0  0  0  0  0  0  0  0  0  0  0
  138.7820   69.5620  223.2800 C   0  0  0  0  0  0  0  0  0  0  0  0
  139.0780   68.7650  224.3720 C   0  0  0  0  0  0  0  0  0  0  0  0
  139.7290   69.2750  225.4770 C   0  0  0  0  0  0  0  0  0  0  0  0
  140.0440   68.5180  226.5880 C   0  0  0  0  0  0  0  0  0  0  0  0
  140.7020   69.0550  227.6890 C   0  0  0  0  0  0  0  0  0  0  0  0
  141.1120   68.1320  229.0980 Cl  0  0  0  0  0  0  0  0  0  0  0  0
  141.0440   70.4130  227.6420 C   0  0  0  0  0  0  0  0  0  0  0  0
  140.7220   71.1540  226.5240 C   0  0  0  0  0  0  0  0  0  0  0  0
  140.0700   70.6240  225.4310 C   0  0  0  0  0  0  0  0  0  0  0  0
  139.7770   71.3910  224.3640 N   0  0  0  0  0  0  0  0  0  0  0  0
  141.4290   78.8750  221.8280 C   0  0  0  0  0  0  0  0  0  0  0  0
  142.8708   80.9370  225.2843 H   0  0  0  0  0  0  0  0  0  0  0  0
  143.8455   81.7919  224.0409 H   0  0  0  0  0  0  0  0  0  0  0  0
  142.0557   81.9451  224.0409 H   0  0  0  0  0  0  0  0  0  0  0  0
  140.6418   80.3098  224.7740 H   0  0  0  0  0  0  0  0  0  0  0  0
  138.4419   79.3602  224.1912 H   0  0  0  0  0  0  0  0  0  0  0  0
  138.1769   78.0922  222.0844 H   0  0  0  0  0  0  0  0  0  0  0  0
  139.6652   78.2540  219.4442 H   0  0  0  0  0  0  0  0  0  0  0  0
  141.1430   77.2753  219.9482 H   0  0  0  0  0  0  0  0  0  0  0  0
  138.5630   76.2840  219.5450 H   0  0  0  0  0  0  0  0  0  0  0  0
  137.7073   74.3587  221.2509 H   0  0  0  0  0  0  0  0  0  0  0  0
  139.0515   73.5201  220.2730 H   0  0  0  0  0  0  0  0  0  0  0  0
  139.3950   73.5050  223.1880 H   0  0  0  0  0  0  0  0  0  0  0  0
  138.2616   69.1349  222.4101 H   0  0  0  0  0  0  0  0  0  0  0  0
  138.7886   67.7038  224.3590 H   0  0  0  0  0  0  0  0  0  0  0  0
  139.7650   67.4541  226.6026 H   0  0  0  0  0  0  0  0  0  0  0  0
  141.5645   70.8839  228.4889 H   0  0  0  0  0  0  0  0  0  0  0  0
  140.9986   72.2185  226.5036 H   0  0  0  0  0  0  0  0  0  0  0  0
  142.2879   78.7398  221.1541 H   0  0  0  0  0  0  0  0  0  0  0  0
  1  2  1  0
  2  3  1  0
  3  4  2  0
  4  5  1  0
  5  6  2  0
  6  7  1  0
  7  8  1  0
  8  9  1  0
  9 10  1  0
 10 11  2  0
 10 12  1  0
 12 13  1  0
 13 14  1  0
 14 15  2  0
 14 16  1  0
 16 17  2  0
 17 18  1  0
 18 19  2  0
 19 20  1  0
 20 21  2  0
 21 22  1  0
 21 23  1  0
 23 24  2  0
 24 25  1  0
 25 26  2  0
  7 27  2  0
 27  3  1  0
 26 16  1  0
 25 19  1  0
  1 28  1  0
  1 29  1  0
  1 30  1  0
  4 31  1  0
  5 32  1  0
  6 33  1  0
  8 34  1  0
  8 35  1  0
  9 36  1  0
 12 37  1  0
 12 38  1  0
 13 39  1  0
 17 40  1  0
 18 41  1  0
 20 42  1  0
 23 43  1  0
 24 44  1  0
 27 45  1  0
M  END
>  <smiles>  (33) 
COc1cccc(CNC(=O)CNC(=O)c2ccc3cc(Cl)ccc3n2)c1

>  <score_type>  (33) 
oracle

>  <origin>  (33) 
autodockgpu

>  <m_score__min__energy>  (33) 
-8.1699999999999999

>  <m_primary>  (33) 
energy

>  <rmsd>  (33) 
2.553075935644335

>  <m_score__min__rmsd>  (33) 
2.553075935644335

>  <meeko>  (33) 
{"free_energy": -7.42, "intermolecular_energy": -9.21, "internal_energy": -1.37, "cluster_size": 27, "cluster_id": 2, "rank_in_cluster": 20}

>  <energy>  (33) 
-7.29

>  <cluster_rmsd>  (33) 
1.76

>  <cluster>  (33) 
2

$$$$

     RDKit          3D

 45 47  0  0  0  0  0  0  0  0999 V2000
  143.0360   80.0060  222.7300 C   0  0  0  0  0  0  0  0  0  0  0  0
  142.2080   79.0780  223.3880 O   0  0  0  0  0  0  0  0  0  0  0  0
  140.8380   79.0530  223.2760 C   0  0  0  0  0  0  0  0  0  0  0  0
  140.1570   80.2260  223.5950 C   0  0  0  0  0  0  0  0  0  0  0  0
  138.7960   80.2920  223.5120 C   0  0  0  0  0  0  0  0  0  0  0  0
  138.0910   79.1710  223.1040 C   0  0  0  0  0  0  0  0  0  0  0  0
  138.7120   77.9870  222.7770 C   0  0  0  0  0  0  0  0  0  0  0  0
  138.0180   76.7680  222.3350 C   0  0  0  0  0  0  0  0  0  0  0  0
  138.8500   75.6250  222.1320 N   0  0  0  0  0  0  0  0  0  0  0  0
  139.8510   75.5000  221.1370 C   0  0  0  0  0  0  0  0  0  0  0  0
  140.0110   76.5020  220.3540 O   0  0  0  0  0  0  0  0  0  0  0  0
  140.7130   74.3470  220.9170 C   0  0  0  0  0  0  0  0  0  0  0  0
  140.7830   73.3670  221.9410 N   0  0  0  0  0  0  0  0  0  0  0  0
  139.6480   72.6390  222.3980 C   0  0  0  0  0  0  0  0  0  0  0  0
  138.4830   72.8210  221.9220 O   0  0  0  0  0  0  0  0  0  0  0  0
  139.8070   71.6330  223.4620 C   0  0  0  0  0  0  0  0  0  0  0  0
  139.4170   70.3240  223.2610 C   0  0  0  0  0  0  0  0  0  0  0  0
  139.5740   69.3950  224.2750 C   0  0  0  0  0  0  0  0  0  0  0  0
  140.1150   69.7500  225.4940 C   0  0  0  0  0  0  0  0  0  0  0  0
  140.2900   68.8580  226.5340 C   0  0  0  0  0  0  0  0  0  0  0  0
  140.8390   69.2400  227.7530 C   0  0  0  0  0  0  0  0  0  0  0  0
  141.0720   68.1460  229.0780 Cl  0  0  0  0  0  0  0  0  0  0  0  0
  141.2180   70.5800  227.9040 C   0  0  0  0  0  0  0  0  0  0  0  0
  141.0350   71.4570  226.8550 C   0  0  0  0  0  0  0  0  0  0  0  0
  140.4920   71.0820  225.6440 C   0  0  0  0  0  0  0  0  0  0  0  0
  140.3340   71.9770  224.6510 N   0  0  0  0  0  0  0  0  0  0  0  0
  140.0990   77.9680  222.8770 C   0  0  0  0  0  0  0  0  0  0  0  0
  143.5747   80.6097  223.4752 H   0  0  0  0  0  0  0  0  0  0  0  0
  143.7605   79.4689  222.1002 H   0  0  0  0  0  0  0  0  0  0  0  0
  142.4202   80.6648  222.1002 H   0  0  0  0  0  0  0  0  0  0  0  0
  140.7241   81.1114  223.9183 H   0  0  0  0  0  0  0  0  0  0  0  0
  138.2663   81.2222  223.7655 H   0  0  0  0  0  0  0  0  0  0  0  0
  136.9945   79.2295  223.0391 H   0  0  0  0  0  0  0  0  0  0  0  0
  137.2681   76.5100  223.0972 H   0  0  0  0  0  0  0  0  0  0  0  0
  137.5874   77.0061  221.3512 H   0  0  0  0  0  0  0  0  0  0  0  0
  138.7130   74.8030  222.7610 H   0  0  0  0  0  0  0  0  0  0  0  0
  140.3605   73.8434  220.0048 H   0  0  0  0  0  0  0  0  0  0  0  0
  141.7285   74.7667  220.8660 H   0  0  0  0  0  0  0  0  0  0  0  0
  141.7010   73.1240  222.4250 H   0  0  0  0  0  0  0  0  0  0  0  0
  138.9825   70.0200  222.2973 H   0  0  0  0  0  0  0  0  0  0  0  0
  139.2616   68.3539  224.1060 H   0  0  0  0  0  0  0  0  0  0  0  0
  139.9849   67.8106  226.3932 H   0  0  0  0  0  0  0  0  0  0  0  0
  141.6573   70.9296  228.8499 H   0  0  0  0  0  0  0  0  0  0  0  0
  141.3367   72.5060  226.9910 H   0  0  0  0  0  0  0  0  0  0  0  0
  140.6293   77.0381  222.6240 H   0  0  0  0  0  0  0  0  0  0  0  0
  1  2  1  0
  2  3  1  0
  3  4  2  0
  4  5  1  0
  5  6  2  0
  6  7  1  0
  7  8  1  0
  8  9  1  0
  9 10  1  0
 10 11  2  0
 10 12  1  0
 12 13  1  0
 13 14  1  0
 14 15  2  0
 14 16  1  0
 16 17  2  0
 17 18  1  0
 18 19  2  0
 19 20  1  0
 20 21  2  0
 21 22  1  0
 21 23  1  0
 23 24  2  0
 24 25  1  0
 25 26  2  0
  7 27  2  0
 27  3  1  0
 26 16  1  0
 25 19  1  0
  1 28  1  0
  1 29  1  0
  1 30  1  0
  4 31  1  0
  5 32  1  0
  6 33  1  0
  8 34  1  0
  8 35  1  0
  9 36  1  0
 12 37  1  0
 12 38  1  0
 13 39  1  0
 17 40  1  0
 18 41  1  0
 20 42  1  0
 23 43  1  0
 24 44  1  0
 27 45  1  0
M  END
>  <smiles>  (34) 
COc1cccc(CNC(=O)CNC(=O)c2ccc3cc(Cl)ccc3n2)c1

>  <score_type>  (34) 
oracle

>  <origin>  (34) 
autodockgpu

>  <m_score__min__energy>  (34) 
-8.1699999999999999

>  <m_primary>  (34) 
energy

>  <rmsd>  (34) 
3.3134266712185356

>  <m_score__min__rmsd>  (34) 
3.3134266712185356

>  <meeko>  (34) 
{"free_energy": -7.37, "intermolecular_energy": -9.16, "internal_energy": -1.5, "cluster_size": 27, "cluster_id": 2, "rank_in_cluster": 23}

>  <energy>  (34) 
-7.25

>  <cluster_rmsd>  (34) 
1.29

>  <cluster>  (34) 
2

$$$$

     RDKit          3D

 45 47  0  0  0  0  0  0  0  0999 V2000
  141.4020   72.4250  227.5990 C   0  0  0  0  0  0  0  0  0  0  0  0
  141.4760   71.6280  226.4410 O   0  0  0  0  0  0  0  0  0  0  0  0
  140.8460   70.4150  226.3010 C   0  0  0  0  0  0  0  0  0  0  0  0
  140.9180   69.5380  227.3820 C   0  0  0  0  0  0  0  0  0  0  0  0
  140.3210   68.3100  227.3300 C   0  0  0  0  0  0  0  0  0  0  0  0
  139.6380   67.9420  226.1820 C   0  0  0  0  0  0  0  0  0  0  0  0
  139.5350   68.7680  225.0860 C   0  0  0  0  0  0  0  0  0  0  0  0
  138.8210   68.4330  223.8450 C   0  0  0  0  0  0  0  0  0  0  0  0
  138.3170   69.5460  223.1060 N   0  0  0  0  0  0  0  0  0  0  0  0
  137.1580   70.2940  223.4280 C   0  0  0  0  0  0  0  0  0  0  0  0
  136.5100   69.9280  224.4730 O   0  0  0  0  0  0  0  0  0  0  0  0
  136.6310   71.4350  222.6920 C   0  0  0  0  0  0  0  0  0  0  0  0
  137.4120   72.6180  222.6540 N   0  0  0  0  0  0  0  0  0  0  0  0
  138.6390   72.7150  221.9370 C   0  0  0  0  0  0  0  0  0  0  0  0
  139.1260   71.7410  221.2810 O   0  0  0  0  0  0  0  0  0  0  0  0
  139.3880   73.9840  221.9420 C   0  0  0  0  0  0  0  0  0  0  0  0
  140.7090   74.0270  221.5430 C   0  0  0  0  0  0  0  0  0  0  0  0
  141.3930   75.2300  221.5570 C   0  0  0  0  0  0  0  0  0  0  0  0
  140.7820   76.3980  221.9660 C   0  0  0  0  0  0  0  0  0  0  0  0
  141.4250   77.6190  221.9980 C   0  0  0  0  0  0  0  0  0  0  0  0
  140.7870   78.7820  222.4140 C   0  0  0  0  0  0  0  0  0  0  0  0
  141.5660   80.3310  222.4640 Cl  0  0  0  0  0  0  0  0  0  0  0  0
  139.4470   78.6830  222.8080 C   0  0  0  0  0  0  0  0  0  0  0  0
  138.8200   77.4540  222.7710 C   0  0  0  0  0  0  0  0  0  0  0  0
  139.4500   76.2980  222.3590 C   0  0  0  0  0  0  0  0  0  0  0  0
  138.7930   75.1230  222.3410 N   0  0  0  0  0  0  0  0  0  0  0  0
  140.1590   70.0070  225.1860 C   0  0  0  0  0  0  0  0  0  0  0  0
  141.4616   71.7831  228.4903 H   0  0  0  0  0  0  0  0  0  0  0  0
  142.2376   73.1404  227.6058 H   0  0  0  0  0  0  0  0  0  0  0  0
  140.4490   72.9743  227.6058 H   0  0  0  0  0  0  0  0  0  0  0  0
  141.4627   69.8385  228.2892 H   0  0  0  0  0  0  0  0  0  0  0  0
  140.3818   67.6234  228.1873 H   0  0  0  0  0  0  0  0  0  0  0  0
  139.1599   66.9520  226.1452 H   0  0  0  0  0  0  0  0  0  0  0  0
  139.5141   67.8799  223.1941 H   0  0  0  0  0  0  0  0  0  0  0  0
  137.9399   67.8502  224.1515 H   0  0  0  0  0  0  0  0  0  0  0  0
  138.8360   69.8380  222.2480 H   0  0  0  0  0  0  0  0  0  0  0  0
  136.4763   71.1110  221.6522 H   0  0  0  0  0  0  0  0  0  0  0  0
  135.7222   71.7219  223.2414 H   0  0  0  0  0  0  0  0  0  0  0  0
  137.1170   73.5040  223.1660 H   0  0  0  0  0  0  0  0  0  0  0  0
  141.2163   73.1078  221.2149 H   0  0  0  0  0  0  0  0  0  0  0  0
  142.4447   75.2558  221.2357 H   0  0  0  0  0  0  0  0  0  0  0  0
  142.4777   77.6736  221.6837 H   0  0  0  0  0  0  0  0  0  0  0  0
  138.8994   79.5760  223.1437 H   0  0  0  0  0  0  0  0  0  0  0  0
  137.7675   77.3934  223.0851 H   0  0  0  0  0  0  0  0  0  0  0  0
  140.0986   70.6936  224.3287 H   0  0  0  0  0  0  0  0  0  0  0  0
  1  2  1  0
  2  3  1  0
  3  4  2  0
  4  5  1  0
  5  6  2  0
  6  7  1  0
  7  8  1  0
  8  9  1  0
  9 10  1  0
 10 11  2  0
 10 12  1  0
 12 13  1  0
 13 14  1  0
 14 15  2  0
 14 16  1  0
 16 17  2  0
 17 18  1  0
 18 19  2  0
 19 20  1  0
 20 21  2  0
 21 22  1  0
 21 23  1  0
 23 24  2  0
 24 25  1  0
 25 26  2  0
  7 27  2  0
 27  3  1  0
 26 16  1  0
 25 19  1  0
  1 28  1  0
  1 29  1  0
  1 30  1  0
  4 31  1  0
  5 32  1  0
  6 33  1  0
  8 34  1  0
  8 35  1  0
  9 36  1  0
 12 37  1  0
 12 38  1  0
 13 39  1  0
 17 40  1  0
 18 41  1  0
 20 42  1  0
 23 43  1  0
 24 44  1  0
 27 45  1  0
M  END
>  <smiles>  (35) 
COc1cccc(CNC(=O)CNC(=O)c2ccc3cc(Cl)ccc3n2)c1

>  <score_type>  (35) 
oracle

>  <origin>  (35) 
autodockgpu

>  <m_score__min__energy>  (35) 
-8.1699999999999999

>  <m_primary>  (35) 
energy

>  <rmsd>  (35) 
8.086533164510389

>  <m_score__min__rmsd>  (35) 
8.086533164510389

>  <meeko>  (35) 
{"free_energy": -7.14, "intermolecular_energy": -8.93, "internal_energy": -2.0, "cluster_size": 14, "cluster_id": 3, "rank_in_cluster": 8}

>  <energy>  (35) 
-6.96

>  <cluster_rmsd>  (35) 
1.46

>  <cluster>  (35) 
2

$$$$

     RDKit          3D

 45 47  0  0  0  0  0  0  0  0999 V2000
  138.0430   81.1980  224.3550 C   0  0  0  0  0  0  0  0  0  0  0  0
  139.2800   80.7070  223.8990 O   0  0  0  0  0  0  0  0  0  0  0  0
  139.4670   79.4450  223.3860 C   0  0  0  0  0  0  0  0  0  0  0  0
  140.7820   79.0390  223.1720 C   0  0  0  0  0  0  0  0  0  0  0  0
  141.0610   77.8020  222.6660 C   0  0  0  0  0  0  0  0  0  0  0  0
  140.0130   76.9470  222.3630 C   0  0  0  0  0  0  0  0  0  0  0  0
  138.6960   77.2960  222.5550 C   0  0  0  0  0  0  0  0  0  0  0  0
  137.5450   76.4300  222.2570 C   0  0  0  0  0  0  0  0  0  0  0  0
  137.8620   75.0760  221.9340 N   0  0  0  0  0  0  0  0  0  0  0  0
  137.8830   74.5220  220.6300 C   0  0  0  0  0  0  0  0  0  0  0  0
  137.5860   75.3120  219.6660 O   0  0  0  0  0  0  0  0  0  0  0  0
  138.2080   73.1460  220.2800 C   0  0  0  0  0  0  0  0  0  0  0  0
  138.4770   72.2380  221.3370 N   0  0  0  0  0  0  0  0  0  0  0  0
  139.4120   72.5120  222.3750 C   0  0  0  0  0  0  0  0  0  0  0  0
  140.0790   73.5930  222.4260 O   0  0  0  0  0  0  0  0  0  0  0  0
  139.6290   71.5190  223.4410 C   0  0  0  0  0  0  0  0  0  0  0  0
  139.3150   70.1890  223.2440 C   0  0  0  0  0  0  0  0  0  0  0  0
  139.5250   69.2740  224.2610 C   0  0  0  0  0  0  0  0  0  0  0  0
  140.0470   69.6620  225.4780 C   0  0  0  0  0  0  0  0  0  0  0  0
  140.2730   68.7850  226.5200 C   0  0  0  0  0  0  0  0  0  0  0  0
  140.8000   69.2010  227.7380 C   0  0  0  0  0  0  0  0  0  0  0  0
  141.0970   68.1250  229.0650 Cl  0  0  0  0  0  0  0  0  0  0  0  0
  141.1020   70.5610  227.8850 C   0  0  0  0  0  0  0  0  0  0  0  0
  140.8690   71.4230  226.8330 C   0  0  0  0  0  0  0  0  0  0  0  0
  140.3470   71.0140  225.6240 C   0  0  0  0  0  0  0  0  0  0  0  0
  140.1370   71.8960  224.6290 N   0  0  0  0  0  0  0  0  0  0  0  0
  138.4620   78.5660  223.0720 C   0  0  0  0  0  0  0  0  0  0  0  0
  138.0330   81.2020  225.4549 H   0  0  0  0  0  0  0  0  0  0  0  0
  137.8957   82.2228  223.9833 H   0  0  0  0  0  0  0  0  0  0  0  0
  137.2330   80.5532  223.9833 H   0  0  0  0  0  0  0  0  0  0  0  0
  141.6074   79.7246  223.4141 H   0  0  0  0  0  0  0  0  0  0  0  0
  142.1024   77.4885  222.5012 H   0  0  0  0  0  0  0  0  0  0  0  0
  140.2428   75.9522  221.9537 H   0  0  0  0  0  0  0  0  0  0  0  0
  136.8886   76.4231  223.1397 H   0  0  0  0  0  0  0  0  0  0  0  0
  137.0739   76.8527  221.3574 H   0  0  0  0  0  0  0  0  0  0  0  0
  138.0920   74.4280  222.7200 H   0  0  0  0  0  0  0  0  0  0  0  0
  137.3574   72.7432  219.7105 H   0  0  0  0  0  0  0  0  0  0  0  0
  139.1578   73.2182  219.7298 H   0  0  0  0  0  0  0  0  0  0  0  0
  137.9880   71.2950  221.4060 H   0  0  0  0  0  0  0  0  0  0  0  0
  138.8990   69.8574  222.2812 H   0  0  0  0  0  0  0  0  0  0  0  0
  139.2707   68.2166  224.0959 H   0  0  0  0  0  0  0  0  0  0  0  0
  140.0280   67.7215  226.3823 H   0  0  0  0  0  0  0  0  0  0  0  0
  141.5208   70.9380  228.8297 H   0  0  0  0  0  0  0  0  0  0  0  0
  141.1114   72.4878  226.9652 H   0  0  0  0  0  0  0  0  0  0  0  0
  137.4209   78.8805  223.2370 H   0  0  0  0  0  0  0  0  0  0  0  0
  1  2  1  0
  2  3  1  0
  3  4  2  0
  4  5  1  0
  5  6  2  0
  6  7  1  0
  7  8  1  0
  8  9  1  0
  9 10  1  0
 10 11  2  0
 10 12  1  0
 12 13  1  0
 13 14  1  0
 14 15  2  0
 14 16  1  0
 16 17  2  0
 17 18  1  0
 18 19  2  0
 19 20  1  0
 20 21  2  0
 21 22  1  0
 21 23  1  0
 23 24  2  0
 24 25  1  0
 25 26  2  0
  7 27  2  0
 27  3  1  0
 26 16  1  0
 25 19  1  0
  1 28  1  0
  1 29  1  0
  1 30  1  0
  4 31  1  0
  5 32  1  0
  6 33  1  0
  8 34  1  0
  8 35  1  0
  9 36  1  0
 12 37  1  0
 12 38  1  0
 13 39  1  0
 17 40  1  0
 18 41  1  0
 20 42  1  0
 23 43  1  0
 24 44  1  0
 27 45  1  0
M  END
>  <smiles>  (36) 
COc1cccc(CNC(=O)CNC(=O)c2ccc3cc(Cl)ccc3n2)c1

>  <score_type>  (36) 
oracle

>  <origin>  (36) 
autodockgpu

>  <m_score__min__energy>  (36) 
-8.1699999999999999

>  <m_primary>  (36) 
energy

>  <rmsd>  (36) 
2.791923804394409

>  <m_score__min__rmsd>  (36) 
2.791923804394409

>  <meeko>  (36) 
{"free_energy": -7.69, "intermolecular_energy": -9.48, "internal_energy": -1.55, "cluster_size": 27, "cluster_id": 2, "rank_in_cluster": 11}

>  <energy>  (36) 
-7.25

>  <cluster_rmsd>  (36) 
0.0

>  <cluster>  (36) 
3

$$$$

     RDKit          3D

 45 47  0  0  0  0  0  0  0  0999 V2000
  141.4340   67.8090  229.1150 C   0  0  0  0  0  0  0  0  0  0  0  0
  141.4720   69.2160  229.0860 O   0  0  0  0  0  0  0  0  0  0  0  0
  141.1630   69.9720  227.9810 C   0  0  0  0  0  0  0  0  0  0  0  0
  141.3290   71.3510  228.0940 C   0  0  0  0  0  0  0  0  0  0  0  0
  141.0460   72.1800  227.0450 C   0  0  0  0  0  0  0  0  0  0  0  0
  140.5870   71.6320  225.8590 C   0  0  0  0  0  0  0  0  0  0  0  0
  140.4050   70.2780  225.6930 C   0  0  0  0  0  0  0  0  0  0  0  0
  139.9260   69.6400  224.4570 C   0  0  0  0  0  0  0  0  0  0  0  0
  139.4340   70.5310  223.4550 N   0  0  0  0  0  0  0  0  0  0  0  0
  138.1730   71.1770  223.4730 C   0  0  0  0  0  0  0  0  0  0  0  0
  137.4140   70.9270  224.4770 O   0  0  0  0  0  0  0  0  0  0  0  0
  137.6540   72.0910  222.4660 C   0  0  0  0  0  0  0  0  0  0  0  0
  138.2810   73.3580  222.3360 N   0  0  0  0  0  0  0  0  0  0  0  0
  139.5990   73.5230  221.8220 C   0  0  0  0  0  0  0  0  0  0  0  0
  140.3130   72.5410  221.4460 O   0  0  0  0  0  0  0  0  0  0  0  0
  140.1750   74.8740  221.7130 C   0  0  0  0  0  0  0  0  0  0  0  0
  141.2500   75.1200  220.8830 C   0  0  0  0  0  0  0  0  0  0  0  0
  141.7760   76.3970  220.7970 C   0  0  0  0  0  0  0  0  0  0  0  0
  141.2470   77.4410  221.5290 C   0  0  0  0  0  0  0  0  0  0  0  0
  141.7390   78.7300  221.4760 C   0  0  0  0  0  0  0  0  0  0  0  0
  141.1880   79.7650  222.2240 C   0  0  0  0  0  0  0  0  0  0  0  0
  141.7820   81.3930  222.1800 Cl  0  0  0  0  0  0  0  0  0  0  0  0
  140.0990   79.4610  223.0500 C   0  0  0  0  0  0  0  0  0  0  0  0
  139.6200   78.1680  223.0910 C   0  0  0  0  0  0  0  0  0  0  0  0
  140.1640   77.1390  222.3510 C   0  0  0  0  0  0  0  0  0  0  0  0
  139.6600   75.8930  222.4270 N   0  0  0  0  0  0  0  0  0  0  0  0
  140.7060   69.4750  226.7870 C   0  0  0  0  0  0  0  0  0  0  0  0
  141.4247   67.4639  230.1594 H   0  0  0  0  0  0  0  0  0  0  0  0
  140.5260   67.4561  228.6041 H   0  0  0  0  0  0  0  0  0  0  0  0
  142.3216   67.4076  228.6041 H   0  0  0  0  0  0  0  0  0  0  0  0
  141.6927   71.7780  229.0402 H   0  0  0  0  0  0  0  0  0  0  0  0
  141.1810   73.2674  227.1414 H   0  0  0  0  0  0  0  0  0  0  0  0
  140.3594   72.3039  225.0183 H   0  0  0  0  0  0  0  0  0  0  0  0
  140.7618   69.0711  224.0236 H   0  0  0  0  0  0  0  0  0  0  0  0
  139.0698   69.0156  224.7521 H   0  0  0  0  0  0  0  0  0  0  0  0
  140.0450   70.7250  222.6320 H   0  0  0  0  0  0  0  0  0  0  0  0
  137.7318   71.5850  221.4924 H   0  0  0  0  0  0  0  0  0  0  0  0
  136.6318   72.3209  222.8011 H   0  0  0  0  0  0  0  0  0  0  0  0
  137.7900   74.2600  222.6200 H   0  0  0  0  0  0  0  0  0  0  0  0
  141.6877   74.3026  220.2911 H   0  0  0  0  0  0  0  0  0  0  0  0
  142.6324   76.5839  220.1324 H   0  0  0  0  0  0  0  0  0  0  0  0
  142.5954   78.9456  220.8202 H   0  0  0  0  0  0  0  0  0  0  0  0
  139.6296   80.2462  223.6608 H   0  0  0  0  0  0  0  0  0  0  0  0
  138.7635   77.9471  223.7449 H   0  0  0  0  0  0  0  0  0  0  0  0
  140.5711   68.3876  226.6905 H   0  0  0  0  0  0  0  0  0  0  0  0
  1  2  1  0
  2  3  1  0
  3  4  2  0
  4  5  1  0
  5  6  2  0
  6  7  1  0
  7  8  1  0
  8  9  1  0
  9 10  1  0
 10 11  2  0
 10 12  1  0
 12 13  1  0
 13 14  1  0
 14 15  2  0
 14 16  1  0
 16 17  2  0
 17 18  1  0
 18 19  2  0
 19 20  1  0
 20 21  2  0
 21 22  1  0
 21 23  1  0
 23 24  2  0
 24 25  1  0
 25 26  2  0
  7 27  2  0
 27  3  1  0
 26 16  1  0
 25 19  1  0
  1 28  1  0
  1 29  1  0
  1 30  1  0
  4 31  1  0
  5 32  1  0
  6 33  1  0
  8 34  1  0
  8 35  1  0
  9 36  1  0
 12 37  1  0
 12 38  1  0
 13 39  1  0
 17 40  1  0
 18 41  1  0
 20 42  1  0
 23 43  1  0
 24 44  1  0
 27 45  1  0
M  END
>  <smiles>  (37) 
COc1cccc(CNC(=O)CNC(=O)c2ccc3cc(Cl)ccc3n2)c1

>  <score_type>  (37) 
oracle

>  <origin>  (37) 
autodockgpu

>  <m_score__min__energy>  (37) 
-8.1699999999999999

>  <m_primary>  (37) 
energy

>  <rmsd>  (37) 
7.868408806002724

>  <m_score__min__rmsd>  (37) 
7.868408806002724

>  <meeko>  (37) 
{"free_energy": -6.95, "intermolecular_energy": -8.74, "internal_energy": -1.94, "cluster_size": 14, "cluster_id": 3, "rank_in_cluster": 13}

>  <energy>  (37) 
-7.24

>  <cluster_rmsd>  (37) 
0.26

>  <cluster>  (37) 
3

$$$$

     RDKit          3D

 45 47  0  0  0  0  0  0  0  0999 V2000
  141.0730   68.1770  228.7390 C   0  0  0  0  0  0  0  0  0  0  0  0
  140.0470   69.0470  228.3250 O   0  0  0  0  0  0  0  0  0  0  0  0
  140.1610   69.9300  227.2780 C   0  0  0  0  0  0  0  0  0  0  0  0
  141.0820   70.9650  227.4240 C   0  0  0  0  0  0  0  0  0  0  0  0
  141.2630   71.8880  226.4330 C   0  0  0  0  0  0  0  0  0  0  0  0
  140.5130   71.7840  225.2720 C   0  0  0  0  0  0  0  0  0  0  0  0
  139.5910   70.7820  225.0750 C   0  0  0  0  0  0  0  0  0  0  0  0
  138.7720   70.6200  223.8650 C   0  0  0  0  0  0  0  0  0  0  0  0
  138.9060   71.6530  222.8880 N   0  0  0  0  0  0  0  0  0  0  0  0
  138.7970   71.4820  221.4860 C   0  0  0  0  0  0  0  0  0  0  0  0
  138.5650   70.2910  221.0690 O   0  0  0  0  0  0  0  0  0  0  0  0
  138.9250   72.5210  220.4740 C   0  0  0  0  0  0  0  0  0  0  0  0
  138.8140   73.8720  220.8940 N   0  0  0  0  0  0  0  0  0  0  0  0
  139.7180   74.4750  221.8150 C   0  0  0  0  0  0  0  0  0  0  0  0
  140.6900   73.8400  222.3320 O   0  0  0  0  0  0  0  0  0  0  0  0
  139.5370   75.8860  222.1950 C   0  0  0  0  0  0  0  0  0  0  0  0
  140.6270   76.7150  222.3770 C   0  0  0  0  0  0  0  0  0  0  0  0
  140.4340   78.0370  222.7360 C   0  0  0  0  0  0  0  0  0  0  0  0
  139.1660   78.5530  222.9180 C   0  0  0  0  0  0  0  0  0  0  0  0
  138.9260   79.8650  223.2760 C   0  0  0  0  0  0  0  0  0  0  0  0
  137.6390   80.3600  223.4540 C   0  0  0  0  0  0  0  0  0  0  0  0
  137.3040   82.0010  223.9030 Cl  0  0  0  0  0  0  0  0  0  0  0  0
  136.5690   79.4780  223.2570 C   0  0  0  0  0  0  0  0  0  0  0  0
  136.8280   78.1700  222.8990 C   0  0  0  0  0  0  0  0  0  0  0  0
  138.1030   77.6750  222.7220 C   0  0  0  0  0  0  0  0  0  0  0  0
  138.3020   76.3900  222.3740 N   0  0  0  0  0  0  0  0  0  0  0  0
  139.4420   69.8670  226.1120 C   0  0  0  0  0  0  0  0  0  0  0  0
  141.1076   68.1476  229.8381 H   0  0  0  0  0  0  0  0  0  0  0  0
  140.8758   67.1667  228.3512 H   0  0  0  0  0  0  0  0  0  0  0  0
  142.0375   68.5367  228.3512 H   0  0  0  0  0  0  0  0  0  0  0  0
  141.6715   71.0401  228.3497 H   0  0  0  0  0  0  0  0  0  0  0  0
  141.9932   72.7017  226.5547 H   0  0  0  0  0  0  0  0  0  0  0  0
  140.6605   72.5309  224.4780 H   0  0  0  0  0  0  0  0  0  0  0  0
  139.0521   69.6675  223.3914 H   0  0  0  0  0  0  0  0  0  0  0  0
  137.7255   70.6575  224.2019 H   0  0  0  0  0  0  0  0  0  0  0  0
  139.1070   72.6200  223.2250 H   0  0  0  0  0  0  0  0  0  0  0  0
  139.9136   72.4032  220.0063 H   0  0  0  0  0  0  0  0  0  0  0  0
  138.0630   72.3665  219.8083 H   0  0  0  0  0  0  0  0  0  0  0  0
  138.0390   74.5100  220.5370 H   0  0  0  0  0  0  0  0  0  0  0  0
  141.6459   76.3249  222.2368 H   0  0  0  0  0  0  0  0  0  0  0  0
  141.3076   78.6899  222.8793 H   0  0  0  0  0  0  0  0  0  0  0  0
  139.7811   80.5406  223.4252 H   0  0  0  0  0  0  0  0  0  0  0  0
  135.5328   79.8239  223.3862 H   0  0  0  0  0  0  0  0  0  0  0  0
  135.9766   77.4901  222.7477 H   0  0  0  0  0  0  0  0  0  0  0  0
  138.7119   69.0532  225.9909 H   0  0  0  0  0  0  0  0  0  0  0  0
  1  2  1  0
  2  3  1  0
  3  4  2  0
  4  5  1  0
  5  6  2  0
  6  7  1  0
  7  8  1  0
  8  9  1  0
  9 10  1  0
 10 11  2  0
 10 12  1  0
 12 13  1  0
 13 14  1  0
 14 15  2  0
 14 16  1  0
 16 17  2  0
 17 18  1  0
 18 19  2  0
 19 20  1  0
 20 21  2  0
 21 22  1  0
 21 23  1  0
 23 24  2  0
 24 25  1  0
 25 26  2  0
  7 27  2  0
 27  3  1  0
 26 16  1  0
 25 19  1  0
  1 28  1  0
  1 29  1  0
  1 30  1  0
  4 31  1  0
  5 32  1  0
  6 33  1  0
  8 34  1  0
  8 35  1  0
  9 36  1  0
 12 37  1  0
 12 38  1  0
 13 39  1  0
 17 40  1  0
 18 41  1  0
 20 42  1  0
 23 43  1  0
 24 44  1  0
 27 45  1  0
M  END
>  <smiles>  (38) 
COc1cccc(CNC(=O)CNC(=O)c2ccc3cc(Cl)ccc3n2)c1

>  <score_type>  (38) 
oracle

>  <origin>  (38) 
autodockgpu

>  <m_score__min__energy>  (38) 
-8.1699999999999999

>  <m_primary>  (38) 
energy

>  <rmsd>  (38) 
8.00434069888174

>  <m_score__min__rmsd>  (38) 
8.00434069888174

>  <meeko>  (38) 
{"free_energy": -6.86, "intermolecular_energy": -8.65, "internal_energy": -1.75, "cluster_size": 1, "cluster_id": 4, "rank_in_cluster": 1}

>  <energy>  (38) 
-7.23

>  <cluster_rmsd>  (38) 
1.78

>  <cluster>  (38) 
3

$$$$

     RDKit          3D

 45 47  0  0  0  0  0  0  0  0999 V2000
  141.4620   67.9150  229.0800 C   0  0  0  0  0  0  0  0  0  0  0  0
  140.3340   68.5830  228.5660 O   0  0  0  0  0  0  0  0  0  0  0  0
  140.3640   69.4110  227.4690 C   0  0  0  0  0  0  0  0  0  0  0  0
  140.9810   70.6500  227.6300 C   0  0  0  0  0  0  0  0  0  0  0  0
  141.0570   71.5360  226.5930 C   0  0  0  0  0  0  0  0  0  0  0  0
  140.5080   71.1880  225.3700 C   0  0  0  0  0  0  0  0  0  0  0  0
  139.8870   69.9790  225.1550 C   0  0  0  0  0  0  0  0  0  0  0  0
  139.2920   69.5540  223.8790 C   0  0  0  0  0  0  0  0  0  0  0  0
  138.8100   70.6080  223.0440 N   0  0  0  0  0  0  0  0  0  0  0  0
  137.5810   71.2940  223.2090 C   0  0  0  0  0  0  0  0  0  0  0  0
  136.8450   70.9240  224.1910 O   0  0  0  0  0  0  0  0  0  0  0  0
  137.0740   72.3730  222.3730 C   0  0  0  0  0  0  0  0  0  0  0  0
  137.8180   73.5800  222.3250 N   0  0  0  0  0  0  0  0  0  0  0  0
  139.0760   73.6900  221.6670 C   0  0  0  0  0  0  0  0  0  0  0  0
  139.6270   72.7080  221.0780 O   0  0  0  0  0  0  0  0  0  0  0  0
  139.7830   74.9820  221.6570 C   0  0  0  0  0  0  0  0  0  0  0  0
  140.9470   75.1460  220.9340 C   0  0  0  0  0  0  0  0  0  0  0  0
  141.5960   76.3690  220.9410 C   0  0  0  0  0  0  0  0  0  0  0  0
  141.1020   77.4390  221.6590 C   0  0  0  0  0  0  0  0  0  0  0  0
  141.7140   78.6760  221.6950 C   0  0  0  0  0  0  0  0  0  0  0  0
  141.1960   79.7380  222.4270 C   0  0  0  0  0  0  0  0  0  0  0  0
  141.9400   81.3030  222.4930 Cl  0  0  0  0  0  0  0  0  0  0  0  0
  140.0120   79.5180  223.1430 C   0  0  0  0  0  0  0  0  0  0  0  0
  139.4130   78.2760  223.0950 C   0  0  0  0  0  0  0  0  0  0  0  0
  139.9250   77.2200  222.3710 C   0  0  0  0  0  0  0  0  0  0  0  0
  139.3020   76.0260  222.3580 N   0  0  0  0  0  0  0  0  0  0  0  0
  139.8350   69.1100  226.2400 C   0  0  0  0  0  0  0  0  0  0  0  0
  141.4300   67.9340  230.1794 H   0  0  0  0  0  0  0  0  0  0  0  0
  141.4610   66.8718  228.7311 H   0  0  0  0  0  0  0  0  0  0  0  0
  142.3762   68.4174  228.7311 H   0  0  0  0  0  0  0  0  0  0  0  0
  141.4128   70.9183  228.6055 H   0  0  0  0  0  0  0  0  0  0  0  0
  141.5471   72.5116  226.7273 H   0  0  0  0  0  0  0  0  0  0  0  0
  140.5708   71.9056  224.5387 H   0  0  0  0  0  0  0  0  0  0  0  0
  140.0572   68.9990  223.3165 H   0  0  0  0  0  0  0  0  0  0  0  0
  138.4109   68.9507  224.1427 H   0  0  0  0  0  0  0  0  0  0  0  0
  139.4030   70.9010  222.2370 H   0  0  0  0  0  0  0  0  0  0  0  0
  137.0079   71.9876  221.3448 H   0  0  0  0  0  0  0  0  0  0  0  0
  136.1178   72.6562  222.8372 H   0  0  0  0  0  0  0  0  0  0  0  0
  137.4680   74.4750  222.7850 H   0  0  0  0  0  0  0  0  0  0  0  0
  141.3582   74.3070  220.3535 H   0  0  0  0  0  0  0  0  0  0  0  0
  142.5238   76.4902  220.3627 H   0  0  0  0  0  0  0  0  0  0  0  0
  142.6429   78.8262  221.1252 H   0  0  0  0  0  0  0  0  0  0  0  0
  139.5642   80.3278  223.7378 H   0  0  0  0  0  0  0  0  0  0  0  0
  138.4828   78.1208  223.6612 H   0  0  0  0  0  0  0  0  0  0  0  0
  139.3458   68.1340  226.1057 H   0  0  0  0  0  0  0  0  0  0  0  0
  1  2  1  0
  2  3  1  0
  3  4  2  0
  4  5  1  0
  5  6  2  0
  6  7  1  0
  7  8  1  0
  8  9  1  0
  9 10  1  0
 10 11  2  0
 10 12  1  0
 12 13  1  0
 13 14  1  0
 14 15  2  0
 14 16  1  0
 16 17  2  0
 17 18  1  0
 18 19  2  0
 19 20  1  0
 20 21  2  0
 21 22  1  0
 21 23  1  0
 23 24  2  0
 24 25  1  0
 25 26  2  0
  7 27  2  0
 27  3  1  0
 26 16  1  0
 25 19  1  0
  1 28  1  0
  1 29  1  0
  1 30  1  0
  4 31  1  0
  5 32  1  0
  6 33  1  0
  8 34  1  0
  8 35  1  0
  9 36  1  0
 12 37  1  0
 12 38  1  0
 13 39  1  0
 17 40  1  0
 18 41  1  0
 20 42  1  0
 23 43  1  0
 24 44  1  0
 27 45  1  0
M  END
>  <smiles>  (39) 
COc1cccc(CNC(=O)CNC(=O)c2ccc3cc(Cl)ccc3n2)c1

>  <score_type>  (39) 
oracle

>  <origin>  (39) 
autodockgpu

>  <m_score__min__energy>  (39) 
-8.1699999999999999

>  <m_primary>  (39) 
energy

>  <rmsd>  (39) 
7.787492041367083

>  <m_score__min__rmsd>  (39) 
7.787492041367083

>  <meeko>  (39) 
{"free_energy": -6.99, "intermolecular_energy": -8.78, "internal_energy": -1.99, "cluster_size": 14, "cluster_id": 3, "rank_in_cluster": 12}

>  <energy>  (39) 
-7.21

>  <cluster_rmsd>  (39) 
0.08

>  <cluster>  (39) 
3

$$$$

     RDKit          3D

 45 47  0  0  0  0  0  0  0  0999 V2000
  141.0970   82.3710  220.5060 C   0  0  0  0  0  0  0  0  0  0  0  0
  140.9860   82.0200  221.8650 O   0  0  0  0  0  0  0  0  0  0  0  0
  141.0850   80.7340  222.3380 C   0  0  0  0  0  0  0  0  0  0  0  0
  142.2640   80.3940  223.0000 C   0  0  0  0  0  0  0  0  0  0  0  0
  142.4480   79.1380  223.5040 C   0  0  0  0  0  0  0  0  0  0  0  0
  141.4440   78.1960  223.3480 C   0  0  0  0  0  0  0  0  0  0  0  0
  140.2610   78.4780  222.7040 C   0  0  0  0  0  0  0  0  0  0  0  0
  139.1590   77.5220  222.5140 C   0  0  0  0  0  0  0  0  0  0  0  0
  139.5480   76.2040  222.1260 N   0  0  0  0  0  0  0  0  0  0  0  0
  140.5310   75.8850  221.1560 C   0  0  0  0  0  0  0  0  0  0  0  0
  141.1090   76.8740  220.5790 O   0  0  0  0  0  0  0  0  0  0  0  0
  140.9460   74.5500  220.7500 C   0  0  0  0  0  0  0  0  0  0  0  0
  140.9600   73.5310  221.7380 N   0  0  0  0  0  0  0  0  0  0  0  0
  139.7750   72.9790  222.3000 C   0  0  0  0  0  0  0  0  0  0  0  0
  138.6130   73.3650  221.9580 O   0  0  0  0  0  0  0  0  0  0  0  0
  139.8750   71.9180  223.3170 C   0  0  0  0  0  0  0  0  0  0  0  0
  139.4830   70.6260  223.0320 C   0  0  0  0  0  0  0  0  0  0  0  0
  139.5840   69.6450  224.0040 C   0  0  0  0  0  0  0  0  0  0  0  0
  140.0730   69.9310  225.2620 C   0  0  0  0  0  0  0  0  0  0  0  0
  140.1920   68.9870  226.2620 C   0  0  0  0  0  0  0  0  0  0  0  0
  140.6890   69.3000  227.5230 C   0  0  0  0  0  0  0  0  0  0  0  0
  140.8510   68.1370  228.7990 Cl  0  0  0  0  0  0  0  0  0  0  0  0
  141.0730   70.6260  227.7590 C   0  0  0  0  0  0  0  0  0  0  0  0
  140.9470   71.5570  226.7480 C   0  0  0  0  0  0  0  0  0  0  0  0
  140.4550   71.2500  225.4970 C   0  0  0  0  0  0  0  0  0  0  0  0
  140.3520   72.1960  224.5440 N   0  0  0  0  0  0  0  0  0  0  0  0
  140.1190   79.7690  222.2090 C   0  0  0  0  0  0  0  0  0  0  0  0
  141.4278   83.4168  220.4233 H   0  0  0  0  0  0  0  0  0  0  0  0
  141.8313   81.7144  220.0165 H   0  0  0  0  0  0  0  0  0  0  0  0
  140.1186   82.2560  220.0165 H   0  0  0  0  0  0  0  0  0  0  0  0
  143.0567   81.1475  223.1180 H   0  0  0  0  0  0  0  0  0  0  0  0
  143.3804   78.8779  224.0265 H   0  0  0  0  0  0  0  0  0  0  0  0
  141.5982   77.1853  223.7540 H   0  0  0  0  0  0  0  0  0  0  0  0
  138.6081   77.4470  223.4631 H   0  0  0  0  0  0  0  0  0  0  0  0
  138.5574   77.9164  221.6818 H   0  0  0  0  0  0  0  0  0  0  0  0
  139.0700   75.3980  222.5860 H   0  0  0  0  0  0  0  0  0  0  0  0
  140.2636   74.2232  219.9516 H   0  0  0  0  0  0  0  0  0  0  0  0
  141.9999   74.6653  220.4568 H   0  0  0  0  0  0  0  0  0  0  0  0
  141.8700   73.1250  222.1130 H   0  0  0  0  0  0  0  0  0  0  0  0
  139.0912   70.3760  222.0350 H   0  0  0  0  0  0  0  0  0  0  0  0
  139.2683   68.6179  223.7686 H   0  0  0  0  0  0  0  0  0  0  0  0
  139.8833   67.9518  226.0547 H   0  0  0  0  0  0  0  0  0  0  0  0
  141.4711   70.9226  228.7406 H   0  0  0  0  0  0  0  0  0  0  0  0
  141.2539   72.5939  226.9499 H   0  0  0  0  0  0  0  0  0  0  0  0
  139.1859   80.0296  221.6881 H   0  0  0  0  0  0  0  0  0  0  0  0
  1  2  1  0
  2  3  1  0
  3  4  2  0
  4  5  1  0
  5  6  2  0
  6  7  1  0
  7  8  1  0
  8  9  1  0
  9 10  1  0
 10 11  2  0
 10 12  1  0
 12 13  1  0
 13 14  1  0
 14 15  2  0
 14 16  1  0
 16 17  2  0
 17 18  1  0
 18 19  2  0
 19 20  1  0
 20 21  2  0
 21 22  1  0
 21 23  1  0
 23 24  2  0
 24 25  1  0
 25 26  2  0
  7 27  2  0
 27  3  1  0
 26 16  1  0
 25 19  1  0
  1 28  1  0
  1 29  1  0
  1 30  1  0
  4 31  1  0
  5 32  1  0
  6 33  1  0
  8 34  1  0
  8 35  1  0
  9 36  1  0
 12 37  1  0
 12 38  1  0
 13 39  1  0
 17 40  1  0
 18 41  1  0
 20 42  1  0
 23 43  1  0
 24 44  1  0
 27 45  1  0
M  END
>  <smiles>  (40) 
COc1cccc(CNC(=O)CNC(=O)c2ccc3cc(Cl)ccc3n2)c1

>  <score_type>  (40) 
oracle

>  <origin>  (40) 
autodockgpu

>  <m_score__min__energy>  (40) 
-8.1699999999999999

>  <m_primary>  (40) 
energy

>  <rmsd>  (40) 
3.288071845554769

>  <m_score__min__rmsd>  (40) 
3.288071845554769

>  <meeko>  (40) 
{"free_energy": -7.44, "intermolecular_energy": -9.23, "internal_energy": -1.55, "cluster_size": 27, "cluster_id": 2, "rank_in_cluster": 17}

>  <energy>  (40) 
-7.18

>  <cluster_rmsd>  (40) 
1.75

>  <cluster>  (40) 
3

$$$$

     RDKit          3D

 45 47  0  0  0  0  0  0  0  0999 V2000
  142.5530   81.1610  223.8380 C   0  0  0  0  0  0  0  0  0  0  0  0
  141.3140   80.4930  223.8560 O   0  0  0  0  0  0  0  0  0  0  0  0
  141.0090   79.4150  223.0590 C   0  0  0  0  0  0  0  0  0  0  0  0
  141.9370   79.0740  222.0770 C   0  0  0  0  0  0  0  0  0  0  0  0
  141.7160   78.0170  221.2400 C   0  0  0  0  0  0  0  0  0  0  0  0
  140.5500   77.2820  221.3780 C   0  0  0  0  0  0  0  0  0  0  0  0
  139.6010   77.5740  222.3310 C   0  0  0  0  0  0  0  0  0  0  0  0
  138.3490   76.8270  222.5270 C   0  0  0  0  0  0  0  0  0  0  0  0
  138.4010   75.4400  222.1930 N   0  0  0  0  0  0  0  0  0  0  0  0
  137.6860   74.8170  221.1400 C   0  0  0  0  0  0  0  0  0  0  0  0
  136.9250   75.5730  220.4370 O   0  0  0  0  0  0  0  0  0  0  0  0
  137.7300   73.4070  220.7790 C   0  0  0  0  0  0  0  0  0  0  0  0
  138.0660   72.4730  221.7940 N   0  0  0  0  0  0  0  0  0  0  0  0
  139.3020   72.5070  222.5000 C   0  0  0  0  0  0  0  0  0  0  0  0
  140.1980   73.3790  222.2670 O   0  0  0  0  0  0  0  0  0  0  0  0
  139.5720   71.5050  223.5460 C   0  0  0  0  0  0  0  0  0  0  0  0
  139.3150   70.1670  223.3260 C   0  0  0  0  0  0  0  0  0  0  0  0
  139.5740   69.2430  224.3230 C   0  0  0  0  0  0  0  0  0  0  0  0
  140.0890   69.6310  225.5440 C   0  0  0  0  0  0  0  0  0  0  0  0
  140.3630   68.7460  226.5670 C   0  0  0  0  0  0  0  0  0  0  0  0
  140.8830   69.1620  227.7880 C   0  0  0  0  0  0  0  0  0  0  0  0
  141.2380   68.0760  229.0920 Cl  0  0  0  0  0  0  0  0  0  0  0  0
  141.1260   70.5310  227.9580 C   0  0  0  0  0  0  0  0  0  0  0  0
  140.8450   71.4010  226.9250 C   0  0  0  0  0  0  0  0  0  0  0  0
  140.3310   70.9920  225.7130 C   0  0  0  0  0  0  0  0  0  0  0  0
  140.0740   71.8830  224.7360 N   0  0  0  0  0  0  0  0  0  0  0  0
  139.8700   78.6580  223.1590 C   0  0  0  0  0  0  0  0  0  0  0  0
  142.8874   81.3413  224.8703 H   0  0  0  0  0  0  0  0  0  0  0  0
  143.2961   80.5413  223.3148 H   0  0  0  0  0  0  0  0  0  0  0  0
  142.4436   82.1224  223.3148 H   0  0  0  0  0  0  0  0  0  0  0  0
  142.8599   79.6637  221.9743 H   0  0  0  0  0  0  0  0  0  0  0  0
  142.4535   77.7534  220.4676 H   0  0  0  0  0  0  0  0  0  0  0  0
  140.3761   76.4331  220.7005 H   0  0  0  0  0  0  0  0  0  0  0  0
  138.0677   76.9098  223.5872 H   0  0  0  0  0  0  0  0  0  0  0  0
  137.6189   77.2760  221.8375 H   0  0  0  0  0  0  0  0  0  0  0  0
  139.0110   74.8210  222.7720 H   0  0  0  0  0  0  0  0  0  0  0  0
  136.7342   73.1345  220.3993 H   0  0  0  0  0  0  0  0  0  0  0  0
  138.5523   73.3332  220.0521 H   0  0  0  0  0  0  0  0  0  0  0  0
  137.4030   71.6910  222.0800 H   0  0  0  0  0  0  0  0  0  0  0  0
  138.9052   69.8358  222.3604 H   0  0  0  0  0  0  0  0  0  0  0  0
  139.3656   68.1787  224.1393 H   0  0  0  0  0  0  0  0  0  0  0  0
  140.1634   67.6755  226.4114 H   0  0  0  0  0  0  0  0  0  0  0  0
  141.5369   70.9086  228.9059 H   0  0  0  0  0  0  0  0  0  0  0  0
  141.0405   72.4729  227.0757 H   0  0  0  0  0  0  0  0  0  0  0  0
  139.1331   78.9213  223.9321 H   0  0  0  0  0  0  0  0  0  0  0  0
  1  2  1  0
  2  3  1  0
  3  4  2  0
  4  5  1  0
  5  6  2  0
  6  7  1  0
  7  8  1  0
  8  9  1  0
  9 10  1  0
 10 11  2  0
 10 12  1  0
 12 13  1  0
 13 14  1  0
 14 15  2  0
 14 16  1  0
 16 17  2  0
 17 18  1  0
 18 19  2  0
 19 20  1  0
 20 21  2  0
 21 22  1  0
 21 23  1  0
 23 24  2  0
 24 25  1  0
 25 26  2  0
  7 27  2  0
 27  3  1  0
 26 16  1  0
 25 19  1  0
  1 28  1  0
  1 29  1  0
  1 30  1  0
  4 31  1  0
  5 32  1  0
  6 33  1  0
  8 34  1  0
  8 35  1  0
  9 36  1  0
 12 37  1  0
 12 38  1  0
 13 39  1  0
 17 40  1  0
 18 41  1  0
 20 42  1  0
 23 43  1  0
 24 44  1  0
 27 45  1  0
M  END
>  <smiles>  (41) 
COc1cccc(CNC(=O)CNC(=O)c2ccc3cc(Cl)ccc3n2)c1

>  <score_type>  (41) 
oracle

>  <origin>  (41) 
autodockgpu

>  <m_score__min__energy>  (41) 
-8.1699999999999999

>  <m_primary>  (41) 
energy

>  <rmsd>  (41) 
2.6179565689217426

>  <m_score__min__rmsd>  (41) 
2.6179565689217426

>  <meeko>  (41) 
{"free_energy": -7.74, "intermolecular_energy": -9.53, "internal_energy": -1.52, "cluster_size": 27, "cluster_id": 2, "rank_in_cluster": 9}

>  <energy>  (41) 
-7.16

>  <cluster_rmsd>  (41) 
0.82

>  <cluster>  (41) 
3

$$$$

     RDKit          3D

 45 47  0  0  0  0  0  0  0  0999 V2000
  140.9140   83.5820  221.2240 C   0  0  0  0  0  0  0  0  0  0  0  0
  141.7720   82.6840  221.8860 O   0  0  0  0  0  0  0  0  0  0  0  0
  141.4250   81.3990  222.2290 C   0  0  0  0  0  0  0  0  0  0  0  0
  142.2030   80.7740  223.2030 C   0  0  0  0  0  0  0  0  0  0  0  0
  141.9300   79.4980  223.6060 C   0  0  0  0  0  0  0  0  0  0  0  0
  140.8640   78.8250  223.0320 C   0  0  0  0  0  0  0  0  0  0  0  0
  140.0630   79.3930  222.0680 C   0  0  0  0  0  0  0  0  0  0  0  0
  138.9170   78.7290  221.4280 C   0  0  0  0  0  0  0  0  0  0  0  0
  139.1550   77.3980  220.9690 N   0  0  0  0  0  0  0  0  0  0  0  0
  139.0750   76.2260  221.7600 C   0  0  0  0  0  0  0  0  0  0  0  0
  138.7680   76.3870  222.9950 O   0  0  0  0  0  0  0  0  0  0  0  0
  139.3080   74.8600  221.3110 C   0  0  0  0  0  0  0  0  0  0  0  0
  139.4680   73.8550  222.3000 N   0  0  0  0  0  0  0  0  0  0  0  0
  139.5530   72.4680  221.9900 C   0  0  0  0  0  0  0  0  0  0  0  0
  139.4870   72.0290  220.7990 O   0  0  0  0  0  0  0  0  0  0  0  0
  139.7250   71.4880  223.0760 C   0  0  0  0  0  0  0  0  0  0  0  0
  139.3990   70.1590  222.8880 C   0  0  0  0  0  0  0  0  0  0  0  0
  139.5670   69.2560  223.9230 C   0  0  0  0  0  0  0  0  0  0  0  0
  140.0580   69.6550  225.1500 C   0  0  0  0  0  0  0  0  0  0  0  0
  140.2420   68.7900  226.2100 C   0  0  0  0  0  0  0  0  0  0  0  0
  140.7380   69.2170  227.4370 C   0  0  0  0  0  0  0  0  0  0  0  0
  140.9810   68.1560  228.7870 Cl  0  0  0  0  0  0  0  0  0  0  0  0
  141.0530   70.5740  227.5740 C   0  0  0  0  0  0  0  0  0  0  0  0
  140.8630   71.4250  226.5040 C   0  0  0  0  0  0  0  0  0  0  0  0
  140.3710   71.0050  225.2860 C   0  0  0  0  0  0  0  0  0  0  0  0
  140.2030   71.8750  224.2730 N   0  0  0  0  0  0  0  0  0  0  0  0
  140.3800   80.6930  221.6900 C   0  0  0  0  0  0  0  0  0  0  0  0
  140.3535   84.1687  221.9667 H   0  0  0  0  0  0  0  0  0  0  0  0
  141.5083   84.2601  220.5939 H   0  0  0  0  0  0  0  0  0  0  0  0
  140.2096   83.0191  220.5939 H   0  0  0  0  0  0  0  0  0  0  0  0
  143.0479   81.3160  223.6528 H   0  0  0  0  0  0  0  0  0  0  0  0
  142.5477   79.0117  224.3754 H   0  0  0  0  0  0  0  0  0  0  0  0
  140.6495   77.7970  223.3594 H   0  0  0  0  0  0  0  0  0  0  0  0
  138.0949   78.6937  222.1580 H   0  0  0  0  0  0  0  0  0  0  0  0
  138.6878   79.3215  220.5300 H   0  0  0  0  0  0  0  0  0  0  0  0
  139.4170   77.2670  219.9660 H   0  0  0  0  0  0  0  0  0  0  0  0
  138.4513   74.5702  220.6848 H   0  0  0  0  0  0  0  0  0  0  0  0
  140.2802   74.8999  220.7979 H   0  0  0  0  0  0  0  0  0  0  0  0
  139.5310   74.0920  223.3360 H   0  0  0  0  0  0  0  0  0  0  0  0
  139.0068   69.8193  221.9180 H   0  0  0  0  0  0  0  0  0  0  0  0
  139.3042   68.1996  223.7650 H   0  0  0  0  0  0  0  0  0  0  0  0
  139.9878   67.7277  226.0798 H   0  0  0  0  0  0  0  0  0  0  0  0
  141.4483   70.9587  228.5257 H   0  0  0  0  0  0  0  0  0  0  0  0
  141.1159   72.4883  226.6286 H   0  0  0  0  0  0  0  0  0  0  0  0
  139.7621   81.1792  220.9207 H   0  0  0  0  0  0  0  0  0  0  0  0
  1  2  1  0
  2  3  1  0
  3  4  2  0
  4  5  1  0
  5  6  2  0
  6  7  1  0
  7  8  1  0
  8  9  1  0
  9 10  1  0
 10 11  2  0
 10 12  1  0
 12 13  1  0
 13 14  1  0
 14 15  2  0
 14 16  1  0
 16 17  2  0
 17 18  1  0
 18 19  2  0
 19 20  1  0
 20 21  2  0
 21 22  1  0
 21 23  1  0
 23 24  2  0
 24 25  1  0
 25 26  2  0
  7 27  2  0
 27  3  1  0
 26 16  1  0
 25 19  1  0
  1 28  1  0
  1 29  1  0
  1 30  1  0
  4 31  1  0
  5 32  1  0
  6 33  1  0
  8 34  1  0
  8 35  1  0
  9 36  1  0
 12 37  1  0
 12 38  1  0
 13 39  1  0
 17 40  1  0
 18 41  1  0
 20 42  1  0
 23 43  1  0
 24 44  1  0
 27 45  1  0
M  END
>  <smiles>  (42) 
COc1cccc(CNC(=O)CNC(=O)c2ccc3cc(Cl)ccc3n2)c1

>  <score_type>  (42) 
oracle

>  <origin>  (42) 
autodockgpu

>  <m_score__min__energy>  (42) 
-8.1699999999999999

>  <m_primary>  (42) 
energy

>  <rmsd>  (42) 
3.0883735157011127

>  <m_score__min__rmsd>  (42) 
3.0883735157011127

>  <meeko>  (42) 
{"free_energy": -7.47, "intermolecular_energy": -9.26, "internal_energy": -1.37, "cluster_size": 27, "cluster_id": 2, "rank_in_cluster": 16}

>  <energy>  (42) 
-7.16

>  <cluster_rmsd>  (42) 
0.82

>  <cluster>  (42) 
3

$$$$

     RDKit          3D

 45 47  0  0  0  0  0  0  0  0999 V2000
  145.2900   71.4260  216.8130 C   0  0  0  0  0  0  0  0  0  0  0  0
  145.9170   71.6480  218.0530 O   0  0  0  0  0  0  0  0  0  0  0  0
  145.5380   72.6240  218.9440 C   0  0  0  0  0  0  0  0  0  0  0  0
  146.2940   72.7450  220.1080 C   0  0  0  0  0  0  0  0  0  0  0  0
  145.9900   73.6880  221.0480 C   0  0  0  0  0  0  0  0  0  0  0  0
  144.9120   74.5300  220.8310 C   0  0  0  0  0  0  0  0  0  0  0  0
  144.1310   74.4560  219.7000 C   0  0  0  0  0  0  0  0  0  0  0  0
  142.9800   75.3250  219.4150 C   0  0  0  0  0  0  0  0  0  0  0  0
  141.7230   74.8650  219.9140 N   0  0  0  0  0  0  0  0  0  0  0  0
  140.7880   75.6450  220.6380 C   0  0  0  0  0  0  0  0  0  0  0  0
  141.1120   76.8650  220.8650 O   0  0  0  0  0  0  0  0  0  0  0  0
  139.5000   75.1980  221.1510 C   0  0  0  0  0  0  0  0  0  0  0  0
  139.4980   74.1800  222.1400 N   0  0  0  0  0  0  0  0  0  0  0  0
  140.0640   72.8910  221.9270 C   0  0  0  0  0  0  0  0  0  0  0  0
  140.6110   72.5580  220.8290 O   0  0  0  0  0  0  0  0  0  0  0  0
  140.0270   71.8910  223.0080 C   0  0  0  0  0  0  0  0  0  0  0  0
  139.4590   70.6490  222.8040 C   0  0  0  0  0  0  0  0  0  0  0  0
  139.4330   69.7260  223.8350 C   0  0  0  0  0  0  0  0  0  0  0  0
  139.9670   70.0200  225.0730 C   0  0  0  0  0  0  0  0  0  0  0  0
  139.9640   69.1310  226.1300 C   0  0  0  0  0  0  0  0  0  0  0  0
  140.5080   69.4500  227.3690 C   0  0  0  0  0  0  0  0  0  0  0  0
  140.5200   68.3570  228.7150 Cl  0  0  0  0  0  0  0  0  0  0  0  0
  141.0720   70.7230  227.5220 C   0  0  0  0  0  0  0  0  0  0  0  0
  141.0660   71.5990  226.4560 C   0  0  0  0  0  0  0  0  0  0  0  0
  140.5270   71.2850  225.2260 C   0  0  0  0  0  0  0  0  0  0  0  0
  140.5460   72.1760  224.2160 N   0  0  0  0  0  0  0  0  0  0  0  0
  144.4800   73.4800  218.7720 C   0  0  0  0  0  0  0  0  0  0  0  0
  144.2651   71.0631  216.9801 H   0  0  0  0  0  0  0  0  0  0  0  0
  145.2576   72.3673  216.2448 H   0  0  0  0  0  0  0  0  0  0  0  0
  145.8571   70.6740  216.2448 H   0  0  0  0  0  0  0  0  0  0  0  0
  147.1480   72.0714  220.2723 H   0  0  0  0  0  0  0  0  0  0  0  0
  146.5925   73.7775  221.9640 H   0  0  0  0  0  0  0  0  0  0  0  0
  144.6707   75.2870  221.5917 H   0  0  0  0  0  0  0  0  0  0  0  0
  143.1811   76.3105  219.8603 H   0  0  0  0  0  0  0  0  0  0  0  0
  142.8808   75.3448  218.3197 H   0  0  0  0  0  0  0  0  0  0  0  0
  141.4640   73.8690  219.7410 H   0  0  0  0  0  0  0  0  0  0  0  0
  138.9965   76.0756  221.5827 H   0  0  0  0  0  0  0  0  0  0  0  0
  138.9999   74.7422  220.2838 H   0  0  0  0  0  0  0  0  0  0  0  0
  139.0670   74.3310  223.1010 H   0  0  0  0  0  0  0  0  0  0  0  0
  139.0283   70.3938  221.8245 H   0  0  0  0  0  0  0  0  0  0  0  0
  138.9780   68.7392  223.6643 H   0  0  0  0  0  0  0  0  0  0  0  0
  139.5159   68.1367  225.9866 H   0  0  0  0  0  0  0  0  0  0  0  0
  141.5157   71.0216  228.4833 H   0  0  0  0  0  0  0  0  0  0  0  0
  141.5122   72.5949  226.5937 H   0  0  0  0  0  0  0  0  0  0  0  0
  143.8782   73.3904  217.8556 H   0  0  0  0  0  0  0  0  0  0  0  0
  1  2  1  0
  2  3  1  0
  3  4  2  0
  4  5  1  0
  5  6  2  0
  6  7  1  0
  7  8  1  0
  8  9  1  0
  9 10  1  0
 10 11  2  0
 10 12  1  0
 12 13  1  0
 13 14  1  0
 14 15  2  0
 14 16  1  0
 16 17  2  0
 17 18  1  0
 18 19  2  0
 19 20  1  0
 20 21  2  0
 21 22  1  0
 21 23  1  0
 23 24  2  0
 24 25  1  0
 25 26  2  0
  7 27  2  0
 27  3  1  0
 26 16  1  0
 25 19  1  0
  1 28  1  0
  1 29  1  0
  1 30  1  0
  4 31  1  0
  5 32  1  0
  6 33  1  0
  8 34  1  0
  8 35  1  0
  9 36  1  0
 12 37  1  0
 12 38  1  0
 13 39  1  0
 17 40  1  0
 18 41  1  0
 20 42  1  0
 23 43  1  0
 24 44  1  0
 27 45  1  0
M  END
>  <smiles>  (43) 
COc1cccc(CNC(=O)CNC(=O)c2ccc3cc(Cl)ccc3n2)c1

>  <score_type>  (43) 
oracle

>  <origin>  (43) 
autodockgpu

>  <m_score__min__energy>  (43) 
-8.1699999999999999

>  <m_primary>  (43) 
energy

>  <rmsd>  (43) 
3.1480032489135055

>  <m_score__min__rmsd>  (43) 
3.1480032489135055

>  <meeko>  (43) 
{"free_energy": -7.91, "intermolecular_energy": -9.7, "internal_energy": -1.66, "cluster_size": 8, "cluster_id": 1, "rank_in_cluster": 3}

>  <energy>  (43) 
-7.14

>  <cluster_rmsd>  (43) 
0.83

>  <cluster>  (43) 
3

$$$$

     RDKit          3D

 45 47  0  0  0  0  0  0  0  0999 V2000
  145.2140   72.0250  216.5680 C   0  0  0  0  0  0  0  0  0  0  0  0
  145.8940   71.9330  217.7970 O   0  0  0  0  0  0  0  0  0  0  0  0
  145.5980   72.6960  218.9000 C   0  0  0  0  0  0  0  0  0  0  0  0
  146.2980   72.4120  220.0710 C   0  0  0  0  0  0  0  0  0  0  0  0
  146.0680   73.1210  221.2160 C   0  0  0  0  0  0  0  0  0  0  0  0
  145.1240   74.1340  221.2010 C   0  0  0  0  0  0  0  0  0  0  0  0
  144.4040   74.4580  220.0740 C   0  0  0  0  0  0  0  0  0  0  0  0
  143.3940   75.5240  219.9980 C   0  0  0  0  0  0  0  0  0  0  0  0
  142.2180   75.3140  220.7800 N   0  0  0  0  0  0  0  0  0  0  0  0
  140.8850   75.4380  220.3150 C   0  0  0  0  0  0  0  0  0  0  0  0
  140.7350   75.7740  219.0860 O   0  0  0  0  0  0  0  0  0  0  0  0
  139.6730   75.2230  221.0920 C   0  0  0  0  0  0  0  0  0  0  0  0
  139.7000   74.2220  222.0990 N   0  0  0  0  0  0  0  0  0  0  0  0
  139.9930   72.8560  221.8260 C   0  0  0  0  0  0  0  0  0  0  0  0
  140.2480   72.4330  220.6550 O   0  0  0  0  0  0  0  0  0  0  0  0
  140.0070   71.8800  222.9290 C   0  0  0  0  0  0  0  0  0  0  0  0
  139.5360   70.5960  222.7430 C   0  0  0  0  0  0  0  0  0  0  0  0
  139.5570   69.6960  223.7940 C   0  0  0  0  0  0  0  0  0  0  0  0
  140.0430   70.0540  225.0350 C   0  0  0  0  0  0  0  0  0  0  0  0
  140.0830   69.1910  226.1120 C   0  0  0  0  0  0  0  0  0  0  0  0
  140.5790   69.5760  227.3530 C   0  0  0  0  0  0  0  0  0  0  0  0
  140.6430   68.5160  228.7240 Cl  0  0  0  0  0  0  0  0  0  0  0  0
  141.0450   70.8900  227.4870 C   0  0  0  0  0  0  0  0  0  0  0  0
  140.9970   71.7390  226.4010 C   0  0  0  0  0  0  0  0  0  0  0  0
  140.5060   71.3600  225.1690 C   0  0  0  0  0  0  0  0  0  0  0  0
  140.4800   72.2280  224.1400 N   0  0  0  0  0  0  0  0  0  0  0  0
  144.6730   73.7080  218.9330 C   0  0  0  0  0  0  0  0  0  0  0  0
  144.1395   72.1704  216.7534 H   0  0  0  0  0  0  0  0  0  0  0  0
  145.6060   72.8783  215.9951 H   0  0  0  0  0  0  0  0  0  0  0  0
  145.3651   71.0982  215.9951 H   0  0  0  0  0  0  0  0  0  0  0  0
  147.0462   71.6057  220.0735 H   0  0  0  0  0  0  0  0  0  0  0  0
  146.6246   72.8905  222.1364 H   0  0  0  0  0  0  0  0  0  0  0  0
  144.9427   74.7016  222.1257 H   0  0  0  0  0  0  0  0  0  0  0  0
  143.8630   76.4598  220.3360 H   0  0  0  0  0  0  0  0  0  0  0  0
  143.0594   75.5486  218.9504 H   0  0  0  0  0  0  0  0  0  0  0  0
  142.3380   75.0520  221.7830 H   0  0  0  0  0  0  0  0  0  0  0  0
  139.4250   76.1755  221.5831 H   0  0  0  0  0  0  0  0  0  0  0  0
  138.9362   74.8597  220.3605 H   0  0  0  0  0  0  0  0  0  0  0  0
  139.4980   74.4470  223.1200 H   0  0  0  0  0  0  0  0  0  0  0  0
  139.1449   70.2889  221.7618 H   0  0  0  0  0  0  0  0  0  0  0  0
  139.1788   68.6750  223.6371 H   0  0  0  0  0  0  0  0  0  0  0  0
  139.7099   68.1641  225.9842 H   0  0  0  0  0  0  0  0  0  0  0  0
  141.4455   71.2416  228.4493 H   0  0  0  0  0  0  0  0  0  0  0  0
  141.3680   72.7673  226.5232 H   0  0  0  0  0  0  0  0  0  0  0  0
  144.1164   73.9382  218.0125 H   0  0  0  0  0  0  0  0  0  0  0  0
  1  2  1  0
  2  3  1  0
  3  4  2  0
  4  5  1  0
  5  6  2  0
  6  7  1  0
  7  8  1  0
  8  9  1  0
  9 10  1  0
 10 11  2  0
 10 12  1  0
 12 13  1  0
 13 14  1  0
 14 15  2  0
 14 16  1  0
 16 17  2  0
 17 18  1  0
 18 19  2  0
 19 20  1  0
 20 21  2  0
 21 22  1  0
 21 23  1  0
 23 24  2  0
 24 25  1  0
 25 26  2  0
  7 27  2  0
 27  3  1  0
 26 16  1  0
 25 19  1  0
  1 28  1  0
  1 29  1  0
  1 30  1  0
  4 31  1  0
  5 32  1  0
  6 33  1  0
  8 34  1  0
  8 35  1  0
  9 36  1  0
 12 37  1  0
 12 38  1  0
 13 39  1  0
 17 40  1  0
 18 41  1  0
 20 42  1  0
 23 43  1  0
 24 44  1  0
 27 45  1  0
M  END
>  <smiles>  (44) 
COc1cccc(CNC(=O)CNC(=O)c2ccc3cc(Cl)ccc3n2)c1

>  <score_type>  (44) 
oracle

>  <origin>  (44) 
autodockgpu

>  <m_score__min__energy>  (44) 
-8.1699999999999999

>  <m_primary>  (44) 
energy

>  <rmsd>  (44) 
3.400346025365284

>  <m_score__min__rmsd>  (44) 
3.400346025365284

>  <meeko>  (44) 
{"free_energy": -8.08, "intermolecular_energy": -9.87, "internal_energy": -1.16, "cluster_size": 8, "cluster_id": 1, "rank_in_cluster": 2}

>  <energy>  (44) 
-7.12

>  <cluster_rmsd>  (44) 
0.81

>  <cluster>  (44) 
3

$$$$

     RDKit          3D

 45 47  0  0  0  0  0  0  0  0999 V2000
  142.9730   80.8270  223.9330 C   0  0  0  0  0  0  0  0  0  0  0  0
  141.6360   80.4820  223.6630 O   0  0  0  0  0  0  0  0  0  0  0  0
  141.2580   79.3910  222.9180 C   0  0  0  0  0  0  0  0  0  0  0  0
  142.1160   78.9990  221.8920 C   0  0  0  0  0  0  0  0  0  0  0  0
  141.8200   77.9250  221.1020 C   0  0  0  0  0  0  0  0  0  0  0  0
  140.6480   77.2230  221.3310 C   0  0  0  0  0  0  0  0  0  0  0  0
  139.7650   77.5660  222.3290 C   0  0  0  0  0  0  0  0  0  0  0  0
  138.5110   76.8560  222.6220 C   0  0  0  0  0  0  0  0  0  0  0  0
  138.4950   75.4690  222.2840 N   0  0  0  0  0  0  0  0  0  0  0  0
  138.0580   74.9250  221.0510 C   0  0  0  0  0  0  0  0  0  0  0  0
  137.6370   75.7590  220.1730 O   0  0  0  0  0  0  0  0  0  0  0  0
  138.0390   73.5150  220.6840 C   0  0  0  0  0  0  0  0  0  0  0  0
  138.3070   72.5630  221.7010 N   0  0  0  0  0  0  0  0  0  0  0  0
  139.4910   72.5840  222.4920 C   0  0  0  0  0  0  0  0  0  0  0  0
  140.3990   73.4600  222.3390 O   0  0  0  0  0  0  0  0  0  0  0  0
  139.6900   71.5610  223.5340 C   0  0  0  0  0  0  0  0  0  0  0  0
  139.3770   70.2380  223.2960 C   0  0  0  0  0  0  0  0  0  0  0  0
  139.5700   69.2950  224.2900 C   0  0  0  0  0  0  0  0  0  0  0  0
  140.0730   69.6480  225.5250 C   0  0  0  0  0  0  0  0  0  0  0  0
  140.2820   68.7430  226.5460 C   0  0  0  0  0  0  0  0  0  0  0  0
  140.7900   69.1240  227.7830 C   0  0  0  0  0  0  0  0  0  0  0  0
  141.0640   68.0120  229.0850 Cl  0  0  0  0  0  0  0  0  0  0  0  0
  141.0910   70.4790  227.9720 C   0  0  0  0  0  0  0  0  0  0  0  0
  140.8760   71.3700  226.9410 C   0  0  0  0  0  0  0  0  0  0  0  0
  140.3720   70.9950  225.7130 C   0  0  0  0  0  0  0  0  0  0  0  0
  140.1790   71.9050  224.7390 N   0  0  0  0  0  0  0  0  0  0  0  0
  140.1090   78.6660  223.1080 C   0  0  0  0  0  0  0  0  0  0  0  0
  143.1287   80.8672  225.0212 H   0  0  0  0  0  0  0  0  0  0  0  0
  143.6422   80.0721  223.4945 H   0  0  0  0  0  0  0  0  0  0  0  0
  143.1934   81.8114  223.4945 H   0  0  0  0  0  0  0  0  0  0  0  0
  143.0443   79.5624  221.7161 H   0  0  0  0  0  0  0  0  0  0  0  0
  142.5030   77.6216  220.2949 H   0  0  0  0  0  0  0  0  0  0  0  0
  140.4145   76.3592  220.6912 H   0  0  0  0  0  0  0  0  0  0  0  0
  138.3163   76.9438  223.7011 H   0  0  0  0  0  0  0  0  0  0  0  0
  137.7429   77.3285  221.9921 H   0  0  0  0  0  0  0  0  0  0  0  0
  138.8270   74.7870  223.0020 H   0  0  0  0  0  0  0  0  0  0  0  0
  137.0389   73.2938  220.2830 H   0  0  0  0  0  0  0  0  0  0  0  0
  138.8710   73.4026  219.9733 H   0  0  0  0  0  0  0  0  0  0  0  0
  137.6270   71.7740  221.9260 H   0  0  0  0  0  0  0  0  0  0  0  0
  138.9750   69.9339  222.3183 H   0  0  0  0  0  0  0  0  0  0  0  0
  139.3173   68.2430  224.0914 H   0  0  0  0  0  0  0  0  0  0  0  0
  140.0383   67.6840  226.3752 H   0  0  0  0  0  0  0  0  0  0  0  0
  141.4950   70.8292  228.9333 H   0  0  0  0  0  0  0  0  0  0  0  0
  141.1181   72.4303  227.1061 H   0  0  0  0  0  0  0  0  0  0  0  0
  139.4265   78.9692  223.9156 H   0  0  0  0  0  0  0  0  0  0  0  0
  1  2  1  0
  2  3  1  0
  3  4  2  0
  4  5  1  0
  5  6  2  0
  6  7  1  0
  7  8  1  0
  8  9  1  0
  9 10  1  0
 10 11  2  0
 10 12  1  0
 12 13  1  0
 13 14  1  0
 14 15  2  0
 14 16  1  0
 16 17  2  0
 17 18  1  0
 18 19  2  0
 19 20  1  0
 20 21  2  0
 21 22  1  0
 21 23  1  0
 23 24  2  0
 24 25  1  0
 25 26  2  0
  7 27  2  0
 27  3  1  0
 26 16  1  0
 25 19  1  0
  1 28  1  0
  1 29  1  0
  1 30  1  0
  4 31  1  0
  5 32  1  0
  6 33  1  0
  8 34  1  0
  8 35  1  0
  9 36  1  0
 12 37  1  0
 12 38  1  0
 13 39  1  0
 17 40  1  0
 18 41  1  0
 20 42  1  0
 23 43  1  0
 24 44  1  0
 27 45  1  0
M  END
>  <smiles>  (45) 
COc1cccc(CNC(=O)CNC(=O)c2ccc3cc(Cl)ccc3n2)c1

>  <score_type>  (45) 
oracle

>  <origin>  (45) 
autodockgpu

>  <m_score__min__energy>  (45) 
-8.1699999999999999

>  <m_primary>  (45) 
energy

>  <rmsd>  (45) 
2.6019309693926833

>  <m_score__min__rmsd>  (45) 
2.6019309693926833

>  <meeko>  (45) 
{"free_energy": -7.89, "intermolecular_energy": -9.68, "internal_energy": -1.54, "cluster_size": 27, "cluster_id": 2, "rank_in_cluster": 3}

>  <energy>  (45) 
-7.11

>  <cluster_rmsd>  (45) 
0.86

>  <cluster>  (45) 
3

$$$$

     RDKit          3D

 45 47  0  0  0  0  0  0  0  0999 V2000
  141.4490   72.2430  227.6940 C   0  0  0  0  0  0  0  0  0  0  0  0
  141.3520   71.6070  226.4420 O   0  0  0  0  0  0  0  0  0  0  0  0
  140.8130   70.3570  226.2520 C   0  0  0  0  0  0  0  0  0  0  0  0
  141.0140   69.4230  227.2670 C   0  0  0  0  0  0  0  0  0  0  0  0
  140.5140   68.1560  227.1640 C   0  0  0  0  0  0  0  0  0  0  0  0
  139.7990   67.8060  226.0300 C   0  0  0  0  0  0  0  0  0  0  0  0
  139.5700   68.6880  224.9990 C   0  0  0  0  0  0  0  0  0  0  0  0
  138.8160   68.3730  223.7760 C   0  0  0  0  0  0  0  0  0  0  0  0
  138.2910   69.4980  223.0710 N   0  0  0  0  0  0  0  0  0  0  0  0
  137.1640   70.2640  223.4600 C   0  0  0  0  0  0  0  0  0  0  0  0
  136.5690   69.9030  224.5370 O   0  0  0  0  0  0  0  0  0  0  0  0
  136.6160   71.4170  222.7590 C   0  0  0  0  0  0  0  0  0  0  0  0
  137.4020   72.5980  222.7090 N   0  0  0  0  0  0  0  0  0  0  0  0
  138.6120   72.6930  221.9650 C   0  0  0  0  0  0  0  0  0  0  0  0
  139.0790   71.7210  221.2930 O   0  0  0  0  0  0  0  0  0  0  0  0
  139.3670   73.9580  221.9600 C   0  0  0  0  0  0  0  0  0  0  0  0
  140.6880   73.9930  221.5620 C   0  0  0  0  0  0  0  0  0  0  0  0
  141.3780   75.1920  221.5660 C   0  0  0  0  0  0  0  0  0  0  0  0
  140.7710   76.3670  221.9640 C   0  0  0  0  0  0  0  0  0  0  0  0
  141.4190   77.5860  221.9850 C   0  0  0  0  0  0  0  0  0  0  0  0
  140.7850   78.7550  222.3890 C   0  0  0  0  0  0  0  0  0  0  0  0
  141.5710   80.3010  222.4270 Cl  0  0  0  0  0  0  0  0  0  0  0  0
  139.4440   78.6650  222.7830 C   0  0  0  0  0  0  0  0  0  0  0  0
  138.8120   77.4380  222.7550 C   0  0  0  0  0  0  0  0  0  0  0  0
  139.4380   76.2770  222.3550 C   0  0  0  0  0  0  0  0  0  0  0  0
  138.7760   75.1040  222.3470 N   0  0  0  0  0  0  0  0  0  0  0  0
  140.0990   69.9650  225.1490 C   0  0  0  0  0  0  0  0  0  0  0  0
  141.3352   71.4968  228.4941 H   0  0  0  0  0  0  0  0  0  0  0  0
  142.4317   72.7292  227.7831 H   0  0  0  0  0  0  0  0  0  0  0  0
  140.6559   73.0000  227.7831 H   0  0  0  0  0  0  0  0  0  0  0  0
  141.5832   69.7102  228.1634 H   0  0  0  0  0  0  0  0  0  0  0  0
  140.6766   67.4245  227.9693 H   0  0  0  0  0  0  0  0  0  0  0  0
  139.3992   66.7843  225.9509 H   0  0  0  0  0  0  0  0  0  0  0  0
  139.4869   67.8291  223.0948 H   0  0  0  0  0  0  0  0  0  0  0  0
  137.9441   67.7866  224.1013 H   0  0  0  0  0  0  0  0  0  0  0  0
  138.7670   69.7860  222.1870 H   0  0  0  0  0  0  0  0  0  0  0  0
  136.4223   71.1080  221.7212 H   0  0  0  0  0  0  0  0  0  0  0  0
  135.7288   71.7002  223.3443 H   0  0  0  0  0  0  0  0  0  0  0  0
  137.1220   73.4810  223.2330 H   0  0  0  0  0  0  0  0  0  0  0  0
  141.1915   73.0688  221.2420 H   0  0  0  0  0  0  0  0  0  0  0  0
  142.4303   75.2099  221.2460 H   0  0  0  0  0  0  0  0  0  0  0  0
  142.4723   77.6336  221.6715 H   0  0  0  0  0  0  0  0  0  0  0  0
  138.8999   79.5629  223.1114 H   0  0  0  0  0  0  0  0  0  0  0  0
  137.7585   77.3843  223.0668 H   0  0  0  0  0  0  0  0  0  0  0  0
  139.9368   70.6965  224.3436 H   0  0  0  0  0  0  0  0  0  0  0  0
  1  2  1  0
  2  3  1  0
  3  4  2  0
  4  5  1  0
  5  6  2  0
  6  7  1  0
  7  8  1  0
  8  9  1  0
  9 10  1  0
 10 11  2  0
 10 12  1  0
 12 13  1  0
 13 14  1  0
 14 15  2  0
 14 16  1  0
 16 17  2  0
 17 18  1  0
 18 19  2  0
 19 20  1  0
 20 21  2  0
 21 22  1  0
 21 23  1  0
 23 24  2  0
 24 25  1  0
 25 26  2  0
  7 27  2  0
 27  3  1  0
 26 16  1  0
 25 19  1  0
  1 28  1  0
  1 29  1  0
  1 30  1  0
  4 31  1  0
  5 32  1  0
  6 33  1  0
  8 34  1  0
  8 35  1  0
  9 36  1  0
 12 37  1  0
 12 38  1  0
 13 39  1  0
 17 40  1  0
 18 41  1  0
 20 42  1  0
 23 43  1  0
 24 44  1  0
 27 45  1  0
M  END
>  <smiles>  (46) 
COc1cccc(CNC(=O)CNC(=O)c2ccc3cc(Cl)ccc3n2)c1

>  <score_type>  (46) 
oracle

>  <origin>  (46) 
autodockgpu

>  <m_score__min__energy>  (46) 
-8.1699999999999999

>  <m_primary>  (46) 
energy

>  <rmsd>  (46) 
8.081234308120868

>  <m_score__min__rmsd>  (46) 
8.081234308120868

>  <meeko>  (46) 
{"free_energy": -7.16, "intermolecular_energy": -8.95, "internal_energy": -1.99, "cluster_size": 14, "cluster_id": 3, "rank_in_cluster": 7}

>  <energy>  (46) 
-7.04

>  <cluster_rmsd>  (46) 
0.76

>  <cluster>  (46) 
3

$$$$

     RDKit          3D

 45 47  0  0  0  0  0  0  0  0999 V2000
  140.6330   82.8750  220.6870 C   0  0  0  0  0  0  0  0  0  0  0  0
  141.0940   82.5630  221.9790 O   0  0  0  0  0  0  0  0  0  0  0  0
  141.1780   81.2860  222.4800 C   0  0  0  0  0  0  0  0  0  0  0  0
  142.4000   80.9010  223.0270 C   0  0  0  0  0  0  0  0  0  0  0  0
  142.5730   79.6500  223.5480 C   0  0  0  0  0  0  0  0  0  0  0  0
  141.5120   78.7600  223.5270 C   0  0  0  0  0  0  0  0  0  0  0  0
  140.2830   79.0870  223.0000 C   0  0  0  0  0  0  0  0  0  0  0  0
  139.1210   78.1870  222.9540 C   0  0  0  0  0  0  0  0  0  0  0  0
  139.4020   76.8390  222.5750 N   0  0  0  0  0  0  0  0  0  0  0  0
  138.8280   76.1550  221.4750 C   0  0  0  0  0  0  0  0  0  0  0  0
  137.9790   76.8100  220.7710 O   0  0  0  0  0  0  0  0  0  0  0  0
  139.1030   74.7840  221.0680 C   0  0  0  0  0  0  0  0  0  0  0  0
  139.2980   73.8160  222.0880 N   0  0  0  0  0  0  0  0  0  0  0  0
  139.2310   72.4140  221.8500 C   0  0  0  0  0  0  0  0  0  0  0  0
  138.9870   71.9270  220.7010 O   0  0  0  0  0  0  0  0  0  0  0  0
  139.4520   71.4740  222.9630 C   0  0  0  0  0  0  0  0  0  0  0  0
  139.0790   70.1500  222.8550 C   0  0  0  0  0  0  0  0  0  0  0  0
  139.2940   69.2850  223.9130 C   0  0  0  0  0  0  0  0  0  0  0  0
  139.8790   69.7190  225.0860 C   0  0  0  0  0  0  0  0  0  0  0  0
  140.1130   68.8930  226.1670 C   0  0  0  0  0  0  0  0  0  0  0  0
  140.7040   69.3550  227.3380 C   0  0  0  0  0  0  0  0  0  0  0  0
  141.0110   68.3440  228.7130 Cl  0  0  0  0  0  0  0  0  0  0  0  0
  141.0640   70.7070  227.3950 C   0  0  0  0  0  0  0  0  0  0  0  0
  140.8220   71.5180  226.3050 C   0  0  0  0  0  0  0  0  0  0  0  0
  140.2360   71.0640  225.1430 C   0  0  0  0  0  0  0  0  0  0  0  0
  140.0220   71.8960  224.1060 N   0  0  0  0  0  0  0  0  0  0  0  0
  140.1560   80.3710  222.4810 C   0  0  0  0  0  0  0  0  0  0  0  0
  139.7241   83.4902  220.7606 H   0  0  0  0  0  0  0  0  0  0  0  0
  141.4106   83.4332  220.1451 H   0  0  0  0  0  0  0  0  0  0  0  0
  140.4038   81.9456  220.1451 H   0  0  0  0  0  0  0  0  0  0  0  0
  143.2373   81.6143  223.0396 H   0  0  0  0  0  0  0  0  0  0  0  0
  143.5411   79.3538  223.9781 H   0  0  0  0  0  0  0  0  0  0  0  0
  141.6568   77.7538  223.9473 H   0  0  0  0  0  0  0  0  0  0  0  0
  138.6659   78.1697  223.9553 H   0  0  0  0  0  0  0  0  0  0  0  0
  138.4588   78.5885  222.1728 H   0  0  0  0  0  0  0  0  0  0  0  0
  140.0830   76.3000  223.1540 H   0  0  0  0  0  0  0  0  0  0  0  0
  138.2541   74.4475  220.4547 H   0  0  0  0  0  0  0  0  0  0  0  0
  140.0717   74.8385  220.5497 H   0  0  0  0  0  0  0  0  0  0  0  0
  139.5050   74.0950  223.0950 H   0  0  0  0  0  0  0  0  0  0  0  0
  138.6115   69.7830  221.9294 H   0  0  0  0  0  0  0  0  0  0  0  0
  138.9932   68.2312  223.8179 H   0  0  0  0  0  0  0  0  0  0  0  0
  139.8224   67.8342  226.0999 H   0  0  0  0  0  0  0  0  0  0  0  0
  141.5351   71.1186  228.2998 H   0  0  0  0  0  0  0  0  0  0  0  0
  141.1107   72.5777  226.3665 H   0  0  0  0  0  0  0  0  0  0  0  0
  139.1883   80.6675  222.0501 H   0  0  0  0  0  0  0  0  0  0  0  0
  1  2  1  0
  2  3  1  0
  3  4  2  0
  4  5  1  0
  5  6  2  0
  6  7  1  0
  7  8  1  0
  8  9  1  0
  9 10  1  0
 10 11  2  0
 10 12  1  0
 12 13  1  0
 13 14  1  0
 14 15  2  0
 14 16  1  0
 16 17  2  0
 17 18  1  0
 18 19  2  0
 19 20  1  0
 20 21  2  0
 21 22  1  0
 21 23  1  0
 23 24  2  0
 24 25  1  0
 25 26  2  0
  7 27  2  0
 27  3  1  0
 26 16  1  0
 25 19  1  0
  1 28  1  0
  1 29  1  0
  1 30  1  0
  4 31  1  0
  5 32  1  0
  6 33  1  0
  8 34  1  0
  8 35  1  0
  9 36  1  0
 12 37  1  0
 12 38  1  0
 13 39  1  0
 17 40  1  0
 18 41  1  0
 20 42  1  0
 23 43  1  0
 24 44  1  0
 27 45  1  0
M  END
>  <smiles>  (47) 
COc1cccc(CNC(=O)CNC(=O)c2ccc3cc(Cl)ccc3n2)c1

>  <score_type>  (47) 
oracle

>  <origin>  (47) 
autodockgpu

>  <m_score__min__energy>  (47) 
-8.1699999999999999

>  <m_primary>  (47) 
energy

>  <rmsd>  (47) 
3.3400209646090793

>  <m_score__min__rmsd>  (47) 
3.3400209646090793

>  <meeko>  (47) 
{"free_energy": -7.81, "intermolecular_energy": -9.6, "internal_energy": -1.03, "cluster_size": 27, "cluster_id": 2, "rank_in_cluster": 6}

>  <energy>  (47) 
-6.99

>  <cluster_rmsd>  (47) 
1.7

>  <cluster>  (47) 
3

$$$$

     RDKit          3D

 45 47  0  0  0  0  0  0  0  0999 V2000
  143.0780   80.8540  223.9520 C   0  0  0  0  0  0  0  0  0  0  0  0
  141.6770   80.7280  223.9750 O   0  0  0  0  0  0  0  0  0  0  0  0
  140.9860   79.7040  223.3720 C   0  0  0  0  0  0  0  0  0  0  0  0
  139.6330   79.5850  223.6850 C   0  0  0  0  0  0  0  0  0  0  0  0
  138.8690   78.5970  223.1320 C   0  0  0  0  0  0  0  0  0  0  0  0
  139.4570   77.7070  222.2490 C   0  0  0  0  0  0  0  0  0  0  0  0
  140.7880   77.7780  221.9030 C   0  0  0  0  0  0  0  0  0  0  0  0
  141.4640   76.8650  220.9690 C   0  0  0  0  0  0  0  0  0  0  0  0
  140.8280   75.6020  220.7740 N   0  0  0  0  0  0  0  0  0  0  0  0
  141.2980   74.5620  219.9350 C   0  0  0  0  0  0  0  0  0  0  0  0
  142.3870   74.7880  219.2960 O   0  0  0  0  0  0  0  0  0  0  0  0
  140.6690   73.2660  219.7270 C   0  0  0  0  0  0  0  0  0  0  0  0
  140.6410   72.3590  220.8180 N   0  0  0  0  0  0  0  0  0  0  0  0
  140.0800   72.6860  222.0850 C   0  0  0  0  0  0  0  0  0  0  0  0
  139.5660   73.8220  222.3310 O   0  0  0  0  0  0  0  0  0  0  0  0
  140.0850   71.6850  223.1650 C   0  0  0  0  0  0  0  0  0  0  0  0
  139.5710   70.4200  222.9600 C   0  0  0  0  0  0  0  0  0  0  0  0
  139.5830   69.4960  223.9900 C   0  0  0  0  0  0  0  0  0  0  0  0
  140.1030   69.8110  225.2290 C   0  0  0  0  0  0  0  0  0  0  0  0
  140.1370   68.9220  226.2850 C   0  0  0  0  0  0  0  0  0  0  0  0
  140.6670   69.2630  227.5240 C   0  0  0  0  0  0  0  0  0  0  0  0
  140.7250   68.1710  228.8700 Cl  0  0  0  0  0  0  0  0  0  0  0  0
  141.1770   70.5590  227.6790 C   0  0  0  0  0  0  0  0  0  0  0  0
  141.1340   71.4340  226.6130 C   0  0  0  0  0  0  0  0  0  0  0  0
  140.6100   71.0990  225.3830 C   0  0  0  0  0  0  0  0  0  0  0  0
  140.5910   71.9910  224.3740 N   0  0  0  0  0  0  0  0  0  0  0  0
  141.5250   78.8000  222.4920 C   0  0  0  0  0  0  0  0  0  0  0  0
  143.4600   80.8884  224.9830 H   0  0  0  0  0  0  0  0  0  0  0  0
  143.5152   79.9915  223.4275 H   0  0  0  0  0  0  0  0  0  0  0  0
  143.3543   81.7806  223.4275 H   0  0  0  0  0  0  0  0  0  0  0  0
  139.1741   80.2966  224.3871 H   0  0  0  0  0  0  0  0  0  0  0  0
  137.8019   78.5096  223.3845 H   0  0  0  0  0  0  0  0  0  0  0  0
  138.8372   76.9129  221.8070 H   0  0  0  0  0  0  0  0  0  0  0  0
  141.5281   77.3664  219.9920 H   0  0  0  0  0  0  0  0  0  0  0  0
  142.4428   76.6433  221.4194 H   0  0  0  0  0  0  0  0  0  0  0  0
  139.9350   75.4210  221.2850 H   0  0  0  0  0  0  0  0  0  0  0  0
  139.6267   73.4518  219.4286 H   0  0  0  0  0  0  0  0  0  0  0  0
  141.2990   72.7714  218.9730 H   0  0  0  0  0  0  0  0  0  0  0  0
  141.0440   71.3760  220.7420 H   0  0  0  0  0  0  0  0  0  0  0  0
  139.1528   70.1473  221.9798 H   0  0  0  0  0  0  0  0  0  0  0  0
  139.1701   68.4911  223.8179 H   0  0  0  0  0  0  0  0  0  0  0  0
  139.7310   67.9099  226.1410 H   0  0  0  0  0  0  0  0  0  0  0  0
  141.6072   70.8755  228.6406 H   0  0  0  0  0  0  0  0  0  0  0  0
  141.5374   72.4479  226.7515 H   0  0  0  0  0  0  0  0  0  0  0  0
  142.5921   78.8877  222.2399 H   0  0  0  0  0  0  0  0  0  0  0  0
  1  2  1  0
  2  3  1  0
  3  4  2  0
  4  5  1  0
  5  6  2  0
  6  7  1  0
  7  8  1  0
  8  9  1  0
  9 10  1  0
 10 11  2  0
 10 12  1  0
 12 13  1  0
 13 14  1  0
 14 15  2  0
 14 16  1  0
 16 17  2  0
 17 18  1  0
 18 19  2  0
 19 20  1  0
 20 21  2  0
 21 22  1  0
 21 23  1  0
 23 24  2  0
 24 25  1  0
 25 26  2  0
  7 27  2  0
 27  3  1  0
 26 16  1  0
 25 19  1  0
  1 28  1  0
  1 29  1  0
  1 30  1  0
  4 31  1  0
  5 32  1  0
  6 33  1  0
  8 34  1  0
  8 35  1  0
  9 36  1  0
 12 37  1  0
 12 38  1  0
 13 39  1  0
 17 40  1  0
 18 41  1  0
 20 42  1  0
 23 43  1  0
 24 44  1  0
 27 45  1  0
M  END
>  <smiles>  (48) 
COc1cccc(CNC(=O)CNC(=O)c2ccc3cc(Cl)ccc3n2)c1

>  <score_type>  (48) 
oracle

>  <origin>  (48) 
autodockgpu

>  <m_score__min__energy>  (48) 
-8.1699999999999999

>  <m_primary>  (48) 
energy

>  <rmsd>  (48) 
3.0097632866724635

>  <m_score__min__rmsd>  (48) 
3.0097632866724635

>  <meeko>  (48) 
{"free_energy": -7.36, "intermolecular_energy": -9.15, "internal_energy": -1.47, "cluster_size": 27, "cluster_id": 2, "rank_in_cluster": 24}

>  <energy>  (48) 
-6.95

>  <cluster_rmsd>  (48) 
1.74

>  <cluster>  (48) 
3

$$$$

     RDKit          3D

 45 47  0  0  0  0  0  0  0  0999 V2000
  141.5120   72.6070  227.3090 C   0  0  0  0  0  0  0  0  0  0  0  0
  140.5010   71.7460  227.7740 O   0  0  0  0  0  0  0  0  0  0  0  0
  140.3790   70.4290  227.4000 C   0  0  0  0  0  0  0  0  0  0  0  0
  140.7940   69.4710  228.3220 C   0  0  0  0  0  0  0  0  0  0  0  0
  140.7090   68.1380  228.0350 C   0  0  0  0  0  0  0  0  0  0  0  0
  140.2020   67.7450  226.8070 C   0  0  0  0  0  0  0  0  0  0  0  0
  139.7780   68.6490  225.8600 C   0  0  0  0  0  0  0  0  0  0  0  0
  139.2280   68.2910  224.5430 C   0  0  0  0  0  0  0  0  0  0  0  0
  138.6290   69.3630  223.8140 N   0  0  0  0  0  0  0  0  0  0  0  0
  137.3300   69.8850  224.0330 C   0  0  0  0  0  0  0  0  0  0  0  0
  136.6400   69.3360  224.9640 O   0  0  0  0  0  0  0  0  0  0  0  0
  136.7040   70.9800  223.3050 C   0  0  0  0  0  0  0  0  0  0  0  0
  137.4870   72.1330  223.0390 N   0  0  0  0  0  0  0  0  0  0  0  0
  138.6270   72.1160  222.1860 C   0  0  0  0  0  0  0  0  0  0  0  0
  139.0290   71.0600  221.6040 O   0  0  0  0  0  0  0  0  0  0  0  0
  139.3830   73.3590  221.9550 C   0  0  0  0  0  0  0  0  0  0  0  0
  140.6220   73.3310  221.3460 C   0  0  0  0  0  0  0  0  0  0  0  0
  141.3150   74.5100  221.1410 C   0  0  0  0  0  0  0  0  0  0  0  0
  140.7940   75.7260  221.5350 C   0  0  0  0  0  0  0  0  0  0  0  0
  141.4490   76.9270  221.3510 C   0  0  0  0  0  0  0  0  0  0  0  0
  140.9020   78.1400  221.7570 C   0  0  0  0  0  0  0  0  0  0  0  0
  141.6990   79.6640  221.5410 Cl  0  0  0  0  0  0  0  0  0  0  0  0
  139.6430   78.1120  222.3700 C   0  0  0  0  0  0  0  0  0  0  0  0
  139.0030   76.9020  222.5450 C   0  0  0  0  0  0  0  0  0  0  0  0
  139.5420   75.6990  222.1440 C   0  0  0  0  0  0  0  0  0  0  0  0
  138.8760   74.5450  222.3390 N   0  0  0  0  0  0  0  0  0  0  0  0
  139.8840   69.9940  226.1970 C   0  0  0  0  0  0  0  0  0  0  0  0
  142.0364   73.0536  228.1666 H   0  0  0  0  0  0  0  0  0  0  0  0
  142.2273   72.0365  226.6984 H   0  0  0  0  0  0  0  0  0  0  0  0
  141.0627   73.4040  226.6984 H   0  0  0  0  0  0  0  0  0  0  0  0
  141.1956   69.7921  229.2944 H   0  0  0  0  0  0  0  0  0  0  0  0
  141.0384   67.3874  228.7685 H   0  0  0  0  0  0  0  0  0  0  0  0
  140.1359   66.6706  226.5806 H   0  0  0  0  0  0  0  0  0  0  0  0
  140.0475   67.8830  223.9332 H   0  0  0  0  0  0  0  0  0  0  0  0
  138.4198   67.5710  224.7392 H   0  0  0  0  0  0  0  0  0  0  0  0
  139.1850   69.8030  223.0480 H   0  0  0  0  0  0  0  0  0  0  0  0
  136.3694   70.5805  222.3363 H   0  0  0  0  0  0  0  0  0  0  0  0
  135.9066   71.3360  223.9738 H   0  0  0  0  0  0  0  0  0  0  0  0
  137.2580   73.0790  223.4690 H   0  0  0  0  0  0  0  0  0  0  0  0
  141.0567   72.3730  221.0246 H   0  0  0  0  0  0  0  0  0  0  0  0
  142.3010   74.4782  220.6543 H   0  0  0  0  0  0  0  0  0  0  0  0
  142.4368   76.9249  220.8670 H   0  0  0  0  0  0  0  0  0  0  0  0
  139.1691   79.0452  222.7085 H   0  0  0  0  0  0  0  0  0  0  0  0
  138.0147   76.8977  223.0280 H   0  0  0  0  0  0  0  0  0  0  0  0
  139.5551   70.7451  225.4637 H   0  0  0  0  0  0  0  0  0  0  0  0
  1  2  1  0
  2  3  1  0
  3  4  2  0
  4  5  1  0
  5  6  2  0
  6  7  1  0
  7  8  1  0
  8  9  1  0
  9 10  1  0
 10 11  2  0
 10 12  1  0
 12 13  1  0
 13 14  1  0
 14 15  2  0
 14 16  1  0
 16 17  2  0
 17 18  1  0
 18 19  2  0
 19 20  1  0
 20 21  2  0
 21 22  1  0
 21 23  1  0
 23 24  2  0
 24 25  1  0
 25 26  2  0
  7 27  2  0
 27  3  1  0
 26 16  1  0
 25 19  1  0
  1 28  1  0
  1 29  1  0
  1 30  1  0
  4 31  1  0
  5 32  1  0
  6 33  1  0
  8 34  1  0
  8 35  1  0
  9 36  1  0
 12 37  1  0
 12 38  1  0
 13 39  1  0
 17 40  1  0
 18 41  1  0
 20 42  1  0
 23 43  1  0
 24 44  1  0
 27 45  1  0
M  END
>  <smiles>  (49) 
COc1cccc(CNC(=O)CNC(=O)c2ccc3cc(Cl)ccc3n2)c1

>  <score_type>  (49) 
oracle

>  <origin>  (49) 
autodockgpu

>  <m_score__min__energy>  (49) 
-8.1699999999999999

>  <m_primary>  (49) 
energy

>  <rmsd>  (49) 
8.217785814559242

>  <m_score__min__rmsd>  (49) 
8.217785814559242

>  <meeko>  (49) 
{"free_energy": -7.25, "intermolecular_energy": -9.04, "internal_energy": -1.97, "cluster_size": 14, "cluster_id": 3, "rank_in_cluster": 1}

>  <energy>  (49) 
-6.9

>  <cluster_rmsd>  (49) 
1.54

>  <cluster>  (49) 
3

$$$$

     RDKit          3D

 45 47  0  0  0  0  0  0  0  0999 V2000
  146.7890   74.1270  216.2760 C   0  0  0  0  0  0  0  0  0  0  0  0
  146.6900   73.3840  217.4670 O   0  0  0  0  0  0  0  0  0  0  0  0
  145.5980   73.4090  218.3010 C   0  0  0  0  0  0  0  0  0  0  0  0
  145.8140   73.0640  219.6340 C   0  0  0  0  0  0  0  0  0  0  0  0
  144.7860   73.0620  220.5340 C   0  0  0  0  0  0  0  0  0  0  0  0
  143.5150   73.4070  220.1040 C   0  0  0  0  0  0  0  0  0  0  0  0
  143.2450   73.7550  218.8010 C   0  0  0  0  0  0  0  0  0  0  0  0
  141.9190   74.1350  218.2900 C   0  0  0  0  0  0  0  0  0  0  0  0
  140.8550   74.0830  219.2400 N   0  0  0  0  0  0  0  0  0  0  0  0
  140.7090   74.9360  220.3620 C   0  0  0  0  0  0  0  0  0  0  0  0
  141.6200   75.8230  220.5310 O   0  0  0  0  0  0  0  0  0  0  0  0
  139.6300   74.9030  221.3400 C   0  0  0  0  0  0  0  0  0  0  0  0
  139.6770   73.9030  222.3460 N   0  0  0  0  0  0  0  0  0  0  0  0
  139.8940   72.5250  222.0600 C   0  0  0  0  0  0  0  0  0  0  0  0
  140.0570   72.0910  220.8760 O   0  0  0  0  0  0  0  0  0  0  0  0
  139.9360   71.5500  223.1630 C   0  0  0  0  0  0  0  0  0  0  0  0
  139.4550   70.2670  222.9920 C   0  0  0  0  0  0  0  0  0  0  0  0
  139.5030   69.3680  224.0430 C   0  0  0  0  0  0  0  0  0  0  0  0
  140.0240   69.7260  225.2690 C   0  0  0  0  0  0  0  0  0  0  0  0
  140.0920   68.8630  226.3450 C   0  0  0  0  0  0  0  0  0  0  0  0
  140.6220   69.2480  227.5720 C   0  0  0  0  0  0  0  0  0  0  0  0
  140.7220   68.1890  228.9410 Cl  0  0  0  0  0  0  0  0  0  0  0  0
  141.0960   70.5610  227.6920 C   0  0  0  0  0  0  0  0  0  0  0  0
  141.0210   71.4090  226.6060 C   0  0  0  0  0  0  0  0  0  0  0  0
  140.4950   71.0310  225.3890 C   0  0  0  0  0  0  0  0  0  0  0  0
  140.4430   71.8980  224.3600 N   0  0  0  0  0  0  0  0  0  0  0  0
  144.3230   73.7440  217.9220 C   0  0  0  0  0  0  0  0  0  0  0  0
  146.9307   75.1906  216.5181 H   0  0  0  0  0  0  0  0  0  0  0  0
  147.6471   73.7670  215.6895 H   0  0  0  0  0  0  0  0  0  0  0  0
  145.8666   74.0042  215.6895 H   0  0  0  0  0  0  0  0  0  0  0  0
  146.8261   72.7895  219.9661 H   0  0  0  0  0  0  0  0  0  0  0  0
  144.9649   72.7904  221.5848 H   0  0  0  0  0  0  0  0  0  0  0  0
  142.6906   73.4024  220.8322 H   0  0  0  0  0  0  0  0  0  0  0  0
  141.9847   75.1656  217.9112 H   0  0  0  0  0  0  0  0  0  0  0  0
  141.6697   73.3928  217.5173 H   0  0  0  0  0  0  0  0  0  0  0  0
  140.1200   73.3530  219.1110 H   0  0  0  0  0  0  0  0  0  0  0  0
  139.6181   75.8786  221.8480 H   0  0  0  0  0  0  0  0  0  0  0  0
  138.7319   74.6618  220.7524 H   0  0  0  0  0  0  0  0  0  0  0  0
  139.5500   74.1370  223.3770 H   0  0  0  0  0  0  0  0  0  0  0  0
  139.0347   69.9603  222.0228 H   0  0  0  0  0  0  0  0  0  0  0  0
  139.1181   68.3478  223.8979 H   0  0  0  0  0  0  0  0  0  0  0  0
  139.7143   67.8366  226.2277 H   0  0  0  0  0  0  0  0  0  0  0  0
  141.5237   70.9124  228.6426 H   0  0  0  0  0  0  0  0  0  0  0  0
  141.3991   72.4360  226.7166 H   0  0  0  0  0  0  0  0  0  0  0  0
  144.1443   74.0173  216.8716 H   0  0  0  0  0  0  0  0  0  0  0  0
  1  2  1  0
  2  3  1  0
  3  4  2  0
  4  5  1  0
  5  6  2  0
  6  7  1  0
  7  8  1  0
  8  9  1  0
  9 10  1  0
 10 11  2  0
 10 12  1  0
 12 13  1  0
 13 14  1  0
 14 15  2  0
 14 16  1  0
 16 17  2  0
 17 18  1  0
 18 19  2  0
 19 20  1  0
 20 21  2  0
 21 22  1  0
 21 23  1  0
 23 24  2  0
 24 25  1  0
 25 26  2  0
  7 27  2  0
 27  3  1  0
 26 16  1  0
 25 19  1  0
  1 28  1  0
  1 29  1  0
  1 30  1  0
  4 31  1  0
  5 32  1  0
  6 33  1  0
  8 34  1  0
  8 35  1  0
  9 36  1  0
 12 37  1  0
 12 38  1  0
 13 39  1  0
 17 40  1  0
 18 41  1  0
 20 42  1  0
 23 43  1  0
 24 44  1  0
 27 45  1  0
M  END
>  <smiles>  (50) 
COc1cccc(CNC(=O)CNC(=O)c2ccc3cc(Cl)ccc3n2)c1

>  <score_type>  (50) 
oracle

>  <origin>  (50) 
autodockgpu

>  <m_score__min__energy>  (50) 
-8.1699999999999999

>  <m_primary>  (50) 
energy

>  <rmsd>  (50) 
2.727577077708019

>  <m_score__min__rmsd>  (50) 
2.727577077708019

>  <meeko>  (50) 
{"free_energy": -6.89, "intermolecular_energy": -8.68, "internal_energy": -1.84, "cluster_size": 8, "cluster_id": 1, "rank_in_cluster": 8}

>  <energy>  (50) 
-6.86

>  <cluster_rmsd>  (50) 
0.0

>  <cluster>  (50) 
4

$$$$
