
     RDKit          3D

 49 52  0  0  0  0  0  0  0  0999 V2000
  141.4150   72.9650  221.5640 O   0  0  0  0  0  0  0  0  0  0  0  0
  140.4130   72.9970  222.3220 C   0  0  0  0  0  0  0  0  0  0  0  0
  139.4690   74.0560  222.3480 N   0  0  0  0  0  0  0  0  0  0  0  0
  139.6500   75.2060  221.4410 C   0  0  0  0  0  0  0  0  0  0  0  0
  139.2400   76.4500  222.0780 C   0  0  0  0  0  0  0  0  0  0  0  0
  138.1440   76.3830  222.7710 O   0  0  0  0  0  0  0  0  0  0  0  0
  139.8420   77.7110  222.0590 N   0  0  0  0  0  0  0  0  0  0  0  0
  139.3300   78.7550  223.0160 C   0  0  0  0  0  0  0  0  0  0  0  0
  140.5440   79.6110  223.2900 C   0  0  0  0  0  0  0  0  0  0  0  0
  141.6670   78.9910  222.4900 C   0  0  2  0  0  0  0  0  0  0  0  0
  142.6080   79.8910  222.0590 O   0  0  0  0  0  0  0  0  0  0  0  0
  140.8500   78.3840  221.3390 C   0  0  1  0  0  0  0  0  0  0  0  0
  141.6920   77.6890  220.3950 C   0  0  0  0  0  0  0  0  0  0  0  0
  142.1870   76.4150  220.4940 C   0  0  0  0  0  0  0  0  0  0  0  0
  142.9870   75.8180  219.5420 C   0  0  0  0  0  0  0  0  0  0  0  0
  143.3270   76.5230  218.4080 C   0  0  0  0  0  0  0  0  0  0  0  0
  142.8540   77.8070  218.2650 C   0  0  0  0  0  0  0  0  0  0  0  0
  142.0640   78.3760  219.2200 C   0  0  0  0  0  0  0  0  0  0  0  0
  140.1920   71.8760  223.2410 C   0  0  0  0  0  0  0  0  0  0  0  0
  139.5430   70.7260  222.8150 C   0  0  0  0  0  0  0  0  0  0  0  0
  139.3220   69.6660  223.6440 C   0  0  0  0  0  0  0  0  0  0  0  0
  139.7670   69.7590  224.9440 C   0  0  0  0  0  0  0  0  0  0  0  0
  139.5550   68.6930  225.8040 C   0  0  0  0  0  0  0  0  0  0  0  0
  139.9940   68.7730  227.1060 C   0  0  0  0  0  0  0  0  0  0  0  0
  139.8110   67.7580  227.9900 F   0  0  0  0  0  0  0  0  0  0  0  0
  140.6520   69.9140  227.5720 C   0  0  0  0  0  0  0  0  0  0  0  0
  140.8570   70.9670  226.7030 C   0  0  0  0  0  0  0  0  0  0  0  0
  140.4180   70.8940  225.3950 C   0  0  0  0  0  0  0  0  0  0  0  0
  140.5980   71.8970  224.5160 N   0  0  0  0  0  0  0  0  0  0  0  0
  138.6500   74.0370  222.9960 H   0  0  0  0  0  0  0  0  0  0  0  0
  140.7115   75.2789  221.1618 H   0  0  0  0  0  0  0  0  0  0  0  0
  139.0241   75.0485  220.5503 H   0  0  0  0  0  0  0  0  0  0  0  0
  138.5263   79.3489  222.5563 H   0  0  0  0  0  0  0  0  0  0  0  0
  138.8972   78.3218  223.9298 H   0  0  0  0  0  0  0  0  0  0  0  0
  140.3657   80.6461  222.9633 H   0  0  0  0  0  0  0  0  0  0  0  0
  140.7815   79.6491  224.3634 H   0  0  0  0  0  0  0  0  0  0  0  0
  142.2893   78.2813  223.0548 H   0  0  0  0  0  0  0  0  0  0  0  0
  143.3010   79.3620  221.5560 H   0  0  0  0  0  0  0  0  0  0  0  0
  140.3712   79.0587  220.6141 H   0  0  0  0  0  0  0  0  0  0  0  0
  141.9299   75.8310  221.3900 H   0  0  0  0  0  0  0  0  0  0  0  0
  143.3498   74.7897  219.6866 H   0  0  0  0  0  0  0  0  0  0  0  0
  143.9629   76.0690  217.6337 H   0  0  0  0  0  0  0  0  0  0  0  0
  143.1172   78.3838  217.3661 H   0  0  0  0  0  0  0  0  0  0  0  0
  141.7048   79.4047  219.0693 H   0  0  0  0  0  0  0  0  0  0  0  0
  139.1949   70.6673  221.7732 H   0  0  0  0  0  0  0  0  0  0  0  0
  138.8041   68.7642  223.2853 H   0  0  0  0  0  0  0  0  0  0  0  0
  139.0392   67.7889  225.4483 H   0  0  0  0  0  0  0  0  0  0  0  0
  141.0008   69.9724  228.6136 H   0  0  0  0  0  0  0  0  0  0  0  0
  141.3742   71.8718  227.0550 H   0  0  0  0  0  0  0  0  0  0  0  0
  1  2  2  0
  2  3  1  0
  3  4  1  0
  4  5  1  0
  5  6  2  0
  5  7  1  0
  7  8  1  0
  8  9  1  0
  9 10  1  0
 10 11  1  0
 10 12  1  0
 12 13  1  0
 13 14  2  0
 14 15  1  0
 15 16  2  0
 16 17  1  0
 17 18  2  0
  2 19  1  0
 19 20  2  0
 20 21  1  0
 21 22  2  0
 22 23  1  0
 23 24  2  0
 24 25  1  0
 24 26  1  0
 26 27  2  0
 27 28  1  0
 28 29  2  0
 12  7  1  0
 18 13  1  0
 29 19  1  0
 28 22  1  0
  3 30  1  0
  4 31  1  0
  4 32  1  0
  8 33  1  0
  8 34  1  0
  9 35  1  0
  9 36  1  0
 10 37  1  1
 11 38  1  0
 12 39  1  6
 14 40  1  0
 15 41  1  0
 16 42  1  0
 17 43  1  0
 18 44  1  0
 20 45  1  0
 21 46  1  0
 23 47  1  0
 26 48  1  0
 27 49  1  0
M  END
>  <smiles>  (1) 
O=C(NCC(=O)N1CC[C@H](O)[C@H]1c1ccccc1)c1ccc2cc(F)ccc2n1

>  <score_type>  (1) 
oracle

>  <origin>  (1) 
autodockgpu

>  <m_score__min__energy>  (1) 
-8.9399999999999995

>  <m_primary>  (1) 
energy

>  <rmsd>  (1) 
3.6406338929527915

>  <m_score__min__rmsd>  (1) 
3.6406338929527915

>  <meeko>  (1) 
{"free_energy": -8.36, "intermolecular_energy": -10.15, "internal_energy": -1.56, "cluster_size": 14, "cluster_id": 3, "rank_in_cluster": 5}

>  <energy>  (1) 
-8.94

>  <cluster_rmsd>  (1) 
0.0

>  <cluster>  (1) 
1

$$$$

     RDKit          3D

 49 52  0  0  0  0  0  0  0  0999 V2000
  141.0720   72.2570  221.2540 O   0  0  0  0  0  0  0  0  0  0  0  0
  140.3420   72.6270  222.2080 C   0  0  0  0  0  0  0  0  0  0  0  0
  139.6510   73.8650  222.2460 N   0  0  0  0  0  0  0  0  0  0  0  0
  139.7790   74.7980  221.1100 C   0  0  0  0  0  0  0  0  0  0  0  0
  140.7060   75.8800  221.4170 C   0  0  0  0  0  0  0  0  0  0  0  0
  140.6930   76.2860  222.6500 O   0  0  0  0  0  0  0  0  0  0  0  0
  141.6070   76.5530  220.5900 N   0  0  0  0  0  0  0  0  0  0  0  0
  142.2210   75.7920  219.4440 C   0  0  0  0  0  0  0  0  0  0  0  0
  142.4710   76.8580  218.4040 C   0  0  0  0  0  0  0  0  0  0  0  0
  141.9700   78.1470  219.0140 C   0  0  2  0  0  0  0  0  0  0  0  0
  142.6470   79.2640  218.5960 O   0  0  0  0  0  0  0  0  0  0  0  0
  142.2010   77.8290  220.4990 C   0  0  1  0  0  0  0  0  0  0  0  0
  141.7810   78.9160  221.3500 C   0  0  0  0  0  0  0  0  0  0  0  0
  140.8510   79.8840  221.0750 C   0  0  0  0  0  0  0  0  0  0  0  0
  140.5010   80.8930  221.9470 C   0  0  0  0  0  0  0  0  0  0  0  0
  141.1090   80.9590  223.1820 C   0  0  0  0  0  0  0  0  0  0  0  0
  142.0510   80.0090  223.5030 C   0  0  0  0  0  0  0  0  0  0  0  0
  142.3800   79.0190  222.6230 C   0  0  0  0  0  0  0  0  0  0  0  0
  140.1860   71.7320  223.3600 C   0  0  0  0  0  0  0  0  0  0  0  0
  139.4970   70.5340  223.2390 C   0  0  0  0  0  0  0  0  0  0  0  0
  139.3340   69.6800  224.2890 C   0  0  0  0  0  0  0  0  0  0  0  0
  139.8790   70.0360  225.5030 C   0  0  0  0  0  0  0  0  0  0  0  0
  139.7270   69.1840  226.5850 C   0  0  0  0  0  0  0  0  0  0  0  0
  140.2670   69.5280  227.8020 C   0  0  0  0  0  0  0  0  0  0  0  0
  140.1460   68.7290  228.8940 F   0  0  0  0  0  0  0  0  0  0  0  0
  140.9680   70.7260  227.9640 C   0  0  0  0  0  0  0  0  0  0  0  0
  141.1130   71.5650  226.8770 C   0  0  0  0  0  0  0  0  0  0  0  0
  140.5720   71.2260  225.6510 C   0  0  0  0  0  0  0  0  0  0  0  0
  140.6900   72.0140  224.5670 N   0  0  0  0  0  0  0  0  0  0  0  0
  139.0540   74.1280  223.0630 H   0  0  0  0  0  0  0  0  0  0  0  0
  140.1492   74.2466  220.2331 H   0  0  0  0  0  0  0  0  0  0  0  0
  138.7903   75.2346  220.9054 H   0  0  0  0  0  0  0  0  0  0  0  0
  143.1629   75.3133  219.7501 H   0  0  0  0  0  0  0  0  0  0  0  0
  141.5774   74.9790  219.0769 H   0  0  0  0  0  0  0  0  0  0  0  0
  143.5455   76.9314  218.1801 H   0  0  0  0  0  0  0  0  0  0  0  0
  141.9597   76.6304  217.4570 H   0  0  0  0  0  0  0  0  0  0  0  0
  140.9368   78.4069  218.7404 H   0  0  0  0  0  0  0  0  0  0  0  0
  143.1490   79.0000  217.7650 H   0  0  0  0  0  0  0  0  0  0  0  0
  143.2334   77.7624  220.8729 H   0  0  0  0  0  0  0  0  0  0  0  0
  140.3515   79.8542  220.0954 H   0  0  0  0  0  0  0  0  0  0  0  0
  139.7441   81.6378  221.6599 H   0  0  0  0  0  0  0  0  0  0  0  0
  140.8468   81.7540  223.8956 H   0  0  0  0  0  0  0  0  0  0  0  0
  142.5467   80.0480  224.4842 H   0  0  0  0  0  0  0  0  0  0  0  0
  143.1373   78.2769  222.9161 H   0  0  0  0  0  0  0  0  0  0  0  0
  139.0677   70.2641  222.2629 H   0  0  0  0  0  0  0  0  0  0  0  0
  138.7838   68.7349  224.1704 H   0  0  0  0  0  0  0  0  0  0  0  0
  139.1776   68.2379  226.4712 H   0  0  0  0  0  0  0  0  0  0  0  0
  141.3968   70.9959  228.9404 H   0  0  0  0  0  0  0  0  0  0  0  0
  141.6635   72.5109  226.9876 H   0  0  0  0  0  0  0  0  0  0  0  0
  1  2  2  0
  2  3  1  0
  3  4  1  0
  4  5  1  0
  5  6  2  0
  5  7  1  0
  7  8  1  0
  8  9  1  0
  9 10  1  0
 10 11  1  0
 10 12  1  0
 12 13  1  0
 13 14  2  0
 14 15  1  0
 15 16  2  0
 16 17  1  0
 17 18  2  0
  2 19  1  0
 19 20  2  0
 20 21  1  0
 21 22  2  0
 22 23  1  0
 23 24  2  0
 24 25  1  0
 24 26  1  0
 26 27  2  0
 27 28  1  0
 28 29  2  0
 12  7  1  0
 18 13  1  0
 29 19  1  0
 28 22  1  0
  3 30  1  0
  4 31  1  0
  4 32  1  0
  8 33  1  0
  8 34  1  0
  9 35  1  0
  9 36  1  0
 10 37  1  1
 11 38  1  0
 12 39  1  6
 14 40  1  0
 15 41  1  0
 16 42  1  0
 17 43  1  0
 18 44  1  0
 20 45  1  0
 21 46  1  0
 23 47  1  0
 26 48  1  0
 27 49  1  0
M  END
>  <smiles>  (2) 
O=C(NCC(=O)N1CC[C@H](O)[C@H]1c1ccccc1)c1ccc2cc(F)ccc2n1

>  <score_type>  (2) 
oracle

>  <origin>  (2) 
autodockgpu

>  <m_score__min__energy>  (2) 
-8.9399999999999995

>  <m_primary>  (2) 
energy

>  <rmsd>  (2) 
2.2110150670494813

>  <m_score__min__rmsd>  (2) 
2.2110150670494813

>  <meeko>  (2) 
{"free_energy": -8.53, "intermolecular_energy": -10.32, "internal_energy": -1.44, "cluster_size": 16, "cluster_id": 2, "rank_in_cluster": 9}

>  <energy>  (2) 
-8.91

>  <cluster_rmsd>  (2) 
0.48

>  <cluster>  (2) 
1

$$$$

     RDKit          3D

 49 52  0  0  0  0  0  0  0  0999 V2000
  139.1010   70.2900  221.3130 O   0  0  0  0  0  0  0  0  0  0  0  0
  139.4500   70.9430  222.3290 C   0  0  0  0  0  0  0  0  0  0  0  0
  139.7200   72.3360  222.3230 N   0  0  0  0  0  0  0  0  0  0  0  0
  139.5960   73.0910  221.0610 C   0  0  0  0  0  0  0  0  0  0  0  0
  140.2530   74.3870  221.1540 C   0  0  0  0  0  0  0  0  0  0  0  0
  140.2530   74.9250  222.3350 O   0  0  0  0  0  0  0  0  0  0  0  0
  140.8850   75.1470  220.1670 N   0  0  0  0  0  0  0  0  0  0  0  0
  140.0880   76.2280  219.4860 C   0  0  0  0  0  0  0  0  0  0  0  0
  141.1280   77.2580  219.1180 C   0  0  0  0  0  0  0  0  0  0  0  0
  142.4410   76.7100  219.6270 C   0  0  2  0  0  0  0  0  0  0  0  0
  143.5300   77.0860  218.8840 O   0  0  0  0  0  0  0  0  0  0  0  0
  142.1410   75.2070  219.5290 C   0  0  1  0  0  0  0  0  0  0  0  0
  143.2540   74.4080  219.9820 C   0  0  0  0  0  0  0  0  0  0  0  0
  144.4870   74.8460  220.3900 C   0  0  0  0  0  0  0  0  0  0  0  0
  145.5030   74.0160  220.8150 C   0  0  0  0  0  0  0  0  0  0  0  0
  145.2950   72.6530  220.8400 C   0  0  0  0  0  0  0  0  0  0  0  0
  144.0730   72.1670  220.4380 C   0  0  0  0  0  0  0  0  0  0  0  0
  143.0830   73.0090  220.0230 C   0  0  0  0  0  0  0  0  0  0  0  0
  139.5880   70.2350  223.6050 C   0  0  0  0  0  0  0  0  0  0  0  0
  139.1020   68.9440  223.7570 C   0  0  0  0  0  0  0  0  0  0  0  0
  139.2150   68.2580  224.9300 C   0  0  0  0  0  0  0  0  0  0  0  0
  139.8340   68.8840  225.9880 C   0  0  0  0  0  0  0  0  0  0  0  0
  139.9600   68.2070  227.1900 C   0  0  0  0  0  0  0  0  0  0  0  0
  140.5780   68.8210  228.2550 C   0  0  0  0  0  0  0  0  0  0  0  0
  140.7270   68.2020  229.4550 F   0  0  0  0  0  0  0  0  0  0  0  0
  141.0800   70.1200  228.1420 C   0  0  0  0  0  0  0  0  0  0  0  0
  140.9470   70.7830  226.9380 C   0  0  0  0  0  0  0  0  0  0  0  0
  140.3280   70.1720  225.8650 C   0  0  0  0  0  0  0  0  0  0  0  0
  140.1780   70.7820  224.6750 N   0  0  0  0  0  0  0  0  0  0  0  0
  140.0070   72.8360  223.1950 H   0  0  0  0  0  0  0  0  0  0  0  0
  140.0600   72.5113  220.2494 H   0  0  0  0  0  0  0  0  0  0  0  0
  138.5275   73.2567  220.8587 H   0  0  0  0  0  0  0  0  0  0  0  0
  139.5857   75.8389  218.5880 H   0  0  0  0  0  0  0  0  0  0  0  0
  139.2895   76.6359  220.1232 H   0  0  0  0  0  0  0  0  0  0  0  0
  141.1655   77.3930  218.0269 H   0  0  0  0  0  0  0  0  0  0  0  0
  140.9001   78.2409  219.5561 H   0  0  0  0  0  0  0  0  0  0  0  0
  142.7269   77.0720  220.6256 H   0  0  0  0  0  0  0  0  0  0  0  0
  143.9380   77.8770  219.3530 H   0  0  0  0  0  0  0  0  0  0  0  0
  142.0500   74.7484  218.5333 H   0  0  0  0  0  0  0  0  0  0  0  0
  144.6784   75.9291  220.3777 H   0  0  0  0  0  0  0  0  0  0  0  0
  146.4691   74.4367  221.1307 H   0  0  0  0  0  0  0  0  0  0  0  0
  146.0893   71.9694  221.1742 H   0  0  0  0  0  0  0  0  0  0  0  0
  143.8909   71.0823  220.4513 H   0  0  0  0  0  0  0  0  0  0  0  0
  142.1188   72.5821  219.7098 H   0  0  0  0  0  0  0  0  0  0  0  0
  138.6090   68.4577  222.9023 H   0  0  0  0  0  0  0  0  0  0  0  0
  138.8231   67.2348  225.0278 H   0  0  0  0  0  0  0  0  0  0  0  0
  139.5682   67.1843  227.2925 H   0  0  0  0  0  0  0  0  0  0  0  0
  141.5725   70.6060  228.9971 H   0  0  0  0  0  0  0  0  0  0  0  0
  141.3372   71.8060  226.8326 H   0  0  0  0  0  0  0  0  0  0  0  0
  1  2  2  0
  2  3  1  0
  3  4  1  0
  4  5  1  0
  5  6  2  0
  5  7  1  0
  7  8  1  0
  8  9  1  0
  9 10  1  0
 10 11  1  0
 10 12  1  0
 12 13  1  0
 13 14  2  0
 14 15  1  0
 15 16  2  0
 16 17  1  0
 17 18  2  0
  2 19  1  0
 19 20  2  0
 20 21  1  0
 21 22  2  0
 22 23  1  0
 23 24  2  0
 24 25  1  0
 24 26  1  0
 26 27  2  0
 27 28  1  0
 28 29  2  0
 12  7  1  0
 18 13  1  0
 29 19  1  0
 28 22  1  0
  3 30  1  0
  4 31  1  0
  4 32  1  0
  8 33  1  0
  8 34  1  0
  9 35  1  0
  9 36  1  0
 10 37  1  1
 11 38  1  0
 12 39  1  6
 14 40  1  0
 15 41  1  0
 16 42  1  0
 17 43  1  0
 18 44  1  0
 20 45  1  0
 21 46  1  0
 23 47  1  0
 26 48  1  0
 27 49  1  0
M  END
>  <smiles>  (3) 
O=C(NCC(=O)N1CC[C@H](O)[C@H]1c1ccccc1)c1ccc2cc(F)ccc2n1

>  <score_type>  (3) 
oracle

>  <origin>  (3) 
autodockgpu

>  <m_score__min__energy>  (3) 
-8.9399999999999995

>  <m_primary>  (3) 
energy

>  <rmsd>  (3) 
1.8140272472128753

>  <m_score__min__rmsd>  (3) 
1.8140272472128753

>  <meeko>  (3) 
{"free_energy": -8.17, "intermolecular_energy": -9.96, "internal_energy": -2.05, "cluster_size": 8, "cluster_id": 4, "rank_in_cluster": 4}

>  <energy>  (3) 
-8.83

>  <cluster_rmsd>  (3) 
0.45

>  <cluster>  (3) 
1

$$$$

     RDKit          3D

 49 52  0  0  0  0  0  0  0  0999 V2000
  140.9260   72.0940  221.4040 O   0  0  0  0  0  0  0  0  0  0  0  0
  140.0880   72.3230  222.3130 C   0  0  0  0  0  0  0  0  0  0  0  0
  139.1440   73.3810  222.2750 N   0  0  0  0  0  0  0  0  0  0  0  0
  139.1220   74.2870  221.1090 C   0  0  0  0  0  0  0  0  0  0  0  0
  140.4180   74.9240  220.9120 C   0  0  0  0  0  0  0  0  0  0  0  0
  141.0980   75.1440  221.9950 O   0  0  0  0  0  0  0  0  0  0  0  0
  141.0440   75.3400  219.7350 N   0  0  0  0  0  0  0  0  0  0  0  0
  140.2870   76.2620  218.8160 C   0  0  0  0  0  0  0  0  0  0  0  0
  141.3740   77.0690  218.1470 C   0  0  0  0  0  0  0  0  0  0  0  0
  142.6730   76.5690  218.7390 C   0  0  2  0  0  0  0  0  0  0  0  0
  143.7420   76.6440  217.8830 O   0  0  0  0  0  0  0  0  0  0  0  0
  142.2640   75.1240  219.0600 C   0  0  1  0  0  0  0  0  0  0  0  0
  143.3420   74.3860  219.6720 C   0  0  0  0  0  0  0  0  0  0  0  0
  144.4670   74.8900  220.2720 C   0  0  0  0  0  0  0  0  0  0  0  0
  145.4560   74.1150  220.8400 C   0  0  0  0  0  0  0  0  0  0  0  0
  145.3340   72.7420  220.8180 C   0  0  0  0  0  0  0  0  0  0  0  0
  144.2220   72.1900  220.2260 C   0  0  0  0  0  0  0  0  0  0  0  0
  143.2560   72.9780  219.6710 C   0  0  0  0  0  0  0  0  0  0  0  0
  140.0730   71.4490  223.4900 C   0  0  0  0  0  0  0  0  0  0  0  0
  139.5540   70.1640  223.4140 C   0  0  0  0  0  0  0  0  0  0  0  0
  139.5260   69.3270  224.4900 C   0  0  0  0  0  0  0  0  0  0  0  0
  140.0340   69.7900  225.6830 C   0  0  0  0  0  0  0  0  0  0  0  0
  140.0160   68.9560  226.7900 C   0  0  0  0  0  0  0  0  0  0  0  0
  140.5210   69.4070  227.9880 C   0  0  0  0  0  0  0  0  0  0  0  0
  140.5270   68.6310  229.1030 F   0  0  0  0  0  0  0  0  0  0  0  0
  141.0520   70.6940  228.1050 C   0  0  0  0  0  0  0  0  0  0  0  0
  141.0640   71.5130  226.9930 C   0  0  0  0  0  0  0  0  0  0  0  0
  140.5580   71.0670  225.7870 C   0  0  0  0  0  0  0  0  0  0  0  0
  140.5500   71.8330  224.6800 N   0  0  0  0  0  0  0  0  0  0  0  0
  138.4660   73.5310  223.0550 H   0  0  0  0  0  0  0  0  0  0  0  0
  138.8664   73.7079  220.2094 H   0  0  0  0  0  0  0  0  0  0  0  0
  138.3725   75.0712  221.2913 H   0  0  0  0  0  0  0  0  0  0  0  0
  139.7098   75.6902  218.0745 H   0  0  0  0  0  0  0  0  0  0  0  0
  139.5555   76.8886  219.3473 H   0  0  0  0  0  0  0  0  0  0  0  0
  141.3595   76.9057  217.0593 H   0  0  0  0  0  0  0  0  0  0  0  0
  141.2400   78.1483  218.3115 H   0  0  0  0  0  0  0  0  0  0  0  0
  143.0392   77.1575  219.5931 H   0  0  0  0  0  0  0  0  0  0  0  0
  144.4170   75.9730  218.2100 H   0  0  0  0  0  0  0  0  0  0  0  0
  142.0856   74.4260  218.2288 H   0  0  0  0  0  0  0  0  0  0  0  0
  144.5885   75.9829  220.3022 H   0  0  0  0  0  0  0  0  0  0  0  0
  146.3333   74.5875  221.3059 H   0  0  0  0  0  0  0  0  0  0  0  0
  146.1092   72.1018  221.2642 H   0  0  0  0  0  0  0  0  0  0  0  0
  144.1096   71.0961  220.1995 H   0  0  0  0  0  0  0  0  0  0  0  0
  142.3809   72.4992  219.2073 H   0  0  0  0  0  0  0  0  0  0  0  0
  139.1518   69.8090  222.4537 H   0  0  0  0  0  0  0  0  0  0  0  0
  139.1099   68.3121  224.4074 H   0  0  0  0  0  0  0  0  0  0  0  0
  139.6008   67.9404  226.7114 H   0  0  0  0  0  0  0  0  0  0  0  0
  141.4534   71.0487  229.0658 H   0  0  0  0  0  0  0  0  0  0  0  0
  141.4797   72.5286  227.0680 H   0  0  0  0  0  0  0  0  0  0  0  0
  1  2  2  0
  2  3  1  0
  3  4  1  0
  4  5  1  0
  5  6  2  0
  5  7  1  0
  7  8  1  0
  8  9  1  0
  9 10  1  0
 10 11  1  0
 10 12  1  0
 12 13  1  0
 13 14  2  0
 14 15  1  0
 15 16  2  0
 16 17  1  0
 17 18  2  0
  2 19  1  0
 19 20  2  0
 20 21  1  0
 21 22  2  0
 22 23  1  0
 23 24  2  0
 24 25  1  0
 24 26  1  0
 26 27  2  0
 27 28  1  0
 28 29  2  0
 12  7  1  0
 18 13  1  0
 29 19  1  0
 28 22  1  0
  3 30  1  0
  4 31  1  0
  4 32  1  0
  8 33  1  0
  8 34  1  0
  9 35  1  0
  9 36  1  0
 10 37  1  1
 11 38  1  0
 12 39  1  6
 14 40  1  0
 15 41  1  0
 16 42  1  0
 17 43  1  0
 18 44  1  0
 20 45  1  0
 21 46  1  0
 23 47  1  0
 26 48  1  0
 27 49  1  0
M  END
>  <smiles>  (4) 
O=C(NCC(=O)N1CC[C@H](O)[C@H]1c1ccccc1)c1ccc2cc(F)ccc2n1

>  <score_type>  (4) 
oracle

>  <origin>  (4) 
autodockgpu

>  <m_score__min__energy>  (4) 
-8.9399999999999995

>  <m_primary>  (4) 
energy

>  <rmsd>  (4) 
1.70723652469779

>  <m_score__min__rmsd>  (4) 
1.70723652469779

>  <meeko>  (4) 
{"free_energy": -8.41, "intermolecular_energy": -10.2, "internal_energy": -1.63, "cluster_size": 8, "cluster_id": 4, "rank_in_cluster": 3}

>  <energy>  (4) 
-8.5

>  <cluster_rmsd>  (4) 
1.41

>  <cluster>  (4) 
1

$$$$

     RDKit          3D

 49 52  0  0  0  0  0  0  0  0999 V2000
  138.6890   70.6990  221.6370 O   0  0  0  0  0  0  0  0  0  0  0  0
  139.1750   71.2510  222.6560 C   0  0  0  0  0  0  0  0  0  0  0  0
  139.5150   72.6260  222.7300 N   0  0  0  0  0  0  0  0  0  0  0  0
  139.2980   73.4870  221.5500 C   0  0  0  0  0  0  0  0  0  0  0  0
  139.8080   74.8330  221.7790 C   0  0  0  0  0  0  0  0  0  0  0  0
  139.2380   75.4840  222.7460 O   0  0  0  0  0  0  0  0  0  0  0  0
  140.8160   75.5360  221.1160 N   0  0  0  0  0  0  0  0  0  0  0  0
  141.5300   74.8500  219.9810 C   0  0  0  0  0  0  0  0  0  0  0  0
  141.9270   75.9890  219.0720 C   0  0  0  0  0  0  0  0  0  0  0  0
  141.3990   77.2410  219.7340 C   0  0  2  0  0  0  0  0  0  0  0  0
  142.1520   78.3610  219.4910 O   0  0  0  0  0  0  0  0  0  0  0  0
  141.4530   76.7910  221.2020 C   0  0  1  0  0  0  0  0  0  0  0  0
  140.9740   77.8190  222.0930 C   0  0  0  0  0  0  0  0  0  0  0  0
  141.6630   78.4410  223.1020 C   0  0  0  0  0  0  0  0  0  0  0  0
  141.1340   79.4220  223.9130 C   0  0  0  0  0  0  0  0  0  0  0  0
  139.8290   79.8240  223.7220 C   0  0  0  0  0  0  0  0  0  0  0  0
  139.0970   79.2280  222.7220 C   0  0  0  0  0  0  0  0  0  0  0  0
  139.6440   78.2590  221.9310 C   0  0  0  0  0  0  0  0  0  0  0  0
  139.4090   70.4350  223.8520 C   0  0  0  0  0  0  0  0  0  0  0  0
  139.0410   69.0970  223.8810 C   0  0  0  0  0  0  0  0  0  0  0  0
  139.2450   68.3100  224.9760 C   0  0  0  0  0  0  0  0  0  0  0  0
  139.8370   68.8810  226.0800 C   0  0  0  0  0  0  0  0  0  0  0  0
  140.0550   68.1010  227.2050 C   0  0  0  0  0  0  0  0  0  0  0  0
  140.6460   68.6590  228.3140 C   0  0  0  0  0  0  0  0  0  0  0  0
  140.8820   67.9390  229.4420 F   0  0  0  0  0  0  0  0  0  0  0  0
  141.0310   70.0020  228.3240 C   0  0  0  0  0  0  0  0  0  0  0  0
  140.8080   70.7660  227.1960 C   0  0  0  0  0  0  0  0  0  0  0  0
  140.2150   70.2130  226.0780 C   0  0  0  0  0  0  0  0  0  0  0  0
  139.9800   70.9230  224.9590 N   0  0  0  0  0  0  0  0  0  0  0  0
  139.9160   73.0400  223.6010 H   0  0  0  0  0  0  0  0  0  0  0  0
  139.8179   73.0486  220.6854 H   0  0  0  0  0  0  0  0  0  0  0  0
  138.2165   73.5518  221.3602 H   0  0  0  0  0  0  0  0  0  0  0  0
  142.4167   74.3097  220.3440 H   0  0  0  0  0  0  0  0  0  0  0  0
  140.9066   74.0973  219.4762 H   0  0  0  0  0  0  0  0  0  0  0  0
  143.0215   76.0387  218.9745 H   0  0  0  0  0  0  0  0  0  0  0  0
  141.5190   75.8617  218.0584 H   0  0  0  0  0  0  0  0  0  0  0  0
  140.4109   77.5633  219.3738 H   0  0  0  0  0  0  0  0  0  0  0  0
  143.0880   78.1470  219.7890 H   0  0  0  0  0  0  0  0  0  0  0  0
  142.4342   76.6525  221.6796 H   0  0  0  0  0  0  0  0  0  0  0  0
  142.7059   78.1374  223.2757 H   0  0  0  0  0  0  0  0  0  0  0  0
  141.7464   79.8793  224.7041 H   0  0  0  0  0  0  0  0  0  0  0  0
  139.3830   80.6046  224.3559 H   0  0  0  0  0  0  0  0  0  0  0  0
  138.0543   79.5369  222.5568 H   0  0  0  0  0  0  0  0  0  0  0  0
  139.0267   77.8064  221.1410 H   0  0  0  0  0  0  0  0  0  0  0  0
  138.5688   68.6564  222.9905 H   0  0  0  0  0  0  0  0  0  0  0  0
  138.9457   67.2515  224.9770 H   0  0  0  0  0  0  0  0  0  0  0  0
  139.7570   67.0421  227.2105 H   0  0  0  0  0  0  0  0  0  0  0  0
  141.5032   70.4426  229.2145 H   0  0  0  0  0  0  0  0  0  0  0  0
  141.1054   71.8250  227.1876 H   0  0  0  0  0  0  0  0  0  0  0  0
  1  2  2  0
  2  3  1  0
  3  4  1  0
  4  5  1  0
  5  6  2  0
  5  7  1  0
  7  8  1  0
  8  9  1  0
  9 10  1  0
 10 11  1  0
 10 12  1  0
 12 13  1  0
 13 14  2  0
 14 15  1  0
 15 16  2  0
 16 17  1  0
 17 18  2  0
  2 19  1  0
 19 20  2  0
 20 21  1  0
 21 22  2  0
 22 23  1  0
 23 24  2  0
 24 25  1  0
 24 26  1  0
 26 27  2  0
 27 28  1  0
 28 29  2  0
 12  7  1  0
 18 13  1  0
 29 19  1  0
 28 22  1  0
  3 30  1  0
  4 31  1  0
  4 32  1  0
  8 33  1  0
  8 34  1  0
  9 35  1  0
  9 36  1  0
 10 37  1  6
 11 38  1  0
 12 39  1  1
 14 40  1  0
 15 41  1  0
 16 42  1  0
 17 43  1  0
 18 44  1  0
 20 45  1  0
 21 46  1  0
 23 47  1  0
 26 48  1  0
 27 49  1  0
M  END
>  <smiles>  (5) 
O=C(NCC(=O)N1CC[C@H](O)[C@H]1c1ccccc1)c1ccc2cc(F)ccc2n1

>  <score_type>  (5) 
oracle

>  <origin>  (5) 
autodockgpu

>  <m_score__min__energy>  (5) 
-8.9399999999999995

>  <m_primary>  (5) 
energy

>  <rmsd>  (5) 
1.9439399319393122

>  <m_score__min__rmsd>  (5) 
1.9439399319393122

>  <meeko>  (5) 
{"free_energy": -8.31, "intermolecular_energy": -10.1, "internal_energy": -1.59, "cluster_size": 16, "cluster_id": 2, "rank_in_cluster": 15}

>  <energy>  (5) 
-8.27

>  <cluster_rmsd>  (5) 
1.16

>  <cluster>  (5) 
1

$$$$

     RDKit          3D

 49 52  0  0  0  0  0  0  0  0999 V2000
  140.3350   71.3840  221.0820 O   0  0  0  0  0  0  0  0  0  0  0  0
  140.0400   71.9690  222.1550 C   0  0  0  0  0  0  0  0  0  0  0  0
  139.8070   73.3640  222.2600 N   0  0  0  0  0  0  0  0  0  0  0  0
  139.9130   74.2080  221.0530 C   0  0  0  0  0  0  0  0  0  0  0  0
  140.4120   75.5370  221.3810 C   0  0  0  0  0  0  0  0  0  0  0  0
  139.9990   76.0200  222.5120 O   0  0  0  0  0  0  0  0  0  0  0  0
  141.2660   76.3780  220.6640 N   0  0  0  0  0  0  0  0  0  0  0  0
  141.8440   75.8660  219.3700 C   0  0  0  0  0  0  0  0  0  0  0  0
  142.0320   77.1170  218.5460 C   0  0  0  0  0  0  0  0  0  0  0  0
  141.5350   78.2530  219.4110 C   0  0  2  0  0  0  0  0  0  0  0  0
  142.1750   79.4450  219.1900 O   0  0  0  0  0  0  0  0  0  0  0  0
  141.8340   77.6620  220.7980 C   0  0  1  0  0  0  0  0  0  0  0  0
  141.4330   78.5550  221.8570 C   0  0  0  0  0  0  0  0  0  0  0  0
  142.2180   79.0840  222.8480 C   0  0  0  0  0  0  0  0  0  0  0  0
  141.7580   79.9380  223.8290 C   0  0  0  0  0  0  0  0  0  0  0  0
  140.4280   80.3010  223.8390 C   0  0  0  0  0  0  0  0  0  0  0  0
  139.6010   79.7940  222.8640 C   0  0  0  0  0  0  0  0  0  0  0  0
  140.0790   78.9500  221.9040 C   0  0  0  0  0  0  0  0  0  0  0  0
  139.9230   71.1720  223.3800 C   0  0  0  0  0  0  0  0  0  0  0  0
  139.3520   69.9070  223.3520 C   0  0  0  0  0  0  0  0  0  0  0  0
  139.2290   69.1400  224.4730 C   0  0  0  0  0  0  0  0  0  0  0  0
  139.6930   69.6560  225.6620 C   0  0  0  0  0  0  0  0  0  0  0  0
  139.5800   68.8950  226.8150 C   0  0  0  0  0  0  0  0  0  0  0  0
  140.0400   69.3970  228.0100 C   0  0  0  0  0  0  0  0  0  0  0  0
  139.9520   68.6930  229.1680 F   0  0  0  0  0  0  0  0  0  0  0  0
  140.6210   70.6670  228.0780 C   0  0  0  0  0  0  0  0  0  0  0  0
  140.7280   71.4130  226.9220 C   0  0  0  0  0  0  0  0  0  0  0  0
  140.2680   70.9150  225.7190 C   0  0  0  0  0  0  0  0  0  0  0  0
  140.3530   71.6090  224.5690 N   0  0  0  0  0  0  0  0  0  0  0  0
  139.5620   73.8060  223.1760 H   0  0  0  0  0  0  0  0  0  0  0  0
  140.6031   73.7312  220.3414 H   0  0  0  0  0  0  0  0  0  0  0  0
  138.9108   74.3116  220.6116 H   0  0  0  0  0  0  0  0  0  0  0  0
  142.8058   75.3608  219.5421 H   0  0  0  0  0  0  0  0  0  0  0  0
  141.1991   75.1229  218.8781 H   0  0  0  0  0  0  0  0  0  0  0  0
  143.0948   77.2585  218.3000 H   0  0  0  0  0  0  0  0  0  0  0  0
  141.4854   77.0623  217.5930 H   0  0  0  0  0  0  0  0  0  0  0  0
  140.4869   78.5350  219.2320 H   0  0  0  0  0  0  0  0  0  0  0  0
  143.1460   79.2270  219.0470 H   0  0  0  0  0  0  0  0  0  0  0  0
  142.8820   77.5502  221.1130 H   0  0  0  0  0  0  0  0  0  0  0  0
  143.2833   78.8101  222.8622 H   0  0  0  0  0  0  0  0  0  0  0  0
  142.4454   80.3254  224.5954 H   0  0  0  0  0  0  0  0  0  0  0  0
  140.0368   80.9812  224.6099 H   0  0  0  0  0  0  0  0  0  0  0  0
  138.5371   80.0733  222.8579 H   0  0  0  0  0  0  0  0  0  0  0  0
  139.3859   78.5648  221.1416 H   0  0  0  0  0  0  0  0  0  0  0  0
  138.9865   69.5099  222.3935 H   0  0  0  0  0  0  0  0  0  0  0  0
  138.7731   68.1399  224.4285 H   0  0  0  0  0  0  0  0  0  0  0  0
  139.1247   67.8945  226.7745 H   0  0  0  0  0  0  0  0  0  0  0  0
  140.9864   71.0646  229.0363 H   0  0  0  0  0  0  0  0  0  0  0  0
  141.1838   72.4134  226.9592 H   0  0  0  0  0  0  0  0  0  0  0  0
  1  2  2  0
  2  3  1  0
  3  4  1  0
  4  5  1  0
  5  6  2  0
  5  7  1  0
  7  8  1  0
  8  9  1  0
  9 10  1  0
 10 11  1  0
 10 12  1  0
 12 13  1  0
 13 14  2  0
 14 15  1  0
 15 16  2  0
 16 17  1  0
 17 18  2  0
  2 19  1  0
 19 20  2  0
 20 21  1  0
 21 22  2  0
 22 23  1  0
 23 24  2  0
 24 25  1  0
 24 26  1  0
 26 27  2  0
 27 28  1  0
 28 29  2  0
 12  7  1  0
 18 13  1  0
 29 19  1  0
 28 22  1  0
  3 30  1  0
  4 31  1  0
  4 32  1  0
  8 33  1  0
  8 34  1  0
  9 35  1  0
  9 36  1  0
 10 37  1  1
 11 38  1  0
 12 39  1  6
 14 40  1  0
 15 41  1  0
 16 42  1  0
 17 43  1  0
 18 44  1  0
 20 45  1  0
 21 46  1  0
 23 47  1  0
 26 48  1  0
 27 49  1  0
M  END
>  <smiles>  (6) 
O=C(NCC(=O)N1CC[C@H](O)[C@H]1c1ccccc1)c1ccc2cc(F)ccc2n1

>  <score_type>  (6) 
oracle

>  <origin>  (6) 
autodockgpu

>  <m_score__min__energy>  (6) 
-8.9399999999999995

>  <m_primary>  (6) 
energy

>  <rmsd>  (6) 
2.1033748112602306

>  <m_score__min__rmsd>  (6) 
2.1033748112602306

>  <meeko>  (6) 
{"free_energy": -8.46, "intermolecular_energy": -10.25, "internal_energy": -1.76, "cluster_size": 16, "cluster_id": 2, "rank_in_cluster": 12}

>  <energy>  (6) 
-8.25

>  <cluster_rmsd>  (6) 
1.53

>  <cluster>  (6) 
1

$$$$

     RDKit          3D

 49 52  0  0  0  0  0  0  0  0999 V2000
  141.0450   73.7920  220.2450 O   0  0  0  0  0  0  0  0  0  0  0  0
  140.5350   74.4820  221.1630 C   0  0  0  0  0  0  0  0  0  0  0  0
  139.5550   73.9990  222.0690 N   0  0  0  0  0  0  0  0  0  0  0  0
  139.0850   72.6050  221.9480 C   0  0  0  0  0  0  0  0  0  0  0  0
  139.5620   71.7890  223.0560 C   0  0  0  0  0  0  0  0  0  0  0  0
  140.6730   72.1860  223.5980 O   0  0  0  0  0  0  0  0  0  0  0  0
  139.0110   70.6410  223.6290 N   0  0  0  0  0  0  0  0  0  0  0  0
  138.1780   69.7410  222.7530 C   0  0  0  0  0  0  0  0  0  0  0  0
  138.3850   68.3710  223.3530 C   0  0  0  0  0  0  0  0  0  0  0  0
  139.3310   68.5740  224.5140 C   0  0  2  0  0  0  0  0  0  0  0  0
  139.1490   67.6890  225.5450 O   0  0  0  0  0  0  0  0  0  0  0  0
  138.9590   70.0160  224.8920 C   0  0  1  0  0  0  0  0  0  0  0  0
  139.7460   70.4970  226.0020 C   0  0  0  0  0  0  0  0  0  0  0  0
  140.6570   71.5210  226.0010 C   0  0  0  0  0  0  0  0  0  0  0  0
  141.3700   71.9260  227.1100 C   0  0  0  0  0  0  0  0  0  0  0  0
  141.1760   71.2780  228.3110 C   0  0  0  0  0  0  0  0  0  0  0  0
  140.2710   70.2420  228.3600 C   0  0  0  0  0  0  0  0  0  0  0  0
  139.5770   69.8600  227.2490 C   0  0  0  0  0  0  0  0  0  0  0  0
  140.9700   75.8730  221.3220 C   0  0  0  0  0  0  0  0  0  0  0  0
  141.7830   76.4750  220.3710 C   0  0  0  0  0  0  0  0  0  0  0  0
  142.2060   77.7660  220.4880 C   0  0  0  0  0  0  0  0  0  0  0  0
  141.8010   78.4800  221.5930 C   0  0  0  0  0  0  0  0  0  0  0  0
  142.2180   79.7950  221.7330 C   0  0  0  0  0  0  0  0  0  0  0  0
  141.8200   80.5200  222.8330 C   0  0  0  0  0  0  0  0  0  0  0  0
  142.2000   81.8110  223.0180 F   0  0  0  0  0  0  0  0  0  0  0  0
  141.0020   79.9500  223.8110 C   0  0  0  0  0  0  0  0  0  0  0  0
  140.5940   78.6400  223.6580 C   0  0  0  0  0  0  0  0  0  0  0  0
  140.9900   77.9050  222.5570 C   0  0  0  0  0  0  0  0  0  0  0  0
  140.6150   76.6270  222.3690 N   0  0  0  0  0  0  0  0  0  0  0  0
  139.1600   74.6110  222.8180 H   0  0  0  0  0  0  0  0  0  0  0  0
  137.9850   72.5965  221.9440 H   0  0  0  0  0  0  0  0  0  0  0  0
  139.4802   72.1848  221.0114 H   0  0  0  0  0  0  0  0  0  0  0  0
  137.1172   70.0296  222.7896 H   0  0  0  0  0  0  0  0  0  0  0  0
  138.4658   69.7911  221.6925 H   0  0  0  0  0  0  0  0  0  0  0  0
  137.4284   67.9575  223.7050 H   0  0  0  0  0  0  0  0  0  0  0  0
  138.7908   67.6615  222.6168 H   0  0  0  0  0  0  0  0  0  0  0  0
  140.3905   68.4060  224.2706 H   0  0  0  0  0  0  0  0  0  0  0  0
  138.3720   68.0320  226.0840 H   0  0  0  0  0  0  0  0  0  0  0  0
  137.9723   70.2099  225.3379 H   0  0  0  0  0  0  0  0  0  0  0  0
  140.8307   72.0542  225.0547 H   0  0  0  0  0  0  0  0  0  0  0  0
  142.0862   72.7577  227.0368 H   0  0  0  0  0  0  0  0  0  0  0  0
  141.7320   71.5820  229.2102 H   0  0  0  0  0  0  0  0  0  0  0  0
  140.1045   69.7135  229.3102 H   0  0  0  0  0  0  0  0  0  0  0  0
  138.8621   69.0278  227.3285 H   0  0  0  0  0  0  0  0  0  0  0  0
  142.0965   75.8906  219.4934 H   0  0  0  0  0  0  0  0  0  0  0  0
  142.8510   78.2228  219.7230 H   0  0  0  0  0  0  0  0  0  0  0  0
  142.8626   80.2556  220.9699 H   0  0  0  0  0  0  0  0  0  0  0  0
  140.6882   80.5348  224.6882 H   0  0  0  0  0  0  0  0  0  0  0  0
  139.9482   78.1775  224.4190 H   0  0  0  0  0  0  0  0  0  0  0  0
  1  2  2  0
  2  3  1  0
  3  4  1  0
  4  5  1  0
  5  6  2  0
  5  7  1  0
  7  8  1  0
  8  9  1  0
  9 10  1  0
 10 11  1  0
 10 12  1  0
 12 13  1  0
 13 14  2  0
 14 15  1  0
 15 16  2  0
 16 17  1  0
 17 18  2  0
  2 19  1  0
 19 20  2  0
 20 21  1  0
 21 22  2  0
 22 23  1  0
 23 24  2  0
 24 25  1  0
 24 26  1  0
 26 27  2  0
 27 28  1  0
 28 29  2  0
 12  7  1  0
 18 13  1  0
 29 19  1  0
 28 22  1  0
  3 30  1  0
  4 31  1  0
  4 32  1  0
  8 33  1  0
  8 34  1  0
  9 35  1  0
  9 36  1  0
 10 37  1  6
 11 38  1  0
 12 39  1  1
 14 40  1  0
 15 41  1  0
 16 42  1  0
 17 43  1  0
 18 44  1  0
 20 45  1  0
 21 46  1  0
 23 47  1  0
 26 48  1  0
 27 49  1  0
M  END
>  <smiles>  (7) 
O=C(NCC(=O)N1CC[C@H](O)[C@H]1c1ccccc1)c1ccc2cc(F)ccc2n1

>  <score_type>  (7) 
oracle

>  <origin>  (7) 
autodockgpu

>  <m_score__min__energy>  (7) 
-8.9399999999999995

>  <m_primary>  (7) 
energy

>  <rmsd>  (7) 
8.709410504138255

>  <m_score__min__rmsd>  (7) 
8.709410504138255

>  <meeko>  (7) 
{"free_energy": -8.94, "intermolecular_energy": -10.73, "internal_energy": -0.94, "cluster_size": 12, "cluster_id": 1, "rank_in_cluster": 1}

>  <energy>  (7) 
-8.24

>  <cluster_rmsd>  (7) 
0.92

>  <cluster>  (7) 
1

$$$$

     RDKit          3D

 49 52  0  0  0  0  0  0  0  0999 V2000
  141.2550   72.2460  221.5140 O   0  0  0  0  0  0  0  0  0  0  0  0
  140.3760   72.5100  222.3730 C   0  0  0  0  0  0  0  0  0  0  0  0
  139.5160   73.6360  222.3110 N   0  0  0  0  0  0  0  0  0  0  0  0
  139.6390   74.5760  221.1790 C   0  0  0  0  0  0  0  0  0  0  0  0
  140.6100   75.6240  221.4660 C   0  0  0  0  0  0  0  0  0  0  0  0
  140.6060   76.0620  222.6880 O   0  0  0  0  0  0  0  0  0  0  0  0
  141.5460   76.2350  220.6290 N   0  0  0  0  0  0  0  0  0  0  0  0
  142.1260   75.4230  219.5010 C   0  0  0  0  0  0  0  0  0  0  0  0
  142.4310   76.4540  218.4410 C   0  0  0  0  0  0  0  0  0  0  0  0
  141.9900   77.7780  219.0230 C   0  0  2  0  0  0  0  0  0  0  0  0
  142.7220   78.8520  218.5860 O   0  0  0  0  0  0  0  0  0  0  0  0
  142.2000   77.4790  220.5150 C   0  0  1  0  0  0  0  0  0  0  0  0
  141.8320   78.6020  221.3420 C   0  0  0  0  0  0  0  0  0  0  0  0
  142.4360   79.0260  222.4970 C   0  0  0  0  0  0  0  0  0  0  0  0
  142.0240   80.1170  223.2330 C   0  0  0  0  0  0  0  0  0  0  0  0
  140.9360   80.8480  222.8050 C   0  0  0  0  0  0  0  0  0  0  0  0
  140.2960   80.4590  221.6510 C   0  0  0  0  0  0  0  0  0  0  0  0
  140.7230   79.3760  220.9400 C   0  0  0  0  0  0  0  0  0  0  0  0
  140.2190   71.6050  223.5160 C   0  0  0  0  0  0  0  0  0  0  0  0
  139.5570   70.3930  223.3750 C   0  0  0  0  0  0  0  0  0  0  0  0
  139.3940   69.5280  224.4170 C   0  0  0  0  0  0  0  0  0  0  0  0
  139.9090   69.8880  225.6420 C   0  0  0  0  0  0  0  0  0  0  0  0
  139.7560   69.0260  226.7160 C   0  0  0  0  0  0  0  0  0  0  0  0
  140.2670   69.3730  227.9450 C   0  0  0  0  0  0  0  0  0  0  0  0
  140.1440   68.5640  229.0290 F   0  0  0  0  0  0  0  0  0  0  0  0
  140.9390   70.5840  228.1270 C   0  0  0  0  0  0  0  0  0  0  0  0
  141.0850   71.4330  227.0480 C   0  0  0  0  0  0  0  0  0  0  0  0
  140.5740   71.0910  225.8110 C   0  0  0  0  0  0  0  0  0  0  0  0
  140.6950   71.8890  224.7340 N   0  0  0  0  0  0  0  0  0  0  0  0
  138.7990   73.8130  223.0500 H   0  0  0  0  0  0  0  0  0  0  0  0
  139.9633   74.0215  220.2860 H   0  0  0  0  0  0  0  0  0  0  0  0
  138.6593   75.0465  221.0095 H   0  0  0  0  0  0  0  0  0  0  0  0
  143.0425   74.9054  219.8206 H   0  0  0  0  0  0  0  0  0  0  0  0
  141.4446   74.6352  219.1473 H   0  0  0  0  0  0  0  0  0  0  0  0
  143.5086   76.4712  218.2208 H   0  0  0  0  0  0  0  0  0  0  0  0
  141.9133   76.2320  217.4962 H   0  0  0  0  0  0  0  0  0  0  0  0
  140.9715   78.0819  218.7396 H   0  0  0  0  0  0  0  0  0  0  0  0
  143.6900   78.6120  218.7180 H   0  0  0  0  0  0  0  0  0  0  0  0
  143.2264   77.3699  220.8954 H   0  0  0  0  0  0  0  0  0  0  0  0
  143.3059   78.4592  222.8605 H   0  0  0  0  0  0  0  0  0  0  0  0
  142.5577   80.4011  224.1519 H   0  0  0  0  0  0  0  0  0  0  0  0
  140.5875   81.7228  223.3736 H   0  0  0  0  0  0  0  0  0  0  0  0
  139.4258   81.0306  221.2959 H   0  0  0  0  0  0  0  0  0  0  0  0
  140.1846   79.0967  220.0223 H   0  0  0  0  0  0  0  0  0  0  0  0
  139.1502   70.1210  222.3898 H   0  0  0  0  0  0  0  0  0  0  0  0
  138.8671   68.5718  224.2826 H   0  0  0  0  0  0  0  0  0  0  0  0
  139.2287   68.0693  226.5865 H   0  0  0  0  0  0  0  0  0  0  0  0
  141.3447   70.8564  229.1125 H   0  0  0  0  0  0  0  0  0  0  0  0
  141.6127   72.3898  227.1745 H   0  0  0  0  0  0  0  0  0  0  0  0
  1  2  2  0
  2  3  1  0
  3  4  1  0
  4  5  1  0
  5  6  2  0
  5  7  1  0
  7  8  1  0
  8  9  1  0
  9 10  1  0
 10 11  1  0
 10 12  1  0
 12 13  1  0
 13 14  2  0
 14 15  1  0
 15 16  2  0
 16 17  1  0
 17 18  2  0
  2 19  1  0
 19 20  2  0
 20 21  1  0
 21 22  2  0
 22 23  1  0
 23 24  2  0
 24 25  1  0
 24 26  1  0
 26 27  2  0
 27 28  1  0
 28 29  2  0
 12  7  1  0
 18 13  1  0
 29 19  1  0
 28 22  1  0
  3 30  1  0
  4 31  1  0
  4 32  1  0
  8 33  1  0
  8 34  1  0
  9 35  1  0
  9 36  1  0
 10 37  1  1
 11 38  1  0
 12 39  1  6
 14 40  1  0
 15 41  1  0
 16 42  1  0
 17 43  1  0
 18 44  1  0
 20 45  1  0
 21 46  1  0
 23 47  1  0
 26 48  1  0
 27 49  1  0
M  END
>  <smiles>  (8) 
O=C(NCC(=O)N1CC[C@H](O)[C@H]1c1ccccc1)c1ccc2cc(F)ccc2n1

>  <score_type>  (8) 
oracle

>  <origin>  (8) 
autodockgpu

>  <m_score__min__energy>  (8) 
-8.9399999999999995

>  <m_primary>  (8) 
energy

>  <rmsd>  (8) 
2.1221179537233015

>  <m_score__min__rmsd>  (8) 
2.1221179537233015

>  <meeko>  (8) 
{"free_energy": -8.61, "intermolecular_energy": -10.4, "internal_energy": -1.42, "cluster_size": 16, "cluster_id": 2, "rank_in_cluster": 5}

>  <energy>  (8) 
-8.24

>  <cluster_rmsd>  (8) 
0.91

>  <cluster>  (8) 
1

$$$$

     RDKit          3D

 49 52  0  0  0  0  0  0  0  0999 V2000
  141.2640   72.5490  221.6620 O   0  0  0  0  0  0  0  0  0  0  0  0
  140.2880   72.6310  222.4500 C   0  0  0  0  0  0  0  0  0  0  0  0
  139.2690   73.6140  222.3530 N   0  0  0  0  0  0  0  0  0  0  0  0
  139.3330   74.6160  221.2720 C   0  0  0  0  0  0  0  0  0  0  0  0
  138.9110   75.9290  221.7430 C   0  0  0  0  0  0  0  0  0  0  0  0
  137.6860   75.9980  222.1670 O   0  0  0  0  0  0  0  0  0  0  0  0
  139.6200   77.1300  221.8090 N   0  0  0  0  0  0  0  0  0  0  0  0
  139.0310   78.2580  222.6150 C   0  0  0  0  0  0  0  0  0  0  0  0
  140.2420   79.0180  223.1010 C   0  0  0  0  0  0  0  0  0  0  0  0
  141.4370   78.2680  222.5580 C   0  0  2  0  0  0  0  0  0  0  0  0
  142.5240   79.0620  222.2990 O   0  0  0  0  0  0  0  0  0  0  0  0
  140.8090   77.6800  221.2850 C   0  0  1  0  0  0  0  0  0  0  0  0
  141.7500   76.8740  220.5480 C   0  0  0  0  0  0  0  0  0  0  0  0
  142.1500   75.5920  220.8230 C   0  0  0  0  0  0  0  0  0  0  0  0
  143.0570   74.8830  220.0630 C   0  0  0  0  0  0  0  0  0  0  0  0
  143.6150   75.4750  218.9500 C   0  0  0  0  0  0  0  0  0  0  0  0
  143.2440   76.7620  218.6350 C   0  0  0  0  0  0  0  0  0  0  0  0
  142.3440   77.4430  219.4020 C   0  0  0  0  0  0  0  0  0  0  0  0
  140.1830   71.6570  223.5400 C   0  0  0  0  0  0  0  0  0  0  0  0
  139.6030   70.4140  223.3280 C   0  0  0  0  0  0  0  0  0  0  0  0
  139.4910   69.4850  224.3200 C   0  0  0  0  0  0  0  0  0  0  0  0
  139.9740   69.8110  225.5680 C   0  0  0  0  0  0  0  0  0  0  0  0
  139.8700   68.8830  226.5920 C   0  0  0  0  0  0  0  0  0  0  0  0
  140.3500   69.1950  227.8430 C   0  0  0  0  0  0  0  0  0  0  0  0
  140.2730   68.3230  228.8810 F   0  0  0  0  0  0  0  0  0  0  0  0
  140.9400   70.4370  228.0970 C   0  0  0  0  0  0  0  0  0  0  0  0
  141.0360   71.3510  227.0670 C   0  0  0  0  0  0  0  0  0  0  0  0
  140.5570   71.0440  225.8080 C   0  0  0  0  0  0  0  0  0  0  0  0
  140.6310   71.9050  224.7770 N   0  0  0  0  0  0  0  0  0  0  0  0
  138.4750   73.6410  223.0330 H   0  0  0  0  0  0  0  0  0  0  0  0
  140.3680   74.6822  220.9053 H   0  0  0  0  0  0  0  0  0  0  0  0
  138.6544   74.3012  220.4655 H   0  0  0  0  0  0  0  0  0  0  0  0
  138.3921   78.8970  221.9877 H   0  0  0  0  0  0  0  0  0  0  0  0
  138.3893   77.9065  223.4364 H   0  0  0  0  0  0  0  0  0  0  0  0
  140.2284   80.0486  222.7167 H   0  0  0  0  0  0  0  0  0  0  0  0
  140.2675   79.0846  224.1987 H   0  0  0  0  0  0  0  0  0  0  0  0
  141.8674   77.5342  223.2554 H   0  0  0  0  0  0  0  0  0  0  0  0
  143.2370   78.4590  221.9240 H   0  0  0  0  0  0  0  0  0  0  0  0
  140.5469   78.3584  220.4598 H   0  0  0  0  0  0  0  0  0  0  0  0
  141.7202   75.0969  221.7063 H   0  0  0  0  0  0  0  0  0  0  0  0
  143.3324   73.8553  220.3423 H   0  0  0  0  0  0  0  0  0  0  0  0
  144.3406   74.9307  218.3277 H   0  0  0  0  0  0  0  0  0  0  0  0
  143.6799   77.2498  217.7507 H   0  0  0  0  0  0  0  0  0  0  0  0
  142.0725   78.4702  219.1171 H   0  0  0  0  0  0  0  0  0  0  0  0
  139.2207   70.1700  222.3259 H   0  0  0  0  0  0  0  0  0  0  0  0
  139.0290   68.5051  224.1293 H   0  0  0  0  0  0  0  0  0  0  0  0
  139.4065   67.9030  226.4057 H   0  0  0  0  0  0  0  0  0  0  0  0
  141.3208   70.6813  229.0996 H   0  0  0  0  0  0  0  0  0  0  0  0
  141.4979   72.3324  227.2502 H   0  0  0  0  0  0  0  0  0  0  0  0
  1  2  2  0
  2  3  1  0
  3  4  1  0
  4  5  1  0
  5  6  2  0
  5  7  1  0
  7  8  1  0
  8  9  1  0
  9 10  1  0
 10 11  1  0
 10 12  1  0
 12 13  1  0
 13 14  2  0
 14 15  1  0
 15 16  2  0
 16 17  1  0
 17 18  2  0
  2 19  1  0
 19 20  2  0
 20 21  1  0
 21 22  2  0
 22 23  1  0
 23 24  2  0
 24 25  1  0
 24 26  1  0
 26 27  2  0
 27 28  1  0
 28 29  2  0
 12  7  1  0
 18 13  1  0
 29 19  1  0
 28 22  1  0
  3 30  1  0
  4 31  1  0
  4 32  1  0
  8 33  1  0
  8 34  1  0
  9 35  1  0
  9 36  1  0
 10 37  1  1
 11 38  1  0
 12 39  1  6
 14 40  1  0
 15 41  1  0
 16 42  1  0
 17 43  1  0
 18 44  1  0
 20 45  1  0
 21 46  1  0
 23 47  1  0
 26 48  1  0
 27 49  1  0
M  END
>  <smiles>  (9) 
O=C(NCC(=O)N1CC[C@H](O)[C@H]1c1ccccc1)c1ccc2cc(F)ccc2n1

>  <score_type>  (9) 
oracle

>  <origin>  (9) 
autodockgpu

>  <m_score__min__energy>  (9) 
-8.9399999999999995

>  <m_primary>  (9) 
energy

>  <rmsd>  (9) 
3.3200451539324733

>  <m_score__min__rmsd>  (9) 
3.3200451539324733

>  <meeko>  (9) 
{"free_energy": -8.52, "intermolecular_energy": -10.31, "internal_energy": -1.5, "cluster_size": 14, "cluster_id": 3, "rank_in_cluster": 2}

>  <energy>  (9) 
-8.22

>  <cluster_rmsd>  (9) 
0.89

>  <cluster>  (9) 
1

$$$$

     RDKit          3D

 49 52  0  0  0  0  0  0  0  0999 V2000
  141.8170   73.6710  220.8230 O   0  0  0  0  0  0  0  0  0  0  0  0
  140.9170   74.2520  221.4820 C   0  0  0  0  0  0  0  0  0  0  0  0
  139.9000   73.5760  222.2050 N   0  0  0  0  0  0  0  0  0  0  0  0
  139.8700   72.1000  222.1990 C   0  0  0  0  0  0  0  0  0  0  0  0
  138.6640   71.5950  222.8420 C   0  0  0  0  0  0  0  0  0  0  0  0
  137.6700   72.4290  222.8890 O   0  0  0  0  0  0  0  0  0  0  0  0
  138.4080   70.3500  223.4200 N   0  0  0  0  0  0  0  0  0  0  0  0
  137.6160   69.3470  222.6220 C   0  0  0  0  0  0  0  0  0  0  0  0
  138.1390   68.0160  223.1060 C   0  0  0  0  0  0  0  0  0  0  0  0
  139.2030   68.3440  224.1280 C   0  0  2  0  0  0  0  0  0  0  0  0
  139.3320   67.4070  225.1210 O   0  0  0  0  0  0  0  0  0  0  0  0
  138.6560   69.6850  224.6390 C   0  0  1  0  0  0  0  0  0  0  0  0
  139.5090   70.2610  225.6500 C   0  0  0  0  0  0  0  0  0  0  0  0
  140.3930   71.2980  225.5080 C   0  0  0  0  0  0  0  0  0  0  0  0
  141.1760   71.7960  226.5280 C   0  0  0  0  0  0  0  0  0  0  0  0
  141.0850   71.2340  227.7840 C   0  0  0  0  0  0  0  0  0  0  0  0
  140.2110   70.1890  227.9750 C   0  0  0  0  0  0  0  0  0  0  0  0
  139.4470   69.7140  226.9490 C   0  0  0  0  0  0  0  0  0  0  0  0
  140.9070   75.7170  221.5160 C   0  0  0  0  0  0  0  0  0  0  0  0
  141.7980   76.4510  220.7450 C   0  0  0  0  0  0  0  0  0  0  0  0
  141.8140   77.8150  220.7530 C   0  0  0  0  0  0  0  0  0  0  0  0
  140.9090   78.4670  221.5600 C   0  0  0  0  0  0  0  0  0  0  0  0
  140.9070   79.8530  221.5840 C   0  0  0  0  0  0  0  0  0  0  0  0
  140.0070   80.5170  222.3860 C   0  0  0  0  0  0  0  0  0  0  0  0
  139.9630   81.8730  222.4470 F   0  0  0  0  0  0  0  0  0  0  0  0
  139.0940   79.8130  223.1760 C   0  0  0  0  0  0  0  0  0  0  0  0
  139.1080   78.4340  223.1410 C   0  0  0  0  0  0  0  0  0  0  0  0
  140.0090   77.7600  222.3390 C   0  0  0  0  0  0  0  0  0  0  0  0
  140.0550   76.4170  222.2750 N   0  0  0  0  0  0  0  0  0  0  0  0
  139.1730   74.1030  222.7400 H   0  0  0  0  0  0  0  0  0  0  0  0
  139.8974   71.7448  221.1583 H   0  0  0  0  0  0  0  0  0  0  0  0
  140.7430   71.7315  222.7577 H   0  0  0  0  0  0  0  0  0  0  0  0
  136.5396   69.4440  222.8268 H   0  0  0  0  0  0  0  0  0  0  0  0
  137.7276   69.4808  221.5359 H   0  0  0  0  0  0  0  0  0  0  0  0
  137.3303   67.4308  223.5681 H   0  0  0  0  0  0  0  0  0  0  0  0
  138.5414   67.4121  222.2793 H   0  0  0  0  0  0  0  0  0  0  0  0
  140.2261   68.3727  223.7250 H   0  0  0  0  0  0  0  0  0  0  0  0
  140.2870   67.0920  225.0960 H   0  0  0  0  0  0  0  0  0  0  0  0
  137.7308   69.6880  225.2340 H   0  0  0  0  0  0  0  0  0  0  0  0
  140.4841   71.7637  224.5156 H   0  0  0  0  0  0  0  0  0  0  0  0
  141.8657   72.6325  226.3418 H   0  0  0  0  0  0  0  0  0  0  0  0
  141.6979   71.6131  228.6150 H   0  0  0  0  0  0  0  0  0  0  0  0
  140.1267   69.7290  228.9706 H   0  0  0  0  0  0  0  0  0  0  0  0
  138.7599   68.8767  227.1411 H   0  0  0  0  0  0  0  0  0  0  0  0
  142.5152   75.9147  220.1062 H   0  0  0  0  0  0  0  0  0  0  0  0
  142.5284   78.3770  220.1334 H   0  0  0  0  0  0  0  0  0  0  0  0
  141.6201   80.4184  220.9661 H   0  0  0  0  0  0  0  0  0  0  0  0
  138.3766   80.3492  223.8146 H   0  0  0  0  0  0  0  0  0  0  0  0
  138.3955   77.8659  223.7571 H   0  0  0  0  0  0  0  0  0  0  0  0
  1  2  2  0
  2  3  1  0
  3  4  1  0
  4  5  1  0
  5  6  2  0
  5  7  1  0
  7  8  1  0
  8  9  1  0
  9 10  1  0
 10 11  1  0
 10 12  1  0
 12 13  1  0
 13 14  2  0
 14 15  1  0
 15 16  2  0
 16 17  1  0
 17 18  2  0
  2 19  1  0
 19 20  2  0
 20 21  1  0
 21 22  2  0
 22 23  1  0
 23 24  2  0
 24 25  1  0
 24 26  1  0
 26 27  2  0
 27 28  1  0
 28 29  2  0
 12  7  1  0
 18 13  1  0
 29 19  1  0
 28 22  1  0
  3 30  1  0
  4 31  1  0
  4 32  1  0
  8 33  1  0
  8 34  1  0
  9 35  1  0
  9 36  1  0
 10 37  1  6
 11 38  1  0
 12 39  1  1
 14 40  1  0
 15 41  1  0
 16 42  1  0
 17 43  1  0
 18 44  1  0
 20 45  1  0
 21 46  1  0
 23 47  1  0
 26 48  1  0
 27 49  1  0
M  END
>  <smiles>  (10) 
O=C(NCC(=O)N1CC[C@H](O)[C@H]1c1ccccc1)c1ccc2cc(F)ccc2n1

>  <score_type>  (10) 
oracle

>  <origin>  (10) 
autodockgpu

>  <m_score__min__energy>  (10) 
-8.9399999999999995

>  <m_primary>  (10) 
energy

>  <rmsd>  (10) 
8.800010811814081

>  <m_score__min__rmsd>  (10) 
8.800010811814081

>  <meeko>  (10) 
{"free_energy": -8.02, "intermolecular_energy": -9.81, "internal_energy": -2.0, "cluster_size": 12, "cluster_id": 1, "rank_in_cluster": 12}

>  <energy>  (10) 
-8.16

>  <cluster_rmsd>  (10) 
0.97

>  <cluster>  (10) 
1

$$$$

     RDKit          3D

 49 52  0  0  0  0  0  0  0  0999 V2000
  140.6620   73.5860  220.3720 O   0  0  0  0  0  0  0  0  0  0  0  0
  140.1770   74.3460  221.2480 C   0  0  0  0  0  0  0  0  0  0  0  0
  139.1500   73.9650  222.1500 N   0  0  0  0  0  0  0  0  0  0  0  0
  138.5960   72.5990  222.0780 C   0  0  0  0  0  0  0  0  0  0  0  0
  139.3190   71.6890  222.9560 C   0  0  0  0  0  0  0  0  0  0  0  0
  140.5540   72.0120  223.1930 O   0  0  0  0  0  0  0  0  0  0  0  0
  138.8920   70.5170  223.5850 N   0  0  0  0  0  0  0  0  0  0  0  0
  138.1070   69.5220  222.7710 C   0  0  0  0  0  0  0  0  0  0  0  0
  138.4540   68.1950  223.4020 C   0  0  0  0  0  0  0  0  0  0  0  0
  139.4240   68.5160  224.5170 C   0  0  2  0  0  0  0  0  0  0  0  0
  139.3590   67.6520  225.5800 O   0  0  0  0  0  0  0  0  0  0  0  0
  138.9450   69.9330  224.8670 C   0  0  1  0  0  0  0  0  0  0  0  0
  139.7290   70.5150  225.9280 C   0  0  0  0  0  0  0  0  0  0  0  0
  140.6530   71.5230  225.8310 C   0  0  0  0  0  0  0  0  0  0  0  0
  141.3630   72.0300  226.8980 C   0  0  0  0  0  0  0  0  0  0  0  0
  141.1530   71.5100  228.1570 C   0  0  0  0  0  0  0  0  0  0  0  0
  140.2360   70.4950  228.3050 C   0  0  0  0  0  0  0  0  0  0  0  0
  139.5440   70.0100  227.2330 C   0  0  0  0  0  0  0  0  0  0  0  0
  140.6950   75.7130  221.3560 C   0  0  0  0  0  0  0  0  0  0  0  0
  141.6210   76.1950  220.4410 C   0  0  0  0  0  0  0  0  0  0  0  0
  142.1230   77.4610  220.5130 C   0  0  0  0  0  0  0  0  0  0  0  0
  141.6840   78.2730  221.5350 C   0  0  0  0  0  0  0  0  0  0  0  0
  142.1800   79.5640  221.6280 C   0  0  0  0  0  0  0  0  0  0  0  0
  141.7490   80.3850  222.6440 C   0  0  0  0  0  0  0  0  0  0  0  0
  142.2030   81.6580  222.7810 F   0  0  0  0  0  0  0  0  0  0  0  0
  140.8180   79.9370  223.5840 C   0  0  0  0  0  0  0  0  0  0  0  0
  140.3320   78.6490  223.4780 C   0  0  0  0  0  0  0  0  0  0  0  0
  140.7610   77.8180  222.4610 C   0  0  0  0  0  0  0  0  0  0  0  0
  140.3130   76.5570  222.3210 N   0  0  0  0  0  0  0  0  0  0  0  0
  138.7790   74.6330  222.8630 H   0  0  0  0  0  0  0  0  0  0  0  0
  137.5387   72.6245  222.3803 H   0  0  0  0  0  0  0  0  0  0  0  0
  138.6959   72.2373  221.0440 H   0  0  0  0  0  0  0  0  0  0  0  0
  137.0274   69.7206  222.8425 H   0  0  0  0  0  0  0  0  0  0  0  0
  138.3485   69.5616  221.6986 H   0  0  0  0  0  0  0  0  0  0  0  0
  137.5508   67.7138  223.8054 H   0  0  0  0  0  0  0  0  0  0  0  0
  138.8903   67.4984  222.6709 H   0  0  0  0  0  0  0  0  0  0  0  0
  140.4840   68.4311  224.2355 H   0  0  0  0  0  0  0  0  0  0  0  0
  140.2790   67.6290  225.9870 H   0  0  0  0  0  0  0  0  0  0  0  0
  137.9639   70.0584  225.3485 H   0  0  0  0  0  0  0  0  0  0  0  0
  140.8399   71.9553  224.8369 H   0  0  0  0  0  0  0  0  0  0  0  0
  142.0900   72.8415  226.7463 H   0  0  0  0  0  0  0  0  0  0  0  0
  141.7066   71.8981  229.0247 H   0  0  0  0  0  0  0  0  0  0  0  0
  140.0577   70.0677  229.3028 H   0  0  0  0  0  0  0  0  0  0  0  0
  138.8182   69.1988  227.3914 H   0  0  0  0  0  0  0  0  0  0  0  0
  141.9613   75.5336  219.6306 H   0  0  0  0  0  0  0  0  0  0  0  0
  142.8563   77.8226  219.7771 H   0  0  0  0  0  0  0  0  0  0  0  0
  142.9134   79.9295  220.8942 H   0  0  0  0  0  0  0  0  0  0  0  0
  140.4780   80.5986  224.3944 H   0  0  0  0  0  0  0  0  0  0  0  0
  139.5971   78.2814  224.2093 H   0  0  0  0  0  0  0  0  0  0  0  0
  1  2  2  0
  2  3  1  0
  3  4  1  0
  4  5  1  0
  5  6  2  0
  5  7  1  0
  7  8  1  0
  8  9  1  0
  9 10  1  0
 10 11  1  0
 10 12  1  0
 12 13  1  0
 13 14  2  0
 14 15  1  0
 15 16  2  0
 16 17  1  0
 17 18  2  0
  2 19  1  0
 19 20  2  0
 20 21  1  0
 21 22  2  0
 22 23  1  0
 23 24  2  0
 24 25  1  0
 24 26  1  0
 26 27  2  0
 27 28  1  0
 28 29  2  0
 12  7  1  0
 18 13  1  0
 29 19  1  0
 28 22  1  0
  3 30  1  0
  4 31  1  0
  4 32  1  0
  8 33  1  0
  8 34  1  0
  9 35  1  0
  9 36  1  0
 10 37  1  6
 11 38  1  0
 12 39  1  1
 14 40  1  0
 15 41  1  0
 16 42  1  0
 17 43  1  0
 18 44  1  0
 20 45  1  0
 21 46  1  0
 23 47  1  0
 26 48  1  0
 27 49  1  0
M  END
>  <smiles>  (11) 
O=C(NCC(=O)N1CC[C@H](O)[C@H]1c1ccccc1)c1ccc2cc(F)ccc2n1

>  <score_type>  (11) 
oracle

>  <origin>  (11) 
autodockgpu

>  <m_score__min__energy>  (11) 
-8.9399999999999995

>  <m_primary>  (11) 
energy

>  <rmsd>  (11) 
8.663981433313367

>  <m_score__min__rmsd>  (11) 
8.663981433313367

>  <meeko>  (11) 
{"free_energy": -8.83, "intermolecular_energy": -10.62, "internal_energy": -1.33, "cluster_size": 12, "cluster_id": 1, "rank_in_cluster": 3}

>  <energy>  (11) 
-8.1

>  <cluster_rmsd>  (11) 
0.88

>  <cluster>  (11) 
1

$$$$

     RDKit          3D

 49 52  0  0  0  0  0  0  0  0999 V2000
  141.5560   73.8120  220.9940 O   0  0  0  0  0  0  0  0  0  0  0  0
  140.6020   74.3370  221.6220 C   0  0  0  0  0  0  0  0  0  0  0  0
  139.5950   73.6020  222.2990 N   0  0  0  0  0  0  0  0  0  0  0  0
  139.6430   72.1270  222.2800 C   0  0  0  0  0  0  0  0  0  0  0  0
  138.4840   71.5530  222.9510 C   0  0  0  0  0  0  0  0  0  0  0  0
  137.4660   72.3480  223.0750 O   0  0  0  0  0  0  0  0  0  0  0  0
  138.2970   70.2770  223.4870 N   0  0  0  0  0  0  0  0  0  0  0  0
  137.5560   69.2610  222.6580 C   0  0  0  0  0  0  0  0  0  0  0  0
  138.1510   67.9440  223.0950 C   0  0  0  0  0  0  0  0  0  0  0  0
  139.2000   68.2930  224.1250 C   0  0  2  0  0  0  0  0  0  0  0  0
  139.3820   67.3320  225.0860 O   0  0  0  0  0  0  0  0  0  0  0  0
  138.5840   69.5860  224.6830 C   0  0  1  0  0  0  0  0  0  0  0  0
  139.4100   70.1710  225.7100 C   0  0  0  0  0  0  0  0  0  0  0  0
  139.4530   69.8410  227.0400 C   0  0  0  0  0  0  0  0  0  0  0  0
  140.2770   70.4490  227.9640 C   0  0  0  0  0  0  0  0  0  0  0  0
  141.1230   71.4570  227.5540 C   0  0  0  0  0  0  0  0  0  0  0  0
  141.1150   71.8230  226.2280 C   0  0  0  0  0  0  0  0  0  0  0  0
  140.2910   71.2070  225.3320 C   0  0  0  0  0  0  0  0  0  0  0  0
  140.5130   75.8000  221.6680 C   0  0  0  0  0  0  0  0  0  0  0  0
  139.8060   76.4990  220.6990 C   0  0  0  0  0  0  0  0  0  0  0  0
  139.7030   77.8580  220.7120 C   0  0  0  0  0  0  0  0  0  0  0  0
  140.3300   78.5430  221.7290 C   0  0  0  0  0  0  0  0  0  0  0  0
  140.2400   79.9260  221.7640 C   0  0  0  0  0  0  0  0  0  0  0  0
  140.8610   80.6230  222.7740 C   0  0  0  0  0  0  0  0  0  0  0  0
  140.8040   81.9770  222.8550 F   0  0  0  0  0  0  0  0  0  0  0  0
  141.5830   79.9550  223.7680 C   0  0  0  0  0  0  0  0  0  0  0  0
  141.6630   78.5780  223.7210 C   0  0  0  0  0  0  0  0  0  0  0  0
  141.0430   77.8720  222.7090 C   0  0  0  0  0  0  0  0  0  0  0  0
  141.0960   76.5300  222.6260 N   0  0  0  0  0  0  0  0  0  0  0  0
  138.8210   74.0850  222.8090 H   0  0  0  0  0  0  0  0  0  0  0  0
  139.6602   71.7821  221.2356 H   0  0  0  0  0  0  0  0  0  0  0  0
  140.5495   71.8013  222.8112 H   0  0  0  0  0  0  0  0  0  0  0  0
  136.4769   69.2937  222.8690 H   0  0  0  0  0  0  0  0  0  0  0  0
  137.6555   69.4371  221.5768 H   0  0  0  0  0  0  0  0  0  0  0  0
  137.3764   67.3012  223.5386 H   0  0  0  0  0  0  0  0  0  0  0  0
  138.5816   67.3910  222.2472 H   0  0  0  0  0  0  0  0  0  0  0  0
  140.2184   68.3889  223.7205 H   0  0  0  0  0  0  0  0  0  0  0  0
  140.3750   67.2410  225.2150 H   0  0  0  0  0  0  0  0  0  0  0  0
  137.6622   69.5210  225.2797 H   0  0  0  0  0  0  0  0  0  0  0  0
  138.7873   69.0396  227.3930 H   0  0  0  0  0  0  0  0  0  0  0  0
  140.2592   70.1327  229.0174 H   0  0  0  0  0  0  0  0  0  0  0  0
  141.7899   71.9577  228.2713 H   0  0  0  0  0  0  0  0  0  0  0  0
  141.7841   72.6257  225.8844 H   0  0  0  0  0  0  0  0  0  0  0  0
  140.3139   71.5283  224.2802 H   0  0  0  0  0  0  0  0  0  0  0  0
  139.3119   75.9367  219.8930 H   0  0  0  0  0  0  0  0  0  0  0  0
  139.1366   78.3912  219.9343 H   0  0  0  0  0  0  0  0  0  0  0  0
  139.6749   80.4631  220.9880 H   0  0  0  0  0  0  0  0  0  0  0  0
  142.0785   80.5172  224.5733 H   0  0  0  0  0  0  0  0  0  0  0  0
  142.2257   78.0380  224.4967 H   0  0  0  0  0  0  0  0  0  0  0  0
  1  2  2  0
  2  3  1  0
  3  4  1  0
  4  5  1  0
  5  6  2  0
  5  7  1  0
  7  8  1  0
  8  9  1  0
  9 10  1  0
 10 11  1  0
 10 12  1  0
 12 13  1  0
 13 14  2  0
 14 15  1  0
 15 16  2  0
 16 17  1  0
 17 18  2  0
  2 19  1  0
 19 20  2  0
 20 21  1  0
 21 22  2  0
 22 23  1  0
 23 24  2  0
 24 25  1  0
 24 26  1  0
 26 27  2  0
 27 28  1  0
 28 29  2  0
 12  7  1  0
 18 13  1  0
 29 19  1  0
 28 22  1  0
  3 30  1  0
  4 31  1  0
  4 32  1  0
  8 33  1  0
  8 34  1  0
  9 35  1  0
  9 36  1  0
 10 37  1  6
 11 38  1  0
 12 39  1  1
 14 40  1  0
 15 41  1  0
 16 42  1  0
 17 43  1  0
 18 44  1  0
 20 45  1  0
 21 46  1  0
 23 47  1  0
 26 48  1  0
 27 49  1  0
M  END
>  <smiles>  (12) 
O=C(NCC(=O)N1CC[C@H](O)[C@H]1c1ccccc1)c1ccc2cc(F)ccc2n1

>  <score_type>  (12) 
oracle

>  <origin>  (12) 
autodockgpu

>  <m_score__min__energy>  (12) 
-8.9399999999999995

>  <m_primary>  (12) 
energy

>  <rmsd>  (12) 
8.713553810542864

>  <m_score__min__rmsd>  (12) 
8.713553810542864

>  <meeko>  (12) 
{"free_energy": -8.27, "intermolecular_energy": -10.06, "internal_energy": -1.7, "cluster_size": 12, "cluster_id": 1, "rank_in_cluster": 5}

>  <energy>  (12) 
-8.02

>  <cluster_rmsd>  (12) 
1.16

>  <cluster>  (12) 
1

$$$$

     RDKit          3D

 49 52  0  0  0  0  0  0  0  0999 V2000
  141.1150   71.6320  221.3370 O   0  0  0  0  0  0  0  0  0  0  0  0
  140.5140   72.1870  222.2910 C   0  0  0  0  0  0  0  0  0  0  0  0
  140.0720   73.5350  222.2760 N   0  0  0  0  0  0  0  0  0  0  0  0
  140.3230   74.3630  221.0800 C   0  0  0  0  0  0  0  0  0  0  0  0
  140.7060   75.7200  221.4490 C   0  0  0  0  0  0  0  0  0  0  0  0
  140.2700   76.1240  222.6030 O   0  0  0  0  0  0  0  0  0  0  0  0
  141.4690   76.6590  220.7520 N   0  0  0  0  0  0  0  0  0  0  0  0
  142.1580   76.2150  219.4890 C   0  0  0  0  0  0  0  0  0  0  0  0
  142.2110   77.4720  218.6530 C   0  0  0  0  0  0  0  0  0  0  0  0
  141.5360   78.5410  219.4830 C   0  0  2  0  0  0  0  0  0  0  0  0
  142.0220   79.8050  219.2680 O   0  0  0  0  0  0  0  0  0  0  0  0
  141.8570   78.0080  220.8870 C   0  0  1  0  0  0  0  0  0  0  0  0
  141.3010   78.8510  221.9180 C   0  0  0  0  0  0  0  0  0  0  0  0
  141.9780   79.5500  222.8830 C   0  0  0  0  0  0  0  0  0  0  0  0
  141.3710   80.3410  223.8370 C   0  0  0  0  0  0  0  0  0  0  0  0
  139.9980   80.4550  223.8450 C   0  0  0  0  0  0  0  0  0  0  0  0
  139.2760   79.7700  222.8950 C   0  0  0  0  0  0  0  0  0  0  0  0
  139.8980   78.9940  221.9620 C   0  0  0  0  0  0  0  0  0  0  0  0
  140.2430   71.4030  223.5000 C   0  0  0  0  0  0  0  0  0  0  0  0
  139.5380   70.2090  223.4290 C   0  0  0  0  0  0  0  0  0  0  0  0
  139.2700   69.4560  224.5340 C   0  0  0  0  0  0  0  0  0  0  0  0
  139.7230   69.9130  225.7520 C   0  0  0  0  0  0  0  0  0  0  0  0
  139.4630   69.1640  226.8890 C   0  0  0  0  0  0  0  0  0  0  0  0
  139.9100   69.6080  228.1120 C   0  0  0  0  0  0  0  0  0  0  0  0
  139.6820   68.9140  229.2570 F   0  0  0  0  0  0  0  0  0  0  0  0
  140.6230   70.8050  228.2250 C   0  0  0  0  0  0  0  0  0  0  0  0
  140.8750   71.5390  227.0830 C   0  0  0  0  0  0  0  0  0  0  0  0
  140.4290   71.1000  225.8520 C   0  0  0  0  0  0  0  0  0  0  0  0
  140.6530   71.7850  224.7160 N   0  0  0  0  0  0  0  0  0  0  0  0
  139.5750   73.9520  223.0950 H   0  0  0  0  0  0  0  0  0  0  0  0
  141.1344   73.9083  220.4927 H   0  0  0  0  0  0  0  0  0  0  0  0
  139.3964   74.4112  220.4891 H   0  0  0  0  0  0  0  0  0  0  0  0
  143.1707   75.8432  219.7039 H   0  0  0  0  0  0  0  0  0  0  0  0
  141.6360   75.3881  218.9852 H   0  0  0  0  0  0  0  0  0  0  0  0
  143.2544   77.7502  218.4436 H   0  0  0  0  0  0  0  0  0  0  0  0
  141.7133   77.3361  217.6815 H   0  0  0  0  0  0  0  0  0  0  0  0
  140.4675   78.6808  219.2622 H   0  0  0  0  0  0  0  0  0  0  0  0
  141.5410   80.4100  219.9120 H   0  0  0  0  0  0  0  0  0  0  0  0
  142.8981   78.0384  221.2409 H   0  0  0  0  0  0  0  0  0  0  0  0
  143.0754   79.4758  222.8980 H   0  0  0  0  0  0  0  0  0  0  0  0
  141.9772   80.8751  224.5835 H   0  0  0  0  0  0  0  0  0  0  0  0
  139.4902   81.0799  224.5944 H   0  0  0  0  0  0  0  0  0  0  0  0
  138.1789   79.8496  222.8880 H   0  0  0  0  0  0  0  0  0  0  0  0
  139.2857   78.4619  221.2191 H   0  0  0  0  0  0  0  0  0  0  0  0
  139.1836   69.8586  222.4484 H   0  0  0  0  0  0  0  0  0  0  0  0
  138.7094   68.5129  224.4551 H   0  0  0  0  0  0  0  0  0  0  0  0
  138.9027   68.2204  226.8139 H   0  0  0  0  0  0  0  0  0  0  0  0
  140.9768   71.1558  229.2057 H   0  0  0  0  0  0  0  0  0  0  0  0
  141.4363   72.4823  227.1544 H   0  0  0  0  0  0  0  0  0  0  0  0
  1  2  2  0
  2  3  1  0
  3  4  1  0
  4  5  1  0
  5  6  2  0
  5  7  1  0
  7  8  1  0
  8  9  1  0
  9 10  1  0
 10 11  1  0
 10 12  1  0
 12 13  1  0
 13 14  2  0
 14 15  1  0
 15 16  2  0
 16 17  1  0
 17 18  2  0
  2 19  1  0
 19 20  2  0
 20 21  1  0
 21 22  2  0
 22 23  1  0
 23 24  2  0
 24 25  1  0
 24 26  1  0
 26 27  2  0
 27 28  1  0
 28 29  2  0
 12  7  1  0
 18 13  1  0
 29 19  1  0
 28 22  1  0
  3 30  1  0
  4 31  1  0
  4 32  1  0
  8 33  1  0
  8 34  1  0
  9 35  1  0
  9 36  1  0
 10 37  1  6
 11 38  1  0
 12 39  1  1
 14 40  1  0
 15 41  1  0
 16 42  1  0
 17 43  1  0
 18 44  1  0
 20 45  1  0
 21 46  1  0
 23 47  1  0
 26 48  1  0
 27 49  1  0
M  END
>  <smiles>  (13) 
O=C(NCC(=O)N1CC[C@H](O)[C@H]1c1ccccc1)c1ccc2cc(F)ccc2n1

>  <score_type>  (13) 
oracle

>  <origin>  (13) 
autodockgpu

>  <m_score__min__energy>  (13) 
-8.9399999999999995

>  <m_primary>  (13) 
energy

>  <rmsd>  (13) 
2.46186705218312

>  <m_score__min__rmsd>  (13) 
2.46186705218312

>  <meeko>  (13) 
{"free_energy": -8.27, "intermolecular_energy": -10.06, "internal_energy": -1.72, "cluster_size": 16, "cluster_id": 2, "rank_in_cluster": 16}

>  <energy>  (13) 
-8.89

>  <cluster_rmsd>  (13) 
0.0

>  <cluster>  (13) 
2

$$$$

     RDKit          3D

 49 52  0  0  0  0  0  0  0  0999 V2000
  142.2300   73.4960  220.7300 O   0  0  0  0  0  0  0  0  0  0  0  0
  141.3630   74.1570  221.3570 C   0  0  0  0  0  0  0  0  0  0  0  0
  140.3290   73.5740  222.1340 N   0  0  0  0  0  0  0  0  0  0  0  0
  140.2390   72.1040  222.2300 C   0  0  0  0  0  0  0  0  0  0  0  0
  138.9540   71.6880  222.7760 C   0  0  0  0  0  0  0  0  0  0  0  0
  138.0050   72.5700  222.6920 O   0  0  0  0  0  0  0  0  0  0  0  0
  138.5820   70.4860  223.3820 N   0  0  0  0  0  0  0  0  0  0  0  0
  137.7440   69.5210  222.5850 C   0  0  0  0  0  0  0  0  0  0  0  0
  138.1450   68.1700  223.1290 C   0  0  0  0  0  0  0  0  0  0  0  0
  139.1930   68.4500  224.1810 C   0  0  2  0  0  0  0  0  0  0  0  0
  139.2120   67.5400  225.2070 O   0  0  0  0  0  0  0  0  0  0  0  0
  138.7330   69.8460  224.6290 C   0  0  1  0  0  0  0  0  0  0  0  0
  139.5910   70.3880  225.6540 C   0  0  0  0  0  0  0  0  0  0  0  0
  140.4870   71.4190  225.5370 C   0  0  0  0  0  0  0  0  0  0  0  0
  141.2730   71.8840  226.5710 C   0  0  0  0  0  0  0  0  0  0  0  0
  141.1740   71.2940  227.8120 C   0  0  0  0  0  0  0  0  0  0  0  0
  140.2890   70.2540  227.9780 C   0  0  0  0  0  0  0  0  0  0  0  0
  139.5210   69.8120  226.9400 C   0  0  0  0  0  0  0  0  0  0  0  0
  141.4120   75.6200  221.2900 C   0  0  0  0  0  0  0  0  0  0  0  0
  141.8220   76.2650  220.1310 C   0  0  0  0  0  0  0  0  0  0  0  0
  141.8790   77.6240  220.0360 C   0  0  0  0  0  0  0  0  0  0  0  0
  141.5130   78.3640  221.1380 C   0  0  0  0  0  0  0  0  0  0  0  0
  141.5620   79.7480  221.0650 C   0  0  0  0  0  0  0  0  0  0  0  0
  141.1990   80.4990  222.1590 C   0  0  0  0  0  0  0  0  0  0  0  0
  141.2300   81.8570  222.1400 F   0  0  0  0  0  0  0  0  0  0  0  0
  140.7810   79.8870  223.3440 C   0  0  0  0  0  0  0  0  0  0  0  0
  140.7370   78.5090  223.4010 C   0  0  0  0  0  0  0  0  0  0  0  0
  141.1000   77.7470  222.3070 C   0  0  0  0  0  0  0  0  0  0  0  0
  141.0710   76.4020  222.3210 N   0  0  0  0  0  0  0  0  0  0  0  0
  139.6310   74.1650  222.6390 H   0  0  0  0  0  0  0  0  0  0  0  0
  140.3590   71.6711  221.2259 H   0  0  0  0  0  0  0  0  0  0  0  0
  141.0338   71.7502  222.9032 H   0  0  0  0  0  0  0  0  0  0  0  0
  136.6717   69.7066  222.7454 H   0  0  0  0  0  0  0  0  0  0  0  0
  137.9043   69.6100  221.5004 H   0  0  0  0  0  0  0  0  0  0  0  0
  137.2773   67.6635  223.5768 H   0  0  0  0  0  0  0  0  0  0  0  0
  138.5294   67.5103  222.3372 H   0  0  0  0  0  0  0  0  0  0  0  0
  140.2293   68.3868  223.8175 H   0  0  0  0  0  0  0  0  0  0  0  0
  140.1380   67.1470  225.2240 H   0  0  0  0  0  0  0  0  0  0  0  0
  137.7897   69.9404  225.1869 H   0  0  0  0  0  0  0  0  0  0  0  0
  140.5855   71.9066  224.5559 H   0  0  0  0  0  0  0  0  0  0  0  0
  141.9717   72.7175  226.4063 H   0  0  0  0  0  0  0  0  0  0  0  0
  141.7896   71.6471  228.6524 H   0  0  0  0  0  0  0  0  0  0  0  0
  140.1990   69.7713  228.9623 H   0  0  0  0  0  0  0  0  0  0  0  0
  138.8239   68.9786  227.1118 H   0  0  0  0  0  0  0  0  0  0  0  0
  142.1107   75.6590  219.2596 H   0  0  0  0  0  0  0  0  0  0  0  0
  142.2073   78.1141  219.1075 H   0  0  0  0  0  0  0  0  0  0  0  0
  141.8890   80.2422  220.1383 H   0  0  0  0  0  0  0  0  0  0  0  0
  140.4923   80.4929  224.2155 H   0  0  0  0  0  0  0  0  0  0  0  0
  140.4098   78.0123  224.3263 H   0  0  0  0  0  0  0  0  0  0  0  0
  1  2  2  0
  2  3  1  0
  3  4  1  0
  4  5  1  0
  5  6  2  0
  5  7  1  0
  7  8  1  0
  8  9  1  0
  9 10  1  0
 10 11  1  0
 10 12  1  0
 12 13  1  0
 13 14  2  0
 14 15  1  0
 15 16  2  0
 16 17  1  0
 17 18  2  0
  2 19  1  0
 19 20  2  0
 20 21  1  0
 21 22  2  0
 22 23  1  0
 23 24  2  0
 24 25  1  0
 24 26  1  0
 26 27  2  0
 27 28  1  0
 28 29  2  0
 12  7  1  0
 18 13  1  0
 29 19  1  0
 28 22  1  0
  3 30  1  0
  4 31  1  0
  4 32  1  0
  8 33  1  0
  8 34  1  0
  9 35  1  0
  9 36  1  0
 10 37  1  6
 11 38  1  0
 12 39  1  1
 14 40  1  0
 15 41  1  0
 16 42  1  0
 17 43  1  0
 18 44  1  0
 20 45  1  0
 21 46  1  0
 23 47  1  0
 26 48  1  0
 27 49  1  0
M  END
>  <smiles>  (14) 
O=C(NCC(=O)N1CC[C@H](O)[C@H]1c1ccccc1)c1ccc2cc(F)ccc2n1

>  <score_type>  (14) 
oracle

>  <origin>  (14) 
autodockgpu

>  <m_score__min__energy>  (14) 
-8.9399999999999995

>  <m_primary>  (14) 
energy

>  <rmsd>  (14) 
8.783833292609902

>  <m_score__min__rmsd>  (14) 
8.783833292609902

>  <meeko>  (14) 
{"free_energy": -8.24, "intermolecular_energy": -10.03, "internal_energy": -1.82, "cluster_size": 12, "cluster_id": 1, "rank_in_cluster": 8}

>  <energy>  (14) 
-8.69

>  <cluster_rmsd>  (14) 
0.2

>  <cluster>  (14) 
2

$$$$

     RDKit          3D

 49 52  0  0  0  0  0  0  0  0999 V2000
  139.7800   71.5180  221.1400 O   0  0  0  0  0  0  0  0  0  0  0  0
  139.7270   72.0530  222.2770 C   0  0  0  0  0  0  0  0  0  0  0  0
  139.5600   73.4450  222.4920 N   0  0  0  0  0  0  0  0  0  0  0  0
  139.4410   74.3470  221.3290 C   0  0  0  0  0  0  0  0  0  0  0  0
  138.9710   75.6660  221.7300 C   0  0  0  0  0  0  0  0  0  0  0  0
  137.7460   75.7120  222.1560 O   0  0  0  0  0  0  0  0  0  0  0  0
  139.6330   76.8950  221.7250 N   0  0  0  0  0  0  0  0  0  0  0  0
  139.0000   78.0450  222.4630 C   0  0  0  0  0  0  0  0  0  0  0  0
  140.1800   78.8780  222.9040 C   0  0  0  0  0  0  0  0  0  0  0  0
  141.4040   78.1430  222.4060 C   0  0  2  0  0  0  0  0  0  0  0  0
  142.4610   78.9620  222.1010 O   0  0  0  0  0  0  0  0  0  0  0  0
  140.8020   77.4590  221.1700 C   0  0  1  0  0  0  0  0  0  0  0  0
  141.7750   76.6460  220.4820 C   0  0  0  0  0  0  0  0  0  0  0  0
  142.2110   75.3930  220.8230 C   0  0  0  0  0  0  0  0  0  0  0  0
  143.1470   74.6760  220.1070 C   0  0  0  0  0  0  0  0  0  0  0  0
  143.6970   75.2300  218.9710 C   0  0  0  0  0  0  0  0  0  0  0  0
  143.2900   76.4870  218.5890 C   0  0  0  0  0  0  0  0  0  0  0  0
  142.3620   77.1770  219.3140 C   0  0  0  0  0  0  0  0  0  0  0  0
  139.8420   71.1980  223.4610 C   0  0  0  0  0  0  0  0  0  0  0  0
  139.4440   69.8690  223.4190 C   0  0  0  0  0  0  0  0  0  0  0  0
  139.5380   69.0460  224.5020 C   0  0  0  0  0  0  0  0  0  0  0  0
  140.0480   69.5700  225.6690 C   0  0  0  0  0  0  0  0  0  0  0  0
  140.1540   68.7530  226.7840 C   0  0  0  0  0  0  0  0  0  0  0  0
  140.6630   69.2640  227.9550 C   0  0  0  0  0  0  0  0  0  0  0  0
  140.7870   68.5070  229.0760 F   0  0  0  0  0  0  0  0  0  0  0  0
  141.0750   70.5970  228.0380 C   0  0  0  0  0  0  0  0  0  0  0  0
  140.9650   71.3990  226.9190 C   0  0  0  0  0  0  0  0  0  0  0  0
  140.4540   70.8930  225.7390 C   0  0  0  0  0  0  0  0  0  0  0  0
  140.3300   71.6390  224.6270 N   0  0  0  0  0  0  0  0  0  0  0  0
  139.5210   73.8440  223.4570 H   0  0  0  0  0  0  0  0  0  0  0  0
  140.4265   74.4476  220.8508 H   0  0  0  0  0  0  0  0  0  0  0  0
  138.7112   73.9160  220.6278 H   0  0  0  0  0  0  0  0  0  0  0  0
  138.3389   78.6213  221.7990 H   0  0  0  0  0  0  0  0  0  0  0  0
  138.3702   77.7181  223.3035 H   0  0  0  0  0  0  0  0  0  0  0  0
  140.1282   79.8830  222.4598 H   0  0  0  0  0  0  0  0  0  0  0  0
  140.2002   79.0101  223.9959 H   0  0  0  0  0  0  0  0  0  0  0  0
  141.8601   77.4678  223.1449 H   0  0  0  0  0  0  0  0  0  0  0  0
  143.1940   78.3660  221.7550 H   0  0  0  0  0  0  0  0  0  0  0  0
  140.5167   78.0785  220.3070 H   0  0  0  0  0  0  0  0  0  0  0  0
  141.7875   74.9287  221.7258 H   0  0  0  0  0  0  0  0  0  0  0  0
  143.4513   73.6725  220.4392 H   0  0  0  0  0  0  0  0  0  0  0  0
  144.4453   74.6787  218.3826 H   0  0  0  0  0  0  0  0  0  0  0  0
  143.7192   76.9435  217.6849 H   0  0  0  0  0  0  0  0  0  0  0  0
  142.0619   78.1800  218.9766 H   0  0  0  0  0  0  0  0  0  0  0  0
  139.0386   69.4657  222.4793 H   0  0  0  0  0  0  0  0  0  0  0  0
  139.2163   67.9956  224.4453 H   0  0  0  0  0  0  0  0  0  0  0  0
  139.8329   67.7022  226.7324 H   0  0  0  0  0  0  0  0  0  0  0  0
  141.4797   71.0002  228.9780 H   0  0  0  0  0  0  0  0  0  0  0  0
  141.2870   72.4497  226.9675 H   0  0  0  0  0  0  0  0  0  0  0  0
  1  2  2  0
  2  3  1  0
  3  4  1  0
  4  5  1  0
  5  6  2  0
  5  7  1  0
  7  8  1  0
  8  9  1  0
  9 10  1  0
 10 11  1  0
 10 12  1  0
 12 13  1  0
 13 14  2  0
 14 15  1  0
 15 16  2  0
 16 17  1  0
 17 18  2  0
  2 19  1  0
 19 20  2  0
 20 21  1  0
 21 22  2  0
 22 23  1  0
 23 24  2  0
 24 25  1  0
 24 26  1  0
 26 27  2  0
 27 28  1  0
 28 29  2  0
 12  7  1  0
 18 13  1  0
 29 19  1  0
 28 22  1  0
  3 30  1  0
  4 31  1  0
  4 32  1  0
  8 33  1  0
  8 34  1  0
  9 35  1  0
  9 36  1  0
 10 37  1  1
 11 38  1  0
 12 39  1  6
 14 40  1  0
 15 41  1  0
 16 42  1  0
 17 43  1  0
 18 44  1  0
 20 45  1  0
 21 46  1  0
 23 47  1  0
 26 48  1  0
 27 49  1  0
M  END
>  <smiles>  (15) 
O=C(NCC(=O)N1CC[C@H](O)[C@H]1c1ccccc1)c1ccc2cc(F)ccc2n1

>  <score_type>  (15) 
oracle

>  <origin>  (15) 
autodockgpu

>  <m_score__min__energy>  (15) 
-8.9399999999999995

>  <m_primary>  (15) 
energy

>  <rmsd>  (15) 
3.127850776846064

>  <m_score__min__rmsd>  (15) 
3.127850776846064

>  <meeko>  (15) 
{"free_energy": -8.14, "intermolecular_energy": -9.92, "internal_energy": -1.45, "cluster_size": 14, "cluster_id": 3, "rank_in_cluster": 12}

>  <energy>  (15) 
-8.67

>  <cluster_rmsd>  (15) 
0.26

>  <cluster>  (15) 
2

$$$$

     RDKit          3D

 49 52  0  0  0  0  0  0  0  0999 V2000
  140.1440   71.7370  221.0700 O   0  0  0  0  0  0  0  0  0  0  0  0
  139.9290   72.2670  222.1890 C   0  0  0  0  0  0  0  0  0  0  0  0
  139.6620   73.6480  222.3760 N   0  0  0  0  0  0  0  0  0  0  0  0
  139.6320   74.5430  221.2030 C   0  0  0  0  0  0  0  0  0  0  0  0
  140.4460   75.7310  221.4240 C   0  0  0  0  0  0  0  0  0  0  0  0
  140.2380   76.3430  222.5500 O   0  0  0  0  0  0  0  0  0  0  0  0
  141.4170   76.3190  220.6110 N   0  0  0  0  0  0  0  0  0  0  0  0
  141.9970   75.4960  219.4910 C   0  0  0  0  0  0  0  0  0  0  0  0
  142.3550   76.5230  218.4440 C   0  0  0  0  0  0  0  0  0  0  0  0
  141.9410   77.8560  219.0230 C   0  0  2  0  0  0  0  0  0  0  0  0
  142.7120   78.9100  218.6080 O   0  0  0  0  0  0  0  0  0  0  0  0
  142.1100   77.5440  220.5180 C   0  0  1  0  0  0  0  0  0  0  0  0
  141.7560   78.6730  221.3430 C   0  0  0  0  0  0  0  0  0  0  0  0
  142.2680   79.0070  222.5700 C   0  0  0  0  0  0  0  0  0  0  0  0
  141.8770   80.1110  223.2990 C   0  0  0  0  0  0  0  0  0  0  0  0
  140.9120   80.9500  222.7870 C   0  0  0  0  0  0  0  0  0  0  0  0
  140.3670   80.6550  221.5590 C   0  0  0  0  0  0  0  0  0  0  0  0
  140.7700   79.5570  220.8560 C   0  0  0  0  0  0  0  0  0  0  0  0
  139.9490   71.4170  223.3840 C   0  0  0  0  0  0  0  0  0  0  0  0
  139.4990   70.1050  223.3290 C   0  0  0  0  0  0  0  0  0  0  0  0
  139.5050   69.2890  224.4210 C   0  0  0  0  0  0  0  0  0  0  0  0
  139.9780   69.8010  225.6090 C   0  0  0  0  0  0  0  0  0  0  0  0
  139.9940   68.9900  226.7320 C   0  0  0  0  0  0  0  0  0  0  0  0
  140.4650   69.4890  227.9240 C   0  0  0  0  0  0  0  0  0  0  0  0
  140.5020   68.7360  229.0540 F   0  0  0  0  0  0  0  0  0  0  0  0
  140.9280   70.8040  228.0190 C   0  0  0  0  0  0  0  0  0  0  0  0
  140.9060   71.6000  226.8920 C   0  0  0  0  0  0  0  0  0  0  0  0
  140.4340   71.1060  225.6910 C   0  0  0  0  0  0  0  0  0  0  0  0
  140.3960   71.8480  224.5690 N   0  0  0  0  0  0  0  0  0  0  0  0
  139.4880   74.0420  223.3280 H   0  0  0  0  0  0  0  0  0  0  0  0
  140.0196   74.0005  220.3281 H   0  0  0  0  0  0  0  0  0  0  0  0
  138.5924   74.8603  221.0343 H   0  0  0  0  0  0  0  0  0  0  0  0
  142.8907   74.9498  219.8271 H   0  0  0  0  0  0  0  0  0  0  0  0
  141.3005   74.7306  219.1182 H   0  0  0  0  0  0  0  0  0  0  0  0
  143.4372   76.5094  218.2472 H   0  0  0  0  0  0  0  0  0  0  0  0
  141.8513   76.3211  217.4872 H   0  0  0  0  0  0  0  0  0  0  0  0
  140.9382   78.1907  218.7190 H   0  0  0  0  0  0  0  0  0  0  0  0
  143.6690   78.6480  218.7740 H   0  0  0  0  0  0  0  0  0  0  0  0
  143.1244   77.4035  220.9195 H   0  0  0  0  0  0  0  0  0  0  0  0
  143.0402   78.3527  223.0010 H   0  0  0  0  0  0  0  0  0  0  0  0
  142.3312   80.3191  224.2790 H   0  0  0  0  0  0  0  0  0  0  0  0
  140.5841   81.8373  223.3484 H   0  0  0  0  0  0  0  0  0  0  0  0
  139.5943   81.3144  221.1371 H   0  0  0  0  0  0  0  0  0  0  0  0
  140.3109   79.3544  219.8771 H   0  0  0  0  0  0  0  0  0  0  0  0
  139.1251   69.7107  222.3726 H   0  0  0  0  0  0  0  0  0  0  0  0
  139.1429   68.2524  224.3554 H   0  0  0  0  0  0  0  0  0  0  0  0
  139.6321   67.9530  226.6707 H   0  0  0  0  0  0  0  0  0  0  0  0
  141.3033   71.1976  228.9751 H   0  0  0  0  0  0  0  0  0  0  0  0
  141.2675   72.6373  226.9503 H   0  0  0  0  0  0  0  0  0  0  0  0
  1  2  2  0
  2  3  1  0
  3  4  1  0
  4  5  1  0
  5  6  2  0
  5  7  1  0
  7  8  1  0
  8  9  1  0
  9 10  1  0
 10 11  1  0
 10 12  1  0
 12 13  1  0
 13 14  2  0
 14 15  1  0
 15 16  2  0
 16 17  1  0
 17 18  2  0
  2 19  1  0
 19 20  2  0
 20 21  1  0
 21 22  2  0
 22 23  1  0
 23 24  2  0
 24 25  1  0
 24 26  1  0
 26 27  2  0
 27 28  1  0
 28 29  2  0
 12  7  1  0
 18 13  1  0
 29 19  1  0
 28 22  1  0
  3 30  1  0
  4 31  1  0
  4 32  1  0
  8 33  1  0
  8 34  1  0
  9 35  1  0
  9 36  1  0
 10 37  1  1
 11 38  1  0
 12 39  1  6
 14 40  1  0
 15 41  1  0
 16 42  1  0
 17 43  1  0
 18 44  1  0
 20 45  1  0
 21 46  1  0
 23 47  1  0
 26 48  1  0
 27 49  1  0
M  END
>  <smiles>  (16) 
O=C(NCC(=O)N1CC[C@H](O)[C@H]1c1ccccc1)c1ccc2cc(F)ccc2n1

>  <score_type>  (16) 
oracle

>  <origin>  (16) 
autodockgpu

>  <m_score__min__energy>  (16) 
-8.9399999999999995

>  <m_primary>  (16) 
energy

>  <rmsd>  (16) 
2.0349133710402407

>  <m_score__min__rmsd>  (16) 
2.0349133710402407

>  <meeko>  (16) 
{"free_energy": -8.36, "intermolecular_energy": -10.15, "internal_energy": -1.64, "cluster_size": 16, "cluster_id": 2, "rank_in_cluster": 14}

>  <energy>  (16) 
-8.65

>  <cluster_rmsd>  (16) 
0.81

>  <cluster>  (16) 
2

$$$$

     RDKit          3D

 49 52  0  0  0  0  0  0  0  0999 V2000
  141.0350   72.1640  221.4610 O   0  0  0  0  0  0  0  0  0  0  0  0
  140.1830   72.3940  222.3570 C   0  0  0  0  0  0  0  0  0  0  0  0
  139.2510   73.4630  222.3110 N   0  0  0  0  0  0  0  0  0  0  0  0
  139.2610   74.3800  221.1540 C   0  0  0  0  0  0  0  0  0  0  0  0
  140.5970   74.9080  220.9100 C   0  0  0  0  0  0  0  0  0  0  0  0
  141.3180   75.1010  221.9720 O   0  0  0  0  0  0  0  0  0  0  0  0
  141.2250   75.2430  219.7090 N   0  0  0  0  0  0  0  0  0  0  0  0
  140.4730   76.1080  218.7320 C   0  0  0  0  0  0  0  0  0  0  0  0
  141.5640   76.8640  218.0130 C   0  0  0  0  0  0  0  0  0  0  0  0
  142.8600   76.3970  218.6350 C   0  0  2  0  0  0  0  0  0  0  0  0
  143.9290   76.4100  217.7770 O   0  0  0  0  0  0  0  0  0  0  0  0
  142.4430   74.9770  219.0490 C   0  0  1  0  0  0  0  0  0  0  0  0
  143.5180   74.2750  219.7080 C   0  0  0  0  0  0  0  0  0  0  0  0
  144.5950   74.8150  220.3610 C   0  0  0  0  0  0  0  0  0  0  0  0
  145.5840   74.0730  220.9710 C   0  0  0  0  0  0  0  0  0  0  0  0
  145.5120   72.6970  220.9390 C   0  0  0  0  0  0  0  0  0  0  0  0
  144.4490   72.1090  220.2930 C   0  0  0  0  0  0  0  0  0  0  0  0
  143.4820   72.8650  219.6970 C   0  0  0  0  0  0  0  0  0  0  0  0
  140.1360   71.5100  223.5250 C   0  0  0  0  0  0  0  0  0  0  0  0
  139.5870   70.2380  223.4320 C   0  0  0  0  0  0  0  0  0  0  0  0
  139.5290   69.3910  224.4990 C   0  0  0  0  0  0  0  0  0  0  0  0
  140.0370   69.8310  225.7010 C   0  0  0  0  0  0  0  0  0  0  0  0
  139.9890   68.9870  226.7990 C   0  0  0  0  0  0  0  0  0  0  0  0
  140.4940   69.4140  228.0060 C   0  0  0  0  0  0  0  0  0  0  0  0
  140.4710   68.6270  229.1130 F   0  0  0  0  0  0  0  0  0  0  0  0
  141.0550   70.6870  228.1400 C   0  0  0  0  0  0  0  0  0  0  0  0
  141.0960   71.5160  227.0370 C   0  0  0  0  0  0  0  0  0  0  0  0
  140.5910   71.0940  225.8220 C   0  0  0  0  0  0  0  0  0  0  0  0
  140.6110   71.8700  224.7230 N   0  0  0  0  0  0  0  0  0  0  0  0
  138.5600   73.6140  223.0800 H   0  0  0  0  0  0  0  0  0  0  0  0
  138.9225   73.8342  220.2610 H   0  0  0  0  0  0  0  0  0  0  0  0
  138.5886   75.2227  221.3724 H   0  0  0  0  0  0  0  0  0  0  0  0
  139.8927   75.4927  218.0287 H   0  0  0  0  0  0  0  0  0  0  0  0
  139.7449   76.7715  219.2215 H   0  0  0  0  0  0  0  0  0  0  0  0
  141.5482   76.6311  216.9380 H   0  0  0  0  0  0  0  0  0  0  0  0
  141.4358   77.9523  218.1083 H   0  0  0  0  0  0  0  0  0  0  0  0
  143.2296   77.0385  219.4486 H   0  0  0  0  0  0  0  0  0  0  0  0
  144.5230   75.6440  218.0470 H   0  0  0  0  0  0  0  0  0  0  0  0
  142.2601   74.2275  218.2649 H   0  0  0  0  0  0  0  0  0  0  0  0
  144.6756   75.9113  220.4010 H   0  0  0  0  0  0  0  0  0  0  0  0
  146.4219   74.5740  221.4780 H   0  0  0  0  0  0  0  0  0  0  0  0
  146.2875   72.0823  221.4194 H   0  0  0  0  0  0  0  0  0  0  0  0
  144.3776   71.0119  220.2564 H   0  0  0  0  0  0  0  0  0  0  0  0
  142.6469   72.3582  219.1913 H   0  0  0  0  0  0  0  0  0  0  0  0
  139.1852   69.9022  222.4646 H   0  0  0  0  0  0  0  0  0  0  0  0
  139.0899   68.3871  224.4026 H   0  0  0  0  0  0  0  0  0  0  0  0
  139.5502   67.9825  226.7065 H   0  0  0  0  0  0  0  0  0  0  0  0
  141.4568   71.0225  229.1075 H   0  0  0  0  0  0  0  0  0  0  0  0
  141.5343   72.5209  227.1260 H   0  0  0  0  0  0  0  0  0  0  0  0
  1  2  2  0
  2  3  1  0
  3  4  1  0
  4  5  1  0
  5  6  2  0
  5  7  1  0
  7  8  1  0
  8  9  1  0
  9 10  1  0
 10 11  1  0
 10 12  1  0
 12 13  1  0
 13 14  2  0
 14 15  1  0
 15 16  2  0
 16 17  1  0
 17 18  2  0
  2 19  1  0
 19 20  2  0
 20 21  1  0
 21 22  2  0
 22 23  1  0
 23 24  2  0
 24 25  1  0
 24 26  1  0
 26 27  2  0
 27 28  1  0
 28 29  2  0
 12  7  1  0
 18 13  1  0
 29 19  1  0
 28 22  1  0
  3 30  1  0
  4 31  1  0
  4 32  1  0
  8 33  1  0
  8 34  1  0
  9 35  1  0
  9 36  1  0
 10 37  1  1
 11 38  1  0
 12 39  1  6
 14 40  1  0
 15 41  1  0
 16 42  1  0
 17 43  1  0
 18 44  1  0
 20 45  1  0
 21 46  1  0
 23 47  1  0
 26 48  1  0
 27 49  1  0
M  END
>  <smiles>  (17) 
O=C(NCC(=O)N1CC[C@H](O)[C@H]1c1ccccc1)c1ccc2cc(F)ccc2n1

>  <score_type>  (17) 
oracle

>  <origin>  (17) 
autodockgpu

>  <m_score__min__energy>  (17) 
-8.9399999999999995

>  <m_primary>  (17) 
energy

>  <rmsd>  (17) 
1.7667515670769327

>  <m_score__min__rmsd>  (17) 
1.7667515670769327

>  <meeko>  (17) 
{"free_energy": -8.41, "intermolecular_energy": -10.2, "internal_energy": -1.61, "cluster_size": 8, "cluster_id": 4, "rank_in_cluster": 2}

>  <energy>  (17) 
-8.61

>  <cluster_rmsd>  (17) 
0.55

>  <cluster>  (17) 
2

$$$$

     RDKit          3D

 49 52  0  0  0  0  0  0  0  0999 V2000
  139.8280   70.7850  221.1460 O   0  0  0  0  0  0  0  0  0  0  0  0
  139.6140   71.3790  222.2340 C   0  0  0  0  0  0  0  0  0  0  0  0
  139.2900   72.7560  222.3360 N   0  0  0  0  0  0  0  0  0  0  0  0
  139.1940   73.5690  221.1070 C   0  0  0  0  0  0  0  0  0  0  0  0
  139.9620   74.8010  221.2280 C   0  0  0  0  0  0  0  0  0  0  0  0
  139.9330   75.3590  222.4000 O   0  0  0  0  0  0  0  0  0  0  0  0
  140.7260   75.4800  220.2770 N   0  0  0  0  0  0  0  0  0  0  0  0
  140.1410   76.7200  219.6520 C   0  0  0  0  0  0  0  0  0  0  0  0
  141.3530   77.5610  219.3310 C   0  0  0  0  0  0  0  0  0  0  0  0
  142.5430   76.7590  219.8070 C   0  0  2  0  0  0  0  0  0  0  0  0
  143.6850   76.9670  219.0790 O   0  0  0  0  0  0  0  0  0  0  0  0
  141.9750   75.3420  219.6370 C   0  0  1  0  0  0  0  0  0  0  0  0
  142.9220   74.3340  220.0460 C   0  0  0  0  0  0  0  0  0  0  0  0
  144.2280   74.5140  220.4200 C   0  0  0  0  0  0  0  0  0  0  0  0
  145.0740   73.4940  220.8030 C   0  0  0  0  0  0  0  0  0  0  0  0
  144.6030   72.1990  220.8210 C   0  0  0  0  0  0  0  0  0  0  0  0
  143.2980   71.9680  220.4530 C   0  0  0  0  0  0  0  0  0  0  0  0
  142.4810   72.9940  220.0780 C   0  0  0  0  0  0  0  0  0  0  0  0
  139.6990   70.6120  223.4800 C   0  0  0  0  0  0  0  0  0  0  0  0
  139.1730   69.3300  223.5630 C   0  0  0  0  0  0  0  0  0  0  0  0
  139.2360   68.5910  224.7070 C   0  0  0  0  0  0  0  0  0  0  0  0
  139.8450   69.1520  225.8070 C   0  0  0  0  0  0  0  0  0  0  0  0
  139.9210   68.4200  226.9800 C   0  0  0  0  0  0  0  0  0  0  0  0
  140.5280   68.9690  228.0860 C   0  0  0  0  0  0  0  0  0  0  0  0
  140.6290   68.2940  229.2600 F   0  0  0  0  0  0  0  0  0  0  0  0
  141.0700   70.2560  228.0430 C   0  0  0  0  0  0  0  0  0  0  0  0
  140.9870   70.9740  226.8670 C   0  0  0  0  0  0  0  0  0  0  0  0
  140.3790   70.4290  225.7520 C   0  0  0  0  0  0  0  0  0  0  0  0
  140.2770   71.0940  224.5870 N   0  0  0  0  0  0  0  0  0  0  0  0
  139.1190   73.2060  223.2640 H   0  0  0  0  0  0  0  0  0  0  0  0
  139.5833   72.9855  220.2597 H   0  0  0  0  0  0  0  0  0  0  0  0
  138.1382   73.8317  220.9451 H   0  0  0  0  0  0  0  0  0  0  0  0
  139.5813   76.4725  218.7379 H   0  0  0  0  0  0  0  0  0  0  0  0
  139.4260   77.2344  220.3110 H   0  0  0  0  0  0  0  0  0  0  0  0
  141.4196   77.7406  218.2478 H   0  0  0  0  0  0  0  0  0  0  0  0
  141.3052   78.5460  219.8183 H   0  0  0  0  0  0  0  0  0  0  0  0
  142.8857   77.0136  220.8208 H   0  0  0  0  0  0  0  0  0  0  0  0
  144.3220   77.4640  219.6790 H   0  0  0  0  0  0  0  0  0  0  0  0
  141.8064   74.9567  218.6206 H   0  0  0  0  0  0  0  0  0  0  0  0
  144.6278   75.5388  220.4144 H   0  0  0  0  0  0  0  0  0  0  0  0
  146.1131   73.7119  221.0908 H   0  0  0  0  0  0  0  0  0  0  0  0
  145.2569   71.3677  221.1233 H   0  0  0  0  0  0  0  0  0  0  0  0
  142.9070   70.9399  220.4612 H   0  0  0  0  0  0  0  0  0  0  0  0
  141.4432   72.7691  219.7908 H   0  0  0  0  0  0  0  0  0  0  0  0
  138.6890   68.8957  222.6758 H   0  0  0  0  0  0  0  0  0  0  0  0
  138.8128   67.5766  224.7499 H   0  0  0  0  0  0  0  0  0  0  0  0
  139.4985   67.4055  227.0273 H   0  0  0  0  0  0  0  0  0  0  0  0
  141.5543   70.6894  228.9305 H   0  0  0  0  0  0  0  0  0  0  0  0
  141.4085   71.9888  226.8169 H   0  0  0  0  0  0  0  0  0  0  0  0
  1  2  2  0
  2  3  1  0
  3  4  1  0
  4  5  1  0
  5  6  2  0
  5  7  1  0
  7  8  1  0
  8  9  1  0
  9 10  1  0
 10 11  1  0
 10 12  1  0
 12 13  1  0
 13 14  2  0
 14 15  1  0
 15 16  2  0
 16 17  1  0
 17 18  2  0
  2 19  1  0
 19 20  2  0
 20 21  1  0
 21 22  2  0
 22 23  1  0
 23 24  2  0
 24 25  1  0
 24 26  1  0
 26 27  2  0
 27 28  1  0
 28 29  2  0
 12  7  1  0
 18 13  1  0
 29 19  1  0
 28 22  1  0
  3 30  1  0
  4 31  1  0
  4 32  1  0
  8 33  1  0
  8 34  1  0
  9 35  1  0
  9 36  1  0
 10 37  1  1
 11 38  1  0
 12 39  1  6
 14 40  1  0
 15 41  1  0
 16 42  1  0
 17 43  1  0
 18 44  1  0
 20 45  1  0
 21 46  1  0
 23 47  1  0
 26 48  1  0
 27 49  1  0
M  END
>  <smiles>  (18) 
O=C(NCC(=O)N1CC[C@H](O)[C@H]1c1ccccc1)c1ccc2cc(F)ccc2n1

>  <score_type>  (18) 
oracle

>  <origin>  (18) 
autodockgpu

>  <m_score__min__energy>  (18) 
-8.9399999999999995

>  <m_primary>  (18) 
energy

>  <rmsd>  (18) 
1.8504231259698862

>  <m_score__min__rmsd>  (18) 
1.8504231259698862

>  <meeko>  (18) 
{"free_energy": -8.23, "intermolecular_energy": -10.02, "internal_energy": -1.89, "cluster_size": 14, "cluster_id": 3, "rank_in_cluster": 9}

>  <energy>  (18) 
-8.59

>  <cluster_rmsd>  (18) 
0.3

>  <cluster>  (18) 
2

$$$$

     RDKit          3D

 49 52  0  0  0  0  0  0  0  0999 V2000
  139.2530   71.0880  221.1280 O   0  0  0  0  0  0  0  0  0  0  0  0
  139.4220   71.6860  222.2210 C   0  0  0  0  0  0  0  0  0  0  0  0
  139.4620   73.0970  222.3570 N   0  0  0  0  0  0  0  0  0  0  0  0
  139.3010   73.9420  221.1570 C   0  0  0  0  0  0  0  0  0  0  0  0
  140.4840   74.7610  220.9260 C   0  0  0  0  0  0  0  0  0  0  0  0
  141.0740   75.1970  221.9980 O   0  0  0  0  0  0  0  0  0  0  0  0
  141.0850   75.1550  219.7290 N   0  0  0  0  0  0  0  0  0  0  0  0
  140.2870   76.0170  218.7860 C   0  0  0  0  0  0  0  0  0  0  0  0
  141.3400   76.8360  218.0770 C   0  0  0  0  0  0  0  0  0  0  0  0
  142.6600   76.4040  218.6720 C   0  0  2  0  0  0  0  0  0  0  0  0
  143.7180   76.4840  217.8030 O   0  0  0  0  0  0  0  0  0  0  0  0
  142.3050   74.9570  219.0490 C   0  0  1  0  0  0  0  0  0  0  0  0
  143.4140   74.2800  219.6760 C   0  0  0  0  0  0  0  0  0  0  0  0
  144.5130   74.8450  220.2680 C   0  0  0  0  0  0  0  0  0  0  0  0
  145.5350   74.1260  220.8520 C   0  0  0  0  0  0  0  0  0  0  0  0
  145.4760   72.7490  220.8550 C   0  0  0  0  0  0  0  0  0  0  0  0
  144.3910   72.1370  220.2710 C   0  0  0  0  0  0  0  0  0  0  0  0
  143.3920   72.8700  219.7000 C   0  0  0  0  0  0  0  0  0  0  0  0
  139.5860   70.8870  223.4400 C   0  0  0  0  0  0  0  0  0  0  0  0
  139.1660   69.5650  223.4840 C   0  0  0  0  0  0  0  0  0  0  0  0
  139.3040   68.7950  224.6010 C   0  0  0  0  0  0  0  0  0  0  0  0
  139.8830   69.3670  225.7120 C   0  0  0  0  0  0  0  0  0  0  0  0
  140.0350   68.6040  226.8590 C   0  0  0  0  0  0  0  0  0  0  0  0
  140.6130   69.1620  227.9750 C   0  0  0  0  0  0  0  0  0  0  0  0
  140.7850   68.4590  229.1240 F   0  0  0  0  0  0  0  0  0  0  0  0
  141.0490   70.4900  227.9700 C   0  0  0  0  0  0  0  0  0  0  0  0
  140.8920   71.2380  226.8200 C   0  0  0  0  0  0  0  0  0  0  0  0
  140.3120   70.6830  225.6950 C   0  0  0  0  0  0  0  0  0  0  0  0
  140.1410   71.3770  224.5550 N   0  0  0  0  0  0  0  0  0  0  0  0
  139.6030   73.5490  223.2880 H   0  0  0  0  0  0  0  0  0  0  0  0
  139.1360   73.2954  220.2825 H   0  0  0  0  0  0  0  0  0  0  0  0
  138.4408   74.6094  221.3141 H   0  0  0  0  0  0  0  0  0  0  0  0
  139.7227   75.3996  218.0717 H   0  0  0  0  0  0  0  0  0  0  0  0
  139.5391   76.6367  219.3023 H   0  0  0  0  0  0  0  0  0  0  0  0
  141.3212   76.6326  216.9961 H   0  0  0  0  0  0  0  0  0  0  0  0
  141.1700   77.9153  218.2043 H   0  0  0  0  0  0  0  0  0  0  0  0
  143.0127   77.0364  219.5001 H   0  0  0  0  0  0  0  0  0  0  0  0
  144.4530   75.9190  218.1940 H   0  0  0  0  0  0  0  0  0  0  0  0
  142.1435   74.2236  218.2453 H   0  0  0  0  0  0  0  0  0  0  0  0
  144.5848   75.9426  220.2782 H   0  0  0  0  0  0  0  0  0  0  0  0
  146.3886   74.6464  221.3108 H   0  0  0  0  0  0  0  0  0  0  0  0
  146.2784   72.1527  221.3140 H   0  0  0  0  0  0  0  0  0  0  0  0
  144.3280   71.0388  220.2643 H   0  0  0  0  0  0  0  0  0  0  0  0
  142.5410   72.3437  219.2431 H   0  0  0  0  0  0  0  0  0  0  0  0
  138.7063   69.1234  222.5876 H   0  0  0  0  0  0  0  0  0  0  0  0
  138.9633   67.7492  224.6142 H   0  0  0  0  0  0  0  0  0  0  0  0
  139.6952   67.5579  226.8765 H   0  0  0  0  0  0  0  0  0  0  0  0
  141.5091   70.9314  228.8664 H   0  0  0  0  0  0  0  0  0  0  0  0
  141.2313   72.2841  226.7991 H   0  0  0  0  0  0  0  0  0  0  0  0
  1  2  2  0
  2  3  1  0
  3  4  1  0
  4  5  1  0
  5  6  2  0
  5  7  1  0
  7  8  1  0
  8  9  1  0
  9 10  1  0
 10 11  1  0
 10 12  1  0
 12 13  1  0
 13 14  2  0
 14 15  1  0
 15 16  2  0
 16 17  1  0
 17 18  2  0
  2 19  1  0
 19 20  2  0
 20 21  1  0
 21 22  2  0
 22 23  1  0
 23 24  2  0
 24 25  1  0
 24 26  1  0
 26 27  2  0
 27 28  1  0
 28 29  2  0
 12  7  1  0
 18 13  1  0
 29 19  1  0
 28 22  1  0
  3 30  1  0
  4 31  1  0
  4 32  1  0
  8 33  1  0
  8 34  1  0
  9 35  1  0
  9 36  1  0
 10 37  1  1
 11 38  1  0
 12 39  1  6
 14 40  1  0
 15 41  1  0
 16 42  1  0
 17 43  1  0
 18 44  1  0
 20 45  1  0
 21 46  1  0
 23 47  1  0
 26 48  1  0
 27 49  1  0
M  END
>  <smiles>  (19) 
O=C(NCC(=O)N1CC[C@H](O)[C@H]1c1ccccc1)c1ccc2cc(F)ccc2n1

>  <score_type>  (19) 
oracle

>  <origin>  (19) 
autodockgpu

>  <m_score__min__energy>  (19) 
-8.9399999999999995

>  <m_primary>  (19) 
energy

>  <rmsd>  (19) 
1.5683603781922328

>  <m_score__min__rmsd>  (19) 
1.5683603781922328

>  <meeko>  (19) 
{"free_energy": -8.15, "intermolecular_energy": -9.94, "internal_energy": -1.82, "cluster_size": 8, "cluster_id": 4, "rank_in_cluster": 5}

>  <energy>  (19) 
-8.59

>  <cluster_rmsd>  (19) 
0.29

>  <cluster>  (19) 
2

$$$$

     RDKit          3D

 49 52  0  0  0  0  0  0  0  0999 V2000
  140.8720   71.9450  221.4070 O   0  0  0  0  0  0  0  0  0  0  0  0
  140.0390   72.1630  222.3220 C   0  0  0  0  0  0  0  0  0  0  0  0
  139.0810   73.2090  222.2910 N   0  0  0  0  0  0  0  0  0  0  0  0
  139.0370   74.1140  221.1260 C   0  0  0  0  0  0  0  0  0  0  0  0
  140.2250   74.9570  221.0680 C   0  0  0  0  0  0  0  0  0  0  0  0
  140.7530   75.2490  222.2170 O   0  0  0  0  0  0  0  0  0  0  0  0
  140.8860   75.5030  219.9650 N   0  0  0  0  0  0  0  0  0  0  0  0
  140.2100   76.6210  219.2160 C   0  0  0  0  0  0  0  0  0  0  0  0
  141.3620   77.4320  218.6730 C   0  0  0  0  0  0  0  0  0  0  0  0
  142.6130   76.7370  219.1600 C   0  0  2  0  0  0  0  0  0  0  0  0
  143.6860   76.8600  218.3140 O   0  0  0  0  0  0  0  0  0  0  0  0
  142.0830   75.2980  219.2490 C   0  0  1  0  0  0  0  0  0  0  0  0
  143.0950   74.3850  219.7210 C   0  0  0  0  0  0  0  0  0  0  0  0
  144.2440   74.6870  220.4050 C   0  0  0  0  0  0  0  0  0  0  0  0
  145.1650   73.7520  220.8270 C   0  0  0  0  0  0  0  0  0  0  0  0
  144.9440   72.4180  220.5580 C   0  0  0  0  0  0  0  0  0  0  0  0
  143.8040   72.0660  219.8730 C   0  0  0  0  0  0  0  0  0  0  0  0
  142.9070   73.0100  219.4660 C   0  0  0  0  0  0  0  0  0  0  0  0
  140.0450   71.2900  223.5000 C   0  0  0  0  0  0  0  0  0  0  0  0
  139.5410   69.9990  223.4280 C   0  0  0  0  0  0  0  0  0  0  0  0
  139.5320   69.1610  224.5040 C   0  0  0  0  0  0  0  0  0  0  0  0
  140.0450   69.6310  225.6930 C   0  0  0  0  0  0  0  0  0  0  0  0
  140.0470   68.7970  226.8000 C   0  0  0  0  0  0  0  0  0  0  0  0
  140.5570   69.2540  227.9930 C   0  0  0  0  0  0  0  0  0  0  0  0
  140.5820   68.4790  229.1080 F   0  0  0  0  0  0  0  0  0  0  0  0
  141.0730   70.5480  228.1050 C   0  0  0  0  0  0  0  0  0  0  0  0
  141.0650   71.3660  226.9940 C   0  0  0  0  0  0  0  0  0  0  0  0
  140.5540   70.9150  225.7920 C   0  0  0  0  0  0  0  0  0  0  0  0
  140.5280   71.6790  224.6850 N   0  0  0  0  0  0  0  0  0  0  0  0
  138.4060   73.3510  223.0770 H   0  0  0  0  0  0  0  0  0  0  0  0
  138.9784   73.5128  220.2067 H   0  0  0  0  0  0  0  0  0  0  0  0
  138.1539   74.7628  221.2222 H   0  0  0  0  0  0  0  0  0  0  0  0
  139.5879   76.2266  218.3991 H   0  0  0  0  0  0  0  0  0  0  0  0
  139.5326   77.2119  219.8500 H   0  0  0  0  0  0  0  0  0  0  0  0
  141.3353   77.4488  217.5735 H   0  0  0  0  0  0  0  0  0  0  0  0
  141.3191   78.4777  219.0115 H   0  0  0  0  0  0  0  0  0  0  0  0
  143.0266   77.1473  220.0930 H   0  0  0  0  0  0  0  0  0  0  0  0
  144.3540   76.1630  218.5970 H   0  0  0  0  0  0  0  0  0  0  0  0
  141.8465   74.7604  218.3189 H   0  0  0  0  0  0  0  0  0  0  0  0
  144.4442   75.7445  220.6320 H   0  0  0  0  0  0  0  0  0  0  0  0
  146.0667   74.0670  221.3726 H   0  0  0  0  0  0  0  0  0  0  0  0
  145.6632   71.6521  220.8838 H   0  0  0  0  0  0  0  0  0  0  0  0
  143.6126   71.0060  219.6498 H   0  0  0  0  0  0  0  0  0  0  0  0
  142.0073   72.6885  218.9209 H   0  0  0  0  0  0  0  0  0  0  0  0
  139.1351   69.6395  222.4709 H   0  0  0  0  0  0  0  0  0  0  0  0
  139.1275   68.1411  224.4249 H   0  0  0  0  0  0  0  0  0  0  0  0
  139.6434   67.7764  226.7251 H   0  0  0  0  0  0  0  0  0  0  0  0
  141.4784   70.9080  229.0621 H   0  0  0  0  0  0  0  0  0  0  0  0
  141.4691   72.3866  227.0658 H   0  0  0  0  0  0  0  0  0  0  0  0
  1  2  2  0
  2  3  1  0
  3  4  1  0
  4  5  1  0
  5  6  2  0
  5  7  1  0
  7  8  1  0
  8  9  1  0
  9 10  1  0
 10 11  1  0
 10 12  1  0
 12 13  1  0
 13 14  2  0
 14 15  1  0
 15 16  2  0
 16 17  1  0
 17 18  2  0
  2 19  1  0
 19 20  2  0
 20 21  1  0
 21 22  2  0
 22 23  1  0
 23 24  2  0
 24 25  1  0
 24 26  1  0
 26 27  2  0
 27 28  1  0
 28 29  2  0
 12  7  1  0
 18 13  1  0
 29 19  1  0
 28 22  1  0
  3 30  1  0
  4 31  1  0
  4 32  1  0
  8 33  1  0
  8 34  1  0
  9 35  1  0
  9 36  1  0
 10 37  1  1
 11 38  1  0
 12 39  1  6
 14 40  1  0
 15 41  1  0
 16 42  1  0
 17 43  1  0
 18 44  1  0
 20 45  1  0
 21 46  1  0
 23 47  1  0
 26 48  1  0
 27 49  1  0
M  END
>  <smiles>  (20) 
O=C(NCC(=O)N1CC[C@H](O)[C@H]1c1ccccc1)c1ccc2cc(F)ccc2n1

>  <score_type>  (20) 
oracle

>  <origin>  (20) 
autodockgpu

>  <m_score__min__energy>  (20) 
-8.9399999999999995

>  <m_primary>  (20) 
energy

>  <rmsd>  (20) 
1.749952412648883

>  <m_score__min__rmsd>  (20) 
1.749952412648883

>  <meeko>  (20) 
{"free_energy": -8.12, "intermolecular_energy": -9.91, "internal_energy": -1.7, "cluster_size": 14, "cluster_id": 3, "rank_in_cluster": 13}

>  <energy>  (20) 
-8.54

>  <cluster_rmsd>  (20) 
0.47

>  <cluster>  (20) 
2

$$$$

     RDKit          3D

 49 52  0  0  0  0  0  0  0  0999 V2000
  140.4730   71.7480  221.0920 O   0  0  0  0  0  0  0  0  0  0  0  0
  140.1310   72.2960  222.1700 C   0  0  0  0  0  0  0  0  0  0  0  0
  139.8500   73.6800  222.3030 N   0  0  0  0  0  0  0  0  0  0  0  0
  139.9600   74.5560  221.1190 C   0  0  0  0  0  0  0  0  0  0  0  0
  140.6070   75.8180  221.4550 C   0  0  0  0  0  0  0  0  0  0  0  0
  140.3960   76.2450  222.6620 O   0  0  0  0  0  0  0  0  0  0  0  0
  141.4210   76.6440  220.6770 N   0  0  0  0  0  0  0  0  0  0  0  0
  141.9860   76.0830  219.3990 C   0  0  0  0  0  0  0  0  0  0  0  0
  142.1200   77.2950  218.5080 C   0  0  0  0  0  0  0  0  0  0  0  0
  141.6080   78.4590  219.3260 C   0  0  2  0  0  0  0  0  0  0  0  0
  142.2080   79.6560  219.0300 O   0  0  0  0  0  0  0  0  0  0  0  0
  141.9530   77.9490  220.7330 C   0  0  1  0  0  0  0  0  0  0  0  0
  141.5490   78.8840  221.7550 C   0  0  0  0  0  0  0  0  0  0  0  0
  140.2740   79.2610  222.0870 C   0  0  0  0  0  0  0  0  0  0  0  0
  139.9680   80.1630  223.0840 C   0  0  0  0  0  0  0  0  0  0  0  0
  140.9880   80.7390  223.8100 C   0  0  0  0  0  0  0  0  0  0  0  0
  142.2850   80.3920  223.5120 C   0  0  0  0  0  0  0  0  0  0  0  0
  142.5630   79.4970  222.5200 C   0  0  0  0  0  0  0  0  0  0  0  0
  140.0100   71.4660  223.3720 C   0  0  0  0  0  0  0  0  0  0  0  0
  139.4150   70.2130  223.3120 C   0  0  0  0  0  0  0  0  0  0  0  0
  139.2870   69.4160  224.4110 C   0  0  0  0  0  0  0  0  0  0  0  0
  139.7700   69.8880  225.6110 C   0  0  0  0  0  0  0  0  0  0  0  0
  139.6510   69.0950  226.7420 C   0  0  0  0  0  0  0  0  0  0  0  0
  140.1300   69.5540  227.9470 C   0  0  0  0  0  0  0  0  0  0  0  0
  140.0390   68.8180  229.0850 F   0  0  0  0  0  0  0  0  0  0  0  0
  140.7350   70.8100  228.0480 C   0  0  0  0  0  0  0  0  0  0  0  0
  140.8470   71.5880  226.9130 C   0  0  0  0  0  0  0  0  0  0  0  0
  140.3680   71.1340  225.7000 C   0  0  0  0  0  0  0  0  0  0  0  0
  140.4570   71.8600  224.5700 N   0  0  0  0  0  0  0  0  0  0  0  0
  139.5670   74.0910  223.2210 H   0  0  0  0  0  0  0  0  0  0  0  0
  140.5528   74.0433  220.3472 H   0  0  0  0  0  0  0  0  0  0  0  0
  138.9464   74.7717  220.7501 H   0  0  0  0  0  0  0  0  0  0  0  0
  142.9656   75.6146  219.5749 H   0  0  0  0  0  0  0  0  0  0  0  0
  141.3529   75.2977  218.9602 H   0  0  0  0  0  0  0  0  0  0  0  0
  143.1727   77.4537  218.2312 H   0  0  0  0  0  0  0  0  0  0  0  0
  141.5558   77.1761  217.5712 H   0  0  0  0  0  0  0  0  0  0  0  0
  140.5484   78.7015  219.1574 H   0  0  0  0  0  0  0  0  0  0  0  0
  141.4750   80.3450  219.0000 H   0  0  0  0  0  0  0  0  0  0  0  0
  143.0102   77.8833  221.0297 H   0  0  0  0  0  0  0  0  0  0  0  0
  139.4417   78.8157  221.5222 H   0  0  0  0  0  0  0  0  0  0  0  0
  138.9201   80.4203  223.2978 H   0  0  0  0  0  0  0  0  0  0  0  0
  140.7694   81.4609  224.6107 H   0  0  0  0  0  0  0  0  0  0  0  0
  143.1109   80.8427  224.0819 H   0  0  0  0  0  0  0  0  0  0  0  0
  143.6130   79.2453  222.3100 H   0  0  0  0  0  0  0  0  0  0  0  0
  139.0341   69.8511  222.3456 H   0  0  0  0  0  0  0  0  0  0  0  0
  138.8124   68.4261  224.3411 H   0  0  0  0  0  0  0  0  0  0  0  0
  139.1764   68.1048  226.6761 H   0  0  0  0  0  0  0  0  0  0  0  0
  141.1151   71.1721  229.0146 H   0  0  0  0  0  0  0  0  0  0  0  0
  141.3220   72.5782  226.9755 H   0  0  0  0  0  0  0  0  0  0  0  0
  1  2  2  0
  2  3  1  0
  3  4  1  0
  4  5  1  0
  5  6  2  0
  5  7  1  0
  7  8  1  0
  8  9  1  0
  9 10  1  0
 10 11  1  0
 10 12  1  0
 12 13  1  0
 13 14  2  0
 14 15  1  0
 15 16  2  0
 16 17  1  0
 17 18  2  0
  2 19  1  0
 19 20  2  0
 20 21  1  0
 21 22  2  0
 22 23  1  0
 23 24  2  0
 24 25  1  0
 24 26  1  0
 26 27  2  0
 27 28  1  0
 28 29  2  0
 12  7  1  0
 18 13  1  0
 29 19  1  0
 28 22  1  0
  3 30  1  0
  4 31  1  0
  4 32  1  0
  8 33  1  0
  8 34  1  0
  9 35  1  0
  9 36  1  0
 10 37  1  1
 11 38  1  0
 12 39  1  6
 14 40  1  0
 15 41  1  0
 16 42  1  0
 17 43  1  0
 18 44  1  0
 20 45  1  0
 21 46  1  0
 23 47  1  0
 26 48  1  0
 27 49  1  0
M  END
>  <smiles>  (21) 
O=C(NCC(=O)N1CC[C@H](O)[C@H]1c1ccccc1)c1ccc2cc(F)ccc2n1

>  <score_type>  (21) 
oracle

>  <origin>  (21) 
autodockgpu

>  <m_score__min__energy>  (21) 
-8.9399999999999995

>  <m_primary>  (21) 
energy

>  <rmsd>  (21) 
2.2650140023177974

>  <m_score__min__rmsd>  (21) 
2.2650140023177974

>  <meeko>  (21) 
{"free_energy": -8.42, "intermolecular_energy": -10.21, "internal_energy": -1.74, "cluster_size": 16, "cluster_id": 2, "rank_in_cluster": 13}

>  <energy>  (21) 
-8.53

>  <cluster_rmsd>  (21) 
0.56

>  <cluster>  (21) 
2

$$$$

     RDKit          3D

 49 52  0  0  0  0  0  0  0  0999 V2000
  139.4420   70.4760  221.2050 O   0  0  0  0  0  0  0  0  0  0  0  0
  139.5140   71.1410  222.2700 C   0  0  0  0  0  0  0  0  0  0  0  0
  139.5240   72.5590  222.3210 N   0  0  0  0  0  0  0  0  0  0  0  0
  139.4500   73.3280  221.0640 C   0  0  0  0  0  0  0  0  0  0  0  0
  140.2120   74.5660  221.1560 C   0  0  0  0  0  0  0  0  0  0  0  0
  140.2880   75.0820  222.3450 O   0  0  0  0  0  0  0  0  0  0  0  0
  140.8730   75.2900  220.1620 N   0  0  0  0  0  0  0  0  0  0  0  0
  140.1180   76.3920  219.4660 C   0  0  0  0  0  0  0  0  0  0  0  0
  141.1980   77.3780  219.0890 C   0  0  0  0  0  0  0  0  0  0  0  0
  142.4880   76.7870  219.6080 C   0  0  2  0  0  0  0  0  0  0  0  0
  143.5920   77.1140  218.8630 O   0  0  0  0  0  0  0  0  0  0  0  0
  142.1320   75.2950  219.5260 C   0  0  1  0  0  0  0  0  0  0  0  0
  143.2140   74.4620  219.9920 C   0  0  0  0  0  0  0  0  0  0  0  0
  144.4570   74.8580  220.4100 C   0  0  0  0  0  0  0  0  0  0  0  0
  145.4410   73.9960  220.8460 C   0  0  0  0  0  0  0  0  0  0  0  0
  145.1870   72.6420  220.8750 C   0  0  0  0  0  0  0  0  0  0  0  0
  143.9520   72.1950  220.4640 C   0  0  0  0  0  0  0  0  0  0  0  0
  142.9950   73.0680  220.0360 C   0  0  0  0  0  0  0  0  0  0  0  0
  139.5910   70.4200  223.5440 C   0  0  0  0  0  0  0  0  0  0  0  0
  139.1190   69.1200  223.6530 C   0  0  0  0  0  0  0  0  0  0  0  0
  139.1760   68.4210  224.8230 C   0  0  0  0  0  0  0  0  0  0  0  0
  139.7250   69.0450  225.9210 C   0  0  0  0  0  0  0  0  0  0  0  0
  139.7940   68.3540  227.1210 C   0  0  0  0  0  0  0  0  0  0  0  0
  140.3400   68.9650  228.2260 C   0  0  0  0  0  0  0  0  0  0  0  0
  140.4310   68.3340  229.4250 F   0  0  0  0  0  0  0  0  0  0  0  0
  140.8260   70.2740  228.1560 C   0  0  0  0  0  0  0  0  0  0  0  0
  140.7510   70.9480  226.9550 C   0  0  0  0  0  0  0  0  0  0  0  0
  140.2040   70.3410  225.8410 C   0  0  0  0  0  0  0  0  0  0  0  0
  140.1120   70.9630  224.6510 N   0  0  0  0  0  0  0  0  0  0  0  0
  139.5850   73.0680  223.2320 H   0  0  0  0  0  0  0  0  0  0  0  0
  139.8571   72.7165  220.2452 H   0  0  0  0  0  0  0  0  0  0  0  0
  138.3968   73.5816  220.8733 H   0  0  0  0  0  0  0  0  0  0  0  0
  139.6036   76.0115  218.5712 H   0  0  0  0  0  0  0  0  0  0  0  0
  139.3335   76.8369  220.0957 H   0  0  0  0  0  0  0  0  0  0  0  0
  141.2432   77.4987  217.9966 H   0  0  0  0  0  0  0  0  0  0  0  0
  141.0064   78.3738  219.5153 H   0  0  0  0  0  0  0  0  0  0  0  0
  142.7851   77.1488  220.6034 H   0  0  0  0  0  0  0  0  0  0  0  0
  144.0600   77.8560  219.3550 H   0  0  0  0  0  0  0  0  0  0  0  0
  142.0254   74.8277  218.5359 H   0  0  0  0  0  0  0  0  0  0  0  0
  144.6851   75.9340  220.3970 H   0  0  0  0  0  0  0  0  0  0  0  0
  146.4184   74.3852  221.1673 H   0  0  0  0  0  0  0  0  0  0  0  0
  145.9549   71.9336  221.2193 H   0  0  0  0  0  0  0  0  0  0  0  0
  143.7331   71.1171  220.4809 H   0  0  0  0  0  0  0  0  0  0  0  0
  142.0202   72.6726  219.7144 H   0  0  0  0  0  0  0  0  0  0  0  0
  138.6840   68.6365  222.7658 H   0  0  0  0  0  0  0  0  0  0  0  0
  138.7953   67.3910  224.8874 H   0  0  0  0  0  0  0  0  0  0  0  0
  139.4146   67.3238  227.1891 H   0  0  0  0  0  0  0  0  0  0  0  0
  141.2606   70.7579  229.0432 H   0  0  0  0  0  0  0  0  0  0  0  0
  141.1301   71.9781  226.8835 H   0  0  0  0  0  0  0  0  0  0  0  0
  1  2  2  0
  2  3  1  0
  3  4  1  0
  4  5  1  0
  5  6  2  0
  5  7  1  0
  7  8  1  0
  8  9  1  0
  9 10  1  0
 10 11  1  0
 10 12  1  0
 12 13  1  0
 13 14  2  0
 14 15  1  0
 15 16  2  0
 16 17  1  0
 17 18  2  0
  2 19  1  0
 19 20  2  0
 20 21  1  0
 21 22  2  0
 22 23  1  0
 23 24  2  0
 24 25  1  0
 24 26  1  0
 26 27  2  0
 27 28  1  0
 28 29  2  0
 12  7  1  0
 18 13  1  0
 29 19  1  0
 28 22  1  0
  3 30  1  0
  4 31  1  0
  4 32  1  0
  8 33  1  0
  8 34  1  0
  9 35  1  0
  9 36  1  0
 10 37  1  1
 11 38  1  0
 12 39  1  6
 14 40  1  0
 15 41  1  0
 16 42  1  0
 17 43  1  0
 18 44  1  0
 20 45  1  0
 21 46  1  0
 23 47  1  0
 26 48  1  0
 27 49  1  0
M  END
>  <smiles>  (22) 
O=C(NCC(=O)N1CC[C@H](O)[C@H]1c1ccccc1)c1ccc2cc(F)ccc2n1

>  <score_type>  (22) 
oracle

>  <origin>  (22) 
autodockgpu

>  <m_score__min__energy>  (22) 
-8.9399999999999995

>  <m_primary>  (22) 
energy

>  <rmsd>  (22) 
1.785424892289393

>  <m_score__min__rmsd>  (22) 
1.785424892289393

>  <meeko>  (22) 
{"free_energy": -8.33, "intermolecular_energy": -10.12, "internal_energy": -2.01, "cluster_size": 14, "cluster_id": 3, "rank_in_cluster": 7}

>  <energy>  (22) 
-8.5

>  <cluster_rmsd>  (22) 
0.35

>  <cluster>  (22) 
2

$$$$

     RDKit          3D

 49 52  0  0  0  0  0  0  0  0999 V2000
  142.1950   73.2660  220.5790 O   0  0  0  0  0  0  0  0  0  0  0  0
  141.3540   73.9510  221.2150 C   0  0  0  0  0  0  0  0  0  0  0  0
  140.3080   73.3990  221.9980 N   0  0  0  0  0  0  0  0  0  0  0  0
  140.1720   71.9320  222.0880 C   0  0  0  0  0  0  0  0  0  0  0  0
  138.9240   71.5570  222.7400 C   0  0  0  0  0  0  0  0  0  0  0  0
  138.0050   72.4740  222.7480 O   0  0  0  0  0  0  0  0  0  0  0  0
  138.5600   70.3610  223.3640 N   0  0  0  0  0  0  0  0  0  0  0  0
  137.7580   69.3640  222.5700 C   0  0  0  0  0  0  0  0  0  0  0  0
  138.1700   68.0330  223.1530 C   0  0  0  0  0  0  0  0  0  0  0  0
  139.1890   68.3550  224.2220 C   0  0  2  0  0  0  0  0  0  0  0  0
  139.2020   67.4680  225.2670 O   0  0  0  0  0  0  0  0  0  0  0  0
  138.6940   69.7510  224.6280 C   0  0  1  0  0  0  0  0  0  0  0  0
  139.5190   70.3320  225.6600 C   0  0  0  0  0  0  0  0  0  0  0  0
  140.3980   71.3770  225.5400 C   0  0  0  0  0  0  0  0  0  0  0  0
  141.1520   71.8790  226.5800 C   0  0  0  0  0  0  0  0  0  0  0  0
  141.0360   71.3130  227.8320 C   0  0  0  0  0  0  0  0  0  0  0  0
  140.1670   70.2600  228.0000 C   0  0  0  0  0  0  0  0  0  0  0  0
  139.4310   69.7820  226.9560 C   0  0  0  0  0  0  0  0  0  0  0  0
  141.4490   75.4130  221.1540 C   0  0  0  0  0  0  0  0  0  0  0  0
  142.0610   76.0400  220.0770 C   0  0  0  0  0  0  0  0  0  0  0  0
  142.1660   77.3970  219.9900 C   0  0  0  0  0  0  0  0  0  0  0  0
  141.6410   78.1530  221.0140 C   0  0  0  0  0  0  0  0  0  0  0  0
  141.7360   79.5340  220.9470 C   0  0  0  0  0  0  0  0  0  0  0  0
  141.2150   80.3010  221.9630 C   0  0  0  0  0  0  0  0  0  0  0  0
  141.2820   81.6570  221.9470 F   0  0  0  0  0  0  0  0  0  0  0  0
  140.5920   79.7070  223.0640 C   0  0  0  0  0  0  0  0  0  0  0  0
  140.5040   78.3300  223.1170 C   0  0  0  0  0  0  0  0  0  0  0  0
  141.0250   77.5540  222.1000 C   0  0  0  0  0  0  0  0  0  0  0  0
  140.9610   76.2100  222.1120 N   0  0  0  0  0  0  0  0  0  0  0  0
  139.6320   74.0100  222.5100 H   0  0  0  0  0  0  0  0  0  0  0  0
  140.1884   71.5073  221.0734 H   0  0  0  0  0  0  0  0  0  0  0  0
  141.0083   71.5409  222.6860 H   0  0  0  0  0  0  0  0  0  0  0  0
  136.6792   69.5336  222.7017 H   0  0  0  0  0  0  0  0  0  0  0  0
  137.9418   69.4321  221.4876 H   0  0  0  0  0  0  0  0  0  0  0  0
  137.3013   67.5209  223.5925 H   0  0  0  0  0  0  0  0  0  0  0  0
  138.5839   67.3630  222.3850 H   0  0  0  0  0  0  0  0  0  0  0  0
  140.2344   68.3033  223.8836 H   0  0  0  0  0  0  0  0  0  0  0  0
  140.1290   67.0790  225.3010 H   0  0  0  0  0  0  0  0  0  0  0  0
  137.7366   69.8394  225.1624 H   0  0  0  0  0  0  0  0  0  0  0  0
  140.5091   71.8452  224.5508 H   0  0  0  0  0  0  0  0  0  0  0  0
  141.8386   72.7219  226.4125 H   0  0  0  0  0  0  0  0  0  0  0  0
  141.6257   71.6953  228.6782 H   0  0  0  0  0  0  0  0  0  0  0  0
  140.0641   69.7961  228.9921 H   0  0  0  0  0  0  0  0  0  0  0  0
  138.7458   68.9393  227.1304 H   0  0  0  0  0  0  0  0  0  0  0  0
  142.4750   75.4217  219.2669 H   0  0  0  0  0  0  0  0  0  0  0  0
  142.6554   77.8732  219.1276 H   0  0  0  0  0  0  0  0  0  0  0  0
  142.2251   80.0139  220.0865 H   0  0  0  0  0  0  0  0  0  0  0  0
  140.1789   80.3257  223.8743 H   0  0  0  0  0  0  0  0  0  0  0  0
  140.0151   77.8472  223.9760 H   0  0  0  0  0  0  0  0  0  0  0  0
  1  2  2  0
  2  3  1  0
  3  4  1  0
  4  5  1  0
  5  6  2  0
  5  7  1  0
  7  8  1  0
  8  9  1  0
  9 10  1  0
 10 11  1  0
 10 12  1  0
 12 13  1  0
 13 14  2  0
 14 15  1  0
 15 16  2  0
 16 17  1  0
 17 18  2  0
  2 19  1  0
 19 20  2  0
 20 21  1  0
 21 22  2  0
 22 23  1  0
 23 24  2  0
 24 25  1  0
 24 26  1  0
 26 27  2  0
 27 28  1  0
 28 29  2  0
 12  7  1  0
 18 13  1  0
 29 19  1  0
 28 22  1  0
  3 30  1  0
  4 31  1  0
  4 32  1  0
  8 33  1  0
  8 34  1  0
  9 35  1  0
  9 36  1  0
 10 37  1  6
 11 38  1  0
 12 39  1  1
 14 40  1  0
 15 41  1  0
 16 42  1  0
 17 43  1  0
 18 44  1  0
 20 45  1  0
 21 46  1  0
 23 47  1  0
 26 48  1  0
 27 49  1  0
M  END
>  <smiles>  (23) 
O=C(NCC(=O)N1CC[C@H](O)[C@H]1c1ccccc1)c1ccc2cc(F)ccc2n1

>  <score_type>  (23) 
oracle

>  <origin>  (23) 
autodockgpu

>  <m_score__min__energy>  (23) 
-8.9399999999999995

>  <m_primary>  (23) 
energy

>  <rmsd>  (23) 
8.776259501464054

>  <m_score__min__rmsd>  (23) 
8.776259501464054

>  <meeko>  (23) 
{"free_energy": -8.16, "intermolecular_energy": -9.95, "internal_energy": -1.91, "cluster_size": 12, "cluster_id": 1, "rank_in_cluster": 10}

>  <energy>  (23) 
-8.49

>  <cluster_rmsd>  (23) 
0.43

>  <cluster>  (23) 
2

$$$$

     RDKit          3D

 49 52  0  0  0  0  0  0  0  0999 V2000
  138.8980   70.2490  221.3430 O   0  0  0  0  0  0  0  0  0  0  0  0
  139.4560   70.8440  222.3000 C   0  0  0  0  0  0  0  0  0  0  0  0
  139.9690   72.1640  222.2240 N   0  0  0  0  0  0  0  0  0  0  0  0
  139.8590   72.9090  220.9550 C   0  0  0  0  0  0  0  0  0  0  0  0
  140.6970   74.1010  220.9680 C   0  0  0  0  0  0  0  0  0  0  0  0
  140.9830   74.5630  222.1470 O   0  0  0  0  0  0  0  0  0  0  0  0
  141.2400   74.8300  219.9080 N   0  0  0  0  0  0  0  0  0  0  0  0
  140.3500   75.8130  219.1940 C   0  0  0  0  0  0  0  0  0  0  0  0
  141.3090   76.8770  218.7160 C   0  0  0  0  0  0  0  0  0  0  0  0
  142.6730   76.4440  219.2020 C   0  0  2  0  0  0  0  0  0  0  0  0
  143.7060   76.8350  218.3890 O   0  0  0  0  0  0  0  0  0  0  0  0
  142.4640   74.9220  219.2130 C   0  0  1  0  0  0  0  0  0  0  0  0
  143.6420   74.2240  219.6680 C   0  0  0  0  0  0  0  0  0  0  0  0
  144.6340   74.7000  220.4850 C   0  0  0  0  0  0  0  0  0  0  0  0
  145.7330   73.9660  220.8790 C   0  0  0  0  0  0  0  0  0  0  0  0
  145.8690   72.6670  220.4400 C   0  0  0  0  0  0  0  0  0  0  0  0
  144.8980   72.1450  219.6170 C   0  0  0  0  0  0  0  0  0  0  0  0
  143.8200   72.8920  219.2410 C   0  0  0  0  0  0  0  0  0  0  0  0
  139.5880   70.1420  223.5810 C   0  0  0  0  0  0  0  0  0  0  0  0
  139.0960   68.8540  223.7390 C   0  0  0  0  0  0  0  0  0  0  0  0
  139.2030   68.1740  224.9160 C   0  0  0  0  0  0  0  0  0  0  0  0
  139.8240   68.8030  225.9710 C   0  0  0  0  0  0  0  0  0  0  0  0
  139.9460   68.1320  227.1780 C   0  0  0  0  0  0  0  0  0  0  0  0
  140.5650   68.7480  228.2400 C   0  0  0  0  0  0  0  0  0  0  0  0
  140.7090   68.1350  229.4430 F   0  0  0  0  0  0  0  0  0  0  0  0
  141.0740   70.0440  228.1200 C   0  0  0  0  0  0  0  0  0  0  0  0
  140.9470   70.7010  226.9120 C   0  0  0  0  0  0  0  0  0  0  0  0
  140.3250   70.0880  225.8410 C   0  0  0  0  0  0  0  0  0  0  0  0
  140.1810   70.6920  224.6480 N   0  0  0  0  0  0  0  0  0  0  0  0
  140.4250   72.6170  223.0480 H   0  0  0  0  0  0  0  0  0  0  0  0
  140.1759   72.2569  220.1277 H   0  0  0  0  0  0  0  0  0  0  0  0
  138.8123   73.2211  220.8246 H   0  0  0  0  0  0  0  0  0  0  0  0
  139.8384   75.3353  218.3454 H   0  0  0  0  0  0  0  0  0  0  0  0
  139.5527   76.2136  219.8373 H   0  0  0  0  0  0  0  0  0  0  0  0
  141.2952   76.9408  217.6179 H   0  0  0  0  0  0  0  0  0  0  0  0
  141.0373   77.8714  219.0998 H   0  0  0  0  0  0  0  0  0  0  0  0
  142.9750   76.8876  220.1622 H   0  0  0  0  0  0  0  0  0  0  0  0
  144.4450   76.1660  218.5230 H   0  0  0  0  0  0  0  0  0  0  0  0
  142.3626   74.3930  218.2539 H   0  0  0  0  0  0  0  0  0  0  0  0
  144.5481   75.7341  220.8500 H   0  0  0  0  0  0  0  0  0  0  0  0
  146.4930   74.4128  221.5368 H   0  0  0  0  0  0  0  0  0  0  0  0
  146.7356   72.0602  220.7412 H   0  0  0  0  0  0  0  0  0  0  0  0
  144.9921   71.1099  219.2567 H   0  0  0  0  0  0  0  0  0  0  0  0
  143.0640   72.4397  218.5823 H   0  0  0  0  0  0  0  0  0  0  0  0
  138.6030   68.3651  222.8858 H   0  0  0  0  0  0  0  0  0  0  0  0
  138.8051   67.1537  225.0192 H   0  0  0  0  0  0  0  0  0  0  0  0
  139.5495   67.1116  227.2855 H   0  0  0  0  0  0  0  0  0  0  0  0
  141.5674   70.5324  228.9732 H   0  0  0  0  0  0  0  0  0  0  0  0
  141.3443   71.7208  226.8014 H   0  0  0  0  0  0  0  0  0  0  0  0
  1  2  2  0
  2  3  1  0
  3  4  1  0
  4  5  1  0
  5  6  2  0
  5  7  1  0
  7  8  1  0
  8  9  1  0
  9 10  1  0
 10 11  1  0
 10 12  1  0
 12 13  1  0
 13 14  2  0
 14 15  1  0
 15 16  2  0
 16 17  1  0
 17 18  2  0
  2 19  1  0
 19 20  2  0
 20 21  1  0
 21 22  2  0
 22 23  1  0
 23 24  2  0
 24 25  1  0
 24 26  1  0
 26 27  2  0
 27 28  1  0
 28 29  2  0
 12  7  1  0
 18 13  1  0
 29 19  1  0
 28 22  1  0
  3 30  1  0
  4 31  1  0
  4 32  1  0
  8 33  1  0
  8 34  1  0
  9 35  1  0
  9 36  1  0
 10 37  1  1
 11 38  1  0
 12 39  1  6
 14 40  1  0
 15 41  1  0
 16 42  1  0
 17 43  1  0
 18 44  1  0
 20 45  1  0
 21 46  1  0
 23 47  1  0
 26 48  1  0
 27 49  1  0
M  END
>  <smiles>  (24) 
O=C(NCC(=O)N1CC[C@H](O)[C@H]1c1ccccc1)c1ccc2cc(F)ccc2n1

>  <score_type>  (24) 
oracle

>  <origin>  (24) 
autodockgpu

>  <m_score__min__energy>  (24) 
-8.9399999999999995

>  <m_primary>  (24) 
energy

>  <rmsd>  (24) 
1.7995970000982628

>  <m_score__min__rmsd>  (24) 
1.7995970000982628

>  <meeko>  (24) 
{"free_energy": -7.68, "intermolecular_energy": -9.47, "internal_energy": -2.11, "cluster_size": 8, "cluster_id": 4, "rank_in_cluster": 8}

>  <energy>  (24) 
-8.46

>  <cluster_rmsd>  (24) 
0.44

>  <cluster>  (24) 
2

$$$$

     RDKit          3D

 49 52  0  0  0  0  0  0  0  0999 V2000
  141.3030   73.1800  221.2720 O   0  0  0  0  0  0  0  0  0  0  0  0
  140.3710   73.2360  222.1130 C   0  0  0  0  0  0  0  0  0  0  0  0
  139.5690   74.3840  222.3360 N   0  0  0  0  0  0  0  0  0  0  0  0
  139.8240   75.6060  221.5480 C   0  0  0  0  0  0  0  0  0  0  0  0
  139.4690   76.8030  222.3000 C   0  0  0  0  0  0  0  0  0  0  0  0
  138.4190   76.6910  223.0550 O   0  0  0  0  0  0  0  0  0  0  0  0
  140.0810   78.0570  222.3330 N   0  0  0  0  0  0  0  0  0  0  0  0
  139.7180   78.9930  223.4560 C   0  0  0  0  0  0  0  0  0  0  0  0
  140.9700   79.8150  223.6520 C   0  0  0  0  0  0  0  0  0  0  0  0
  141.9660   79.2840  222.6470 C   0  0  2  0  0  0  0  0  0  0  0  0
  142.8550   80.2240  222.1910 O   0  0  0  0  0  0  0  0  0  0  0  0
  140.9940   78.8030  221.5590 C   0  0  1  0  0  0  0  0  0  0  0  0
  141.6900   78.2140  220.4420 C   0  0  0  0  0  0  0  0  0  0  0  0
  142.2590   76.9690  220.3720 C   0  0  0  0  0  0  0  0  0  0  0  0
  142.9080   76.4740  219.2600 C   0  0  0  0  0  0  0  0  0  0  0  0
  143.0090   77.2590  218.1320 C   0  0  0  0  0  0  0  0  0  0  0  0
  142.4540   78.5180  218.1550 C   0  0  0  0  0  0  0  0  0  0  0  0
  141.8160   78.9850  219.2670 C   0  0  0  0  0  0  0  0  0  0  0  0
  140.0820   72.0460  222.9200 C   0  0  0  0  0  0  0  0  0  0  0  0
  139.2910   71.0220  222.4170 C   0  0  0  0  0  0  0  0  0  0  0  0
  139.0030   69.9030  223.1410 C   0  0  0  0  0  0  0  0  0  0  0  0
  139.5240   69.8030  224.4110 C   0  0  0  0  0  0  0  0  0  0  0  0
  139.2460   68.6750  225.1660 C   0  0  0  0  0  0  0  0  0  0  0  0
  139.7610   68.5620  226.4360 C   0  0  0  0  0  0  0  0  0  0  0  0
  139.5190   67.4780  227.2170 F   0  0  0  0  0  0  0  0  0  0  0  0
  140.5610   69.5720  226.9780 C   0  0  0  0  0  0  0  0  0  0  0  0
  140.8310   70.6900  226.2150 C   0  0  0  0  0  0  0  0  0  0  0  0
  140.3170   70.8100  224.9380 C   0  0  0  0  0  0  0  0  0  0  0  0
  140.5550   71.8820  224.1610 N   0  0  0  0  0  0  0  0  0  0  0  0
  138.8030   74.3820  223.0470 H   0  0  0  0  0  0  0  0  0  0  0  0
  140.8921   75.6491  221.2887 H   0  0  0  0  0  0  0  0  0  0  0  0
  139.2049   75.5696  220.6395 H   0  0  0  0  0  0  0  0  0  0  0  0
  138.8683   79.6325  223.1751 H   0  0  0  0  0  0  0  0  0  0  0  0
  139.4064   78.4645  224.3690 H   0  0  0  0  0  0  0  0  0  0  0  0
  140.7643   80.8790  223.4634 H   0  0  0  0  0  0  0  0  0  0  0  0
  141.3502   79.7386  224.6814 H   0  0  0  0  0  0  0  0  0  0  0  0
  142.6477   78.5178  223.0448 H   0  0  0  0  0  0  0  0  0  0  0  0
  143.3250   79.8140  221.4020 H   0  0  0  0  0  0  0  0  0  0  0  0
  140.4327   79.5516  220.9806 H   0  0  0  0  0  0  0  0  0  0  0  0
  142.1939   76.3229  221.2599 H   0  0  0  0  0  0  0  0  0  0  0  0
  143.3406   75.4627  219.2736 H   0  0  0  0  0  0  0  0  0  0  0  0
  143.5221   76.8874  217.2328 H   0  0  0  0  0  0  0  0  0  0  0  0
  142.5258   79.1578  217.2631 H   0  0  0  0  0  0  0  0  0  0  0  0
  141.3852   79.9969  219.2468 H   0  0  0  0  0  0  0  0  0  0  0  0
  138.8827   71.1165  221.4000 H   0  0  0  0  0  0  0  0  0  0  0  0
  138.3731   69.1041  222.7226 H   0  0  0  0  0  0  0  0  0  0  0  0
  138.6164   67.8738  224.7515 H   0  0  0  0  0  0  0  0  0  0  0  0
  140.9685   69.4774  227.9954 H   0  0  0  0  0  0  0  0  0  0  0  0
  141.4607   71.4923  226.6270 H   0  0  0  0  0  0  0  0  0  0  0  0
  1  2  2  0
  2  3  1  0
  3  4  1  0
  4  5  1  0
  5  6  2  0
  5  7  1  0
  7  8  1  0
  8  9  1  0
  9 10  1  0
 10 11  1  0
 10 12  1  0
 12 13  1  0
 13 14  2  0
 14 15  1  0
 15 16  2  0
 16 17  1  0
 17 18  2  0
  2 19  1  0
 19 20  2  0
 20 21  1  0
 21 22  2  0
 22 23  1  0
 23 24  2  0
 24 25  1  0
 24 26  1  0
 26 27  2  0
 27 28  1  0
 28 29  2  0
 12  7  1  0
 18 13  1  0
 29 19  1  0
 28 22  1  0
  3 30  1  0
  4 31  1  0
  4 32  1  0
  8 33  1  0
  8 34  1  0
  9 35  1  0
  9 36  1  0
 10 37  1  1
 11 38  1  0
 12 39  1  6
 14 40  1  0
 15 41  1  0
 16 42  1  0
 17 43  1  0
 18 44  1  0
 20 45  1  0
 21 46  1  0
 23 47  1  0
 26 48  1  0
 27 49  1  0
M  END
>  <smiles>  (25) 
O=C(NCC(=O)N1CC[C@H](O)[C@H]1c1ccccc1)c1ccc2cc(F)ccc2n1

>  <score_type>  (25) 
oracle

>  <origin>  (25) 
autodockgpu

>  <m_score__min__energy>  (25) 
-8.9399999999999995

>  <m_primary>  (25) 
energy

>  <rmsd>  (25) 
3.9622017470287774

>  <m_score__min__rmsd>  (25) 
3.9622017470287774

>  <meeko>  (25) 
{"free_energy": -8.19, "intermolecular_energy": -9.98, "internal_energy": -1.65, "cluster_size": 14, "cluster_id": 3, "rank_in_cluster": 10}

>  <energy>  (25) 
-8.42

>  <cluster_rmsd>  (25) 
0.46

>  <cluster>  (25) 
2

$$$$

     RDKit          3D

 49 52  0  0  0  0  0  0  0  0999 V2000
  141.1920   72.2600  221.9600 O   0  0  0  0  0  0  0  0  0  0  0  0
  140.1470   72.1950  222.6570 C   0  0  0  0  0  0  0  0  0  0  0  0
  138.9900   72.9820  222.4270 N   0  0  0  0  0  0  0  0  0  0  0  0
  138.9820   73.9480  221.3100 C   0  0  0  0  0  0  0  0  0  0  0  0
  139.6680   75.1810  221.6740 C   0  0  0  0  0  0  0  0  0  0  0  0
  139.2250   75.7650  222.7450 O   0  0  0  0  0  0  0  0  0  0  0  0
  140.7280   75.8380  221.0470 N   0  0  0  0  0  0  0  0  0  0  0  0
  141.4710   75.1070  219.9590 C   0  0  0  0  0  0  0  0  0  0  0  0
  141.9470   76.2140  219.0490 C   0  0  0  0  0  0  0  0  0  0  0  0
  141.4330   77.4960  219.6640 C   0  0  2  0  0  0  0  0  0  0  0  0
  142.2340   78.5850  219.4370 O   0  0  0  0  0  0  0  0  0  0  0  0
  141.4040   77.0720  221.1410 C   0  0  1  0  0  0  0  0  0  0  0  0
  140.9200   78.1320  221.9910 C   0  0  0  0  0  0  0  0  0  0  0  0
  139.6780   78.7110  221.9840 C   0  0  0  0  0  0  0  0  0  0  0  0
  139.2890   79.7230  222.8360 C   0  0  0  0  0  0  0  0  0  0  0  0
  140.1850   80.2040  223.7670 C   0  0  0  0  0  0  0  0  0  0  0  0
  141.4450   79.6530  223.8110 C   0  0  0  0  0  0  0  0  0  0  0  0
  141.8070   78.6530  222.9580 C   0  0  0  0  0  0  0  0  0  0  0  0
  140.1090   71.2510  223.7780 C   0  0  0  0  0  0  0  0  0  0  0  0
  139.5760   69.9800  223.6170 C   0  0  0  0  0  0  0  0  0  0  0  0
  139.5250   69.0780  224.6390 C   0  0  0  0  0  0  0  0  0  0  0  0
  140.0250   69.4610  225.8630 C   0  0  0  0  0  0  0  0  0  0  0  0
  139.9850   68.5610  226.9170 C   0  0  0  0  0  0  0  0  0  0  0  0
  140.4820   68.9300  228.1450 C   0  0  0  0  0  0  0  0  0  0  0  0
  140.4660   68.0880  229.2100 F   0  0  0  0  0  0  0  0  0  0  0  0
  141.0270   70.2020  228.3470 C   0  0  0  0  0  0  0  0  0  0  0  0
  141.0610   71.0870  227.2880 C   0  0  0  0  0  0  0  0  0  0  0  0
  140.5630   70.7230  226.0520 C   0  0  0  0  0  0  0  0  0  0  0  0
  140.5770   71.5550  224.9940 N   0  0  0  0  0  0  0  0  0  0  0  0
  138.1430   72.8920  223.0340 H   0  0  0  0  0  0  0  0  0  0  0  0
  139.4883   73.4983  220.4432 H   0  0  0  0  0  0  0  0  0  0  0  0
  137.9369   74.1900  221.0665 H   0  0  0  0  0  0  0  0  0  0  0  0
  142.3216   74.5458  220.3730 H   0  0  0  0  0  0  0  0  0  0  0  0
  140.8470   74.3650  219.4394 H   0  0  0  0  0  0  0  0  0  0  0  0
  143.0459   76.2252  219.0004 H   0  0  0  0  0  0  0  0  0  0  0  0
  141.5807   76.0808  218.0204 H   0  0  0  0  0  0  0  0  0  0  0  0
  140.4743   77.8447  219.2525 H   0  0  0  0  0  0  0  0  0  0  0  0
  143.1700   78.3090  219.6820 H   0  0  0  0  0  0  0  0  0  0  0  0
  142.3570   76.9095  221.6658 H   0  0  0  0  0  0  0  0  0  0  0  0
  138.9438   78.3448  221.2513 H   0  0  0  0  0  0  0  0  0  0  0  0
  138.2740   80.1424  222.7735 H   0  0  0  0  0  0  0  0  0  0  0  0
  139.8990   81.0099  224.4589 H   0  0  0  0  0  0  0  0  0  0  0  0
  142.1726   80.0257  224.5470 H   0  0  0  0  0  0  0  0  0  0  0  0
  142.8237   78.2384  223.0254 H   0  0  0  0  0  0  0  0  0  0  0  0
  139.1813   69.6900  222.6320 H   0  0  0  0  0  0  0  0  0  0  0  0
  139.0975   68.0755  224.4897 H   0  0  0  0  0  0  0  0  0  0  0  0
  139.5582   67.5576  226.7718 H   0  0  0  0  0  0  0  0  0  0  0  0
  141.4215   70.4921  229.3320 H   0  0  0  0  0  0  0  0  0  0  0  0
  141.4883   72.0906  227.4296 H   0  0  0  0  0  0  0  0  0  0  0  0
  1  2  2  0
  2  3  1  0
  3  4  1  0
  4  5  1  0
  5  6  2  0
  5  7  1  0
  7  8  1  0
  8  9  1  0
  9 10  1  0
 10 11  1  0
 10 12  1  0
 12 13  1  0
 13 14  2  0
 14 15  1  0
 15 16  2  0
 16 17  1  0
 17 18  2  0
  2 19  1  0
 19 20  2  0
 20 21  1  0
 21 22  2  0
 22 23  1  0
 23 24  2  0
 24 25  1  0
 24 26  1  0
 26 27  2  0
 27 28  1  0
 28 29  2  0
 12  7  1  0
 18 13  1  0
 29 19  1  0
 28 22  1  0
  3 30  1  0
  4 31  1  0
  4 32  1  0
  8 33  1  0
  8 34  1  0
  9 35  1  0
  9 36  1  0
 10 37  1  6
 11 38  1  0
 12 39  1  1
 14 40  1  0
 15 41  1  0
 16 42  1  0
 17 43  1  0
 18 44  1  0
 20 45  1  0
 21 46  1  0
 23 47  1  0
 26 48  1  0
 27 49  1  0
M  END
>  <smiles>  (26) 
O=C(NCC(=O)N1CC[C@H](O)[C@H]1c1ccccc1)c1ccc2cc(F)ccc2n1

>  <score_type>  (26) 
oracle

>  <origin>  (26) 
autodockgpu

>  <m_score__min__energy>  (26) 
-8.9399999999999995

>  <m_primary>  (26) 
energy

>  <rmsd>  (26) 
1.999063879625822

>  <m_score__min__rmsd>  (26) 
1.999063879625822

>  <meeko>  (26) 
{"free_energy": -8.65, "intermolecular_energy": -10.44, "internal_energy": -1.39, "cluster_size": 16, "cluster_id": 2, "rank_in_cluster": 4}

>  <energy>  (26) 
-8.36

>  <cluster_rmsd>  (26) 
0.63

>  <cluster>  (26) 
2

$$$$

     RDKit          3D

 49 52  0  0  0  0  0  0  0  0999 V2000
  137.3650   75.1350  220.8650 O   0  0  0  0  0  0  0  0  0  0  0  0
  138.2620   75.2160  221.7420 C   0  0  0  0  0  0  0  0  0  0  0  0
  138.8820   74.0940  222.3500 N   0  0  0  0  0  0  0  0  0  0  0  0
  138.4670   72.7350  221.9510 C   0  0  0  0  0  0  0  0  0  0  0  0
  139.1900   71.7190  222.7040 C   0  0  0  0  0  0  0  0  0  0  0  0
  140.4640   71.9300  222.8370 O   0  0  0  0  0  0  0  0  0  0  0  0
  138.7270   70.5480  223.3070 N   0  0  0  0  0  0  0  0  0  0  0  0
  137.8950   69.6050  222.4780 C   0  0  0  0  0  0  0  0  0  0  0  0
  138.2000   68.2490  223.0690 C   0  0  0  0  0  0  0  0  0  0  0  0
  139.1940   68.5030  224.1780 C   0  0  2  0  0  0  0  0  0  0  0  0
  139.1100   67.6150  225.2190 O   0  0  0  0  0  0  0  0  0  0  0  0
  138.7720   69.9270  224.5730 C   0  0  1  0  0  0  0  0  0  0  0  0
  139.5910   70.4510  225.6380 C   0  0  0  0  0  0  0  0  0  0  0  0
  140.5200   71.4560  225.5640 C   0  0  0  0  0  0  0  0  0  0  0  0
  141.2640   71.9050  226.6350 C   0  0  0  0  0  0  0  0  0  0  0  0
  141.0840   71.3250  227.8730 C   0  0  0  0  0  0  0  0  0  0  0  0
  140.1630   70.3110  227.9960 C   0  0  0  0  0  0  0  0  0  0  0  0
  139.4380   69.8840  226.9210 C   0  0  0  0  0  0  0  0  0  0  0  0
  138.7070   76.5460  222.1710 C   0  0  0  0  0  0  0  0  0  0  0  0
  137.7960   77.5810  222.3290 C   0  0  0  0  0  0  0  0  0  0  0  0
  138.1760   78.8290  222.7270 C   0  0  0  0  0  0  0  0  0  0  0  0
  139.5130   79.0490  222.9750 C   0  0  0  0  0  0  0  0  0  0  0  0
  139.9230   80.3090  223.3810 C   0  0  0  0  0  0  0  0  0  0  0  0
  141.2550   80.5420  223.6330 C   0  0  0  0  0  0  0  0  0  0  0  0
  141.7090   81.7580  224.0330 F   0  0  0  0  0  0  0  0  0  0  0  0
  142.2020   79.5250  223.4860 C   0  0  0  0  0  0  0  0  0  0  0  0
  141.7790   78.2750  223.0820 C   0  0  0  0  0  0  0  0  0  0  0  0
  140.4420   78.0340  222.8260 C   0  0  0  0  0  0  0  0  0  0  0  0
  139.9880   76.8300  222.4310 N   0  0  0  0  0  0  0  0  0  0  0  0
  139.6250   74.2120  223.0760 H   0  0  0  0  0  0  0  0  0  0  0  0
  137.3890   72.6201  222.1376 H   0  0  0  0  0  0  0  0  0  0  0  0
  138.6930   72.6023  220.8827 H   0  0  0  0  0  0  0  0  0  0  0  0
  136.8247   69.8416  222.5695 H   0  0  0  0  0  0  0  0  0  0  0  0
  138.1243   69.6644  221.4038 H   0  0  0  0  0  0  0  0  0  0  0  0
  137.2845   67.7909  223.4715 H   0  0  0  0  0  0  0  0  0  0  0  0
  138.6009   67.5569  222.3139 H   0  0  0  0  0  0  0  0  0  0  0  0
  140.2461   68.3858  223.8791 H   0  0  0  0  0  0  0  0  0  0  0  0
  140.0540   67.3650  225.4600 H   0  0  0  0  0  0  0  0  0  0  0  0
  137.8021   70.0742  225.0706 H   0  0  0  0  0  0  0  0  0  0  0  0
  140.6827   71.9354  224.5874 H   0  0  0  0  0  0  0  0  0  0  0  0
  141.9936   72.7176  226.5029 H   0  0  0  0  0  0  0  0  0  0  0  0
  141.6643   71.6658  228.7431 H   0  0  0  0  0  0  0  0  0  0  0  0
  140.0081   69.8365  228.9762 H   0  0  0  0  0  0  0  0  0  0  0  0
  138.7103   69.0708  227.0596 H   0  0  0  0  0  0  0  0  0  0  0  0
  136.7321   77.3884  222.1265 H   0  0  0  0  0  0  0  0  0  0  0  0
  137.4373   79.6353  222.8463 H   0  0  0  0  0  0  0  0  0  0  0  0
  139.1875   81.1181  223.5010 H   0  0  0  0  0  0  0  0  0  0  0  0
  143.2659   79.7174  223.6887 H   0  0  0  0  0  0  0  0  0  0  0  0
  142.5120   77.4635  222.9627 H   0  0  0  0  0  0  0  0  0  0  0  0
  1  2  2  0
  2  3  1  0
  3  4  1  0
  4  5  1  0
  5  6  2  0
  5  7  1  0
  7  8  1  0
  8  9  1  0
  9 10  1  0
 10 11  1  0
 10 12  1  0
 12 13  1  0
 13 14  2  0
 14 15  1  0
 15 16  2  0
 16 17  1  0
 17 18  2  0
  2 19  1  0
 19 20  2  0
 20 21  1  0
 21 22  2  0
 22 23  1  0
 23 24  2  0
 24 25  1  0
 24 26  1  0
 26 27  2  0
 27 28  1  0
 28 29  2  0
 12  7  1  0
 18 13  1  0
 29 19  1  0
 28 22  1  0
  3 30  1  0
  4 31  1  0
  4 32  1  0
  8 33  1  0
  8 34  1  0
  9 35  1  0
  9 36  1  0
 10 37  1  6
 11 38  1  0
 12 39  1  1
 14 40  1  0
 15 41  1  0
 16 42  1  0
 17 43  1  0
 18 44  1  0
 20 45  1  0
 21 46  1  0
 23 47  1  0
 26 48  1  0
 27 49  1  0
M  END
>  <smiles>  (27) 
O=C(NCC(=O)N1CC[C@H](O)[C@H]1c1ccccc1)c1ccc2cc(F)ccc2n1

>  <score_type>  (27) 
oracle

>  <origin>  (27) 
autodockgpu

>  <m_score__min__energy>  (27) 
-8.9399999999999995

>  <m_primary>  (27) 
energy

>  <rmsd>  (27) 
8.631814732554266

>  <m_score__min__rmsd>  (27) 
8.631814732554266

>  <meeko>  (27) 
{"free_energy": -8.5, "intermolecular_energy": -10.29, "internal_energy": -1.5, "cluster_size": 12, "cluster_id": 1, "rank_in_cluster": 4}

>  <energy>  (27) 
-8.31

>  <cluster_rmsd>  (27) 
1.2

>  <cluster>  (27) 
2

$$$$

     RDKit          3D

 49 52  0  0  0  0  0  0  0  0999 V2000
  140.9720   71.8600  221.2780 O   0  0  0  0  0  0  0  0  0  0  0  0
  140.3390   72.3420  222.2520 C   0  0  0  0  0  0  0  0  0  0  0  0
  139.7840   73.6470  222.2710 N   0  0  0  0  0  0  0  0  0  0  0  0
  139.9460   74.5180  221.0890 C   0  0  0  0  0  0  0  0  0  0  0  0
  140.5750   75.7820  221.4480 C   0  0  0  0  0  0  0  0  0  0  0  0
  140.2950   76.2230  222.6360 O   0  0  0  0  0  0  0  0  0  0  0  0
  141.4330   76.6000  220.7090 N   0  0  0  0  0  0  0  0  0  0  0  0
  141.9870   76.0620  219.4160 C   0  0  0  0  0  0  0  0  0  0  0  0
  142.1840   77.2990  218.5720 C   0  0  0  0  0  0  0  0  0  0  0  0
  141.7140   78.4540  219.4270 C   0  0  2  0  0  0  0  0  0  0  0  0
  142.3680   79.6330  219.1820 O   0  0  0  0  0  0  0  0  0  0  0  0
  142.0200   77.8780  220.8180 C   0  0  1  0  0  0  0  0  0  0  0  0
  141.6450   78.7920  221.8690 C   0  0  0  0  0  0  0  0  0  0  0  0
  142.4600   79.3690  222.8070 C   0  0  0  0  0  0  0  0  0  0  0  0
  142.0240   80.2400  223.7840 C   0  0  0  0  0  0  0  0  0  0  0  0
  140.6870   80.5700  223.8450 C   0  0  0  0  0  0  0  0  0  0  0  0
  139.8290   80.0140  222.9240 C   0  0  0  0  0  0  0  0  0  0  0  0
  140.2850   79.1550  221.9670 C   0  0  0  0  0  0  0  0  0  0  0  0
  140.1540   71.5140  223.4470 C   0  0  0  0  0  0  0  0  0  0  0  0
  139.4300   70.3320  223.3870 C   0  0  0  0  0  0  0  0  0  0  0  0
  139.2400   69.5390  224.4800 C   0  0  0  0  0  0  0  0  0  0  0  0
  139.7930   69.9420  225.6750 C   0  0  0  0  0  0  0  0  0  0  0  0
  139.6140   69.1520  226.7990 C   0  0  0  0  0  0  0  0  0  0  0  0
  140.1610   69.5440  227.9990 C   0  0  0  0  0  0  0  0  0  0  0  0
  140.0150   68.8070  229.1310 F   0  0  0  0  0  0  0  0  0  0  0  0
  140.8970   70.7280  228.1000 C   0  0  0  0  0  0  0  0  0  0  0  0
  141.0680   71.5040  226.9720 C   0  0  0  0  0  0  0  0  0  0  0  0
  140.5210   71.1170  225.7630 C   0  0  0  0  0  0  0  0  0  0  0  0
  140.6640   71.8440  224.6400 N   0  0  0  0  0  0  0  0  0  0  0  0
  139.2650   74.0040  223.1040 H   0  0  0  0  0  0  0  0  0  0  0  0
  140.5738   74.0028  220.3471 H   0  0  0  0  0  0  0  0  0  0  0  0
  138.9498   74.7304  220.6738 H   0  0  0  0  0  0  0  0  0  0  0  0
  142.9431   75.5445  219.5835 H   0  0  0  0  0  0  0  0  0  0  0  0
  141.3249   75.3223  218.9422 H   0  0  0  0  0  0  0  0  0  0  0  0
  143.2458   77.4211  218.3118 H   0  0  0  0  0  0  0  0  0  0  0  0
  141.6257   77.2394  217.6261 H   0  0  0  0  0  0  0  0  0  0  0  0
  140.6681   78.7490  219.2563 H   0  0  0  0  0  0  0  0  0  0  0  0
  143.3160   79.3910  218.9470 H   0  0  0  0  0  0  0  0  0  0  0  0
  143.0698   77.7550  221.1227 H   0  0  0  0  0  0  0  0  0  0  0  0
  143.5315   79.1218  222.7793 H   0  0  0  0  0  0  0  0  0  0  0  0
  142.7355   80.6665  224.5064 H   0  0  0  0  0  0  0  0  0  0  0  0
  140.3139   81.2630  224.6135 H   0  0  0  0  0  0  0  0  0  0  0  0
  138.7588   80.2660  222.9598 H   0  0  0  0  0  0  0  0  0  0  0  0
  139.5685   78.7313  221.2479 H   0  0  0  0  0  0  0  0  0  0  0  0
  138.9944   70.0241  222.4250 H   0  0  0  0  0  0  0  0  0  0  0  0
  138.6624   68.6055  224.4092 H   0  0  0  0  0  0  0  0  0  0  0  0
  139.0381   68.2172  226.7324 H   0  0  0  0  0  0  0  0  0  0  0  0
  141.3324   71.0358  229.0621 H   0  0  0  0  0  0  0  0  0  0  0  0
  141.6446   72.4386  227.0354 H   0  0  0  0  0  0  0  0  0  0  0  0
  1  2  2  0
  2  3  1  0
  3  4  1  0
  4  5  1  0
  5  6  2  0
  5  7  1  0
  7  8  1  0
  8  9  1  0
  9 10  1  0
 10 11  1  0
 10 12  1  0
 12 13  1  0
 13 14  2  0
 14 15  1  0
 15 16  2  0
 16 17  1  0
 17 18  2  0
  2 19  1  0
 19 20  2  0
 20 21  1  0
 21 22  2  0
 22 23  1  0
 23 24  2  0
 24 25  1  0
 24 26  1  0
 26 27  2  0
 27 28  1  0
 28 29  2  0
 12  7  1  0
 18 13  1  0
 29 19  1  0
 28 22  1  0
  3 30  1  0
  4 31  1  0
  4 32  1  0
  8 33  1  0
  8 34  1  0
  9 35  1  0
  9 36  1  0
 10 37  1  1
 11 38  1  0
 12 39  1  6
 14 40  1  0
 15 41  1  0
 16 42  1  0
 17 43  1  0
 18 44  1  0
 20 45  1  0
 21 46  1  0
 23 47  1  0
 26 48  1  0
 27 49  1  0
M  END
>  <smiles>  (28) 
O=C(NCC(=O)N1CC[C@H](O)[C@H]1c1ccccc1)c1ccc2cc(F)ccc2n1

>  <score_type>  (28) 
oracle

>  <origin>  (28) 
autodockgpu

>  <m_score__min__energy>  (28) 
-8.9399999999999995

>  <m_primary>  (28) 
energy

>  <rmsd>  (28) 
2.279695711518656

>  <m_score__min__rmsd>  (28) 
2.279695711518656

>  <meeko>  (28) 
{"free_energy": -8.69, "intermolecular_energy": -10.48, "internal_energy": -1.55, "cluster_size": 16, "cluster_id": 2, "rank_in_cluster": 2}

>  <energy>  (28) 
-8.27

>  <cluster_rmsd>  (28) 
0.57

>  <cluster>  (28) 
2

$$$$

     RDKit          3D

 49 52  0  0  0  0  0  0  0  0999 V2000
  138.4620   70.4690  221.5670 O   0  0  0  0  0  0  0  0  0  0  0  0
  139.1610   70.9890  222.4730 C   0  0  0  0  0  0  0  0  0  0  0  0
  139.7560   72.2730  222.3800 N   0  0  0  0  0  0  0  0  0  0  0  0
  139.5600   73.0720  221.1540 C   0  0  0  0  0  0  0  0  0  0  0  0
  140.3950   74.2660  221.1620 C   0  0  0  0  0  0  0  0  0  0  0  0
  140.6220   74.7740  222.3350 O   0  0  0  0  0  0  0  0  0  0  0  0
  140.9900   74.9540  220.1030 N   0  0  0  0  0  0  0  0  0  0  0  0
  140.1840   76.0210  219.4090 C   0  0  0  0  0  0  0  0  0  0  0  0
  141.2290   77.0000  218.9300 C   0  0  0  0  0  0  0  0  0  0  0  0
  142.5540   76.4390  219.3940 C   0  0  2  0  0  0  0  0  0  0  0  0
  143.6090   76.7440  218.5720 O   0  0  0  0  0  0  0  0  0  0  0  0
  142.2090   74.9430  219.3930 C   0  0  1  0  0  0  0  0  0  0  0  0
  143.3230   74.1360  219.8270 C   0  0  0  0  0  0  0  0  0  0  0  0
  143.4600   72.7760  219.7310 C   0  0  0  0  0  0  0  0  0  0  0  0
  144.5650   72.0750  220.1680 C   0  0  0  0  0  0  0  0  0  0  0  0
  145.6140   72.7590  220.7430 C   0  0  0  0  0  0  0  0  0  0  0  0
  145.5220   74.1260  220.8610 C   0  0  0  0  0  0  0  0  0  0  0  0
  144.4190   74.7980  220.4210 C   0  0  0  0  0  0  0  0  0  0  0  0
  139.3840   70.2320  223.7090 C   0  0  0  0  0  0  0  0  0  0  0  0
  139.0000   68.9020  223.8060 C   0  0  0  0  0  0  0  0  0  0  0  0
  139.1930   68.1700  224.9400 C   0  0  0  0  0  0  0  0  0  0  0  0
  139.7910   68.7890  226.0150 C   0  0  0  0  0  0  0  0  0  0  0  0
  139.9980   68.0650  227.1780 C   0  0  0  0  0  0  0  0  0  0  0  0
  140.5950   68.6720  228.2590 C   0  0  0  0  0  0  0  0  0  0  0  0
  140.8200   68.0080  229.4220 F   0  0  0  0  0  0  0  0  0  0  0  0
  140.9960   70.0090  228.2000 C   0  0  0  0  0  0  0  0  0  0  0  0
  140.7840   70.7180  227.0350 C   0  0  0  0  0  0  0  0  0  0  0  0
  140.1850   70.1150  225.9450 C   0  0  0  0  0  0  0  0  0  0  0  0
  139.9600   70.7690  224.7910 N   0  0  0  0  0  0  0  0  0  0  0  0
  140.3290   72.6640  223.1610 H   0  0  0  0  0  0  0  0  0  0  0  0
  139.8216   72.4575  220.2800 H   0  0  0  0  0  0  0  0  0  0  0  0
  138.5065   73.3850  221.1079 H   0  0  0  0  0  0  0  0  0  0  0  0
  139.6223   75.6003  218.5619 H   0  0  0  0  0  0  0  0  0  0  0  0
  139.4331   76.4845  220.0658 H   0  0  0  0  0  0  0  0  0  0  0  0
  141.2080   77.0780  217.8330 H   0  0  0  0  0  0  0  0  0  0  0  0
  141.0530   78.0104  219.3275 H   0  0  0  0  0  0  0  0  0  0  0  0
  142.9058   76.8427  220.3548 H   0  0  0  0  0  0  0  0  0  0  0  0
  144.0960   77.5110  219.0040 H   0  0  0  0  0  0  0  0  0  0  0  0
  142.0498   74.4369  218.4294 H   0  0  0  0  0  0  0  0  0  0  0  0
  142.6360   72.2066  219.2763 H   0  0  0  0  0  0  0  0  0  0  0  0
  144.6082   70.9813  220.0586 H   0  0  0  0  0  0  0  0  0  0  0  0
  146.5058   72.2230  221.0999 H   0  0  0  0  0  0  0  0  0  0  0  0
  146.3510   74.6868  221.3174 H   0  0  0  0  0  0  0  0  0  0  0  0
  144.3827   75.8917  220.5329 H   0  0  0  0  0  0  0  0  0  0  0  0
  138.5237   68.4219  222.9384 H   0  0  0  0  0  0  0  0  0  0  0  0
  138.8804   67.1167  224.9945 H   0  0  0  0  0  0  0  0  0  0  0  0
  139.6870   67.0115  227.2368 H   0  0  0  0  0  0  0  0  0  0  0  0
  141.4727   70.4886  229.0676 H   0  0  0  0  0  0  0  0  0  0  0  0
  141.0943   71.7715  226.9734 H   0  0  0  0  0  0  0  0  0  0  0  0
  1  2  2  0
  2  3  1  0
  3  4  1  0
  4  5  1  0
  5  6  2  0
  5  7  1  0
  7  8  1  0
  8  9  1  0
  9 10  1  0
 10 11  1  0
 10 12  1  0
 12 13  1  0
 13 14  2  0
 14 15  1  0
 15 16  2  0
 16 17  1  0
 17 18  2  0
  2 19  1  0
 19 20  2  0
 20 21  1  0
 21 22  2  0
 22 23  1  0
 23 24  2  0
 24 25  1  0
 24 26  1  0
 26 27  2  0
 27 28  1  0
 28 29  2  0
 12  7  1  0
 18 13  1  0
 29 19  1  0
 28 22  1  0
  3 30  1  0
  4 31  1  0
  4 32  1  0
  8 33  1  0
  8 34  1  0
  9 35  1  0
  9 36  1  0
 10 37  1  1
 11 38  1  0
 12 39  1  6
 14 40  1  0
 15 41  1  0
 16 42  1  0
 17 43  1  0
 18 44  1  0
 20 45  1  0
 21 46  1  0
 23 47  1  0
 26 48  1  0
 27 49  1  0
M  END
>  <smiles>  (29) 
O=C(NCC(=O)N1CC[C@H](O)[C@H]1c1ccccc1)c1ccc2cc(F)ccc2n1

>  <score_type>  (29) 
oracle

>  <origin>  (29) 
autodockgpu

>  <m_score__min__energy>  (29) 
-8.9399999999999995

>  <m_primary>  (29) 
energy

>  <rmsd>  (29) 
1.7840672245606952

>  <m_score__min__rmsd>  (29) 
1.7840672245606952

>  <meeko>  (29) 
{"free_energy": -8.02, "intermolecular_energy": -9.81, "internal_energy": -1.97, "cluster_size": 8, "cluster_id": 4, "rank_in_cluster": 7}

>  <energy>  (29) 
-8.52

>  <cluster_rmsd>  (29) 
0.0

>  <cluster>  (29) 
3

$$$$

     RDKit          3D

 49 52  0  0  0  0  0  0  0  0999 V2000
  141.3310   72.5440  221.7130 O   0  0  0  0  0  0  0  0  0  0  0  0
  140.3330   72.6120  222.4730 C   0  0  0  0  0  0  0  0  0  0  0  0
  139.3040   73.5810  222.3480 N   0  0  0  0  0  0  0  0  0  0  0  0
  139.3840   74.5850  221.2690 C   0  0  0  0  0  0  0  0  0  0  0  0
  138.9330   75.8910  221.7300 C   0  0  0  0  0  0  0  0  0  0  0  0
  137.6980   75.9420  222.1280 O   0  0  0  0  0  0  0  0  0  0  0  0
  139.6210   77.1040  221.8080 N   0  0  0  0  0  0  0  0  0  0  0  0
  139.0710   78.1750  222.7120 C   0  0  0  0  0  0  0  0  0  0  0  0
  140.2990   78.9360  223.1500 C   0  0  0  0  0  0  0  0  0  0  0  0
  141.4660   78.2430  222.4850 C   0  0  2  0  0  0  0  0  0  0  0  0
  142.5160   79.0740  222.1910 O   0  0  0  0  0  0  0  0  0  0  0  0
  140.7580   77.7070  221.2310 C   0  0  1  0  0  0  0  0  0  0  0  0
  141.6590   76.9600  220.3870 C   0  0  0  0  0  0  0  0  0  0  0  0
  142.1750   77.3360  219.1740 C   0  0  0  0  0  0  0  0  0  0  0  0
  143.0380   76.5630  218.4250 C   0  0  0  0  0  0  0  0  0  0  0  0
  143.4240   75.3290  218.9010 C   0  0  0  0  0  0  0  0  0  0  0  0
  142.9310   74.9080  220.1150 C   0  0  0  0  0  0  0  0  0  0  0  0
  142.0790   75.6910  220.8380 C   0  0  0  0  0  0  0  0  0  0  0  0
  140.2100   71.6360  223.5600 C   0  0  0  0  0  0  0  0  0  0  0  0
  139.6040   70.4060  223.3450 C   0  0  0  0  0  0  0  0  0  0  0  0
  139.4740   69.4760  224.3330 C   0  0  0  0  0  0  0  0  0  0  0  0
  139.9680   69.7860  225.5810 C   0  0  0  0  0  0  0  0  0  0  0  0
  139.8490   68.8560  226.6010 C   0  0  0  0  0  0  0  0  0  0  0  0
  140.3390   69.1530  227.8520 C   0  0  0  0  0  0  0  0  0  0  0  0
  140.2470   68.2780  228.8860 F   0  0  0  0  0  0  0  0  0  0  0  0
  140.9570   70.3800  228.1080 C   0  0  0  0  0  0  0  0  0  0  0  0
  141.0690   71.2960  227.0820 C   0  0  0  0  0  0  0  0  0  0  0  0
  140.5790   71.0050  225.8230 C   0  0  0  0  0  0  0  0  0  0  0  0
  140.6680   71.8690  224.7960 N   0  0  0  0  0  0  0  0  0  0  0  0
  138.4910   73.5970  223.0050 H   0  0  0  0  0  0  0  0  0  0  0  0
  140.4274   74.6649  220.9299 H   0  0  0  0  0  0  0  0  0  0  0  0
  138.7316   74.2625  220.4442 H   0  0  0  0  0  0  0  0  0  0  0  0
  138.3765   78.8308  222.1664 H   0  0  0  0  0  0  0  0  0  0  0  0
  138.4971   77.7673  223.5572 H   0  0  0  0  0  0  0  0  0  0  0  0
  140.2379   79.9844  222.8227 H   0  0  0  0  0  0  0  0  0  0  0  0
  140.4022   78.9461  224.2451 H   0  0  0  0  0  0  0  0  0  0  0  0
  141.9605   77.4851  223.1103 H   0  0  0  0  0  0  0  0  0  0  0  0
  143.2690   78.4840  221.8800 H   0  0  0  0  0  0  0  0  0  0  0  0
  140.4238   78.4213  220.4641 H   0  0  0  0  0  0  0  0  0  0  0  0
  141.8822   78.3171  218.7720 H   0  0  0  0  0  0  0  0  0  0  0  0
  143.4140   76.9281  217.4579 H   0  0  0  0  0  0  0  0  0  0  0  0
  144.1115   74.6939  218.3231 H   0  0  0  0  0  0  0  0  0  0  0  0
  143.2285   73.9249  220.5086 H   0  0  0  0  0  0  0  0  0  0  0  0
  141.7072   75.3204  221.8047 H   0  0  0  0  0  0  0  0  0  0  0  0
  139.2152   70.1736  222.3426 H   0  0  0  0  0  0  0  0  0  0  0  0
  138.9894   68.5076  224.1397 H   0  0  0  0  0  0  0  0  0  0  0  0
  139.3657   67.8861  226.4119 H   0  0  0  0  0  0  0  0  0  0  0  0
  141.3474   70.6116  229.1100 H   0  0  0  0  0  0  0  0  0  0  0  0
  141.5526   72.2664  227.2679 H   0  0  0  0  0  0  0  0  0  0  0  0
  1  2  2  0
  2  3  1  0
  3  4  1  0
  4  5  1  0
  5  6  2  0
  5  7  1  0
  7  8  1  0
  8  9  1  0
  9 10  1  0
 10 11  1  0
 10 12  1  0
 12 13  1  0
 13 14  2  0
 14 15  1  0
 15 16  2  0
 16 17  1  0
 17 18  2  0
  2 19  1  0
 19 20  2  0
 20 21  1  0
 21 22  2  0
 22 23  1  0
 23 24  2  0
 24 25  1  0
 24 26  1  0
 26 27  2  0
 27 28  1  0
 28 29  2  0
 12  7  1  0
 18 13  1  0
 29 19  1  0
 28 22  1  0
  3 30  1  0
  4 31  1  0
  4 32  1  0
  8 33  1  0
  8 34  1  0
  9 35  1  0
  9 36  1  0
 10 37  1  1
 11 38  1  0
 12 39  1  6
 14 40  1  0
 15 41  1  0
 16 42  1  0
 17 43  1  0
 18 44  1  0
 20 45  1  0
 21 46  1  0
 23 47  1  0
 26 48  1  0
 27 49  1  0
M  END
>  <smiles>  (30) 
O=C(NCC(=O)N1CC[C@H](O)[C@H]1c1ccccc1)c1ccc2cc(F)ccc2n1

>  <score_type>  (30) 
oracle

>  <origin>  (30) 
autodockgpu

>  <m_score__min__energy>  (30) 
-8.9399999999999995

>  <m_primary>  (30) 
energy

>  <rmsd>  (30) 
3.322388628419354

>  <m_score__min__rmsd>  (30) 
3.322388628419354

>  <meeko>  (30) 
{"free_energy": -8.43, "intermolecular_energy": -10.22, "internal_energy": -1.43, "cluster_size": 14, "cluster_id": 3, "rank_in_cluster": 4}

>  <energy>  (30) 
-8.52

>  <cluster_rmsd>  (30) 
0.13

>  <cluster>  (30) 
3

$$$$

     RDKit          3D

 49 52  0  0  0  0  0  0  0  0999 V2000
  141.3830   72.6850  221.8670 O   0  0  0  0  0  0  0  0  0  0  0  0
  140.3250   72.6520  222.5440 C   0  0  0  0  0  0  0  0  0  0  0  0
  139.2280   73.5290  222.3470 N   0  0  0  0  0  0  0  0  0  0  0  0
  139.3060   74.5560  221.2890 C   0  0  0  0  0  0  0  0  0  0  0  0
  138.9220   75.8670  221.7970 C   0  0  0  0  0  0  0  0  0  0  0  0
  137.7370   75.9310  222.3240 O   0  0  0  0  0  0  0  0  0  0  0  0
  139.6290   77.0710  221.8030 N   0  0  0  0  0  0  0  0  0  0  0  0
  139.0490   78.2300  222.5690 C   0  0  0  0  0  0  0  0  0  0  0  0
  140.2650   79.0110  223.0070 C   0  0  0  0  0  0  0  0  0  0  0  0
  141.4540   78.2400  222.4810 C   0  0  2  0  0  0  0  0  0  0  0  0
  142.5370   79.0240  222.1740 O   0  0  0  0  0  0  0  0  0  0  0  0
  140.8100   77.5990  221.2420 C   0  0  1  0  0  0  0  0  0  0  0  0
  141.7430   76.7630  220.5260 C   0  0  0  0  0  0  0  0  0  0  0  0
  142.1410   75.4910  220.8440 C   0  0  0  0  0  0  0  0  0  0  0  0
  143.0400   74.7520  220.1030 C   0  0  0  0  0  0  0  0  0  0  0  0
  143.5910   75.3020  218.9660 C   0  0  0  0  0  0  0  0  0  0  0  0
  143.2220   76.5780  218.6070 C   0  0  0  0  0  0  0  0  0  0  0  0
  142.3300   77.2890  219.3560 C   0  0  0  0  0  0  0  0  0  0  0  0
  140.2030   71.6490  223.6070 C   0  0  0  0  0  0  0  0  0  0  0  0
  139.6060   70.4210  223.3580 C   0  0  0  0  0  0  0  0  0  0  0  0
  139.4770   69.4670  224.3240 C   0  0  0  0  0  0  0  0  0  0  0  0
  139.9620   69.7500  225.5810 C   0  0  0  0  0  0  0  0  0  0  0  0
  139.8420   68.7950  226.5790 C   0  0  0  0  0  0  0  0  0  0  0  0
  140.3230   69.0660  227.8390 C   0  0  0  0  0  0  0  0  0  0  0  0
  140.2310   68.1660  228.8520 F   0  0  0  0  0  0  0  0  0  0  0  0
  140.9300   70.2910  228.1280 C   0  0  0  0  0  0  0  0  0  0  0  0
  141.0430   71.2310  227.1250 C   0  0  0  0  0  0  0  0  0  0  0  0
  140.5620   70.9670  225.8570 C   0  0  0  0  0  0  0  0  0  0  0  0
  140.6520   71.8560  224.8500 N   0  0  0  0  0  0  0  0  0  0  0  0
  138.3670   73.4630  222.9360 H   0  0  0  0  0  0  0  0  0  0  0  0
  140.3384   74.6055  220.9125 H   0  0  0  0  0  0  0  0  0  0  0  0
  138.6116   74.2782  220.4824 H   0  0  0  0  0  0  0  0  0  0  0  0
  138.4007   78.8417  221.9243 H   0  0  0  0  0  0  0  0  0  0  0  0
  138.4188   77.9120  223.4127 H   0  0  0  0  0  0  0  0  0  0  0  0
  140.2449   80.0244  222.5798 H   0  0  0  0  0  0  0  0  0  0  0  0
  140.3043   79.1239  224.1005 H   0  0  0  0  0  0  0  0  0  0  0  0
  141.8946   77.5368  223.2031 H   0  0  0  0  0  0  0  0  0  0  0  0
  143.2780   78.3970  221.9090 H   0  0  0  0  0  0  0  0  0  0  0  0
  140.5363   78.2426  220.3929 H   0  0  0  0  0  0  0  0  0  0  0  0
  141.7166   75.0296  221.7479 H   0  0  0  0  0  0  0  0  0  0  0  0
  143.3142   73.7339  220.4167 H   0  0  0  0  0  0  0  0  0  0  0  0
  144.3103   74.7332  218.3585 H   0  0  0  0  0  0  0  0  0  0  0  0
  143.6527   77.0320  217.7023 H   0  0  0  0  0  0  0  0  0  0  0  0
  142.0596   78.3063  219.0368 H   0  0  0  0  0  0  0  0  0  0  0  0
  139.2243   70.2103  222.3481 H   0  0  0  0  0  0  0  0  0  0  0  0
  138.9997   68.5004  224.1054 H   0  0  0  0  0  0  0  0  0  0  0  0
  139.3653   67.8271  226.3647 H   0  0  0  0  0  0  0  0  0  0  0  0
  141.3111   70.5020  229.1381 H   0  0  0  0  0  0  0  0  0  0  0  0
  141.5202   72.1993  227.3365 H   0  0  0  0  0  0  0  0  0  0  0  0
  1  2  2  0
  2  3  1  0
  3  4  1  0
  4  5  1  0
  5  6  2  0
  5  7  1  0
  7  8  1  0
  8  9  1  0
  9 10  1  0
 10 11  1  0
 10 12  1  0
 12 13  1  0
 13 14  2  0
 14 15  1  0
 15 16  2  0
 16 17  1  0
 17 18  2  0
  2 19  1  0
 19 20  2  0
 20 21  1  0
 21 22  2  0
 22 23  1  0
 23 24  2  0
 24 25  1  0
 24 26  1  0
 26 27  2  0
 27 28  1  0
 28 29  2  0
 12  7  1  0
 18 13  1  0
 29 19  1  0
 28 22  1  0
  3 30  1  0
  4 31  1  0
  4 32  1  0
  8 33  1  0
  8 34  1  0
  9 35  1  0
  9 36  1  0
 10 37  1  1
 11 38  1  0
 12 39  1  6
 14 40  1  0
 15 41  1  0
 16 42  1  0
 17 43  1  0
 18 44  1  0
 20 45  1  0
 21 46  1  0
 23 47  1  0
 26 48  1  0
 27 49  1  0
M  END
>  <smiles>  (31) 
O=C(NCC(=O)N1CC[C@H](O)[C@H]1c1ccccc1)c1ccc2cc(F)ccc2n1

>  <score_type>  (31) 
oracle

>  <origin>  (31) 
autodockgpu

>  <m_score__min__energy>  (31) 
-8.9399999999999995

>  <m_primary>  (31) 
energy

>  <rmsd>  (31) 
3.2877532777260505

>  <m_score__min__rmsd>  (31) 
3.2877532777260505

>  <meeko>  (31) 
{"free_energy": -8.52, "intermolecular_energy": -10.31, "internal_energy": -1.51, "cluster_size": 14, "cluster_id": 3, "rank_in_cluster": 1}

>  <energy>  (31) 
-8.47

>  <cluster_rmsd>  (31) 
0.47

>  <cluster>  (31) 
3

$$$$

     RDKit          3D

 49 52  0  0  0  0  0  0  0  0999 V2000
  140.6600   71.5130  221.1540 O   0  0  0  0  0  0  0  0  0  0  0  0
  140.2430   72.0900  222.1900 C   0  0  0  0  0  0  0  0  0  0  0  0
  139.9110   73.4670  222.2530 N   0  0  0  0  0  0  0  0  0  0  0  0
  140.0570   74.3020  221.0440 C   0  0  0  0  0  0  0  0  0  0  0  0
  140.5320   75.6380  221.3790 C   0  0  0  0  0  0  0  0  0  0  0  0
  140.1110   76.1060  222.5140 O   0  0  0  0  0  0  0  0  0  0  0  0
  141.3690   76.4990  220.6660 N   0  0  0  0  0  0  0  0  0  0  0  0
  141.9630   76.0020  219.3750 C   0  0  0  0  0  0  0  0  0  0  0  0
  142.1260   77.2570  218.5520 C   0  0  0  0  0  0  0  0  0  0  0  0
  141.5990   78.3800  219.4160 C   0  0  2  0  0  0  0  0  0  0  0  0
  142.2130   79.5870  219.1990 O   0  0  0  0  0  0  0  0  0  0  0  0
  141.9060   77.7950  220.8030 C   0  0  1  0  0  0  0  0  0  0  0  0
  141.4800   78.6780  221.8620 C   0  0  0  0  0  0  0  0  0  0  0  0
  142.2490   79.2260  222.8560 C   0  0  0  0  0  0  0  0  0  0  0  0
  141.7660   80.0680  223.8350 C   0  0  0  0  0  0  0  0  0  0  0  0
  140.4280   80.3990  223.8410 C   0  0  0  0  0  0  0  0  0  0  0  0
  139.6160   79.8720  222.8630 C   0  0  0  0  0  0  0  0  0  0  0  0
  140.1180   79.0410  221.9040 C   0  0  0  0  0  0  0  0  0  0  0  0
  140.0820   71.3020  223.4160 C   0  0  0  0  0  0  0  0  0  0  0  0
  139.4710   70.0560  223.3840 C   0  0  0  0  0  0  0  0  0  0  0  0
  139.3060   69.2980  224.5050 C   0  0  0  0  0  0  0  0  0  0  0  0
  139.7690   69.8020  225.7000 C   0  0  0  0  0  0  0  0  0  0  0  0
  139.6130   69.0490  226.8530 C   0  0  0  0  0  0  0  0  0  0  0  0
  140.0710   69.5410  228.0530 C   0  0  0  0  0  0  0  0  0  0  0  0
  139.9440   68.8440  229.2120 F   0  0  0  0  0  0  0  0  0  0  0  0
  140.6920   70.7910  228.1260 C   0  0  0  0  0  0  0  0  0  0  0  0
  140.8410   71.5290  226.9700 C   0  0  0  0  0  0  0  0  0  0  0  0
  140.3830   71.0420  225.7610 C   0  0  0  0  0  0  0  0  0  0  0  0
  140.5080   71.7290  224.6110 N   0  0  0  0  0  0  0  0  0  0  0  0
  139.5660   73.9030  223.1390 H   0  0  0  0  0  0  0  0  0  0  0  0
  140.7781   73.8252  220.3639 H   0  0  0  0  0  0  0  0  0  0  0  0
  139.0717   74.3936  220.5636 H   0  0  0  0  0  0  0  0  0  0  0  0
  142.9354   75.5186  219.5506 H   0  0  0  0  0  0  0  0  0  0  0  0
  141.3367   75.2451  218.8802 H   0  0  0  0  0  0  0  0  0  0  0  0
  143.1863   77.4231  218.3107 H   0  0  0  0  0  0  0  0  0  0  0  0
  141.5857   77.1904  217.5962 H   0  0  0  0  0  0  0  0  0  0  0  0
  140.5454   78.6376  219.2329 H   0  0  0  0  0  0  0  0  0  0  0  0
  143.1810   79.3880  219.0130 H   0  0  0  0  0  0  0  0  0  0  0  0
  142.9551   77.7074  221.1218 H   0  0  0  0  0  0  0  0  0  0  0  0
  143.3205   78.9778  222.8735 H   0  0  0  0  0  0  0  0  0  0  0  0
  142.4416   80.4716  224.6036 H   0  0  0  0  0  0  0  0  0  0  0  0
  140.0183   81.0697  224.6106 H   0  0  0  0  0  0  0  0  0  0  0  0
  138.5454   80.1245  222.8541 H   0  0  0  0  0  0  0  0  0  0  0  0
  139.4374   78.6409  221.1381 H   0  0  0  0  0  0  0  0  0  0  0  0
  139.1076   69.6670  222.4214 H   0  0  0  0  0  0  0  0  0  0  0  0
  138.8178   68.3135  224.4565 H   0  0  0  0  0  0  0  0  0  0  0  0
  139.1258   68.0638  226.8087 H   0  0  0  0  0  0  0  0  0  0  0  0
  141.0557   71.1796  229.0887 H   0  0  0  0  0  0  0  0  0  0  0  0
  141.3289   72.5140  227.0113 H   0  0  0  0  0  0  0  0  0  0  0  0
  1  2  2  0
  2  3  1  0
  3  4  1  0
  4  5  1  0
  5  6  2  0
  5  7  1  0
  7  8  1  0
  8  9  1  0
  9 10  1  0
 10 11  1  0
 10 12  1  0
 12 13  1  0
 13 14  2  0
 14 15  1  0
 15 16  2  0
 16 17  1  0
 17 18  2  0
  2 19  1  0
 19 20  2  0
 20 21  1  0
 21 22  2  0
 22 23  1  0
 23 24  2  0
 24 25  1  0
 24 26  1  0
 26 27  2  0
 27 28  1  0
 28 29  2  0
 12  7  1  0
 18 13  1  0
 29 19  1  0
 28 22  1  0
  3 30  1  0
  4 31  1  0
  4 32  1  0
  8 33  1  0
  8 34  1  0
  9 35  1  0
  9 36  1  0
 10 37  1  1
 11 38  1  0
 12 39  1  6
 14 40  1  0
 15 41  1  0
 16 42  1  0
 17 43  1  0
 18 44  1  0
 20 45  1  0
 21 46  1  0
 23 47  1  0
 26 48  1  0
 27 49  1  0
M  END
>  <smiles>  (32) 
O=C(NCC(=O)N1CC[C@H](O)[C@H]1c1ccccc1)c1ccc2cc(F)ccc2n1

>  <score_type>  (32) 
oracle

>  <origin>  (32) 
autodockgpu

>  <m_score__min__energy>  (32) 
-8.9399999999999995

>  <m_primary>  (32) 
energy

>  <rmsd>  (32) 
2.217578674114373

>  <m_score__min__rmsd>  (32) 
2.217578674114373

>  <meeko>  (32) 
{"free_energy": -8.5, "intermolecular_energy": -10.29, "internal_energy": -1.74, "cluster_size": 16, "cluster_id": 2, "rank_in_cluster": 10}

>  <energy>  (32) 
-8.43

>  <cluster_rmsd>  (32) 
0.14

>  <cluster>  (32) 
3

$$$$

     RDKit          3D

 49 52  0  0  0  0  0  0  0  0999 V2000
  139.3530   70.6260  221.1840 O   0  0  0  0  0  0  0  0  0  0  0  0
  139.4620   71.2680  222.2580 C   0  0  0  0  0  0  0  0  0  0  0  0
  139.4730   72.6850  222.3400 N   0  0  0  0  0  0  0  0  0  0  0  0
  139.3520   73.4800  221.1020 C   0  0  0  0  0  0  0  0  0  0  0  0
  140.0770   74.7390  221.2100 C   0  0  0  0  0  0  0  0  0  0  0  0
  140.0510   75.2930  222.3840 O   0  0  0  0  0  0  0  0  0  0  0  0
  140.7960   75.4480  220.2460 N   0  0  0  0  0  0  0  0  0  0  0  0
  140.1650   76.6810  219.6550 C   0  0  0  0  0  0  0  0  0  0  0  0
  141.3470   77.5540  219.3090 C   0  0  0  0  0  0  0  0  0  0  0  0
  142.5690   76.7740  219.7390 C   0  0  2  0  0  0  0  0  0  0  0  0
  143.6840   77.0170  218.9790 O   0  0  0  0  0  0  0  0  0  0  0  0
  142.0280   75.3460  219.5670 C   0  0  1  0  0  0  0  0  0  0  0  0
  143.0100   74.3550  219.9340 C   0  0  0  0  0  0  0  0  0  0  0  0
  142.9000   72.9920  219.8380 C   0  0  0  0  0  0  0  0  0  0  0  0
  143.8900   72.1060  220.2090 C   0  0  0  0  0  0  0  0  0  0  0  0
  145.0770   72.5930  220.7130 C   0  0  0  0  0  0  0  0  0  0  0  0
  145.2330   73.9550  220.8290 C   0  0  0  0  0  0  0  0  0  0  0  0
  144.2390   74.8120  220.4550 C   0  0  0  0  0  0  0  0  0  0  0  0
  139.5850   70.5210  223.5140 C   0  0  0  0  0  0  0  0  0  0  0  0
  139.1140   69.2190  223.6140 C   0  0  0  0  0  0  0  0  0  0  0  0
  139.2130   68.4970  224.7660 C   0  0  0  0  0  0  0  0  0  0  0  0
  139.8050   69.0960  225.8560 C   0  0  0  0  0  0  0  0  0  0  0  0
  139.9170   68.3810  227.0380 C   0  0  0  0  0  0  0  0  0  0  0  0
  140.5070   68.9680  228.1330 C   0  0  0  0  0  0  0  0  0  0  0  0
  140.6420   68.3120  229.3150 F   0  0  0  0  0  0  0  0  0  0  0  0
  140.9940   70.2760  228.0720 C   0  0  0  0  0  0  0  0  0  0  0  0
  140.8760   70.9760  226.8880 C   0  0  0  0  0  0  0  0  0  0  0  0
  140.2840   70.3930  225.7830 C   0  0  0  0  0  0  0  0  0  0  0  0
  140.1490   71.0400  224.6110 N   0  0  0  0  0  0  0  0  0  0  0  0
  139.5650   73.1750  223.2580 H   0  0  0  0  0  0  0  0  0  0  0  0
  139.7629   72.9005  220.2621 H   0  0  0  0  0  0  0  0  0  0  0  0
  138.2881   73.7045  220.9354 H   0  0  0  0  0  0  0  0  0  0  0  0
  139.5840   76.4318  218.7548 H   0  0  0  0  0  0  0  0  0  0  0  0
  139.4587   77.1705  220.3417 H   0  0  0  0  0  0  0  0  0  0  0  0
  141.3769   77.7484  218.2267 H   0  0  0  0  0  0  0  0  0  0  0  0
  141.2912   78.5316  219.8102 H   0  0  0  0  0  0  0  0  0  0  0  0
  142.9363   77.0241  220.7453 H   0  0  0  0  0  0  0  0  0  0  0  0
  144.0780   77.8790  219.3170 H   0  0  0  0  0  0  0  0  0  0  0  0
  141.8372   74.9691  218.5514 H   0  0  0  0  0  0  0  0  0  0  0  0
  141.9619   72.5782  219.4395 H   0  0  0  0  0  0  0  0  0  0  0  0
  143.7339   71.0222  220.1038 H   0  0  0  0  0  0  0  0  0  0  0  0
  145.8821   71.9074  221.0159 H   0  0  0  0  0  0  0  0  0  0  0  0
  146.1741   74.3597  221.2297 H   0  0  0  0  0  0  0  0  0  0  0  0
  144.4013   75.8946  220.5633 H   0  0  0  0  0  0  0  0  0  0  0  0
  138.6451   68.7543  222.7341 H   0  0  0  0  0  0  0  0  0  0  0  0
  138.8315   67.4669  224.8234 H   0  0  0  0  0  0  0  0  0  0  0  0
  139.5365   67.3508  227.1000 H   0  0  0  0  0  0  0  0  0  0  0  0
  141.4633   70.7400  228.9520 H   0  0  0  0  0  0  0  0  0  0  0  0
  141.2562   72.0062  226.8232 H   0  0  0  0  0  0  0  0  0  0  0  0
  1  2  2  0
  2  3  1  0
  3  4  1  0
  4  5  1  0
  5  6  2  0
  5  7  1  0
  7  8  1  0
  8  9  1  0
  9 10  1  0
 10 11  1  0
 10 12  1  0
 12 13  1  0
 13 14  2  0
 14 15  1  0
 15 16  2  0
 16 17  1  0
 17 18  2  0
  2 19  1  0
 19 20  2  0
 20 21  1  0
 21 22  2  0
 22 23  1  0
 23 24  2  0
 24 25  1  0
 24 26  1  0
 26 27  2  0
 27 28  1  0
 28 29  2  0
 12  7  1  0
 18 13  1  0
 29 19  1  0
 28 22  1  0
  3 30  1  0
  4 31  1  0
  4 32  1  0
  8 33  1  0
  8 34  1  0
  9 35  1  0
  9 36  1  0
 10 37  1  1
 11 38  1  0
 12 39  1  6
 14 40  1  0
 15 41  1  0
 16 42  1  0
 17 43  1  0
 18 44  1  0
 20 45  1  0
 21 46  1  0
 23 47  1  0
 26 48  1  0
 27 49  1  0
M  END
>  <smiles>  (33) 
O=C(NCC(=O)N1CC[C@H](O)[C@H]1c1ccccc1)c1ccc2cc(F)ccc2n1

>  <score_type>  (33) 
oracle

>  <origin>  (33) 
autodockgpu

>  <m_score__min__energy>  (33) 
-8.9399999999999995

>  <m_primary>  (33) 
energy

>  <rmsd>  (33) 
1.8359794098318385

>  <m_score__min__rmsd>  (33) 
1.8359794098318385

>  <meeko>  (33) 
{"free_energy": -8.27, "intermolecular_energy": -10.06, "internal_energy": -1.9, "cluster_size": 14, "cluster_id": 3, "rank_in_cluster": 8}

>  <energy>  (33) 
-8.36

>  <cluster_rmsd>  (33) 
0.75

>  <cluster>  (33) 
3

$$$$

     RDKit          3D

 49 52  0  0  0  0  0  0  0  0999 V2000
  141.4210   72.5120  221.5940 O   0  0  0  0  0  0  0  0  0  0  0  0
  140.4650   72.6590  222.3980 C   0  0  0  0  0  0  0  0  0  0  0  0
  139.5460   73.7380  222.3500 N   0  0  0  0  0  0  0  0  0  0  0  0
  139.6960   74.7690  221.3050 C   0  0  0  0  0  0  0  0  0  0  0  0
  139.1390   76.0440  221.7370 C   0  0  0  0  0  0  0  0  0  0  0  0
  137.8910   76.0120  222.0900 O   0  0  0  0  0  0  0  0  0  0  0  0
  139.7390   77.3020  221.8290 N   0  0  0  0  0  0  0  0  0  0  0  0
  139.1930   78.2760  222.8400 C   0  0  0  0  0  0  0  0  0  0  0  0
  140.3950   79.1090  223.2150 C   0  0  0  0  0  0  0  0  0  0  0  0
  141.5470   78.5470  222.4130 C   0  0  2  0  0  0  0  0  0  0  0  0
  142.5010   79.4740  222.0800 O   0  0  0  0  0  0  0  0  0  0  0  0
  140.7710   78.0240  221.1940 C   0  0  1  0  0  0  0  0  0  0  0  0
  141.6460   77.3980  220.2320 C   0  0  0  0  0  0  0  0  0  0  0  0
  142.2400   76.1660  220.3180 C   0  0  0  0  0  0  0  0  0  0  0  0
  143.0660   75.6340  219.3500 C   0  0  0  0  0  0  0  0  0  0  0  0
  143.3290   76.3640  218.2120 C   0  0  0  0  0  0  0  0  0  0  0  0
  142.7550   77.6080  218.0810 C   0  0  0  0  0  0  0  0  0  0  0  0
  141.9410   78.1130  219.0520 C   0  0  0  0  0  0  0  0  0  0  0  0
  140.2770   71.6600  223.4540 C   0  0  0  0  0  0  0  0  0  0  0  0
  139.6250   70.4630  223.1900 C   0  0  0  0  0  0  0  0  0  0  0  0
  139.4330   69.5130  224.1500 C   0  0  0  0  0  0  0  0  0  0  0  0
  139.9110   69.7680  225.4160 C   0  0  0  0  0  0  0  0  0  0  0  0
  139.7290   68.8160  226.4070 C   0  0  0  0  0  0  0  0  0  0  0  0
  140.2010   69.0580  227.6760 C   0  0  0  0  0  0  0  0  0  0  0  0
  140.0490   68.1600  228.6830 F   0  0  0  0  0  0  0  0  0  0  0  0
  140.8630   70.2510  227.9800 C   0  0  0  0  0  0  0  0  0  0  0  0
  141.0380   71.1880  226.9830 C   0  0  0  0  0  0  0  0  0  0  0  0
  140.5660   70.9530  225.7060 C   0  0  0  0  0  0  0  0  0  0  0  0
  140.7150   71.8400  224.7050 N   0  0  0  0  0  0  0  0  0  0  0  0
  138.7650   73.8170  223.0410 H   0  0  0  0  0  0  0  0  0  0  0  0
  140.7652   74.9016  221.0830 H   0  0  0  0  0  0  0  0  0  0  0  0
  139.1512   74.4374  220.4087 H   0  0  0  0  0  0  0  0  0  0  0  0
  138.4044   78.9017  222.3966 H   0  0  0  0  0  0  0  0  0  0  0  0
  138.7301   77.7794  223.7055 H   0  0  0  0  0  0  0  0  0  0  0  0
  140.2262   80.1647  222.9562 H   0  0  0  0  0  0  0  0  0  0  0  0
  140.5951   79.0703  224.2959 H   0  0  0  0  0  0  0  0  0  0  0  0
  142.1509   77.7990  222.9476 H   0  0  0  0  0  0  0  0  0  0  0  0
  143.3620   78.9680  221.9600 H   0  0  0  0  0  0  0  0  0  0  0  0
  140.3163   78.7491  220.5030 H   0  0  0  0  0  0  0  0  0  0  0  0
  142.0455   75.5626  221.2169 H   0  0  0  0  0  0  0  0  0  0  0  0
  143.5102   74.6368  219.4855 H   0  0  0  0  0  0  0  0  0  0  0  0
  143.9836   75.9615  217.4249 H   0  0  0  0  0  0  0  0  0  0  0  0
  142.9559   78.2045  217.1789 H   0  0  0  0  0  0  0  0  0  0  0  0
  141.4999   79.1107  218.9104 H   0  0  0  0  0  0  0  0  0  0  0  0
  139.2508   70.2744  222.1729 H   0  0  0  0  0  0  0  0  0  0  0  0
  138.9122   68.5719  223.9198 H   0  0  0  0  0  0  0  0  0  0  0  0
  139.2103   67.8729  226.1799 H   0  0  0  0  0  0  0  0  0  0  0  0
  141.2380   70.4393  228.9968 H   0  0  0  0  0  0  0  0  0  0  0  0
  141.5582   72.1311  227.2067 H   0  0  0  0  0  0  0  0  0  0  0  0
  1  2  2  0
  2  3  1  0
  3  4  1  0
  4  5  1  0
  5  6  2  0
  5  7  1  0
  7  8  1  0
  8  9  1  0
  9 10  1  0
 10 11  1  0
 10 12  1  0
 12 13  1  0
 13 14  2  0
 14 15  1  0
 15 16  2  0
 16 17  1  0
 17 18  2  0
  2 19  1  0
 19 20  2  0
 20 21  1  0
 21 22  2  0
 22 23  1  0
 23 24  2  0
 24 25  1  0
 24 26  1  0
 26 27  2  0
 27 28  1  0
 28 29  2  0
 12  7  1  0
 18 13  1  0
 29 19  1  0
 28 22  1  0
  3 30  1  0
  4 31  1  0
  4 32  1  0
  8 33  1  0
  8 34  1  0
  9 35  1  0
  9 36  1  0
 10 37  1  1
 11 38  1  0
 12 39  1  6
 14 40  1  0
 15 41  1  0
 16 42  1  0
 17 43  1  0
 18 44  1  0
 20 45  1  0
 21 46  1  0
 23 47  1  0
 26 48  1  0
 27 49  1  0
M  END
>  <smiles>  (34) 
O=C(NCC(=O)N1CC[C@H](O)[C@H]1c1ccccc1)c1ccc2cc(F)ccc2n1

>  <score_type>  (34) 
oracle

>  <origin>  (34) 
autodockgpu

>  <m_score__min__energy>  (34) 
-8.9399999999999995

>  <m_primary>  (34) 
energy

>  <rmsd>  (34) 
3.4361104569386423

>  <m_score__min__rmsd>  (34) 
3.4361104569386423

>  <meeko>  (34) 
{"free_energy": -8.47, "intermolecular_energy": -10.26, "internal_energy": -1.47, "cluster_size": 14, "cluster_id": 3, "rank_in_cluster": 3}

>  <energy>  (34) 
-8.34

>  <cluster_rmsd>  (34) 
1.88

>  <cluster>  (34) 
3

$$$$

     RDKit          3D

 49 52  0  0  0  0  0  0  0  0999 V2000
  140.8630   72.0460  221.3140 O   0  0  0  0  0  0  0  0  0  0  0  0
  140.1010   72.3470  222.2670 C   0  0  0  0  0  0  0  0  0  0  0  0
  139.2450   73.4790  222.2720 N   0  0  0  0  0  0  0  0  0  0  0  0
  139.2290   74.3770  221.1010 C   0  0  0  0  0  0  0  0  0  0  0  0
  140.5330   74.9920  220.8900 C   0  0  0  0  0  0  0  0  0  0  0  0
  141.1930   75.2760  221.9710 O   0  0  0  0  0  0  0  0  0  0  0  0
  141.1870   75.3270  219.7020 N   0  0  0  0  0  0  0  0  0  0  0  0
  140.5030   76.2850  218.7620 C   0  0  0  0  0  0  0  0  0  0  0  0
  141.6490   76.9850  218.0720 C   0  0  0  0  0  0  0  0  0  0  0  0
  142.9050   76.3960  218.6730 C   0  0  2  0  0  0  0  0  0  0  0  0
  143.9730   76.3630  217.8130 O   0  0  0  0  0  0  0  0  0  0  0  0
  142.3820   74.9970  219.0300 C   0  0  1  0  0  0  0  0  0  0  0  0
  143.4000   74.1900  219.6570 C   0  0  0  0  0  0  0  0  0  0  0  0
  143.4340   72.8240  219.7700 C   0  0  0  0  0  0  0  0  0  0  0  0
  144.4490   72.1220  220.3850 C   0  0  0  0  0  0  0  0  0  0  0  0
  145.5110   72.8100  220.9310 C   0  0  0  0  0  0  0  0  0  0  0  0
  145.5200   74.1830  220.8430 C   0  0  0  0  0  0  0  0  0  0  0  0
  144.5040   74.8560  220.2290 C   0  0  0  0  0  0  0  0  0  0  0  0
  140.0830   71.4840  223.4520 C   0  0  0  0  0  0  0  0  0  0  0  0
  139.5690   70.1960  223.3840 C   0  0  0  0  0  0  0  0  0  0  0  0
  139.5380   69.3680  224.4670 C   0  0  0  0  0  0  0  0  0  0  0  0
  140.0390   69.8440  225.6580 C   0  0  0  0  0  0  0  0  0  0  0  0
  140.0190   69.0200  226.7730 C   0  0  0  0  0  0  0  0  0  0  0  0
  140.5170   69.4820  227.9690 C   0  0  0  0  0  0  0  0  0  0  0  0
  140.5200   68.7160  229.0900 F   0  0  0  0  0  0  0  0  0  0  0  0
  141.0430   70.7720  228.0770 C   0  0  0  0  0  0  0  0  0  0  0  0
  141.0570   71.5810  226.9590 C   0  0  0  0  0  0  0  0  0  0  0  0
  140.5590   71.1240  225.7540 C   0  0  0  0  0  0  0  0  0  0  0  0
  140.5530   71.8790  224.6400 N   0  0  0  0  0  0  0  0  0  0  0  0
  138.6270   73.6880  223.0890 H   0  0  0  0  0  0  0  0  0  0  0  0
  138.9575   73.7961  220.2072 H   0  0  0  0  0  0  0  0  0  0  0  0
  138.4936   75.1744  221.2839 H   0  0  0  0  0  0  0  0  0  0  0  0
  139.8788   75.7440  218.0356 H   0  0  0  0  0  0  0  0  0  0  0  0
  139.8263   76.9811  219.2791 H   0  0  0  0  0  0  0  0  0  0  0  0
  141.6172   76.7976  216.9885 H   0  0  0  0  0  0  0  0  0  0  0  0
  141.6034   78.0752  218.2109 H   0  0  0  0  0  0  0  0  0  0  0  0
  143.3208   76.9736  219.5117 H   0  0  0  0  0  0  0  0  0  0  0  0
  144.4650   75.5060  218.0000 H   0  0  0  0  0  0  0  0  0  0  0  0
  142.1438   74.2955  218.2169 H   0  0  0  0  0  0  0  0  0  0  0  0
  142.5978   72.2513  219.3426 H   0  0  0  0  0  0  0  0  0  0  0  0
  144.4115   71.0240  220.4393 H   0  0  0  0  0  0  0  0  0  0  0  0
  146.3335   72.2732  221.4263 H   0  0  0  0  0  0  0  0  0  0  0  0
  146.3598   74.7474  221.2746 H   0  0  0  0  0  0  0  0  0  0  0  0
  144.5474   75.9540  220.1785 H   0  0  0  0  0  0  0  0  0  0  0  0
  139.1736   69.8313  222.4245 H   0  0  0  0  0  0  0  0  0  0  0  0
  139.1254   68.3511  224.3915 H   0  0  0  0  0  0  0  0  0  0  0  0
  139.6072   68.0025  226.7015 H   0  0  0  0  0  0  0  0  0  0  0  0
  141.4390   71.1364  229.0364 H   0  0  0  0  0  0  0  0  0  0  0  0
  141.4684   72.5989  227.0279 H   0  0  0  0  0  0  0  0  0  0  0  0
  1  2  2  0
  2  3  1  0
  3  4  1  0
  4  5  1  0
  5  6  2  0
  5  7  1  0
  7  8  1  0
  8  9  1  0
  9 10  1  0
 10 11  1  0
 10 12  1  0
 12 13  1  0
 13 14  2  0
 14 15  1  0
 15 16  2  0
 16 17  1  0
 17 18  2  0
  2 19  1  0
 19 20  2  0
 20 21  1  0
 21 22  2  0
 22 23  1  0
 23 24  2  0
 24 25  1  0
 24 26  1  0
 26 27  2  0
 27 28  1  0
 28 29  2  0
 12  7  1  0
 18 13  1  0
 29 19  1  0
 28 22  1  0
  3 30  1  0
  4 31  1  0
  4 32  1  0
  8 33  1  0
  8 34  1  0
  9 35  1  0
  9 36  1  0
 10 37  1  1
 11 38  1  0
 12 39  1  6
 14 40  1  0
 15 41  1  0
 16 42  1  0
 17 43  1  0
 18 44  1  0
 20 45  1  0
 21 46  1  0
 23 47  1  0
 26 48  1  0
 27 49  1  0
M  END
>  <smiles>  (35) 
O=C(NCC(=O)N1CC[C@H](O)[C@H]1c1ccccc1)c1ccc2cc(F)ccc2n1

>  <score_type>  (35) 
oracle

>  <origin>  (35) 
autodockgpu

>  <m_score__min__energy>  (35) 
-8.9399999999999995

>  <m_primary>  (35) 
energy

>  <rmsd>  (35) 
1.76611270886289

>  <m_score__min__rmsd>  (35) 
1.76611270886289

>  <meeko>  (35) 
{"free_energy": -8.44, "intermolecular_energy": -10.23, "internal_energy": -1.64, "cluster_size": 8, "cluster_id": 4, "rank_in_cluster": 1}

>  <energy>  (35) 
-8.33

>  <cluster_rmsd>  (35) 
1.93

>  <cluster>  (35) 
3

$$$$

     RDKit          3D

 49 52  0  0  0  0  0  0  0  0999 V2000
  140.7330   71.7070  221.1230 O   0  0  0  0  0  0  0  0  0  0  0  0
  140.2920   72.2520  222.1670 C   0  0  0  0  0  0  0  0  0  0  0  0
  139.9390   73.6220  222.2590 N   0  0  0  0  0  0  0  0  0  0  0  0
  140.0920   74.4890  221.0730 C   0  0  0  0  0  0  0  0  0  0  0  0
  140.6880   75.7690  221.4290 C   0  0  0  0  0  0  0  0  0  0  0  0
  140.3850   76.2130  222.6110 O   0  0  0  0  0  0  0  0  0  0  0  0
  141.5360   76.6010  220.6930 N   0  0  0  0  0  0  0  0  0  0  0  0
  142.1560   76.0480  219.4370 C   0  0  0  0  0  0  0  0  0  0  0  0
  142.3300   77.2660  218.5620 C   0  0  0  0  0  0  0  0  0  0  0  0
  141.7840   78.4250  219.3640 C   0  0  2  0  0  0  0  0  0  0  0  0
  142.3970   79.6230  219.1040 O   0  0  0  0  0  0  0  0  0  0  0  0
  142.0670   77.9040  220.7820 C   0  0  1  0  0  0  0  0  0  0  0  0
  141.6180   78.8320  221.7910 C   0  0  0  0  0  0  0  0  0  0  0  0
  140.3340   79.2390  222.0440 C   0  0  0  0  0  0  0  0  0  0  0  0
  139.9850   80.1320  223.0350 C   0  0  0  0  0  0  0  0  0  0  0  0
  140.9680   80.6680  223.8390 C   0  0  0  0  0  0  0  0  0  0  0  0
  142.2730   80.2890  223.6220 C   0  0  0  0  0  0  0  0  0  0  0  0
  142.5940   79.4040  222.6350 C   0  0  0  0  0  0  0  0  0  0  0  0
  140.1240   71.4310  223.3700 C   0  0  0  0  0  0  0  0  0  0  0  0
  139.4820   70.2020  223.3070 C   0  0  0  0  0  0  0  0  0  0  0  0
  139.3100   69.4140  224.4060 C   0  0  0  0  0  0  0  0  0  0  0  0
  139.7970   69.8700  225.6110 C   0  0  0  0  0  0  0  0  0  0  0  0
  139.6350   69.0870  226.7420 C   0  0  0  0  0  0  0  0  0  0  0  0
  140.1180   69.5300  227.9510 C   0  0  0  0  0  0  0  0  0  0  0  0
  139.9850   68.8020  229.0900 F   0  0  0  0  0  0  0  0  0  0  0  0
  140.7710   70.7620  228.0550 C   0  0  0  0  0  0  0  0  0  0  0  0
  140.9260   71.5310  226.9200 C   0  0  0  0  0  0  0  0  0  0  0  0
  140.4430   71.0920  225.7020 C   0  0  0  0  0  0  0  0  0  0  0  0
  140.5730   71.8100  224.5720 N   0  0  0  0  0  0  0  0  0  0  0  0
  139.5750   74.0300  223.1500 H   0  0  0  0  0  0  0  0  0  0  0  0
  140.7384   73.9837  220.3403 H   0  0  0  0  0  0  0  0  0  0  0  0
  139.0950   74.6757  220.6474 H   0  0  0  0  0  0  0  0  0  0  0  0
  143.1265   75.5771  219.6524 H   0  0  0  0  0  0  0  0  0  0  0  0
  141.5422   75.2665  218.9652 H   0  0  0  0  0  0  0  0  0  0  0  0
  143.3940   77.4252  218.3329 H   0  0  0  0  0  0  0  0  0  0  0  0
  141.8069   77.1543  217.6008 H   0  0  0  0  0  0  0  0  0  0  0  0
  140.7333   78.6703  219.1499 H   0  0  0  0  0  0  0  0  0  0  0  0
  143.2980   79.4050  218.7130 H   0  0  0  0  0  0  0  0  0  0  0  0
  143.1100   77.8345  221.1244 H   0  0  0  0  0  0  0  0  0  0  0  0
  139.5303   78.8268  221.4162 H   0  0  0  0  0  0  0  0  0  0  0  0
  138.9321   80.4140  223.1826 H   0  0  0  0  0  0  0  0  0  0  0  0
  140.7150   81.3826  224.6361 H   0  0  0  0  0  0  0  0  0  0  0  0
  143.0701   80.7065  224.2547 H   0  0  0  0  0  0  0  0  0  0  0  0
  143.6488   79.1268  222.4920 H   0  0  0  0  0  0  0  0  0  0  0  0
  139.0989   69.8519  222.3371 H   0  0  0  0  0  0  0  0  0  0  0  0
  138.7978   68.4433  224.3327 H   0  0  0  0  0  0  0  0  0  0  0  0
  139.1227   68.1160  226.6735 H   0  0  0  0  0  0  0  0  0  0  0  0
  141.1544   71.1120  229.0248 H   0  0  0  0  0  0  0  0  0  0  0  0
  141.4386   72.5021  226.9852 H   0  0  0  0  0  0  0  0  0  0  0  0
  1  2  2  0
  2  3  1  0
  3  4  1  0
  4  5  1  0
  5  6  2  0
  5  7  1  0
  7  8  1  0
  8  9  1  0
  9 10  1  0
 10 11  1  0
 10 12  1  0
 12 13  1  0
 13 14  2  0
 14 15  1  0
 15 16  2  0
 16 17  1  0
 17 18  2  0
  2 19  1  0
 19 20  2  0
 20 21  1  0
 21 22  2  0
 22 23  1  0
 23 24  2  0
 24 25  1  0
 24 26  1  0
 26 27  2  0
 27 28  1  0
 28 29  2  0
 12  7  1  0
 18 13  1  0
 29 19  1  0
 28 22  1  0
  3 30  1  0
  4 31  1  0
  4 32  1  0
  8 33  1  0
  8 34  1  0
  9 35  1  0
  9 36  1  0
 10 37  1  1
 11 38  1  0
 12 39  1  6
 14 40  1  0
 15 41  1  0
 16 42  1  0
 17 43  1  0
 18 44  1  0
 20 45  1  0
 21 46  1  0
 23 47  1  0
 26 48  1  0
 27 49  1  0
M  END
>  <smiles>  (36) 
O=C(NCC(=O)N1CC[C@H](O)[C@H]1c1ccccc1)c1ccc2cc(F)ccc2n1

>  <score_type>  (36) 
oracle

>  <origin>  (36) 
autodockgpu

>  <m_score__min__energy>  (36) 
-8.9399999999999995

>  <m_primary>  (36) 
energy

>  <rmsd>  (36) 
2.291243812475246

>  <m_score__min__rmsd>  (36) 
2.291243812475246

>  <meeko>  (36) 
{"free_energy": -8.67, "intermolecular_energy": -10.46, "internal_energy": -1.69, "cluster_size": 16, "cluster_id": 2, "rank_in_cluster": 3}

>  <energy>  (36) 
-8.27

>  <cluster_rmsd>  (36) 
1.86

>  <cluster>  (36) 
3

$$$$

     RDKit          3D

 49 52  0  0  0  0  0  0  0  0999 V2000
  140.4370   71.7470  221.0980 O   0  0  0  0  0  0  0  0  0  0  0  0
  140.1020   72.3050  222.1730 C   0  0  0  0  0  0  0  0  0  0  0  0
  139.8370   73.6920  222.3000 N   0  0  0  0  0  0  0  0  0  0  0  0
  139.9570   74.5620  221.1130 C   0  0  0  0  0  0  0  0  0  0  0  0
  140.6220   75.8160  221.4430 C   0  0  0  0  0  0  0  0  0  0  0  0
  140.4170   76.2510  222.6490 O   0  0  0  0  0  0  0  0  0  0  0  0
  141.4460   76.6280  220.6620 N   0  0  0  0  0  0  0  0  0  0  0  0
  141.9280   76.0880  219.3410 C   0  0  0  0  0  0  0  0  0  0  0  0
  142.0900   77.3240  218.4890 C   0  0  0  0  0  0  0  0  0  0  0  0
  141.6740   78.4810  219.3680 C   0  0  2  0  0  0  0  0  0  0  0  0
  142.3230   79.6560  219.0900 O   0  0  0  0  0  0  0  0  0  0  0  0
  142.0480   77.9010  220.7410 C   0  0  1  0  0  0  0  0  0  0  0  0
  141.7350   78.8160  221.8110 C   0  0  0  0  0  0  0  0  0  0  0  0
  142.6030   79.3950  222.6990 C   0  0  0  0  0  0  0  0  0  0  0  0
  142.2250   80.2680  223.6980 C   0  0  0  0  0  0  0  0  0  0  0  0
  140.8940   80.5970  223.8380 C   0  0  0  0  0  0  0  0  0  0  0  0
  139.9840   80.0390  222.9700 C   0  0  0  0  0  0  0  0  0  0  0  0
  140.3830   79.1790  221.9890 C   0  0  0  0  0  0  0  0  0  0  0  0
  139.9700   71.4810  223.3790 C   0  0  0  0  0  0  0  0  0  0  0  0
  139.3540   70.2380  223.3260 C   0  0  0  0  0  0  0  0  0  0  0  0
  139.2160   69.4470  224.4280 C   0  0  0  0  0  0  0  0  0  0  0  0
  139.7110   69.9150  225.6250 C   0  0  0  0  0  0  0  0  0  0  0  0
  139.5830   69.1290  226.7590 C   0  0  0  0  0  0  0  0  0  0  0  0
  140.0730   69.5840  227.9610 C   0  0  0  0  0  0  0  0  0  0  0  0
  139.9730   68.8530  229.1010 F   0  0  0  0  0  0  0  0  0  0  0  0
  140.7000   70.8290  228.0550 C   0  0  0  0  0  0  0  0  0  0  0  0
  140.8210   71.6010  226.9170 C   0  0  0  0  0  0  0  0  0  0  0  0
  140.3310   71.1510  225.7070 C   0  0  0  0  0  0  0  0  0  0  0  0
  140.4280   71.8710  224.5740 N   0  0  0  0  0  0  0  0  0  0  0  0
  139.5600   74.1100  223.2170 H   0  0  0  0  0  0  0  0  0  0  0  0
  140.5412   74.0383  220.3420 H   0  0  0  0  0  0  0  0  0  0  0  0
  138.9458   74.7906  220.7454 H   0  0  0  0  0  0  0  0  0  0  0  0
  142.8877   75.5633  219.4580 H   0  0  0  0  0  0  0  0  0  0  0  0
  141.2364   75.3541  218.9017 H   0  0  0  0  0  0  0  0  0  0  0  0
  143.1376   77.4385  218.1739 H   0  0  0  0  0  0  0  0  0  0  0  0
  141.4828   77.2696  217.5734 H   0  0  0  0  0  0  0  0  0  0  0  0
  140.6228   78.7838  219.2524 H   0  0  0  0  0  0  0  0  0  0  0  0
  143.2910   79.4220  218.9480 H   0  0  0  0  0  0  0  0  0  0  0  0
  143.1115   77.7700  220.9898 H   0  0  0  0  0  0  0  0  0  0  0  0
  143.6711   79.1476  222.6095 H   0  0  0  0  0  0  0  0  0  0  0  0
  142.9779   80.6970  224.3756 H   0  0  0  0  0  0  0  0  0  0  0  0
  140.5664   81.2905  224.6265 H   0  0  0  0  0  0  0  0  0  0  0  0
  138.9176   80.2903  223.0686 H   0  0  0  0  0  0  0  0  0  0  0  0
  139.6253   78.7543  221.3141 H   0  0  0  0  0  0  0  0  0  0  0  0
  138.9640   69.8790  222.3622 H   0  0  0  0  0  0  0  0  0  0  0  0
  138.7244   68.4651  224.3630 H   0  0  0  0  0  0  0  0  0  0  0  0
  139.0921   68.1465  226.6983 H   0  0  0  0  0  0  0  0  0  0  0  0
  141.0903   71.1877  229.0188 H   0  0  0  0  0  0  0  0  0  0  0  0
  141.3122   72.5835  226.9746 H   0  0  0  0  0  0  0  0  0  0  0  0
  1  2  2  0
  2  3  1  0
  3  4  1  0
  4  5  1  0
  5  6  2  0
  5  7  1  0
  7  8  1  0
  8  9  1  0
  9 10  1  0
 10 11  1  0
 10 12  1  0
 12 13  1  0
 13 14  2  0
 14 15  1  0
 15 16  2  0
 16 17  1  0
 17 18  2  0
  2 19  1  0
 19 20  2  0
 20 21  1  0
 21 22  2  0
 22 23  1  0
 23 24  2  0
 24 25  1  0
 24 26  1  0
 26 27  2  0
 27 28  1  0
 28 29  2  0
 12  7  1  0
 18 13  1  0
 29 19  1  0
 28 22  1  0
  3 30  1  0
  4 31  1  0
  4 32  1  0
  8 33  1  0
  8 34  1  0
  9 35  1  0
  9 36  1  0
 10 37  1  1
 11 38  1  0
 12 39  1  6
 14 40  1  0
 15 41  1  0
 16 42  1  0
 17 43  1  0
 18 44  1  0
 20 45  1  0
 21 46  1  0
 23 47  1  0
 26 48  1  0
 27 49  1  0
M  END
>  <smiles>  (37) 
O=C(NCC(=O)N1CC[C@H](O)[C@H]1c1ccccc1)c1ccc2cc(F)ccc2n1

>  <score_type>  (37) 
oracle

>  <origin>  (37) 
autodockgpu

>  <m_score__min__energy>  (37) 
-8.9399999999999995

>  <m_primary>  (37) 
energy

>  <rmsd>  (37) 
2.235128733427995

>  <m_score__min__rmsd>  (37) 
2.235128733427995

>  <meeko>  (37) 
{"free_energy": -8.59, "intermolecular_energy": -10.38, "internal_energy": -1.72, "cluster_size": 16, "cluster_id": 2, "rank_in_cluster": 6}

>  <energy>  (37) 
-8.23

>  <cluster_rmsd>  (37) 
1.8

>  <cluster>  (37) 
3

$$$$

     RDKit          3D

 49 52  0  0  0  0  0  0  0  0999 V2000
  139.1150   70.9340  221.1630 O   0  0  0  0  0  0  0  0  0  0  0  0
  139.3550   71.5300  222.2440 C   0  0  0  0  0  0  0  0  0  0  0  0
  139.4790   72.9370  222.3650 N   0  0  0  0  0  0  0  0  0  0  0  0
  139.3240   73.7820  221.1640 C   0  0  0  0  0  0  0  0  0  0  0  0
  140.4420   74.7060  221.0210 C   0  0  0  0  0  0  0  0  0  0  0  0
  140.9630   75.1220  222.1350 O   0  0  0  0  0  0  0  0  0  0  0  0
  141.0410   75.2190  219.8690 N   0  0  0  0  0  0  0  0  0  0  0  0
  140.2390   76.1620  219.0120 C   0  0  0  0  0  0  0  0  0  0  0  0
  141.2860   77.0540  218.3890 C   0  0  0  0  0  0  0  0  0  0  0  0
  142.6090   76.5760  218.9420 C   0  0  2  0  0  0  0  0  0  0  0  0
  143.6670   76.7490  218.0880 O   0  0  0  0  0  0  0  0  0  0  0  0
  142.2640   75.0980  219.1760 C   0  0  1  0  0  0  0  0  0  0  0  0
  143.3770   74.3710  219.7360 C   0  0  0  0  0  0  0  0  0  0  0  0
  144.4960   74.8860  220.3370 C   0  0  0  0  0  0  0  0  0  0  0  0
  145.5210   74.1210  220.8540 C   0  0  0  0  0  0  0  0  0  0  0  0
  145.4430   72.7470  220.7760 C   0  0  0  0  0  0  0  0  0  0  0  0
  144.3380   72.1840  220.1800 C   0  0  0  0  0  0  0  0  0  0  0  0
  143.3370   72.9620  219.6760 C   0  0  0  0  0  0  0  0  0  0  0  0
  139.5180   70.7320  223.4630 C   0  0  0  0  0  0  0  0  0  0  0  0
  139.0690   69.4200  223.5180 C   0  0  0  0  0  0  0  0  0  0  0  0
  139.2050   68.6510  224.6360 C   0  0  0  0  0  0  0  0  0  0  0  0
  139.8100   69.2130  225.7370 C   0  0  0  0  0  0  0  0  0  0  0  0
  139.9600   68.4510  226.8850 C   0  0  0  0  0  0  0  0  0  0  0  0
  140.5640   69.0010  227.9920 C   0  0  0  0  0  0  0  0  0  0  0  0
  140.7350   68.2980  229.1410 F   0  0  0  0  0  0  0  0  0  0  0  0
  141.0290   70.3180  227.9760 C   0  0  0  0  0  0  0  0  0  0  0  0
  140.8740   71.0650  226.8260 C   0  0  0  0  0  0  0  0  0  0  0  0
  140.2680   70.5200  225.7100 C   0  0  0  0  0  0  0  0  0  0  0  0
  140.0970   71.2130  224.5690 N   0  0  0  0  0  0  0  0  0  0  0  0
  139.6790   73.3870  223.2870 H   0  0  0  0  0  0  0  0  0  0  0  0
  139.2764   73.1362  220.2748 H   0  0  0  0  0  0  0  0  0  0  0  0
  138.3991   74.3683  221.2680 H   0  0  0  0  0  0  0  0  0  0  0  0
  139.6812   75.6124  218.2394 H   0  0  0  0  0  0  0  0  0  0  0  0
  139.4853   76.7230  219.5840 H   0  0  0  0  0  0  0  0  0  0  0  0
  141.2703   76.9571  217.2934 H   0  0  0  0  0  0  0  0  0  0  0  0
  141.1074   78.1144  218.6208 H   0  0  0  0  0  0  0  0  0  0  0  0
  142.9566   77.1269  219.8284 H   0  0  0  0  0  0  0  0  0  0  0  0
  144.3600   76.0670  218.3490 H   0  0  0  0  0  0  0  0  0  0  0  0
  142.1089   74.4454  218.3042 H   0  0  0  0  0  0  0  0  0  0  0  0
  144.5823   75.9800  220.4120 H   0  0  0  0  0  0  0  0  0  0  0  0
  146.3915   74.6025  221.3236 H   0  0  0  0  0  0  0  0  0  0  0  0
  146.2465   72.1145  221.1813 H   0  0  0  0  0  0  0  0  0  0  0  0
  144.2604   71.0891  220.1087 H   0  0  0  0  0  0  0  0  0  0  0  0
  142.4696   72.4744  219.2071 H   0  0  0  0  0  0  0  0  0  0  0  0
  138.5871   68.9856  222.6297 H   0  0  0  0  0  0  0  0  0  0  0  0
  138.8421   67.6128  224.6572 H   0  0  0  0  0  0  0  0  0  0  0  0
  139.5982   67.4125  226.9108 H   0  0  0  0  0  0  0  0  0  0  0  0
  141.5104   70.7522  228.8646 H   0  0  0  0  0  0  0  0  0  0  0  0
  141.2360   72.1033  226.7974 H   0  0  0  0  0  0  0  0  0  0  0  0
  1  2  2  0
  2  3  1  0
  3  4  1  0
  4  5  1  0
  5  6  2  0
  5  7  1  0
  7  8  1  0
  8  9  1  0
  9 10  1  0
 10 11  1  0
 10 12  1  0
 12 13  1  0
 13 14  2  0
 14 15  1  0
 15 16  2  0
 16 17  1  0
 17 18  2  0
  2 19  1  0
 19 20  2  0
 20 21  1  0
 21 22  2  0
 22 23  1  0
 23 24  2  0
 24 25  1  0
 24 26  1  0
 26 27  2  0
 27 28  1  0
 28 29  2  0
 12  7  1  0
 18 13  1  0
 29 19  1  0
 28 22  1  0
  3 30  1  0
  4 31  1  0
  4 32  1  0
  8 33  1  0
  8 34  1  0
  9 35  1  0
  9 36  1  0
 10 37  1  1
 11 38  1  0
 12 39  1  6
 14 40  1  0
 15 41  1  0
 16 42  1  0
 17 43  1  0
 18 44  1  0
 20 45  1  0
 21 46  1  0
 23 47  1  0
 26 48  1  0
 27 49  1  0
M  END
>  <smiles>  (38) 
O=C(NCC(=O)N1CC[C@H](O)[C@H]1c1ccccc1)c1ccc2cc(F)ccc2n1

>  <score_type>  (38) 
oracle

>  <origin>  (38) 
autodockgpu

>  <m_score__min__energy>  (38) 
-8.9399999999999995

>  <m_primary>  (38) 
energy

>  <rmsd>  (38) 
1.5906899657325682

>  <m_score__min__rmsd>  (38) 
1.5906899657325682

>  <meeko>  (38) 
{"free_energy": -8.07, "intermolecular_energy": -9.86, "internal_energy": -1.88, "cluster_size": 8, "cluster_id": 4, "rank_in_cluster": 6}

>  <energy>  (38) 
-8.19

>  <cluster_rmsd>  (38) 
1.1

>  <cluster>  (38) 
3

$$$$

     RDKit          3D

 49 52  0  0  0  0  0  0  0  0999 V2000
  139.4220   70.6610  221.1390 O   0  0  0  0  0  0  0  0  0  0  0  0
  139.5140   71.3000  222.2180 C   0  0  0  0  0  0  0  0  0  0  0  0
  139.5170   72.7160  222.3040 N   0  0  0  0  0  0  0  0  0  0  0  0
  139.4100   73.5150  221.0680 C   0  0  0  0  0  0  0  0  0  0  0  0
  140.1830   74.7460  221.1670 C   0  0  0  0  0  0  0  0  0  0  0  0
  140.2250   75.2800  222.3490 O   0  0  0  0  0  0  0  0  0  0  0  0
  140.8850   75.4480  220.1850 N   0  0  0  0  0  0  0  0  0  0  0  0
  140.1840   76.5810  219.4840 C   0  0  0  0  0  0  0  0  0  0  0  0
  141.3060   77.5260  219.1250 C   0  0  0  0  0  0  0  0  0  0  0  0
  142.5660   76.8810  219.6580 C   0  0  2  0  0  0  0  0  0  0  0  0
  143.6910   77.1670  218.9280 O   0  0  0  0  0  0  0  0  0  0  0  0
  142.1510   75.4050  219.5650 C   0  0  1  0  0  0  0  0  0  0  0  0
  143.1930   74.5270  220.0400 C   0  0  0  0  0  0  0  0  0  0  0  0
  144.4780   74.8590  220.3800 C   0  0  0  0  0  0  0  0  0  0  0  0
  145.4180   73.9570  220.8320 C   0  0  0  0  0  0  0  0  0  0  0  0
  145.0730   72.6290  220.9590 C   0  0  0  0  0  0  0  0  0  0  0  0
  143.7940   72.2470  220.6280 C   0  0  0  0  0  0  0  0  0  0  0  0
  142.8800   73.1580  220.1840 C   0  0  0  0  0  0  0  0  0  0  0  0
  139.6230   70.5480  223.4720 C   0  0  0  0  0  0  0  0  0  0  0  0
  139.1360   69.2520  223.5680 C   0  0  0  0  0  0  0  0  0  0  0  0
  139.2220   68.5260  224.7180 C   0  0  0  0  0  0  0  0  0  0  0  0
  139.8160   69.1160  225.8120 C   0  0  0  0  0  0  0  0  0  0  0  0
  139.9150   68.3970  226.9930 C   0  0  0  0  0  0  0  0  0  0  0  0
  140.5070   68.9740  228.0920 C   0  0  0  0  0  0  0  0  0  0  0  0
  140.6290   68.3140  229.2720 F   0  0  0  0  0  0  0  0  0  0  0  0
  141.0100   70.2770  228.0350 C   0  0  0  0  0  0  0  0  0  0  0  0
  140.9050   70.9810  226.8530 C   0  0  0  0  0  0  0  0  0  0  0  0
  140.3110   70.4070  225.7440 C   0  0  0  0  0  0  0  0  0  0  0  0
  140.1880   71.0580  224.5730 N   0  0  0  0  0  0  0  0  0  0  0  0
  139.5950   73.2030  223.2260 H   0  0  0  0  0  0  0  0  0  0  0  0
  139.7883   72.9209  220.2230 H   0  0  0  0  0  0  0  0  0  0  0  0
  138.3532   73.7790  220.9147 H   0  0  0  0  0  0  0  0  0  0  0  0
  139.6672   76.2242  218.5809 H   0  0  0  0  0  0  0  0  0  0  0  0
  139.4096   77.0541  220.1057 H   0  0  0  0  0  0  0  0  0  0  0  0
  141.3698   77.6497  218.0338 H   0  0  0  0  0  0  0  0  0  0  0  0
  141.1483   78.5270  219.5530 H   0  0  0  0  0  0  0  0  0  0  0  0
  142.8654   77.2260  220.6587 H   0  0  0  0  0  0  0  0  0  0  0  0
  144.3960   77.4490  219.5880 H   0  0  0  0  0  0  0  0  0  0  0  0
  142.0377   74.9463  218.5716 H   0  0  0  0  0  0  0  0  0  0  0  0
  144.7792   75.9128  220.2864 H   0  0  0  0  0  0  0  0  0  0  0  0
  146.4331   74.2942  221.0886 H   0  0  0  0  0  0  0  0  0  0  0  0
  145.8049   71.8902  221.3175 H   0  0  0  0  0  0  0  0  0  0  0  0
  143.5031   71.1904  220.7226 H   0  0  0  0  0  0  0  0  0  0  0  0
  141.8664   72.8144  219.9301 H   0  0  0  0  0  0  0  0  0  0  0  0
  138.6644   68.7951  222.6855 H   0  0  0  0  0  0  0  0  0  0  0  0
  138.8290   67.5000  224.7711 H   0  0  0  0  0  0  0  0  0  0  0  0
  139.5224   67.3711  227.0508 H   0  0  0  0  0  0  0  0  0  0  0  0
  141.4816   70.7335  228.9177 H   0  0  0  0  0  0  0  0  0  0  0  0
  141.2969   72.0070  226.7924 H   0  0  0  0  0  0  0  0  0  0  0  0
  1  2  2  0
  2  3  1  0
  3  4  1  0
  4  5  1  0
  5  6  2  0
  5  7  1  0
  7  8  1  0
  8  9  1  0
  9 10  1  0
 10 11  1  0
 10 12  1  0
 12 13  1  0
 13 14  2  0
 14 15  1  0
 15 16  2  0
 16 17  1  0
 17 18  2  0
  2 19  1  0
 19 20  2  0
 20 21  1  0
 21 22  2  0
 22 23  1  0
 23 24  2  0
 24 25  1  0
 24 26  1  0
 26 27  2  0
 27 28  1  0
 28 29  2  0
 12  7  1  0
 18 13  1  0
 29 19  1  0
 28 22  1  0
  3 30  1  0
  4 31  1  0
  4 32  1  0
  8 33  1  0
  8 34  1  0
  9 35  1  0
  9 36  1  0
 10 37  1  1
 11 38  1  0
 12 39  1  6
 14 40  1  0
 15 41  1  0
 16 42  1  0
 17 43  1  0
 18 44  1  0
 20 45  1  0
 21 46  1  0
 23 47  1  0
 26 48  1  0
 27 49  1  0
M  END
>  <smiles>  (39) 
O=C(NCC(=O)N1CC[C@H](O)[C@H]1c1ccccc1)c1ccc2cc(F)ccc2n1

>  <score_type>  (39) 
oracle

>  <origin>  (39) 
autodockgpu

>  <m_score__min__energy>  (39) 
-8.9399999999999995

>  <m_primary>  (39) 
energy

>  <rmsd>  (39) 
1.821812953352821

>  <m_score__min__rmsd>  (39) 
1.821812953352821

>  <meeko>  (39) 
{"free_energy": -8.34, "intermolecular_energy": -10.13, "internal_energy": -1.99, "cluster_size": 14, "cluster_id": 3, "rank_in_cluster": 6}

>  <energy>  (39) 
-8.17

>  <cluster_rmsd>  (39) 
0.93

>  <cluster>  (39) 
3

$$$$

     RDKit          3D

 49 52  0  0  0  0  0  0  0  0999 V2000
  141.2200   71.6940  221.4540 O   0  0  0  0  0  0  0  0  0  0  0  0
  140.5380   72.2130  222.3740 C   0  0  0  0  0  0  0  0  0  0  0  0
  140.0010   73.5240  222.3210 N   0  0  0  0  0  0  0  0  0  0  0  0
  140.2430   74.3570  221.1260 C   0  0  0  0  0  0  0  0  0  0  0  0
  140.6190   75.7140  221.4960 C   0  0  0  0  0  0  0  0  0  0  0  0
  140.1140   76.1450  222.6120 O   0  0  0  0  0  0  0  0  0  0  0  0
  141.4390   76.6310  220.8350 N   0  0  0  0  0  0  0  0  0  0  0  0
  142.1890   76.1620  219.6160 C   0  0  0  0  0  0  0  0  0  0  0  0
  142.3150   77.4080  218.7740 C   0  0  0  0  0  0  0  0  0  0  0  0
  141.6150   78.4980  219.5540 C   0  0  2  0  0  0  0  0  0  0  0  0
  142.1370   79.7510  219.3550 O   0  0  0  0  0  0  0  0  0  0  0  0
  141.8450   77.9740  220.9790 C   0  0  1  0  0  0  0  0  0  0  0  0
  141.2490   78.8380  221.9690 C   0  0  0  0  0  0  0  0  0  0  0  0
  141.8870   79.5590  222.9450 C   0  0  0  0  0  0  0  0  0  0  0  0
  141.2440   80.3690  223.8560 C   0  0  0  0  0  0  0  0  0  0  0  0
  139.8710   80.4810  223.8090 C   0  0  0  0  0  0  0  0  0  0  0  0
  139.1870   79.7750  222.8470 C   0  0  0  0  0  0  0  0  0  0  0  0
  139.8460   78.9800  221.9550 C   0  0  0  0  0  0  0  0  0  0  0  0
  140.2730   71.4240  223.5810 C   0  0  0  0  0  0  0  0  0  0  0  0
  139.5720   70.2280  223.5080 C   0  0  0  0  0  0  0  0  0  0  0  0
  139.3090   69.4710  224.6100 C   0  0  0  0  0  0  0  0  0  0  0  0
  139.7620   69.9250  225.8290 C   0  0  0  0  0  0  0  0  0  0  0  0
  139.5060   69.1720  226.9640 C   0  0  0  0  0  0  0  0  0  0  0  0
  139.9540   69.6130  228.1880 C   0  0  0  0  0  0  0  0  0  0  0  0
  139.7300   68.9140  229.3300 F   0  0  0  0  0  0  0  0  0  0  0  0
  140.6630   70.8120  228.3030 C   0  0  0  0  0  0  0  0  0  0  0  0
  140.9100   71.5510  227.1640 C   0  0  0  0  0  0  0  0  0  0  0  0
  140.4640   71.1140  225.9310 C   0  0  0  0  0  0  0  0  0  0  0  0
  140.6830   71.8030  224.7970 N   0  0  0  0  0  0  0  0  0  0  0  0
  139.4380   73.9130  223.1120 H   0  0  0  0  0  0  0  0  0  0  0  0
  141.0549   73.9085  220.5347 H   0  0  0  0  0  0  0  0  0  0  0  0
  139.3138   74.4014  220.5390 H   0  0  0  0  0  0  0  0  0  0  0  0
  143.1802   75.7721  219.8909 H   0  0  0  0  0  0  0  0  0  0  0  0
  141.6788   75.3414  219.0904 H   0  0  0  0  0  0  0  0  0  0  0  0
  143.3741   77.6637  218.6226 H   0  0  0  0  0  0  0  0  0  0  0  0
  141.8714   77.2720  217.7766 H   0  0  0  0  0  0  0  0  0  0  0  0
  140.5637   78.6554  219.2713 H   0  0  0  0  0  0  0  0  0  0  0  0
  142.8190   79.8950  220.0800 H   0  0  0  0  0  0  0  0  0  0  0  0
  142.8647   77.9886  221.3913 H   0  0  0  0  0  0  0  0  0  0  0  0
  142.9830   79.4863  223.0049 H   0  0  0  0  0  0  0  0  0  0  0  0
  141.8208   80.9206  224.6130 H   0  0  0  0  0  0  0  0  0  0  0  0
  139.3343   81.1208  224.5250 H   0  0  0  0  0  0  0  0  0  0  0  0
  138.0909   79.8525  222.7959 H   0  0  0  0  0  0  0  0  0  0  0  0
  139.2635   78.4317  221.1999 H   0  0  0  0  0  0  0  0  0  0  0  0
  139.2167   69.8795  222.5270 H   0  0  0  0  0  0  0  0  0  0  0  0
  138.7519   68.5260  224.5286 H   0  0  0  0  0  0  0  0  0  0  0  0
  138.9479   68.2272  226.8868 H   0  0  0  0  0  0  0  0  0  0  0  0
  141.0179   71.1605  229.2841 H   0  0  0  0  0  0  0  0  0  0  0  0
  141.4670   72.4966  227.2381 H   0  0  0  0  0  0  0  0  0  0  0  0
  1  2  2  0
  2  3  1  0
  3  4  1  0
  4  5  1  0
  5  6  2  0
  5  7  1  0
  7  8  1  0
  8  9  1  0
  9 10  1  0
 10 11  1  0
 10 12  1  0
 12 13  1  0
 13 14  2  0
 14 15  1  0
 15 16  2  0
 16 17  1  0
 17 18  2  0
  2 19  1  0
 19 20  2  0
 20 21  1  0
 21 22  2  0
 22 23  1  0
 23 24  2  0
 24 25  1  0
 24 26  1  0
 26 27  2  0
 27 28  1  0
 28 29  2  0
 12  7  1  0
 18 13  1  0
 29 19  1  0
 28 22  1  0
  3 30  1  0
  4 31  1  0
  4 32  1  0
  8 33  1  0
  8 34  1  0
  9 35  1  0
  9 36  1  0
 10 37  1  6
 11 38  1  0
 12 39  1  1
 14 40  1  0
 15 41  1  0
 16 42  1  0
 17 43  1  0
 18 44  1  0
 20 45  1  0
 21 46  1  0
 23 47  1  0
 26 48  1  0
 27 49  1  0
M  END
>  <smiles>  (40) 
O=C(NCC(=O)N1CC[C@H](O)[C@H]1c1ccccc1)c1ccc2cc(F)ccc2n1

>  <score_type>  (40) 
oracle

>  <origin>  (40) 
autodockgpu

>  <m_score__min__energy>  (40) 
-8.9399999999999995

>  <m_primary>  (40) 
energy

>  <rmsd>  (40) 
2.4758966535957336

>  <m_score__min__rmsd>  (40) 
2.4758966535957336

>  <meeko>  (40) 
{"free_energy": -8.54, "intermolecular_energy": -10.33, "internal_energy": -1.63, "cluster_size": 16, "cluster_id": 2, "rank_in_cluster": 8}

>  <energy>  (40) 
-8.14

>  <cluster_rmsd>  (40) 
0.56

>  <cluster>  (40) 
3

$$$$

     RDKit          3D

 49 52  0  0  0  0  0  0  0  0999 V2000
  136.8510   75.3190  221.7090 O   0  0  0  0  0  0  0  0  0  0  0  0
  138.0370   75.4030  222.1170 C   0  0  0  0  0  0  0  0  0  0  0  0
  138.8840   74.2860  222.3350 N   0  0  0  0  0  0  0  0  0  0  0  0
  138.3670   72.9270  222.0780 C   0  0  0  0  0  0  0  0  0  0  0  0
  139.1090   71.9280  222.8340 C   0  0  0  0  0  0  0  0  0  0  0  0
  140.3590   72.2100  223.0460 O   0  0  0  0  0  0  0  0  0  0  0  0
  138.6880   70.7080  223.3670 N   0  0  0  0  0  0  0  0  0  0  0  0
  137.8660   69.7990  222.4930 C   0  0  0  0  0  0  0  0  0  0  0  0
  138.2160   68.4170  222.9890 C   0  0  0  0  0  0  0  0  0  0  0  0
  139.2240   68.6260  224.0960 C   0  0  2  0  0  0  0  0  0  0  0  0
  139.1820   67.6700  225.0780 O   0  0  0  0  0  0  0  0  0  0  0  0
  138.7730   70.0090  224.5890 C   0  0  1  0  0  0  0  0  0  0  0  0
  139.5970   70.4850  225.6730 C   0  0  0  0  0  0  0  0  0  0  0  0
  140.5410   71.4790  225.6340 C   0  0  0  0  0  0  0  0  0  0  0  0
  141.2890   71.8810  226.7200 C   0  0  0  0  0  0  0  0  0  0  0  0
  141.0990   71.2620  227.9370 C   0  0  0  0  0  0  0  0  0  0  0  0
  140.1630   70.2580  228.0250 C   0  0  0  0  0  0  0  0  0  0  0  0
  139.4340   69.8780  226.9360 C   0  0  0  0  0  0  0  0  0  0  0  0
  138.5930   76.7330  222.3860 C   0  0  0  0  0  0  0  0  0  0  0  0
  137.7970   77.8660  222.3010 C   0  0  0  0  0  0  0  0  0  0  0  0
  138.2830   79.1160  222.5460 C   0  0  0  0  0  0  0  0  0  0  0  0
  139.6110   79.2380  222.8870 C   0  0  0  0  0  0  0  0  0  0  0  0
  140.1280   80.4990  223.1410 C   0  0  0  0  0  0  0  0  0  0  0  0
  141.4530   80.6340  223.4840 C   0  0  0  0  0  0  0  0  0  0  0  0
  142.0090   81.8460  223.7420 F   0  0  0  0  0  0  0  0  0  0  0  0
  142.2870   79.5170  223.5800 C   0  0  0  0  0  0  0  0  0  0  0  0
  141.7590   78.2670  223.3260 C   0  0  0  0  0  0  0  0  0  0  0  0
  140.4290   78.1240  222.9800 C   0  0  0  0  0  0  0  0  0  0  0  0
  139.8740   76.9250  222.7240 N   0  0  0  0  0  0  0  0  0  0  0  0
  139.8650   74.4070  222.6740 H   0  0  0  0  0  0  0  0  0  0  0  0
  137.3077   72.8849  222.3716 H   0  0  0  0  0  0  0  0  0  0  0  0
  138.4823   72.7082  221.0062 H   0  0  0  0  0  0  0  0  0  0  0  0
  136.7918   70.0005  222.6175 H   0  0  0  0  0  0  0  0  0  0  0  0
  138.0742   69.9337  221.4213 H   0  0  0  0  0  0  0  0  0  0  0  0
  137.3201   67.9096  223.3761 H   0  0  0  0  0  0  0  0  0  0  0  0
  138.6203   67.7858  222.1840 H   0  0  0  0  0  0  0  0  0  0  0  0
  140.2733   68.5572  223.7732 H   0  0  0  0  0  0  0  0  0  0  0  0
  140.0470   67.1590  225.0190 H   0  0  0  0  0  0  0  0  0  0  0  0
  137.8090   70.0986  225.1112 H   0  0  0  0  0  0  0  0  0  0  0  0
  140.7124   71.9884  224.6742 H   0  0  0  0  0  0  0  0  0  0  0  0
  142.0299   72.6875  226.6165 H   0  0  0  0  0  0  0  0  0  0  0  0
  141.6833   71.5644  228.8186 H   0  0  0  0  0  0  0  0  0  0  0  0
  139.9995   69.7534  228.9887 H   0  0  0  0  0  0  0  0  0  0  0  0
  138.6944   69.0713  227.0466 H   0  0  0  0  0  0  0  0  0  0  0  0
  136.7379   77.7520  222.0266 H   0  0  0  0  0  0  0  0  0  0  0  0
  137.6333   80.0006  222.4734 H   0  0  0  0  0  0  0  0  0  0  0  0
  139.4822   81.3865  223.0686 H   0  0  0  0  0  0  0  0  0  0  0  0
  143.3463   79.6317  223.8533 H   0  0  0  0  0  0  0  0  0  0  0  0
  142.4023   77.3777  223.3997 H   0  0  0  0  0  0  0  0  0  0  0  0
  1  2  2  0
  2  3  1  0
  3  4  1  0
  4  5  1  0
  5  6  2  0
  5  7  1  0
  7  8  1  0
  8  9  1  0
  9 10  1  0
 10 11  1  0
 10 12  1  0
 12 13  1  0
 13 14  2  0
 14 15  1  0
 15 16  2  0
 16 17  1  0
 17 18  2  0
  2 19  1  0
 19 20  2  0
 20 21  1  0
 21 22  2  0
 22 23  1  0
 23 24  2  0
 24 25  1  0
 24 26  1  0
 26 27  2  0
 27 28  1  0
 28 29  2  0
 12  7  1  0
 18 13  1  0
 29 19  1  0
 28 22  1  0
  3 30  1  0
  4 31  1  0
  4 32  1  0
  8 33  1  0
  8 34  1  0
  9 35  1  0
  9 36  1  0
 10 37  1  6
 11 38  1  0
 12 39  1  1
 14 40  1  0
 15 41  1  0
 16 42  1  0
 17 43  1  0
 18 44  1  0
 20 45  1  0
 21 46  1  0
 23 47  1  0
 26 48  1  0
 27 49  1  0
M  END
>  <smiles>  (41) 
O=C(NCC(=O)N1CC[C@H](O)[C@H]1c1ccccc1)c1ccc2cc(F)ccc2n1

>  <score_type>  (41) 
oracle

>  <origin>  (41) 
autodockgpu

>  <m_score__min__energy>  (41) 
-8.9399999999999995

>  <m_primary>  (41) 
energy

>  <rmsd>  (41) 
8.680675612986468

>  <m_score__min__rmsd>  (41) 
8.680675612986468

>  <meeko>  (41) 
{"free_energy": -8.25, "intermolecular_energy": -10.04, "internal_energy": -1.77, "cluster_size": 12, "cluster_id": 1, "rank_in_cluster": 6}

>  <energy>  (41) 
-8.12

>  <cluster_rmsd>  (41) 
1.94

>  <cluster>  (41) 
3

$$$$

     RDKit          3D

 49 52  0  0  0  0  0  0  0  0999 V2000
  141.9420   73.3660  220.4170 O   0  0  0  0  0  0  0  0  0  0  0  0
  141.2080   74.0340  221.1890 C   0  0  0  0  0  0  0  0  0  0  0  0
  140.2250   73.4670  222.0390 N   0  0  0  0  0  0  0  0  0  0  0  0
  140.0260   72.0040  222.0380 C   0  0  0  0  0  0  0  0  0  0  0  0
  138.8220   71.6350  222.7720 C   0  0  0  0  0  0  0  0  0  0  0  0
  137.9260   72.5680  222.8710 O   0  0  0  0  0  0  0  0  0  0  0  0
  138.4810   70.4300  223.3900 N   0  0  0  0  0  0  0  0  0  0  0  0
  137.6510   69.4440  222.6100 C   0  0  0  0  0  0  0  0  0  0  0  0
  138.0850   68.1050  223.1570 C   0  0  0  0  0  0  0  0  0  0  0  0
  139.1420   68.4120  224.1940 C   0  0  2  0  0  0  0  0  0  0  0  0
  139.1920   67.5090  225.2250 O   0  0  0  0  0  0  0  0  0  0  0  0
  138.6610   69.8010  224.6390 C   0  0  1  0  0  0  0  0  0  0  0  0
  139.5220   70.3660  225.6490 C   0  0  0  0  0  0  0  0  0  0  0  0
  140.4230   71.3890  225.5050 C   0  0  0  0  0  0  0  0  0  0  0  0
  141.2120   71.8770  226.5250 C   0  0  0  0  0  0  0  0  0  0  0  0
  141.1100   71.3220  227.7820 C   0  0  0  0  0  0  0  0  0  0  0  0
  140.2180   70.2920  227.9760 C   0  0  0  0  0  0  0  0  0  0  0  0
  139.4480   69.8260  226.9500 C   0  0  0  0  0  0  0  0  0  0  0  0
  141.3690   75.4910  221.2230 C   0  0  0  0  0  0  0  0  0  0  0  0
  141.9850   76.1620  220.1760 C   0  0  0  0  0  0  0  0  0  0  0  0
  142.1510   77.5150  220.1760 C   0  0  0  0  0  0  0  0  0  0  0  0
  141.6830   78.2230  221.2610 C   0  0  0  0  0  0  0  0  0  0  0  0
  141.8400   79.6000  221.2840 C   0  0  0  0  0  0  0  0  0  0  0  0
  141.3770   80.3190  222.3620 C   0  0  0  0  0  0  0  0  0  0  0  0
  141.5050   81.6690  222.4340 F   0  0  0  0  0  0  0  0  0  0  0  0
  140.7500   79.6800  223.4350 C   0  0  0  0  0  0  0  0  0  0  0  0
  140.6010   78.3080  223.3980 C   0  0  0  0  0  0  0  0  0  0  0  0
  141.0640   77.5790  222.3190 C   0  0  0  0  0  0  0  0  0  0  0  0
  140.9390   76.2420  222.2440 N   0  0  0  0  0  0  0  0  0  0  0  0
  139.6380   74.0650  222.6650 H   0  0  0  0  0  0  0  0  0  0  0  0
  139.9337   71.6552  220.9988 H   0  0  0  0  0  0  0  0  0  0  0  0
  140.8910   71.5346  222.5294 H   0  0  0  0  0  0  0  0  0  0  0  0
  136.5775   69.6101  222.7835 H   0  0  0  0  0  0  0  0  0  0  0  0
  137.7951   69.5291  221.5228 H   0  0  0  0  0  0  0  0  0  0  0  0
  137.2332   67.5849  223.6194 H   0  0  0  0  0  0  0  0  0  0  0  0
  138.4717   67.4477  222.3643 H   0  0  0  0  0  0  0  0  0  0  0  0
  140.1746   68.3665  223.8175 H   0  0  0  0  0  0  0  0  0  0  0  0
  140.1570   67.2440  225.3270 H   0  0  0  0  0  0  0  0  0  0  0  0
  137.7234   69.8808  225.2087 H   0  0  0  0  0  0  0  0  0  0  0  0
  140.5230   71.8504  224.5115 H   0  0  0  0  0  0  0  0  0  0  0  0
  141.9159   72.7012  226.3371 H   0  0  0  0  0  0  0  0  0  0  0  0
  141.7281   71.6941  228.6124 H   0  0  0  0  0  0  0  0  0  0  0  0
  140.1242   69.8374  228.9733 H   0  0  0  0  0  0  0  0  0  0  0  0
  138.7461   69.0016  227.1442 H   0  0  0  0  0  0  0  0  0  0  0  0
  142.3520   75.5820  219.3164 H   0  0  0  0  0  0  0  0  0  0  0  0
  142.6435   78.0257  219.3354 H   0  0  0  0  0  0  0  0  0  0  0  0
  142.3318   80.1149  220.4455 H   0  0  0  0  0  0  0  0  0  0  0  0
  140.3816   80.2600  224.2940 H   0  0  0  0  0  0  0  0  0  0  0  0
  140.1093   77.7904  224.2349 H   0  0  0  0  0  0  0  0  0  0  0  0
  1  2  2  0
  2  3  1  0
  3  4  1  0
  4  5  1  0
  5  6  2  0
  5  7  1  0
  7  8  1  0
  8  9  1  0
  9 10  1  0
 10 11  1  0
 10 12  1  0
 12 13  1  0
 13 14  2  0
 14 15  1  0
 15 16  2  0
 16 17  1  0
 17 18  2  0
  2 19  1  0
 19 20  2  0
 20 21  1  0
 21 22  2  0
 22 23  1  0
 23 24  2  0
 24 25  1  0
 24 26  1  0
 26 27  2  0
 27 28  1  0
 28 29  2  0
 12  7  1  0
 18 13  1  0
 29 19  1  0
 28 22  1  0
  3 30  1  0
  4 31  1  0
  4 32  1  0
  8 33  1  0
  8 34  1  0
  9 35  1  0
  9 36  1  0
 10 37  1  6
 11 38  1  0
 12 39  1  1
 14 40  1  0
 15 41  1  0
 16 42  1  0
 17 43  1  0
 18 44  1  0
 20 45  1  0
 21 46  1  0
 23 47  1  0
 26 48  1  0
 27 49  1  0
M  END
>  <smiles>  (42) 
O=C(NCC(=O)N1CC[C@H](O)[C@H]1c1ccccc1)c1ccc2cc(F)ccc2n1

>  <score_type>  (42) 
oracle

>  <origin>  (42) 
autodockgpu

>  <m_score__min__energy>  (42) 
-8.9399999999999995

>  <m_primary>  (42) 
energy

>  <rmsd>  (42) 
8.717301869551118

>  <m_score__min__rmsd>  (42) 
8.717301869551118

>  <meeko>  (42) 
{"free_energy": -8.1, "intermolecular_energy": -9.89, "internal_energy": -1.91, "cluster_size": 12, "cluster_id": 1, "rank_in_cluster": 11}

>  <energy>  (42) 
-8.04

>  <cluster_rmsd>  (42) 
1.85

>  <cluster>  (42) 
3

$$$$

     RDKit          3D

 49 52  0  0  0  0  0  0  0  0999 V2000
  139.3070   70.5970  221.3260 O   0  0  0  0  0  0  0  0  0  0  0  0
  139.4460   71.2210  222.4080 C   0  0  0  0  0  0  0  0  0  0  0  0
  139.4650   72.6360  222.5130 N   0  0  0  0  0  0  0  0  0  0  0  0
  139.3160   73.4520  221.2920 C   0  0  0  0  0  0  0  0  0  0  0  0
  140.0180   74.7220  221.4180 C   0  0  0  0  0  0  0  0  0  0  0  0
  139.9580   75.2740  222.5910 O   0  0  0  0  0  0  0  0  0  0  0  0
  140.7470   75.4440  220.4700 N   0  0  0  0  0  0  0  0  0  0  0  0
  140.1720   76.7450  219.9740 C   0  0  0  0  0  0  0  0  0  0  0  0
  141.3920   77.5670  219.6360 C   0  0  0  0  0  0  0  0  0  0  0  0
  142.5780   76.6940  219.9770 C   0  0  2  0  0  0  0  0  0  0  0  0
  143.6810   76.9170  219.1930 O   0  0  0  0  0  0  0  0  0  0  0  0
  141.9480   75.3120  219.7430 C   0  0  1  0  0  0  0  0  0  0  0  0
  142.8810   74.2460  220.0180 C   0  0  0  0  0  0  0  0  0  0  0  0
  144.1810   74.3580  220.4360 C   0  0  0  0  0  0  0  0  0  0  0  0
  145.0120   73.2850  220.6820 C   0  0  0  0  0  0  0  0  0  0  0  0
  144.5320   72.0050  220.5050 C   0  0  0  0  0  0  0  0  0  0  0  0
  143.2320   71.8430  220.0850 C   0  0  0  0  0  0  0  0  0  0  0  0
  142.4290   72.9200  219.8490 C   0  0  0  0  0  0  0  0  0  0  0  0
  139.5970   70.4520  223.6470 C   0  0  0  0  0  0  0  0  0  0  0  0
  139.1480   69.1410  223.7280 C   0  0  0  0  0  0  0  0  0  0  0  0
  139.2740   68.3990  224.8650 C   0  0  0  0  0  0  0  0  0  0  0  0
  139.8700   68.9870  225.9580 C   0  0  0  0  0  0  0  0  0  0  0  0
  140.0100   68.2510  227.1250 C   0  0  0  0  0  0  0  0  0  0  0  0
  140.6040   68.8260  228.2240 C   0  0  0  0  0  0  0  0  0  0  0  0
  140.7640   68.1500  229.3900 F   0  0  0  0  0  0  0  0  0  0  0  0
  141.0690   70.1430  228.1810 C   0  0  0  0  0  0  0  0  0  0  0  0
  140.9240   70.8630  227.0130 C   0  0  0  0  0  0  0  0  0  0  0  0
  140.3280   70.2920  225.9050 C   0  0  0  0  0  0  0  0  0  0  0  0
  140.1670   70.9590  224.7470 N   0  0  0  0  0  0  0  0  0  0  0  0
  139.5820   73.1100  223.4370 H   0  0  0  0  0  0  0  0  0  0  0  0
  139.7292   72.8970  220.4369 H   0  0  0  0  0  0  0  0  0  0  0  0
  138.2464   73.6590  221.1399 H   0  0  0  0  0  0  0  0  0  0  0  0
  139.5478   76.5839  219.0827 H   0  0  0  0  0  0  0  0  0  0  0  0
  139.5194   77.2330  220.7130 H   0  0  0  0  0  0  0  0  0  0  0  0
  141.3984   77.8226  218.5661 H   0  0  0  0  0  0  0  0  0  0  0  0
  141.4110   78.5151  220.1934 H   0  0  0  0  0  0  0  0  0  0  0  0
  142.9913   76.8626  220.9824 H   0  0  0  0  0  0  0  0  0  0  0  0
  143.9450   77.8760  219.3380 H   0  0  0  0  0  0  0  0  0  0  0  0
  141.7027   75.0075  218.7148 H   0  0  0  0  0  0  0  0  0  0  0  0
  144.5882   75.3689  220.5850 H   0  0  0  0  0  0  0  0  0  0  0  0
  146.0471   73.4490  221.0160 H   0  0  0  0  0  0  0  0  0  0  0  0
  145.1742   71.1324  220.6954 H   0  0  0  0  0  0  0  0  0  0  0  0
  142.8336   70.8284  219.9371 H   0  0  0  0  0  0  0  0  0  0  0  0
  141.3947   72.7492  219.5158 H   0  0  0  0  0  0  0  0  0  0  0  0
  138.6748   68.6856  222.8456 H   0  0  0  0  0  0  0  0  0  0  0  0
  138.9104   67.3617  224.9077 H   0  0  0  0  0  0  0  0  0  0  0  0
  139.6480   67.2133  227.1713 H   0  0  0  0  0  0  0  0  0  0  0  0
  141.5426   70.5980  229.0634 H   0  0  0  0  0  0  0  0  0  0  0  0
  141.2860   71.9005  226.9635 H   0  0  0  0  0  0  0  0  0  0  0  0
  1  2  2  0
  2  3  1  0
  3  4  1  0
  4  5  1  0
  5  6  2  0
  5  7  1  0
  7  8  1  0
  8  9  1  0
  9 10  1  0
 10 11  1  0
 10 12  1  0
 12 13  1  0
 13 14  2  0
 14 15  1  0
 15 16  2  0
 16 17  1  0
 17 18  2  0
  2 19  1  0
 19 20  2  0
 20 21  1  0
 21 22  2  0
 22 23  1  0
 23 24  2  0
 24 25  1  0
 24 26  1  0
 26 27  2  0
 27 28  1  0
 28 29  2  0
 12  7  1  0
 18 13  1  0
 29 19  1  0
 28 22  1  0
  3 30  1  0
  4 31  1  0
  4 32  1  0
  8 33  1  0
  8 34  1  0
  9 35  1  0
  9 36  1  0
 10 37  1  1
 11 38  1  0
 12 39  1  6
 14 40  1  0
 15 41  1  0
 16 42  1  0
 17 43  1  0
 18 44  1  0
 20 45  1  0
 21 46  1  0
 23 47  1  0
 26 48  1  0
 27 49  1  0
M  END
>  <smiles>  (43) 
O=C(NCC(=O)N1CC[C@H](O)[C@H]1c1ccccc1)c1ccc2cc(F)ccc2n1

>  <score_type>  (43) 
oracle

>  <origin>  (43) 
autodockgpu

>  <m_score__min__energy>  (43) 
-8.9399999999999995

>  <m_primary>  (43) 
energy

>  <rmsd>  (43) 
1.9124973726985184

>  <m_score__min__rmsd>  (43) 
1.9124973726985184

>  <meeko>  (43) 
{"free_energy": -8.04, "intermolecular_energy": -9.83, "internal_energy": -2.04, "cluster_size": 14, "cluster_id": 3, "rank_in_cluster": 14}

>  <energy>  (43) 
-8.44

>  <cluster_rmsd>  (43) 
0.0

>  <cluster>  (43) 
4

$$$$

     RDKit          3D

 49 52  0  0  0  0  0  0  0  0999 V2000
  140.7700   73.5600  220.4420 O   0  0  0  0  0  0  0  0  0  0  0  0
  140.2300   74.3450  221.2630 C   0  0  0  0  0  0  0  0  0  0  0  0
  139.1570   73.9850  222.1180 N   0  0  0  0  0  0  0  0  0  0  0  0
  138.6190   72.6110  222.0610 C   0  0  0  0  0  0  0  0  0  0  0  0
  139.3340   71.7260  222.9710 C   0  0  0  0  0  0  0  0  0  0  0  0
  140.5530   72.0820  223.2450 O   0  0  0  0  0  0  0  0  0  0  0  0
  138.9150   70.5490  223.5950 N   0  0  0  0  0  0  0  0  0  0  0  0
  138.1230   69.5600  222.7820 C   0  0  0  0  0  0  0  0  0  0  0  0
  138.4780   68.2280  223.3990 C   0  0  0  0  0  0  0  0  0  0  0  0
  139.4590   68.5410  224.5050 C   0  0  2  0  0  0  0  0  0  0  0  0
  139.4070   67.6700  225.5620 O   0  0  0  0  0  0  0  0  0  0  0  0
  138.9820   69.9550  224.8720 C   0  0  1  0  0  0  0  0  0  0  0  0
  139.7780   70.5300  225.9290 C   0  0  0  0  0  0  0  0  0  0  0  0
  140.7090   71.5300  225.8270 C   0  0  0  0  0  0  0  0  0  0  0  0
  141.4300   72.0300  226.8910 C   0  0  0  0  0  0  0  0  0  0  0  0
  141.2220   71.5110  228.1510 C   0  0  0  0  0  0  0  0  0  0  0  0
  140.2970   70.5050  228.3020 C   0  0  0  0  0  0  0  0  0  0  0  0
  139.5960   70.0260  227.2340 C   0  0  0  0  0  0  0  0  0  0  0  0
  140.7310   75.7200  221.3530 C   0  0  0  0  0  0  0  0  0  0  0  0
  141.6250   76.2130  220.4130 C   0  0  0  0  0  0  0  0  0  0  0  0
  142.1090   77.4860  220.4680 C   0  0  0  0  0  0  0  0  0  0  0  0
  141.6850   78.2950  221.4990 C   0  0  0  0  0  0  0  0  0  0  0  0
  142.1640   79.5940  221.5750 C   0  0  0  0  0  0  0  0  0  0  0  0
  141.7480   80.4120  222.5990 C   0  0  0  0  0  0  0  0  0  0  0  0
  142.1860   81.6920  222.7210 F   0  0  0  0  0  0  0  0  0  0  0  0
  140.8480   79.9520  223.5650 C   0  0  0  0  0  0  0  0  0  0  0  0
  140.3800   78.6570  223.4760 C   0  0  0  0  0  0  0  0  0  0  0  0
  140.7940   77.8290  222.4500 C   0  0  0  0  0  0  0  0  0  0  0  0
  140.3610   76.5610  222.3260 N   0  0  0  0  0  0  0  0  0  0  0  0
  138.7400   74.6730  222.7850 H   0  0  0  0  0  0  0  0  0  0  0  0
  137.5555   72.6304  222.3413 H   0  0  0  0  0  0  0  0  0  0  0  0
  138.7437   72.2308  221.0364 H   0  0  0  0  0  0  0  0  0  0  0  0
  137.0440   69.7568  222.8664 H   0  0  0  0  0  0  0  0  0  0  0  0
  138.3533   69.6083  221.7075 H   0  0  0  0  0  0  0  0  0  0  0  0
  137.5797   67.7429  223.8085 H   0  0  0  0  0  0  0  0  0  0  0  0
  138.9069   67.5375  222.6579 H   0  0  0  0  0  0  0  0  0  0  0  0
  140.5156   68.4589  224.2104 H   0  0  0  0  0  0  0  0  0  0  0  0
  140.3100   67.2290  225.6160 H   0  0  0  0  0  0  0  0  0  0  0  0
  138.0062   70.0751  225.3653 H   0  0  0  0  0  0  0  0  0  0  0  0
  140.8933   71.9619  224.8323 H   0  0  0  0  0  0  0  0  0  0  0  0
  142.1636   72.8348  226.7358 H   0  0  0  0  0  0  0  0  0  0  0  0
  141.7835   71.8931  229.0163 H   0  0  0  0  0  0  0  0  0  0  0  0
  140.1192   70.0792  229.3006 H   0  0  0  0  0  0  0  0  0  0  0  0
  138.8648   69.2203  227.3958 H   0  0  0  0  0  0  0  0  0  0  0  0
  141.9541   75.5542  219.5959 H   0  0  0  0  0  0  0  0  0  0  0  0
  142.8169   77.8561  219.7118 H   0  0  0  0  0  0  0  0  0  0  0  0
  142.8723   79.9678  220.8209 H   0  0  0  0  0  0  0  0  0  0  0  0
  140.5187   80.6110  224.3818 H   0  0  0  0  0  0  0  0  0  0  0  0
  139.6712   78.2805  224.2283 H   0  0  0  0  0  0  0  0  0  0  0  0
  1  2  2  0
  2  3  1  0
  3  4  1  0
  4  5  1  0
  5  6  2  0
  5  7  1  0
  7  8  1  0
  8  9  1  0
  9 10  1  0
 10 11  1  0
 10 12  1  0
 12 13  1  0
 13 14  2  0
 14 15  1  0
 15 16  2  0
 16 17  1  0
 17 18  2  0
  2 19  1  0
 19 20  2  0
 20 21  1  0
 21 22  2  0
 22 23  1  0
 23 24  2  0
 24 25  1  0
 24 26  1  0
 26 27  2  0
 27 28  1  0
 28 29  2  0
 12  7  1  0
 18 13  1  0
 29 19  1  0
 28 22  1  0
  3 30  1  0
  4 31  1  0
  4 32  1  0
  8 33  1  0
  8 34  1  0
  9 35  1  0
  9 36  1  0
 10 37  1  6
 11 38  1  0
 12 39  1  1
 14 40  1  0
 15 41  1  0
 16 42  1  0
 17 43  1  0
 18 44  1  0
 20 45  1  0
 21 46  1  0
 23 47  1  0
 26 48  1  0
 27 49  1  0
M  END
>  <smiles>  (44) 
O=C(NCC(=O)N1CC[C@H](O)[C@H]1c1ccccc1)c1ccc2cc(F)ccc2n1

>  <score_type>  (44) 
oracle

>  <origin>  (44) 
autodockgpu

>  <m_score__min__energy>  (44) 
-8.9399999999999995

>  <m_primary>  (44) 
energy

>  <rmsd>  (44) 
8.669845703525032

>  <m_score__min__rmsd>  (44) 
8.669845703525032

>  <meeko>  (44) 
{"free_energy": -8.91, "intermolecular_energy": -10.7, "internal_energy": -1.28, "cluster_size": 12, "cluster_id": 1, "rank_in_cluster": 2}

>  <energy>  (44) 
-8.41

>  <cluster_rmsd>  (44) 
0.12

>  <cluster>  (44) 
4

$$$$

     RDKit          3D

 49 52  0  0  0  0  0  0  0  0999 V2000
  142.2460   73.5000  220.7790 O   0  0  0  0  0  0  0  0  0  0  0  0
  141.3650   74.1560  221.3890 C   0  0  0  0  0  0  0  0  0  0  0  0
  140.3270   73.5690  222.1570 N   0  0  0  0  0  0  0  0  0  0  0  0
  140.2510   72.0980  222.2630 C   0  0  0  0  0  0  0  0  0  0  0  0
  138.9590   71.6730  222.7860 C   0  0  0  0  0  0  0  0  0  0  0  0
  138.0050   72.5470  222.6830 O   0  0  0  0  0  0  0  0  0  0  0  0
  138.5840   70.4680  223.3850 N   0  0  0  0  0  0  0  0  0  0  0  0
  137.7580   69.5020  222.5780 C   0  0  0  0  0  0  0  0  0  0  0  0
  138.1570   68.1520  223.1230 C   0  0  0  0  0  0  0  0  0  0  0  0
  139.1940   68.4330  224.1870 C   0  0  2  0  0  0  0  0  0  0  0  0
  139.2050   67.5210  225.2100 O   0  0  0  0  0  0  0  0  0  0  0  0
  138.7240   69.8260  224.6330 C   0  0  1  0  0  0  0  0  0  0  0  0
  139.5700   70.3690  225.6680 C   0  0  0  0  0  0  0  0  0  0  0  0
  140.4540   71.4120  225.5660 C   0  0  0  0  0  0  0  0  0  0  0  0
  141.2280   71.8760  226.6080 C   0  0  0  0  0  0  0  0  0  0  0  0
  141.1290   71.2740  227.8440 C   0  0  0  0  0  0  0  0  0  0  0  0
  140.2550   70.2220  227.9940 C   0  0  0  0  0  0  0  0  0  0  0  0
  139.4990   69.7800  226.9480 C   0  0  0  0  0  0  0  0  0  0  0  0
  141.4000   75.6190  221.3120 C   0  0  0  0  0  0  0  0  0  0  0  0
  141.8050   76.2590  220.1490 C   0  0  0  0  0  0  0  0  0  0  0  0
  141.8490   77.6180  220.0440 C   0  0  0  0  0  0  0  0  0  0  0  0
  141.4740   78.3630  221.1400 C   0  0  0  0  0  0  0  0  0  0  0  0
  141.5100   79.7460  221.0570 C   0  0  0  0  0  0  0  0  0  0  0  0
  141.1380   80.5020  222.1440 C   0  0  0  0  0  0  0  0  0  0  0  0
  141.1550   81.8600  222.1160 F   0  0  0  0  0  0  0  0  0  0  0  0
  140.7240   79.8950  223.3330 C   0  0  0  0  0  0  0  0  0  0  0  0
  140.6920   78.5170  223.4000 C   0  0  0  0  0  0  0  0  0  0  0  0
  141.0650   77.7510  222.3130 C   0  0  0  0  0  0  0  0  0  0  0  0
  141.0490   76.4060  222.3370 N   0  0  0  0  0  0  0  0  0  0  0  0
  139.6160   74.1570  222.6480 H   0  0  0  0  0  0  0  0  0  0  0  0
  140.3963   71.6585  221.2652 H   0  0  0  0  0  0  0  0  0  0  0  0
  141.0356   71.7578  222.9549 H   0  0  0  0  0  0  0  0  0  0  0  0
  136.6835   69.6839  222.7275 H   0  0  0  0  0  0  0  0  0  0  0  0
  137.9298   69.5935  221.4954 H   0  0  0  0  0  0  0  0  0  0  0  0
  137.2862   67.6421  223.5608 H   0  0  0  0  0  0  0  0  0  0  0  0
  138.5514   67.4950  222.3338 H   0  0  0  0  0  0  0  0  0  0  0  0
  140.2344   68.3743  223.8347 H   0  0  0  0  0  0  0  0  0  0  0  0
  140.1340   67.1360  225.2400 H   0  0  0  0  0  0  0  0  0  0  0  0
  137.7746   69.9160  225.1811 H   0  0  0  0  0  0  0  0  0  0  0  0
  140.5518   71.9104  224.5903 H   0  0  0  0  0  0  0  0  0  0  0  0
  141.9181   72.7187  226.4546 H   0  0  0  0  0  0  0  0  0  0  0  0
  141.7351   71.6267  228.6914 H   0  0  0  0  0  0  0  0  0  0  0  0
  140.1644   69.7293  228.9733 H   0  0  0  0  0  0  0  0  0  0  0  0
  138.8113   68.9365  227.1079 H   0  0  0  0  0  0  0  0  0  0  0  0
  142.1006   75.6493  219.2824 H   0  0  0  0  0  0  0  0  0  0  0  0
  142.1741   78.1043  219.1124 H   0  0  0  0  0  0  0  0  0  0  0  0
  141.8342   80.2361  220.1271 H   0  0  0  0  0  0  0  0  0  0  0  0
  140.4290   80.5047  224.1997 H   0  0  0  0  0  0  0  0  0  0  0  0
  140.3664   78.0241  224.3279 H   0  0  0  0  0  0  0  0  0  0  0  0
  1  2  2  0
  2  3  1  0
  3  4  1  0
  4  5  1  0
  5  6  2  0
  5  7  1  0
  7  8  1  0
  8  9  1  0
  9 10  1  0
 10 11  1  0
 10 12  1  0
 12 13  1  0
 13 14  2  0
 14 15  1  0
 15 16  2  0
 16 17  1  0
 17 18  2  0
  2 19  1  0
 19 20  2  0
 20 21  1  0
 21 22  2  0
 22 23  1  0
 23 24  2  0
 24 25  1  0
 24 26  1  0
 26 27  2  0
 27 28  1  0
 28 29  2  0
 12  7  1  0
 18 13  1  0
 29 19  1  0
 28 22  1  0
  3 30  1  0
  4 31  1  0
  4 32  1  0
  8 33  1  0
  8 34  1  0
  9 35  1  0
  9 36  1  0
 10 37  1  6
 11 38  1  0
 12 39  1  1
 14 40  1  0
 15 41  1  0
 16 42  1  0
 17 43  1  0
 18 44  1  0
 20 45  1  0
 21 46  1  0
 23 47  1  0
 26 48  1  0
 27 49  1  0
M  END
>  <smiles>  (45) 
O=C(NCC(=O)N1CC[C@H](O)[C@H]1c1ccccc1)c1ccc2cc(F)ccc2n1

>  <score_type>  (45) 
oracle

>  <origin>  (45) 
autodockgpu

>  <m_score__min__energy>  (45) 
-8.9399999999999995

>  <m_primary>  (45) 
energy

>  <rmsd>  (45) 
8.788546662788471

>  <m_score__min__rmsd>  (45) 
8.788546662788471

>  <meeko>  (45) 
{"free_energy": -8.24, "intermolecular_energy": -10.03, "internal_energy": -1.81, "cluster_size": 12, "cluster_id": 1, "rank_in_cluster": 7}

>  <energy>  (45) 
-8.41

>  <cluster_rmsd>  (45) 
0.19

>  <cluster>  (45) 
4

$$$$

     RDKit          3D

 49 52  0  0  0  0  0  0  0  0999 V2000
  141.1840   72.1070  221.4340 O   0  0  0  0  0  0  0  0  0  0  0  0
  140.3810   72.4460  222.3390 C   0  0  0  0  0  0  0  0  0  0  0  0
  139.6050   73.6340  222.3090 N   0  0  0  0  0  0  0  0  0  0  0  0
  139.7300   74.5480  221.1570 C   0  0  0  0  0  0  0  0  0  0  0  0
  140.4630   75.7540  221.5170 C   0  0  0  0  0  0  0  0  0  0  0  0
  140.2850   76.1680  222.7350 O   0  0  0  0  0  0  0  0  0  0  0  0
  141.3290   76.5410  220.7540 N   0  0  0  0  0  0  0  0  0  0  0  0
  141.9090   75.9440  219.4990 C   0  0  0  0  0  0  0  0  0  0  0  0
  142.1130   77.1400  218.5990 C   0  0  0  0  0  0  0  0  0  0  0  0
  141.6210   78.3320  219.3880 C   0  0  2  0  0  0  0  0  0  0  0  0
  142.2740   79.5020  219.0970 O   0  0  0  0  0  0  0  0  0  0  0  0
  141.9070   77.8260  220.8110 C   0  0  1  0  0  0  0  0  0  0  0  0
  141.5090   78.7870  221.8100 C   0  0  0  0  0  0  0  0  0  0  0  0
  140.2350   79.1620  222.1510 C   0  0  0  0  0  0  0  0  0  0  0  0
  139.9340   80.0910  223.1250 C   0  0  0  0  0  0  0  0  0  0  0  0
  140.9600   80.6990  223.8170 C   0  0  0  0  0  0  0  0  0  0  0  0
  142.2560   80.3560  223.5080 C   0  0  0  0  0  0  0  0  0  0  0  0
  142.5280   79.4340  222.5410 C   0  0  0  0  0  0  0  0  0  0  0  0
  140.2250   71.5690  223.5040 C   0  0  0  0  0  0  0  0  0  0  0  0
  139.5650   70.3530  223.3930 C   0  0  0  0  0  0  0  0  0  0  0  0
  139.4030   69.5150  224.4560 C   0  0  0  0  0  0  0  0  0  0  0  0
  139.9190   69.9050  225.6720 C   0  0  0  0  0  0  0  0  0  0  0  0
  139.7670   69.0690  226.7670 C   0  0  0  0  0  0  0  0  0  0  0  0
  140.2780   69.4470  227.9870 C   0  0  0  0  0  0  0  0  0  0  0  0
  140.1560   68.6660  229.0900 F   0  0  0  0  0  0  0  0  0  0  0  0
  140.9480   70.6640  228.1380 C   0  0  0  0  0  0  0  0  0  0  0  0
  141.0930   71.4860  227.0390 C   0  0  0  0  0  0  0  0  0  0  0  0
  140.5820   71.1130  225.8100 C   0  0  0  0  0  0  0  0  0  0  0  0
  140.7010   71.8840  224.7140 N   0  0  0  0  0  0  0  0  0  0  0  0
  138.9490   73.8730  223.0870 H   0  0  0  0  0  0  0  0  0  0  0  0
  140.2650   74.0319  220.3462 H   0  0  0  0  0  0  0  0  0  0  0  0
  138.7199   74.8388  220.8326 H   0  0  0  0  0  0  0  0  0  0  0  0
  142.8652   75.4421  219.7082 H   0  0  0  0  0  0  0  0  0  0  0  0
  141.2602   75.1771  219.0507 H   0  0  0  0  0  0  0  0  0  0  0  0
  143.1784   77.2568  218.3514 H   0  0  0  0  0  0  0  0  0  0  0  0
  141.5716   77.0303  217.6478 H   0  0  0  0  0  0  0  0  0  0  0  0
  140.5766   78.6115  219.1854 H   0  0  0  0  0  0  0  0  0  0  0  0
  143.2470   79.2710  218.9980 H   0  0  0  0  0  0  0  0  0  0  0  0
  142.9521   77.7250  221.1388 H   0  0  0  0  0  0  0  0  0  0  0  0
  139.3989   78.6915  221.6130 H   0  0  0  0  0  0  0  0  0  0  0  0
  138.8869   80.3441  223.3473 H   0  0  0  0  0  0  0  0  0  0  0  0
  140.7469   81.4423  224.5993 H   0  0  0  0  0  0  0  0  0  0  0  0
  143.0860   80.8332  224.0497 H   0  0  0  0  0  0  0  0  0  0  0  0
  143.5774   79.1861  222.3233 H   0  0  0  0  0  0  0  0  0  0  0  0
  139.1592   70.0556  222.4148 H   0  0  0  0  0  0  0  0  0  0  0  0
  138.8758   68.5559  224.3458 H   0  0  0  0  0  0  0  0  0  0  0  0
  139.2408   68.1088  226.6611 H   0  0  0  0  0  0  0  0  0  0  0  0
  141.3530   70.9618  229.1164 H   0  0  0  0  0  0  0  0  0  0  0  0
  141.6197   72.4462  227.1419 H   0  0  0  0  0  0  0  0  0  0  0  0
  1  2  2  0
  2  3  1  0
  3  4  1  0
  4  5  1  0
  5  6  2  0
  5  7  1  0
  7  8  1  0
  8  9  1  0
  9 10  1  0
 10 11  1  0
 10 12  1  0
 12 13  1  0
 13 14  2  0
 14 15  1  0
 15 16  2  0
 16 17  1  0
 17 18  2  0
  2 19  1  0
 19 20  2  0
 20 21  1  0
 21 22  2  0
 22 23  1  0
 23 24  2  0
 24 25  1  0
 24 26  1  0
 26 27  2  0
 27 28  1  0
 28 29  2  0
 12  7  1  0
 18 13  1  0
 29 19  1  0
 28 22  1  0
  3 30  1  0
  4 31  1  0
  4 32  1  0
  8 33  1  0
  8 34  1  0
  9 35  1  0
  9 36  1  0
 10 37  1  1
 11 38  1  0
 12 39  1  6
 14 40  1  0
 15 41  1  0
 16 42  1  0
 17 43  1  0
 18 44  1  0
 20 45  1  0
 21 46  1  0
 23 47  1  0
 26 48  1  0
 27 49  1  0
M  END
>  <smiles>  (46) 
O=C(NCC(=O)N1CC[C@H](O)[C@H]1c1ccccc1)c1ccc2cc(F)ccc2n1

>  <score_type>  (46) 
oracle

>  <origin>  (46) 
autodockgpu

>  <m_score__min__energy>  (46) 
-8.9399999999999995

>  <m_primary>  (46) 
energy

>  <rmsd>  (46) 
2.2226165502779924

>  <m_score__min__rmsd>  (46) 
2.2226165502779924

>  <meeko>  (46) 
{"free_energy": -8.89, "intermolecular_energy": -10.68, "internal_energy": -1.43, "cluster_size": 16, "cluster_id": 2, "rank_in_cluster": 1}

>  <energy>  (46) 
-8.17

>  <cluster_rmsd>  (46) 
1.11

>  <cluster>  (46) 
4

$$$$

     RDKit          3D

 49 52  0  0  0  0  0  0  0  0999 V2000
  140.3510   71.5600  221.0750 O   0  0  0  0  0  0  0  0  0  0  0  0
  140.0530   72.1220  222.1600 C   0  0  0  0  0  0  0  0  0  0  0  0
  139.8020   73.5110  222.2920 N   0  0  0  0  0  0  0  0  0  0  0  0
  139.8900   74.3780  221.1000 C   0  0  0  0  0  0  0  0  0  0  0  0
  140.4290   75.6880  221.4400 C   0  0  0  0  0  0  0  0  0  0  0  0
  140.0510   76.1620  222.5880 O   0  0  0  0  0  0  0  0  0  0  0  0
  141.2890   76.5200  220.7200 N   0  0  0  0  0  0  0  0  0  0  0  0
  141.8790   75.9910  219.4390 C   0  0  0  0  0  0  0  0  0  0  0  0
  142.0750   77.2310  218.6000 C   0  0  0  0  0  0  0  0  0  0  0  0
  141.5690   78.3780  219.4450 C   0  0  2  0  0  0  0  0  0  0  0  0
  142.2100   79.5680  219.2140 O   0  0  0  0  0  0  0  0  0  0  0  0
  141.8550   77.8060  220.8420 C   0  0  1  0  0  0  0  0  0  0  0  0
  141.4430   78.7130  221.8850 C   0  0  0  0  0  0  0  0  0  0  0  0
  142.2240   79.2790  222.8590 C   0  0  0  0  0  0  0  0  0  0  0  0
  141.7540   80.1440  223.8250 C   0  0  0  0  0  0  0  0  0  0  0  0
  140.4170   80.4810  223.8370 C   0  0  0  0  0  0  0  0  0  0  0  0
  139.5940   79.9370  222.8780 C   0  0  0  0  0  0  0  0  0  0  0  0
  140.0820   79.0830  221.9330 C   0  0  0  0  0  0  0  0  0  0  0  0
  139.9540   71.3010  223.3700 C   0  0  0  0  0  0  0  0  0  0  0  0
  139.3810   70.0380  223.3270 C   0  0  0  0  0  0  0  0  0  0  0  0
  139.2740   69.2490  224.4340 C   0  0  0  0  0  0  0  0  0  0  0  0
  139.7570   69.7400  225.6260 C   0  0  0  0  0  0  0  0  0  0  0  0
  139.6600   68.9560  226.7650 C   0  0  0  0  0  0  0  0  0  0  0  0
  140.1390   69.4350  227.9620 C   0  0  0  0  0  0  0  0  0  0  0  0
  140.0680   68.7080  229.1070 F   0  0  0  0  0  0  0  0  0  0  0  0
  140.7240   70.7020  228.0470 C   0  0  0  0  0  0  0  0  0  0  0  0
  140.8150   71.4700  226.9040 C   0  0  0  0  0  0  0  0  0  0  0  0
  140.3350   70.9970  225.6980 C   0  0  0  0  0  0  0  0  0  0  0  0
  140.4030   71.7130  224.5620 N   0  0  0  0  0  0  0  0  0  0  0  0
  139.5560   73.9330  223.2170 H   0  0  0  0  0  0  0  0  0  0  0  0
  140.5469   73.9015  220.3574 H   0  0  0  0  0  0  0  0  0  0  0  0
  138.8774   74.5132  220.6921 H   0  0  0  0  0  0  0  0  0  0  0  0
  142.8391   75.4881  219.6270 H   0  0  0  0  0  0  0  0  0  0  0  0
  141.2387   75.2414  218.9510 H   0  0  0  0  0  0  0  0  0  0  0  0
  143.1401   77.3696  218.3627 H   0  0  0  0  0  0  0  0  0  0  0  0
  141.5382   77.1634  217.6423 H   0  0  0  0  0  0  0  0  0  0  0  0
  140.5225   78.6567  219.2524 H   0  0  0  0  0  0  0  0  0  0  0  0
  142.7850   79.7450  220.0200 H   0  0  0  0  0  0  0  0  0  0  0  0
  142.9000   77.6991  221.1683 H   0  0  0  0  0  0  0  0  0  0  0  0
  143.2947   79.0271  222.8709 H   0  0  0  0  0  0  0  0  0  0  0  0
  142.4388   80.5608  224.5782 H   0  0  0  0  0  0  0  0  0  0  0  0
  140.0174   81.1693  224.5963 H   0  0  0  0  0  0  0  0  0  0  0  0
  138.5247   80.1950  222.8733 H   0  0  0  0  0  0  0  0  0  0  0  0
  139.3917   78.6689  221.1833 H   0  0  0  0  0  0  0  0  0  0  0  0
  138.9999   69.6602  222.3668 H   0  0  0  0  0  0  0  0  0  0  0  0
  138.8157   68.2507  224.3763 H   0  0  0  0  0  0  0  0  0  0  0  0
  139.2028   67.9569  226.7119 H   0  0  0  0  0  0  0  0  0  0  0  0
  141.1048   71.0798  229.0074 H   0  0  0  0  0  0  0  0  0  0  0  0
  141.2741   72.4684  226.9537 H   0  0  0  0  0  0  0  0  0  0  0  0
  1  2  2  0
  2  3  1  0
  3  4  1  0
  4  5  1  0
  5  6  2  0
  5  7  1  0
  7  8  1  0
  8  9  1  0
  9 10  1  0
 10 11  1  0
 10 12  1  0
 12 13  1  0
 13 14  2  0
 14 15  1  0
 15 16  2  0
 16 17  1  0
 17 18  2  0
  2 19  1  0
 19 20  2  0
 20 21  1  0
 21 22  2  0
 22 23  1  0
 23 24  2  0
 24 25  1  0
 24 26  1  0
 26 27  2  0
 27 28  1  0
 28 29  2  0
 12  7  1  0
 18 13  1  0
 29 19  1  0
 28 22  1  0
  3 30  1  0
  4 31  1  0
  4 32  1  0
  8 33  1  0
  8 34  1  0
  9 35  1  0
  9 36  1  0
 10 37  1  1
 11 38  1  0
 12 39  1  6
 14 40  1  0
 15 41  1  0
 16 42  1  0
 17 43  1  0
 18 44  1  0
 20 45  1  0
 21 46  1  0
 23 47  1  0
 26 48  1  0
 27 49  1  0
M  END
>  <smiles>  (47) 
O=C(NCC(=O)N1CC[C@H](O)[C@H]1c1ccccc1)c1ccc2cc(F)ccc2n1

>  <score_type>  (47) 
oracle

>  <origin>  (47) 
autodockgpu

>  <m_score__min__energy>  (47) 
-8.9399999999999995

>  <m_primary>  (47) 
energy

>  <rmsd>  (47) 
2.2288368553243094

>  <m_score__min__rmsd>  (47) 
2.2288368553243094

>  <meeko>  (47) 
{"free_energy": -8.49, "intermolecular_energy": -10.28, "internal_energy": -1.75, "cluster_size": 16, "cluster_id": 2, "rank_in_cluster": 11}

>  <energy>  (47) 
-8.15

>  <cluster_rmsd>  (47) 
0.56

>  <cluster>  (47) 
4

$$$$

     RDKit          3D

 49 52  0  0  0  0  0  0  0  0999 V2000
  142.1200   73.4010  220.4990 O   0  0  0  0  0  0  0  0  0  0  0  0
  141.3720   74.0760  221.2500 C   0  0  0  0  0  0  0  0  0  0  0  0
  140.4170   73.5130  222.1340 N   0  0  0  0  0  0  0  0  0  0  0  0
  140.2680   72.0450  222.1970 C   0  0  0  0  0  0  0  0  0  0  0  0
  138.9910   71.6690  222.7890 C   0  0  0  0  0  0  0  0  0  0  0  0
  138.0640   72.5760  222.7280 O   0  0  0  0  0  0  0  0  0  0  0  0
  138.6070   70.4830  223.4170 N   0  0  0  0  0  0  0  0  0  0  0  0
  137.7550   69.5130  222.6410 C   0  0  0  0  0  0  0  0  0  0  0  0
  138.1420   68.1680  223.2080 C   0  0  0  0  0  0  0  0  0  0  0  0
  139.1970   68.4550  224.2520 C   0  0  2  0  0  0  0  0  0  0  0  0
  139.2090   67.5630  225.2930 O   0  0  0  0  0  0  0  0  0  0  0  0
  138.7540   69.8630  224.6760 C   0  0  1  0  0  0  0  0  0  0  0  0
  139.6220   70.4140  225.6880 C   0  0  0  0  0  0  0  0  0  0  0  0
  140.5260   71.4350  225.5510 C   0  0  0  0  0  0  0  0  0  0  0  0
  141.3220   71.9090  226.5730 C   0  0  0  0  0  0  0  0  0  0  0  0
  141.2240   71.3390  227.8240 C   0  0  0  0  0  0  0  0  0  0  0  0
  140.3310   70.3100  228.0100 C   0  0  0  0  0  0  0  0  0  0  0  0
  139.5540   69.8580  226.9830 C   0  0  0  0  0  0  0  0  0  0  0  0
  141.4840   75.5380  221.2220 C   0  0  0  0  0  0  0  0  0  0  0  0
  142.0380   76.1860  220.1270 C   0  0  0  0  0  0  0  0  0  0  0  0
  142.1560   77.5430  220.0680 C   0  0  0  0  0  0  0  0  0  0  0  0
  141.7050   78.2780  221.1420 C   0  0  0  0  0  0  0  0  0  0  0  0
  141.8150   79.6590  221.1060 C   0  0  0  0  0  0  0  0  0  0  0  0
  141.3670   80.4050  222.1720 C   0  0  0  0  0  0  0  0  0  0  0  0
  141.4510   81.7600  222.1870 F   0  0  0  0  0  0  0  0  0  0  0  0
  140.8040   79.7880  223.2930 C   0  0  0  0  0  0  0  0  0  0  0  0
  140.7000   78.4120  223.3150 C   0  0  0  0  0  0  0  0  0  0  0  0
  141.1480   77.6570  222.2480 C   0  0  0  0  0  0  0  0  0  0  0  0
  141.0660   76.3140  222.2290 N   0  0  0  0  0  0  0  0  0  0  0  0
  139.8170   74.1160  222.7410 H   0  0  0  0  0  0  0  0  0  0  0  0
  140.3256   71.6346  221.1780 H   0  0  0  0  0  0  0  0  0  0  0  0
  141.0753   71.6400  222.8250 H   0  0  0  0  0  0  0  0  0  0  0  0
  136.6855   69.7139  222.8017 H   0  0  0  0  0  0  0  0  0  0  0  0
  137.9126   69.5801  221.5544 H   0  0  0  0  0  0  0  0  0  0  0  0
  137.2700   67.6797  223.6675 H   0  0  0  0  0  0  0  0  0  0  0  0
  138.5162   67.4896  222.4271 H   0  0  0  0  0  0  0  0  0  0  0  0
  140.2316   68.3742  223.8871 H   0  0  0  0  0  0  0  0  0  0  0  0
  140.0810   67.0640  225.2330 H   0  0  0  0  0  0  0  0  0  0  0  0
  137.8134   69.9773  225.2347 H   0  0  0  0  0  0  0  0  0  0  0  0
  140.6231   71.9070  224.5621 H   0  0  0  0  0  0  0  0  0  0  0  0
  142.0275   72.7332  226.3914 H   0  0  0  0  0  0  0  0  0  0  0  0
  141.8468   71.6995  228.6559 H   0  0  0  0  0  0  0  0  0  0  0  0
  140.2414   69.8437  229.0023 H   0  0  0  0  0  0  0  0  0  0  0  0
  138.8514   69.0328  227.1711 H   0  0  0  0  0  0  0  0  0  0  0  0
  142.3940   75.5843  219.2778 H   0  0  0  0  0  0  0  0  0  0  0  0
  142.5979   78.0358  219.1894 H   0  0  0  0  0  0  0  0  0  0  0  0
  142.2579   80.1560  220.2303 H   0  0  0  0  0  0  0  0  0  0  0  0
  140.4498   80.3892  224.1433 H   0  0  0  0  0  0  0  0  0  0  0  0
  140.2569   77.9123  224.1890 H   0  0  0  0  0  0  0  0  0  0  0  0
  1  2  2  0
  2  3  1  0
  3  4  1  0
  4  5  1  0
  5  6  2  0
  5  7  1  0
  7  8  1  0
  8  9  1  0
  9 10  1  0
 10 11  1  0
 10 12  1  0
 12 13  1  0
 13 14  2  0
 14 15  1  0
 15 16  2  0
 16 17  1  0
 17 18  2  0
  2 19  1  0
 19 20  2  0
 20 21  1  0
 21 22  2  0
 22 23  1  0
 23 24  2  0
 24 25  1  0
 24 26  1  0
 26 27  2  0
 27 28  1  0
 28 29  2  0
 12  7  1  0
 18 13  1  0
 29 19  1  0
 28 22  1  0
  3 30  1  0
  4 31  1  0
  4 32  1  0
  8 33  1  0
  8 34  1  0
  9 35  1  0
  9 36  1  0
 10 37  1  6
 11 38  1  0
 12 39  1  1
 14 40  1  0
 15 41  1  0
 16 42  1  0
 17 43  1  0
 18 44  1  0
 20 45  1  0
 21 46  1  0
 23 47  1  0
 26 48  1  0
 27 49  1  0
M  END
>  <smiles>  (48) 
O=C(NCC(=O)N1CC[C@H](O)[C@H]1c1ccccc1)c1ccc2cc(F)ccc2n1

>  <score_type>  (48) 
oracle

>  <origin>  (48) 
autodockgpu

>  <m_score__min__energy>  (48) 
-8.9399999999999995

>  <m_primary>  (48) 
energy

>  <rmsd>  (48) 
8.774329088308294

>  <m_score__min__rmsd>  (48) 
8.774329088308294

>  <meeko>  (48) 
{"free_energy": -8.22, "intermolecular_energy": -10.01, "internal_energy": -1.82, "cluster_size": 12, "cluster_id": 1, "rank_in_cluster": 9}

>  <energy>  (48) 
-8.07

>  <cluster_rmsd>  (48) 
0.67

>  <cluster>  (48) 
4

$$$$

     RDKit          3D

 49 52  0  0  0  0  0  0  0  0999 V2000
  140.4380   71.7710  221.0930 O   0  0  0  0  0  0  0  0  0  0  0  0
  140.1070   72.3220  222.1740 C   0  0  0  0  0  0  0  0  0  0  0  0
  139.8370   73.7080  222.3090 N   0  0  0  0  0  0  0  0  0  0  0  0
  139.9470   74.5830  221.1250 C   0  0  0  0  0  0  0  0  0  0  0  0
  140.6080   75.8380  221.4560 C   0  0  0  0  0  0  0  0  0  0  0  0
  140.4000   76.2740  222.6610 O   0  0  0  0  0  0  0  0  0  0  0  0
  141.4340   76.6510  220.6760 N   0  0  0  0  0  0  0  0  0  0  0  0
  141.9220   76.1100  219.3580 C   0  0  0  0  0  0  0  0  0  0  0  0
  142.0840   77.3460  218.5050 C   0  0  0  0  0  0  0  0  0  0  0  0
  141.6620   78.5030  219.3810 C   0  0  2  0  0  0  0  0  0  0  0  0
  142.3100   79.6790  219.1040 O   0  0  0  0  0  0  0  0  0  0  0  0
  142.0330   77.9260  220.7560 C   0  0  1  0  0  0  0  0  0  0  0  0
  141.7140   78.8410  221.8240 C   0  0  0  0  0  0  0  0  0  0  0  0
  142.5780   79.4200  222.7170 C   0  0  0  0  0  0  0  0  0  0  0  0
  142.1940   80.2930  223.7130 C   0  0  0  0  0  0  0  0  0  0  0  0
  140.8630   80.6230  223.8450 C   0  0  0  0  0  0  0  0  0  0  0  0
  139.9570   80.0660  222.9720 C   0  0  0  0  0  0  0  0  0  0  0  0
  140.3610   79.2050  221.9930 C   0  0  0  0  0  0  0  0  0  0  0  0
  139.9860   71.4920  223.3760 C   0  0  0  0  0  0  0  0  0  0  0  0
  139.3810   70.2440  223.3210 C   0  0  0  0  0  0  0  0  0  0  0  0
  139.2530   69.4480  224.4200 C   0  0  0  0  0  0  0  0  0  0  0  0
  139.7480   69.9150  225.6170 C   0  0  0  0  0  0  0  0  0  0  0  0
  139.6300   69.1230  226.7480 C   0  0  0  0  0  0  0  0  0  0  0  0
  140.1210   69.5780  227.9500 C   0  0  0  0  0  0  0  0  0  0  0  0
  140.0310   68.8420  229.0880 F   0  0  0  0  0  0  0  0  0  0  0  0
  140.7380   70.8290  228.0470 C   0  0  0  0  0  0  0  0  0  0  0  0
  140.8490   71.6060  226.9120 C   0  0  0  0  0  0  0  0  0  0  0  0
  140.3580   71.1560  225.7020 C   0  0  0  0  0  0  0  0  0  0  0  0
  140.4450   71.8820  224.5720 N   0  0  0  0  0  0  0  0  0  0  0  0
  139.5640   74.1210  223.2290 H   0  0  0  0  0  0  0  0  0  0  0  0
  140.5293   74.0647  220.3489 H   0  0  0  0  0  0  0  0  0  0  0  0
  138.9328   74.8087  220.7637 H   0  0  0  0  0  0  0  0  0  0  0  0
  142.8825   75.5878  219.4792 H   0  0  0  0  0  0  0  0  0  0  0  0
  141.2341   75.3735  218.9172 H   0  0  0  0  0  0  0  0  0  0  0  0
  143.1325   77.4628  218.1935 H   0  0  0  0  0  0  0  0  0  0  0  0
  141.4801   77.2891  217.5873 H   0  0  0  0  0  0  0  0  0  0  0  0
  140.6105   78.8029  219.2612 H   0  0  0  0  0  0  0  0  0  0  0  0
  143.2790   79.4460  218.9620 H   0  0  0  0  0  0  0  0  0  0  0  0
  143.0960   77.7986  221.0087 H   0  0  0  0  0  0  0  0  0  0  0  0
  143.6465   79.1723  222.6337 H   0  0  0  0  0  0  0  0  0  0  0  0
  142.9429   80.7216  224.3952 H   0  0  0  0  0  0  0  0  0  0  0  0
  140.5316   81.3170  224.6315 H   0  0  0  0  0  0  0  0  0  0  0  0
  138.8904   80.3186  223.0645 H   0  0  0  0  0  0  0  0  0  0  0  0
  139.6072   78.7809  221.3134 H   0  0  0  0  0  0  0  0  0  0  0  0
  138.9913   69.8849  222.3570 H   0  0  0  0  0  0  0  0  0  0  0  0
  138.7690   68.4625  224.3527 H   0  0  0  0  0  0  0  0  0  0  0  0
  139.1468   68.1368  226.6852 H   0  0  0  0  0  0  0  0  0  0  0  0
  141.1280   71.1875  229.0110 H   0  0  0  0  0  0  0  0  0  0  0  0
  141.3326   72.5922  226.9714 H   0  0  0  0  0  0  0  0  0  0  0  0
  1  2  2  0
  2  3  1  0
  3  4  1  0
  4  5  1  0
  5  6  2  0
  5  7  1  0
  7  8  1  0
  8  9  1  0
  9 10  1  0
 10 11  1  0
 10 12  1  0
 12 13  1  0
 13 14  2  0
 14 15  1  0
 15 16  2  0
 16 17  1  0
 17 18  2  0
  2 19  1  0
 19 20  2  0
 20 21  1  0
 21 22  2  0
 22 23  1  0
 23 24  2  0
 24 25  1  0
 24 26  1  0
 26 27  2  0
 27 28  1  0
 28 29  2  0
 12  7  1  0
 18 13  1  0
 29 19  1  0
 28 22  1  0
  3 30  1  0
  4 31  1  0
  4 32  1  0
  8 33  1  0
  8 34  1  0
  9 35  1  0
  9 36  1  0
 10 37  1  1
 11 38  1  0
 12 39  1  6
 14 40  1  0
 15 41  1  0
 16 42  1  0
 17 43  1  0
 18 44  1  0
 20 45  1  0
 21 46  1  0
 23 47  1  0
 26 48  1  0
 27 49  1  0
M  END
>  <smiles>  (49) 
O=C(NCC(=O)N1CC[C@H](O)[C@H]1c1ccccc1)c1ccc2cc(F)ccc2n1

>  <score_type>  (49) 
oracle

>  <origin>  (49) 
autodockgpu

>  <m_score__min__energy>  (49) 
-8.9399999999999995

>  <m_primary>  (49) 
energy

>  <rmsd>  (49) 
2.2432163731821833

>  <m_score__min__rmsd>  (49) 
2.2432163731821833

>  <meeko>  (49) 
{"free_energy": -8.59, "intermolecular_energy": -10.38, "internal_energy": -1.72, "cluster_size": 16, "cluster_id": 2, "rank_in_cluster": 7}

>  <energy>  (49) 
-8.02

>  <cluster_rmsd>  (49) 
1.11

>  <cluster>  (49) 
4

$$$$

     RDKit          3D

 49 52  0  0  0  0  0  0  0  0999 V2000
  141.0480   73.4980  221.6930 O   0  0  0  0  0  0  0  0  0  0  0  0
  139.9510   73.3440  222.2890 C   0  0  0  0  0  0  0  0  0  0  0  0
  138.8780   74.2690  222.2290 N   0  0  0  0  0  0  0  0  0  0  0  0
  139.0300   75.5000  221.4280 C   0  0  0  0  0  0  0  0  0  0  0  0
  138.8770   76.6900  222.2550 C   0  0  0  0  0  0  0  0  0  0  0  0
  137.8770   76.6640  223.0830 O   0  0  0  0  0  0  0  0  0  0  0  0
  139.6380   77.8600  222.2960 N   0  0  0  0  0  0  0  0  0  0  0  0
  139.2680   78.9120  223.3080 C   0  0  0  0  0  0  0  0  0  0  0  0
  140.5830   79.5870  223.6160 C   0  0  0  0  0  0  0  0  0  0  0  0
  141.6150   78.8680  222.7780 C   0  0  2  0  0  0  0  0  0  0  0  0
  142.6660   79.6570  222.3870 O   0  0  0  0  0  0  0  0  0  0  0  0
  140.7260   78.4310  221.6040 C   0  0  1  0  0  0  0  0  0  0  0  0
  141.4690   77.6820  220.6200 C   0  0  0  0  0  0  0  0  0  0  0  0
  141.8280   76.3600  220.6700 C   0  0  0  0  0  0  0  0  0  0  0  0
  142.5400   75.7120  219.6830 C   0  0  0  0  0  0  0  0  0  0  0  0
  142.9300   76.4120  218.5620 C   0  0  0  0  0  0  0  0  0  0  0  0
  142.5930   77.7430  218.4670 C   0  0  0  0  0  0  0  0  0  0  0  0
  141.8880   78.3620  219.4570 C   0  0  0  0  0  0  0  0  0  0  0  0
  139.7550   72.1360  223.0970 C   0  0  0  0  0  0  0  0  0  0  0  0
  138.8200   71.1790  222.7280 C   0  0  0  0  0  0  0  0  0  0  0  0
  138.6130   70.0460  223.4570 C   0  0  0  0  0  0  0  0  0  0  0  0
  139.3680   69.8620  224.5940 C   0  0  0  0  0  0  0  0  0  0  0  0
  139.1760   68.7170  225.3510 C   0  0  0  0  0  0  0  0  0  0  0  0
  139.9240   68.5210  226.4890 C   0  0  0  0  0  0  0  0  0  0  0  0
  139.7750   67.4170  227.2660 F   0  0  0  0  0  0  0  0  0  0  0  0
  140.8760   69.4610  226.8930 C   0  0  0  0  0  0  0  0  0  0  0  0
  141.0570   70.5960  226.1290 C   0  0  0  0  0  0  0  0  0  0  0  0
  140.3090   70.8000  224.9850 C   0  0  0  0  0  0  0  0  0  0  0  0
  140.4540   71.8920  224.2120 N   0  0  0  0  0  0  0  0  0  0  0  0
  137.9830   74.0970  222.7410 H   0  0  0  0  0  0  0  0  0  0  0  0
  140.0297   75.5082  220.9692 H   0  0  0  0  0  0  0  0  0  0  0  0
  138.2478   75.5108  220.6547 H   0  0  0  0  0  0  0  0  0  0  0  0
  138.5486   79.6284  222.8846 H   0  0  0  0  0  0  0  0  0  0  0  0
  138.7831   78.4930  224.2020 H   0  0  0  0  0  0  0  0  0  0  0  0
  140.5411   80.6518  223.3433 H   0  0  0  0  0  0  0  0  0  0  0  0
  140.8239   79.5388  224.6882 H   0  0  0  0  0  0  0  0  0  0  0  0
  142.1395   78.0557  223.3024 H   0  0  0  0  0  0  0  0  0  0  0  0
  143.3270   79.0500  221.9330 H   0  0  0  0  0  0  0  0  0  0  0  0
  140.3395   79.1981  220.9169 H   0  0  0  0  0  0  0  0  0  0  0  0
  141.5288   75.7787  221.5546 H   0  0  0  0  0  0  0  0  0  0  0  0
  142.7941   74.6471  219.7894 H   0  0  0  0  0  0  0  0  0  0  0  0
  143.4984   75.9177  217.7604 H   0  0  0  0  0  0  0  0  0  0  0  0
  142.8969   78.3165  217.5789 H   0  0  0  0  0  0  0  0  0  0  0  0
  141.6377   79.4273  219.3449 H   0  0  0  0  0  0  0  0  0  0  0  0
  138.2259   71.3403  221.8164 H   0  0  0  0  0  0  0  0  0  0  0  0
  137.8655   69.3011  223.1465 H   0  0  0  0  0  0  0  0  0  0  0  0
  138.4299   67.9693  225.0438 H   0  0  0  0  0  0  0  0  0  0  0  0
  141.4707   69.2990  227.8041 H   0  0  0  0  0  0  0  0  0  0  0  0
  141.8032   71.3448  226.4333 H   0  0  0  0  0  0  0  0  0  0  0  0
  1  2  2  0
  2  3  1  0
  3  4  1  0
  4  5  1  0
  5  6  2  0
  5  7  1  0
  7  8  1  0
  8  9  1  0
  9 10  1  0
 10 11  1  0
 10 12  1  0
 12 13  1  0
 13 14  2  0
 14 15  1  0
 15 16  2  0
 16 17  1  0
 17 18  2  0
  2 19  1  0
 19 20  2  0
 20 21  1  0
 21 22  2  0
 22 23  1  0
 23 24  2  0
 24 25  1  0
 24 26  1  0
 26 27  2  0
 27 28  1  0
 28 29  2  0
 12  7  1  0
 18 13  1  0
 29 19  1  0
 28 22  1  0
  3 30  1  0
  4 31  1  0
  4 32  1  0
  8 33  1  0
  8 34  1  0
  9 35  1  0
  9 36  1  0
 10 37  1  1
 11 38  1  0
 12 39  1  6
 14 40  1  0
 15 41  1  0
 16 42  1  0
 17 43  1  0
 18 44  1  0
 20 45  1  0
 21 46  1  0
 23 47  1  0
 26 48  1  0
 27 49  1  0
M  END
>  <smiles>  (50) 
O=C(NCC(=O)N1CC[C@H](O)[C@H]1c1ccccc1)c1ccc2cc(F)ccc2n1

>  <score_type>  (50) 
oracle

>  <origin>  (50) 
autodockgpu

>  <m_score__min__energy>  (50) 
-8.9399999999999995

>  <m_primary>  (50) 
energy

>  <rmsd>  (50) 
3.852216428017607

>  <m_score__min__rmsd>  (50) 
3.852216428017607

>  <meeko>  (50) 
{"free_energy": -8.17, "intermolecular_energy": -9.96, "internal_energy": -1.51, "cluster_size": 14, "cluster_id": 3, "rank_in_cluster": 11}

>  <energy>  (50) 
-7.68

>  <cluster_rmsd>  (50) 
1.04

>  <cluster>  (50) 
4

$$$$
