
     RDKit          3D

 44 46  0  0  0  0  0  0  0  0999 V2000
  142.8920   75.7180  218.8340 C   0  0  0  0  0  0  0  0  0  0  0  0
  142.8880   75.0170  220.1760 C   0  0  1  0  0  0  0  0  0  0  0  0
  141.6540   74.2570  220.3940 N   0  0  0  0  0  0  0  0  0  0  0  0
  140.4780   74.8600  220.8800 C   0  0  0  0  0  0  0  0  0  0  0  0
  140.5390   76.1130  221.1170 O   0  0  0  0  0  0  0  0  0  0  0  0
  139.2010   74.1930  221.1360 C   0  0  0  0  0  0  0  0  0  0  0  0
  139.1670   73.3630  222.3200 N   0  0  0  0  0  0  0  0  0  0  0  0
  140.0860   72.2800  222.5120 C   0  0  0  0  0  0  0  0  0  0  0  0
  140.9810   71.9980  221.6560 O   0  0  0  0  0  0  0  0  0  0  0  0
  139.9950   71.4650  223.7390 C   0  0  0  0  0  0  0  0  0  0  0  0
  139.3140   70.2660  223.7150 C   0  0  0  0  0  0  0  0  0  0  0  0
  139.1830   69.4440  224.8150 C   0  0  0  0  0  0  0  0  0  0  0  0
  139.7700   69.8650  225.9860 C   0  0  0  0  0  0  0  0  0  0  0  0
  139.6480   69.0540  227.0970 C   0  0  0  0  0  0  0  0  0  0  0  0
  140.2400   69.4700  228.2920 C   0  0  0  0  0  0  0  0  0  0  0  0
  140.9220   70.6720  228.3160 C   0  0  0  0  0  0  0  0  0  0  0  0
  141.0430   71.4770  227.2060 C   0  0  0  0  0  0  0  0  0  0  0  0
  141.7310   72.6590  227.2850 F   0  0  0  0  0  0  0  0  0  0  0  0
  140.4580   71.0720  226.0160 C   0  0  0  0  0  0  0  0  0  0  0  0
  140.5570   71.8450  224.8960 N   0  0  0  0  0  0  0  0  0  0  0  0
  144.0720   74.1190  220.2090 C   0  0  0  0  0  0  0  0  0  0  0  0
  144.0120   72.8910  219.5820 C   0  0  0  0  0  0  0  0  0  0  0  0
  145.1210   72.0460  219.6110 C   0  0  0  0  0  0  0  0  0  0  0  0
  146.2880   72.4030  220.2540 C   0  0  0  0  0  0  0  0  0  0  0  0
  146.3530   73.6280  220.8820 C   0  0  0  0  0  0  0  0  0  0  0  0
  145.2490   74.4540  220.8450 C   0  0  0  0  0  0  0  0  0  0  0  0
  142.8982   76.8070  218.9892 H   0  0  0  0  0  0  0  0  0  0  0  0
  143.7885   75.4230  218.2689 H   0  0  0  0  0  0  0  0  0  0  0  0
  141.9922   75.4333  218.2689 H   0  0  0  0  0  0  0  0  0  0  0  0
  142.9363   75.7620  220.9839 H   0  0  0  0  0  0  0  0  0  0  0  0
  141.6660   73.2400  220.1690 H   0  0  0  0  0  0  0  0  0  0  0  0
  138.4273   74.9678  221.2411 H   0  0  0  0  0  0  0  0  0  0  0  0
  139.0330   73.5174  220.2843 H   0  0  0  0  0  0  0  0  0  0  0  0
  138.4780   73.5070  223.0920 H   0  0  0  0  0  0  0  0  0  0  0  0
  138.8510   69.9485  222.7691 H   0  0  0  0  0  0  0  0  0  0  0  0
  138.6330   68.4930  224.7584 H   0  0  0  0  0  0  0  0  0  0  0  0
  139.0978   68.1031  227.0423 H   0  0  0  0  0  0  0  0  0  0  0  0
  140.1647   68.8515  229.1985 H   0  0  0  0  0  0  0  0  0  0  0  0
  141.3860   70.9979  229.2586 H   0  0  0  0  0  0  0  0  0  0  0  0
  143.0939   72.5803  219.0619 H   0  0  0  0  0  0  0  0  0  0  0  0
  145.0637   71.0694  219.1080 H   0  0  0  0  0  0  0  0  0  0  0  0
  147.1516   71.7218  220.2653 H   0  0  0  0  0  0  0  0  0  0  0  0
  147.2693   73.9415  221.4036 H   0  0  0  0  0  0  0  0  0  0  0  0
  145.3105   75.4300  221.3486 H   0  0  0  0  0  0  0  0  0  0  0  0
  1  2  1  0
  2  3  1  0
  3  4  1  0
  4  5  2  0
  4  6  1  0
  6  7  1  0
  7  8  1  0
  8  9  2  0
  8 10  1  0
 10 11  2  0
 11 12  1  0
 12 13  2  0
 13 14  1  0
 14 15  2  0
 15 16  1  0
 16 17  2  0
 17 18  1  0
 17 19  1  0
 19 20  2  0
  2 21  1  0
 21 22  2  0
 22 23  1  0
 23 24  2  0
 24 25  1  0
 25 26  2  0
 20 10  1  0
 26 21  1  0
 19 13  1  0
  1 27  1  0
  1 28  1  0
  1 29  1  0
  2 30  1  1
  3 31  1  0
  6 32  1  0
  6 33  1  0
  7 34  1  0
 11 35  1  0
 12 36  1  0
 14 37  1  0
 15 38  1  0
 16 39  1  0
 22 40  1  0
 23 41  1  0
 24 42  1  0
 25 43  1  0
 26 44  1  0
M  END
>  <smiles>  (1) 
C[C@@H](NC(=O)CNC(=O)c1ccc2cccc(F)c2n1)c1ccccc1

>  <score_type>  (1) 
oracle

>  <origin>  (1) 
autodockgpu

>  <m_score__min__energy>  (1) 
-8.8200000000000003

>  <m_primary>  (1) 
energy

>  <rmsd>  (1) 
6.531422454358531

>  <m_score__min__rmsd>  (1) 
6.531422454358531

>  <meeko>  (1) 
{"free_energy": -8.17, "intermolecular_energy": -9.66, "internal_energy": -1.65, "cluster_size": 7, "cluster_id": 3, "rank_in_cluster": 3}

>  <energy>  (1) 
-8.82

>  <cluster_rmsd>  (1) 
0.0

>  <cluster>  (1) 
1

$$$$

     RDKit          3D

 44 46  0  0  0  0  0  0  0  0999 V2000
  142.2460   76.7610  220.0800 C   0  0  0  0  0  0  0  0  0  0  0  0
  140.7980   77.1730  220.2400 C   0  0  1  0  0  0  0  0  0  0  0  0
  139.9010   76.0170  220.3020 N   0  0  0  0  0  0  0  0  0  0  0  0
  140.0590   74.9960  221.2580 C   0  0  0  0  0  0  0  0  0  0  0  0
  141.0280   75.1320  222.0790 O   0  0  0  0  0  0  0  0  0  0  0  0
  139.2250   73.8020  221.4020 C   0  0  0  0  0  0  0  0  0  0  0  0
  139.4990   72.9980  222.5740 N   0  0  0  0  0  0  0  0  0  0  0  0
  139.1660   71.6060  222.6320 C   0  0  0  0  0  0  0  0  0  0  0  0
  138.6190   71.0040  221.6570 O   0  0  0  0  0  0  0  0  0  0  0  0
  139.4650   70.8420  223.8600 C   0  0  0  0  0  0  0  0  0  0  0  0
  139.1890   69.4930  223.9100 C   0  0  0  0  0  0  0  0  0  0  0  0
  139.4370   68.7070  225.0160 C   0  0  0  0  0  0  0  0  0  0  0  0
  139.9890   69.3260  226.1140 C   0  0  0  0  0  0  0  0  0  0  0  0
  140.2430   68.5520  227.2300 C   0  0  0  0  0  0  0  0  0  0  0  0
  140.8040   69.1690  228.3510 C   0  0  0  0  0  0  0  0  0  0  0  0
  141.0800   70.5230  228.3010 C   0  0  0  0  0  0  0  0  0  0  0  0
  140.8250   71.2900  227.1860 C   0  0  0  0  0  0  0  0  0  0  0  0
  141.1180   72.6280  227.1900 F   0  0  0  0  0  0  0  0  0  0  0  0
  140.2690   70.6860  226.0690 C   0  0  0  0  0  0  0  0  0  0  0  0
  140.0020   71.4150  224.9460 N   0  0  0  0  0  0  0  0  0  0  0  0
  140.7030   77.9810  221.4850 C   0  0  0  0  0  0  0  0  0  0  0  0
  141.8410   78.5620  222.0060 C   0  0  0  0  0  0  0  0  0  0  0  0
  141.7570   79.3210  223.1720 C   0  0  0  0  0  0  0  0  0  0  0  0
  140.5590   79.5100  223.8290 C   0  0  0  0  0  0  0  0  0  0  0  0
  139.4190   78.9310  223.3130 C   0  0  0  0  0  0  0  0  0  0  0  0
  139.5170   78.1840  222.1580 C   0  0  0  0  0  0  0  0  0  0  0  0
  142.7021   76.6312  221.0725 H   0  0  0  0  0  0  0  0  0  0  0  0
  142.2982   75.8124  219.5256 H   0  0  0  0  0  0  0  0  0  0  0  0
  142.7898   77.5401  219.5256 H   0  0  0  0  0  0  0  0  0  0  0  0
  140.4812   77.7591  219.3648 H   0  0  0  0  0  0  0  0  0  0  0  0
  139.1210   75.9710  219.6130 H   0  0  0  0  0  0  0  0  0  0  0  0
  138.1742   74.1241  221.4480 H   0  0  0  0  0  0  0  0  0  0  0  0
  139.4509   73.1647  220.5343 H   0  0  0  0  0  0  0  0  0  0  0  0
  139.9510   73.3870  223.4330 H   0  0  0  0  0  0  0  0  0  0  0  0
  138.7478   69.0180  223.0214 H   0  0  0  0  0  0  0  0  0  0  0  0
  139.2036   67.6320  225.0201 H   0  0  0  0  0  0  0  0  0  0  0  0
  140.0094   67.4771  227.2358 H   0  0  0  0  0  0  0  0  0  0  0  0
  141.0226   68.5871  229.2586 H   0  0  0  0  0  0  0  0  0  0  0  0
  141.5202   71.0061  229.1858 H   0  0  0  0  0  0  0  0  0  0  0  0
  142.8101   78.4268  221.5034 H   0  0  0  0  0  0  0  0  0  0  0  0
  142.6696   79.7811  223.5787 H   0  0  0  0  0  0  0  0  0  0  0  0
  140.5139   80.1121  224.7485 H   0  0  0  0  0  0  0  0  0  0  0  0
  138.4485   79.0626  223.8138 H   0  0  0  0  0  0  0  0  0  0  0  0
  138.6022   77.7267  221.7530 H   0  0  0  0  0  0  0  0  0  0  0  0
  1  2  1  0
  2  3  1  0
  3  4  1  0
  4  5  2  0
  4  6  1  0
  6  7  1  0
  7  8  1  0
  8  9  2  0
  8 10  1  0
 10 11  2  0
 11 12  1  0
 12 13  2  0
 13 14  1  0
 14 15  2  0
 15 16  1  0
 16 17  2  0
 17 18  1  0
 17 19  1  0
 19 20  2  0
  2 21  1  0
 21 22  2  0
 22 23  1  0
 23 24  2  0
 24 25  1  0
 25 26  2  0
 20 10  1  0
 26 21  1  0
 19 13  1  0
  1 27  1  0
  1 28  1  0
  1 29  1  0
  2 30  1  6
  3 31  1  0
  6 32  1  0
  6 33  1  0
  7 34  1  0
 11 35  1  0
 12 36  1  0
 14 37  1  0
 15 38  1  0
 16 39  1  0
 22 40  1  0
 23 41  1  0
 24 42  1  0
 25 43  1  0
 26 44  1  0
M  END
>  <smiles>  (2) 
C[C@@H](NC(=O)CNC(=O)c1ccc2cccc(F)c2n1)c1ccccc1

>  <score_type>  (2) 
oracle

>  <origin>  (2) 
autodockgpu

>  <m_score__min__energy>  (2) 
-8.8200000000000003

>  <m_primary>  (2) 
energy

>  <rmsd>  (2) 
4.402760813810548

>  <m_score__min__rmsd>  (2) 
4.402760813810548

>  <meeko>  (2) 
{"free_energy": -7.98, "intermolecular_energy": -9.47, "internal_energy": -1.46, "cluster_size": 7, "cluster_id": 1, "rank_in_cluster": 6}

>  <energy>  (2) 
-8.81

>  <cluster_rmsd>  (2) 
0.19

>  <cluster>  (2) 
1

$$$$

     RDKit          3D

 44 46  0  0  0  0  0  0  0  0999 V2000
  139.9910   79.2040  219.6570 C   0  0  0  0  0  0  0  0  0  0  0  0
  139.9550   78.3380  220.8980 C   0  0  1  0  0  0  0  0  0  0  0  0
  140.3290   76.9520  220.6110 N   0  0  0  0  0  0  0  0  0  0  0  0
  139.8720   75.8740  221.3940 C   0  0  0  0  0  0  0  0  0  0  0  0
  139.1030   76.1680  222.3700 O   0  0  0  0  0  0  0  0  0  0  0  0
  140.1890   74.4590  221.1950 C   0  0  0  0  0  0  0  0  0  0  0  0
  139.9620   73.6120  222.3460 N   0  0  0  0  0  0  0  0  0  0  0  0
  140.5970   72.3350  222.4820 C   0  0  0  0  0  0  0  0  0  0  0  0
  141.3960   71.8840  221.6040 O   0  0  0  0  0  0  0  0  0  0  0  0
  140.3190   71.5130  223.6770 C   0  0  0  0  0  0  0  0  0  0  0  0
  139.6340   70.3250  223.5460 C   0  0  0  0  0  0  0  0  0  0  0  0
  139.3330   69.4980  224.6080 C   0  0  0  0  0  0  0  0  0  0  0  0
  139.7500   69.9050  225.8560 C   0  0  0  0  0  0  0  0  0  0  0  0
  139.4570   69.0880  226.9300 C   0  0  0  0  0  0  0  0  0  0  0  0
  139.8740   69.4890  228.2020 C   0  0  0  0  0  0  0  0  0  0  0  0
  140.5610   70.6820  228.3340 C   0  0  0  0  0  0  0  0  0  0  0  0
  140.8520   71.4920  227.2590 C   0  0  0  0  0  0  0  0  0  0  0  0
  141.5360   72.6640  227.4470 F   0  0  0  0  0  0  0  0  0  0  0  0
  140.4410   71.1020  225.9940 C   0  0  0  0  0  0  0  0  0  0  0  0
  140.7110   71.8800  224.9060 N   0  0  0  0  0  0  0  0  0  0  0  0
  140.8880   78.9420  221.8860 C   0  0  0  0  0  0  0  0  0  0  0  0
  141.7350   79.9570  221.4890 C   0  0  0  0  0  0  0  0  0  0  0  0
  142.6110   80.5260  222.4110 C   0  0  0  0  0  0  0  0  0  0  0  0
  142.6580   80.1020  223.7240 C   0  0  0  0  0  0  0  0  0  0  0  0
  141.8150   79.0890  224.1250 C   0  0  0  0  0  0  0  0  0  0  0  0
  140.9530   78.5350  223.2020 C   0  0  0  0  0  0  0  0  0  0  0  0
  140.0350   80.2633  219.9502 H   0  0  0  0  0  0  0  0  0  0  0  0
  140.8794   78.9517  219.0595 H   0  0  0  0  0  0  0  0  0  0  0  0
  139.0847   79.0263  219.0595 H   0  0  0  0  0  0  0  0  0  0  0  0
  138.9299   78.3023  221.2954 H   0  0  0  0  0  0  0  0  0  0  0  0
  140.9480   76.7770  219.7920 H   0  0  0  0  0  0  0  0  0  0  0  0
  139.5685   74.0837  220.3679 H   0  0  0  0  0  0  0  0  0  0  0  0
  141.2684   74.4127  220.9884 H   0  0  0  0  0  0  0  0  0  0  0  0
  139.3290   73.8830  223.1320 H   0  0  0  0  0  0  0  0  0  0  0  0
  139.3096   70.0195  222.5403 H   0  0  0  0  0  0  0  0  0  0  0  0
  138.7843   68.5554  224.4647 H   0  0  0  0  0  0  0  0  0  0  0  0
  138.9089   68.1449  226.7878 H   0  0  0  0  0  0  0  0  0  0  0  0
  139.6595   68.8665  229.0832 H   0  0  0  0  0  0  0  0  0  0  0  0
  140.8876   70.9960  229.3364 H   0  0  0  0  0  0  0  0  0  0  0  0
  141.7185   80.3151  220.4491 H   0  0  0  0  0  0  0  0  0  0  0  0
  143.2824   81.3338  222.0844 H   0  0  0  0  0  0  0  0  0  0  0  0
  143.3561   80.5647  224.4371 H   0  0  0  0  0  0  0  0  0  0  0  0
  141.8292   78.7280  225.1640 H   0  0  0  0  0  0  0  0  0  0  0  0
  140.2832   77.7274  223.5323 H   0  0  0  0  0  0  0  0  0  0  0  0
  1  2  1  0
  2  3  1  0
  3  4  1  0
  4  5  2  0
  4  6  1  0
  6  7  1  0
  7  8  1  0
  8  9  2  0
  8 10  1  0
 10 11  2  0
 11 12  1  0
 12 13  2  0
 13 14  1  0
 14 15  2  0
 15 16  1  0
 16 17  2  0
 17 18  1  0
 17 19  1  0
 19 20  2  0
  2 21  1  0
 21 22  2  0
 22 23  1  0
 23 24  2  0
 24 25  1  0
 25 26  2  0
 20 10  1  0
 26 21  1  0
 19 13  1  0
  1 27  1  0
  1 28  1  0
  1 29  1  0
  2 30  1  1
  3 31  1  0
  6 32  1  0
  6 33  1  0
  7 34  1  0
 11 35  1  0
 12 36  1  0
 14 37  1  0
 15 38  1  0
 16 39  1  0
 22 40  1  0
 23 41  1  0
 24 42  1  0
 25 43  1  0
 26 44  1  0
M  END
>  <smiles>  (3) 
C[C@@H](NC(=O)CNC(=O)c1ccc2cccc(F)c2n1)c1ccccc1

>  <score_type>  (3) 
oracle

>  <origin>  (3) 
autodockgpu

>  <m_score__min__energy>  (3) 
-8.8200000000000003

>  <m_primary>  (3) 
energy

>  <rmsd>  (3) 
4.19365314343322

>  <m_score__min__rmsd>  (3) 
4.19365314343322

>  <meeko>  (3) 
{"free_energy": -8.42, "intermolecular_energy": -9.91, "internal_energy": -1.24, "cluster_size": 7, "cluster_id": 1, "rank_in_cluster": 4}

>  <energy>  (3) 
-8.54

>  <cluster_rmsd>  (3) 
1.18

>  <cluster>  (3) 
1

$$$$

     RDKit          3D

 44 46  0  0  0  0  0  0  0  0999 V2000
  143.0410   75.7090  218.7380 C   0  0  0  0  0  0  0  0  0  0  0  0
  142.9760   75.0350  220.0920 C   0  0  1  0  0  0  0  0  0  0  0  0
  141.7100   74.3260  220.2930 N   0  0  0  0  0  0  0  0  0  0  0  0
  140.6120   74.9220  220.9410 C   0  0  0  0  0  0  0  0  0  0  0  0
  140.7740   76.1240  221.3430 O   0  0  0  0  0  0  0  0  0  0  0  0
  139.3100   74.3030  221.1950 C   0  0  0  0  0  0  0  0  0  0  0  0
  139.2630   73.4200  222.3400 N   0  0  0  0  0  0  0  0  0  0  0  0
  140.2480   72.4020  222.5520 C   0  0  0  0  0  0  0  0  0  0  0  0
  141.2170   72.2260  221.7500 O   0  0  0  0  0  0  0  0  0  0  0  0
  140.1390   71.5270  223.7360 C   0  0  0  0  0  0  0  0  0  0  0  0
  139.5060   70.3070  223.6300 C   0  0  0  0  0  0  0  0  0  0  0  0
  139.3630   69.4310  224.6850 C   0  0  0  0  0  0  0  0  0  0  0  0
  139.8860   69.8180  225.8980 C   0  0  0  0  0  0  0  0  0  0  0  0
  139.7500   68.9510  226.9640 C   0  0  0  0  0  0  0  0  0  0  0  0
  140.2780   69.3330  228.2010 C   0  0  0  0  0  0  0  0  0  0  0  0
  140.9130   70.5560  228.3070 C   0  0  0  0  0  0  0  0  0  0  0  0
  141.0470   71.4160  227.2410 C   0  0  0  0  0  0  0  0  0  0  0  0
  141.6850   72.6180  227.4010 F   0  0  0  0  0  0  0  0  0  0  0  0
  140.5260   71.0460  226.0100 C   0  0  0  0  0  0  0  0  0  0  0  0
  140.6390   71.8740  224.9310 N   0  0  0  0  0  0  0  0  0  0  0  0
  144.1250   74.0940  220.1720 C   0  0  0  0  0  0  0  0  0  0  0  0
  145.2830   74.4880  220.8100 C   0  0  0  0  0  0  0  0  0  0  0  0
  146.3630   73.6090  220.8870 C   0  0  0  0  0  0  0  0  0  0  0  0
  146.3080   72.3430  220.3400 C   0  0  0  0  0  0  0  0  0  0  0  0
  145.1530   71.9450  219.7010 C   0  0  0  0  0  0  0  0  0  0  0  0
  144.0930   72.8240  219.6320 C   0  0  0  0  0  0  0  0  0  0  0  0
  143.1458   76.7955  218.8739 H   0  0  0  0  0  0  0  0  0  0  0  0
  143.9062   75.3244  218.1781 H   0  0  0  0  0  0  0  0  0  0  0  0
  142.1182   75.4968  218.1781 H   0  0  0  0  0  0  0  0  0  0  0  0
  143.0311   75.7936  220.8867 H   0  0  0  0  0  0  0  0  0  0  0  0
  141.6370   73.3530  219.9300 H   0  0  0  0  0  0  0  0  0  0  0  0
  138.5759   75.1066  221.3541 H   0  0  0  0  0  0  0  0  0  0  0  0
  139.0917   73.6776  220.3168 H   0  0  0  0  0  0  0  0  0  0  0  0
  138.5140   73.4770  223.0670 H   0  0  0  0  0  0  0  0  0  0  0  0
  139.0933   70.0172  222.6524 H   0  0  0  0  0  0  0  0  0  0  0  0
  138.8528   68.4642  224.5626 H   0  0  0  0  0  0  0  0  0  0  0  0
  139.2392   67.9843  226.8431 H   0  0  0  0  0  0  0  0  0  0  0  0
  140.1895   68.6712  229.0752 H   0  0  0  0  0  0  0  0  0  0  0  0
  141.3275   70.8536  229.2815 H   0  0  0  0  0  0  0  0  0  0  0  0
  145.3542   75.4910  221.2560 H   0  0  0  0  0  0  0  0  0  0  0  0
  147.2823   73.9330  221.3968 H   0  0  0  0  0  0  0  0  0  0  0  0
  147.1702   71.6638  220.4126 H   0  0  0  0  0  0  0  0  0  0  0  0
  145.0784   70.9428  219.2537 H   0  0  0  0  0  0  0  0  0  0  0  0
  143.1756   72.4968  219.1209 H   0  0  0  0  0  0  0  0  0  0  0  0
  1  2  1  0
  2  3  1  0
  3  4  1  0
  4  5  2  0
  4  6  1  0
  6  7  1  0
  7  8  1  0
  8  9  2  0
  8 10  1  0
 10 11  2  0
 11 12  1  0
 12 13  2  0
 13 14  1  0
 14 15  2  0
 15 16  1  0
 16 17  2  0
 17 18  1  0
 17 19  1  0
 19 20  2  0
  2 21  1  0
 21 22  2  0
 22 23  1  0
 23 24  2  0
 24 25  1  0
 25 26  2  0
 20 10  1  0
 26 21  1  0
 19 13  1  0
  1 27  1  0
  1 28  1  0
  1 29  1  0
  2 30  1  1
  3 31  1  0
  6 32  1  0
  6 33  1  0
  7 34  1  0
 11 35  1  0
 12 36  1  0
 14 37  1  0
 15 38  1  0
 16 39  1  0
 22 40  1  0
 23 41  1  0
 24 42  1  0
 25 43  1  0
 26 44  1  0
M  END
>  <smiles>  (4) 
C[C@@H](NC(=O)CNC(=O)c1ccc2cccc(F)c2n1)c1ccccc1

>  <score_type>  (4) 
oracle

>  <origin>  (4) 
autodockgpu

>  <m_score__min__energy>  (4) 
-8.8200000000000003

>  <m_primary>  (4) 
energy

>  <rmsd>  (4) 
6.608638229713531

>  <m_score__min__rmsd>  (4) 
6.608638229713531

>  <meeko>  (4) 
{"free_energy": -8.25, "intermolecular_energy": -9.74, "internal_energy": -1.61, "cluster_size": 7, "cluster_id": 3, "rank_in_cluster": 2}

>  <energy>  (4) 
-8.42

>  <cluster_rmsd>  (4) 
0.9

>  <cluster>  (4) 
1

$$$$

     RDKit          3D

 44 46  0  0  0  0  0  0  0  0999 V2000
  140.4600   67.4680  226.4560 C   0  0  0  0  0  0  0  0  0  0  0  0
  139.8430   68.6270  225.7020 C   0  0  1  0  0  0  0  0  0  0  0  0
  138.3830   68.5260  225.6380 N   0  0  0  0  0  0  0  0  0  0  0  0
  137.6180   69.2820  224.7300 C   0  0  0  0  0  0  0  0  0  0  0  0
  138.2660   70.0610  223.9520 O   0  0  0  0  0  0  0  0  0  0  0  0
  136.1610   69.2580  224.5890 C   0  0  0  0  0  0  0  0  0  0  0  0
  135.4820   70.4550  225.0340 N   0  0  0  0  0  0  0  0  0  0  0  0
  134.4050   70.4070  225.9780 C   0  0  0  0  0  0  0  0  0  0  0  0
  133.9960   69.3130  226.4770 O   0  0  0  0  0  0  0  0  0  0  0  0
  133.7460   71.6640  226.3870 C   0  0  0  0  0  0  0  0  0  0  0  0
  132.5830   71.6180  227.1250 C   0  0  0  0  0  0  0  0  0  0  0  0
  131.9060   72.7420  227.5480 C   0  0  0  0  0  0  0  0  0  0  0  0
  132.4390   73.9630  227.2010 C   0  0  0  0  0  0  0  0  0  0  0  0
  131.7730   75.0990  227.6170 C   0  0  0  0  0  0  0  0  0  0  0  0
  132.3040   76.3440  227.2710 C   0  0  0  0  0  0  0  0  0  0  0  0
  133.4700   76.3900  226.5300 C   0  0  0  0  0  0  0  0  0  0  0  0
  134.1320   75.2550  226.1190 C   0  0  0  0  0  0  0  0  0  0  0  0
  135.2840   75.3580  225.3860 F   0  0  0  0  0  0  0  0  0  0  0  0
  133.6110   74.0150  226.4570 C   0  0  0  0  0  0  0  0  0  0  0  0
  134.2400   72.8680  226.0660 N   0  0  0  0  0  0  0  0  0  0  0  0
  140.2550   69.8760  226.3960 C   0  0  0  0  0  0  0  0  0  0  0  0
  141.0650   70.7820  225.7410 C   0  0  0  0  0  0  0  0  0  0  0  0
  141.4540   71.9540  226.3880 C   0  0  0  0  0  0  0  0  0  0  0  0
  141.0500   72.2390  227.6760 C   0  0  0  0  0  0  0  0  0  0  0  0
  140.2420   71.3370  228.3340 C   0  0  0  0  0  0  0  0  0  0  0  0
  139.8650   70.1820  227.6830 C   0  0  0  0  0  0  0  0  0  0  0  0
  140.3667   67.6432  227.5379 H   0  0  0  0  0  0  0  0  0  0  0  0
  139.9380   66.5373  226.1889 H   0  0  0  0  0  0  0  0  0  0  0  0
  141.5236   67.3814  226.1889 H   0  0  0  0  0  0  0  0  0  0  0  0
  140.1960   68.6208  224.6602 H   0  0  0  0  0  0  0  0  0  0  0  0
  137.9160   67.8620  226.2900 H   0  0  0  0  0  0  0  0  0  0  0  0
  135.9239   69.1071  223.5255 H   0  0  0  0  0  0  0  0  0  0  0  0
  135.8038   68.4441  225.2371 H   0  0  0  0  0  0  0  0  0  0  0  0
  135.7370   71.4100  224.6950 H   0  0  0  0  0  0  0  0  0  0  0  0
  132.1732   70.6323  227.3906 H   0  0  0  0  0  0  0  0  0  0  0  0
  130.9802   72.6665  228.1372 H   0  0  0  0  0  0  0  0  0  0  0  0
  130.8471   75.0254  228.2063 H   0  0  0  0  0  0  0  0  0  0  0  0
  131.8027   77.2721  227.5830 H   0  0  0  0  0  0  0  0  0  0  0  0
  133.8851   77.3717  226.2581 H   0  0  0  0  0  0  0  0  0  0  0  0
  141.4019   70.5801  224.7135 H   0  0  0  0  0  0  0  0  0  0  0  0
  142.0995   72.6698  225.8580 H   0  0  0  0  0  0  0  0  0  0  0  0
  141.3672   73.1697  228.1691 H   0  0  0  0  0  0  0  0  0  0  0  0
  139.9036   71.5355  229.3616 H   0  0  0  0  0  0  0  0  0  0  0  0
  139.2205   69.4682  228.2170 H   0  0  0  0  0  0  0  0  0  0  0  0
  1  2  1  0
  2  3  1  0
  3  4  1  0
  4  5  2  0
  4  6  1  0
  6  7  1  0
  7  8  1  0
  8  9  2  0
  8 10  1  0
 10 11  2  0
 11 12  1  0
 12 13  2  0
 13 14  1  0
 14 15  2  0
 15 16  1  0
 16 17  2  0
 17 18  1  0
 17 19  1  0
 19 20  2  0
  2 21  1  0
 21 22  2  0
 22 23  1  0
 23 24  2  0
 24 25  1  0
 25 26  2  0
 20 10  1  0
 26 21  1  0
 19 13  1  0
  1 27  1  0
  1 28  1  0
  1 29  1  0
  2 30  1  6
  3 31  1  0
  6 32  1  0
  6 33  1  0
  7 34  1  0
 11 35  1  0
 12 36  1  0
 14 37  1  0
 15 38  1  0
 16 39  1  0
 22 40  1  0
 23 41  1  0
 24 42  1  0
 25 43  1  0
 26 44  1  0
M  END
>  <smiles>  (5) 
C[C@@H](NC(=O)CNC(=O)c1ccc2cccc(F)c2n1)c1ccccc1

>  <score_type>  (5) 
oracle

>  <origin>  (5) 
autodockgpu

>  <m_score__min__energy>  (5) 
-8.8200000000000003

>  <m_primary>  (5) 
energy

>  <rmsd>  (5) 
10.88186731264509

>  <m_score__min__rmsd>  (5) 
10.88186731264509

>  <meeko>  (5) 
{"free_energy": -8.53, "intermolecular_energy": -10.02, "internal_energy": -1.31, "cluster_size": 13, "cluster_id": 2, "rank_in_cluster": 4}

>  <energy>  (5) 
-7.98

>  <cluster_rmsd>  (5) 
1.62

>  <cluster>  (5) 
1

$$$$

     RDKit          3D

 44 46  0  0  0  0  0  0  0  0999 V2000
  140.5190   67.4000  226.3550 C   0  0  0  0  0  0  0  0  0  0  0  0
  139.8510   68.5660  225.6590 C   0  0  1  0  0  0  0  0  0  0  0  0
  138.3940   68.4260  225.6280 N   0  0  0  0  0  0  0  0  0  0  0  0
  137.5670   69.3340  224.9390 C   0  0  0  0  0  0  0  0  0  0  0  0
  138.1570   70.2900  224.3320 O   0  0  0  0  0  0  0  0  0  0  0  0
  136.1070   69.2860  224.8490 C   0  0  0  0  0  0  0  0  0  0  0  0
  135.4290   70.5130  225.2050 N   0  0  0  0  0  0  0  0  0  0  0  0
  134.3800   70.5430  226.1800 C   0  0  0  0  0  0  0  0  0  0  0  0
  133.9950   69.4960  226.7870 O   0  0  0  0  0  0  0  0  0  0  0  0
  133.7210   71.8270  226.4940 C   0  0  0  0  0  0  0  0  0  0  0  0
  132.5110   71.8320  227.1540 C   0  0  0  0  0  0  0  0  0  0  0  0
  131.8300   72.9850  227.4850 C   0  0  0  0  0  0  0  0  0  0  0  0
  132.4100   74.1810  227.1260 C   0  0  0  0  0  0  0  0  0  0  0  0
  131.7410   75.3440  227.4510 C   0  0  0  0  0  0  0  0  0  0  0  0
  132.3200   76.5640  227.0930 C   0  0  0  0  0  0  0  0  0  0  0  0
  133.5330   76.5590  226.4310 C   0  0  0  0  0  0  0  0  0  0  0  0
  134.1970   75.3970  226.1100 C   0  0  0  0  0  0  0  0  0  0  0  0
  135.3980   75.4490  225.4530 F   0  0  0  0  0  0  0  0  0  0  0  0
  133.6300   74.1810  226.4620 C   0  0  0  0  0  0  0  0  0  0  0  0
  134.2600   73.0090  226.1600 N   0  0  0  0  0  0  0  0  0  0  0  0
  140.2460   69.8010  226.3870 C   0  0  0  0  0  0  0  0  0  0  0  0
  141.0740   70.7180  225.7720 C   0  0  0  0  0  0  0  0  0  0  0  0
  141.4460   71.8770  226.4520 C   0  0  0  0  0  0  0  0  0  0  0  0
  141.0080   72.1380  227.7340 C   0  0  0  0  0  0  0  0  0  0  0  0
  140.1820   71.2250  228.3530 C   0  0  0  0  0  0  0  0  0  0  0  0
  139.8210   70.0830  227.6690 C   0  0  0  0  0  0  0  0  0  0  0  0
  140.4437   67.5314  227.4445 H   0  0  0  0  0  0  0  0  0  0  0  0
  140.0201   66.4641  226.0632 H   0  0  0  0  0  0  0  0  0  0  0  0
  141.5787   67.3570  226.0632 H   0  0  0  0  0  0  0  0  0  0  0  0
  140.1769   68.6062  224.6091 H   0  0  0  0  0  0  0  0  0  0  0  0
  137.9750   67.6160  226.1310 H   0  0  0  0  0  0  0  0  0  0  0  0
  135.8377   69.0365  223.8121 H   0  0  0  0  0  0  0  0  0  0  0  0
  135.7799   68.5323  225.5804 H   0  0  0  0  0  0  0  0  0  0  0  0
  135.6660   71.4350  224.7740 H   0  0  0  0  0  0  0  0  0  0  0  0
  132.0649   70.8656  227.4314 H   0  0  0  0  0  0  0  0  0  0  0  0
  130.8655   72.9504  228.0128 H   0  0  0  0  0  0  0  0  0  0  0  0
  130.7763   75.3110  227.9786 H   0  0  0  0  0  0  0  0  0  0  0  0
  131.8186   77.5129  227.3341 H   0  0  0  0  0  0  0  0  0  0  0  0
  133.9855   77.5213  226.1496 H   0  0  0  0  0  0  0  0  0  0  0  0
  141.4387   70.5354  224.7504 H   0  0  0  0  0  0  0  0  0  0  0  0
  142.1059   72.6022  225.9533 H   0  0  0  0  0  0  0  0  0  0  0  0
  141.3128   73.0588  228.2529 H   0  0  0  0  0  0  0  0  0  0  0  0
  139.8169   71.4039  229.3751 H   0  0  0  0  0  0  0  0  0  0  0  0
  139.1608   69.3604  228.1710 H   0  0  0  0  0  0  0  0  0  0  0  0
  1  2  1  0
  2  3  1  0
  3  4  1  0
  4  5  2  0
  4  6  1  0
  6  7  1  0
  7  8  1  0
  8  9  2  0
  8 10  1  0
 10 11  2  0
 11 12  1  0
 12 13  2  0
 13 14  1  0
 14 15  2  0
 15 16  1  0
 16 17  2  0
 17 18  1  0
 17 19  1  0
 19 20  2  0
  2 21  1  0
 21 22  2  0
 22 23  1  0
 23 24  2  0
 24 25  1  0
 25 26  2  0
 20 10  1  0
 26 21  1  0
 19 13  1  0
  1 27  1  0
  1 28  1  0
  1 29  1  0
  2 30  1  6
  3 31  1  0
  6 32  1  0
  6 33  1  0
  7 34  1  0
 11 35  1  0
 12 36  1  0
 14 37  1  0
 15 38  1  0
 16 39  1  0
 22 40  1  0
 23 41  1  0
 24 42  1  0
 25 43  1  0
 26 44  1  0
M  END
>  <smiles>  (6) 
C[C@@H](NC(=O)CNC(=O)c1ccc2cccc(F)c2n1)c1ccccc1

>  <score_type>  (6) 
oracle

>  <origin>  (6) 
autodockgpu

>  <m_score__min__energy>  (6) 
-8.8200000000000003

>  <m_primary>  (6) 
energy

>  <rmsd>  (6) 
10.956571073918784

>  <m_score__min__rmsd>  (6) 
10.956571073918784

>  <meeko>  (6) 
{"free_energy": -8.51, "intermolecular_energy": -10.0, "internal_energy": -1.34, "cluster_size": 13, "cluster_id": 2, "rank_in_cluster": 5}

>  <energy>  (6) 
-7.98

>  <cluster_rmsd>  (6) 
1.63

>  <cluster>  (6) 
1

$$$$

     RDKit          3D

 44 46  0  0  0  0  0  0  0  0999 V2000
  137.7820   71.5220  223.5080 C   0  0  0  0  0  0  0  0  0  0  0  0
  139.2760   71.2890  223.4200 C   0  0  1  0  0  0  0  0  0  0  0  0
  139.9710   72.4130  222.7890 N   0  0  0  0  0  0  0  0  0  0  0  0
  140.9070   72.2310  221.7540 C   0  0  0  0  0  0  0  0  0  0  0  0
  141.1180   71.0270  221.3850 O   0  0  0  0  0  0  0  0  0  0  0  0
  141.6560   73.2820  221.0630 C   0  0  0  0  0  0  0  0  0  0  0  0
  141.4400   74.6210  221.5650 N   0  0  0  0  0  0  0  0  0  0  0  0
  140.1260   75.1750  221.7030 C   0  0  0  0  0  0  0  0  0  0  0  0
  139.0830   74.5170  221.3990 O   0  0  0  0  0  0  0  0  0  0  0  0
  139.9720   76.5520  222.2140 C   0  0  0  0  0  0  0  0  0  0  0  0
  138.7190   77.0250  222.5400 C   0  0  0  0  0  0  0  0  0  0  0  0
  138.4880   78.2950  223.0230 C   0  0  0  0  0  0  0  0  0  0  0  0
  139.5820   79.1160  223.1790 C   0  0  0  0  0  0  0  0  0  0  0  0
  139.3670   80.3920  223.6620 C   0  0  0  0  0  0  0  0  0  0  0  0
  140.4690   81.2340  223.8240 C   0  0  0  0  0  0  0  0  0  0  0  0
  141.7260   80.7600  223.4970 C   0  0  0  0  0  0  0  0  0  0  0  0
  141.9360   79.4870  223.0170 C   0  0  0  0  0  0  0  0  0  0  0  0
  143.2030   79.0680  222.7080 F   0  0  0  0  0  0  0  0  0  0  0  0
  140.8470   78.6440  222.8520 C   0  0  0  0  0  0  0  0  0  0  0  0
  141.0170   77.3760  222.3780 N   0  0  0  0  0  0  0  0  0  0  0  0
  139.7720   71.0720  224.8050 C   0  0  0  0  0  0  0  0  0  0  0  0
  139.2810   70.0160  225.5450 C   0  0  0  0  0  0  0  0  0  0  0  0
  139.7440   69.8090  226.8440 C   0  0  0  0  0  0  0  0  0  0  0  0
  140.6860   70.6370  227.4180 C   0  0  0  0  0  0  0  0  0  0  0  0
  141.1790   71.6940  226.6830 C   0  0  0  0  0  0  0  0  0  0  0  0
  140.7130   71.8870  225.4000 C   0  0  0  0  0  0  0  0  0  0  0  0
  137.4799   71.5691  224.5646 H   0  0  0  0  0  0  0  0  0  0  0  0
  137.5290   72.4705  223.0116 H   0  0  0  0  0  0  0  0  0  0  0  0
  137.2522   70.6956  223.0116 H   0  0  0  0  0  0  0  0  0  0  0  0
  139.4777   70.4116  222.7880 H   0  0  0  0  0  0  0  0  0  0  0  0
  139.7450   73.3720  223.1270 H   0  0  0  0  0  0  0  0  0  0  0  0
  142.7280   73.0527  221.1544 H   0  0  0  0  0  0  0  0  0  0  0  0
  141.2950   73.2826  220.0239 H   0  0  0  0  0  0  0  0  0  0  0  0
  142.2240   75.2510  221.8510 H   0  0  0  0  0  0  0  0  0  0  0  0
  137.8579   76.3534  222.4077 H   0  0  0  0  0  0  0  0  0  0  0  0
  137.4732   78.6379  223.2731 H   0  0  0  0  0  0  0  0  0  0  0  0
  138.3528   80.7363  223.9128 H   0  0  0  0  0  0  0  0  0  0  0  0
  140.3392   82.2575  224.2055 H   0  0  0  0  0  0  0  0  0  0  0  0
  142.5920   81.4261  223.6254 H   0  0  0  0  0  0  0  0  0  0  0  0
  138.5281   69.3408  225.1124 H   0  0  0  0  0  0  0  0  0  0  0  0
  139.3478   68.9637  227.4258 H   0  0  0  0  0  0  0  0  0  0  0  0
  141.0378   70.4570  228.4446 H   0  0  0  0  0  0  0  0  0  0  0  0
  141.9313   72.3717  227.1129 H   0  0  0  0  0  0  0  0  0  0  0  0
  141.1115   72.7335  224.8214 H   0  0  0  0  0  0  0  0  0  0  0  0
  1  2  1  0
  2  3  1  0
  3  4  1  0
  4  5  2  0
  4  6  1  0
  6  7  1  0
  7  8  1  0
  8  9  2  0
  8 10  1  0
 10 11  2  0
 11 12  1  0
 12 13  2  0
 13 14  1  0
 14 15  2  0
 15 16  1  0
 16 17  2  0
 17 18  1  0
 17 19  1  0
 19 20  2  0
  2 21  1  0
 21 22  2  0
 22 23  1  0
 23 24  2  0
 24 25  1  0
 25 26  2  0
 20 10  1  0
 26 21  1  0
 19 13  1  0
  1 27  1  0
  1 28  1  0
  1 29  1  0
  2 30  1  6
  3 31  1  0
  6 32  1  0
  6 33  1  0
  7 34  1  0
 11 35  1  0
 12 36  1  0
 14 37  1  0
 15 38  1  0
 16 39  1  0
 22 40  1  0
 23 41  1  0
 24 42  1  0
 25 43  1  0
 26 44  1  0
M  END
>  <smiles>  (7) 
C[C@@H](NC(=O)CNC(=O)c1ccc2cccc(F)c2n1)c1ccccc1

>  <score_type>  (7) 
oracle

>  <origin>  (7) 
autodockgpu

>  <m_score__min__energy>  (7) 
-8.8200000000000003

>  <m_primary>  (7) 
energy

>  <rmsd>  (7) 
9.564363520738265

>  <m_score__min__rmsd>  (7) 
9.564363520738265

>  <meeko>  (7) 
{"free_energy": -7.79, "intermolecular_energy": -9.28, "internal_energy": -1.92, "cluster_size": 21, "cluster_id": 4, "rank_in_cluster": 4}

>  <energy>  (7) 
-7.79

>  <cluster_rmsd>  (7) 
1.35

>  <cluster>  (7) 
1

$$$$

     RDKit          3D

 44 46  0  0  0  0  0  0  0  0999 V2000
  139.5350   68.0230  225.3910 C   0  0  0  0  0  0  0  0  0  0  0  0
  139.8120   69.4080  224.8460 C   0  0  1  0  0  0  0  0  0  0  0  0
  138.6320   69.9930  224.2050 N   0  0  0  0  0  0  0  0  0  0  0  0
  138.7200   71.0940  223.3340 C   0  0  0  0  0  0  0  0  0  0  0  0
  139.8910   71.5580  223.1220 O   0  0  0  0  0  0  0  0  0  0  0  0
  137.6070   71.7530  222.6480 C   0  0  0  0  0  0  0  0  0  0  0  0
  136.6210   72.3560  223.5180 N   0  0  0  0  0  0  0  0  0  0  0  0
  135.6860   71.5670  224.2640 C   0  0  0  0  0  0  0  0  0  0  0  0
  135.6790   70.2990  224.2060 O   0  0  0  0  0  0  0  0  0  0  0  0
  134.6980   72.2430  225.1290 C   0  0  0  0  0  0  0  0  0  0  0  0
  133.7820   71.4940  225.8360 C   0  0  0  0  0  0  0  0  0  0  0  0
  132.8280   72.0450  226.6650 C   0  0  0  0  0  0  0  0  0  0  0  0
  132.8090   73.4170  226.7750 C   0  0  0  0  0  0  0  0  0  0  0  0
  131.8600   73.9840  227.6020 C   0  0  0  0  0  0  0  0  0  0  0  0
  131.8300   75.3760  227.7220 C   0  0  0  0  0  0  0  0  0  0  0  0
  132.7490   76.1270  227.0120 C   0  0  0  0  0  0  0  0  0  0  0  0
  133.6950   75.5570  226.1900 C   0  0  0  0  0  0  0  0  0  0  0  0
  134.5810   76.3480  225.5100 F   0  0  0  0  0  0  0  0  0  0  0  0
  133.7310   74.1760  226.0650 C   0  0  0  0  0  0  0  0  0  0  0  0
  134.6540   73.5770  225.2580 N   0  0  0  0  0  0  0  0  0  0  0  0
  140.2640   70.2490  225.9860 C   0  0  0  0  0  0  0  0  0  0  0  0
  139.8780   69.9190  227.2690 C   0  0  0  0  0  0  0  0  0  0  0  0
  140.2990   70.7050  228.3410 C   0  0  0  0  0  0  0  0  0  0  0  0
  141.0990   71.8140  228.1560 C   0  0  0  0  0  0  0  0  0  0  0  0
  141.4870   72.1480  226.8760 C   0  0  0  0  0  0  0  0  0  0  0  0
  141.0640   71.3620  225.8260 C   0  0  0  0  0  0  0  0  0  0  0  0
  139.5411   68.0537  226.4906 H   0  0  0  0  0  0  0  0  0  0  0  0
  138.5506   67.6806  225.0392 H   0  0  0  0  0  0  0  0  0  0  0  0
  140.3120   67.3284  225.0392 H   0  0  0  0  0  0  0  0  0  0  0  0
  140.5863   69.3513  224.0667 H   0  0  0  0  0  0  0  0  0  0  0  0
  137.7070   69.5600  224.4090 H   0  0  0  0  0  0  0  0  0  0  0  0
  138.0226   72.5427  222.0049 H   0  0  0  0  0  0  0  0  0  0  0  0
  137.0815   70.9646  222.0892 H   0  0  0  0  0  0  0  0  0  0  0  0
  136.5380   73.3900  223.6480 H   0  0  0  0  0  0  0  0  0  0  0  0
  133.8138   70.3993  225.7334 H   0  0  0  0  0  0  0  0  0  0  0  0
  132.1129   71.4154  227.2148 H   0  0  0  0  0  0  0  0  0  0  0  0
  131.1450   73.3554  228.1530 H   0  0  0  0  0  0  0  0  0  0  0  0
  131.0883   75.8659  228.3700 H   0  0  0  0  0  0  0  0  0  0  0  0
  132.7231   77.2225  227.1078 H   0  0  0  0  0  0  0  0  0  0  0  0
  139.2410   69.0397  227.4453 H   0  0  0  0  0  0  0  0  0  0  0  0
  139.9854   70.4342  229.3600 H   0  0  0  0  0  0  0  0  0  0  0  0
  141.4215   72.4209  229.0149 H   0  0  0  0  0  0  0  0  0  0  0  0
  142.1234   73.0269  226.6958 H   0  0  0  0  0  0  0  0  0  0  0  0
  141.3801   71.6357  224.8086 H   0  0  0  0  0  0  0  0  0  0  0  0
  1  2  1  0
  2  3  1  0
  3  4  1  0
  4  5  2  0
  4  6  1  0
  6  7  1  0
  7  8  1  0
  8  9  2  0
  8 10  1  0
 10 11  2  0
 11 12  1  0
 12 13  2  0
 13 14  1  0
 14 15  2  0
 15 16  1  0
 16 17  2  0
 17 18  1  0
 17 19  1  0
 19 20  2  0
  2 21  1  0
 21 22  2  0
 22 23  1  0
 23 24  2  0
 24 25  1  0
 25 26  2  0
 20 10  1  0
 26 21  1  0
 19 13  1  0
  1 27  1  0
  1 28  1  0
  1 29  1  0
  2 30  1  6
  3 31  1  0
  6 32  1  0
  6 33  1  0
  7 34  1  0
 11 35  1  0
 12 36  1  0
 14 37  1  0
 15 38  1  0
 16 39  1  0
 22 40  1  0
 23 41  1  0
 24 42  1  0
 25 43  1  0
 26 44  1  0
M  END
>  <smiles>  (8) 
C[C@@H](NC(=O)CNC(=O)c1ccc2cccc(F)c2n1)c1ccccc1

>  <score_type>  (8) 
oracle

>  <origin>  (8) 
autodockgpu

>  <m_score__min__energy>  (8) 
-8.8200000000000003

>  <m_primary>  (8) 
energy

>  <rmsd>  (8) 
9.999959197154393

>  <m_score__min__rmsd>  (8) 
9.999959197154393

>  <meeko>  (8) 
{"free_energy": -7.69, "intermolecular_energy": -9.19, "internal_energy": -2.02, "cluster_size": 13, "cluster_id": 2, "rank_in_cluster": 9}

>  <energy>  (8) 
-8.61

>  <cluster_rmsd>  (8) 
0.0

>  <cluster>  (8) 
2

$$$$

     RDKit          3D

 44 46  0  0  0  0  0  0  0  0999 V2000
  139.3870   68.1880  225.4060 C   0  0  0  0  0  0  0  0  0  0  0  0
  140.3030   69.3120  224.9720 C   0  0  1  0  0  0  0  0  0  0  0  0
  139.7640   70.0500  223.8270 N   0  0  0  0  0  0  0  0  0  0  0  0
  138.4670   70.5970  223.8320 C   0  0  0  0  0  0  0  0  0  0  0  0
  137.7800   70.4220  224.8940 O   0  0  0  0  0  0  0  0  0  0  0  0
  137.8340   71.3440  222.7440 C   0  0  0  0  0  0  0  0  0  0  0  0
  138.4790   72.5920  222.3990 N   0  0  0  0  0  0  0  0  0  0  0  0
  139.7580   72.6310  221.7550 C   0  0  0  0  0  0  0  0  0  0  0  0
  140.3880   71.5720  221.4470 O   0  0  0  0  0  0  0  0  0  0  0  0
  140.3670   73.9380  221.4370 C   0  0  0  0  0  0  0  0  0  0  0  0
  141.4380   74.0010  220.5710 C   0  0  0  0  0  0  0  0  0  0  0  0
  142.0640   75.1780  220.2210 C   0  0  0  0  0  0  0  0  0  0  0  0
  141.5760   76.3380  220.7780 C   0  0  0  0  0  0  0  0  0  0  0  0
  142.1920   77.5260  220.4370 C   0  0  0  0  0  0  0  0  0  0  0  0
  141.7060   78.7100  220.9970 C   0  0  0  0  0  0  0  0  0  0  0  0
  140.6330   78.6470  221.8660 C   0  0  0  0  0  0  0  0  0  0  0  0
  140.0210   77.4610  222.2020 C   0  0  0  0  0  0  0  0  0  0  0  0
  138.9600   77.4550  223.0680 F   0  0  0  0  0  0  0  0  0  0  0  0
  140.4970   76.2800  221.6510 C   0  0  0  0  0  0  0  0  0  0  0  0
  139.9160   75.0860  221.9620 N   0  0  0  0  0  0  0  0  0  0  0  0
  140.4840   70.2120  226.1420 C   0  0  0  0  0  0  0  0  0  0  0  0
  139.8380   69.9240  227.3270 C   0  0  0  0  0  0  0  0  0  0  0  0
  140.0040   70.7660  228.4260 C   0  0  0  0  0  0  0  0  0  0  0  0
  140.8030   71.8890  228.3650 C   0  0  0  0  0  0  0  0  0  0  0  0
  141.4500   72.1810  227.1830 C   0  0  0  0  0  0  0  0  0  0  0  0
  141.2770   71.3400  226.1040 C   0  0  0  0  0  0  0  0  0  0  0  0
  139.3530   68.1462  226.5047 H   0  0  0  0  0  0  0  0  0  0  0  0
  138.3749   68.3678  225.0144 H   0  0  0  0  0  0  0  0  0  0  0  0
  139.7674   67.2330  225.0144 H   0  0  0  0  0  0  0  0  0  0  0  0
  141.2668   68.8973  224.6416 H   0  0  0  0  0  0  0  0  0  0  0  0
  140.3790   70.1690  222.9950 H   0  0  0  0  0  0  0  0  0  0  0  0
  137.8294   70.7042  221.8492 H   0  0  0  0  0  0  0  0  0  0  0  0
  136.8271   71.6080  223.0995 H   0  0  0  0  0  0  0  0  0  0  0  0
  138.0500   73.5240  222.6010 H   0  0  0  0  0  0  0  0  0  0  0  0
  141.8126   73.0624  220.1365 H   0  0  0  0  0  0  0  0  0  0  0  0
  142.9169   75.1897  219.5264 H   0  0  0  0  0  0  0  0  0  0  0  0
  143.0442   77.5397  219.7417 H   0  0  0  0  0  0  0  0  0  0  0  0
  142.1696   79.6765  220.7504 H   0  0  0  0  0  0  0  0  0  0  0  0
  140.2535   79.5810  222.3061 H   0  0  0  0  0  0  0  0  0  0  0  0
  139.1953   69.0346  227.4042 H   0  0  0  0  0  0  0  0  0  0  0  0
  139.4844   70.5286  229.3660 H   0  0  0  0  0  0  0  0  0  0  0  0
  140.9218   72.5399  229.2438 H   0  0  0  0  0  0  0  0  0  0  0  0
  142.0932   73.0697  227.1021 H   0  0  0  0  0  0  0  0  0  0  0  0
  141.7977   71.5808  225.1655 H   0  0  0  0  0  0  0  0  0  0  0  0
  1  2  1  0
  2  3  1  0
  3  4  1  0
  4  5  2  0
  4  6  1  0
  6  7  1  0
  7  8  1  0
  8  9  2  0
  8 10  1  0
 10 11  2  0
 11 12  1  0
 12 13  2  0
 13 14  1  0
 14 15  2  0
 15 16  1  0
 16 17  2  0
 17 18  1  0
 17 19  1  0
 19 20  2  0
  2 21  1  0
 21 22  2  0
 22 23  1  0
 23 24  2  0
 24 25  1  0
 25 26  2  0
 20 10  1  0
 26 21  1  0
 19 13  1  0
  1 27  1  0
  1 28  1  0
  1 29  1  0
  2 30  1  6
  3 31  1  0
  6 32  1  0
  6 33  1  0
  7 34  1  0
 11 35  1  0
 12 36  1  0
 14 37  1  0
 15 38  1  0
 16 39  1  0
 22 40  1  0
 23 41  1  0
 24 42  1  0
 25 43  1  0
 26 44  1  0
M  END
>  <smiles>  (9) 
C[C@@H](NC(=O)CNC(=O)c1ccc2cccc(F)c2n1)c1ccccc1

>  <score_type>  (9) 
oracle

>  <origin>  (9) 
autodockgpu

>  <m_score__min__energy>  (9) 
-8.8200000000000003

>  <m_primary>  (9) 
energy

>  <rmsd>  (9) 
9.857399088392173

>  <m_score__min__rmsd>  (9) 
9.857399088392173

>  <meeko>  (9) 
{"free_energy": -7.58, "intermolecular_energy": -9.07, "internal_energy": -2.0, "cluster_size": 2, "cluster_id": 5, "rank_in_cluster": 2}

>  <energy>  (9) 
-8.6

>  <cluster_rmsd>  (9) 
0.12

>  <cluster>  (9) 
2

$$$$

     RDKit          3D

 44 46  0  0  0  0  0  0  0  0999 V2000
  139.5550   68.1110  225.3180 C   0  0  0  0  0  0  0  0  0  0  0  0
  139.8170   69.5130  224.8100 C   0  0  1  0  0  0  0  0  0  0  0  0
  138.6290   70.1020  224.1870 N   0  0  0  0  0  0  0  0  0  0  0  0
  138.7140   71.1550  223.2570 C   0  0  0  0  0  0  0  0  0  0  0  0
  139.8880   71.5710  222.9760 O   0  0  0  0  0  0  0  0  0  0  0  0
  137.5940   71.8140  222.5840 C   0  0  0  0  0  0  0  0  0  0  0  0
  136.6230   72.4280  223.4640 N   0  0  0  0  0  0  0  0  0  0  0  0
  135.6860   71.6490  224.2180 C   0  0  0  0  0  0  0  0  0  0  0  0
  135.6640   70.3810  224.1590 O   0  0  0  0  0  0  0  0  0  0  0  0
  134.7150   72.3360  225.0930 C   0  0  0  0  0  0  0  0  0  0  0  0
  133.8140   71.5960  225.8280 C   0  0  0  0  0  0  0  0  0  0  0  0
  132.8750   72.1570  226.6680 C   0  0  0  0  0  0  0  0  0  0  0  0
  132.8570   73.5300  226.7600 C   0  0  0  0  0  0  0  0  0  0  0  0
  131.9230   74.1080  227.5980 C   0  0  0  0  0  0  0  0  0  0  0  0
  131.8950   75.5010  227.7000 C   0  0  0  0  0  0  0  0  0  0  0  0
  132.7990   76.2430  226.9630 C   0  0  0  0  0  0  0  0  0  0  0  0
  133.7290   75.6630  226.1300 C   0  0  0  0  0  0  0  0  0  0  0  0
  134.6020   76.4460  225.4220 F   0  0  0  0  0  0  0  0  0  0  0  0
  133.7640   74.2810  226.0220 C   0  0  0  0  0  0  0  0  0  0  0  0
  134.6720   73.6710  225.2060 N   0  0  0  0  0  0  0  0  0  0  0  0
  140.2620   70.3280  225.9710 C   0  0  0  0  0  0  0  0  0  0  0  0
  141.0590   71.4350  225.7580 C   0  0  0  0  0  0  0  0  0  0  0  0
  141.4790   72.2020  226.8440 C   0  0  0  0  0  0  0  0  0  0  0  0
  141.1190   71.8860  228.1380 C   0  0  0  0  0  0  0  0  0  0  0  0
  140.3240   70.7810  228.3550 C   0  0  0  0  0  0  0  0  0  0  0  0
  139.9160   70.0310  227.2730 C   0  0  0  0  0  0  0  0  0  0  0  0
  139.5555   68.1135  226.4180 H   0  0  0  0  0  0  0  0  0  0  0  0
  138.5767   67.7654  224.9525 H   0  0  0  0  0  0  0  0  0  0  0  0
  140.3424   67.4355  224.9525 H   0  0  0  0  0  0  0  0  0  0  0  0
  140.5908   69.4856  224.0287 H   0  0  0  0  0  0  0  0  0  0  0  0
  137.7010   69.7090  224.4490 H   0  0  0  0  0  0  0  0  0  0  0  0
  138.0034   72.5973  221.9292 H   0  0  0  0  0  0  0  0  0  0  0  0
  137.0565   71.0237  222.0395 H   0  0  0  0  0  0  0  0  0  0  0  0
  136.5540   73.4620  223.5950 H   0  0  0  0  0  0  0  0  0  0  0  0
  133.8455   70.5000  225.7400 H   0  0  0  0  0  0  0  0  0  0  0  0
  132.1711   71.5342  227.2395 H   0  0  0  0  0  0  0  0  0  0  0  0
  131.2188   73.4867  228.1708 H   0  0  0  0  0  0  0  0  0  0  0  0
  131.1658   75.9991  228.3558 H   0  0  0  0  0  0  0  0  0  0  0  0
  132.7743   77.3396  227.0453 H   0  0  0  0  0  0  0  0  0  0  0  0
  141.3611   71.7105  224.7368 H   0  0  0  0  0  0  0  0  0  0  0  0
  142.1140   73.0821  226.6645 H   0  0  0  0  0  0  0  0  0  0  0  0
  141.4602   72.5046  228.9811 H   0  0  0  0  0  0  0  0  0  0  0  0
  140.0202   70.5024  229.3748 H   0  0  0  0  0  0  0  0  0  0  0  0
  139.2823   69.1509  227.4570 H   0  0  0  0  0  0  0  0  0  0  0  0
  1  2  1  0
  2  3  1  0
  3  4  1  0
  4  5  2  0
  4  6  1  0
  6  7  1  0
  7  8  1  0
  8  9  2  0
  8 10  1  0
 10 11  2  0
 11 12  1  0
 12 13  2  0
 13 14  1  0
 14 15  2  0
 15 16  1  0
 16 17  2  0
 17 18  1  0
 17 19  1  0
 19 20  2  0
  2 21  1  0
 21 22  2  0
 22 23  1  0
 23 24  2  0
 24 25  1  0
 25 26  2  0
 20 10  1  0
 26 21  1  0
 19 13  1  0
  1 27  1  0
  1 28  1  0
  1 29  1  0
  2 30  1  6
  3 31  1  0
  6 32  1  0
  6 33  1  0
  7 34  1  0
 11 35  1  0
 12 36  1  0
 14 37  1  0
 15 38  1  0
 16 39  1  0
 22 40  1  0
 23 41  1  0
 24 42  1  0
 25 43  1  0
 26 44  1  0
M  END
>  <smiles>  (10) 
C[C@@H](NC(=O)CNC(=O)c1ccc2cccc(F)c2n1)c1ccccc1

>  <score_type>  (10) 
oracle

>  <origin>  (10) 
autodockgpu

>  <m_score__min__energy>  (10) 
-8.8200000000000003

>  <m_primary>  (10) 
energy

>  <rmsd>  (10) 
10.130253073092128

>  <m_score__min__rmsd>  (10) 
10.130253073092128

>  <meeko>  (10) 
{"free_energy": -7.64, "intermolecular_energy": -9.14, "internal_energy": -2.03, "cluster_size": 13, "cluster_id": 2, "rank_in_cluster": 13}

>  <energy>  (10) 
-8.53

>  <cluster_rmsd>  (10) 
0.18

>  <cluster>  (10) 
2

$$$$

     RDKit          3D

 44 46  0  0  0  0  0  0  0  0999 V2000
  142.2840   76.7780  220.0740 C   0  0  0  0  0  0  0  0  0  0  0  0
  140.8330   77.1810  220.2340 C   0  0  1  0  0  0  0  0  0  0  0  0
  139.9430   76.0200  220.2820 N   0  0  0  0  0  0  0  0  0  0  0  0
  140.0820   75.0080  221.2510 C   0  0  0  0  0  0  0  0  0  0  0  0
  141.0270   75.1580  222.0970 O   0  0  0  0  0  0  0  0  0  0  0  0
  139.2510   73.8100  221.3840 C   0  0  0  0  0  0  0  0  0  0  0  0
  139.5080   73.0110  222.5620 N   0  0  0  0  0  0  0  0  0  0  0  0
  139.2080   71.6110  222.6080 C   0  0  0  0  0  0  0  0  0  0  0  0
  138.7070   70.9980  221.6160 O   0  0  0  0  0  0  0  0  0  0  0  0
  139.4860   70.8530  223.8450 C   0  0  0  0  0  0  0  0  0  0  0  0
  139.1800   69.5100  223.9070 C   0  0  0  0  0  0  0  0  0  0  0  0
  139.4090   68.7300  225.0210 C   0  0  0  0  0  0  0  0  0  0  0  0
  139.9710   69.3470  226.1150 C   0  0  0  0  0  0  0  0  0  0  0  0
  140.2060   68.5790  227.2380 C   0  0  0  0  0  0  0  0  0  0  0  0
  140.7770   69.1940  228.3550 C   0  0  0  0  0  0  0  0  0  0  0  0
  141.0830   70.5400  228.2930 C   0  0  0  0  0  0  0  0  0  0  0  0
  140.8480   71.3020  227.1700 C   0  0  0  0  0  0  0  0  0  0  0  0
  141.1710   72.6330  227.1620 F   0  0  0  0  0  0  0  0  0  0  0  0
  140.2820   70.7000  226.0570 C   0  0  0  0  0  0  0  0  0  0  0  0
  140.0340   71.4240  224.9270 N   0  0  0  0  0  0  0  0  0  0  0  0
  140.7300   77.9770  221.4850 C   0  0  0  0  0  0  0  0  0  0  0  0
  141.8520   78.6090  221.9830 C   0  0  0  0  0  0  0  0  0  0  0  0
  141.7600   79.3560  223.1570 C   0  0  0  0  0  0  0  0  0  0  0  0
  140.5700   79.4840  223.8430 C   0  0  0  0  0  0  0  0  0  0  0  0
  139.4470   78.8550  223.3500 C   0  0  0  0  0  0  0  0  0  0  0  0
  139.5520   78.1190  222.1890 C   0  0  0  0  0  0  0  0  0  0  0  0
  142.7409   76.6511  221.0666 H   0  0  0  0  0  0  0  0  0  0  0  0
  142.3422   75.8297  219.5196 H   0  0  0  0  0  0  0  0  0  0  0  0
  142.8229   77.5605  219.5196 H   0  0  0  0  0  0  0  0  0  0  0  0
  140.5151   77.7739  219.3637 H   0  0  0  0  0  0  0  0  0  0  0  0
  139.1830   75.9630  219.5720 H   0  0  0  0  0  0  0  0  0  0  0  0
  138.1981   74.1272  221.4108 H   0  0  0  0  0  0  0  0  0  0  0  0
  139.4952   73.1714  220.5223 H   0  0  0  0  0  0  0  0  0  0  0  0
  139.9230   73.4090  223.4350 H   0  0  0  0  0  0  0  0  0  0  0  0
  138.7299   69.0362  223.0221 H   0  0  0  0  0  0  0  0  0  0  0  0
  139.1533   67.6602  225.0344 H   0  0  0  0  0  0  0  0  0  0  0  0
  139.9500   67.5093  227.2529 H   0  0  0  0  0  0  0  0  0  0  0  0
  140.9796   68.6161  229.2688 H   0  0  0  0  0  0  0  0  0  0  0  0
  141.5315   71.0215  229.1745 H   0  0  0  0  0  0  0  0  0  0  0  0
  142.8139   78.5237  221.4562 H   0  0  0  0  0  0  0  0  0  0  0  0
  142.6593   79.8560  223.5460 H   0  0  0  0  0  0  0  0  0  0  0  0
  140.5182   80.0778  224.7675 H   0  0  0  0  0  0  0  0  0  0  0  0
  138.4835   78.9388  223.8740 H   0  0  0  0  0  0  0  0  0  0  0  0
  138.6506   77.6195  221.8043 H   0  0  0  0  0  0  0  0  0  0  0  0
  1  2  1  0
  2  3  1  0
  3  4  1  0
  4  5  2  0
  4  6  1  0
  6  7  1  0
  7  8  1  0
  8  9  2  0
  8 10  1  0
 10 11  2  0
 11 12  1  0
 12 13  2  0
 13 14  1  0
 14 15  2  0
 15 16  1  0
 16 17  2  0
 17 18  1  0
 17 19  1  0
 19 20  2  0
  2 21  1  0
 21 22  2  0
 22 23  1  0
 23 24  2  0
 24 25  1  0
 25 26  2  0
 20 10  1  0
 26 21  1  0
 19 13  1  0
  1 27  1  0
  1 28  1  0
  1 29  1  0
  2 30  1  6
  3 31  1  0
  6 32  1  0
  6 33  1  0
  7 34  1  0
 11 35  1  0
 12 36  1  0
 14 37  1  0
 15 38  1  0
 16 39  1  0
 22 40  1  0
 23 41  1  0
 24 42  1  0
 25 43  1  0
 26 44  1  0
M  END
>  <smiles>  (11) 
C[C@@H](NC(=O)CNC(=O)c1ccc2cccc(F)c2n1)c1ccccc1

>  <score_type>  (11) 
oracle

>  <origin>  (11) 
autodockgpu

>  <m_score__min__energy>  (11) 
-8.8200000000000003

>  <m_primary>  (11) 
energy

>  <rmsd>  (11) 
4.402269008421423

>  <m_score__min__rmsd>  (11) 
4.402269008421423

>  <meeko>  (11) 
{"free_energy": -7.98, "intermolecular_energy": -9.47, "internal_energy": -1.46, "cluster_size": 7, "cluster_id": 1, "rank_in_cluster": 5}

>  <energy>  (11) 
-8.53

>  <cluster_rmsd>  (11) 
0.14

>  <cluster>  (11) 
2

$$$$

     RDKit          3D

 44 46  0  0  0  0  0  0  0  0999 V2000
  137.7570   71.5110  223.6370 C   0  0  0  0  0  0  0  0  0  0  0  0
  139.2470   71.2910  223.4810 C   0  0  1  0  0  0  0  0  0  0  0  0
  139.8990   72.4140  222.8040 N   0  0  0  0  0  0  0  0  0  0  0  0
  140.8870   72.2240  221.8190 C   0  0  0  0  0  0  0  0  0  0  0  0
  141.1840   71.0130  221.5390 O   0  0  0  0  0  0  0  0  0  0  0  0
  141.6010   73.2720  221.0880 C   0  0  0  0  0  0  0  0  0  0  0  0
  141.4120   74.6130  221.5970 N   0  0  0  0  0  0  0  0  0  0  0  0
  140.1130   75.2090  221.6950 C   0  0  0  0  0  0  0  0  0  0  0  0
  139.0600   74.5900  221.3470 O   0  0  0  0  0  0  0  0  0  0  0  0
  139.9870   76.5860  222.2160 C   0  0  0  0  0  0  0  0  0  0  0  0
  138.7450   77.0780  222.5550 C   0  0  0  0  0  0  0  0  0  0  0  0
  138.5400   78.3490  223.0480 C   0  0  0  0  0  0  0  0  0  0  0  0
  139.6500   79.1500  223.2000 C   0  0  0  0  0  0  0  0  0  0  0  0
  139.4610   80.4260  223.6930 C   0  0  0  0  0  0  0  0  0  0  0  0
  140.5800   81.2480  223.8520 C   0  0  0  0  0  0  0  0  0  0  0  0
  141.8250   80.7540  223.5110 C   0  0  0  0  0  0  0  0  0  0  0  0
  142.0090   79.4810  223.0210 C   0  0  0  0  0  0  0  0  0  0  0  0
  143.2660   79.0420  222.7000 F   0  0  0  0  0  0  0  0  0  0  0  0
  140.9040   78.6580  222.8600 C   0  0  0  0  0  0  0  0  0  0  0  0
  141.0480   77.3900  222.3760 N   0  0  0  0  0  0  0  0  0  0  0  0
  139.8090   71.0990  224.8440 C   0  0  0  0  0  0  0  0  0  0  0  0
  139.3170   70.0910  225.6470 C   0  0  0  0  0  0  0  0  0  0  0  0
  139.8410   69.9070  226.9260 C   0  0  0  0  0  0  0  0  0  0  0  0
  140.8490   70.7110  227.4180 C   0  0  0  0  0  0  0  0  0  0  0  0
  141.3440   71.7200  226.6200 C   0  0  0  0  0  0  0  0  0  0  0  0
  140.8160   71.8900  225.3580 C   0  0  0  0  0  0  0  0  0  0  0  0
  137.5019   71.5487  224.7063 H   0  0  0  0  0  0  0  0  0  0  0  0
  137.4745   72.4606  223.1590 H   0  0  0  0  0  0  0  0  0  0  0  0
  137.2122   70.6836  223.1590 H   0  0  0  0  0  0  0  0  0  0  0  0
  139.4285   70.4072  222.8518 H   0  0  0  0  0  0  0  0  0  0  0  0
  139.6030   73.3770  223.0680 H   0  0  0  0  0  0  0  0  0  0  0  0
  142.6760   73.0417  221.1254 H   0  0  0  0  0  0  0  0  0  0  0  0
  141.1878   73.2702  220.0686 H   0  0  0  0  0  0  0  0  0  0  0  0
  142.2050   75.2130  221.9170 H   0  0  0  0  0  0  0  0  0  0  0  0
  137.8715   76.4221  222.4254 H   0  0  0  0  0  0  0  0  0  0  0  0
  137.5334   78.7079  223.3087 H   0  0  0  0  0  0  0  0  0  0  0  0
  138.4550   80.7864  223.9540 H   0  0  0  0  0  0  0  0  0  0  0  0
  140.4717   82.2708  224.2420 H   0  0  0  0  0  0  0  0  0  0  0  0
  142.7036   81.4039  223.6362 H   0  0  0  0  0  0  0  0  0  0  0  0
  138.5142   69.4348  225.2797 H   0  0  0  0  0  0  0  0  0  0  0  0
  139.4410   69.1009  227.5586 H   0  0  0  0  0  0  0  0  0  0  0  0
  141.2504   70.5494  228.4293 H   0  0  0  0  0  0  0  0  0  0  0  0
  142.1466   72.3783  226.9839 H   0  0  0  0  0  0  0  0  0  0  0  0
  141.2180   72.6976  224.7285 H   0  0  0  0  0  0  0  0  0  0  0  0
  1  2  1  0
  2  3  1  0
  3  4  1  0
  4  5  2  0
  4  6  1  0
  6  7  1  0
  7  8  1  0
  8  9  2  0
  8 10  1  0
 10 11  2  0
 11 12  1  0
 12 13  2  0
 13 14  1  0
 14 15  2  0
 15 16  1  0
 16 17  2  0
 17 18  1  0
 17 19  1  0
 19 20  2  0
  2 21  1  0
 21 22  2  0
 22 23  1  0
 23 24  2  0
 24 25  1  0
 25 26  2  0
 20 10  1  0
 26 21  1  0
 19 13  1  0
  1 27  1  0
  1 28  1  0
  1 29  1  0
  2 30  1  6
  3 31  1  0
  6 32  1  0
  6 33  1  0
  7 34  1  0
 11 35  1  0
 12 36  1  0
 14 37  1  0
 15 38  1  0
 16 39  1  0
 22 40  1  0
 23 41  1  0
 24 42  1  0
 25 43  1  0
 26 44  1  0
M  END
>  <smiles>  (12) 
C[C@@H](NC(=O)CNC(=O)c1ccc2cccc(F)c2n1)c1ccccc1

>  <score_type>  (12) 
oracle

>  <origin>  (12) 
autodockgpu

>  <m_score__min__energy>  (12) 
-8.8200000000000003

>  <m_primary>  (12) 
energy

>  <rmsd>  (12) 
9.566133156134857

>  <m_score__min__rmsd>  (12) 
9.566133156134857

>  <meeko>  (12) 
{"free_energy": -7.75, "intermolecular_energy": -9.24, "internal_energy": -1.96, "cluster_size": 21, "cluster_id": 4, "rank_in_cluster": 13}

>  <energy>  (12) 
-8.51

>  <cluster_rmsd>  (12) 
0.18

>  <cluster>  (12) 
2

$$$$

     RDKit          3D

 44 46  0  0  0  0  0  0  0  0999 V2000
  137.6960   71.5770  223.5900 C   0  0  0  0  0  0  0  0  0  0  0  0
  139.1740   71.2980  223.4160 C   0  0  1  0  0  0  0  0  0  0  0  0
  139.8740   72.4200  222.7860 N   0  0  0  0  0  0  0  0  0  0  0  0
  140.8380   72.2310  221.7780 C   0  0  0  0  0  0  0  0  0  0  0  0
  141.0700   71.0230  221.4320 O   0  0  0  0  0  0  0  0  0  0  0  0
  141.5950   73.2780  221.0900 C   0  0  0  0  0  0  0  0  0  0  0  0
  141.3750   74.6200  221.5830 N   0  0  0  0  0  0  0  0  0  0  0  0
  140.0600   75.1790  221.6970 C   0  0  0  0  0  0  0  0  0  0  0  0
  139.0210   74.5230  221.3760 O   0  0  0  0  0  0  0  0  0  0  0  0
  139.9020   76.5580  222.2000 C   0  0  0  0  0  0  0  0  0  0  0  0
  138.6440   77.0410  222.4890 C   0  0  0  0  0  0  0  0  0  0  0  0
  138.4080   78.3140  222.9630 C   0  0  0  0  0  0  0  0  0  0  0  0
  139.5040   79.1260  223.1500 C   0  0  0  0  0  0  0  0  0  0  0  0
  139.2850   80.4050  223.6240 C   0  0  0  0  0  0  0  0  0  0  0  0
  140.3890   81.2390  223.8180 C   0  0  0  0  0  0  0  0  0  0  0  0
  141.6510   80.7550  223.5280 C   0  0  0  0  0  0  0  0  0  0  0  0
  141.8640   79.4790  223.0560 C   0  0  0  0  0  0  0  0  0  0  0  0
  143.1360   79.0500  222.7850 F   0  0  0  0  0  0  0  0  0  0  0  0
  140.7740   78.6440  222.8610 C   0  0  0  0  0  0  0  0  0  0  0  0
  140.9480   77.3740  222.3940 N   0  0  0  0  0  0  0  0  0  0  0  0
  139.7330   71.0190  224.7650 C   0  0  0  0  0  0  0  0  0  0  0  0
  140.6540   71.8890  225.3130 C   0  0  0  0  0  0  0  0  0  0  0  0
  141.1810   71.6320  226.5770 C   0  0  0  0  0  0  0  0  0  0  0  0
  140.8060   70.5210  227.3060 C   0  0  0  0  0  0  0  0  0  0  0  0
  139.8870   69.6490  226.7640 C   0  0  0  0  0  0  0  0  0  0  0  0
  139.3740   69.9160  225.5120 C   0  0  0  0  0  0  0  0  0  0  0  0
  137.4552   71.6225  224.6624 H   0  0  0  0  0  0  0  0  0  0  0  0
  137.4461   72.5382  223.1170 H   0  0  0  0  0  0  0  0  0  0  0  0
  137.1129   70.7731  223.1170 H   0  0  0  0  0  0  0  0  0  0  0  0
  139.3122   70.4361  222.7466 H   0  0  0  0  0  0  0  0  0  0  0  0
  139.6310   73.3820  223.1030 H   0  0  0  0  0  0  0  0  0  0  0  0
  142.6657   73.0483  221.1938 H   0  0  0  0  0  0  0  0  0  0  0  0
  141.2447   73.2738  220.0473 H   0  0  0  0  0  0  0  0  0  0  0  0
  142.1550   75.2480  221.8810 H   0  0  0  0  0  0  0  0  0  0  0  0
  137.7822   76.3754  222.3332 H   0  0  0  0  0  0  0  0  0  0  0  0
  137.3889   78.6654  223.1821 H   0  0  0  0  0  0  0  0  0  0  0  0
  138.2665   80.7581  223.8433 H   0  0  0  0  0  0  0  0  0  0  0  0
  140.2562   82.2637  224.1952 H   0  0  0  0  0  0  0  0  0  0  0  0
  142.5182   81.4144  223.6801 H   0  0  0  0  0  0  0  0  0  0  0  0
  140.9707   72.7818  224.7539 H   0  0  0  0  0  0  0  0  0  0  0  0
  141.9141   72.3317  227.0048 H   0  0  0  0  0  0  0  0  0  0  0  0
  141.2335   70.3352  228.3023 H   0  0  0  0  0  0  0  0  0  0  0  0
  139.5680   68.7553  227.3204 H   0  0  0  0  0  0  0  0  0  0  0  0
  138.6414   69.2139  225.0874 H   0  0  0  0  0  0  0  0  0  0  0  0
  1  2  1  0
  2  3  1  0
  3  4  1  0
  4  5  2  0
  4  6  1  0
  6  7  1  0
  7  8  1  0
  8  9  2  0
  8 10  1  0
 10 11  2  0
 11 12  1  0
 12 13  2  0
 13 14  1  0
 14 15  2  0
 15 16  1  0
 16 17  2  0
 17 18  1  0
 17 19  1  0
 19 20  2  0
  2 21  1  0
 21 22  2  0
 22 23  1  0
 23 24  2  0
 24 25  1  0
 25 26  2  0
 20 10  1  0
 26 21  1  0
 19 13  1  0
  1 27  1  0
  1 28  1  0
  1 29  1  0
  2 30  1  6
  3 31  1  0
  6 32  1  0
  6 33  1  0
  7 34  1  0
 11 35  1  0
 12 36  1  0
 14 37  1  0
 15 38  1  0
 16 39  1  0
 22 40  1  0
 23 41  1  0
 24 42  1  0
 25 43  1  0
 26 44  1  0
M  END
>  <smiles>  (13) 
C[C@@H](NC(=O)CNC(=O)c1ccc2cccc(F)c2n1)c1ccccc1

>  <score_type>  (13) 
oracle

>  <origin>  (13) 
autodockgpu

>  <m_score__min__energy>  (13) 
-8.8200000000000003

>  <m_primary>  (13) 
energy

>  <rmsd>  (13) 
9.734776001760308

>  <m_score__min__rmsd>  (13) 
9.734776001760308

>  <meeko>  (13) 
{"free_energy": -7.66, "intermolecular_energy": -9.15, "internal_energy": -1.94, "cluster_size": 21, "cluster_id": 4, "rank_in_cluster": 21}

>  <energy>  (13) 
-8.34

>  <cluster_rmsd>  (13) 
0.2

>  <cluster>  (13) 
2

$$$$

     RDKit          3D

 44 46  0  0  0  0  0  0  0  0999 V2000
  140.5620   67.3890  226.5190 C   0  0  0  0  0  0  0  0  0  0  0  0
  139.9530   68.5230  225.7230 C   0  0  1  0  0  0  0  0  0  0  0  0
  138.4980   68.3930  225.6080 N   0  0  0  0  0  0  0  0  0  0  0  0
  137.7170   69.3170  224.8880 C   0  0  0  0  0  0  0  0  0  0  0  0
  138.3460   70.2790  224.3300 O   0  0  0  0  0  0  0  0  0  0  0  0
  136.2640   69.2810  224.7160 C   0  0  0  0  0  0  0  0  0  0  0  0
  135.5650   70.4760  225.1370 N   0  0  0  0  0  0  0  0  0  0  0  0
  134.4380   70.4220  226.0200 C   0  0  0  0  0  0  0  0  0  0  0  0
  133.9980   69.3250  226.4830 O   0  0  0  0  0  0  0  0  0  0  0  0
  133.7630   71.6770  226.4060 C   0  0  0  0  0  0  0  0  0  0  0  0
  132.5830   71.6280  227.1180 C   0  0  0  0  0  0  0  0  0  0  0  0
  131.8900   72.7510  227.5180 C   0  0  0  0  0  0  0  0  0  0  0  0
  132.4240   73.9730  227.1760 C   0  0  0  0  0  0  0  0  0  0  0  0
  131.7410   75.1070  227.5700 C   0  0  0  0  0  0  0  0  0  0  0  0
  132.2730   76.3530  227.2290 C   0  0  0  0  0  0  0  0  0  0  0  0
  133.4560   76.4020  226.5150 C   0  0  0  0  0  0  0  0  0  0  0  0
  134.1330   75.2690  226.1260 C   0  0  0  0  0  0  0  0  0  0  0  0
  135.3020   75.3750  225.4200 F   0  0  0  0  0  0  0  0  0  0  0  0
  133.6130   74.0280  226.4600 C   0  0  0  0  0  0  0  0  0  0  0  0
  134.2570   72.8830  226.0900 N   0  0  0  0  0  0  0  0  0  0  0  0
  140.3150   69.7910  226.4100 C   0  0  0  0  0  0  0  0  0  0  0  0
  141.1200   70.7070  225.7650 C   0  0  0  0  0  0  0  0  0  0  0  0
  141.4630   71.8970  226.4060 C   0  0  0  0  0  0  0  0  0  0  0  0
  141.0180   72.1900  227.6780 C   0  0  0  0  0  0  0  0  0  0  0  0
  140.2140   71.2770  228.3270 C   0  0  0  0  0  0  0  0  0  0  0  0
  139.8820   70.1050  227.6820 C   0  0  0  0  0  0  0  0  0  0  0  0
  140.4515   67.5948  227.5939 H   0  0  0  0  0  0  0  0  0  0  0  0
  140.0473   66.4490  226.2708 H   0  0  0  0  0  0  0  0  0  0  0  0
  141.6298   67.2989  226.2708 H   0  0  0  0  0  0  0  0  0  0  0  0
  140.3452   68.5063  224.6954 H   0  0  0  0  0  0  0  0  0  0  0  0
  138.0470   67.5790  226.0740 H   0  0  0  0  0  0  0  0  0  0  0  0
  136.0513   69.1202  223.6488 H   0  0  0  0  0  0  0  0  0  0  0  0
  135.8995   68.4696  225.3632 H   0  0  0  0  0  0  0  0  0  0  0  0
  135.8430   71.4330  224.8220 H   0  0  0  0  0  0  0  0  0  0  0  0
  132.1732   70.6415  227.3805 H   0  0  0  0  0  0  0  0  0  0  0  0
  130.9511   72.6738  228.0858 H   0  0  0  0  0  0  0  0  0  0  0  0
  130.8020   75.0310  228.1379 H   0  0  0  0  0  0  0  0  0  0  0  0
  131.7591   77.2799  227.5237 H   0  0  0  0  0  0  0  0  0  0  0  0
  133.8720   77.3846  226.2476 H   0  0  0  0  0  0  0  0  0  0  0  0
  141.4896   70.4997  224.7499 H   0  0  0  0  0  0  0  0  0  0  0  0
  142.1054   72.6210  225.8833 H   0  0  0  0  0  0  0  0  0  0  0  0
  141.2993   73.1349  228.1659 H   0  0  0  0  0  0  0  0  0  0  0  0
  139.8437   71.4806  229.3426 H   0  0  0  0  0  0  0  0  0  0  0  0
  139.2394   69.3835  228.2078 H   0  0  0  0  0  0  0  0  0  0  0  0
  1  2  1  0
  2  3  1  0
  3  4  1  0
  4  5  2  0
  4  6  1  0
  6  7  1  0
  7  8  1  0
  8  9  2  0
  8 10  1  0
 10 11  2  0
 11 12  1  0
 12 13  2  0
 13 14  1  0
 14 15  2  0
 15 16  1  0
 16 17  2  0
 17 18  1  0
 17 19  1  0
 19 20  2  0
  2 21  1  0
 21 22  2  0
 22 23  1  0
 23 24  2  0
 24 25  1  0
 25 26  2  0
 20 10  1  0
 26 21  1  0
 19 13  1  0
  1 27  1  0
  1 28  1  0
  1 29  1  0
  2 30  1  6
  3 31  1  0
  6 32  1  0
  6 33  1  0
  7 34  1  0
 11 35  1  0
 12 36  1  0
 14 37  1  0
 15 38  1  0
 16 39  1  0
 22 40  1  0
 23 41  1  0
 24 42  1  0
 25 43  1  0
 26 44  1  0
M  END
>  <smiles>  (14) 
C[C@@H](NC(=O)CNC(=O)c1ccc2cccc(F)c2n1)c1ccccc1

>  <score_type>  (14) 
oracle

>  <origin>  (14) 
autodockgpu

>  <m_score__min__energy>  (14) 
-8.8200000000000003

>  <m_primary>  (14) 
energy

>  <rmsd>  (14) 
10.918742908241235

>  <m_score__min__rmsd>  (14) 
10.918742908241235

>  <meeko>  (14) 
{"free_energy": -8.61, "intermolecular_energy": -10.1, "internal_energy": -1.35, "cluster_size": 13, "cluster_id": 2, "rank_in_cluster": 1}

>  <energy>  (14) 
-7.7

>  <cluster_rmsd>  (14) 
1.65

>  <cluster>  (14) 
2

$$$$

     RDKit          3D

 44 46  0  0  0  0  0  0  0  0999 V2000
  142.9170   75.7760  218.8930 C   0  0  0  0  0  0  0  0  0  0  0  0
  142.9530   75.0710  220.2320 C   0  0  1  0  0  0  0  0  0  0  0  0
  141.7090   74.3490  220.5060 N   0  0  0  0  0  0  0  0  0  0  0  0
  140.5080   75.0150  220.8170 C   0  0  0  0  0  0  0  0  0  0  0  0
  140.5560   76.2910  220.8410 O   0  0  0  0  0  0  0  0  0  0  0  0
  139.2170   74.3900  221.1100 C   0  0  0  0  0  0  0  0  0  0  0  0
  139.2020   73.5260  222.2700 N   0  0  0  0  0  0  0  0  0  0  0  0
  140.0410   72.3690  222.3630 C   0  0  0  0  0  0  0  0  0  0  0  0
  140.8450   72.0450  221.4360 O   0  0  0  0  0  0  0  0  0  0  0  0
  139.9730   71.5230  223.5710 C   0  0  0  0  0  0  0  0  0  0  0  0
  139.2990   70.3210  223.5270 C   0  0  0  0  0  0  0  0  0  0  0  0
  139.1890   69.4710  224.6080 C   0  0  0  0  0  0  0  0  0  0  0  0
  139.7900   69.8670  225.7810 C   0  0  0  0  0  0  0  0  0  0  0  0
  139.6880   69.0280  226.8730 C   0  0  0  0  0  0  0  0  0  0  0  0
  140.2950   69.4180  228.0690 C   0  0  0  0  0  0  0  0  0  0  0  0
  140.9700   70.6240  228.1130 C   0  0  0  0  0  0  0  0  0  0  0  0
  141.0700   71.4570  227.0220 C   0  0  0  0  0  0  0  0  0  0  0  0
  141.7510   72.6410  227.1210 F   0  0  0  0  0  0  0  0  0  0  0  0
  140.4710   71.0770  225.8300 C   0  0  0  0  0  0  0  0  0  0  0  0
  140.5480   71.8790  224.7290 N   0  0  0  0  0  0  0  0  0  0  0  0
  144.1100   74.1370  220.2090 C   0  0  0  0  0  0  0  0  0  0  0  0
  145.2810   74.4910  220.8470 C   0  0  0  0  0  0  0  0  0  0  0  0
  146.3690   73.6180  220.8280 C   0  0  0  0  0  0  0  0  0  0  0  0
  146.3090   72.3990  220.1840 C   0  0  0  0  0  0  0  0  0  0  0  0
  145.1410   72.0420  219.5450 C   0  0  0  0  0  0  0  0  0  0  0  0
  144.0740   72.9140  219.5720 C   0  0  0  0  0  0  0  0  0  0  0  0
  142.8615   76.8630  219.0523 H   0  0  0  0  0  0  0  0  0  0  0  0
  143.8287   75.5345  218.3268 H   0  0  0  0  0  0  0  0  0  0  0  0
  142.0347   75.4429  218.3268 H   0  0  0  0  0  0  0  0  0  0  0  0
  143.0608   75.8119  221.0379 H   0  0  0  0  0  0  0  0  0  0  0  0
  141.7320   73.3090  220.4580 H   0  0  0  0  0  0  0  0  0  0  0  0
  138.4800   75.1904  221.2719 H   0  0  0  0  0  0  0  0  0  0  0  0
  138.9849   73.7482  220.2473 H   0  0  0  0  0  0  0  0  0  0  0  0
  138.5830   73.6990  223.0950 H   0  0  0  0  0  0  0  0  0  0  0  0
  138.8240   70.0242  222.5802 H   0  0  0  0  0  0  0  0  0  0  0  0
  138.6445   68.5180  224.5355 H   0  0  0  0  0  0  0  0  0  0  0  0
  139.1420   68.0757  226.8027 H   0  0  0  0  0  0  0  0  0  0  0  0
  140.2370   68.7766  228.9608 H   0  0  0  0  0  0  0  0  0  0  0  0
  141.4455   70.9295  229.0567 H   0  0  0  0  0  0  0  0  0  0  0  0
  145.3564   75.4568  221.3681 H   0  0  0  0  0  0  0  0  0  0  0  0
  147.2985   73.9088  221.3394 H   0  0  0  0  0  0  0  0  0  0  0  0
  147.1777   71.7243  220.1807 H   0  0  0  0  0  0  0  0  0  0  0  0
  145.0618   71.0774  219.0223 H   0  0  0  0  0  0  0  0  0  0  0  0
  143.1463   72.6196  219.0594 H   0  0  0  0  0  0  0  0  0  0  0  0
  1  2  1  0
  2  3  1  0
  3  4  1  0
  4  5  2  0
  4  6  1  0
  6  7  1  0
  7  8  1  0
  8  9  2  0
  8 10  1  0
 10 11  2  0
 11 12  1  0
 12 13  2  0
 13 14  1  0
 14 15  2  0
 15 16  1  0
 16 17  2  0
 17 18  1  0
 17 19  1  0
 19 20  2  0
  2 21  1  0
 21 22  2  0
 22 23  1  0
 23 24  2  0
 24 25  1  0
 25 26  2  0
 20 10  1  0
 26 21  1  0
 19 13  1  0
  1 27  1  0
  1 28  1  0
  1 29  1  0
  2 30  1  1
  3 31  1  0
  6 32  1  0
  6 33  1  0
  7 34  1  0
 11 35  1  0
 12 36  1  0
 14 37  1  0
 15 38  1  0
 16 39  1  0
 22 40  1  0
 23 41  1  0
 24 42  1  0
 25 43  1  0
 26 44  1  0
M  END
>  <smiles>  (15) 
C[C@@H](NC(=O)CNC(=O)c1ccc2cccc(F)c2n1)c1ccccc1

>  <score_type>  (15) 
oracle

>  <origin>  (15) 
autodockgpu

>  <m_score__min__energy>  (15) 
-8.8200000000000003

>  <m_primary>  (15) 
energy

>  <rmsd>  (15) 
6.548361146233264

>  <m_score__min__rmsd>  (15) 
6.548361146233264

>  <meeko>  (15) 
{"free_energy": -8.05, "intermolecular_energy": -9.54, "internal_energy": -1.66, "cluster_size": 7, "cluster_id": 3, "rank_in_cluster": 6}

>  <energy>  (15) 
-7.7

>  <cluster_rmsd>  (15) 
1.62

>  <cluster>  (15) 
2

$$$$

     RDKit          3D

 44 46  0  0  0  0  0  0  0  0999 V2000
  139.3510   79.0060  221.0090 C   0  0  0  0  0  0  0  0  0  0  0  0
  139.9000   78.3800  222.2740 C   0  0  1  0  0  0  0  0  0  0  0  0
  140.4270   77.0340  222.0360 N   0  0  0  0  0  0  0  0  0  0  0  0
  139.6280   75.9950  221.5250 C   0  0  0  0  0  0  0  0  0  0  0  0
  138.4110   76.2880  221.2690 O   0  0  0  0  0  0  0  0  0  0  0  0
  140.0540   74.6200  221.2560 C   0  0  0  0  0  0  0  0  0  0  0  0
  139.8460   73.6890  222.3440 N   0  0  0  0  0  0  0  0  0  0  0  0
  140.6370   72.5030  222.4860 C   0  0  0  0  0  0  0  0  0  0  0  0
  141.5650   72.2110  221.6700 O   0  0  0  0  0  0  0  0  0  0  0  0
  140.3700   71.5880  223.6140 C   0  0  0  0  0  0  0  0  0  0  0  0
  139.7330   70.3870  223.3840 C   0  0  0  0  0  0  0  0  0  0  0  0
  139.4470   69.4760  224.3790 C   0  0  0  0  0  0  0  0  0  0  0  0
  139.8260   69.8060  225.6600 C   0  0  0  0  0  0  0  0  0  0  0  0
  139.5470   68.9050  226.6680 C   0  0  0  0  0  0  0  0  0  0  0  0
  139.9270   69.2290  227.9730 C   0  0  0  0  0  0  0  0  0  0  0  0
  140.5640   70.4330  228.2030 C   0  0  0  0  0  0  0  0  0  0  0  0
  140.8420   71.3290  227.1950 C   0  0  0  0  0  0  0  0  0  0  0  0
  141.4770   72.5090  227.4790 F   0  0  0  0  0  0  0  0  0  0  0  0
  140.4680   71.0150  225.8970 C   0  0  0  0  0  0  0  0  0  0  0  0
  140.7270   71.8790  224.8730 N   0  0  0  0  0  0  0  0  0  0  0  0
  140.9660   79.2810  222.7860 C   0  0  0  0  0  0  0  0  0  0  0  0
  140.6180   80.4040  223.5090 C   0  0  0  0  0  0  0  0  0  0  0  0
  141.6140   81.2510  223.9910 C   0  0  0  0  0  0  0  0  0  0  0  0
  142.9520   80.9990  223.7660 C   0  0  0  0  0  0  0  0  0  0  0  0
  143.3050   79.8790  223.0440 C   0  0  0  0  0  0  0  0  0  0  0  0
  142.3090   79.0500  222.5730 C   0  0  0  0  0  0  0  0  0  0  0  0
  138.6469   79.8089  221.2729 H   0  0  0  0  0  0  0  0  0  0  0  0
  140.1789   79.4241  220.4176 H   0  0  0  0  0  0  0  0  0  0  0  0
  138.8284   78.2397  220.4176 H   0  0  0  0  0  0  0  0  0  0  0  0
  139.0927   78.2663  223.0125 H   0  0  0  0  0  0  0  0  0  0  0  0
  141.4320   76.8630  222.2530 H   0  0  0  0  0  0  0  0  0  0  0  0
  139.4938   74.2543  220.3828 H   0  0  0  0  0  0  0  0  0  0  0  0
  141.1410   74.6625  221.0927 H   0  0  0  0  0  0  0  0  0  0  0  0
  139.1150   73.8300  223.0770 H   0  0  0  0  0  0  0  0  0  0  0  0
  139.4375   70.1428  222.3530 H   0  0  0  0  0  0  0  0  0  0  0  0
  138.9378   68.5263  224.1581 H   0  0  0  0  0  0  0  0  0  0  0  0
  139.0378   67.9549  226.4491 H   0  0  0  0  0  0  0  0  0  0  0  0
  139.7224   68.5370  228.8032 H   0  0  0  0  0  0  0  0  0  0  0  0
  140.8608   70.6859  229.2316 H   0  0  0  0  0  0  0  0  0  0  0  0
  139.5591   80.6294  223.7039 H   0  0  0  0  0  0  0  0  0  0  0  0
  141.3262   82.1437  224.5657 H   0  0  0  0  0  0  0  0  0  0  0  0
  143.7231   81.6797  224.1559 H   0  0  0  0  0  0  0  0  0  0  0  0
  144.3629   79.6506  222.8471 H   0  0  0  0  0  0  0  0  0  0  0  0
  142.6004   78.1587  221.9979 H   0  0  0  0  0  0  0  0  0  0  0  0
  1  2  1  0
  2  3  1  0
  3  4  1  0
  4  5  2  0
  4  6  1  0
  6  7  1  0
  7  8  1  0
  8  9  2  0
  8 10  1  0
 10 11  2  0
 11 12  1  0
 12 13  2  0
 13 14  1  0
 14 15  2  0
 15 16  1  0
 16 17  2  0
 17 18  1  0
 17 19  1  0
 19 20  2  0
  2 21  1  0
 21 22  2  0
 22 23  1  0
 23 24  2  0
 24 25  1  0
 25 26  2  0
 20 10  1  0
 26 21  1  0
 19 13  1  0
  1 27  1  0
  1 28  1  0
  1 29  1  0
  2 30  1  1
  3 31  1  0
  6 32  1  0
  6 33  1  0
  7 34  1  0
 11 35  1  0
 12 36  1  0
 14 37  1  0
 15 38  1  0
 16 39  1  0
 22 40  1  0
 23 41  1  0
 24 42  1  0
 25 43  1  0
 26 44  1  0
M  END
>  <smiles>  (16) 
C[C@@H](NC(=O)CNC(=O)c1ccc2cccc(F)c2n1)c1ccccc1

>  <score_type>  (16) 
oracle

>  <origin>  (16) 
autodockgpu

>  <m_score__min__energy>  (16) 
-8.8200000000000003

>  <m_primary>  (16) 
energy

>  <rmsd>  (16) 
3.8896037532862064

>  <m_score__min__rmsd>  (16) 
3.8896037532862064

>  <meeko>  (16) 
{"free_energy": -8.82, "intermolecular_energy": -10.32, "internal_energy": -0.77, "cluster_size": 7, "cluster_id": 1, "rank_in_cluster": 1}

>  <energy>  (16) 
-7.69

>  <cluster_rmsd>  (16) 
1.61

>  <cluster>  (16) 
2

$$$$

     RDKit          3D

 44 46  0  0  0  0  0  0  0  0999 V2000
  139.4940   68.1200  225.3800 C   0  0  0  0  0  0  0  0  0  0  0  0
  139.7830   69.5070  224.8470 C   0  0  1  0  0  0  0  0  0  0  0  0
  138.6020   70.1150  224.2300 N   0  0  0  0  0  0  0  0  0  0  0  0
  138.7000   71.1550  223.2860 C   0  0  0  0  0  0  0  0  0  0  0  0
  139.8810   71.5400  222.9860 O   0  0  0  0  0  0  0  0  0  0  0  0
  137.5880   71.8310  222.6160 C   0  0  0  0  0  0  0  0  0  0  0  0
  136.6080   72.4240  223.5000 N   0  0  0  0  0  0  0  0  0  0  0  0
  135.6590   71.6290  224.2210 C   0  0  0  0  0  0  0  0  0  0  0  0
  135.6320   70.3620  224.1260 O   0  0  0  0  0  0  0  0  0  0  0  0
  134.6790   72.2950  225.1010 C   0  0  0  0  0  0  0  0  0  0  0  0
  133.7750   71.5380  225.8150 C   0  0  0  0  0  0  0  0  0  0  0  0
  132.8280   72.0800  226.6590 C   0  0  0  0  0  0  0  0  0  0  0  0
  132.8050   73.4510  226.7780 C   0  0  0  0  0  0  0  0  0  0  0  0
  131.8630   74.0090  227.6190 C   0  0  0  0  0  0  0  0  0  0  0  0
  131.8290   75.3990  227.7490 C   0  0  0  0  0  0  0  0  0  0  0  0
  132.7360   76.1590  227.0330 C   0  0  0  0  0  0  0  0  0  0  0  0
  133.6740   75.5980  226.1960 C   0  0  0  0  0  0  0  0  0  0  0  0
  134.5490   76.3970  225.5090 F   0  0  0  0  0  0  0  0  0  0  0  0
  133.7140   74.2180  226.0610 C   0  0  0  0  0  0  0  0  0  0  0  0
  134.6300   73.6280  225.2400 N   0  0  0  0  0  0  0  0  0  0  0  0
  140.2630   70.3290  225.9890 C   0  0  0  0  0  0  0  0  0  0  0  0
  139.9330   69.9600  227.2770 C   0  0  0  0  0  0  0  0  0  0  0  0
  140.3800   70.7270  228.3520 C   0  0  0  0  0  0  0  0  0  0  0  0
  141.1520   71.8560  228.1650 C   0  0  0  0  0  0  0  0  0  0  0  0
  141.4840   72.2290  226.8800 C   0  0  0  0  0  0  0  0  0  0  0  0
  141.0340   71.4610  225.8270 C   0  0  0  0  0  0  0  0  0  0  0  0
  139.4985   68.1415  226.4798 H   0  0  0  0  0  0  0  0  0  0  0  0
  138.5075   67.7885  225.0238 H   0  0  0  0  0  0  0  0  0  0  0  0
  140.2660   67.4221  225.0238 H   0  0  0  0  0  0  0  0  0  0  0  0
  140.5457   69.4485  224.0565 H   0  0  0  0  0  0  0  0  0  0  0  0
  137.6680   69.7470  224.5070 H   0  0  0  0  0  0  0  0  0  0  0  0
  138.0051   72.6296  221.9850 H   0  0  0  0  0  0  0  0  0  0  0  0
  137.0564   71.0548  222.0459 H   0  0  0  0  0  0  0  0  0  0  0  0
  136.5410   73.4550  223.6590 H   0  0  0  0  0  0  0  0  0  0  0  0
  133.8106   70.4440  225.7060 H   0  0  0  0  0  0  0  0  0  0  0  0
  132.1218   71.4440  227.2129 H   0  0  0  0  0  0  0  0  0  0  0  0
  131.1563   73.3740  228.1733 H   0  0  0  0  0  0  0  0  0  0  0  0
  131.0934   75.8812  228.4096 H   0  0  0  0  0  0  0  0  0  0  0  0
  132.7067   77.2537  227.1363 H   0  0  0  0  0  0  0  0  0  0  0  0
  139.3197   69.0643  227.4549 H   0  0  0  0  0  0  0  0  0  0  0  0
  140.1108   70.4249  229.3749 H   0  0  0  0  0  0  0  0  0  0  0  0
  141.4962   72.4476  229.0261 H   0  0  0  0  0  0  0  0  0  0  0  0
  142.0973   73.1238  226.6979 H   0  0  0  0  0  0  0  0  0  0  0  0
  141.3037   71.7668  224.8054 H   0  0  0  0  0  0  0  0  0  0  0  0
  1  2  1  0
  2  3  1  0
  3  4  1  0
  4  5  2  0
  4  6  1  0
  6  7  1  0
  7  8  1  0
  8  9  2  0
  8 10  1  0
 10 11  2  0
 11 12  1  0
 12 13  2  0
 13 14  1  0
 14 15  2  0
 15 16  1  0
 16 17  2  0
 17 18  1  0
 17 19  1  0
 19 20  2  0
  2 21  1  0
 21 22  2  0
 22 23  1  0
 23 24  2  0
 24 25  1  0
 25 26  2  0
 20 10  1  0
 26 21  1  0
 19 13  1  0
  1 27  1  0
  1 28  1  0
  1 29  1  0
  2 30  1  6
  3 31  1  0
  6 32  1  0
  6 33  1  0
  7 34  1  0
 11 35  1  0
 12 36  1  0
 14 37  1  0
 15 38  1  0
 16 39  1  0
 22 40  1  0
 23 41  1  0
 24 42  1  0
 25 43  1  0
 26 44  1  0
M  END
>  <smiles>  (17) 
C[C@@H](NC(=O)CNC(=O)c1ccc2cccc(F)c2n1)c1ccccc1

>  <score_type>  (17) 
oracle

>  <origin>  (17) 
autodockgpu

>  <m_score__min__energy>  (17) 
-8.8200000000000003

>  <m_primary>  (17) 
energy

>  <rmsd>  (17) 
9.966415841990205

>  <m_score__min__rmsd>  (17) 
9.966415841990205

>  <meeko>  (17) 
{"free_energy": -7.69, "intermolecular_energy": -9.18, "internal_energy": -2.03, "cluster_size": 13, "cluster_id": 2, "rank_in_cluster": 10}

>  <energy>  (17) 
-7.69

>  <cluster_rmsd>  (17) 
1.64

>  <cluster>  (17) 
2

$$$$

     RDKit          3D

 44 46  0  0  0  0  0  0  0  0999 V2000
  137.7620   71.5290  223.6760 C   0  0  0  0  0  0  0  0  0  0  0  0
  139.2450   71.2910  223.4890 C   0  0  1  0  0  0  0  0  0  0  0  0
  139.9000   72.4100  222.8070 N   0  0  0  0  0  0  0  0  0  0  0  0
  140.8830   72.2140  221.8180 C   0  0  0  0  0  0  0  0  0  0  0  0
  141.1730   71.0020  221.5390 O   0  0  0  0  0  0  0  0  0  0  0  0
  141.5970   73.2590  221.0830 C   0  0  0  0  0  0  0  0  0  0  0  0
  141.4120   74.6020  221.5880 N   0  0  0  0  0  0  0  0  0  0  0  0
  140.1130   75.1990  221.6900 C   0  0  0  0  0  0  0  0  0  0  0  0
  139.0590   74.5790  221.3500 O   0  0  0  0  0  0  0  0  0  0  0  0
  139.9910   76.5780  222.2060 C   0  0  0  0  0  0  0  0  0  0  0  0
  138.7500   77.0750  222.5400 C   0  0  0  0  0  0  0  0  0  0  0  0
  138.5480   78.3490  223.0290 C   0  0  0  0  0  0  0  0  0  0  0  0
  139.6590   79.1460  223.1820 C   0  0  0  0  0  0  0  0  0  0  0  0
  139.4740   80.4240  223.6700 C   0  0  0  0  0  0  0  0  0  0  0  0
  140.5950   81.2430  223.8300 C   0  0  0  0  0  0  0  0  0  0  0  0
  141.8400   80.7440  223.4940 C   0  0  0  0  0  0  0  0  0  0  0  0
  142.0200   79.4680  223.0090 C   0  0  0  0  0  0  0  0  0  0  0  0
  143.2760   79.0240  222.6920 F   0  0  0  0  0  0  0  0  0  0  0  0
  140.9130   78.6490  222.8470 C   0  0  0  0  0  0  0  0  0  0  0  0
  141.0540   77.3790  222.3670 N   0  0  0  0  0  0  0  0  0  0  0  0
  139.8330   71.0800  224.8380 C   0  0  0  0  0  0  0  0  0  0  0  0
  139.3880   70.0310  225.6170 C   0  0  0  0  0  0  0  0  0  0  0  0
  139.9370   69.8300  226.8830 C   0  0  0  0  0  0  0  0  0  0  0  0
  140.9200   70.6560  227.3870 C   0  0  0  0  0  0  0  0  0  0  0  0
  141.3670   71.7050  226.6130 C   0  0  0  0  0  0  0  0  0  0  0  0
  140.8170   71.8930  225.3630 C   0  0  0  0  0  0  0  0  0  0  0  0
  137.5292   71.5664  224.7504 H   0  0  0  0  0  0  0  0  0  0  0  0
  137.4818   72.4836  223.2067 H   0  0  0  0  0  0  0  0  0  0  0  0
  137.1972   70.7100  223.2067 H   0  0  0  0  0  0  0  0  0  0  0  0
  139.4002   70.4097  222.8494 H   0  0  0  0  0  0  0  0  0  0  0  0
  139.6080   73.3740  223.0710 H   0  0  0  0  0  0  0  0  0  0  0  0
  142.6716   73.0268  221.1188 H   0  0  0  0  0  0  0  0  0  0  0  0
  141.1809   73.2553  220.0648 H   0  0  0  0  0  0  0  0  0  0  0  0
  142.2070   75.2030  221.9010 H   0  0  0  0  0  0  0  0  0  0  0  0
  137.8746   76.4217  222.4099 H   0  0  0  0  0  0  0  0  0  0  0  0
  137.5419   78.7121  223.2856 H   0  0  0  0  0  0  0  0  0  0  0  0
  138.4685   80.7889  223.9267 H   0  0  0  0  0  0  0  0  0  0  0  0
  140.4887   82.2673  224.2167 H   0  0  0  0  0  0  0  0  0  0  0  0
  142.7205   81.3914  223.6190 H   0  0  0  0  0  0  0  0  0  0  0  0
  138.6042   69.3569  225.2410 H   0  0  0  0  0  0  0  0  0  0  0  0
  139.5766   68.9906  227.4959 H   0  0  0  0  0  0  0  0  0  0  0  0
  141.3396   70.4806  228.3886 H   0  0  0  0  0  0  0  0  0  0  0  0
  142.1500   72.3813  226.9866 H   0  0  0  0  0  0  0  0  0  0  0  0
  141.1807   72.7332  224.7533 H   0  0  0  0  0  0  0  0  0  0  0  0
  1  2  1  0
  2  3  1  0
  3  4  1  0
  4  5  2  0
  4  6  1  0
  6  7  1  0
  7  8  1  0
  8  9  2  0
  8 10  1  0
 10 11  2  0
 11 12  1  0
 12 13  2  0
 13 14  1  0
 14 15  2  0
 15 16  1  0
 16 17  2  0
 17 18  1  0
 17 19  1  0
 19 20  2  0
  2 21  1  0
 21 22  2  0
 22 23  1  0
 23 24  2  0
 24 25  1  0
 25 26  2  0
 20 10  1  0
 26 21  1  0
 19 13  1  0
  1 27  1  0
  1 28  1  0
  1 29  1  0
  2 30  1  6
  3 31  1  0
  6 32  1  0
  6 33  1  0
  7 34  1  0
 11 35  1  0
 12 36  1  0
 14 37  1  0
 15 38  1  0
 16 39  1  0
 22 40  1  0
 23 41  1  0
 24 42  1  0
 25 43  1  0
 26 44  1  0
M  END
>  <smiles>  (18) 
C[C@@H](NC(=O)CNC(=O)c1ccc2cccc(F)c2n1)c1ccccc1

>  <score_type>  (18) 
oracle

>  <origin>  (18) 
autodockgpu

>  <m_score__min__energy>  (18) 
-8.8200000000000003

>  <m_primary>  (18) 
energy

>  <rmsd>  (18) 
9.574149796888378

>  <m_score__min__rmsd>  (18) 
9.574149796888378

>  <meeko>  (18) 
{"free_energy": -7.74, "intermolecular_energy": -9.23, "internal_energy": -1.96, "cluster_size": 21, "cluster_id": 4, "rank_in_cluster": 17}

>  <energy>  (18) 
-7.69

>  <cluster_rmsd>  (18) 
1.65

>  <cluster>  (18) 
2

$$$$

     RDKit          3D

 44 46  0  0  0  0  0  0  0  0999 V2000
  139.6380   78.9470  220.6870 C   0  0  0  0  0  0  0  0  0  0  0  0
  140.0230   78.3300  222.0150 C   0  0  1  0  0  0  0  0  0  0  0  0
  140.5680   76.9800  221.8560 N   0  0  0  0  0  0  0  0  0  0  0  0
  139.7800   75.9000  221.4140 C   0  0  0  0  0  0  0  0  0  0  0  0
  138.5580   76.1600  221.1510 O   0  0  0  0  0  0  0  0  0  0  0  0
  140.2250   74.5180  221.2270 C   0  0  0  0  0  0  0  0  0  0  0  0
  139.9600   73.6310  222.3390 N   0  0  0  0  0  0  0  0  0  0  0  0
  140.6590   72.3910  222.5010 C   0  0  0  0  0  0  0  0  0  0  0  0
  141.5510   72.0100  221.6810 O   0  0  0  0  0  0  0  0  0  0  0  0
  140.3370   71.5260  223.6530 C   0  0  0  0  0  0  0  0  0  0  0  0
  139.6470   70.3490  223.4540 C   0  0  0  0  0  0  0  0  0  0  0  0
  139.3080   69.4850  224.4730 C   0  0  0  0  0  0  0  0  0  0  0  0
  139.6880   69.8380  225.7480 C   0  0  0  0  0  0  0  0  0  0  0  0
  139.3560   68.9830  226.7800 C   0  0  0  0  0  0  0  0  0  0  0  0
  139.7360   69.3300  228.0790 C   0  0  0  0  0  0  0  0  0  0  0  0
  140.4280   70.5110  228.2790 C   0  0  0  0  0  0  0  0  0  0  0  0
  140.7580   71.3600  227.2460 C   0  0  0  0  0  0  0  0  0  0  0  0
  141.4440   72.5180  227.5010 F   0  0  0  0  0  0  0  0  0  0  0  0
  140.3840   71.0230  225.9540 C   0  0  0  0  0  0  0  0  0  0  0  0
  140.6930   71.8410  224.9070 N   0  0  0  0  0  0  0  0  0  0  0  0
  141.0230   79.2310  222.6470 C   0  0  0  0  0  0  0  0  0  0  0  0
  142.3670   79.0320  222.4030 C   0  0  0  0  0  0  0  0  0  0  0  0
  143.3080   79.8740  222.9930 C   0  0  0  0  0  0  0  0  0  0  0  0
  142.9340   80.9120  223.8220 C   0  0  0  0  0  0  0  0  0  0  0  0
  141.5930   81.1150  224.0690 C   0  0  0  0  0  0  0  0  0  0  0  0
  140.6730   80.2740  223.4790 C   0  0  0  0  0  0  0  0  0  0  0  0
  139.0632   79.8681  220.8635 H   0  0  0  0  0  0  0  0  0  0  0  0
  140.5475   79.1860  220.1163 H   0  0  0  0  0  0  0  0  0  0  0  0
  139.0236   78.2351  220.1163 H   0  0  0  0  0  0  0  0  0  0  0  0
  139.1298   78.2265  222.6486 H   0  0  0  0  0  0  0  0  0  0  0  0
  141.5770   76.8370  222.0740 H   0  0  0  0  0  0  0  0  0  0  0  0
  139.7159   74.1134  220.3398 H   0  0  0  0  0  0  0  0  0  0  0  0
  141.3193   74.5604  221.1236 H   0  0  0  0  0  0  0  0  0  0  0  0
  139.2510   73.8460  223.0760 H   0  0  0  0  0  0  0  0  0  0  0  0
  139.3514   70.0856  222.4277 H   0  0  0  0  0  0  0  0  0  0  0  0
  138.7574   68.5534  224.2758 H   0  0  0  0  0  0  0  0  0  0  0  0
  138.8055   68.0510  226.5842 H   0  0  0  0  0  0  0  0  0  0  0  0
  139.4892   68.6754  228.9279 H   0  0  0  0  0  0  0  0  0  0  0  0
  140.7261   70.7824  229.3024 H   0  0  0  0  0  0  0  0  0  0  0  0
  142.6938   78.2126  221.7459 H   0  0  0  0  0  0  0  0  0  0  0  0
  144.3766   79.7068  222.7927 H   0  0  0  0  0  0  0  0  0  0  0  0
  143.6924   81.5657  224.2776 H   0  0  0  0  0  0  0  0  0  0  0  0
  141.2626   81.9336  224.7253 H   0  0  0  0  0  0  0  0  0  0  0  0
  139.6054   80.4436  223.6823 H   0  0  0  0  0  0  0  0  0  0  0  0
  1  2  1  0
  2  3  1  0
  3  4  1  0
  4  5  2  0
  4  6  1  0
  6  7  1  0
  7  8  1  0
  8  9  2  0
  8 10  1  0
 10 11  2  0
 11 12  1  0
 12 13  2  0
 13 14  1  0
 14 15  2  0
 15 16  1  0
 16 17  2  0
 17 18  1  0
 17 19  1  0
 19 20  2  0
  2 21  1  0
 21 22  2  0
 22 23  1  0
 23 24  2  0
 24 25  1  0
 25 26  2  0
 20 10  1  0
 26 21  1  0
 19 13  1  0
  1 27  1  0
  1 28  1  0
  1 29  1  0
  2 30  1  1
  3 31  1  0
  6 32  1  0
  6 33  1  0
  7 34  1  0
 11 35  1  0
 12 36  1  0
 14 37  1  0
 15 38  1  0
 16 39  1  0
 22 40  1  0
 23 41  1  0
 24 42  1  0
 25 43  1  0
 26 44  1  0
M  END
>  <smiles>  (19) 
C[C@@H](NC(=O)CNC(=O)c1ccc2cccc(F)c2n1)c1ccccc1

>  <score_type>  (19) 
oracle

>  <origin>  (19) 
autodockgpu

>  <m_score__min__energy>  (19) 
-8.8200000000000003

>  <m_primary>  (19) 
energy

>  <rmsd>  (19) 
4.0790158848417075

>  <m_score__min__rmsd>  (19) 
4.0790158848417075

>  <meeko>  (19) 
{"free_energy": -8.81, "intermolecular_energy": -10.3, "internal_energy": -0.8, "cluster_size": 7, "cluster_id": 1, "rank_in_cluster": 2}

>  <energy>  (19) 
-7.67

>  <cluster_rmsd>  (19) 
0.98

>  <cluster>  (19) 
2

$$$$

     RDKit          3D

 44 46  0  0  0  0  0  0  0  0999 V2000
  137.7540   71.5410  223.5380 C   0  0  0  0  0  0  0  0  0  0  0  0
  139.2450   71.2990  223.4350 C   0  0  1  0  0  0  0  0  0  0  0  0
  139.9410   72.4220  222.8020 N   0  0  0  0  0  0  0  0  0  0  0  0
  140.8860   72.2370  221.7760 C   0  0  0  0  0  0  0  0  0  0  0  0
  141.1030   71.0310  221.4150 O   0  0  0  0  0  0  0  0  0  0  0  0
  141.6370   73.2860  221.0840 C   0  0  0  0  0  0  0  0  0  0  0  0
  141.4200   74.6260  221.5830 N   0  0  0  0  0  0  0  0  0  0  0  0
  140.1070   75.1830  221.7110 C   0  0  0  0  0  0  0  0  0  0  0  0
  139.0650   74.5280  221.4010 O   0  0  0  0  0  0  0  0  0  0  0  0
  139.9530   76.5610  222.2200 C   0  0  0  0  0  0  0  0  0  0  0  0
  138.6990   77.0360  222.5410 C   0  0  0  0  0  0  0  0  0  0  0  0
  138.4680   78.3070  223.0220 C   0  0  0  0  0  0  0  0  0  0  0  0
  139.5620   79.1270  223.1800 C   0  0  0  0  0  0  0  0  0  0  0  0
  139.3470   80.4040  223.6600 C   0  0  0  0  0  0  0  0  0  0  0  0
  140.4500   81.2450  223.8250 C   0  0  0  0  0  0  0  0  0  0  0  0
  141.7070   80.7690  223.5030 C   0  0  0  0  0  0  0  0  0  0  0  0
  141.9170   79.4950  223.0250 C   0  0  0  0  0  0  0  0  0  0  0  0
  143.1840   79.0750  222.7210 F   0  0  0  0  0  0  0  0  0  0  0  0
  140.8280   78.6530  222.8580 C   0  0  0  0  0  0  0  0  0  0  0  0
  140.9980   77.3840  222.3860 N   0  0  0  0  0  0  0  0  0  0  0  0
  139.7520   71.0730  224.8140 C   0  0  0  0  0  0  0  0  0  0  0  0
  139.2660   70.0130  225.5520 C   0  0  0  0  0  0  0  0  0  0  0  0
  139.7390   69.7980  226.8450 C   0  0  0  0  0  0  0  0  0  0  0  0
  140.6890   70.6200  227.4160 C   0  0  0  0  0  0  0  0  0  0  0  0
  141.1770   71.6800  226.6830 C   0  0  0  0  0  0  0  0  0  0  0  0
  140.7000   71.8820  225.4050 C   0  0  0  0  0  0  0  0  0  0  0  0
  137.4626   71.5883  224.5976 H   0  0  0  0  0  0  0  0  0  0  0  0
  137.5020   72.4918  223.0456 H   0  0  0  0  0  0  0  0  0  0  0  0
  137.2142   70.7187  223.0456 H   0  0  0  0  0  0  0  0  0  0  0  0
  139.4358   70.4231  222.7975 H   0  0  0  0  0  0  0  0  0  0  0  0
  139.7090   73.3820  223.1330 H   0  0  0  0  0  0  0  0  0  0  0  0
  142.7087   73.0566  221.1781 H   0  0  0  0  0  0  0  0  0  0  0  0
  141.2786   73.2844  220.0440 H   0  0  0  0  0  0  0  0  0  0  0  0
  142.2030   75.2550  221.8740 H   0  0  0  0  0  0  0  0  0  0  0  0
  137.8376   76.3654  222.4061 H   0  0  0  0  0  0  0  0  0  0  0  0
  137.4528   78.6511  223.2690 H   0  0  0  0  0  0  0  0  0  0  0  0
  138.3324   80.7502  223.9063 H   0  0  0  0  0  0  0  0  0  0  0  0
  140.3204   82.2691  224.2049 H   0  0  0  0  0  0  0  0  0  0  0  0
  142.5734   81.4340  223.6337 H   0  0  0  0  0  0  0  0  0  0  0  0
  138.5089   69.3410  225.1216 H   0  0  0  0  0  0  0  0  0  0  0  0
  139.3448   68.9510  227.4256 H   0  0  0  0  0  0  0  0  0  0  0  0
  141.0503   70.4325  228.4379 H   0  0  0  0  0  0  0  0  0  0  0  0
  141.9344   72.3537  227.1102 H   0  0  0  0  0  0  0  0  0  0  0  0
  141.0954   72.7309  224.8279 H   0  0  0  0  0  0  0  0  0  0  0  0
  1  2  1  0
  2  3  1  0
  3  4  1  0
  4  5  2  0
  4  6  1  0
  6  7  1  0
  7  8  1  0
  8  9  2  0
  8 10  1  0
 10 11  2  0
 11 12  1  0
 12 13  2  0
 13 14  1  0
 14 15  2  0
 15 16  1  0
 16 17  2  0
 17 18  1  0
 17 19  1  0
 19 20  2  0
  2 21  1  0
 21 22  2  0
 22 23  1  0
 23 24  2  0
 24 25  1  0
 25 26  2  0
 20 10  1  0
 26 21  1  0
 19 13  1  0
  1 27  1  0
  1 28  1  0
  1 29  1  0
  2 30  1  6
  3 31  1  0
  6 32  1  0
  6 33  1  0
  7 34  1  0
 11 35  1  0
 12 36  1  0
 14 37  1  0
 15 38  1  0
 16 39  1  0
 22 40  1  0
 23 41  1  0
 24 42  1  0
 25 43  1  0
 26 44  1  0
M  END
>  <smiles>  (20) 
C[C@@H](NC(=O)CNC(=O)c1ccc2cccc(F)c2n1)c1ccccc1

>  <score_type>  (20) 
oracle

>  <origin>  (20) 
autodockgpu

>  <m_score__min__energy>  (20) 
-8.8200000000000003

>  <m_primary>  (20) 
energy

>  <rmsd>  (20) 
9.570223786890937

>  <m_score__min__rmsd>  (20) 
9.570223786890937

>  <meeko>  (20) 
{"free_energy": -7.79, "intermolecular_energy": -9.28, "internal_energy": -1.93, "cluster_size": 21, "cluster_id": 4, "rank_in_cluster": 5}

>  <energy>  (20) 
-7.64

>  <cluster_rmsd>  (20) 
1.66

>  <cluster>  (20) 
2

$$$$

     RDKit          3D

 44 46  0  0  0  0  0  0  0  0999 V2000
  139.5430   68.0730  225.4270 C   0  0  0  0  0  0  0  0  0  0  0  0
  139.8150   69.4550  224.8720 C   0  0  1  0  0  0  0  0  0  0  0  0
  138.6310   70.0310  224.2280 N   0  0  0  0  0  0  0  0  0  0  0  0
  138.7130   71.1360  223.3600 C   0  0  0  0  0  0  0  0  0  0  0  0
  139.8800   71.6120  223.1550 O   0  0  0  0  0  0  0  0  0  0  0  0
  137.5960   71.7870  222.6720 C   0  0  0  0  0  0  0  0  0  0  0  0
  136.6100   72.3930  223.5400 N   0  0  0  0  0  0  0  0  0  0  0  0
  135.6820   71.6070  224.2970 C   0  0  0  0  0  0  0  0  0  0  0  0
  135.6830   70.3370  224.2520 O   0  0  0  0  0  0  0  0  0  0  0  0
  134.6940   72.2860  225.1590 C   0  0  0  0  0  0  0  0  0  0  0  0
  133.7800   71.5390  225.8710 C   0  0  0  0  0  0  0  0  0  0  0  0
  132.8260   72.0930  226.6980 C   0  0  0  0  0  0  0  0  0  0  0  0
  132.8040   73.4660  226.8000 C   0  0  0  0  0  0  0  0  0  0  0  0
  131.8540   74.0360  227.6230 C   0  0  0  0  0  0  0  0  0  0  0  0
  131.8210   75.4280  227.7350 C   0  0  0  0  0  0  0  0  0  0  0  0
  132.7370   76.1770  227.0200 C   0  0  0  0  0  0  0  0  0  0  0  0
  133.6840   75.6040  226.2000 C   0  0  0  0  0  0  0  0  0  0  0  0
  134.5680   76.3930  225.5140 F   0  0  0  0  0  0  0  0  0  0  0  0
  133.7230   74.2230  226.0830 C   0  0  0  0  0  0  0  0  0  0  0  0
  134.6460   73.6200  225.2800 N   0  0  0  0  0  0  0  0  0  0  0  0
  140.2640   70.3060  226.0050 C   0  0  0  0  0  0  0  0  0  0  0  0
  139.8540   70.0030  227.2870 C   0  0  0  0  0  0  0  0  0  0  0  0
  140.2730   70.7990  228.3530 C   0  0  0  0  0  0  0  0  0  0  0  0
  141.0940   71.8910  228.1630 C   0  0  0  0  0  0  0  0  0  0  0  0
  141.5070   72.1980  226.8840 C   0  0  0  0  0  0  0  0  0  0  0  0
  141.0850   71.4030  225.8400 C   0  0  0  0  0  0  0  0  0  0  0  0
  139.5505   68.1113  226.5263 H   0  0  0  0  0  0  0  0  0  0  0  0
  138.5592   67.7252  225.0790 H   0  0  0  0  0  0  0  0  0  0  0  0
  140.3216   67.3783  225.0790 H   0  0  0  0  0  0  0  0  0  0  0  0
  140.5894   69.3956  224.0930 H   0  0  0  0  0  0  0  0  0  0  0  0
  137.7100   69.5880  224.4260 H   0  0  0  0  0  0  0  0  0  0  0  0
  138.0077   72.5736  222.0225 H   0  0  0  0  0  0  0  0  0  0  0  0
  137.0716   70.9931  222.1200 H   0  0  0  0  0  0  0  0  0  0  0  0
  136.5220   73.4280  223.6590 H   0  0  0  0  0  0  0  0  0  0  0  0
  133.8135   70.4438  225.7743 H   0  0  0  0  0  0  0  0  0  0  0  0
  132.1131   71.4651  227.2525 H   0  0  0  0  0  0  0  0  0  0  0  0
  131.1400   73.4092  228.1774 H   0  0  0  0  0  0  0  0  0  0  0  0
  131.0789   75.9198  228.3811 H   0  0  0  0  0  0  0  0  0  0  0  0
  132.7085   77.2730  227.1094 H   0  0  0  0  0  0  0  0  0  0  0  0
  139.1996   69.1375  227.4677 H   0  0  0  0  0  0  0  0  0  0  0  0
  139.9402   70.5495  229.3713 H   0  0  0  0  0  0  0  0  0  0  0  0
  141.4136   72.5062  229.0171 H   0  0  0  0  0  0  0  0  0  0  0  0
  142.1619   73.0624  226.6998 H   0  0  0  0  0  0  0  0  0  0  0  0
  141.4198   71.6559  224.8232 H   0  0  0  0  0  0  0  0  0  0  0  0
  1  2  1  0
  2  3  1  0
  3  4  1  0
  4  5  2  0
  4  6  1  0
  6  7  1  0
  7  8  1  0
  8  9  2  0
  8 10  1  0
 10 11  2  0
 11 12  1  0
 12 13  2  0
 13 14  1  0
 14 15  2  0
 15 16  1  0
 16 17  2  0
 17 18  1  0
 17 19  1  0
 19 20  2  0
  2 21  1  0
 21 22  2  0
 22 23  1  0
 23 24  2  0
 24 25  1  0
 25 26  2  0
 20 10  1  0
 26 21  1  0
 19 13  1  0
  1 27  1  0
  1 28  1  0
  1 29  1  0
  2 30  1  6
  3 31  1  0
  6 32  1  0
  6 33  1  0
  7 34  1  0
 11 35  1  0
 12 36  1  0
 14 37  1  0
 15 38  1  0
 16 39  1  0
 22 40  1  0
 23 41  1  0
 24 42  1  0
 25 43  1  0
 26 44  1  0
M  END
>  <smiles>  (21) 
C[C@@H](NC(=O)CNC(=O)c1ccc2cccc(F)c2n1)c1ccccc1

>  <score_type>  (21) 
oracle

>  <origin>  (21) 
autodockgpu

>  <m_score__min__energy>  (21) 
-8.8200000000000003

>  <m_primary>  (21) 
energy

>  <rmsd>  (21) 
9.982451310679028

>  <m_score__min__rmsd>  (21) 
9.982451310679028

>  <meeko>  (21) 
{"free_energy": -7.7, "intermolecular_energy": -9.19, "internal_energy": -2.02, "cluster_size": 13, "cluster_id": 2, "rank_in_cluster": 8}

>  <energy>  (21) 
-8.26

>  <cluster_rmsd>  (21) 
0.0

>  <cluster>  (21) 
3

$$$$

     RDKit          3D

 44 46  0  0  0  0  0  0  0  0999 V2000
  139.5280   68.0170  225.7380 C   0  0  0  0  0  0  0  0  0  0  0  0
  140.3660   69.2200  225.3600 C   0  0  1  0  0  0  0  0  0  0  0  0
  139.8650   69.8820  224.1530 N   0  0  0  0  0  0  0  0  0  0  0  0
  138.5310   70.3170  224.0360 C   0  0  0  0  0  0  0  0  0  0  0  0
  137.7760   70.1110  225.0440 O   0  0  0  0  0  0  0  0  0  0  0  0
  137.9320   70.9820  222.8770 C   0  0  0  0  0  0  0  0  0  0  0  0
  138.4770   72.2850  222.5660 N   0  0  0  0  0  0  0  0  0  0  0  0
  139.7850   72.4440  222.0040 C   0  0  0  0  0  0  0  0  0  0  0  0
  140.5300   71.4490  221.7420 O   0  0  0  0  0  0  0  0  0  0  0  0
  140.2880   73.8020  221.7160 C   0  0  0  0  0  0  0  0  0  0  0  0
  141.4330   73.9630  220.9650 C   0  0  0  0  0  0  0  0  0  0  0  0
  141.9690   75.1940  220.6510 C   0  0  0  0  0  0  0  0  0  0  0  0
  141.3090   76.3050  221.1240 C   0  0  0  0  0  0  0  0  0  0  0  0
  141.8330   77.5450  220.8180 C   0  0  0  0  0  0  0  0  0  0  0  0
  141.1720   78.6810  221.2920 C   0  0  0  0  0  0  0  0  0  0  0  0
  140.0240   78.5190  222.0460 C   0  0  0  0  0  0  0  0  0  0  0  0
  139.5050   77.2810  222.3470 C   0  0  0  0  0  0  0  0  0  0  0  0
  138.3640   77.1780  223.0980 F   0  0  0  0  0  0  0  0  0  0  0  0
  140.1550   76.1480  221.8810 C   0  0  0  0  0  0  0  0  0  0  0  0
  139.6690   74.9040  222.1610 N   0  0  0  0  0  0  0  0  0  0  0  0
  140.3490   70.1520  226.5180 C   0  0  0  0  0  0  0  0  0  0  0  0
  139.6020   69.8360  227.6340 C   0  0  0  0  0  0  0  0  0  0  0  0
  139.5830   70.7070  228.7220 C   0  0  0  0  0  0  0  0  0  0  0  0
  140.2950   71.8890  228.7180 C   0  0  0  0  0  0  0  0  0  0  0  0
  141.0430   72.2100  227.6050 C   0  0  0  0  0  0  0  0  0  0  0  0
  141.0530   71.3390  226.5360 C   0  0  0  0  0  0  0  0  0  0  0  0
  139.4731   67.9381  226.8338 H   0  0  0  0  0  0  0  0  0  0  0  0
  138.5141   68.1328  225.3274 H   0  0  0  0  0  0  0  0  0  0  0  0
  139.9880   67.1061  225.3274 H   0  0  0  0  0  0  0  0  0  0  0  0
  141.3921   68.8984  225.1284 H   0  0  0  0  0  0  0  0  0  0  0  0
  140.5350   70.0330  223.3700 H   0  0  0  0  0  0  0  0  0  0  0  0
  138.0772   70.3341  222.0000 H   0  0  0  0  0  0  0  0  0  0  0  0
  136.8744   71.1458  223.1314 H   0  0  0  0  0  0  0  0  0  0  0  0
  137.9520   73.1730  222.7350 H   0  0  0  0  0  0  0  0  0  0  0  0
  141.9458   73.0621  220.5970 H   0  0  0  0  0  0  0  0  0  0  0  0
  142.8848   75.2841  220.0483 H   0  0  0  0  0  0  0  0  0  0  0  0
  142.7488   77.6365  220.2155 H   0  0  0  0  0  0  0  0  0  0  0  0
  141.5580   79.6867  221.0694 H   0  0  0  0  0  0  0  0  0  0  0  0
  139.5059   79.4146  222.4195 H   0  0  0  0  0  0  0  0  0  0  0  0
  139.0239   68.9007  227.6650 H   0  0  0  0  0  0  0  0  0  0  0  0
  138.9846   70.4452  229.6071 H   0  0  0  0  0  0  0  0  0  0  0  0
  140.2664   72.5629  229.5869 H   0  0  0  0  0  0  0  0  0  0  0  0
  141.6218   73.1448  227.5704 H   0  0  0  0  0  0  0  0  0  0  0  0
  141.6526   71.6037  225.6526 H   0  0  0  0  0  0  0  0  0  0  0  0
  1  2  1  0
  2  3  1  0
  3  4  1  0
  4  5  2  0
  4  6  1  0
  6  7  1  0
  7  8  1  0
  8  9  2  0
  8 10  1  0
 10 11  2  0
 11 12  1  0
 12 13  2  0
 13 14  1  0
 14 15  2  0
 15 16  1  0
 16 17  2  0
 17 18  1  0
 17 19  1  0
 19 20  2  0
  2 21  1  0
 21 22  2  0
 22 23  1  0
 23 24  2  0
 24 25  1  0
 25 26  2  0
 20 10  1  0
 26 21  1  0
 19 13  1  0
  1 27  1  0
  1 28  1  0
  1 29  1  0
  2 30  1  6
  3 31  1  0
  6 32  1  0
  6 33  1  0
  7 34  1  0
 11 35  1  0
 12 36  1  0
 14 37  1  0
 15 38  1  0
 16 39  1  0
 22 40  1  0
 23 41  1  0
 24 42  1  0
 25 43  1  0
 26 44  1  0
M  END
>  <smiles>  (22) 
C[C@@H](NC(=O)CNC(=O)c1ccc2cccc(F)c2n1)c1ccccc1

>  <score_type>  (22) 
oracle

>  <origin>  (22) 
autodockgpu

>  <m_score__min__energy>  (22) 
-8.8200000000000003

>  <m_primary>  (22) 
energy

>  <rmsd>  (22) 
9.90380079687632

>  <m_score__min__rmsd>  (22) 
9.90380079687632

>  <meeko>  (22) 
{"free_energy": -7.65, "intermolecular_energy": -9.14, "internal_energy": -2.01, "cluster_size": 2, "cluster_id": 5, "rank_in_cluster": 1}

>  <energy>  (22) 
-8.25

>  <cluster_rmsd>  (22) 
0.04

>  <cluster>  (22) 
3

$$$$

     RDKit          3D

 44 46  0  0  0  0  0  0  0  0999 V2000
  137.7750   71.5360  223.5710 C   0  0  0  0  0  0  0  0  0  0  0  0
  139.2660   71.2930  223.4770 C   0  0  1  0  0  0  0  0  0  0  0  0
  139.9660   72.4110  222.8400 N   0  0  0  0  0  0  0  0  0  0  0  0
  140.8960   72.2200  221.8010 C   0  0  0  0  0  0  0  0  0  0  0  0
  141.0950   71.0140  221.4320 O   0  0  0  0  0  0  0  0  0  0  0  0
  141.6480   73.2640  221.1030 C   0  0  0  0  0  0  0  0  0  0  0  0
  141.4400   74.6070  221.6000 N   0  0  0  0  0  0  0  0  0  0  0  0
  140.1280   75.1660  221.7430 C   0  0  0  0  0  0  0  0  0  0  0  0
  139.0820   74.5100  221.4480 O   0  0  0  0  0  0  0  0  0  0  0  0
  139.9820   76.5460  222.2480 C   0  0  0  0  0  0  0  0  0  0  0  0
  138.7320   77.0260  222.5740 C   0  0  0  0  0  0  0  0  0  0  0  0
  138.5080   78.3000  223.0530 C   0  0  0  0  0  0  0  0  0  0  0  0
  139.6070   79.1160  223.2020 C   0  0  0  0  0  0  0  0  0  0  0  0
  139.3990   80.3950  223.6800 C   0  0  0  0  0  0  0  0  0  0  0  0
  140.5060   81.2330  223.8360 C   0  0  0  0  0  0  0  0  0  0  0  0
  141.7600   80.7520  223.5070 C   0  0  0  0  0  0  0  0  0  0  0  0
  141.9620   79.4750  223.0320 C   0  0  0  0  0  0  0  0  0  0  0  0
  143.2260   79.0490  222.7220 F   0  0  0  0  0  0  0  0  0  0  0  0
  140.8690   78.6370  222.8740 C   0  0  0  0  0  0  0  0  0  0  0  0
  141.0320   77.3660  222.4050 N   0  0  0  0  0  0  0  0  0  0  0  0
  139.7670   71.0770  224.8600 C   0  0  0  0  0  0  0  0  0  0  0  0
  139.2740   70.0250  225.6050 C   0  0  0  0  0  0  0  0  0  0  0  0
  139.7400   69.8190  226.9030 C   0  0  0  0  0  0  0  0  0  0  0  0
  140.6910   70.6420  227.4710 C   0  0  0  0  0  0  0  0  0  0  0  0
  141.1870   71.6940  226.7310 C   0  0  0  0  0  0  0  0  0  0  0  0
  140.7170   71.8860  225.4490 C   0  0  0  0  0  0  0  0  0  0  0  0
  137.4774   71.5845  224.6289 H   0  0  0  0  0  0  0  0  0  0  0  0
  137.5265   72.4865  223.0762 H   0  0  0  0  0  0  0  0  0  0  0  0
  137.2375   70.7136  223.0762 H   0  0  0  0  0  0  0  0  0  0  0  0
  139.4585   70.4125  222.8465 H   0  0  0  0  0  0  0  0  0  0  0  0
  139.7490   73.3720  223.1770 H   0  0  0  0  0  0  0  0  0  0  0  0
  142.7191   73.0298  221.1921 H   0  0  0  0  0  0  0  0  0  0  0  0
  141.2838   73.2617  220.0650 H   0  0  0  0  0  0  0  0  0  0  0  0
  142.2270   75.2360  221.8780 H   0  0  0  0  0  0  0  0  0  0  0  0
  137.8675   76.3581  222.4455 H   0  0  0  0  0  0  0  0  0  0  0  0
  137.4956   78.6488  223.3049 H   0  0  0  0  0  0  0  0  0  0  0  0
  138.3870   80.7451  223.9316 H   0  0  0  0  0  0  0  0  0  0  0  0
  140.3821   82.2584  224.2143 H   0  0  0  0  0  0  0  0  0  0  0  0
  142.6295   81.4146  223.6293 H   0  0  0  0  0  0  0  0  0  0  0  0
  138.5167   69.3519  225.1767 H   0  0  0  0  0  0  0  0  0  0  0  0
  139.3393   68.9789  227.4892 H   0  0  0  0  0  0  0  0  0  0  0  0
  141.0470   70.4618  228.4961 H   0  0  0  0  0  0  0  0  0  0  0  0
  141.9447   72.3687  227.1560 H   0  0  0  0  0  0  0  0  0  0  0  0
  141.1200   72.7272  224.8660 H   0  0  0  0  0  0  0  0  0  0  0  0
  1  2  1  0
  2  3  1  0
  3  4  1  0
  4  5  2  0
  4  6  1  0
  6  7  1  0
  7  8  1  0
  8  9  2  0
  8 10  1  0
 10 11  2  0
 11 12  1  0
 12 13  2  0
 13 14  1  0
 14 15  2  0
 15 16  1  0
 16 17  2  0
 17 18  1  0
 17 19  1  0
 19 20  2  0
  2 21  1  0
 21 22  2  0
 22 23  1  0
 23 24  2  0
 24 25  1  0
 25 26  2  0
 20 10  1  0
 26 21  1  0
 19 13  1  0
  1 27  1  0
  1 28  1  0
  1 29  1  0
  2 30  1  6
  3 31  1  0
  6 32  1  0
  6 33  1  0
  7 34  1  0
 11 35  1  0
 12 36  1  0
 14 37  1  0
 15 38  1  0
 16 39  1  0
 22 40  1  0
 23 41  1  0
 24 42  1  0
 25 43  1  0
 26 44  1  0
M  END
>  <smiles>  (23) 
C[C@@H](NC(=O)CNC(=O)c1ccc2cccc(F)c2n1)c1ccccc1

>  <score_type>  (23) 
oracle

>  <origin>  (23) 
autodockgpu

>  <m_score__min__energy>  (23) 
-8.8200000000000003

>  <m_primary>  (23) 
energy

>  <rmsd>  (23) 
9.569503772640156

>  <m_score__min__rmsd>  (23) 
9.569503772640156

>  <meeko>  (23) 
{"free_energy": -7.8, "intermolecular_energy": -9.29, "internal_energy": -1.92, "cluster_size": 21, "cluster_id": 4, "rank_in_cluster": 1}

>  <energy>  (23) 
-8.17

>  <cluster_rmsd>  (23) 
0.17

>  <cluster>  (23) 
3

$$$$

     RDKit          3D

 44 46  0  0  0  0  0  0  0  0999 V2000
  137.8060   71.5080  223.5420 C   0  0  0  0  0  0  0  0  0  0  0  0
  139.3010   71.2770  223.4770 C   0  0  1  0  0  0  0  0  0  0  0  0
  140.0040   72.4030  222.8570 N   0  0  0  0  0  0  0  0  0  0  0  0
  140.9030   72.2280  221.7880 C   0  0  0  0  0  0  0  0  0  0  0  0
  141.0720   71.0300  221.3780 O   0  0  0  0  0  0  0  0  0  0  0  0
  141.6560   73.2800  221.1040 C   0  0  0  0  0  0  0  0  0  0  0  0
  141.4290   74.6200  221.6000 N   0  0  0  0  0  0  0  0  0  0  0  0
  140.1090   75.1480  221.7760 C   0  0  0  0  0  0  0  0  0  0  0  0
  139.0710   74.4660  221.5120 O   0  0  0  0  0  0  0  0  0  0  0  0
  139.9430   76.5270  222.2780 C   0  0  0  0  0  0  0  0  0  0  0  0
  138.6870   76.9880  222.6110 C   0  0  0  0  0  0  0  0  0  0  0  0
  138.4450   78.2590  223.0870 C   0  0  0  0  0  0  0  0  0  0  0  0
  139.5310   79.0930  223.2290 C   0  0  0  0  0  0  0  0  0  0  0  0
  139.3060   80.3690  223.7050 C   0  0  0  0  0  0  0  0  0  0  0  0
  140.4000   81.2250  223.8530 C   0  0  0  0  0  0  0  0  0  0  0  0
  141.6590   80.7630  223.5200 C   0  0  0  0  0  0  0  0  0  0  0  0
  141.8790   79.4890  223.0460 C   0  0  0  0  0  0  0  0  0  0  0  0
  143.1490   79.0830  222.7310 F   0  0  0  0  0  0  0  0  0  0  0  0
  140.7990   78.6330  222.8960 C   0  0  0  0  0  0  0  0  0  0  0  0
  140.9800   77.3640  222.4290 N   0  0  0  0  0  0  0  0  0  0  0  0
  139.7760   71.0620  224.8690 C   0  0  0  0  0  0  0  0  0  0  0  0
  139.2800   70.0020  225.6000 C   0  0  0  0  0  0  0  0  0  0  0  0
  139.7230   69.7960  226.9060 C   0  0  0  0  0  0  0  0  0  0  0  0
  140.6520   70.6280  227.4960 C   0  0  0  0  0  0  0  0  0  0  0  0
  141.1500   71.6890  226.7700 C   0  0  0  0  0  0  0  0  0  0  0  0
  140.7030   71.8800  225.4800 C   0  0  0  0  0  0  0  0  0  0  0  0
  137.4880   71.5571  224.5939 H   0  0  0  0  0  0  0  0  0  0  0  0
  137.5591   72.4550  223.0397 H   0  0  0  0  0  0  0  0  0  0  0  0
  137.2848   70.6797  223.0397 H   0  0  0  0  0  0  0  0  0  0  0  0
  139.5134   70.3996  222.8485 H   0  0  0  0  0  0  0  0  0  0  0  0
  139.8120   73.3570  223.2290 H   0  0  0  0  0  0  0  0  0  0  0  0
  142.7276   73.0550  221.2090 H   0  0  0  0  0  0  0  0  0  0  0  0
  141.3073   73.2768  220.0607 H   0  0  0  0  0  0  0  0  0  0  0  0
  142.2080   75.2690  221.8540 H   0  0  0  0  0  0  0  0  0  0  0  0
  137.8328   76.3055  222.4905 H   0  0  0  0  0  0  0  0  0  0  0  0
  137.4283   78.5923  223.3423 H   0  0  0  0  0  0  0  0  0  0  0  0
  138.2900   80.7036  223.9615 H   0  0  0  0  0  0  0  0  0  0  0  0
  140.2615   82.2497  224.2283 H   0  0  0  0  0  0  0  0  0  0  0  0
  142.5187   81.4390  223.6381 H   0  0  0  0  0  0  0  0  0  0  0  0
  138.5385   69.3226  225.1545 H   0  0  0  0  0  0  0  0  0  0  0  0
  139.3215   68.9483  227.4806 H   0  0  0  0  0  0  0  0  0  0  0  0
  140.9894   70.4480  228.5274 H   0  0  0  0  0  0  0  0  0  0  0  0
  141.8910   72.3711  227.2123 H   0  0  0  0  0  0  0  0  0  0  0  0
  141.1066   72.7288  224.9084 H   0  0  0  0  0  0  0  0  0  0  0  0
  1  2  1  0
  2  3  1  0
  3  4  1  0
  4  5  2  0
  4  6  1  0
  6  7  1  0
  7  8  1  0
  8  9  2  0
  8 10  1  0
 10 11  2  0
 11 12  1  0
 12 13  2  0
 13 14  1  0
 14 15  2  0
 15 16  1  0
 16 17  2  0
 17 18  1  0
 17 19  1  0
 19 20  2  0
  2 21  1  0
 21 22  2  0
 22 23  1  0
 23 24  2  0
 24 25  1  0
 25 26  2  0
 20 10  1  0
 26 21  1  0
 19 13  1  0
  1 27  1  0
  1 28  1  0
  1 29  1  0
  2 30  1  6
  3 31  1  0
  6 32  1  0
  6 33  1  0
  7 34  1  0
 11 35  1  0
 12 36  1  0
 14 37  1  0
 15 38  1  0
 16 39  1  0
 22 40  1  0
 23 41  1  0
 24 42  1  0
 25 43  1  0
 26 44  1  0
M  END
>  <smiles>  (24) 
C[C@@H](NC(=O)CNC(=O)c1ccc2cccc(F)c2n1)c1ccccc1

>  <score_type>  (24) 
oracle

>  <origin>  (24) 
autodockgpu

>  <m_score__min__energy>  (24) 
-8.8200000000000003

>  <m_primary>  (24) 
energy

>  <rmsd>  (24) 
9.56766871387933

>  <m_score__min__rmsd>  (24) 
9.56766871387933

>  <meeko>  (24) 
{"free_energy": -7.79, "intermolecular_energy": -9.29, "internal_energy": -1.89, "cluster_size": 21, "cluster_id": 4, "rank_in_cluster": 3}

>  <energy>  (24) 
-8.17

>  <cluster_rmsd>  (24) 
0.21

>  <cluster>  (24) 
3

$$$$

     RDKit          3D

 44 46  0  0  0  0  0  0  0  0999 V2000
  137.7400   71.5590  223.5450 C   0  0  0  0  0  0  0  0  0  0  0  0
  139.2300   71.3070  223.4510 C   0  0  1  0  0  0  0  0  0  0  0  0
  139.9370   72.4240  222.8200 N   0  0  0  0  0  0  0  0  0  0  0  0
  140.8700   72.2310  221.7840 C   0  0  0  0  0  0  0  0  0  0  0  0
  141.0670   71.0250  221.4140 O   0  0  0  0  0  0  0  0  0  0  0  0
  141.6310   73.2740  221.0930 C   0  0  0  0  0  0  0  0  0  0  0  0
  141.4260   74.6160  221.5920 N   0  0  0  0  0  0  0  0  0  0  0  0
  140.1170   75.1820  221.7280 C   0  0  0  0  0  0  0  0  0  0  0  0
  139.0690   74.5320  221.4240 O   0  0  0  0  0  0  0  0  0  0  0  0
  139.9750   76.5610  222.2350 C   0  0  0  0  0  0  0  0  0  0  0  0
  138.7250   77.0470  222.5550 C   0  0  0  0  0  0  0  0  0  0  0  0
  138.5050   78.3210  223.0350 C   0  0  0  0  0  0  0  0  0  0  0  0
  139.6060   79.1310  223.1940 C   0  0  0  0  0  0  0  0  0  0  0  0
  139.4020   80.4090  223.6740 C   0  0  0  0  0  0  0  0  0  0  0  0
  140.5130   81.2410  223.8400 C   0  0  0  0  0  0  0  0  0  0  0  0
  141.7660   80.7540  223.5180 C   0  0  0  0  0  0  0  0  0  0  0  0
  141.9640   79.4780  223.0410 C   0  0  0  0  0  0  0  0  0  0  0  0
  143.2280   79.0460  222.7390 F   0  0  0  0  0  0  0  0  0  0  0  0
  140.8680   78.6460  222.8740 C   0  0  0  0  0  0  0  0  0  0  0  0
  141.0270   77.3750  222.4020 N   0  0  0  0  0  0  0  0  0  0  0  0
  139.7280   71.0820  224.8340 C   0  0  0  0  0  0  0  0  0  0  0  0
  139.2350   70.0230  225.5700 C   0  0  0  0  0  0  0  0  0  0  0  0
  139.6990   69.8080  226.8660 C   0  0  0  0  0  0  0  0  0  0  0  0
  140.6470   70.6290  227.4430 C   0  0  0  0  0  0  0  0  0  0  0  0
  141.1420   71.6880  226.7120 C   0  0  0  0  0  0  0  0  0  0  0  0
  140.6740   71.8890  225.4310 C   0  0  0  0  0  0  0  0  0  0  0  0
  137.4427   71.6093  224.6029 H   0  0  0  0  0  0  0  0  0  0  0  0
  137.4972   72.5110  223.0502 H   0  0  0  0  0  0  0  0  0  0  0  0
  137.1977   70.7398  223.0502 H   0  0  0  0  0  0  0  0  0  0  0  0
  139.4182   70.4282  222.8167 H   0  0  0  0  0  0  0  0  0  0  0  0
  139.7220   73.3860  223.1580 H   0  0  0  0  0  0  0  0  0  0  0  0
  142.7005   73.0349  221.1879 H   0  0  0  0  0  0  0  0  0  0  0  0
  141.2730   73.2760  220.0529 H   0  0  0  0  0  0  0  0  0  0  0  0
  142.2150   75.2400  221.8760 H   0  0  0  0  0  0  0  0  0  0  0  0
  137.8578   76.3838  222.4204 H   0  0  0  0  0  0  0  0  0  0  0  0
  137.4927   78.6746  223.2803 H   0  0  0  0  0  0  0  0  0  0  0  0
  138.3903   80.7639  223.9198 H   0  0  0  0  0  0  0  0  0  0  0  0
  140.3922   82.2660  224.2205 H   0  0  0  0  0  0  0  0  0  0  0  0
  142.6384   81.4114  223.6479 H   0  0  0  0  0  0  0  0  0  0  0  0
  138.4794   69.3522  225.1352 H   0  0  0  0  0  0  0  0  0  0  0  0
  139.2995   68.9620  227.4445 H   0  0  0  0  0  0  0  0  0  0  0  0
  141.0011   70.4417  228.4675 H   0  0  0  0  0  0  0  0  0  0  0  0
  141.8975   72.3611  227.1436 H   0  0  0  0  0  0  0  0  0  0  0  0
  141.0755   72.7362  224.8556 H   0  0  0  0  0  0  0  0  0  0  0  0
  1  2  1  0
  2  3  1  0
  3  4  1  0
  4  5  2  0
  4  6  1  0
  6  7  1  0
  7  8  1  0
  8  9  2  0
  8 10  1  0
 10 11  2  0
 11 12  1  0
 12 13  2  0
 13 14  1  0
 14 15  2  0
 15 16  1  0
 16 17  2  0
 17 18  1  0
 17 19  1  0
 19 20  2  0
  2 21  1  0
 21 22  2  0
 22 23  1  0
 23 24  2  0
 24 25  1  0
 25 26  2  0
 20 10  1  0
 26 21  1  0
 19 13  1  0
  1 27  1  0
  1 28  1  0
  1 29  1  0
  2 30  1  6
  3 31  1  0
  6 32  1  0
  6 33  1  0
  7 34  1  0
 11 35  1  0
 12 36  1  0
 14 37  1  0
 15 38  1  0
 16 39  1  0
 22 40  1  0
 23 41  1  0
 24 42  1  0
 25 43  1  0
 26 44  1  0
M  END
>  <smiles>  (25) 
C[C@@H](NC(=O)CNC(=O)c1ccc2cccc(F)c2n1)c1ccccc1

>  <score_type>  (25) 
oracle

>  <origin>  (25) 
autodockgpu

>  <m_score__min__energy>  (25) 
-8.8200000000000003

>  <m_primary>  (25) 
energy

>  <rmsd>  (25) 
9.56995316682139

>  <m_score__min__rmsd>  (25) 
9.56995316682139

>  <meeko>  (25) 
{"free_energy": -7.78, "intermolecular_energy": -9.27, "internal_energy": -1.92, "cluster_size": 21, "cluster_id": 4, "rank_in_cluster": 8}

>  <energy>  (25) 
-8.17

>  <cluster_rmsd>  (25) 
0.21

>  <cluster>  (25) 
3

$$$$

     RDKit          3D

 44 46  0  0  0  0  0  0  0  0999 V2000
  137.7210   71.5850  223.5620 C   0  0  0  0  0  0  0  0  0  0  0  0
  139.2030   71.3120  223.4160 C   0  0  1  0  0  0  0  0  0  0  0  0
  139.9080   72.4320  222.7880 N   0  0  0  0  0  0  0  0  0  0  0  0
  140.8760   72.2410  221.7840 C   0  0  0  0  0  0  0  0  0  0  0  0
  141.1060   71.0330  221.4390 O   0  0  0  0  0  0  0  0  0  0  0  0
  141.6370   73.2870  221.0980 C   0  0  0  0  0  0  0  0  0  0  0  0
  141.4300   74.6270  221.6020 N   0  0  0  0  0  0  0  0  0  0  0  0
  140.1220   75.2010  221.7100 C   0  0  0  0  0  0  0  0  0  0  0  0
  139.0760   74.5620  221.3770 O   0  0  0  0  0  0  0  0  0  0  0  0
  139.9770   76.5780  222.2250 C   0  0  0  0  0  0  0  0  0  0  0  0
  138.7280   77.0560  222.5590 C   0  0  0  0  0  0  0  0  0  0  0  0
  138.5060   78.3270  223.0460 C   0  0  0  0  0  0  0  0  0  0  0  0
  139.6050   79.1420  223.1970 C   0  0  0  0  0  0  0  0  0  0  0  0
  139.3990   80.4180  223.6830 C   0  0  0  0  0  0  0  0  0  0  0  0
  140.5060   81.2550  223.8410 C   0  0  0  0  0  0  0  0  0  0  0  0
  141.7590   80.7760  223.5050 C   0  0  0  0  0  0  0  0  0  0  0  0
  141.9590   79.5030  223.0210 C   0  0  0  0  0  0  0  0  0  0  0  0
  143.2230   79.0780  222.7040 F   0  0  0  0  0  0  0  0  0  0  0  0
  140.8660   78.6650  222.8610 C   0  0  0  0  0  0  0  0  0  0  0  0
  141.0270   77.3970  222.3840 N   0  0  0  0  0  0  0  0  0  0  0  0
  139.7400   71.0480  224.7770 C   0  0  0  0  0  0  0  0  0  0  0  0
  140.7060   71.8830  225.3000 C   0  0  0  0  0  0  0  0  0  0  0  0
  141.2120   71.6390  226.5760 C   0  0  0  0  0  0  0  0  0  0  0  0
  140.7730   70.5760  227.3390 C   0  0  0  0  0  0  0  0  0  0  0  0
  139.8090   69.7390  226.8200 C   0  0  0  0  0  0  0  0  0  0  0  0
  139.3170   69.9920  225.5580 C   0  0  0  0  0  0  0  0  0  0  0  0
  137.4604   71.6330  224.6296 H   0  0  0  0  0  0  0  0  0  0  0  0
  137.4756   72.5435  223.0812 H   0  0  0  0  0  0  0  0  0  0  0  0
  137.1502   70.7769  223.0812 H   0  0  0  0  0  0  0  0  0  0  0  0
  139.3571   70.4448  222.7570 H   0  0  0  0  0  0  0  0  0  0  0  0
  139.6650   73.3950  223.1040 H   0  0  0  0  0  0  0  0  0  0  0  0
  142.7066   73.0485  221.1934 H   0  0  0  0  0  0  0  0  0  0  0  0
  141.2806   73.2926  220.0574 H   0  0  0  0  0  0  0  0  0  0  0  0
  142.2160   75.2430  221.9100 H   0  0  0  0  0  0  0  0  0  0  0  0
  137.8630   76.3887  222.4304 H   0  0  0  0  0  0  0  0  0  0  0  0
  137.4944   78.6745  223.3027 H   0  0  0  0  0  0  0  0  0  0  0  0
  138.3878   80.7668  223.9395 H   0  0  0  0  0  0  0  0  0  0  0  0
  140.3832   82.2780  224.2262 H   0  0  0  0  0  0  0  0  0  0  0  0
  142.6291   81.4375  223.6293 H   0  0  0  0  0  0  0  0  0  0  0  0
  141.0750   72.7370  224.7131 H   0  0  0  0  0  0  0  0  0  0  0  0
  141.9809   72.3109  226.9851 H   0  0  0  0  0  0  0  0  0  0  0  0
  141.1852   70.4000  228.3435 H   0  0  0  0  0  0  0  0  0  0  0  0
  139.4385   68.8832  227.4035 H   0  0  0  0  0  0  0  0  0  0  0  0
  138.5480   69.3180  225.1526 H   0  0  0  0  0  0  0  0  0  0  0  0
  1  2  1  0
  2  3  1  0
  3  4  1  0
  4  5  2  0
  4  6  1  0
  6  7  1  0
  7  8  1  0
  8  9  2  0
  8 10  1  0
 10 11  2  0
 11 12  1  0
 12 13  2  0
 13 14  1  0
 14 15  2  0
 15 16  1  0
 16 17  2  0
 17 18  1  0
 17 19  1  0
 19 20  2  0
  2 21  1  0
 21 22  2  0
 22 23  1  0
 23 24  2  0
 24 25  1  0
 25 26  2  0
 20 10  1  0
 26 21  1  0
 19 13  1  0
  1 27  1  0
  1 28  1  0
  1 29  1  0
  2 30  1  6
  3 31  1  0
  6 32  1  0
  6 33  1  0
  7 34  1  0
 11 35  1  0
 12 36  1  0
 14 37  1  0
 15 38  1  0
 16 39  1  0
 22 40  1  0
 23 41  1  0
 24 42  1  0
 25 43  1  0
 26 44  1  0
M  END
>  <smiles>  (26) 
C[C@@H](NC(=O)CNC(=O)c1ccc2cccc(F)c2n1)c1ccccc1

>  <score_type>  (26) 
oracle

>  <origin>  (26) 
autodockgpu

>  <m_score__min__energy>  (26) 
-8.8200000000000003

>  <m_primary>  (26) 
energy

>  <rmsd>  (26) 
9.725325182632757

>  <m_score__min__rmsd>  (26) 
9.725325182632757

>  <meeko>  (26) 
{"free_energy": -7.74, "intermolecular_energy": -9.23, "internal_energy": -1.93, "cluster_size": 21, "cluster_id": 4, "rank_in_cluster": 19}

>  <energy>  (26) 
-8.05

>  <cluster_rmsd>  (26) 
0.26

>  <cluster>  (26) 
3

$$$$

     RDKit          3D

 44 46  0  0  0  0  0  0  0  0999 V2000
  142.7870   75.5800  218.8400 C   0  0  0  0  0  0  0  0  0  0  0  0
  142.8450   74.9400  220.2100 C   0  0  1  0  0  0  0  0  0  0  0  0
  141.6470   74.1470  220.4980 N   0  0  0  0  0  0  0  0  0  0  0  0
  140.4010   74.7430  220.7710 C   0  0  0  0  0  0  0  0  0  0  0  0
  140.3660   76.0200  220.7500 O   0  0  0  0  0  0  0  0  0  0  0  0
  139.1500   74.0460  221.0730 C   0  0  0  0  0  0  0  0  0  0  0  0
  139.1690   73.2450  222.2780 N   0  0  0  0  0  0  0  0  0  0  0  0
  140.0780   72.1500  222.4450 C   0  0  0  0  0  0  0  0  0  0  0  0
  140.9180   71.8310  221.5480 O   0  0  0  0  0  0  0  0  0  0  0  0
  140.0420   71.3650  223.6950 C   0  0  0  0  0  0  0  0  0  0  0  0
  139.5060   70.0950  223.6900 C   0  0  0  0  0  0  0  0  0  0  0  0
  139.4350   69.2960  224.8120 C   0  0  0  0  0  0  0  0  0  0  0  0
  139.9300   69.8170  225.9860 C   0  0  0  0  0  0  0  0  0  0  0  0
  139.8660   69.0290  227.1180 C   0  0  0  0  0  0  0  0  0  0  0  0
  140.3660   69.5460  228.3160 C   0  0  0  0  0  0  0  0  0  0  0  0
  140.9020   70.8200  228.3210 C   0  0  0  0  0  0  0  0  0  0  0  0
  140.9650   71.6020  227.1890 C   0  0  0  0  0  0  0  0  0  0  0  0
  141.5080   72.8580  227.2500 F   0  0  0  0  0  0  0  0  0  0  0  0
  140.4720   71.0960  225.9960 C   0  0  0  0  0  0  0  0  0  0  0  0
  140.5170   71.8430  224.8540 N   0  0  0  0  0  0  0  0  0  0  0  0
  144.0620   74.0870  220.2490 C   0  0  0  0  0  0  0  0  0  0  0  0
  144.0340   72.8360  219.6670 C   0  0  0  0  0  0  0  0  0  0  0  0
  145.1730   72.0320  219.7000 C   0  0  0  0  0  0  0  0  0  0  0  0
  146.3400   72.4550  220.3040 C   0  0  0  0  0  0  0  0  0  0  0  0
  146.3730   73.7030  220.8860 C   0  0  0  0  0  0  0  0  0  0  0  0
  145.2400   74.4870  220.8460 C   0  0  0  0  0  0  0  0  0  0  0  0
  142.6882   76.6702  218.9485 H   0  0  0  0  0  0  0  0  0  0  0  0
  143.7098   75.3486  218.2878 H   0  0  0  0  0  0  0  0  0  0  0  0
  141.9208   75.1865  218.2878 H   0  0  0  0  0  0  0  0  0  0  0  0
  142.8872   75.7226  220.9819 H   0  0  0  0  0  0  0  0  0  0  0  0
  141.7390   73.1100  220.4860 H   0  0  0  0  0  0  0  0  0  0  0  0
  138.3563   74.8004  221.1778 H   0  0  0  0  0  0  0  0  0  0  0  0
  138.9814   73.3453  220.2420 H   0  0  0  0  0  0  0  0  0  0  0  0
  138.5260   73.4200  223.0830 H   0  0  0  0  0  0  0  0  0  0  0  0
  139.1145   69.6981  222.7417 H   0  0  0  0  0  0  0  0  0  0  0  0
  139.0015   68.2859  224.7704 H   0  0  0  0  0  0  0  0  0  0  0  0
  139.4321   68.0190  227.0777 H   0  0  0  0  0  0  0  0  0  0  0  0
  140.3336   68.9492  229.2395 H   0  0  0  0  0  0  0  0  0  0  0  0
  141.2935   71.2251  229.2658 H   0  0  0  0  0  0  0  0  0  0  0  0
  143.1169   72.4744  219.1790 H   0  0  0  0  0  0  0  0  0  0  0  0
  145.1407   71.0364  219.2333 H   0  0  0  0  0  0  0  0  0  0  0  0
  147.2284   71.8065  220.3202 H   0  0  0  0  0  0  0  0  0  0  0  0
  147.2884   74.0680  221.3747 H   0  0  0  0  0  0  0  0  0  0  0  0
  145.2768   75.4819  221.3137 H   0  0  0  0  0  0  0  0  0  0  0  0
  1  2  1  0
  2  3  1  0
  3  4  1  0
  4  5  2  0
  4  6  1  0
  6  7  1  0
  7  8  1  0
  8  9  2  0
  8 10  1  0
 10 11  2  0
 11 12  1  0
 12 13  2  0
 13 14  1  0
 14 15  2  0
 15 16  1  0
 16 17  2  0
 17 18  1  0
 17 19  1  0
 19 20  2  0
  2 21  1  0
 21 22  2  0
 22 23  1  0
 23 24  2  0
 24 25  1  0
 25 26  2  0
 20 10  1  0
 26 21  1  0
 19 13  1  0
  1 27  1  0
  1 28  1  0
  1 29  1  0
  2 30  1  1
  3 31  1  0
  6 32  1  0
  6 33  1  0
  7 34  1  0
 11 35  1  0
 12 36  1  0
 14 37  1  0
 15 38  1  0
 16 39  1  0
 22 40  1  0
 23 41  1  0
 24 42  1  0
 25 43  1  0
 26 44  1  0
M  END
>  <smiles>  (27) 
C[C@@H](NC(=O)CNC(=O)c1ccc2cccc(F)c2n1)c1ccccc1

>  <score_type>  (27) 
oracle

>  <origin>  (27) 
autodockgpu

>  <m_score__min__energy>  (27) 
-8.8200000000000003

>  <m_primary>  (27) 
energy

>  <rmsd>  (27) 
6.552560032552908

>  <m_score__min__rmsd>  (27) 
6.552560032552908

>  <meeko>  (27) 
{"free_energy": -8.04, "intermolecular_energy": -9.53, "internal_energy": -1.68, "cluster_size": 7, "cluster_id": 3, "rank_in_cluster": 7}

>  <energy>  (27) 
-8.04

>  <cluster_rmsd>  (27) 
0.28

>  <cluster>  (27) 
3

$$$$

     RDKit          3D

 44 46  0  0  0  0  0  0  0  0999 V2000
  143.0140   75.7280  218.7470 C   0  0  0  0  0  0  0  0  0  0  0  0
  142.9600   75.0470  220.0980 C   0  0  1  0  0  0  0  0  0  0  0  0
  141.7010   74.3260  220.3000 N   0  0  0  0  0  0  0  0  0  0  0  0
  140.5970   74.9110  220.9500 C   0  0  0  0  0  0  0  0  0  0  0  0
  140.7480   76.1140  221.3530 O   0  0  0  0  0  0  0  0  0  0  0  0
  139.3020   74.2780  221.2040 C   0  0  0  0  0  0  0  0  0  0  0  0
  139.2650   73.3920  222.3470 N   0  0  0  0  0  0  0  0  0  0  0  0
  140.2520   72.3720  222.5460 C   0  0  0  0  0  0  0  0  0  0  0  0
  141.2140   72.1990  221.7340 O   0  0  0  0  0  0  0  0  0  0  0  0
  140.1550   71.4930  223.7280 C   0  0  0  0  0  0  0  0  0  0  0  0
  139.5470   70.2610  223.6160 C   0  0  0  0  0  0  0  0  0  0  0  0
  139.4150   69.3800  224.6690 C   0  0  0  0  0  0  0  0  0  0  0  0
  139.9250   69.7760  225.8850 C   0  0  0  0  0  0  0  0  0  0  0  0
  139.8000   68.9050  226.9500 C   0  0  0  0  0  0  0  0  0  0  0  0
  140.3130   69.2940  228.1890 C   0  0  0  0  0  0  0  0  0  0  0  0
  140.9230   70.5300  228.3020 C   0  0  0  0  0  0  0  0  0  0  0  0
  141.0450   71.3950  227.2370 C   0  0  0  0  0  0  0  0  0  0  0  0
  141.6580   72.6080  227.4040 F   0  0  0  0  0  0  0  0  0  0  0  0
  140.5390   71.0160  226.0030 C   0  0  0  0  0  0  0  0  0  0  0  0
  140.6410   71.8480  224.9260 N   0  0  0  0  0  0  0  0  0  0  0  0
  144.1170   74.1170  220.1720 C   0  0  0  0  0  0  0  0  0  0  0  0
  145.2680   74.5150  220.8220 C   0  0  0  0  0  0  0  0  0  0  0  0
  146.3560   73.6460  220.8940 C   0  0  0  0  0  0  0  0  0  0  0  0
  146.3170   72.3870  220.3290 C   0  0  0  0  0  0  0  0  0  0  0  0
  145.1700   71.9860  219.6790 C   0  0  0  0  0  0  0  0  0  0  0  0
  144.1020   72.8550  219.6160 C   0  0  0  0  0  0  0  0  0  0  0  0
  143.1002   76.8155  218.8878 H   0  0  0  0  0  0  0  0  0  0  0  0
  143.8858   75.3606  218.1858 H   0  0  0  0  0  0  0  0  0  0  0  0
  142.0952   75.5026  218.1858 H   0  0  0  0  0  0  0  0  0  0  0  0
  143.0113   75.8030  220.8954 H   0  0  0  0  0  0  0  0  0  0  0  0
  141.6370   73.3520  219.9360 H   0  0  0  0  0  0  0  0  0  0  0  0
  138.5598   75.0736  221.3656 H   0  0  0  0  0  0  0  0  0  0  0  0
  139.0895   73.6522  220.3247 H   0  0  0  0  0  0  0  0  0  0  0  0
  138.5240   73.4460  223.0810 H   0  0  0  0  0  0  0  0  0  0  0  0
  139.1460   69.9649  222.6354 H   0  0  0  0  0  0  0  0  0  0  0  0
  138.9238   68.4039  224.5428 H   0  0  0  0  0  0  0  0  0  0  0  0
  139.3084   67.9289  226.8250 H   0  0  0  0  0  0  0  0  0  0  0  0
  140.2333   68.6282  229.0610 H   0  0  0  0  0  0  0  0  0  0  0  0
  141.3260   70.8338  229.2794 H   0  0  0  0  0  0  0  0  0  0  0  0
  145.3265   75.5130  221.2810 H   0  0  0  0  0  0  0  0  0  0  0  0
  147.2687   73.9719  221.4143 H   0  0  0  0  0  0  0  0  0  0  0  0
  147.1860   71.7159  220.3965 H   0  0  0  0  0  0  0  0  0  0  0  0
  145.1078   70.9891  219.2182 H   0  0  0  0  0  0  0  0  0  0  0  0
  143.1909   72.5250  219.0955 H   0  0  0  0  0  0  0  0  0  0  0  0
  1  2  1  0
  2  3  1  0
  3  4  1  0
  4  5  2  0
  4  6  1  0
  6  7  1  0
  7  8  1  0
  8  9  2  0
  8 10  1  0
 10 11  2  0
 11 12  1  0
 12 13  2  0
 13 14  1  0
 14 15  2  0
 15 16  1  0
 16 17  2  0
 17 18  1  0
 17 19  1  0
 19 20  2  0
  2 21  1  0
 21 22  2  0
 22 23  1  0
 23 24  2  0
 24 25  1  0
 25 26  2  0
 20 10  1  0
 26 21  1  0
 19 13  1  0
  1 27  1  0
  1 28  1  0
  1 29  1  0
  2 30  1  1
  3 31  1  0
  6 32  1  0
  6 33  1  0
  7 34  1  0
 11 35  1  0
 12 36  1  0
 14 37  1  0
 15 38  1  0
 16 39  1  0
 22 40  1  0
 23 41  1  0
 24 42  1  0
 25 43  1  0
 26 44  1  0
M  END
>  <smiles>  (28) 
C[C@@H](NC(=O)CNC(=O)c1ccc2cccc(F)c2n1)c1ccccc1

>  <score_type>  (28) 
oracle

>  <origin>  (28) 
autodockgpu

>  <m_score__min__energy>  (28) 
-8.8200000000000003

>  <m_primary>  (28) 
energy

>  <rmsd>  (28) 
6.596240266253745

>  <m_score__min__rmsd>  (28) 
6.596240266253745

>  <meeko>  (28) 
{"free_energy": -8.26, "intermolecular_energy": -9.76, "internal_energy": -1.62, "cluster_size": 7, "cluster_id": 3, "rank_in_cluster": 1}

>  <energy>  (28) 
-7.8

>  <cluster_rmsd>  (28) 
0.0

>  <cluster>  (28) 
4

$$$$

     RDKit          3D

 44 46  0  0  0  0  0  0  0  0999 V2000
  137.7220   71.5630  223.5540 C   0  0  0  0  0  0  0  0  0  0  0  0
  139.2060   71.2980  223.4180 C   0  0  1  0  0  0  0  0  0  0  0  0
  139.9090   72.4220  222.7950 N   0  0  0  0  0  0  0  0  0  0  0  0
  140.8780   72.2360  221.7910 C   0  0  0  0  0  0  0  0  0  0  0  0
  141.1110   71.0300  221.4420 O   0  0  0  0  0  0  0  0  0  0  0  0
  141.6380   73.2860  221.1100 C   0  0  0  0  0  0  0  0  0  0  0  0
  141.4240   74.6250  221.6150 N   0  0  0  0  0  0  0  0  0  0  0  0
  140.1120   75.1930  221.7210 C   0  0  0  0  0  0  0  0  0  0  0  0
  139.0710   74.5480  221.3850 O   0  0  0  0  0  0  0  0  0  0  0  0
  139.9600   76.5680  222.2370 C   0  0  0  0  0  0  0  0  0  0  0  0
  138.7090   77.0380  222.5740 C   0  0  0  0  0  0  0  0  0  0  0  0
  138.4790   78.3070  223.0620 C   0  0  0  0  0  0  0  0  0  0  0  0
  139.5730   79.1290  223.2120 C   0  0  0  0  0  0  0  0  0  0  0  0
  139.3600   80.4030  223.7000 C   0  0  0  0  0  0  0  0  0  0  0  0
  140.4620   81.2470  223.8560 C   0  0  0  0  0  0  0  0  0  0  0  0
  141.7180   80.7760  223.5180 C   0  0  0  0  0  0  0  0  0  0  0  0
  141.9250   79.5040  223.0330 C   0  0  0  0  0  0  0  0  0  0  0  0
  143.1910   79.0880  222.7130 F   0  0  0  0  0  0  0  0  0  0  0  0
  140.8370   78.6600  222.8740 C   0  0  0  0  0  0  0  0  0  0  0  0
  141.0050   77.3930  222.3950 N   0  0  0  0  0  0  0  0  0  0  0  0
  139.7360   71.0350  224.7820 C   0  0  0  0  0  0  0  0  0  0  0  0
  140.7030   71.8680  225.3070 C   0  0  0  0  0  0  0  0  0  0  0  0
  141.2030   71.6250  226.5860 C   0  0  0  0  0  0  0  0  0  0  0  0
  140.7550   70.5670  227.3510 C   0  0  0  0  0  0  0  0  0  0  0  0
  139.7900   69.7320  226.8300 C   0  0  0  0  0  0  0  0  0  0  0  0
  139.3040   69.9840  225.5640 C   0  0  0  0  0  0  0  0  0  0  0  0
  137.4542   71.6108  224.6198 H   0  0  0  0  0  0  0  0  0  0  0  0
  137.4745   72.5196  223.0705 H   0  0  0  0  0  0  0  0  0  0  0  0
  137.1587   70.7512  223.0705 H   0  0  0  0  0  0  0  0  0  0  0  0
  139.3690   70.4320  222.7596 H   0  0  0  0  0  0  0  0  0  0  0  0
  139.6650   73.3820  223.1150 H   0  0  0  0  0  0  0  0  0  0  0  0
  142.7080   73.0513  221.2097 H   0  0  0  0  0  0  0  0  0  0  0  0
  141.2858   73.2919  220.0679 H   0  0  0  0  0  0  0  0  0  0  0  0
  142.2060   75.2440  221.9260 H   0  0  0  0  0  0  0  0  0  0  0  0
  137.8482   76.3650  222.4469 H   0  0  0  0  0  0  0  0  0  0  0  0
  137.4654   78.6477  223.3202 H   0  0  0  0  0  0  0  0  0  0  0  0
  138.3472   80.7449  223.9596 H   0  0  0  0  0  0  0  0  0  0  0  0
  140.3332   82.2693  224.2412 H   0  0  0  0  0  0  0  0  0  0  0  0
  142.5841   81.4428  223.6413 H   0  0  0  0  0  0  0  0  0  0  0  0
  141.0775   72.7193  224.7196 H   0  0  0  0  0  0  0  0  0  0  0  0
  141.9743   72.2937  226.9958 H   0  0  0  0  0  0  0  0  0  0  0  0
  141.1609   70.3933  228.3585 H   0  0  0  0  0  0  0  0  0  0  0  0
  139.4138   68.8791  227.4140 H   0  0  0  0  0  0  0  0  0  0  0  0
  138.5330   69.3130  225.1574 H   0  0  0  0  0  0  0  0  0  0  0  0
  1  2  1  0
  2  3  1  0
  3  4  1  0
  4  5  2  0
  4  6  1  0
  6  7  1  0
  7  8  1  0
  8  9  2  0
  8 10  1  0
 10 11  2  0
 11 12  1  0
 12 13  2  0
 13 14  1  0
 14 15  2  0
 15 16  1  0
 16 17  2  0
 17 18  1  0
 17 19  1  0
 19 20  2  0
  2 21  1  0
 21 22  2  0
 22 23  1  0
 23 24  2  0
 24 25  1  0
 25 26  2  0
 20 10  1  0
 26 21  1  0
 19 13  1  0
  1 27  1  0
  1 28  1  0
  1 29  1  0
  2 30  1  6
  3 31  1  0
  6 32  1  0
  6 33  1  0
  7 34  1  0
 11 35  1  0
 12 36  1  0
 14 37  1  0
 15 38  1  0
 16 39  1  0
 22 40  1  0
 23 41  1  0
 24 42  1  0
 25 43  1  0
 26 44  1  0
M  END
>  <smiles>  (29) 
C[C@@H](NC(=O)CNC(=O)c1ccc2cccc(F)c2n1)c1ccccc1

>  <score_type>  (29) 
oracle

>  <origin>  (29) 
autodockgpu

>  <m_score__min__energy>  (29) 
-8.8200000000000003

>  <m_primary>  (29) 
energy

>  <rmsd>  (29) 
9.72766525456522

>  <m_score__min__rmsd>  (29) 
9.72766525456522

>  <meeko>  (29) 
{"free_energy": -7.73, "intermolecular_energy": -9.22, "internal_energy": -1.93, "cluster_size": 21, "cluster_id": 4, "rank_in_cluster": 20}

>  <energy>  (29) 
-7.8

>  <cluster_rmsd>  (29) 
0.02

>  <cluster>  (29) 
4

$$$$

     RDKit          3D

 44 46  0  0  0  0  0  0  0  0999 V2000
  139.2400   77.9930  221.1660 C   0  0  0  0  0  0  0  0  0  0  0  0
  140.1040   77.5260  222.3180 C   0  0  1  0  0  0  0  0  0  0  0  0
  140.7930   76.2700  222.0140 N   0  0  0  0  0  0  0  0  0  0  0  0
  140.1000   75.0580  221.8340 C   0  0  0  0  0  0  0  0  0  0  0  0
  138.8280   75.1110  221.9430 O   0  0  0  0  0  0  0  0  0  0  0  0
  140.6900   73.7530  221.5320 C   0  0  0  0  0  0  0  0  0  0  0  0
  140.6950   72.8130  222.6310 N   0  0  0  0  0  0  0  0  0  0  0  0
  139.7070   71.7820  222.7490 C   0  0  0  0  0  0  0  0  0  0  0  0
  138.7810   71.6360  221.8920 O   0  0  0  0  0  0  0  0  0  0  0  0
  139.7610   70.8570  223.8990 C   0  0  0  0  0  0  0  0  0  0  0  0
  139.1950   69.6040  223.7970 C   0  0  0  0  0  0  0  0  0  0  0  0
  139.2020   68.6810  224.8210 C   0  0  0  0  0  0  0  0  0  0  0  0
  139.8120   69.0540  225.9970 C   0  0  0  0  0  0  0  0  0  0  0  0
  139.8270   68.1410  227.0330 C   0  0  0  0  0  0  0  0  0  0  0  0
  140.4430   68.5070  228.2320 C   0  0  0  0  0  0  0  0  0  0  0  0
  141.0110   69.7640  228.3350 C   0  0  0  0  0  0  0  0  0  0  0  0
  140.9940   70.6710  227.2990 C   0  0  0  0  0  0  0  0  0  0  0  0
  141.5710   71.9030  227.4550 F   0  0  0  0  0  0  0  0  0  0  0  0
  140.3840   70.3150  226.1060 C   0  0  0  0  0  0  0  0  0  0  0  0
  140.3480   71.1890  225.0580 N   0  0  0  0  0  0  0  0  0  0  0  0
  141.0830   78.6080  222.6030 C   0  0  0  0  0  0  0  0  0  0  0  0
  141.6100   79.3410  221.5590 C   0  0  0  0  0  0  0  0  0  0  0  0
  142.5280   80.3570  221.8210 C   0  0  0  0  0  0  0  0  0  0  0  0
  142.9310   80.6550  223.1070 C   0  0  0  0  0  0  0  0  0  0  0  0
  142.4080   79.9260  224.1530 C   0  0  0  0  0  0  0  0  0  0  0  0
  141.5010   78.9240  223.8790 C   0  0  0  0  0  0  0  0  0  0  0  0
  138.3365   78.4814  221.5598 H   0  0  0  0  0  0  0  0  0  0  0  0
  139.8049   78.7086  220.5506 H   0  0  0  0  0  0  0  0  0  0  0  0
  138.9508   77.1284  220.5506 H   0  0  0  0  0  0  0  0  0  0  0  0
  139.4730   77.3241  223.1961 H   0  0  0  0  0  0  0  0  0  0  0  0
  141.8310   76.2960  221.9240 H   0  0  0  0  0  0  0  0  0  0  0  0
  140.1215   73.3055  220.7034 H   0  0  0  0  0  0  0  0  0  0  0  0
  141.7453   73.9432  221.2867 H   0  0  0  0  0  0  0  0  0  0  0  0
  141.4120   72.8350  223.3920 H   0  0  0  0  0  0  0  0  0  0  0  0
  138.7123   69.3261  222.8484 H   0  0  0  0  0  0  0  0  0  0  0  0
  138.7402   67.6896  224.7033 H   0  0  0  0  0  0  0  0  0  0  0  0
  139.3650   67.1495  226.9168 H   0  0  0  0  0  0  0  0  0  0  0  0
  140.4759   67.8073  229.0801 H   0  0  0  0  0  0  0  0  0  0  0  0
  141.4948   70.0500  229.2806 H   0  0  0  0  0  0  0  0  0  0  0  0
  141.3068   79.1244  220.5240 H   0  0  0  0  0  0  0  0  0  0  0  0
  142.9415   80.9356  220.9818 H   0  0  0  0  0  0  0  0  0  0  0  0
  143.6568   81.4602  223.2937 H   0  0  0  0  0  0  0  0  0  0  0  0
  142.7090   80.1398  225.1892 H   0  0  0  0  0  0  0  0  0  0  0  0
  141.0900   78.3474  224.7208 H   0  0  0  0  0  0  0  0  0  0  0  0
  1  2  1  0
  2  3  1  0
  3  4  1  0
  4  5  2  0
  4  6  1  0
  6  7  1  0
  7  8  1  0
  8  9  2  0
  8 10  1  0
 10 11  2  0
 11 12  1  0
 12 13  2  0
 13 14  1  0
 14 15  2  0
 15 16  1  0
 16 17  2  0
 17 18  1  0
 17 19  1  0
 19 20  2  0
  2 21  1  0
 21 22  2  0
 22 23  1  0
 23 24  2  0
 24 25  1  0
 25 26  2  0
 20 10  1  0
 26 21  1  0
 19 13  1  0
  1 27  1  0
  1 28  1  0
  1 29  1  0
  2 30  1  1
  3 31  1  0
  6 32  1  0
  6 33  1  0
  7 34  1  0
 11 35  1  0
 12 36  1  0
 14 37  1  0
 15 38  1  0
 16 39  1  0
 22 40  1  0
 23 41  1  0
 24 42  1  0
 25 43  1  0
 26 44  1  0
M  END
>  <smiles>  (30) 
C[C@@H](NC(=O)CNC(=O)c1ccc2cccc(F)c2n1)c1ccccc1

>  <score_type>  (30) 
oracle

>  <origin>  (30) 
autodockgpu

>  <m_score__min__energy>  (30) 
-8.8200000000000003

>  <m_primary>  (30) 
energy

>  <rmsd>  (30) 
4.320318716828193

>  <m_score__min__rmsd>  (30) 
4.320318716828193

>  <meeko>  (30) 
{"free_energy": -8.54, "intermolecular_energy": -10.03, "internal_energy": -1.03, "cluster_size": 7, "cluster_id": 1, "rank_in_cluster": 3}

>  <energy>  (30) 
-7.79

>  <cluster_rmsd>  (30) 
0.06

>  <cluster>  (30) 
4

$$$$

     RDKit          3D

 44 46  0  0  0  0  0  0  0  0999 V2000
  137.7920   71.5430  223.5440 C   0  0  0  0  0  0  0  0  0  0  0  0
  139.2840   71.3060  223.4420 C   0  0  1  0  0  0  0  0  0  0  0  0
  139.9760   72.4280  222.8050 N   0  0  0  0  0  0  0  0  0  0  0  0
  140.9150   72.2430  221.7730 C   0  0  0  0  0  0  0  0  0  0  0  0
  141.1310   71.0370  221.4120 O   0  0  0  0  0  0  0  0  0  0  0  0
  141.6620   73.2920  221.0770 C   0  0  0  0  0  0  0  0  0  0  0  0
  141.4570   74.6310  221.5830 N   0  0  0  0  0  0  0  0  0  0  0  0
  140.1480   75.1960  221.7190 C   0  0  0  0  0  0  0  0  0  0  0  0
  139.1000   74.5490  221.4090 O   0  0  0  0  0  0  0  0  0  0  0  0
  140.0050   76.5730  222.2350 C   0  0  0  0  0  0  0  0  0  0  0  0
  138.7580   77.0490  222.5770 C   0  0  0  0  0  0  0  0  0  0  0  0
  138.5370   78.3200  223.0660 C   0  0  0  0  0  0  0  0  0  0  0  0
  139.6360   79.1360  223.2110 C   0  0  0  0  0  0  0  0  0  0  0  0
  139.4320   80.4110  223.6990 C   0  0  0  0  0  0  0  0  0  0  0  0
  140.5390   81.2490  223.8510 C   0  0  0  0  0  0  0  0  0  0  0  0
  141.7900   80.7710  223.5070 C   0  0  0  0  0  0  0  0  0  0  0  0
  141.9890   79.4980  223.0220 C   0  0  0  0  0  0  0  0  0  0  0  0
  143.2510   79.0750  222.6970 F   0  0  0  0  0  0  0  0  0  0  0  0
  140.8960   78.6600  222.8680 C   0  0  0  0  0  0  0  0  0  0  0  0
  141.0550   77.3920  222.3880 N   0  0  0  0  0  0  0  0  0  0  0  0
  139.7930   71.0870  224.8210 C   0  0  0  0  0  0  0  0  0  0  0  0
  139.2760   70.0570  225.5810 C   0  0  0  0  0  0  0  0  0  0  0  0
  139.7500   69.8480  226.8750 C   0  0  0  0  0  0  0  0  0  0  0  0
  140.7310   70.6480  227.4260 C   0  0  0  0  0  0  0  0  0  0  0  0
  141.2500   71.6780  226.6710 C   0  0  0  0  0  0  0  0  0  0  0  0
  140.7720   71.8730  225.3930 C   0  0  0  0  0  0  0  0  0  0  0  0
  137.4997   71.5894  224.6034 H   0  0  0  0  0  0  0  0  0  0  0  0
  137.5371   72.4929  223.0513 H   0  0  0  0  0  0  0  0  0  0  0  0
  137.2553   70.7188  223.0513 H   0  0  0  0  0  0  0  0  0  0  0  0
  139.4767   70.4281  222.8079 H   0  0  0  0  0  0  0  0  0  0  0  0
  139.7460   73.3890  223.1360 H   0  0  0  0  0  0  0  0  0  0  0  0
  142.7337   73.0577  221.1579 H   0  0  0  0  0  0  0  0  0  0  0  0
  141.2908   73.2961  220.0415 H   0  0  0  0  0  0  0  0  0  0  0  0
  142.2450   75.2520  221.8740 H   0  0  0  0  0  0  0  0  0  0  0  0
  137.8932   76.3805  222.4536 H   0  0  0  0  0  0  0  0  0  0  0  0
  137.5265   78.6662  223.3286 H   0  0  0  0  0  0  0  0  0  0  0  0
  138.4220   80.7587  223.9618 H   0  0  0  0  0  0  0  0  0  0  0  0
  140.4177   82.2716  224.2377 H   0  0  0  0  0  0  0  0  0  0  0  0
  142.6600   81.4336  223.6255 H   0  0  0  0  0  0  0  0  0  0  0  0
  138.4934   69.4041  225.1672 H   0  0  0  0  0  0  0  0  0  0  0  0
  139.3317   69.0246  227.4725 H   0  0  0  0  0  0  0  0  0  0  0  0
  141.0920   70.4668  228.4491 H   0  0  0  0  0  0  0  0  0  0  0  0
  142.0324   72.3332  227.0815 H   0  0  0  0  0  0  0  0  0  0  0  0
  141.1926   72.6975  224.7987 H   0  0  0  0  0  0  0  0  0  0  0  0
  1  2  1  0
  2  3  1  0
  3  4  1  0
  4  5  2  0
  4  6  1  0
  6  7  1  0
  7  8  1  0
  8  9  2  0
  8 10  1  0
 10 11  2  0
 11 12  1  0
 12 13  2  0
 13 14  1  0
 14 15  2  0
 15 16  1  0
 16 17  2  0
 17 18  1  0
 17 19  1  0
 19 20  2  0
  2 21  1  0
 21 22  2  0
 22 23  1  0
 23 24  2  0
 24 25  1  0
 25 26  2  0
 20 10  1  0
 26 21  1  0
 19 13  1  0
  1 27  1  0
  1 28  1  0
  1 29  1  0
  2 30  1  6
  3 31  1  0
  6 32  1  0
  6 33  1  0
  7 34  1  0
 11 35  1  0
 12 36  1  0
 14 37  1  0
 15 38  1  0
 16 39  1  0
 22 40  1  0
 23 41  1  0
 24 42  1  0
 25 43  1  0
 26 44  1  0
M  END
>  <smiles>  (31) 
C[C@@H](NC(=O)CNC(=O)c1ccc2cccc(F)c2n1)c1ccccc1

>  <score_type>  (31) 
oracle

>  <origin>  (31) 
autodockgpu

>  <m_score__min__energy>  (31) 
-8.8200000000000003

>  <m_primary>  (31) 
energy

>  <rmsd>  (31) 
9.563320496426321

>  <m_score__min__rmsd>  (31) 
9.563320496426321

>  <meeko>  (31) 
{"free_energy": -7.77, "intermolecular_energy": -9.26, "internal_energy": -1.93, "cluster_size": 21, "cluster_id": 4, "rank_in_cluster": 9}

>  <energy>  (31) 
-7.79

>  <cluster_rmsd>  (31) 
0.05

>  <cluster>  (31) 
4

$$$$

     RDKit          3D

 44 46  0  0  0  0  0  0  0  0999 V2000
  142.8790   75.7140  218.9580 C   0  0  0  0  0  0  0  0  0  0  0  0
  142.8990   74.9880  220.2870 C   0  0  1  0  0  0  0  0  0  0  0  0
  141.6750   74.2160  220.5090 N   0  0  0  0  0  0  0  0  0  0  0  0
  140.4640   74.8230  220.8940 C   0  0  0  0  0  0  0  0  0  0  0  0
  140.4850   76.0930  221.0330 O   0  0  0  0  0  0  0  0  0  0  0  0
  139.1910   74.1450  221.1440 C   0  0  0  0  0  0  0  0  0  0  0  0
  139.1600   73.3170  222.3300 N   0  0  0  0  0  0  0  0  0  0  0  0
  140.1040   72.2610  222.5410 C   0  0  0  0  0  0  0  0  0  0  0  0
  141.0210   72.0010  221.7020 O   0  0  0  0  0  0  0  0  0  0  0  0
  140.0130   71.4460  223.7690 C   0  0  0  0  0  0  0  0  0  0  0  0
  139.3250   70.2520  223.7480 C   0  0  0  0  0  0  0  0  0  0  0  0
  139.1940   69.4310  224.8480 C   0  0  0  0  0  0  0  0  0  0  0  0
  139.7890   69.8480  226.0170 C   0  0  0  0  0  0  0  0  0  0  0  0
  139.6660   69.0370  227.1280 C   0  0  0  0  0  0  0  0  0  0  0  0
  140.2660   69.4490  228.3200 C   0  0  0  0  0  0  0  0  0  0  0  0
  140.9560   70.6470  228.3410 C   0  0  0  0  0  0  0  0  0  0  0  0
  141.0770   71.4520  227.2310 C   0  0  0  0  0  0  0  0  0  0  0  0
  141.7720   72.6290  227.3070 F   0  0  0  0  0  0  0  0  0  0  0  0
  140.4840   71.0500  226.0430 C   0  0  0  0  0  0  0  0  0  0  0  0
  140.5820   71.8230  224.9230 N   0  0  0  0  0  0  0  0  0  0  0  0
  144.0900   74.0980  220.2860 C   0  0  0  0  0  0  0  0  0  0  0  0
  144.0000   72.8420  219.7210 C   0  0  0  0  0  0  0  0  0  0  0  0
  145.1150   72.0040  219.7180 C   0  0  0  0  0  0  0  0  0  0  0  0
  146.3180   72.3960  220.2680 C   0  0  0  0  0  0  0  0  0  0  0  0
  146.4130   73.6500  220.8340 C   0  0  0  0  0  0  0  0  0  0  0  0
  145.3030   74.4680  220.8300 C   0  0  0  0  0  0  0  0  0  0  0  0
  142.8491   76.7995  219.1336 H   0  0  0  0  0  0  0  0  0  0  0  0
  143.7845   75.4596  218.3876 H   0  0  0  0  0  0  0  0  0  0  0  0
  141.9889   75.4102  218.3876 H   0  0  0  0  0  0  0  0  0  0  0  0
  142.9534   75.7184  221.1077 H   0  0  0  0  0  0  0  0  0  0  0  0
  141.7200   73.1850  220.3660 H   0  0  0  0  0  0  0  0  0  0  0  0
  138.4096   74.9128  221.2438 H   0  0  0  0  0  0  0  0  0  0  0  0
  139.0322   73.4670  220.2924 H   0  0  0  0  0  0  0  0  0  0  0  0
  138.4530   73.4440  223.0890 H   0  0  0  0  0  0  0  0  0  0  0  0
  138.8557   69.9375  222.8041 H   0  0  0  0  0  0  0  0  0  0  0  0
  138.6379   68.4835  224.7936 H   0  0  0  0  0  0  0  0  0  0  0  0
  139.1091   68.0898  227.0754 H   0  0  0  0  0  0  0  0  0  0  0  0
  140.1909   68.8308  229.2268 H   0  0  0  0  0  0  0  0  0  0  0  0
  141.4266   70.9694  229.2815 H   0  0  0  0  0  0  0  0  0  0  0  0
  143.0532   72.5034  219.2750 H   0  0  0  0  0  0  0  0  0  0  0  0
  145.0331   71.0048  219.2654 H   0  0  0  0  0  0  0  0  0  0  0  0
  147.1859   71.7204  220.2553 H   0  0  0  0  0  0  0  0  0  0  0  0
  147.3582   73.9918  221.2810 H   0  0  0  0  0  0  0  0  0  0  0  0
  145.3888   75.4664  221.2836 H   0  0  0  0  0  0  0  0  0  0  0  0
  1  2  1  0
  2  3  1  0
  3  4  1  0
  4  5  2  0
  4  6  1  0
  6  7  1  0
  7  8  1  0
  8  9  2  0
  8 10  1  0
 10 11  2  0
 11 12  1  0
 12 13  2  0
 13 14  1  0
 14 15  2  0
 15 16  1  0
 16 17  2  0
 17 18  1  0
 17 19  1  0
 19 20  2  0
  2 21  1  0
 21 22  2  0
 22 23  1  0
 23 24  2  0
 24 25  1  0
 25 26  2  0
 20 10  1  0
 26 21  1  0
 19 13  1  0
  1 27  1  0
  1 28  1  0
  1 29  1  0
  2 30  1  1
  3 31  1  0
  6 32  1  0
  6 33  1  0
  7 34  1  0
 11 35  1  0
 12 36  1  0
 14 37  1  0
 15 38  1  0
 16 39  1  0
 22 40  1  0
 23 41  1  0
 24 42  1  0
 25 43  1  0
 26 44  1  0
M  END
>  <smiles>  (32) 
C[C@@H](NC(=O)CNC(=O)c1ccc2cccc(F)c2n1)c1ccccc1

>  <score_type>  (32) 
oracle

>  <origin>  (32) 
autodockgpu

>  <m_score__min__energy>  (32) 
-8.8200000000000003

>  <m_primary>  (32) 
energy

>  <rmsd>  (32) 
6.531144696275943

>  <m_score__min__rmsd>  (32) 
6.531144696275943

>  <meeko>  (32) 
{"free_energy": -8.17, "intermolecular_energy": -9.66, "internal_energy": -1.62, "cluster_size": 7, "cluster_id": 3, "rank_in_cluster": 5}

>  <energy>  (32) 
-7.79

>  <cluster_rmsd>  (32) 
0.05

>  <cluster>  (32) 
4

$$$$

     RDKit          3D

 44 46  0  0  0  0  0  0  0  0999 V2000
  137.7790   71.5480  223.4920 C   0  0  0  0  0  0  0  0  0  0  0  0
  139.2680   71.2970  223.3910 C   0  0  1  0  0  0  0  0  0  0  0  0
  139.9750   72.4240  222.7770 N   0  0  0  0  0  0  0  0  0  0  0  0
  140.9080   72.2470  221.7380 C   0  0  0  0  0  0  0  0  0  0  0  0
  141.1050   71.0460  221.3490 O   0  0  0  0  0  0  0  0  0  0  0  0
  141.6670   73.3000  221.0610 C   0  0  0  0  0  0  0  0  0  0  0  0
  141.4480   74.6380  221.5680 N   0  0  0  0  0  0  0  0  0  0  0  0
  140.1320   75.1870  221.7090 C   0  0  0  0  0  0  0  0  0  0  0  0
  139.0910   74.5270  221.4030 O   0  0  0  0  0  0  0  0  0  0  0  0
  139.9750   76.5620  222.2250 C   0  0  0  0  0  0  0  0  0  0  0  0
  138.7220   77.0280  222.5590 C   0  0  0  0  0  0  0  0  0  0  0  0
  138.4880   78.2960  223.0480 C   0  0  0  0  0  0  0  0  0  0  0  0
  139.5790   79.1210  223.2000 C   0  0  0  0  0  0  0  0  0  0  0  0
  139.3610   80.3940  223.6880 C   0  0  0  0  0  0  0  0  0  0  0  0
  140.4610   81.2410  223.8470 C   0  0  0  0  0  0  0  0  0  0  0  0
  141.7180   80.7740  223.5110 C   0  0  0  0  0  0  0  0  0  0  0  0
  141.9300   79.5030  223.0260 C   0  0  0  0  0  0  0  0  0  0  0  0
  143.1970   79.0910  222.7080 F   0  0  0  0  0  0  0  0  0  0  0  0
  140.8440   78.6560  222.8650 C   0  0  0  0  0  0  0  0  0  0  0  0
  141.0170   77.3900  222.3850 N   0  0  0  0  0  0  0  0  0  0  0  0
  139.7690   71.0500  224.7690 C   0  0  0  0  0  0  0  0  0  0  0  0
  140.7370   71.8790  225.3000 C   0  0  0  0  0  0  0  0  0  0  0  0
  141.2100   71.6510  226.5910 C   0  0  0  0  0  0  0  0  0  0  0  0
  140.7340   70.6110  227.3640 C   0  0  0  0  0  0  0  0  0  0  0  0
  139.7680   69.7810  226.8390 C   0  0  0  0  0  0  0  0  0  0  0  0
  139.3100   70.0180  225.5600 C   0  0  0  0  0  0  0  0  0  0  0  0
  137.4865   71.5973  224.5513 H   0  0  0  0  0  0  0  0  0  0  0  0
  137.5334   72.5002  222.9991 H   0  0  0  0  0  0  0  0  0  0  0  0
  137.2348   70.7289  222.9991 H   0  0  0  0  0  0  0  0  0  0  0  0
  139.4538   70.4284  222.7421 H   0  0  0  0  0  0  0  0  0  0  0  0
  139.7590   73.3800  223.1290 H   0  0  0  0  0  0  0  0  0  0  0  0
  142.7374   73.0679  221.1633 H   0  0  0  0  0  0  0  0  0  0  0  0
  141.3177   73.3068  220.0180 H   0  0  0  0  0  0  0  0  0  0  0  0
  142.2300   75.2690  221.8550 H   0  0  0  0  0  0  0  0  0  0  0  0
  137.8632   76.3531  222.4287 H   0  0  0  0  0  0  0  0  0  0  0  0
  137.4732   78.6334  223.3055 H   0  0  0  0  0  0  0  0  0  0  0  0
  138.3467   80.7330  223.9452 H   0  0  0  0  0  0  0  0  0  0  0  0
  140.3289   82.2625  224.2331 H   0  0  0  0  0  0  0  0  0  0  0  0
  142.5819   81.4434  223.6359 H   0  0  0  0  0  0  0  0  0  0  0  0
  141.1333   72.7161  224.7065 H   0  0  0  0  0  0  0  0  0  0  0  0
  141.9821   72.3165  227.0044 H   0  0  0  0  0  0  0  0  0  0  0  0
  141.1193   70.4479  228.3813 H   0  0  0  0  0  0  0  0  0  0  0  0
  139.3688   68.9435  227.4299 H   0  0  0  0  0  0  0  0  0  0  0  0
  138.5389   69.3494  225.1497 H   0  0  0  0  0  0  0  0  0  0  0  0
  1  2  1  0
  2  3  1  0
  3  4  1  0
  4  5  2  0
  4  6  1  0
  6  7  1  0
  7  8  1  0
  8  9  2  0
  8 10  1  0
 10 11  2  0
 11 12  1  0
 12 13  2  0
 13 14  1  0
 14 15  2  0
 15 16  1  0
 16 17  2  0
 17 18  1  0
 17 19  1  0
 19 20  2  0
  2 21  1  0
 21 22  2  0
 22 23  1  0
 23 24  2  0
 24 25  1  0
 25 26  2  0
 20 10  1  0
 26 21  1  0
 19 13  1  0
  1 27  1  0
  1 28  1  0
  1 29  1  0
  2 30  1  6
  3 31  1  0
  6 32  1  0
  6 33  1  0
  7 34  1  0
 11 35  1  0
 12 36  1  0
 14 37  1  0
 15 38  1  0
 16 39  1  0
 22 40  1  0
 23 41  1  0
 24 42  1  0
 25 43  1  0
 26 44  1  0
M  END
>  <smiles>  (33) 
C[C@@H](NC(=O)CNC(=O)c1ccc2cccc(F)c2n1)c1ccccc1

>  <score_type>  (33) 
oracle

>  <origin>  (33) 
autodockgpu

>  <m_score__min__energy>  (33) 
-8.8200000000000003

>  <m_primary>  (33) 
energy

>  <rmsd>  (33) 
9.712596641995018

>  <m_score__min__rmsd>  (33) 
9.712596641995018

>  <meeko>  (33) 
{"free_energy": -7.75, "intermolecular_energy": -9.24, "internal_energy": -1.92, "cluster_size": 21, "cluster_id": 4, "rank_in_cluster": 15}

>  <energy>  (33) 
-7.79

>  <cluster_rmsd>  (33) 
0.04

>  <cluster>  (33) 
4

$$$$

     RDKit          3D

 44 46  0  0  0  0  0  0  0  0999 V2000
  140.3300   67.3860  226.5760 C   0  0  0  0  0  0  0  0  0  0  0  0
  139.8110   68.5360  225.7390 C   0  0  1  0  0  0  0  0  0  0  0  0
  138.3650   68.4500  225.5240 N   0  0  0  0  0  0  0  0  0  0  0  0
  137.6810   69.3270  224.6600 C   0  0  0  0  0  0  0  0  0  0  0  0
  138.3920   70.2050  224.0640 O   0  0  0  0  0  0  0  0  0  0  0  0
  136.2450   69.3290  224.3800 C   0  0  0  0  0  0  0  0  0  0  0  0
  135.5280   70.4950  224.8500 N   0  0  0  0  0  0  0  0  0  0  0  0
  134.5760   70.4180  225.9170 C   0  0  0  0  0  0  0  0  0  0  0  0
  134.3160   69.3250  226.5100 O   0  0  0  0  0  0  0  0  0  0  0  0
  133.8710   71.6430  226.3450 C   0  0  0  0  0  0  0  0  0  0  0  0
  132.7080   71.5420  227.0790 C   0  0  0  0  0  0  0  0  0  0  0  0
  131.9900   72.6340  227.5190 C   0  0  0  0  0  0  0  0  0  0  0  0
  132.4790   73.8790  227.1950 C   0  0  0  0  0  0  0  0  0  0  0  0
  131.7710   74.9820  227.6280 C   0  0  0  0  0  0  0  0  0  0  0  0
  132.2580   76.2520  227.3060 C   0  0  0  0  0  0  0  0  0  0  0  0
  133.4240   76.3530  226.5700 C   0  0  0  0  0  0  0  0  0  0  0  0
  134.1270   75.2500  226.1410 C   0  0  0  0  0  0  0  0  0  0  0  0
  135.2780   75.4070  225.4150 F   0  0  0  0  0  0  0  0  0  0  0  0
  133.6510   73.9860  226.4560 C   0  0  0  0  0  0  0  0  0  0  0  0
  134.3220   72.8700  226.0470 N   0  0  0  0  0  0  0  0  0  0  0  0
  140.1640   69.7940  226.4490 C   0  0  0  0  0  0  0  0  0  0  0  0
  140.9560   70.7310  225.8170 C   0  0  0  0  0  0  0  0  0  0  0  0
  141.2900   71.9120  226.4790 C   0  0  0  0  0  0  0  0  0  0  0  0
  140.8480   72.1760  227.7600 C   0  0  0  0  0  0  0  0  0  0  0  0
  140.0570   71.2420  228.3950 C   0  0  0  0  0  0  0  0  0  0  0  0
  139.7340   70.0790  227.7280 C   0  0  0  0  0  0  0  0  0  0  0  0
  140.2199   67.6301  227.6429 H   0  0  0  0  0  0  0  0  0  0  0  0
  139.7550   66.4768  226.3466 H   0  0  0  0  0  0  0  0  0  0  0  0
  141.3922   67.2157  226.3466 H   0  0  0  0  0  0  0  0  0  0  0  0
  140.2713   68.5047  224.7404 H   0  0  0  0  0  0  0  0  0  0  0  0
  137.8440   67.7040  226.0300 H   0  0  0  0  0  0  0  0  0  0  0  0
  136.1105   69.2630  223.2903 H   0  0  0  0  0  0  0  0  0  0  0  0
  135.8258   68.4715  224.9268 H   0  0  0  0  0  0  0  0  0  0  0  0
  135.6660   71.4460  224.4390 H   0  0  0  0  0  0  0  0  0  0  0  0
  132.3334   70.5378  227.3265 H   0  0  0  0  0  0  0  0  0  0  0  0
  131.0660   72.5151  228.1039 H   0  0  0  0  0  0  0  0  0  0  0  0
  130.8463   74.8644  228.2121 H   0  0  0  0  0  0  0  0  0  0  0  0
  131.7226   77.1557  227.6326 H   0  0  0  0  0  0  0  0  0  0  0  0
  133.8047   77.3536  226.3174 H   0  0  0  0  0  0  0  0  0  0  0  0
  141.3220   70.5471  224.7961 H   0  0  0  0  0  0  0  0  0  0  0  0
  141.9221   72.6526  225.9672 H   0  0  0  0  0  0  0  0  0  0  0  0
  141.1218   73.1142  228.2648 H   0  0  0  0  0  0  0  0  0  0  0  0
  139.6899   71.4215  229.4163 H   0  0  0  0  0  0  0  0  0  0  0  0
  139.1010   69.3409  228.2424 H   0  0  0  0  0  0  0  0  0  0  0  0
  1  2  1  0
  2  3  1  0
  3  4  1  0
  4  5  2  0
  4  6  1  0
  6  7  1  0
  7  8  1  0
  8  9  2  0
  8 10  1  0
 10 11  2  0
 11 12  1  0
 12 13  2  0
 13 14  1  0
 14 15  2  0
 15 16  1  0
 16 17  2  0
 17 18  1  0
 17 19  1  0
 19 20  2  0
  2 21  1  0
 21 22  2  0
 22 23  1  0
 23 24  2  0
 24 25  1  0
 25 26  2  0
 20 10  1  0
 26 21  1  0
 19 13  1  0
  1 27  1  0
  1 28  1  0
  1 29  1  0
  2 30  1  6
  3 31  1  0
  6 32  1  0
  6 33  1  0
  7 34  1  0
 11 35  1  0
 12 36  1  0
 14 37  1  0
 15 38  1  0
 16 39  1  0
 22 40  1  0
 23 41  1  0
 24 42  1  0
 25 43  1  0
 26 44  1  0
M  END
>  <smiles>  (34) 
C[C@@H](NC(=O)CNC(=O)c1ccc2cccc(F)c2n1)c1ccccc1

>  <score_type>  (34) 
oracle

>  <origin>  (34) 
autodockgpu

>  <m_score__min__energy>  (34) 
-8.8200000000000003

>  <m_primary>  (34) 
energy

>  <rmsd>  (34) 
10.888833893225932

>  <m_score__min__rmsd>  (34) 
10.888833893225932

>  <meeko>  (34) 
{"free_energy": -8.34, "intermolecular_energy": -9.83, "internal_energy": -1.31, "cluster_size": 13, "cluster_id": 2, "rank_in_cluster": 6}

>  <energy>  (34) 
-7.78

>  <cluster_rmsd>  (34) 
0.04

>  <cluster>  (34) 
4

$$$$

     RDKit          3D

 44 46  0  0  0  0  0  0  0  0999 V2000
  139.5140   68.1150  225.3680 C   0  0  0  0  0  0  0  0  0  0  0  0
  139.7970   69.5030  224.8340 C   0  0  1  0  0  0  0  0  0  0  0  0
  138.6160   70.1000  224.2040 N   0  0  0  0  0  0  0  0  0  0  0  0
  138.7110   71.1790  223.3050 C   0  0  0  0  0  0  0  0  0  0  0  0
  139.8870   71.6100  223.0570 O   0  0  0  0  0  0  0  0  0  0  0  0
  137.5980   71.8470  222.6280 C   0  0  0  0  0  0  0  0  0  0  0  0
  136.6050   72.4270  223.5050 N   0  0  0  0  0  0  0  0  0  0  0  0
  135.6600   71.6200  224.2170 C   0  0  0  0  0  0  0  0  0  0  0  0
  135.6490   70.3530  224.1200 O   0  0  0  0  0  0  0  0  0  0  0  0
  134.6650   72.2730  225.0910 C   0  0  0  0  0  0  0  0  0  0  0  0
  133.7580   71.5040  225.7880 C   0  0  0  0  0  0  0  0  0  0  0  0
  132.7980   72.0330  226.6250 C   0  0  0  0  0  0  0  0  0  0  0  0
  132.7640   73.4030  226.7540 C   0  0  0  0  0  0  0  0  0  0  0  0
  131.8080   73.9480  227.5880 C   0  0  0  0  0  0  0  0  0  0  0  0
  131.7640   75.3380  227.7280 C   0  0  0  0  0  0  0  0  0  0  0  0
  132.6730   76.1090  227.0280 C   0  0  0  0  0  0  0  0  0  0  0  0
  133.6250   75.5600  226.1980 C   0  0  0  0  0  0  0  0  0  0  0  0
  134.5020   76.3710  225.5280 F   0  0  0  0  0  0  0  0  0  0  0  0
  133.6760   74.1820  226.0540 C   0  0  0  0  0  0  0  0  0  0  0  0
  134.6060   73.6040  225.2390 N   0  0  0  0  0  0  0  0  0  0  0  0
  140.2600   70.3320  225.9780 C   0  0  0  0  0  0  0  0  0  0  0  0
  139.9200   69.9650  227.2640 C   0  0  0  0  0  0  0  0  0  0  0  0
  140.3520   70.7390  228.3400 C   0  0  0  0  0  0  0  0  0  0  0  0
  141.1170   71.8720  228.1570 C   0  0  0  0  0  0  0  0  0  0  0  0
  141.4590   72.2430  226.8740 C   0  0  0  0  0  0  0  0  0  0  0  0
  141.0250   71.4680  225.8190 C   0  0  0  0  0  0  0  0  0  0  0  0
  139.5185   68.1373  226.4678 H   0  0  0  0  0  0  0  0  0  0  0  0
  138.5289   67.7790  225.0121 H   0  0  0  0  0  0  0  0  0  0  0  0
  140.2890   67.4202  225.0121 H   0  0  0  0  0  0  0  0  0  0  0  0
  140.5676   69.4486  224.0509 H   0  0  0  0  0  0  0  0  0  0  0  0
  137.6860   69.6940  224.4380 H   0  0  0  0  0  0  0  0  0  0  0  0
  138.0129   72.6520  222.0036 H   0  0  0  0  0  0  0  0  0  0  0  0
  137.0788   71.0677  222.0508 H   0  0  0  0  0  0  0  0  0  0  0  0
  136.5240   73.4570  223.6650 H   0  0  0  0  0  0  0  0  0  0  0  0
  133.8022   70.4112  225.6705 H   0  0  0  0  0  0  0  0  0  0  0  0
  132.0901   71.3880  227.1661 H   0  0  0  0  0  0  0  0  0  0  0  0
  131.0987   73.3043  228.1288 H   0  0  0  0  0  0  0  0  0  0  0  0
  131.0184   75.8105  228.3843 H   0  0  0  0  0  0  0  0  0  0  0  0
  132.6345   77.2028  227.1381 H   0  0  0  0  0  0  0  0  0  0  0  0
  139.3110   69.0659  227.4393 H   0  0  0  0  0  0  0  0  0  0  0  0
  140.0756   70.4384  229.3614 H   0  0  0  0  0  0  0  0  0  0  0  0
  141.4484   72.4690  229.0194 H   0  0  0  0  0  0  0  0  0  0  0  0
  142.0675   73.1417  226.6949 H   0  0  0  0  0  0  0  0  0  0  0  0
  141.3033   71.7716  224.7990 H   0  0  0  0  0  0  0  0  0  0  0  0
  1  2  1  0
  2  3  1  0
  3  4  1  0
  4  5  2  0
  4  6  1  0
  6  7  1  0
  7  8  1  0
  8  9  2  0
  8 10  1  0
 10 11  2  0
 11 12  1  0
 12 13  2  0
 13 14  1  0
 14 15  2  0
 15 16  1  0
 16 17  2  0
 17 18  1  0
 17 19  1  0
 19 20  2  0
  2 21  1  0
 21 22  2  0
 22 23  1  0
 23 24  2  0
 24 25  1  0
 25 26  2  0
 20 10  1  0
 26 21  1  0
 19 13  1  0
  1 27  1  0
  1 28  1  0
  1 29  1  0
  2 30  1  6
  3 31  1  0
  6 32  1  0
  6 33  1  0
  7 34  1  0
 11 35  1  0
 12 36  1  0
 14 37  1  0
 15 38  1  0
 16 39  1  0
 22 40  1  0
 23 41  1  0
 24 42  1  0
 25 43  1  0
 26 44  1  0
M  END
>  <smiles>  (35) 
C[C@@H](NC(=O)CNC(=O)c1ccc2cccc(F)c2n1)c1ccccc1

>  <score_type>  (35) 
oracle

>  <origin>  (35) 
autodockgpu

>  <m_score__min__energy>  (35) 
-8.8200000000000003

>  <m_primary>  (35) 
energy

>  <rmsd>  (35) 
9.963219650678864

>  <m_score__min__rmsd>  (35) 
9.963219650678864

>  <meeko>  (35) 
{"free_energy": -7.7, "intermolecular_energy": -9.2, "internal_energy": -2.02, "cluster_size": 13, "cluster_id": 2, "rank_in_cluster": 7}

>  <energy>  (35) 
-7.78

>  <cluster_rmsd>  (35) 
0.03

>  <cluster>  (35) 
4

$$$$

     RDKit          3D

 44 46  0  0  0  0  0  0  0  0999 V2000
  139.5380   68.1270  225.4020 C   0  0  0  0  0  0  0  0  0  0  0  0
  139.8170   69.5120  224.8570 C   0  0  1  0  0  0  0  0  0  0  0  0
  138.6320   70.1070  224.2340 N   0  0  0  0  0  0  0  0  0  0  0  0
  138.7230   71.1520  223.2960 C   0  0  0  0  0  0  0  0  0  0  0  0
  139.9000   71.5550  223.0060 O   0  0  0  0  0  0  0  0  0  0  0  0
  137.6060   71.8150  222.6210 C   0  0  0  0  0  0  0  0  0  0  0  0
  136.6360   72.4300  223.5000 N   0  0  0  0  0  0  0  0  0  0  0  0
  135.6920   71.6540  224.2480 C   0  0  0  0  0  0  0  0  0  0  0  0
  135.6630   70.3860  224.1840 O   0  0  0  0  0  0  0  0  0  0  0  0
  134.7220   72.3420  225.1230 C   0  0  0  0  0  0  0  0  0  0  0  0
  133.8350   71.6020  225.8760 C   0  0  0  0  0  0  0  0  0  0  0  0
  132.8990   72.1650  226.7170 C   0  0  0  0  0  0  0  0  0  0  0  0
  132.8660   73.5390  226.7910 C   0  0  0  0  0  0  0  0  0  0  0  0
  131.9340   74.1180  227.6290 C   0  0  0  0  0  0  0  0  0  0  0  0
  131.8910   75.5120  227.7120 C   0  0  0  0  0  0  0  0  0  0  0  0
  132.7800   76.2540  226.9560 C   0  0  0  0  0  0  0  0  0  0  0  0
  133.7090   75.6720  226.1230 C   0  0  0  0  0  0  0  0  0  0  0  0
  134.5660   76.4540  225.3960 F   0  0  0  0  0  0  0  0  0  0  0  0
  133.7580   74.2890  226.0340 C   0  0  0  0  0  0  0  0  0  0  0  0
  134.6650   73.6780  225.2170 N   0  0  0  0  0  0  0  0  0  0  0  0
  140.2910   70.3470  225.9930 C   0  0  0  0  0  0  0  0  0  0  0  0
  139.9490   69.9960  227.2830 C   0  0  0  0  0  0  0  0  0  0  0  0
  140.3910   70.7750  228.3510 C   0  0  0  0  0  0  0  0  0  0  0  0
  141.1670   71.8990  228.1560 C   0  0  0  0  0  0  0  0  0  0  0  0
  141.5110   72.2540  226.8690 C   0  0  0  0  0  0  0  0  0  0  0  0
  141.0670   71.4740  225.8220 C   0  0  0  0  0  0  0  0  0  0  0  0
  139.5441   68.1575  226.5016 H   0  0  0  0  0  0  0  0  0  0  0  0
  138.5531   67.7861  225.0502 H   0  0  0  0  0  0  0  0  0  0  0  0
  140.3140   67.4313  225.0502 H   0  0  0  0  0  0  0  0  0  0  0  0
  140.5800   69.4522  224.0669 H   0  0  0  0  0  0  0  0  0  0  0  0
  137.7020   69.7240  224.5030 H   0  0  0  0  0  0  0  0  0  0  0  0
  138.0188   72.5980  221.9679 H   0  0  0  0  0  0  0  0  0  0  0  0
  137.0675   71.0272  222.0738 H   0  0  0  0  0  0  0  0  0  0  0  0
  136.5710   73.4650  223.6360 H   0  0  0  0  0  0  0  0  0  0  0  0
  133.8765   70.5053  225.8018 H   0  0  0  0  0  0  0  0  0  0  0  0
  132.2077   71.5425  227.3041 H   0  0  0  0  0  0  0  0  0  0  0  0
  131.2422   73.4969  228.2170 H   0  0  0  0  0  0  0  0  0  0  0  0
  131.1622   76.0110  228.3677 H   0  0  0  0  0  0  0  0  0  0  0  0
  132.7435   77.3514  227.0227 H   0  0  0  0  0  0  0  0  0  0  0  0
  139.3303   69.1054  227.4676 H   0  0  0  0  0  0  0  0  0  0  0  0
  140.1140   70.4862  229.3756 H   0  0  0  0  0  0  0  0  0  0  0  0
  141.5052   72.5012  229.0122 H   0  0  0  0  0  0  0  0  0  0  0  0
  142.1291   73.1442  226.6805 H   0  0  0  0  0  0  0  0  0  0  0  0
  141.3460   71.7656  224.7987 H   0  0  0  0  0  0  0  0  0  0  0  0
  1  2  1  0
  2  3  1  0
  3  4  1  0
  4  5  2  0
  4  6  1  0
  6  7  1  0
  7  8  1  0
  8  9  2  0
  8 10  1  0
 10 11  2  0
 11 12  1  0
 12 13  2  0
 13 14  1  0
 14 15  2  0
 15 16  1  0
 16 17  2  0
 17 18  1  0
 17 19  1  0
 19 20  2  0
  2 21  1  0
 21 22  2  0
 22 23  1  0
 23 24  2  0
 24 25  1  0
 25 26  2  0
 20 10  1  0
 26 21  1  0
 19 13  1  0
  1 27  1  0
  1 28  1  0
  1 29  1  0
  2 30  1  6
  3 31  1  0
  6 32  1  0
  6 33  1  0
  7 34  1  0
 11 35  1  0
 12 36  1  0
 14 37  1  0
 15 38  1  0
 16 39  1  0
 22 40  1  0
 23 41  1  0
 24 42  1  0
 25 43  1  0
 26 44  1  0
M  END
>  <smiles>  (36) 
C[C@@H](NC(=O)CNC(=O)c1ccc2cccc(F)c2n1)c1ccccc1

>  <score_type>  (36) 
oracle

>  <origin>  (36) 
autodockgpu

>  <m_score__min__energy>  (36) 
-8.8200000000000003

>  <m_primary>  (36) 
energy

>  <rmsd>  (36) 
9.949165017928946

>  <m_score__min__rmsd>  (36) 
9.949165017928946

>  <meeko>  (36) 
{"free_energy": -7.69, "intermolecular_energy": -9.18, "internal_energy": -2.03, "cluster_size": 13, "cluster_id": 2, "rank_in_cluster": 11}

>  <energy>  (36) 
-7.77

>  <cluster_rmsd>  (36) 
0.05

>  <cluster>  (36) 
4

$$$$

     RDKit          3D

 44 46  0  0  0  0  0  0  0  0999 V2000
  137.7810   71.5490  223.5310 C   0  0  0  0  0  0  0  0  0  0  0  0
  139.2720   71.3060  223.4320 C   0  0  1  0  0  0  0  0  0  0  0  0
  139.9700   72.4260  222.7970 N   0  0  0  0  0  0  0  0  0  0  0  0
  140.9100   72.2380  221.7670 C   0  0  0  0  0  0  0  0  0  0  0  0
  141.1210   71.0310  221.4040 O   0  0  0  0  0  0  0  0  0  0  0  0
  141.6630   73.2840  221.0730 C   0  0  0  0  0  0  0  0  0  0  0  0
  141.4560   74.6250  221.5750 N   0  0  0  0  0  0  0  0  0  0  0  0
  140.1470   75.1900  221.7090 C   0  0  0  0  0  0  0  0  0  0  0  0
  139.0990   74.5410  221.4010 O   0  0  0  0  0  0  0  0  0  0  0  0
  140.0030   76.5680  222.2210 C   0  0  0  0  0  0  0  0  0  0  0  0
  138.7530   77.0500  222.5460 C   0  0  0  0  0  0  0  0  0  0  0  0
  138.5320   78.3220  223.0310 C   0  0  0  0  0  0  0  0  0  0  0  0
  139.6320   79.1330  223.1890 C   0  0  0  0  0  0  0  0  0  0  0  0
  139.4270   80.4100  223.6730 C   0  0  0  0  0  0  0  0  0  0  0  0
  140.5360   81.2440  223.8370 C   0  0  0  0  0  0  0  0  0  0  0  0
  141.7890   80.7610  223.5110 C   0  0  0  0  0  0  0  0  0  0  0  0
  141.9890   79.4860  223.0300 C   0  0  0  0  0  0  0  0  0  0  0  0
  143.2530   79.0580  222.7220 F   0  0  0  0  0  0  0  0  0  0  0  0
  140.8940   78.6520  222.8630 C   0  0  0  0  0  0  0  0  0  0  0  0
  141.0540   77.3830  222.3870 N   0  0  0  0  0  0  0  0  0  0  0  0
  139.7770   71.0840  224.8120 C   0  0  0  0  0  0  0  0  0  0  0  0
  139.2980   70.0200  225.5490 C   0  0  0  0  0  0  0  0  0  0  0  0
  139.7680   69.8080  226.8440 C   0  0  0  0  0  0  0  0  0  0  0  0
  140.7080   70.6390  227.4180 C   0  0  0  0  0  0  0  0  0  0  0  0
  141.1890   71.7040  226.6870 C   0  0  0  0  0  0  0  0  0  0  0  0
  140.7160   71.9010  225.4080 C   0  0  0  0  0  0  0  0  0  0  0  0
  137.4868   71.5969  224.5899 H   0  0  0  0  0  0  0  0  0  0  0  0
  137.5309   72.4998  223.0375 H   0  0  0  0  0  0  0  0  0  0  0  0
  137.2419   70.7269  223.0375 H   0  0  0  0  0  0  0  0  0  0  0  0
  139.4627   70.4278  222.7977 H   0  0  0  0  0  0  0  0  0  0  0  0
  139.7440   73.3870  223.1290 H   0  0  0  0  0  0  0  0  0  0  0  0
  142.7339   73.0486  221.1614 H   0  0  0  0  0  0  0  0  0  0  0  0
  141.2990   73.2859  220.0350 H   0  0  0  0  0  0  0  0  0  0  0  0
  142.2440   75.2480  221.8650 H   0  0  0  0  0  0  0  0  0  0  0  0
  137.8868   76.3855  222.4115 H   0  0  0  0  0  0  0  0  0  0  0  0
  137.5198   78.6730  223.2807 H   0  0  0  0  0  0  0  0  0  0  0  0
  138.4154   80.7620  223.9233 H   0  0  0  0  0  0  0  0  0  0  0  0
  140.4137   82.2682  224.2193 H   0  0  0  0  0  0  0  0  0  0  0  0
  142.6601   81.4201  223.6406 H   0  0  0  0  0  0  0  0  0  0  0  0
  138.5480   69.3417  225.1160 H   0  0  0  0  0  0  0  0  0  0  0  0
  139.3798   68.9569  227.4228 H   0  0  0  0  0  0  0  0  0  0  0  0
  141.0673   70.4548  228.4412 H   0  0  0  0  0  0  0  0  0  0  0  0
  141.9378   72.3851  227.1175 H   0  0  0  0  0  0  0  0  0  0  0  0
  141.1069   72.7531  224.8325 H   0  0  0  0  0  0  0  0  0  0  0  0
  1  2  1  0
  2  3  1  0
  3  4  1  0
  4  5  2  0
  4  6  1  0
  6  7  1  0
  7  8  1  0
  8  9  2  0
  8 10  1  0
 10 11  2  0
 11 12  1  0
 12 13  2  0
 13 14  1  0
 14 15  2  0
 15 16  1  0
 16 17  2  0
 17 18  1  0
 17 19  1  0
 19 20  2  0
  2 21  1  0
 21 22  2  0
 22 23  1  0
 23 24  2  0
 24 25  1  0
 25 26  2  0
 20 10  1  0
 26 21  1  0
 19 13  1  0
  1 27  1  0
  1 28  1  0
  1 29  1  0
  2 30  1  6
  3 31  1  0
  6 32  1  0
  6 33  1  0
  7 34  1  0
 11 35  1  0
 12 36  1  0
 14 37  1  0
 15 38  1  0
 16 39  1  0
 22 40  1  0
 23 41  1  0
 24 42  1  0
 25 43  1  0
 26 44  1  0
M  END
>  <smiles>  (37) 
C[C@@H](NC(=O)CNC(=O)c1ccc2cccc(F)c2n1)c1ccccc1

>  <score_type>  (37) 
oracle

>  <origin>  (37) 
autodockgpu

>  <m_score__min__energy>  (37) 
-8.8200000000000003

>  <m_primary>  (37) 
energy

>  <rmsd>  (37) 
9.565395404581896

>  <m_score__min__rmsd>  (37) 
9.565395404581896

>  <meeko>  (37) 
{"free_energy": -7.78, "intermolecular_energy": -9.27, "internal_energy": -1.92, "cluster_size": 21, "cluster_id": 4, "rank_in_cluster": 7}

>  <energy>  (37) 
-7.77

>  <cluster_rmsd>  (37) 
0.04

>  <cluster>  (37) 
4

$$$$

     RDKit          3D

 44 46  0  0  0  0  0  0  0  0999 V2000
  137.7300   71.5810  223.5030 C   0  0  0  0  0  0  0  0  0  0  0  0
  139.2170   71.3170  223.3850 C   0  0  1  0  0  0  0  0  0  0  0  0
  139.9260   72.4390  222.7660 N   0  0  0  0  0  0  0  0  0  0  0  0
  140.8950   72.2510  221.7610 C   0  0  0  0  0  0  0  0  0  0  0  0
  141.1210   71.0450  221.4090 O   0  0  0  0  0  0  0  0  0  0  0  0
  141.6600   73.2990  221.0840 C   0  0  0  0  0  0  0  0  0  0  0  0
  141.4510   74.6380  221.5910 N   0  0  0  0  0  0  0  0  0  0  0  0
  140.1420   75.2100  221.7010 C   0  0  0  0  0  0  0  0  0  0  0  0
  139.0980   74.5690  221.3650 O   0  0  0  0  0  0  0  0  0  0  0  0
  139.9960   76.5850  222.2190 C   0  0  0  0  0  0  0  0  0  0  0  0
  138.7440   77.0640  222.5420 C   0  0  0  0  0  0  0  0  0  0  0  0
  138.5200   78.3340  223.0320 C   0  0  0  0  0  0  0  0  0  0  0  0
  139.6190   79.1460  223.1970 C   0  0  0  0  0  0  0  0  0  0  0  0
  139.4110   80.4200  223.6860 C   0  0  0  0  0  0  0  0  0  0  0  0
  140.5180   81.2540  223.8580 C   0  0  0  0  0  0  0  0  0  0  0  0
  141.7730   80.7730  223.5340 C   0  0  0  0  0  0  0  0  0  0  0  0
  141.9760   79.5020  223.0470 C   0  0  0  0  0  0  0  0  0  0  0  0
  143.2410   79.0760  222.7410 F   0  0  0  0  0  0  0  0  0  0  0  0
  140.8820   78.6670  222.8730 C   0  0  0  0  0  0  0  0  0  0  0  0
  141.0450   77.4010  222.3920 N   0  0  0  0  0  0  0  0  0  0  0  0
  139.7310   71.0610  224.7560 C   0  0  0  0  0  0  0  0  0  0  0  0
  140.6940   71.8940  225.2880 C   0  0  0  0  0  0  0  0  0  0  0  0
  141.1780   71.6580  226.5740 C   0  0  0  0  0  0  0  0  0  0  0  0
  140.7200   70.6050  227.3390 C   0  0  0  0  0  0  0  0  0  0  0  0
  139.7590   69.7700  226.8120 C   0  0  0  0  0  0  0  0  0  0  0  0
  139.2880   70.0150  225.5400 C   0  0  0  0  0  0  0  0  0  0  0  0
  137.4496   71.6308  224.5655 H   0  0  0  0  0  0  0  0  0  0  0  0
  137.4873   72.5363  223.0146 H   0  0  0  0  0  0  0  0  0  0  0  0
  137.1733   70.7676  223.0146 H   0  0  0  0  0  0  0  0  0  0  0  0
  139.3885   70.4486  222.7320 H   0  0  0  0  0  0  0  0  0  0  0  0
  139.6860   73.4000  223.0880 H   0  0  0  0  0  0  0  0  0  0  0  0
  142.7289   73.0596  221.1851 H   0  0  0  0  0  0  0  0  0  0  0  0
  141.3092   73.3086  220.0415 H   0  0  0  0  0  0  0  0  0  0  0  0
  142.2360   75.2540  221.9020 H   0  0  0  0  0  0  0  0  0  0  0  0
  137.8790   76.3991  222.4017 H   0  0  0  0  0  0  0  0  0  0  0  0
  137.5067   78.6827  223.2801 H   0  0  0  0  0  0  0  0  0  0  0  0
  138.3981   80.7698  223.9342 H   0  0  0  0  0  0  0  0  0  0  0  0
  140.3935   82.2762  224.2447 H   0  0  0  0  0  0  0  0  0  0  0  0
  142.6431   81.4319  223.6708 H   0  0  0  0  0  0  0  0  0  0  0  0
  141.0781   72.7406  224.7000 H   0  0  0  0  0  0  0  0  0  0  0  0
  141.9447   72.3285  226.9894 H   0  0  0  0  0  0  0  0  0  0  0  0
  141.1150   70.4352  228.3515 H   0  0  0  0  0  0  0  0  0  0  0  0
  139.3740   68.9217  227.3969 H   0  0  0  0  0  0  0  0  0  0  0  0
  138.5203   69.3430  225.1289 H   0  0  0  0  0  0  0  0  0  0  0  0
  1  2  1  0
  2  3  1  0
  3  4  1  0
  4  5  2  0
  4  6  1  0
  6  7  1  0
  7  8  1  0
  8  9  2  0
  8 10  1  0
 10 11  2  0
 11 12  1  0
 12 13  2  0
 13 14  1  0
 14 15  2  0
 15 16  1  0
 16 17  2  0
 17 18  1  0
 17 19  1  0
 19 20  2  0
  2 21  1  0
 21 22  2  0
 22 23  1  0
 23 24  2  0
 24 25  1  0
 25 26  2  0
 20 10  1  0
 26 21  1  0
 19 13  1  0
  1 27  1  0
  1 28  1  0
  1 29  1  0
  2 30  1  6
  3 31  1  0
  6 32  1  0
  6 33  1  0
  7 34  1  0
 11 35  1  0
 12 36  1  0
 14 37  1  0
 15 38  1  0
 16 39  1  0
 22 40  1  0
 23 41  1  0
 24 42  1  0
 25 43  1  0
 26 44  1  0
M  END
>  <smiles>  (38) 
C[C@@H](NC(=O)CNC(=O)c1ccc2cccc(F)c2n1)c1ccccc1

>  <score_type>  (38) 
oracle

>  <origin>  (38) 
autodockgpu

>  <m_score__min__energy>  (38) 
-8.8200000000000003

>  <m_primary>  (38) 
energy

>  <rmsd>  (38) 
9.71730831483205

>  <m_score__min__rmsd>  (38) 
9.71730831483205

>  <meeko>  (38) 
{"free_energy": -7.74, "intermolecular_energy": -9.23, "internal_energy": -1.94, "cluster_size": 21, "cluster_id": 4, "rank_in_cluster": 18}

>  <energy>  (38) 
-7.77

>  <cluster_rmsd>  (38) 
0.08

>  <cluster>  (38) 
4

$$$$

     RDKit          3D

 44 46  0  0  0  0  0  0  0  0999 V2000
  137.7660   71.5400  223.4760 C   0  0  0  0  0  0  0  0  0  0  0  0
  139.2570   71.2890  223.3960 C   0  0  1  0  0  0  0  0  0  0  0  0
  139.9700   72.4100  222.7800 N   0  0  0  0  0  0  0  0  0  0  0  0
  140.9050   72.2260  221.7440 C   0  0  0  0  0  0  0  0  0  0  0  0
  141.0980   71.0230  221.3600 O   0  0  0  0  0  0  0  0  0  0  0  0
  141.6720   73.2730  221.0670 C   0  0  0  0  0  0  0  0  0  0  0  0
  141.4490   74.6140  221.5620 N   0  0  0  0  0  0  0  0  0  0  0  0
  140.1330   75.1650  221.6890 C   0  0  0  0  0  0  0  0  0  0  0  0
  139.0940   74.5040  221.3810 O   0  0  0  0  0  0  0  0  0  0  0  0
  139.9730   76.5440  222.1930 C   0  0  0  0  0  0  0  0  0  0  0  0
  138.7160   77.0160  222.5070 C   0  0  0  0  0  0  0  0  0  0  0  0
  138.4790   78.2880  222.9830 C   0  0  0  0  0  0  0  0  0  0  0  0
  139.5700   79.1110  223.1450 C   0  0  0  0  0  0  0  0  0  0  0  0
  139.3500   80.3880  223.6210 C   0  0  0  0  0  0  0  0  0  0  0  0
  140.4490   81.2330  223.7900 C   0  0  0  0  0  0  0  0  0  0  0  0
  141.7100   80.7600  223.4750 C   0  0  0  0  0  0  0  0  0  0  0  0
  141.9250   79.4850  223.0020 C   0  0  0  0  0  0  0  0  0  0  0  0
  143.1950   79.0670  222.7060 F   0  0  0  0  0  0  0  0  0  0  0  0
  140.8390   78.6400  222.8310 C   0  0  0  0  0  0  0  0  0  0  0  0
  141.0150   77.3700  222.3630 N   0  0  0  0  0  0  0  0  0  0  0  0
  139.7400   71.0540  224.7820 C   0  0  0  0  0  0  0  0  0  0  0  0
  140.7030   71.8860  225.3160 C   0  0  0  0  0  0  0  0  0  0  0  0
  141.1600   71.6700  226.6150 C   0  0  0  0  0  0  0  0  0  0  0  0
  140.6740   70.6380  227.3920 C   0  0  0  0  0  0  0  0  0  0  0  0
  139.7120   69.8040  226.8630 C   0  0  0  0  0  0  0  0  0  0  0  0
  139.2690   70.0300  225.5770 C   0  0  0  0  0  0  0  0  0  0  0  0
  137.4590   71.5917  224.5310 H   0  0  0  0  0  0  0  0  0  0  0  0
  137.5270   72.4910  222.9776 H   0  0  0  0  0  0  0  0  0  0  0  0
  137.2288   70.7197  222.9776 H   0  0  0  0  0  0  0  0  0  0  0  0
  139.4525   70.4148  222.7576 H   0  0  0  0  0  0  0  0  0  0  0  0
  139.7590   73.3680  223.1290 H   0  0  0  0  0  0  0  0  0  0  0  0
  142.7410   73.0407  221.1819 H   0  0  0  0  0  0  0  0  0  0  0  0
  141.3338   73.2725  220.0203 H   0  0  0  0  0  0  0  0  0  0  0  0
  142.2300   75.2470  221.8500 H   0  0  0  0  0  0  0  0  0  0  0  0
  137.8573   76.3422  222.3705 H   0  0  0  0  0  0  0  0  0  0  0  0
  137.4616   78.6304  223.2230 H   0  0  0  0  0  0  0  0  0  0  0  0
  138.3332   80.7318  223.8615 H   0  0  0  0  0  0  0  0  0  0  0  0
  140.3140   82.2574  224.1672 H   0  0  0  0  0  0  0  0  0  0  0  0
  142.5739   81.4279  223.6074 H   0  0  0  0  0  0  0  0  0  0  0  0
  141.1082   72.7162  224.7189 H   0  0  0  0  0  0  0  0  0  0  0  0
  141.9275   72.3390  227.0314 H   0  0  0  0  0  0  0  0  0  0  0  0
  141.0475   70.4837  228.4151 H   0  0  0  0  0  0  0  0  0  0  0  0
  139.3048   68.9724  227.4568 H   0  0  0  0  0  0  0  0  0  0  0  0
  138.5009   69.3596  225.1641 H   0  0  0  0  0  0  0  0  0  0  0  0
  1  2  1  0
  2  3  1  0
  3  4  1  0
  4  5  2  0
  4  6  1  0
  6  7  1  0
  7  8  1  0
  8  9  2  0
  8 10  1  0
 10 11  2  0
 11 12  1  0
 12 13  2  0
 13 14  1  0
 14 15  2  0
 15 16  1  0
 16 17  2  0
 17 18  1  0
 17 19  1  0
 19 20  2  0
  2 21  1  0
 21 22  2  0
 22 23  1  0
 23 24  2  0
 24 25  1  0
 25 26  2  0
 20 10  1  0
 26 21  1  0
 19 13  1  0
  1 27  1  0
  1 28  1  0
  1 29  1  0
  2 30  1  6
  3 31  1  0
  6 32  1  0
  6 33  1  0
  7 34  1  0
 11 35  1  0
 12 36  1  0
 14 37  1  0
 15 38  1  0
 16 39  1  0
 22 40  1  0
 23 41  1  0
 24 42  1  0
 25 43  1  0
 26 44  1  0
M  END
>  <smiles>  (39) 
C[C@@H](NC(=O)CNC(=O)c1ccc2cccc(F)c2n1)c1ccccc1

>  <score_type>  (39) 
oracle

>  <origin>  (39) 
autodockgpu

>  <m_score__min__energy>  (39) 
-8.8200000000000003

>  <m_primary>  (39) 
energy

>  <rmsd>  (39) 
9.713514477780727

>  <m_score__min__rmsd>  (39) 
9.713514477780727

>  <meeko>  (39) 
{"free_energy": -7.75, "intermolecular_energy": -9.24, "internal_energy": -1.91, "cluster_size": 21, "cluster_id": 4, "rank_in_cluster": 16}

>  <energy>  (39) 
-7.76

>  <cluster_rmsd>  (39) 
0.04

>  <cluster>  (39) 
4

$$$$

     RDKit          3D

 44 46  0  0  0  0  0  0  0  0999 V2000
  137.8040   71.5340  223.5760 C   0  0  0  0  0  0  0  0  0  0  0  0
  139.2970   71.2950  223.4930 C   0  0  1  0  0  0  0  0  0  0  0  0
  139.9980   72.4130  222.8570 N   0  0  0  0  0  0  0  0  0  0  0  0
  140.8840   72.2280  221.7790 C   0  0  0  0  0  0  0  0  0  0  0  0
  141.0420   71.0270  221.3740 O   0  0  0  0  0  0  0  0  0  0  0  0
  141.6340   73.2720  221.0790 C   0  0  0  0  0  0  0  0  0  0  0  0
  141.4240   74.6150  221.5740 N   0  0  0  0  0  0  0  0  0  0  0  0
  140.1100   75.1580  221.7570 C   0  0  0  0  0  0  0  0  0  0  0  0
  139.0630   74.4860  221.5010 O   0  0  0  0  0  0  0  0  0  0  0  0
  139.9630   76.5390  222.2580 C   0  0  0  0  0  0  0  0  0  0  0  0
  138.7120   77.0180  222.5850 C   0  0  0  0  0  0  0  0  0  0  0  0
  138.4870   78.2930  223.0600 C   0  0  0  0  0  0  0  0  0  0  0  0
  139.5830   79.1110  223.2040 C   0  0  0  0  0  0  0  0  0  0  0  0
  139.3740   80.3910  223.6780 C   0  0  0  0  0  0  0  0  0  0  0  0
  140.4800   81.2320  223.8300 C   0  0  0  0  0  0  0  0  0  0  0  0
  141.7340   80.7520  223.5010 C   0  0  0  0  0  0  0  0  0  0  0  0
  141.9380   79.4750  223.0290 C   0  0  0  0  0  0  0  0  0  0  0  0
  143.2020   79.0500  222.7180 F   0  0  0  0  0  0  0  0  0  0  0  0
  140.8460   78.6340  222.8760 C   0  0  0  0  0  0  0  0  0  0  0  0
  141.0100   77.3610  222.4100 N   0  0  0  0  0  0  0  0  0  0  0  0
  139.7890   71.0850  224.8800 C   0  0  0  0  0  0  0  0  0  0  0  0
  139.2510   70.0710  225.6450 C   0  0  0  0  0  0  0  0  0  0  0  0
  139.7090   69.8700  226.9470 C   0  0  0  0  0  0  0  0  0  0  0  0
  140.6950   70.6620  227.4990 C   0  0  0  0  0  0  0  0  0  0  0  0
  141.2350   71.6770  226.7380 C   0  0  0  0  0  0  0  0  0  0  0  0
  140.7730   71.8640  225.4530 C   0  0  0  0  0  0  0  0  0  0  0  0
  137.4986   71.5829  224.6316 H   0  0  0  0  0  0  0  0  0  0  0  0
  137.5564   72.4832  223.0783 H   0  0  0  0  0  0  0  0  0  0  0  0
  137.2725   70.7095  223.0783 H   0  0  0  0  0  0  0  0  0  0  0  0
  139.4966   70.4130  222.8667 H   0  0  0  0  0  0  0  0  0  0  0  0
  139.8160   73.3700  223.2250 H   0  0  0  0  0  0  0  0  0  0  0  0
  142.7055   73.0397  221.1679 H   0  0  0  0  0  0  0  0  0  0  0  0
  141.2695   73.2675  220.0411 H   0  0  0  0  0  0  0  0  0  0  0  0
  142.2110   75.2560  221.8210 H   0  0  0  0  0  0  0  0  0  0  0  0
  137.8484   76.3481  222.4605 H   0  0  0  0  0  0  0  0  0  0  0  0
  137.4745   78.6407  223.3128 H   0  0  0  0  0  0  0  0  0  0  0  0
  138.3618   80.7403  223.9298 H   0  0  0  0  0  0  0  0  0  0  0  0
  140.3547   82.2585  224.2051 H   0  0  0  0  0  0  0  0  0  0  0  0
  142.6025   81.4163  223.6210 H   0  0  0  0  0  0  0  0  0  0  0  0
  138.4643   69.4238  225.2300 H   0  0  0  0  0  0  0  0  0  0  0  0
  139.2730   69.0593  227.5493 H   0  0  0  0  0  0  0  0  0  0  0  0
  141.0438   70.4867  228.5274 H   0  0  0  0  0  0  0  0  0  0  0  0
  142.0214   72.3267  227.1496 H   0  0  0  0  0  0  0  0  0  0  0  0
  141.2112   72.6757  224.8537 H   0  0  0  0  0  0  0  0  0  0  0  0
  1  2  1  0
  2  3  1  0
  3  4  1  0
  4  5  2  0
  4  6  1  0
  6  7  1  0
  7  8  1  0
  8  9  2  0
  8 10  1  0
 10 11  2  0
 11 12  1  0
 12 13  2  0
 13 14  1  0
 14 15  2  0
 15 16  1  0
 16 17  2  0
 17 18  1  0
 17 19  1  0
 19 20  2  0
  2 21  1  0
 21 22  2  0
 22 23  1  0
 23 24  2  0
 24 25  1  0
 25 26  2  0
 20 10  1  0
 26 21  1  0
 19 13  1  0
  1 27  1  0
  1 28  1  0
  1 29  1  0
  2 30  1  6
  3 31  1  0
  6 32  1  0
  6 33  1  0
  7 34  1  0
 11 35  1  0
 12 36  1  0
 14 37  1  0
 15 38  1  0
 16 39  1  0
 22 40  1  0
 23 41  1  0
 24 42  1  0
 25 43  1  0
 26 44  1  0
M  END
>  <smiles>  (40) 
C[C@@H](NC(=O)CNC(=O)c1ccc2cccc(F)c2n1)c1ccccc1

>  <score_type>  (40) 
oracle

>  <origin>  (40) 
autodockgpu

>  <m_score__min__energy>  (40) 
-8.8200000000000003

>  <m_primary>  (40) 
energy

>  <rmsd>  (40) 
9.562808394476738

>  <m_score__min__rmsd>  (40) 
9.562808394476738

>  <meeko>  (40) 
{"free_energy": -7.77, "intermolecular_energy": -9.26, "internal_energy": -1.9, "cluster_size": 21, "cluster_id": 4, "rank_in_cluster": 10}

>  <energy>  (40) 
-7.75

>  <cluster_rmsd>  (40) 
0.09

>  <cluster>  (40) 
4

$$$$

     RDKit          3D

 44 46  0  0  0  0  0  0  0  0999 V2000
  140.4300   67.3940  226.2340 C   0  0  0  0  0  0  0  0  0  0  0  0
  139.7960   68.5940  225.5630 C   0  0  1  0  0  0  0  0  0  0  0  0
  138.3350   68.4950  225.5280 N   0  0  0  0  0  0  0  0  0  0  0  0
  137.5500   69.2860  224.6690 C   0  0  0  0  0  0  0  0  0  0  0  0
  138.1800   70.0980  223.9100 O   0  0  0  0  0  0  0  0  0  0  0  0
  136.0900   69.2680  224.5590 C   0  0  0  0  0  0  0  0  0  0  0  0
  135.4250   70.4700  225.0120 N   0  0  0  0  0  0  0  0  0  0  0  0
  134.3640   70.4310  225.9740 C   0  0  0  0  0  0  0  0  0  0  0  0
  133.9570   69.3410  226.4830 O   0  0  0  0  0  0  0  0  0  0  0  0
  133.7190   71.6930  226.3890 C   0  0  0  0  0  0  0  0  0  0  0  0
  132.5580   71.6560  227.1310 C   0  0  0  0  0  0  0  0  0  0  0  0
  131.8930   72.7850  227.5600 C   0  0  0  0  0  0  0  0  0  0  0  0
  132.4370   74.0020  227.2160 C   0  0  0  0  0  0  0  0  0  0  0  0
  131.7830   75.1430  227.6380 C   0  0  0  0  0  0  0  0  0  0  0  0
  132.3260   76.3840  227.2940 C   0  0  0  0  0  0  0  0  0  0  0  0
  133.4900   76.4210  226.5500 C   0  0  0  0  0  0  0  0  0  0  0  0
  134.1390   75.2810  226.1320 C   0  0  0  0  0  0  0  0  0  0  0  0
  135.2900   75.3750  225.3960 F   0  0  0  0  0  0  0  0  0  0  0  0
  133.6070   74.0450  226.4680 C   0  0  0  0  0  0  0  0  0  0  0  0
  134.2230   72.8940  226.0710 N   0  0  0  0  0  0  0  0  0  0  0  0
  140.2240   69.8010  226.3190 C   0  0  0  0  0  0  0  0  0  0  0  0
  139.7890   69.9800  227.6160 C   0  0  0  0  0  0  0  0  0  0  0  0
  140.1870   71.1110  228.3280 C   0  0  0  0  0  0  0  0  0  0  0  0
  141.0120   72.0650  227.7700 C   0  0  0  0  0  0  0  0  0  0  0  0
  141.4490   71.8910  226.4740 C   0  0  0  0  0  0  0  0  0  0  0  0
  141.0470   70.7690  225.7820 C   0  0  0  0  0  0  0  0  0  0  0  0
  140.3688   67.5098  227.3262 H   0  0  0  0  0  0  0  0  0  0  0  0
  139.8968   66.4806  225.9317 H   0  0  0  0  0  0  0  0  0  0  0  0
  141.4850   67.3197  225.9317 H   0  0  0  0  0  0  0  0  0  0  0  0
  140.1247   68.6489  224.5147 H   0  0  0  0  0  0  0  0  0  0  0  0
  137.8810   67.8040  226.1620 H   0  0  0  0  0  0  0  0  0  0  0  0
  135.8300   69.1128  223.5015 H   0  0  0  0  0  0  0  0  0  0  0  0
  135.7433   68.4592  225.2191 H   0  0  0  0  0  0  0  0  0  0  0  0
  135.6800   71.4220  224.6640 H   0  0  0  0  0  0  0  0  0  0  0  0
  132.1398   70.6734  227.3949 H   0  0  0  0  0  0  0  0  0  0  0  0
  130.9680   72.7164  228.1514 H   0  0  0  0  0  0  0  0  0  0  0  0
  130.8582   75.0766  228.2299 H   0  0  0  0  0  0  0  0  0  0  0  0
  131.8349   77.3161  227.6103 H   0  0  0  0  0  0  0  0  0  0  0  0
  133.9146   77.3995  226.2813 H   0  0  0  0  0  0  0  0  0  0  0  0
  139.1313   69.2341  228.0862 H   0  0  0  0  0  0  0  0  0  0  0  0
  139.8339   71.2457  229.3611 H   0  0  0  0  0  0  0  0  0  0  0  0
  141.3161   72.9495  228.3490 H   0  0  0  0  0  0  0  0  0  0  0  0
  142.1070   72.6346  226.0006 H   0  0  0  0  0  0  0  0  0  0  0  0
  141.4005   70.6387  224.7485 H   0  0  0  0  0  0  0  0  0  0  0  0
  1  2  1  0
  2  3  1  0
  3  4  1  0
  4  5  2  0
  4  6  1  0
  6  7  1  0
  7  8  1  0
  8  9  2  0
  8 10  1  0
 10 11  2  0
 11 12  1  0
 12 13  2  0
 13 14  1  0
 14 15  2  0
 15 16  1  0
 16 17  2  0
 17 18  1  0
 17 19  1  0
 19 20  2  0
  2 21  1  0
 21 22  2  0
 22 23  1  0
 23 24  2  0
 24 25  1  0
 25 26  2  0
 20 10  1  0
 26 21  1  0
 19 13  1  0
  1 27  1  0
  1 28  1  0
  1 29  1  0
  2 30  1  6
  3 31  1  0
  6 32  1  0
  6 33  1  0
  7 34  1  0
 11 35  1  0
 12 36  1  0
 14 37  1  0
 15 38  1  0
 16 39  1  0
 22 40  1  0
 23 41  1  0
 24 42  1  0
 25 43  1  0
 26 44  1  0
M  END
>  <smiles>  (41) 
C[C@@H](NC(=O)CNC(=O)c1ccc2cccc(F)c2n1)c1ccccc1

>  <score_type>  (41) 
oracle

>  <origin>  (41) 
autodockgpu

>  <m_score__min__energy>  (41) 
-8.8200000000000003

>  <m_primary>  (41) 
energy

>  <rmsd>  (41) 
10.761149004416472

>  <m_score__min__rmsd>  (41) 
10.761149004416472

>  <meeko>  (41) 
{"free_energy": -8.53, "intermolecular_energy": -10.03, "internal_energy": -1.31, "cluster_size": 13, "cluster_id": 2, "rank_in_cluster": 3}

>  <energy>  (41) 
-7.75

>  <cluster_rmsd>  (41) 
0.13

>  <cluster>  (41) 
4

$$$$

     RDKit          3D

 44 46  0  0  0  0  0  0  0  0999 V2000
  137.7560   71.5470  223.5250 C   0  0  0  0  0  0  0  0  0  0  0  0
  139.2430   71.2930  223.3970 C   0  0  1  0  0  0  0  0  0  0  0  0
  139.9400   72.4200  222.7720 N   0  0  0  0  0  0  0  0  0  0  0  0
  140.8890   72.2390  221.7480 C   0  0  0  0  0  0  0  0  0  0  0  0
  141.1090   71.0350  221.3830 O   0  0  0  0  0  0  0  0  0  0  0  0
  141.6420   73.2920  221.0630 C   0  0  0  0  0  0  0  0  0  0  0  0
  141.4260   74.6300  221.5700 N   0  0  0  0  0  0  0  0  0  0  0  0
  140.1130   75.1880  221.6980 C   0  0  0  0  0  0  0  0  0  0  0  0
  139.0710   74.5360  221.3810 O   0  0  0  0  0  0  0  0  0  0  0  0
  139.9600   76.5630  222.2150 C   0  0  0  0  0  0  0  0  0  0  0  0
  138.7080   77.0320  222.5510 C   0  0  0  0  0  0  0  0  0  0  0  0
  138.4770   78.3000  223.0410 C   0  0  0  0  0  0  0  0  0  0  0  0
  139.5710   79.1220  223.1920 C   0  0  0  0  0  0  0  0  0  0  0  0
  139.3570   80.3960  223.6810 C   0  0  0  0  0  0  0  0  0  0  0  0
  140.4590   81.2400  223.8390 C   0  0  0  0  0  0  0  0  0  0  0  0
  141.7140   80.7700  223.5010 C   0  0  0  0  0  0  0  0  0  0  0  0
  141.9230   79.4990  223.0150 C   0  0  0  0  0  0  0  0  0  0  0  0
  143.1890   79.0840  222.6960 F   0  0  0  0  0  0  0  0  0  0  0  0
  140.8350   78.6550  222.8550 C   0  0  0  0  0  0  0  0  0  0  0  0
  141.0040   77.3880  222.3750 N   0  0  0  0  0  0  0  0  0  0  0  0
  139.7680   71.0420  224.7650 C   0  0  0  0  0  0  0  0  0  0  0  0
  139.3290   69.9400  225.4690 C   0  0  0  0  0  0  0  0  0  0  0  0
  139.8190   69.7000  226.7530 C   0  0  0  0  0  0  0  0  0  0  0  0
  140.7390   70.5400  227.3460 C   0  0  0  0  0  0  0  0  0  0  0  0
  141.1800   71.6430  226.6460 C   0  0  0  0  0  0  0  0  0  0  0  0
  140.6870   71.8680  225.3780 C   0  0  0  0  0  0  0  0  0  0  0  0
  137.4823   71.5938  224.5894 H   0  0  0  0  0  0  0  0  0  0  0  0
  137.5039   72.5012  223.0393 H   0  0  0  0  0  0  0  0  0  0  0  0
  137.2014   70.7306  223.0393 H   0  0  0  0  0  0  0  0  0  0  0  0
  139.4162   70.4251  222.7438 H   0  0  0  0  0  0  0  0  0  0  0  0
  139.7060   73.3780  223.1050 H   0  0  0  0  0  0  0  0  0  0  0  0
  142.7133   73.0609  221.1568 H   0  0  0  0  0  0  0  0  0  0  0  0
  141.2844   73.2971  220.0228 H   0  0  0  0  0  0  0  0  0  0  0  0
  142.2090   75.2550  221.8660 H   0  0  0  0  0  0  0  0  0  0  0  0
  137.8476   76.3590  222.4213 H   0  0  0  0  0  0  0  0  0  0  0  0
  137.4633   78.6398  223.2998 H   0  0  0  0  0  0  0  0  0  0  0  0
  138.3439   80.7376  223.9396 H   0  0  0  0  0  0  0  0  0  0  0  0
  140.3300   82.2616  224.2260 H   0  0  0  0  0  0  0  0  0  0  0  0
  142.5795   81.4374  223.6252 H   0  0  0  0  0  0  0  0  0  0  0  0
  138.5959   69.2536  225.0201 H   0  0  0  0  0  0  0  0  0  0  0  0
  139.4628   68.8187  227.3067 H   0  0  0  0  0  0  0  0  0  0  0  0
  141.1140   70.3334  228.3592 H   0  0  0  0  0  0  0  0  0  0  0  0
  141.9128   72.3319  227.0915 H   0  0  0  0  0  0  0  0  0  0  0  0
  141.0446   72.7507  224.8276 H   0  0  0  0  0  0  0  0  0  0  0  0
  1  2  1  0
  2  3  1  0
  3  4  1  0
  4  5  2  0
  4  6  1  0
  6  7  1  0
  7  8  1  0
  8  9  2  0
  8 10  1  0
 10 11  2  0
 11 12  1  0
 12 13  2  0
 13 14  1  0
 14 15  2  0
 15 16  1  0
 16 17  2  0
 17 18  1  0
 17 19  1  0
 19 20  2  0
  2 21  1  0
 21 22  2  0
 22 23  1  0
 23 24  2  0
 24 25  1  0
 25 26  2  0
 20 10  1  0
 26 21  1  0
 19 13  1  0
  1 27  1  0
  1 28  1  0
  1 29  1  0
  2 30  1  6
  3 31  1  0
  6 32  1  0
  6 33  1  0
  7 34  1  0
 11 35  1  0
 12 36  1  0
 14 37  1  0
 15 38  1  0
 16 39  1  0
 22 40  1  0
 23 41  1  0
 24 42  1  0
 25 43  1  0
 26 44  1  0
M  END
>  <smiles>  (42) 
C[C@@H](NC(=O)CNC(=O)c1ccc2cccc(F)c2n1)c1ccccc1

>  <score_type>  (42) 
oracle

>  <origin>  (42) 
autodockgpu

>  <m_score__min__energy>  (42) 
-8.8200000000000003

>  <m_primary>  (42) 
energy

>  <rmsd>  (42) 
9.576718312675148

>  <m_score__min__rmsd>  (42) 
9.576718312675148

>  <meeko>  (42) 
{"free_energy": -7.77, "intermolecular_energy": -9.26, "internal_energy": -1.93, "cluster_size": 21, "cluster_id": 4, "rank_in_cluster": 11}

>  <energy>  (42) 
-7.75

>  <cluster_rmsd>  (42) 
0.07

>  <cluster>  (42) 
4

$$$$

     RDKit          3D

 44 46  0  0  0  0  0  0  0  0999 V2000
  140.5480   67.3960  226.4540 C   0  0  0  0  0  0  0  0  0  0  0  0
  139.8880   68.5420  225.7180 C   0  0  1  0  0  0  0  0  0  0  0  0
  138.4290   68.4100  225.6900 N   0  0  0  0  0  0  0  0  0  0  0  0
  137.6100   69.2890  224.9570 C   0  0  0  0  0  0  0  0  0  0  0  0
  138.2070   70.2120  224.3070 O   0  0  0  0  0  0  0  0  0  0  0  0
  136.1490   69.2470  224.8680 C   0  0  0  0  0  0  0  0  0  0  0  0
  135.4740   70.4620  225.2690 N   0  0  0  0  0  0  0  0  0  0  0  0
  134.2860   70.4380  226.0690 C   0  0  0  0  0  0  0  0  0  0  0  0
  133.7690   69.3510  226.4740 O   0  0  0  0  0  0  0  0  0  0  0  0
  133.6390   71.7130  226.4390 C   0  0  0  0  0  0  0  0  0  0  0  0
  132.4540   71.6990  227.1440 C   0  0  0  0  0  0  0  0  0  0  0  0
  131.7850   72.8420  227.5290 C   0  0  0  0  0  0  0  0  0  0  0  0
  132.3500   74.0470  227.1790 C   0  0  0  0  0  0  0  0  0  0  0  0
  131.6920   75.2010  227.5570 C   0  0  0  0  0  0  0  0  0  0  0  0
  132.2560   76.4310  227.2070 C   0  0  0  0  0  0  0  0  0  0  0  0
  133.4430   76.4450  226.5000 C   0  0  0  0  0  0  0  0  0  0  0  0
  134.0960   75.2910  226.1260 C   0  0  0  0  0  0  0  0  0  0  0  0
  135.2710   75.3620  225.4260 F   0  0  0  0  0  0  0  0  0  0  0  0
  133.5440   74.0660  226.4690 C   0  0  0  0  0  0  0  0  0  0  0  0
  134.1630   72.9030  226.1140 N   0  0  0  0  0  0  0  0  0  0  0  0
  140.2900   69.7990  226.4030 C   0  0  0  0  0  0  0  0  0  0  0  0
  139.8650   70.0350  227.6940 C   0  0  0  0  0  0  0  0  0  0  0  0
  140.2400   71.2110  228.3410 C   0  0  0  0  0  0  0  0  0  0  0  0
  141.0320   72.1580  227.7230 C   0  0  0  0  0  0  0  0  0  0  0  0
  141.4580   71.9270  226.4320 C   0  0  0  0  0  0  0  0  0  0  0  0
  141.0800   70.7590  225.8050 C   0  0  0  0  0  0  0  0  0  0  0  0
  140.4562   67.5554  227.5385 H   0  0  0  0  0  0  0  0  0  0  0  0
  140.0555   66.4516  226.1792 H   0  0  0  0  0  0  0  0  0  0  0  0
  141.6120   67.3481  226.1792 H   0  0  0  0  0  0  0  0  0  0  0  0
  140.2154   68.5441  224.6679 H   0  0  0  0  0  0  0  0  0  0  0  0
  138.0040   67.6280  226.2310 H   0  0  0  0  0  0  0  0  0  0  0  0
  135.8773   69.0353  223.8233 H   0  0  0  0  0  0  0  0  0  0  0  0
  135.8217   68.4683  225.5726 H   0  0  0  0  0  0  0  0  0  0  0  0
  135.8130   71.4130  224.9990 H   0  0  0  0  0  0  0  0  0  0  0  0
  132.0194   70.7251  227.4135 H   0  0  0  0  0  0  0  0  0  0  0  0
  130.8409   72.7926  228.0914 H   0  0  0  0  0  0  0  0  0  0  0  0
  130.7478   75.1533  228.1194 H   0  0  0  0  0  0  0  0  0  0  0  0
  131.7628   77.3727  227.4898 H   0  0  0  0  0  0  0  0  0  0  0  0
  133.8835   77.4148  226.2252 H   0  0  0  0  0  0  0  0  0  0  0  0
  139.2327   69.2980  228.2107 H   0  0  0  0  0  0  0  0  0  0  0  0
  139.8961   71.3893  229.3705 H   0  0  0  0  0  0  0  0  0  0  0  0
  141.3179   73.0798  228.2507 H   0  0  0  0  0  0  0  0  0  0  0  0
  142.0888   72.6624  225.9113 H   0  0  0  0  0  0  0  0  0  0  0  0
  141.4258   70.5835  224.7756 H   0  0  0  0  0  0  0  0  0  0  0  0
  1  2  1  0
  2  3  1  0
  3  4  1  0
  4  5  2  0
  4  6  1  0
  6  7  1  0
  7  8  1  0
  8  9  2  0
  8 10  1  0
 10 11  2  0
 11 12  1  0
 12 13  2  0
 13 14  1  0
 14 15  2  0
 15 16  1  0
 16 17  2  0
 17 18  1  0
 17 19  1  0
 19 20  2  0
  2 21  1  0
 21 22  2  0
 22 23  1  0
 23 24  2  0
 24 25  1  0
 25 26  2  0
 20 10  1  0
 26 21  1  0
 19 13  1  0
  1 27  1  0
  1 28  1  0
  1 29  1  0
  2 30  1  6
  3 31  1  0
  6 32  1  0
  6 33  1  0
  7 34  1  0
 11 35  1  0
 12 36  1  0
 14 37  1  0
 15 38  1  0
 16 39  1  0
 22 40  1  0
 23 41  1  0
 24 42  1  0
 25 43  1  0
 26 44  1  0
M  END
>  <smiles>  (43) 
C[C@@H](NC(=O)CNC(=O)c1ccc2cccc(F)c2n1)c1ccccc1

>  <score_type>  (43) 
oracle

>  <origin>  (43) 
autodockgpu

>  <m_score__min__energy>  (43) 
-8.8200000000000003

>  <m_primary>  (43) 
energy

>  <rmsd>  (43) 
10.807282140051274

>  <m_score__min__rmsd>  (43) 
10.807282140051274

>  <meeko>  (43) 
{"free_energy": -8.6, "intermolecular_energy": -10.1, "internal_energy": -1.35, "cluster_size": 13, "cluster_id": 2, "rank_in_cluster": 2}

>  <energy>  (43) 
-7.75

>  <cluster_rmsd>  (43) 
0.07

>  <cluster>  (43) 
4

$$$$

     RDKit          3D

 44 46  0  0  0  0  0  0  0  0999 V2000
  137.7540   71.5600  223.5180 C   0  0  0  0  0  0  0  0  0  0  0  0
  139.2420   71.2990  223.4250 C   0  0  1  0  0  0  0  0  0  0  0  0
  139.9580   72.4190  222.8100 N   0  0  0  0  0  0  0  0  0  0  0  0
  140.8920   72.2340  221.7730 C   0  0  0  0  0  0  0  0  0  0  0  0
  141.0800   71.0310  221.3860 O   0  0  0  0  0  0  0  0  0  0  0  0
  141.6610   73.2800  221.0970 C   0  0  0  0  0  0  0  0  0  0  0  0
  141.4460   74.6200  221.5970 N   0  0  0  0  0  0  0  0  0  0  0  0
  140.1320   75.1750  221.7350 C   0  0  0  0  0  0  0  0  0  0  0  0
  139.0890   74.5160  221.4330 O   0  0  0  0  0  0  0  0  0  0  0  0
  139.9790   76.5520  222.2440 C   0  0  0  0  0  0  0  0  0  0  0  0
  138.7270   77.0250  222.5740 C   0  0  0  0  0  0  0  0  0  0  0  0
  138.4970   78.2960  223.0560 C   0  0  0  0  0  0  0  0  0  0  0  0
  139.5910   79.1180  223.2050 C   0  0  0  0  0  0  0  0  0  0  0  0
  139.3770   80.3940  223.6870 C   0  0  0  0  0  0  0  0  0  0  0  0
  140.4790   81.2380  223.8430 C   0  0  0  0  0  0  0  0  0  0  0  0
  141.7350   80.7650  223.5110 C   0  0  0  0  0  0  0  0  0  0  0  0
  141.9440   79.4910  223.0320 C   0  0  0  0  0  0  0  0  0  0  0  0
  143.2100   79.0730  222.7190 F   0  0  0  0  0  0  0  0  0  0  0  0
  140.8550   78.6470  222.8740 C   0  0  0  0  0  0  0  0  0  0  0  0
  141.0240   77.3780  222.4010 N   0  0  0  0  0  0  0  0  0  0  0  0
  139.7350   71.0510  224.8050 C   0  0  0  0  0  0  0  0  0  0  0  0
  140.7070   71.8740  225.3370 C   0  0  0  0  0  0  0  0  0  0  0  0
  141.1730   71.6460  226.6320 C   0  0  0  0  0  0  0  0  0  0  0  0
  140.6860   70.6120  227.4050 C   0  0  0  0  0  0  0  0  0  0  0  0
  139.7160   69.7870  226.8780 C   0  0  0  0  0  0  0  0  0  0  0  0
  139.2650   70.0240  225.5970 C   0  0  0  0  0  0  0  0  0  0  0  0
  137.4563   71.6122  224.5757 H   0  0  0  0  0  0  0  0  0  0  0  0
  137.5173   72.5134  223.0230 H   0  0  0  0  0  0  0  0  0  0  0  0
  137.2070   70.7441  223.0230 H   0  0  0  0  0  0  0  0  0  0  0  0
  139.4260   70.4273  222.7798 H   0  0  0  0  0  0  0  0  0  0  0  0
  139.7510   73.3770  223.1610 H   0  0  0  0  0  0  0  0  0  0  0  0
  142.7294   73.0425  221.2072 H   0  0  0  0  0  0  0  0  0  0  0  0
  141.3187   73.2846  220.0516 H   0  0  0  0  0  0  0  0  0  0  0  0
  142.2300   75.2500  221.8810 H   0  0  0  0  0  0  0  0  0  0  0  0
  137.8658   76.3527  222.4460 H   0  0  0  0  0  0  0  0  0  0  0  0
  137.4831   78.6384  223.3105 H   0  0  0  0  0  0  0  0  0  0  0  0
  138.3636   80.7375  223.9419 H   0  0  0  0  0  0  0  0  0  0  0  0
  140.3497   82.2619  224.2237 H   0  0  0  0  0  0  0  0  0  0  0  0
  142.6008   81.4322  223.6343 H   0  0  0  0  0  0  0  0  0  0  0  0
  141.1124   72.7060  224.7425 H   0  0  0  0  0  0  0  0  0  0  0  0
  141.9480   72.3070  227.0472 H   0  0  0  0  0  0  0  0  0  0  0  0
  141.0655   70.4490  228.4245 H   0  0  0  0  0  0  0  0  0  0  0  0
  139.3086   68.9537  227.4693 H   0  0  0  0  0  0  0  0  0  0  0  0
  138.4906   69.3601  225.1853 H   0  0  0  0  0  0  0  0  0  0  0  0
  1  2  1  0
  2  3  1  0
  3  4  1  0
  4  5  2  0
  4  6  1  0
  6  7  1  0
  7  8  1  0
  8  9  2  0
  8 10  1  0
 10 11  2  0
 11 12  1  0
 12 13  2  0
 13 14  1  0
 14 15  2  0
 15 16  1  0
 16 17  2  0
 17 18  1  0
 17 19  1  0
 19 20  2  0
  2 21  1  0
 21 22  2  0
 22 23  1  0
 23 24  2  0
 24 25  1  0
 25 26  2  0
 20 10  1  0
 26 21  1  0
 19 13  1  0
  1 27  1  0
  1 28  1  0
  1 29  1  0
  2 30  1  6
  3 31  1  0
  6 32  1  0
  6 33  1  0
  7 34  1  0
 11 35  1  0
 12 36  1  0
 14 37  1  0
 15 38  1  0
 16 39  1  0
 22 40  1  0
 23 41  1  0
 24 42  1  0
 25 43  1  0
 26 44  1  0
M  END
>  <smiles>  (44) 
C[C@@H](NC(=O)CNC(=O)c1ccc2cccc(F)c2n1)c1ccccc1

>  <score_type>  (44) 
oracle

>  <origin>  (44) 
autodockgpu

>  <m_score__min__energy>  (44) 
-8.8200000000000003

>  <m_primary>  (44) 
energy

>  <rmsd>  (44) 
9.717655287482659

>  <m_score__min__rmsd>  (44) 
9.717655287482659

>  <meeko>  (44) 
{"free_energy": -7.76, "intermolecular_energy": -9.25, "internal_energy": -1.92, "cluster_size": 21, "cluster_id": 4, "rank_in_cluster": 12}

>  <energy>  (44) 
-7.74

>  <cluster_rmsd>  (44) 
0.11

>  <cluster>  (44) 
4

$$$$

     RDKit          3D

 44 46  0  0  0  0  0  0  0  0999 V2000
  138.0190   77.2100  221.2640 C   0  0  0  0  0  0  0  0  0  0  0  0
  138.7910   76.8210  222.5070 C   0  0  1  0  0  0  0  0  0  0  0  0
  139.4920   75.5450  222.3400 N   0  0  0  0  0  0  0  0  0  0  0  0
  140.3060   75.2760  221.2240 C   0  0  0  0  0  0  0  0  0  0  0  0
  140.4100   76.2110  220.3590 O   0  0  0  0  0  0  0  0  0  0  0  0
  141.0430   74.0390  220.9610 C   0  0  0  0  0  0  0  0  0  0  0  0
  141.0220   73.0720  222.0370 N   0  0  0  0  0  0  0  0  0  0  0  0
  139.7940   72.5910  222.5980 C   0  0  0  0  0  0  0  0  0  0  0  0
  138.6620   72.9830  222.1760 O   0  0  0  0  0  0  0  0  0  0  0  0
  139.8390   71.6090  223.7000 C   0  0  0  0  0  0  0  0  0  0  0  0
  139.2710   70.3650  223.5310 C   0  0  0  0  0  0  0  0  0  0  0  0
  139.2700   69.3910  224.5080 C   0  0  0  0  0  0  0  0  0  0  0  0
  139.8740   69.7020  225.7050 C   0  0  0  0  0  0  0  0  0  0  0  0
  139.8810   68.7370  226.6930 C   0  0  0  0  0  0  0  0  0  0  0  0
  140.4920   69.0410  227.9120 C   0  0  0  0  0  0  0  0  0  0  0  0
  141.0620   70.2890  228.0810 C   0  0  0  0  0  0  0  0  0  0  0  0
  141.0530   71.2470  227.0930 C   0  0  0  0  0  0  0  0  0  0  0  0
  141.6330   72.4680  227.3130 F   0  0  0  0  0  0  0  0  0  0  0  0
  140.4490   70.9540  225.8790 C   0  0  0  0  0  0  0  0  0  0  0  0
  140.4210   71.8800  224.8770 N   0  0  0  0  0  0  0  0  0  0  0  0
  139.7540   77.9170  222.7900 C   0  0  0  0  0  0  0  0  0  0  0  0
  141.0780   77.6140  223.0320 C   0  0  0  0  0  0  0  0  0  0  0  0
  141.9850   78.6390  223.2980 C   0  0  0  0  0  0  0  0  0  0  0  0
  141.5940   79.9620  223.3290 C   0  0  0  0  0  0  0  0  0  0  0  0
  140.2720   80.2710  223.0890 C   0  0  0  0  0  0  0  0  0  0  0  0
  139.3870   79.2470  222.8260 C   0  0  0  0  0  0  0  0  0  0  0  0
  137.0717   77.6873  221.5551 H   0  0  0  0  0  0  0  0  0  0  0  0
  138.6164   77.9147  220.6669 H   0  0  0  0  0  0  0  0  0  0  0  0
  137.8081   76.3106  220.6669 H   0  0  0  0  0  0  0  0  0  0  0  0
  138.0952   76.6814  223.3474 H   0  0  0  0  0  0  0  0  0  0  0  0
  139.3770   74.8290  223.0880 H   0  0  0  0  0  0  0  0  0  0  0  0
  140.6072   73.5657  220.0688 H   0  0  0  0  0  0  0  0  0  0  0  0
  142.0956   74.3309  220.8317 H   0  0  0  0  0  0  0  0  0  0  0  0
  141.8920   72.6760  222.4580 H   0  0  0  0  0  0  0  0  0  0  0  0
  138.7934   70.1366  222.5668 H   0  0  0  0  0  0  0  0  0  0  0  0
  138.8064   68.4081  224.3377 H   0  0  0  0  0  0  0  0  0  0  0  0
  139.4172   67.7539  226.5243 H   0  0  0  0  0  0  0  0  0  0  0  0
  140.5191   68.2995  228.7240 H   0  0  0  0  0  0  0  0  0  0  0  0
  141.5413   70.5255  229.0424 H   0  0  0  0  0  0  0  0  0  0  0  0
  141.4168   76.5676  223.0152 H   0  0  0  0  0  0  0  0  0  0  0  0
  143.0387   78.3867  223.4879 H   0  0  0  0  0  0  0  0  0  0  0  0
  142.3245   80.7564  223.5415 H   0  0  0  0  0  0  0  0  0  0  0  0
  139.9293   81.3161  223.1070 H   0  0  0  0  0  0  0  0  0  0  0  0
  138.3344   79.5032  222.6351 H   0  0  0  0  0  0  0  0  0  0  0  0
  1  2  1  0
  2  3  1  0
  3  4  1  0
  4  5  2  0
  4  6  1  0
  6  7  1  0
  7  8  1  0
  8  9  2  0
  8 10  1  0
 10 11  2  0
 11 12  1  0
 12 13  2  0
 13 14  1  0
 14 15  2  0
 15 16  1  0
 16 17  2  0
 17 18  1  0
 17 19  1  0
 19 20  2  0
  2 21  1  0
 21 22  2  0
 22 23  1  0
 23 24  2  0
 24 25  1  0
 25 26  2  0
 20 10  1  0
 26 21  1  0
 19 13  1  0
  1 27  1  0
  1 28  1  0
  1 29  1  0
  2 30  1  1
  3 31  1  0
  6 32  1  0
  6 33  1  0
  7 34  1  0
 11 35  1  0
 12 36  1  0
 14 37  1  0
 15 38  1  0
 16 39  1  0
 22 40  1  0
 23 41  1  0
 24 42  1  0
 25 43  1  0
 26 44  1  0
M  END
>  <smiles>  (45) 
C[C@@H](NC(=O)CNC(=O)c1ccc2cccc(F)c2n1)c1ccccc1

>  <score_type>  (45) 
oracle

>  <origin>  (45) 
autodockgpu

>  <m_score__min__energy>  (45) 
-8.8200000000000003

>  <m_primary>  (45) 
energy

>  <rmsd>  (45) 
4.369212738575349

>  <m_score__min__rmsd>  (45) 
4.369212738575349

>  <meeko>  (45) 
{"free_energy": -7.79, "intermolecular_energy": -9.28, "internal_energy": -1.49, "cluster_size": 7, "cluster_id": 1, "rank_in_cluster": 7}

>  <energy>  (45) 
-7.74

>  <cluster_rmsd>  (45) 
0.08

>  <cluster>  (45) 
4

$$$$

     RDKit          3D

 44 46  0  0  0  0  0  0  0  0999 V2000
  137.7470   71.5480  223.5690 C   0  0  0  0  0  0  0  0  0  0  0  0
  139.2370   71.3000  223.4610 C   0  0  1  0  0  0  0  0  0  0  0  0
  139.9350   72.4180  222.8220 N   0  0  0  0  0  0  0  0  0  0  0  0
  140.8800   72.2240  221.7970 C   0  0  0  0  0  0  0  0  0  0  0  0
  141.0950   71.0160  221.4430 O   0  0  0  0  0  0  0  0  0  0  0  0
  141.6330   73.2680  221.0990 C   0  0  0  0  0  0  0  0  0  0  0  0
  141.4290   74.6100  221.5990 N   0  0  0  0  0  0  0  0  0  0  0  0
  140.1210   75.1790  221.7280 C   0  0  0  0  0  0  0  0  0  0  0  0
  139.0720   74.5330  221.4190 O   0  0  0  0  0  0  0  0  0  0  0  0
  139.9800   76.5580  222.2370 C   0  0  0  0  0  0  0  0  0  0  0  0
  138.7310   77.0430  222.5630 C   0  0  0  0  0  0  0  0  0  0  0  0
  138.5120   78.3160  223.0450 C   0  0  0  0  0  0  0  0  0  0  0  0
  139.6130   79.1270  223.1990 C   0  0  0  0  0  0  0  0  0  0  0  0
  139.4100   80.4050  223.6800 C   0  0  0  0  0  0  0  0  0  0  0  0
  140.5210   81.2380  223.8410 C   0  0  0  0  0  0  0  0  0  0  0  0
  141.7730   80.7520  223.5140 C   0  0  0  0  0  0  0  0  0  0  0  0
  141.9700   79.4760  223.0350 C   0  0  0  0  0  0  0  0  0  0  0  0
  143.2330   79.0450  222.7270 F   0  0  0  0  0  0  0  0  0  0  0  0
  140.8740   78.6430  222.8720 C   0  0  0  0  0  0  0  0  0  0  0  0
  141.0320   77.3730  222.4000 N   0  0  0  0  0  0  0  0  0  0  0  0
  139.7490   71.0770  224.8390 C   0  0  0  0  0  0  0  0  0  0  0  0
  139.2620   70.0200  225.5820 C   0  0  0  0  0  0  0  0  0  0  0  0
  139.7390   69.8070  226.8740 C   0  0  0  0  0  0  0  0  0  0  0  0
  140.6930   70.6290  227.4400 C   0  0  0  0  0  0  0  0  0  0  0  0
  141.1820   71.6860  226.7010 C   0  0  0  0  0  0  0  0  0  0  0  0
  140.7010   71.8840  225.4250 C   0  0  0  0  0  0  0  0  0  0  0  0
  137.4592   71.5959  224.6296 H   0  0  0  0  0  0  0  0  0  0  0  0
  137.4972   72.5001  223.0779 H   0  0  0  0  0  0  0  0  0  0  0  0
  137.2023   70.7282  223.0779 H   0  0  0  0  0  0  0  0  0  0  0  0
  139.4214   70.4212  222.8256 H   0  0  0  0  0  0  0  0  0  0  0  0
  139.7050   73.3800  223.1470 H   0  0  0  0  0  0  0  0  0  0  0  0
  142.7038   73.0313  221.1852 H   0  0  0  0  0  0  0  0  0  0  0  0
  141.2666   73.2685  220.0618 H   0  0  0  0  0  0  0  0  0  0  0  0
  142.2180   75.2310  221.8880 H   0  0  0  0  0  0  0  0  0  0  0  0
  137.8637   76.3793  222.4316 H   0  0  0  0  0  0  0  0  0  0  0  0
  137.5005   78.6683  223.2957 H   0  0  0  0  0  0  0  0  0  0  0  0
  138.3991   80.7590  223.9303 H   0  0  0  0  0  0  0  0  0  0  0  0
  140.4009   82.2631  224.2215 H   0  0  0  0  0  0  0  0  0  0  0  0
  142.6455   81.4097  223.6413 H   0  0  0  0  0  0  0  0  0  0  0  0
  138.5012   69.3493  225.1562 H   0  0  0  0  0  0  0  0  0  0  0  0
  139.3452   68.9621  227.4580 H   0  0  0  0  0  0  0  0  0  0  0  0
  141.0565   70.4443  228.4617 H   0  0  0  0  0  0  0  0  0  0  0  0
  141.9428   72.3592  227.1229 H   0  0  0  0  0  0  0  0  0  0  0  0
  141.0971   72.7298  224.8438 H   0  0  0  0  0  0  0  0  0  0  0  0
  1  2  1  0
  2  3  1  0
  3  4  1  0
  4  5  2  0
  4  6  1  0
  6  7  1  0
  7  8  1  0
  8  9  2  0
  8 10  1  0
 10 11  2  0
 11 12  1  0
 12 13  2  0
 13 14  1  0
 14 15  2  0
 15 16  1  0
 16 17  2  0
 17 18  1  0
 17 19  1  0
 19 20  2  0
  2 21  1  0
 21 22  2  0
 22 23  1  0
 23 24  2  0
 24 25  1  0
 25 26  2  0
 20 10  1  0
 26 21  1  0
 19 13  1  0
  1 27  1  0
  1 28  1  0
  1 29  1  0
  2 30  1  6
  3 31  1  0
  6 32  1  0
  6 33  1  0
  7 34  1  0
 11 35  1  0
 12 36  1  0
 14 37  1  0
 15 38  1  0
 16 39  1  0
 22 40  1  0
 23 41  1  0
 24 42  1  0
 25 43  1  0
 26 44  1  0
M  END
>  <smiles>  (46) 
C[C@@H](NC(=O)CNC(=O)c1ccc2cccc(F)c2n1)c1ccccc1

>  <score_type>  (46) 
oracle

>  <origin>  (46) 
autodockgpu

>  <m_score__min__energy>  (46) 
-8.8200000000000003

>  <m_primary>  (46) 
energy

>  <rmsd>  (46) 
9.571350624848577

>  <m_score__min__rmsd>  (46) 
9.571350624848577

>  <meeko>  (46) 
{"free_energy": -7.8, "intermolecular_energy": -9.29, "internal_energy": -1.93, "cluster_size": 21, "cluster_id": 4, "rank_in_cluster": 2}

>  <energy>  (46) 
-7.74

>  <cluster_rmsd>  (46) 
0.08

>  <cluster>  (46) 
4

$$$$

     RDKit          3D

 44 46  0  0  0  0  0  0  0  0999 V2000
  137.7460   71.5210  223.5810 C   0  0  0  0  0  0  0  0  0  0  0  0
  139.2380   71.2910  223.4670 C   0  0  1  0  0  0  0  0  0  0  0  0
  139.9180   72.4130  222.8150 N   0  0  0  0  0  0  0  0  0  0  0  0
  140.8780   72.2220  221.8030 C   0  0  0  0  0  0  0  0  0  0  0  0
  141.1240   71.0130  221.4740 O   0  0  0  0  0  0  0  0  0  0  0  0
  141.6150   73.2700  221.0940 C   0  0  0  0  0  0  0  0  0  0  0  0
  141.4120   74.6110  221.5970 N   0  0  0  0  0  0  0  0  0  0  0  0
  140.1050   75.1840  221.7180 C   0  0  0  0  0  0  0  0  0  0  0  0
  139.0570   74.5430  221.3970 O   0  0  0  0  0  0  0  0  0  0  0  0
  139.9650   76.5620  222.2310 C   0  0  0  0  0  0  0  0  0  0  0  0
  138.7180   77.0420  222.5710 C   0  0  0  0  0  0  0  0  0  0  0  0
  138.5000   78.3140  223.0570 C   0  0  0  0  0  0  0  0  0  0  0  0
  139.6010   79.1280  223.2010 C   0  0  0  0  0  0  0  0  0  0  0  0
  139.3990   80.4050  223.6870 C   0  0  0  0  0  0  0  0  0  0  0  0
  140.5080   81.2400  223.8370 C   0  0  0  0  0  0  0  0  0  0  0  0
  141.7590   80.7590  223.4960 C   0  0  0  0  0  0  0  0  0  0  0  0
  141.9550   79.4850  223.0130 C   0  0  0  0  0  0  0  0  0  0  0  0
  143.2160   79.0580  222.6900 F   0  0  0  0  0  0  0  0  0  0  0  0
  140.8600   78.6490  222.8600 C   0  0  0  0  0  0  0  0  0  0  0  0
  141.0160   77.3800  222.3830 N   0  0  0  0  0  0  0  0  0  0  0  0
  139.7610   71.0860  224.8430 C   0  0  0  0  0  0  0  0  0  0  0  0
  139.2680   70.0500  225.6100 C   0  0  0  0  0  0  0  0  0  0  0  0
  139.7560   69.8540  226.9020 C   0  0  0  0  0  0  0  0  0  0  0  0
  140.7250   70.6730  227.4430 C   0  0  0  0  0  0  0  0  0  0  0  0
  141.2200   71.7100  226.6810 C   0  0  0  0  0  0  0  0  0  0  0  0
  140.7290   71.8920  225.4050 C   0  0  0  0  0  0  0  0  0  0  0  0
  137.4618   71.5648  224.6428 H   0  0  0  0  0  0  0  0  0  0  0  0
  137.4829   72.4703  223.0915 H   0  0  0  0  0  0  0  0  0  0  0  0
  137.2092   70.6950  223.0915 H   0  0  0  0  0  0  0  0  0  0  0  0
  139.4297   70.4091  222.8381 H   0  0  0  0  0  0  0  0  0  0  0  0
  139.6630   73.3760  223.1190 H   0  0  0  0  0  0  0  0  0  0  0  0
  142.6881   73.0387  221.1640 H   0  0  0  0  0  0  0  0  0  0  0  0
  141.2327   73.2688  220.0626 H   0  0  0  0  0  0  0  0  0  0  0  0
  142.2010   75.2280  221.8960 H   0  0  0  0  0  0  0  0  0  0  0  0
  137.8516   76.3754  222.4481 H   0  0  0  0  0  0  0  0  0  0  0  0
  137.4901   78.6632  223.3183 H   0  0  0  0  0  0  0  0  0  0  0  0
  138.3898   80.7554  223.9493 H   0  0  0  0  0  0  0  0  0  0  0  0
  140.3885   82.2641  224.2203 H   0  0  0  0  0  0  0  0  0  0  0  0
  142.6305   81.4196  223.6153 H   0  0  0  0  0  0  0  0  0  0  0  0
  138.4939   69.3820  225.2044 H   0  0  0  0  0  0  0  0  0  0  0  0
  139.3577   69.0247  227.5050 H   0  0  0  0  0  0  0  0  0  0  0  0
  141.0963   70.5019  228.4642 H   0  0  0  0  0  0  0  0  0  0  0  0
  141.9932   72.3807  227.0838 H   0  0  0  0  0  0  0  0  0  0  0  0
  141.1298   72.7222  224.8050 H   0  0  0  0  0  0  0  0  0  0  0  0
  1  2  1  0
  2  3  1  0
  3  4  1  0
  4  5  2  0
  4  6  1  0
  6  7  1  0
  7  8  1  0
  8  9  2  0
  8 10  1  0
 10 11  2  0
 11 12  1  0
 12 13  2  0
 13 14  1  0
 14 15  2  0
 15 16  1  0
 16 17  2  0
 17 18  1  0
 17 19  1  0
 19 20  2  0
  2 21  1  0
 21 22  2  0
 22 23  1  0
 23 24  2  0
 24 25  1  0
 25 26  2  0
 20 10  1  0
 26 21  1  0
 19 13  1  0
  1 27  1  0
  1 28  1  0
  1 29  1  0
  2 30  1  6
  3 31  1  0
  6 32  1  0
  6 33  1  0
  7 34  1  0
 11 35  1  0
 12 36  1  0
 14 37  1  0
 15 38  1  0
 16 39  1  0
 22 40  1  0
 23 41  1  0
 24 42  1  0
 25 43  1  0
 26 44  1  0
M  END
>  <smiles>  (47) 
C[C@@H](NC(=O)CNC(=O)c1ccc2cccc(F)c2n1)c1ccccc1

>  <score_type>  (47) 
oracle

>  <origin>  (47) 
autodockgpu

>  <m_score__min__energy>  (47) 
-8.8200000000000003

>  <m_primary>  (47) 
energy

>  <rmsd>  (47) 
9.566811633994105

>  <m_score__min__rmsd>  (47) 
9.566811633994105

>  <meeko>  (47) 
{"free_energy": -7.79, "intermolecular_energy": -9.28, "internal_energy": -1.94, "cluster_size": 21, "cluster_id": 4, "rank_in_cluster": 6}

>  <energy>  (47) 
-7.73

>  <cluster_rmsd>  (47) 
0.08

>  <cluster>  (47) 
4

$$$$

     RDKit          3D

 44 46  0  0  0  0  0  0  0  0999 V2000
  143.1140   75.8390  218.6680 C   0  0  0  0  0  0  0  0  0  0  0  0
  143.0620   75.1270  220.0020 C   0  0  1  0  0  0  0  0  0  0  0  0
  141.7820   74.4460  220.2120 N   0  0  0  0  0  0  0  0  0  0  0  0
  140.7060   75.0610  220.8800 C   0  0  0  0  0  0  0  0  0  0  0  0
  140.9010   76.2550  221.2910 O   0  0  0  0  0  0  0  0  0  0  0  0
  139.3930   74.4700  221.1440 C   0  0  0  0  0  0  0  0  0  0  0  0
  139.3430   73.5660  222.2720 N   0  0  0  0  0  0  0  0  0  0  0  0
  140.2390   72.4550  222.3920 C   0  0  0  0  0  0  0  0  0  0  0  0
  141.1290   72.2110  221.5200 O   0  0  0  0  0  0  0  0  0  0  0  0
  140.1310   71.5640  223.5640 C   0  0  0  0  0  0  0  0  0  0  0  0
  139.5030   70.3430  223.4390 C   0  0  0  0  0  0  0  0  0  0  0  0
  139.3600   69.4520  224.4820 C   0  0  0  0  0  0  0  0  0  0  0  0
  139.8800   69.8230  225.7010 C   0  0  0  0  0  0  0  0  0  0  0  0
  139.7440   68.9420  226.7550 C   0  0  0  0  0  0  0  0  0  0  0  0
  140.2680   69.3070  227.9980 C   0  0  0  0  0  0  0  0  0  0  0  0
  140.8970   70.5320  228.1230 C   0  0  0  0  0  0  0  0  0  0  0  0
  141.0310   71.4070  227.0690 C   0  0  0  0  0  0  0  0  0  0  0  0
  141.6640   72.6080  227.2480 F   0  0  0  0  0  0  0  0  0  0  0  0
  140.5140   71.0520  225.8320 C   0  0  0  0  0  0  0  0  0  0  0  0
  140.6270   71.8950  224.7650 N   0  0  0  0  0  0  0  0  0  0  0  0
  144.1870   74.1540  220.0280 C   0  0  0  0  0  0  0  0  0  0  0  0
  145.2940   74.4150  220.8090 C   0  0  0  0  0  0  0  0  0  0  0  0
  146.3500   73.5060  220.8360 C   0  0  0  0  0  0  0  0  0  0  0  0
  146.3220   72.3400  220.0980 C   0  0  0  0  0  0  0  0  0  0  0  0
  145.2190   72.0740  219.3170 C   0  0  0  0  0  0  0  0  0  0  0  0
  144.1810   72.9820  219.2990 C   0  0  0  0  0  0  0  0  0  0  0  0
  143.1932   76.9235  218.8341 H   0  0  0  0  0  0  0  0  0  0  0  0
  143.9891   75.4901  218.1000 H   0  0  0  0  0  0  0  0  0  0  0  0
  142.1975   75.6210  218.1000 H   0  0  0  0  0  0  0  0  0  0  0  0
  143.1559   75.8599  220.8169 H   0  0  0  0  0  0  0  0  0  0  0  0
  141.6820   73.4780  219.8400 H   0  0  0  0  0  0  0  0  0  0  0  0
  138.6823   75.2884  221.3313 H   0  0  0  0  0  0  0  0  0  0  0  0
  139.1440   73.8681  220.2576 H   0  0  0  0  0  0  0  0  0  0  0  0
  138.6550   73.6730  223.0510 H   0  0  0  0  0  0  0  0  0  0  0  0
  139.0947   70.0650  222.4561 H   0  0  0  0  0  0  0  0  0  0  0  0
  138.8519   68.4860  224.3453 H   0  0  0  0  0  0  0  0  0  0  0  0
  139.2355   67.9760  226.6197 H   0  0  0  0  0  0  0  0  0  0  0  0
  140.1816   68.6316  228.8619 H   0  0  0  0  0  0  0  0  0  0  0  0
  141.3063   70.8184  229.1030 H   0  0  0  0  0  0  0  0  0  0  0  0
  145.3429   75.3365  221.4077 H   0  0  0  0  0  0  0  0  0  0  0  0
  147.2284   73.7234  221.4615 H   0  0  0  0  0  0  0  0  0  0  0  0
  147.1659   71.6353  220.1329 H   0  0  0  0  0  0  0  0  0  0  0  0
  145.1669   71.1530  218.7178 H   0  0  0  0  0  0  0  0  0  0  0  0
  143.3044   72.7611  218.6722 H   0  0  0  0  0  0  0  0  0  0  0  0
  1  2  1  0
  2  3  1  0
  3  4  1  0
  4  5  2  0
  4  6  1  0
  6  7  1  0
  7  8  1  0
  8  9  2  0
  8 10  1  0
 10 11  2  0
 11 12  1  0
 12 13  2  0
 13 14  1  0
 14 15  2  0
 15 16  1  0
 16 17  2  0
 17 18  1  0
 17 19  1  0
 19 20  2  0
  2 21  1  0
 21 22  2  0
 22 23  1  0
 23 24  2  0
 24 25  1  0
 25 26  2  0
 20 10  1  0
 26 21  1  0
 19 13  1  0
  1 27  1  0
  1 28  1  0
  1 29  1  0
  2 30  1  1
  3 31  1  0
  6 32  1  0
  6 33  1  0
  7 34  1  0
 11 35  1  0
 12 36  1  0
 14 37  1  0
 15 38  1  0
 16 39  1  0
 22 40  1  0
 23 41  1  0
 24 42  1  0
 25 43  1  0
 26 44  1  0
M  END
>  <smiles>  (48) 
C[C@@H](NC(=O)CNC(=O)c1ccc2cccc(F)c2n1)c1ccccc1

>  <score_type>  (48) 
oracle

>  <origin>  (48) 
autodockgpu

>  <m_score__min__energy>  (48) 
-8.8200000000000003

>  <m_primary>  (48) 
energy

>  <rmsd>  (48) 
6.568144230547545

>  <m_score__min__rmsd>  (48) 
6.568144230547545

>  <meeko>  (48) 
{"free_energy": -8.17, "intermolecular_energy": -9.66, "internal_energy": -1.66, "cluster_size": 7, "cluster_id": 3, "rank_in_cluster": 4}

>  <energy>  (48) 
-7.66

>  <cluster_rmsd>  (48) 
0.13

>  <cluster>  (48) 
4

$$$$

     RDKit          3D

 44 46  0  0  0  0  0  0  0  0999 V2000
  137.8630   71.4920  223.5460 C   0  0  0  0  0  0  0  0  0  0  0  0
  139.3570   71.2530  223.5010 C   0  0  1  0  0  0  0  0  0  0  0  0
  140.0750   72.3760  222.8930 N   0  0  0  0  0  0  0  0  0  0  0  0
  140.9400   72.2080  221.7950 C   0  0  0  0  0  0  0  0  0  0  0  0
  141.0630   71.0180  221.3460 O   0  0  0  0  0  0  0  0  0  0  0  0
  141.7040   73.2580  221.1200 C   0  0  0  0  0  0  0  0  0  0  0  0
  141.4500   74.6020  221.5920 N   0  0  0  0  0  0  0  0  0  0  0  0
  140.1200   75.0990  221.7820 C   0  0  0  0  0  0  0  0  0  0  0  0
  139.0960   74.3850  221.5520 O   0  0  0  0  0  0  0  0  0  0  0  0
  139.9270   76.4830  222.2580 C   0  0  0  0  0  0  0  0  0  0  0  0
  138.6610   76.9300  222.5690 C   0  0  0  0  0  0  0  0  0  0  0  0
  138.3940   78.2050  223.0210 C   0  0  0  0  0  0  0  0  0  0  0  0
  139.4650   79.0580  223.1600 C   0  0  0  0  0  0  0  0  0  0  0  0
  139.2140   80.3390  223.6110 C   0  0  0  0  0  0  0  0  0  0  0  0
  140.2930   81.2150  223.7560 C   0  0  0  0  0  0  0  0  0  0  0  0
  141.5630   80.7670  223.4430 C   0  0  0  0  0  0  0  0  0  0  0  0
  141.8080   79.4890  222.9950 C   0  0  0  0  0  0  0  0  0  0  0  0
  143.0870   79.0970  222.6990 F   0  0  0  0  0  0  0  0  0  0  0  0
  140.7440   78.6130  222.8480 C   0  0  0  0  0  0  0  0  0  0  0  0
  140.9490   77.3390  222.4050 N   0  0  0  0  0  0  0  0  0  0  0  0
  139.8120   71.0310  224.8990 C   0  0  0  0  0  0  0  0  0  0  0  0
  140.7390   71.8890  225.4560 C   0  0  0  0  0  0  0  0  0  0  0  0
  141.1680   71.6850  226.7670 C   0  0  0  0  0  0  0  0  0  0  0  0
  140.6890   70.6410  227.5320 C   0  0  0  0  0  0  0  0  0  0  0  0
  139.7640   69.7820  226.9800 C   0  0  0  0  0  0  0  0  0  0  0  0
  139.3480   69.9950  225.6830 C   0  0  0  0  0  0  0  0  0  0  0  0
  137.5316   71.5450  224.5935 H   0  0  0  0  0  0  0  0  0  0  0  0
  137.6278   72.4392  223.0386 H   0  0  0  0  0  0  0  0  0  0  0  0
  137.3440   70.6655  223.0386 H   0  0  0  0  0  0  0  0  0  0  0  0
  139.5730   70.3760  222.8731 H   0  0  0  0  0  0  0  0  0  0  0  0
  139.9220   73.3240  223.2970 H   0  0  0  0  0  0  0  0  0  0  0  0
  142.7739   73.0443  221.2598 H   0  0  0  0  0  0  0  0  0  0  0  0
  141.3872   73.2383  220.0668 H   0  0  0  0  0  0  0  0  0  0  0  0
  142.2170   75.2760  221.8170 H   0  0  0  0  0  0  0  0  0  0  0  0
  137.8187   76.2325  222.4503 H   0  0  0  0  0  0  0  0  0  0  0  0
  137.3695   78.5264  223.2601 H   0  0  0  0  0  0  0  0  0  0  0  0
  138.1900   80.6617  223.8502 H   0  0  0  0  0  0  0  0  0  0  0  0
  140.1347   82.2433  224.1130 H   0  0  0  0  0  0  0  0  0  0  0  0
  142.4105   81.4590  223.5565 H   0  0  0  0  0  0  0  0  0  0  0  0
  141.1372   72.7294  224.8685 H   0  0  0  0  0  0  0  0  0  0  0  0
  141.9070   72.3737  227.2025 H   0  0  0  0  0  0  0  0  0  0  0  0
  141.0397   70.4972  228.5646 H   0  0  0  0  0  0  0  0  0  0  0  0
  139.3641   68.9402  227.5644 H   0  0  0  0  0  0  0  0  0  0  0  0
  138.6088   69.3041  225.2515 H   0  0  0  0  0  0  0  0  0  0  0  0
  1  2  1  0
  2  3  1  0
  3  4  1  0
  4  5  2  0
  4  6  1  0
  6  7  1  0
  7  8  1  0
  8  9  2  0
  8 10  1  0
 10 11  2  0
 11 12  1  0
 12 13  2  0
 13 14  1  0
 14 15  2  0
 15 16  1  0
 16 17  2  0
 17 18  1  0
 17 19  1  0
 19 20  2  0
  2 21  1  0
 21 22  2  0
 22 23  1  0
 23 24  2  0
 24 25  1  0
 25 26  2  0
 20 10  1  0
 26 21  1  0
 19 13  1  0
  1 27  1  0
  1 28  1  0
  1 29  1  0
  2 30  1  6
  3 31  1  0
  6 32  1  0
  6 33  1  0
  7 34  1  0
 11 35  1  0
 12 36  1  0
 14 37  1  0
 15 38  1  0
 16 39  1  0
 22 40  1  0
 23 41  1  0
 24 42  1  0
 25 43  1  0
 26 44  1  0
M  END
>  <smiles>  (49) 
C[C@@H](NC(=O)CNC(=O)c1ccc2cccc(F)c2n1)c1ccccc1

>  <score_type>  (49) 
oracle

>  <origin>  (49) 
autodockgpu

>  <m_score__min__energy>  (49) 
-8.8200000000000003

>  <m_primary>  (49) 
energy

>  <rmsd>  (49) 
9.718025719624519

>  <m_score__min__rmsd>  (49) 
9.718025719624519

>  <meeko>  (49) 
{"free_energy": -7.75, "intermolecular_energy": -9.24, "internal_energy": -1.86, "cluster_size": 21, "cluster_id": 4, "rank_in_cluster": 14}

>  <energy>  (49) 
-7.65

>  <cluster_rmsd>  (49) 
0.0

>  <cluster>  (49) 
5

$$$$

     RDKit          3D

 44 46  0  0  0  0  0  0  0  0999 V2000
  139.6480   67.4860  226.5960 C   0  0  0  0  0  0  0  0  0  0  0  0
  139.7030   68.6270  225.6020 C   0  0  1  0  0  0  0  0  0  0  0  0
  138.3970   68.8840  224.9890 N   0  0  0  0  0  0  0  0  0  0  0  0
  138.2660   69.5490  223.7550 C   0  0  0  0  0  0  0  0  0  0  0  0
  139.3510   69.9140  223.1890 O   0  0  0  0  0  0  0  0  0  0  0  0
  137.0140   69.8580  223.0620 C   0  0  0  0  0  0  0  0  0  0  0  0
  136.1110   70.7280  223.7830 N   0  0  0  0  0  0  0  0  0  0  0  0
  135.3570   70.2690  224.9120 C   0  0  0  0  0  0  0  0  0  0  0  0
  135.4470   69.0770  225.3410 O   0  0  0  0  0  0  0  0  0  0  0  0
  134.4460   71.2050  225.6010 C   0  0  0  0  0  0  0  0  0  0  0  0
  133.4020   70.7120  226.3540 C   0  0  0  0  0  0  0  0  0  0  0  0
  132.5070   71.5160  227.0290 C   0  0  0  0  0  0  0  0  0  0  0  0
  132.6860   72.8770  226.9290 C   0  0  0  0  0  0  0  0  0  0  0  0
  131.7980   73.6950  227.5990 C   0  0  0  0  0  0  0  0  0  0  0  0
  131.9690   75.0780  227.5050 C   0  0  0  0  0  0  0  0  0  0  0  0
  133.0160   75.5720  226.7490 C   0  0  0  0  0  0  0  0  0  0  0  0
  133.9000   74.7520  226.0840 C   0  0  0  0  0  0  0  0  0  0  0  0
  134.9200   75.2940  225.3480 F   0  0  0  0  0  0  0  0  0  0  0  0
  133.7370   73.3780  226.1710 C   0  0  0  0  0  0  0  0  0  0  0  0
  134.5930   72.5350  225.5240 N   0  0  0  0  0  0  0  0  0  0  0  0
  140.1870   69.8280  226.3330 C   0  0  0  0  0  0  0  0  0  0  0  0
  140.9800   70.7480  225.6780 C   0  0  0  0  0  0  0  0  0  0  0  0
  141.4360   71.8760  226.3590 C   0  0  0  0  0  0  0  0  0  0  0  0
  141.1170   72.1020  227.6820 C   0  0  0  0  0  0  0  0  0  0  0  0
  140.3250   71.1850  228.3410 C   0  0  0  0  0  0  0  0  0  0  0  0
  139.8810   70.0750  227.6550 C   0  0  0  0  0  0  0  0  0  0  0  0
  139.6675   67.8897  227.6191 H   0  0  0  0  0  0  0  0  0  0  0  0
  138.7212   66.9130  226.4455 H   0  0  0  0  0  0  0  0  0  0  0  0
  140.5154   66.8265  226.4455 H   0  0  0  0  0  0  0  0  0  0  0  0
  140.3833   68.3676  224.7774 H   0  0  0  0  0  0  0  0  0  0  0  0
  137.5510   68.5490  225.4950 H   0  0  0  0  0  0  0  0  0  0  0  0
  137.2642   70.3430  222.1069 H   0  0  0  0  0  0  0  0  0  0  0  0
  136.4861   68.9004  222.9427 H   0  0  0  0  0  0  0  0  0  0  0  0
  135.9620   71.7290  223.5220 H   0  0  0  0  0  0  0  0  0  0  0  0
  133.2760   69.6212  226.4201 H   0  0  0  0  0  0  0  0  0  0  0  0
  131.6854   71.0877  227.6219 H   0  0  0  0  0  0  0  0  0  0  0  0
  130.9760   73.2679  228.1923 H   0  0  0  0  0  0  0  0  0  0  0  0
  131.2821   75.7629  228.0238 H   0  0  0  0  0  0  0  0  0  0  0  0
  133.1478   76.6616  226.6760 H   0  0  0  0  0  0  0  0  0  0  0  0
  141.2511   70.5922  224.6234 H   0  0  0  0  0  0  0  0  0  0  0  0
  142.0663   72.6044  225.8277 H   0  0  0  0  0  0  0  0  0  0  0  0
  141.4877   72.9976  228.2021 H   0  0  0  0  0  0  0  0  0  0  0  0
  140.0524   71.3369  229.3958 H   0  0  0  0  0  0  0  0  0  0  0  0
  139.2504   69.3490  228.1892 H   0  0  0  0  0  0  0  0  0  0  0  0
  1  2  1  0
  2  3  1  0
  3  4  1  0
  4  5  2  0
  4  6  1  0
  6  7  1  0
  7  8  1  0
  8  9  2  0
  8 10  1  0
 10 11  2  0
 11 12  1  0
 12 13  2  0
 13 14  1  0
 14 15  2  0
 15 16  1  0
 16 17  2  0
 17 18  1  0
 17 19  1  0
 19 20  2  0
  2 21  1  0
 21 22  2  0
 22 23  1  0
 23 24  2  0
 24 25  1  0
 25 26  2  0
 20 10  1  0
 26 21  1  0
 19 13  1  0
  1 27  1  0
  1 28  1  0
  1 29  1  0
  2 30  1  6
  3 31  1  0
  6 32  1  0
  6 33  1  0
  7 34  1  0
 11 35  1  0
 12 36  1  0
 14 37  1  0
 15 38  1  0
 16 39  1  0
 22 40  1  0
 23 41  1  0
 24 42  1  0
 25 43  1  0
 26 44  1  0
M  END
>  <smiles>  (50) 
C[C@@H](NC(=O)CNC(=O)c1ccc2cccc(F)c2n1)c1ccccc1

>  <score_type>  (50) 
oracle

>  <origin>  (50) 
autodockgpu

>  <m_score__min__energy>  (50) 
-8.8200000000000003

>  <m_primary>  (50) 
energy

>  <rmsd>  (50) 
10.558656553418677

>  <m_score__min__rmsd>  (50) 
10.558656553418677

>  <meeko>  (50) 
{"free_energy": -7.67, "intermolecular_energy": -9.16, "internal_energy": -1.99, "cluster_size": 13, "cluster_id": 2, "rank_in_cluster": 12}

>  <energy>  (50) 
-7.58

>  <cluster_rmsd>  (50) 
0.46

>  <cluster>  (50) 
5

$$$$
