
     RDKit          3D

 48 51  0  0  0  0  0  0  0  0999 V2000
  139.9480   73.6320  222.4730 O   0  0  0  0  0  0  0  0  0  0  0  0
  140.2770   72.4100  222.3880 C   0  0  0  0  0  0  0  0  0  0  0  0
  140.7250   71.8610  221.1540 N   0  0  0  0  0  0  0  0  0  0  0  0
  140.7900   72.7480  220.0130 C   0  0  0  0  0  0  0  0  0  0  0  0
  141.8720   73.7230  220.1010 C   0  0  0  0  0  0  0  0  0  0  0  0
  142.9510   73.3690  220.6510 O   0  0  0  0  0  0  0  0  0  0  0  0
  141.8010   75.0440  219.6150 N   0  0  0  0  0  0  0  0  0  0  0  0
  141.0740   75.5640  218.4420 C   0  0  0  0  0  0  0  0  0  0  0  0
  142.2570   76.2780  217.7730 C   0  0  0  0  0  0  0  0  0  0  0  0
  142.8560   77.0340  218.9300 C   0  0  0  0  0  0  0  0  0  0  0  0
  142.4300   76.2710  220.1330 C   0  0  1  0  0  0  0  0  0  0  0  0
  141.5120   77.0040  221.0240 C   0  0  0  0  0  0  0  0  0  0  0  0
  140.2850   76.4800  221.4170 C   0  0  0  0  0  0  0  0  0  0  0  0
  139.4290   77.1500  222.2660 C   0  0  0  0  0  0  0  0  0  0  0  0
  137.8840   76.4430  222.7360 Cl  0  0  0  0  0  0  0  0  0  0  0  0
  139.7460   78.3890  222.7760 C   0  0  0  0  0  0  0  0  0  0  0  0
  140.9560   78.9290  222.4000 C   0  0  0  0  0  0  0  0  0  0  0  0
  141.3970   80.5170  223.0340 Cl  0  0  0  0  0  0  0  0  0  0  0  0
  141.8160   78.2570  221.5480 C   0  0  0  0  0  0  0  0  0  0  0  0
  140.1950   71.5550  223.5690 C   0  0  0  0  0  0  0  0  0  0  0  0
  139.5960   70.3130  223.4800 C   0  0  0  0  0  0  0  0  0  0  0  0
  139.4810   69.4510  224.5510 C   0  0  0  0  0  0  0  0  0  0  0  0
  139.9940   69.8590  225.7630 C   0  0  0  0  0  0  0  0  0  0  0  0
  139.9150   69.0500  226.8760 C   0  0  0  0  0  0  0  0  0  0  0  0
  140.4170   69.4260  228.1040 C   0  0  0  0  0  0  0  0  0  0  0  0
  141.0160   70.6660  228.1890 C   0  0  0  0  0  0  0  0  0  0  0  0
  141.0960   71.4780  227.0810 C   0  0  0  0  0  0  0  0  0  0  0  0
  140.5950   71.1080  225.8490 C   0  0  0  0  0  0  0  0  0  0  0  0
  140.6850   71.9210  224.7690 N   0  0  0  0  0  0  0  0  0  0  0  0
  140.9880   70.8550  221.1160 H   0  0  0  0  0  0  0  0  0  0  0  0
  140.9392   72.1416  219.1074 H   0  0  0  0  0  0  0  0  0  0  0  0
  139.8455   73.3111  219.9838 H   0  0  0  0  0  0  0  0  0  0  0  0
  140.6613   74.7600  217.8149 H   0  0  0  0  0  0  0  0  0  0  0  0
  140.1878   76.1809  218.6519 H   0  0  0  0  0  0  0  0  0  0  0  0
  142.9734   75.5573  217.3518 H   0  0  0  0  0  0  0  0  0  0  0  0
  141.9695   76.9168  216.9249 H   0  0  0  0  0  0  0  0  0  0  0  0
  143.9530   77.0578  218.8528 H   0  0  0  0  0  0  0  0  0  0  0  0
  142.5254   78.0827  218.9608 H   0  0  0  0  0  0  0  0  0  0  0  0
  143.3036   76.0681  220.7699 H   0  0  0  0  0  0  0  0  0  0  0  0
  139.9856   75.4926  221.0358 H   0  0  0  0  0  0  0  0  0  0  0  0
  139.0636   78.9235  223.4532 H   0  0  0  0  0  0  0  0  0  0  0  0
  142.7715   78.7293  221.2762 H   0  0  0  0  0  0  0  0  0  0  0  0
  139.1910   69.9961  222.5076 H   0  0  0  0  0  0  0  0  0  0  0  0
  138.9956   68.4700  224.4410 H   0  0  0  0  0  0  0  0  0  0  0  0
  139.4326   68.0660  226.7810 H   0  0  0  0  0  0  0  0  0  0  0  0
  140.3430   68.7646  228.9798 H   0  0  0  0  0  0  0  0  0  0  0  0
  141.4321   71.0075  229.1483 H   0  0  0  0  0  0  0  0  0  0  0  0
  141.5785   72.4614  227.1809 H   0  0  0  0  0  0  0  0  0  0  0  0
  1  2  2  0
  2  3  1  0
  3  4  1  0
  4  5  1  0
  5  6  2  0
  5  7  1  0
  7  8  1  0
  8  9  1  0
  9 10  1  0
 10 11  1  0
 11 12  1  0
 12 13  2  0
 13 14  1  0
 14 15  1  0
 14 16  2  0
 16 17  1  0
 17 18  1  0
 17 19  2  0
  2 20  1  0
 20 21  2  0
 21 22  1  0
 22 23  2  0
 23 24  1  0
 24 25  2  0
 25 26  1  0
 26 27  2  0
 27 28  1  0
 28 29  2  0
 11  7  1  0
 19 12  1  0
 29 20  1  0
 28 23  1  0
  3 30  1  0
  4 31  1  0
  4 32  1  0
  8 33  1  0
  8 34  1  0
  9 35  1  0
  9 36  1  0
 10 37  1  0
 10 38  1  0
 11 39  1  1
 13 40  1  0
 16 41  1  0
 19 42  1  0
 21 43  1  0
 22 44  1  0
 24 45  1  0
 25 46  1  0
 26 47  1  0
 27 48  1  0
M  END
>  <smiles>  (1) 
O=C(NCC(=O)N1CCC[C@H]1c1cc(Cl)cc(Cl)c1)c1ccc2ccccc2n1

>  <score_type>  (1) 
oracle

>  <origin>  (1) 
autodockgpu

>  <m_score__min__energy>  (1) 
-9.2400000000000002

>  <m_primary>  (1) 
energy

>  <rmsd>  (1) 
2.038901995208139

>  <m_score__min__rmsd>  (1) 
2.038901995208139

>  <meeko>  (1) 
{"free_energy": -8.56, "intermolecular_energy": -10.05, "internal_energy": -1.61, "cluster_size": 27, "cluster_id": 1, "rank_in_cluster": 26}

>  <energy>  (1) 
-9.24

>  <cluster_rmsd>  (1) 
0.0

>  <cluster>  (1) 
1

$$$$

     RDKit          3D

 48 51  0  0  0  0  0  0  0  0999 V2000
  140.4090   71.5000  221.2810 O   0  0  0  0  0  0  0  0  0  0  0  0
  140.0300   72.0850  222.3400 C   0  0  0  0  0  0  0  0  0  0  0  0
  139.5790   73.4340  222.3050 N   0  0  0  0  0  0  0  0  0  0  0  0
  139.5700   74.1020  221.0210 C   0  0  0  0  0  0  0  0  0  0  0  0
  140.8350   74.7580  220.7040 C   0  0  0  0  0  0  0  0  0  0  0  0
  141.9060   74.1310  220.9320 O   0  0  0  0  0  0  0  0  0  0  0  0
  140.9510   76.0530  220.1610 N   0  0  0  0  0  0  0  0  0  0  0  0
  140.1350   76.6960  219.1140 C   0  0  0  0  0  0  0  0  0  0  0  0
  141.2880   77.1220  218.1940 C   0  0  0  0  0  0  0  0  0  0  0  0
  142.2460   77.7500  219.1700 C   0  0  0  0  0  0  0  0  0  0  0  0
  141.9130   77.1230  220.4760 C   0  0  1  0  0  0  0  0  0  0  0  0
  141.3620   78.0550  221.4760 C   0  0  0  0  0  0  0  0  0  0  0  0
  142.1590   78.9770  222.1480 C   0  0  0  0  0  0  0  0  0  0  0  0
  141.6500   79.8670  223.0710 C   0  0  0  0  0  0  0  0  0  0  0  0
  142.7010   81.0170  223.8950 Cl  0  0  0  0  0  0  0  0  0  0  0  0
  140.3080   79.8900  223.3810 C   0  0  0  0  0  0  0  0  0  0  0  0
  139.4990   78.9870  222.7290 C   0  0  0  0  0  0  0  0  0  0  0  0
  137.7740   78.9880  223.1020 Cl  0  0  0  0  0  0  0  0  0  0  0  0
  140.0100   78.0940  221.8020 C   0  0  0  0  0  0  0  0  0  0  0  0
  140.0570   71.3680  223.6120 C   0  0  0  0  0  0  0  0  0  0  0  0
  139.5710   70.0760  223.6840 C   0  0  0  0  0  0  0  0  0  0  0  0
  139.5620   69.3360  224.8480 C   0  0  0  0  0  0  0  0  0  0  0  0
  140.0680   69.9230  225.9870 C   0  0  0  0  0  0  0  0  0  0  0  0
  140.0920   69.2430  227.1860 C   0  0  0  0  0  0  0  0  0  0  0  0
  140.5900   69.8000  228.3450 C   0  0  0  0  0  0  0  0  0  0  0  0
  141.0750   71.0890  228.2690 C   0  0  0  0  0  0  0  0  0  0  0  0
  141.0530   71.7720  227.0750 C   0  0  0  0  0  0  0  0  0  0  0  0
  140.5560   71.2210  225.9110 C   0  0  0  0  0  0  0  0  0  0  0  0
  140.5430   71.9100  224.7450 N   0  0  0  0  0  0  0  0  0  0  0  0
  139.2740   73.8870  223.1900 H   0  0  0  0  0  0  0  0  0  0  0  0
  139.3580   73.3563  220.2407 H   0  0  0  0  0  0  0  0  0  0  0  0
  138.7986   74.8849  221.0657 H   0  0  0  0  0  0  0  0  0  0  0  0
  139.4485   75.9891  218.6251 H   0  0  0  0  0  0  0  0  0  0  0  0
  139.4565   77.4952  219.4470 H   0  0  0  0  0  0  0  0  0  0  0  0
  141.7402   76.2546  217.6910 H   0  0  0  0  0  0  0  0  0  0  0  0
  140.9814   77.7922  217.3774 H   0  0  0  0  0  0  0  0  0  0  0  0
  143.2866   77.5317  218.8882 H   0  0  0  0  0  0  0  0  0  0  0  0
  142.1558   78.8459  219.1976 H   0  0  0  0  0  0  0  0  0  0  0  0
  142.8321   76.7479  220.9498 H   0  0  0  0  0  0  0  0  0  0  0  0
  143.2379   78.9969  221.9346 H   0  0  0  0  0  0  0  0  0  0  0  0
  139.9008   80.5987  224.1171 H   0  0  0  0  0  0  0  0  0  0  0  0
  139.3236   77.3916  221.3066 H   0  0  0  0  0  0  0  0  0  0  0  0
  139.1719   69.6154  222.7683 H   0  0  0  0  0  0  0  0  0  0  0  0
  139.1638   68.3107  224.8662 H   0  0  0  0  0  0  0  0  0  0  0  0
  139.6986   68.2163  227.2195 H   0  0  0  0  0  0  0  0  0  0  0  0
  140.6001   69.2393  229.2913 H   0  0  0  0  0  0  0  0  0  0  0  0
  141.4819   71.5738  229.1686 H   0  0  0  0  0  0  0  0  0  0  0  0
  141.4473   72.7985  227.0467 H   0  0  0  0  0  0  0  0  0  0  0  0
  1  2  2  0
  2  3  1  0
  3  4  1  0
  4  5  1  0
  5  6  2  0
  5  7  1  0
  7  8  1  0
  8  9  1  0
  9 10  1  0
 10 11  1  0
 11 12  1  0
 12 13  2  0
 13 14  1  0
 14 15  1  0
 14 16  2  0
 16 17  1  0
 17 18  1  0
 17 19  2  0
  2 20  1  0
 20 21  2  0
 21 22  1  0
 22 23  2  0
 23 24  1  0
 24 25  2  0
 25 26  1  0
 26 27  2  0
 27 28  1  0
 28 29  2  0
 11  7  1  0
 19 12  1  0
 29 20  1  0
 28 23  1  0
  3 30  1  0
  4 31  1  0
  4 32  1  0
  8 33  1  0
  8 34  1  0
  9 35  1  0
  9 36  1  0
 10 37  1  0
 10 38  1  0
 11 39  1  1
 13 40  1  0
 16 41  1  0
 19 42  1  0
 21 43  1  0
 22 44  1  0
 24 45  1  0
 25 46  1  0
 26 47  1  0
 27 48  1  0
M  END
>  <smiles>  (2) 
O=C(NCC(=O)N1CCC[C@H]1c1cc(Cl)cc(Cl)c1)c1ccc2ccccc2n1

>  <score_type>  (2) 
oracle

>  <origin>  (2) 
autodockgpu

>  <m_score__min__energy>  (2) 
-9.2400000000000002

>  <m_primary>  (2) 
energy

>  <rmsd>  (2) 
1.503745376624946

>  <m_score__min__rmsd>  (2) 
1.503745376624946

>  <meeko>  (2) 
{"free_energy": -9.03, "intermolecular_energy": -10.52, "internal_energy": -1.25, "cluster_size": 27, "cluster_id": 1, "rank_in_cluster": 9}

>  <energy>  (2) 
-9.23

>  <cluster_rmsd>  (2) 
0.25

>  <cluster>  (2) 
1

$$$$

     RDKit          3D

 48 51  0  0  0  0  0  0  0  0999 V2000
  140.9780   71.8190  221.4580 O   0  0  0  0  0  0  0  0  0  0  0  0
  140.2390   72.2150  222.4100 C   0  0  0  0  0  0  0  0  0  0  0  0
  139.4570   73.3970  222.2800 N   0  0  0  0  0  0  0  0  0  0  0  0
  139.5410   74.1190  221.0280 C   0  0  0  0  0  0  0  0  0  0  0  0
  140.5000   75.2180  221.0600 C   0  0  0  0  0  0  0  0  0  0  0  0
  140.3750   76.0940  221.9590 O   0  0  0  0  0  0  0  0  0  0  0  0
  141.5650   75.3780  220.1500 N   0  0  0  0  0  0  0  0  0  0  0  0
  142.5890   76.4380  220.0970 C   0  0  0  0  0  0  0  0  0  0  0  0
  142.3880   76.8380  218.6290 C   0  0  0  0  0  0  0  0  0  0  0  0
  142.3730   75.4980  217.9430 C   0  0  0  0  0  0  0  0  0  0  0  0
  141.9540   74.5420  219.0010 C   0  0  1  0  0  0  0  0  0  0  0  0
  142.9890   73.5640  219.3810 C   0  0  0  0  0  0  0  0  0  0  0  0
  142.9850   72.2570  218.9030 C   0  0  0  0  0  0  0  0  0  0  0  0
  143.9590   71.3400  219.2370 C   0  0  0  0  0  0  0  0  0  0  0  0
  143.9100   69.6950  218.6040 Cl  0  0  0  0  0  0  0  0  0  0  0  0
  145.0020   71.6730  220.0730 C   0  0  0  0  0  0  0  0  0  0  0  0
  145.0270   72.9610  220.5600 C   0  0  0  0  0  0  0  0  0  0  0  0
  146.3490   73.4230  221.6350 Cl  0  0  0  0  0  0  0  0  0  0  0  0
  144.0490   73.8810  220.2240 C   0  0  0  0  0  0  0  0  0  0  0  0
  140.1890   71.4510  223.6530 C   0  0  0  0  0  0  0  0  0  0  0  0
  139.6300   70.1880  223.6620 C   0  0  0  0  0  0  0  0  0  0  0  0
  139.5470   69.4070  224.7960 C   0  0  0  0  0  0  0  0  0  0  0  0
  140.0520   69.9220  225.9710 C   0  0  0  0  0  0  0  0  0  0  0  0
  140.0040   69.1980  227.1430 C   0  0  0  0  0  0  0  0  0  0  0  0
  140.4980   69.6830  228.3350 C   0  0  0  0  0  0  0  0  0  0  0  0
  141.0570   70.9440  228.3220 C   0  0  0  0  0  0  0  0  0  0  0  0
  141.1070   71.6710  227.1540 C   0  0  0  0  0  0  0  0  0  0  0  0
  140.6140   71.1920  225.9570 C   0  0  0  0  0  0  0  0  0  0  0  0
  140.6730   71.9230  224.8190 N   0  0  0  0  0  0  0  0  0  0  0  0
  138.8610   73.6970  223.0780 H   0  0  0  0  0  0  0  0  0  0  0  0
  139.8426   73.4151  220.2384 H   0  0  0  0  0  0  0  0  0  0  0  0
  138.5500   74.5562  220.8364 H   0  0  0  0  0  0  0  0  0  0  0  0
  142.3722   77.2646  220.7896 H   0  0  0  0  0  0  0  0  0  0  0  0
  143.6089   76.1454  220.3872 H   0  0  0  0  0  0  0  0  0  0  0  0
  141.4368   77.3716  218.4861 H   0  0  0  0  0  0  0  0  0  0  0  0
  143.1563   77.5256  218.2458 H   0  0  0  0  0  0  0  0  0  0  0  0
  141.6543   75.4957  217.1103 H   0  0  0  0  0  0  0  0  0  0  0  0
  143.3503   75.2395  217.5094 H   0  0  0  0  0  0  0  0  0  0  0  0
  141.1300   73.9160  218.6281 H   0  0  0  0  0  0  0  0  0  0  0  0
  142.1721   71.9429  218.2317 H   0  0  0  0  0  0  0  0  0  0  0  0
  145.7802   70.9427  220.3397 H   0  0  0  0  0  0  0  0  0  0  0  0
  144.1122   74.8981  220.6380 H   0  0  0  0  0  0  0  0  0  0  0  0
  139.2316   69.7854  222.7190 H   0  0  0  0  0  0  0  0  0  0  0  0
  139.0926   68.4057  224.7639 H   0  0  0  0  0  0  0  0  0  0  0  0
  139.5541   68.1944  227.1264 H   0  0  0  0  0  0  0  0  0  0  0  0
  140.4484   69.0885  229.2592 H   0  0  0  0  0  0  0  0  0  0  0  0
  141.4651   71.3710  229.2500 H   0  0  0  0  0  0  0  0  0  0  0  0
  141.5580   72.6741  227.1755 H   0  0  0  0  0  0  0  0  0  0  0  0
  1  2  2  0
  2  3  1  0
  3  4  1  0
  4  5  1  0
  5  6  2  0
  5  7  1  0
  7  8  1  0
  8  9  1  0
  9 10  1  0
 10 11  1  0
 11 12  1  0
 12 13  2  0
 13 14  1  0
 14 15  1  0
 14 16  2  0
 16 17  1  0
 17 18  1  0
 17 19  2  0
  2 20  1  0
 20 21  2  0
 21 22  1  0
 22 23  2  0
 23 24  1  0
 24 25  2  0
 25 26  1  0
 26 27  2  0
 27 28  1  0
 28 29  2  0
 11  7  1  0
 19 12  1  0
 29 20  1  0
 28 23  1  0
  3 30  1  0
  4 31  1  0
  4 32  1  0
  8 33  1  0
  8 34  1  0
  9 35  1  0
  9 36  1  0
 10 37  1  0
 10 38  1  0
 11 39  1  6
 13 40  1  0
 16 41  1  0
 19 42  1  0
 21 43  1  0
 22 44  1  0
 24 45  1  0
 25 46  1  0
 26 47  1  0
 27 48  1  0
M  END
>  <smiles>  (3) 
O=C(NCC(=O)N1CCC[C@H]1c1cc(Cl)cc(Cl)c1)c1ccc2ccccc2n1

>  <score_type>  (3) 
oracle

>  <origin>  (3) 
autodockgpu

>  <m_score__min__energy>  (3) 
-9.2400000000000002

>  <m_primary>  (3) 
energy

>  <rmsd>  (3) 
2.246575490538264

>  <m_score__min__rmsd>  (3) 
2.246575490538264

>  <meeko>  (3) 
{"free_energy": -8.67, "intermolecular_energy": -10.17, "internal_energy": -1.62, "cluster_size": 13, "cluster_id": 3, "rank_in_cluster": 6}

>  <energy>  (3) 
-9.18

>  <cluster_rmsd>  (3) 
0.34

>  <cluster>  (3) 
1

$$$$

     RDKit          3D

 48 51  0  0  0  0  0  0  0  0999 V2000
  140.6090   72.9980  222.2670 O   0  0  0  0  0  0  0  0  0  0  0  0
  139.5820   72.4810  222.8020 C   0  0  0  0  0  0  0  0  0  0  0  0
  138.2770   72.8070  222.3380 N   0  0  0  0  0  0  0  0  0  0  0  0
  138.1740   73.7440  221.2400 C   0  0  0  0  0  0  0  0  0  0  0  0
  138.4180   75.1270  221.6390 C   0  0  0  0  0  0  0  0  0  0  0  0
  137.6240   75.6590  222.4620 O   0  0  0  0  0  0  0  0  0  0  0  0
  139.4830   75.9200  221.1660 N   0  0  0  0  0  0  0  0  0  0  0  0
  139.6560   76.5480  219.8430 C   0  0  0  0  0  0  0  0  0  0  0  0
  141.0510   75.9860  219.5350 C   0  0  0  0  0  0  0  0  0  0  0  0
  141.7860   76.2620  220.8200 C   0  0  0  0  0  0  0  0  0  0  0  0
  140.7170   76.3420  221.8500 C   0  0  1  0  0  0  0  0  0  0  0  0
  140.5590   77.6740  222.4600 C   0  0  0  0  0  0  0  0  0  0  0  0
  139.3090   78.2200  222.7370 C   0  0  0  0  0  0  0  0  0  0  0  0
  139.1510   79.4570  223.3250 C   0  0  0  0  0  0  0  0  0  0  0  0
  137.5450   80.1040  223.6560 Cl  0  0  0  0  0  0  0  0  0  0  0  0
  140.2370   80.2300  223.6750 C   0  0  0  0  0  0  0  0  0  0  0  0
  141.4850   79.7110  223.4110 C   0  0  0  0  0  0  0  0  0  0  0  0
  142.8990   80.6740  223.8450 Cl  0  0  0  0  0  0  0  0  0  0  0  0
  141.6430   78.4690  222.8200 C   0  0  0  0  0  0  0  0  0  0  0  0
  139.7390   71.5390  223.9070 C   0  0  0  0  0  0  0  0  0  0  0  0
  139.3000   70.2360  223.7680 C   0  0  0  0  0  0  0  0  0  0  0  0
  139.4140   69.2900  224.7660 C   0  0  0  0  0  0  0  0  0  0  0  0
  139.9970   69.6750  225.9540 C   0  0  0  0  0  0  0  0  0  0  0  0
  140.1440   68.7840  226.9950 C   0  0  0  0  0  0  0  0  0  0  0  0
  140.7220   69.1350  228.1960 C   0  0  0  0  0  0  0  0  0  0  0  0
  141.1600   70.4360  228.3310 C   0  0  0  0  0  0  0  0  0  0  0  0
  141.0150   71.3300  227.2950 C   0  0  0  0  0  0  0  0  0  0  0  0
  140.4370   70.9850  226.0890 C   0  0  0  0  0  0  0  0  0  0  0  0
  140.3040   71.8800  225.0810 N   0  0  0  0  0  0  0  0  0  0  0  0
  137.4540   72.3660  222.7960 H   0  0  0  0  0  0  0  0  0  0  0  0
  138.9118   73.4661  220.4730 H   0  0  0  0  0  0  0  0  0  0  0  0
  137.1430   73.6905  220.8604 H   0  0  0  0  0  0  0  0  0  0  0  0
  138.8999   76.2122  219.1180 H   0  0  0  0  0  0  0  0  0  0  0  0
  139.5523   77.6425  219.8056 H   0  0  0  0  0  0  0  0  0  0  0  0
  141.0099   74.9078  219.3209 H   0  0  0  0  0  0  0  0  0  0  0  0
  141.5241   76.4311  218.6472 H   0  0  0  0  0  0  0  0  0  0  0  0
  142.4872   75.4462  221.0499 H   0  0  0  0  0  0  0  0  0  0  0  0
  142.3874   77.1816  220.7688 H   0  0  0  0  0  0  0  0  0  0  0  0
  140.9761   75.6961  222.7019 H   0  0  0  0  0  0  0  0  0  0  0  0
  138.4108   77.6411  222.4762 H   0  0  0  0  0  0  0  0  0  0  0  0
  140.1125   81.2171  224.1441 H   0  0  0  0  0  0  0  0  0  0  0  0
  142.6606   78.0978  222.6284 H   0  0  0  0  0  0  0  0  0  0  0  0
  138.8372   69.9386  222.8155 H   0  0  0  0  0  0  0  0  0  0  0  0
  139.0514   68.2621  224.6182 H   0  0  0  0  0  0  0  0  0  0  0  0
  139.7861   67.7524  226.8622 H   0  0  0  0  0  0  0  0  0  0  0  0
  140.8296   68.4071  229.0137 H   0  0  0  0  0  0  0  0  0  0  0  0
  141.6278   70.7607  229.2721 H   0  0  0  0  0  0  0  0  0  0  0  0
  141.3738   72.3607  227.4329 H   0  0  0  0  0  0  0  0  0  0  0  0
  1  2  2  0
  2  3  1  0
  3  4  1  0
  4  5  1  0
  5  6  2  0
  5  7  1  0
  7  8  1  0
  8  9  1  0
  9 10  1  0
 10 11  1  0
 11 12  1  0
 12 13  2  0
 13 14  1  0
 14 15  1  0
 14 16  2  0
 16 17  1  0
 17 18  1  0
 17 19  2  0
  2 20  1  0
 20 21  2  0
 21 22  1  0
 22 23  2  0
 23 24  1  0
 24 25  2  0
 25 26  1  0
 26 27  2  0
 27 28  1  0
 28 29  2  0
 11  7  1  0
 19 12  1  0
 29 20  1  0
 28 23  1  0
  3 30  1  0
  4 31  1  0
  4 32  1  0
  8 33  1  0
  8 34  1  0
  9 35  1  0
  9 36  1  0
 10 37  1  0
 10 38  1  0
 11 39  1  1
 13 40  1  0
 16 41  1  0
 19 42  1  0
 21 43  1  0
 22 44  1  0
 24 45  1  0
 25 46  1  0
 26 47  1  0
 27 48  1  0
M  END
>  <smiles>  (4) 
O=C(NCC(=O)N1CCC[C@H]1c1cc(Cl)cc(Cl)c1)c1ccc2ccccc2n1

>  <score_type>  (4) 
oracle

>  <origin>  (4) 
autodockgpu

>  <m_score__min__energy>  (4) 
-9.2400000000000002

>  <m_primary>  (4) 
energy

>  <rmsd>  (4) 
1.8306833748172342

>  <m_score__min__rmsd>  (4) 
1.8306833748172342

>  <meeko>  (4) 
{"free_energy": -9.04, "intermolecular_energy": -10.53, "internal_energy": -1.49, "cluster_size": 27, "cluster_id": 1, "rank_in_cluster": 8}

>  <energy>  (4) 
-9.14

>  <cluster_rmsd>  (4) 
0.39

>  <cluster>  (4) 
1

$$$$

     RDKit          3D

 48 51  0  0  0  0  0  0  0  0999 V2000
  140.0030   70.9590  221.1710 O   0  0  0  0  0  0  0  0  0  0  0  0
  139.5910   71.6560  222.1470 C   0  0  0  0  0  0  0  0  0  0  0  0
  138.9250   72.8940  221.9270 N   0  0  0  0  0  0  0  0  0  0  0  0
  138.7400   73.3190  220.5560 C   0  0  0  0  0  0  0  0  0  0  0  0
  139.1110   74.7120  220.3300 C   0  0  0  0  0  0  0  0  0  0  0  0
  138.2620   75.4760  219.7940 O   0  0  0  0  0  0  0  0  0  0  0  0
  140.3600   75.2730  220.6650 N   0  0  0  0  0  0  0  0  0  0  0  0
  140.7960   75.8710  221.9410 C   0  0  0  0  0  0  0  0  0  0  0  0
  141.2960   77.2080  221.3750 C   0  0  0  0  0  0  0  0  0  0  0  0
  142.1290   76.7560  220.2050 C   0  0  0  0  0  0  0  0  0  0  0  0
  141.5730   75.4260  219.8440 C   0  0  1  0  0  0  0  0  0  0  0  0
  142.5020   74.3010  220.0550 C   0  0  0  0  0  0  0  0  0  0  0  0
  142.1380   72.9810  219.8070 C   0  0  0  0  0  0  0  0  0  0  0  0
  143.0070   71.9240  219.9830 C   0  0  0  0  0  0  0  0  0  0  0  0
  142.4970   70.2690  219.6530 Cl  0  0  0  0  0  0  0  0  0  0  0  0
  144.2990   72.1210  220.4190 C   0  0  0  0  0  0  0  0  0  0  0  0
  144.6820   73.4190  220.6720 C   0  0  0  0  0  0  0  0  0  0  0  0
  146.3300   73.7100  221.2340 Cl  0  0  0  0  0  0  0  0  0  0  0  0
  143.8100   74.4800  220.4950 C   0  0  0  0  0  0  0  0  0  0  0  0
  139.8010   71.1830  223.5130 C   0  0  0  0  0  0  0  0  0  0  0  0
  139.3830   69.9170  223.8740 C   0  0  0  0  0  0  0  0  0  0  0  0
  139.5460   69.4010  225.1430 C   0  0  0  0  0  0  0  0  0  0  0  0
  140.1590   70.1970  226.0870 C   0  0  0  0  0  0  0  0  0  0  0  0
  140.3560   69.7480  227.3750 C   0  0  0  0  0  0  0  0  0  0  0  0
  140.9640   70.5170  228.3440 C   0  0  0  0  0  0  0  0  0  0  0  0
  141.3810   71.7800  227.9790 C   0  0  0  0  0  0  0  0  0  0  0  0
  141.1860   72.2340  226.6950 C   0  0  0  0  0  0  0  0  0  0  0  0
  140.5780   71.4690  225.7200 C   0  0  0  0  0  0  0  0  0  0  0  0
  140.3960   71.9330  224.4610 N   0  0  0  0  0  0  0  0  0  0  0  0
  138.5980   73.4430  222.7480 H   0  0  0  0  0  0  0  0  0  0  0  0
  139.3590   72.6827  219.9064 H   0  0  0  0  0  0  0  0  0  0  0  0
  137.6682   73.2253  220.3270 H   0  0  0  0  0  0  0  0  0  0  0  0
  139.9639   76.0008  222.6486 H   0  0  0  0  0  0  0  0  0  0  0  0
  141.5205   75.2893  222.5298 H   0  0  0  0  0  0  0  0  0  0  0  0
  140.4589   77.8429  221.0490 H   0  0  0  0  0  0  0  0  0  0  0  0
  141.8470   77.8214  222.1031 H   0  0  0  0  0  0  0  0  0  0  0  0
  142.0325   77.4589  219.3644 H   0  0  0  0  0  0  0  0  0  0  0  0
  143.2008   76.7093  220.4479 H   0  0  0  0  0  0  0  0  0  0  0  0
  141.3662   75.3940  218.7641 H   0  0  0  0  0  0  0  0  0  0  0  0
  141.1165   72.7719  219.4566 H   0  0  0  0  0  0  0  0  0  0  0  0
  144.9932   71.2792  220.5587 H   0  0  0  0  0  0  0  0  0  0  0  0
  144.1634   75.4994  220.7096 H   0  0  0  0  0  0  0  0  0  0  0  0
  138.8965   69.2897  223.1126 H   0  0  0  0  0  0  0  0  0  0  0  0
  139.1983   68.3879  225.3934 H   0  0  0  0  0  0  0  0  0  0  0  0
  140.0147   68.7364  227.6401 H   0  0  0  0  0  0  0  0  0  0  0  0
  141.1106   70.1389  229.3665 H   0  0  0  0  0  0  0  0  0  0  0  0
  141.8726   72.4284  228.7192 H   0  0  0  0  0  0  0  0  0  0  0  0
  141.5281   73.2466  226.4351 H   0  0  0  0  0  0  0  0  0  0  0  0
  1  2  2  0
  2  3  1  0
  3  4  1  0
  4  5  1  0
  5  6  2  0
  5  7  1  0
  7  8  1  0
  8  9  1  0
  9 10  1  0
 10 11  1  0
 11 12  1  0
 12 13  2  0
 13 14  1  0
 14 15  1  0
 14 16  2  0
 16 17  1  0
 17 18  1  0
 17 19  2  0
  2 20  1  0
 20 21  2  0
 21 22  1  0
 22 23  2  0
 23 24  1  0
 24 25  2  0
 25 26  1  0
 26 27  2  0
 27 28  1  0
 28 29  2  0
 11  7  1  0
 19 12  1  0
 29 20  1  0
 28 23  1  0
  3 30  1  0
  4 31  1  0
  4 32  1  0
  8 33  1  0
  8 34  1  0
  9 35  1  0
  9 36  1  0
 10 37  1  0
 10 38  1  0
 11 39  1  6
 13 40  1  0
 16 41  1  0
 19 42  1  0
 21 43  1  0
 22 44  1  0
 24 45  1  0
 25 46  1  0
 26 47  1  0
 27 48  1  0
M  END
>  <smiles>  (5) 
O=C(NCC(=O)N1CCC[C@H]1c1cc(Cl)cc(Cl)c1)c1ccc2ccccc2n1

>  <score_type>  (5) 
oracle

>  <origin>  (5) 
autodockgpu

>  <m_score__min__energy>  (5) 
-9.2400000000000002

>  <m_primary>  (5) 
energy

>  <rmsd>  (5) 
2.246085767301308

>  <m_score__min__rmsd>  (5) 
2.246085767301308

>  <meeko>  (5) 
{"free_energy": -8.35, "intermolecular_energy": -9.84, "internal_energy": -1.95, "cluster_size": 13, "cluster_id": 3, "rank_in_cluster": 11}

>  <energy>  (5) 
-9.08

>  <cluster_rmsd>  (5) 
1.87

>  <cluster>  (5) 
1

$$$$

     RDKit          3D

 48 51  0  0  0  0  0  0  0  0999 V2000
  140.6500   73.2610  222.3840 O   0  0  0  0  0  0  0  0  0  0  0  0
  139.6270   72.5790  222.6970 C   0  0  0  0  0  0  0  0  0  0  0  0
  138.3700   72.8260  222.0790 N   0  0  0  0  0  0  0  0  0  0  0  0
  138.3090   73.8780  221.0870 C   0  0  0  0  0  0  0  0  0  0  0  0
  138.6320   75.1960  221.6240 C   0  0  0  0  0  0  0  0  0  0  0  0
  138.0100   75.5920  222.6470 O   0  0  0  0  0  0  0  0  0  0  0  0
  139.5940   76.0690  221.0780 N   0  0  0  0  0  0  0  0  0  0  0  0
  139.5950   76.7490  219.7690 C   0  0  0  0  0  0  0  0  0  0  0  0
  140.9820   76.2850  219.3020 C   0  0  0  0  0  0  0  0  0  0  0  0
  141.8260   76.5660  220.5170 C   0  0  0  0  0  0  0  0  0  0  0  0
  140.8650   76.5450  221.6510 C   0  0  1  0  0  0  0  0  0  0  0  0
  140.6900   77.8450  222.3240 C   0  0  0  0  0  0  0  0  0  0  0  0
  139.4350   78.3560  222.6380 C   0  0  0  0  0  0  0  0  0  0  0  0
  139.2630   79.5620  223.2850 C   0  0  0  0  0  0  0  0  0  0  0  0
  137.6490   80.1650  223.6620 Cl  0  0  0  0  0  0  0  0  0  0  0  0
  140.3390   80.3360  223.6590 C   0  0  0  0  0  0  0  0  0  0  0  0
  141.5920   79.8520  223.3580 C   0  0  0  0  0  0  0  0  0  0  0  0
  142.9950   80.8180  223.8220 Cl  0  0  0  0  0  0  0  0  0  0  0  0
  141.7650   78.6410  222.7090 C   0  0  0  0  0  0  0  0  0  0  0  0
  139.7410   71.5280  223.7040 C   0  0  0  0  0  0  0  0  0  0  0  0
  139.2340   70.2690  223.4440 C   0  0  0  0  0  0  0  0  0  0  0  0
  139.3030   69.2260  224.3450 C   0  0  0  0  0  0  0  0  0  0  0  0
  139.9110   69.4630  225.5580 C   0  0  0  0  0  0  0  0  0  0  0  0
  140.0170   68.4690  226.5070 C   0  0  0  0  0  0  0  0  0  0  0  0
  140.6180   68.6710  227.7300 C   0  0  0  0  0  0  0  0  0  0  0  0
  141.1240   69.9290  227.9860 C   0  0  0  0  0  0  0  0  0  0  0  0
  141.0200   70.9260  227.0430 C   0  0  0  0  0  0  0  0  0  0  0  0
  140.4200   70.7300  225.8160 C   0  0  0  0  0  0  0  0  0  0  0  0
  140.3280   71.7240  224.9000 N   0  0  0  0  0  0  0  0  0  0  0  0
  137.5490   72.2500  222.3560 H   0  0  0  0  0  0  0  0  0  0  0  0
  139.0236   73.6431  220.2844 H   0  0  0  0  0  0  0  0  0  0  0  0
  137.2730   73.9203  220.7197 H   0  0  0  0  0  0  0  0  0  0  0  0
  138.7901   76.3906  219.1105 H   0  0  0  0  0  0  0  0  0  0  0  0
  139.4244   77.8356  219.7844 H   0  0  0  0  0  0  0  0  0  0  0  0
  140.9830   75.2136  219.0527 H   0  0  0  0  0  0  0  0  0  0  0  0
  141.3352   76.7860  218.3887 H   0  0  0  0  0  0  0  0  0  0  0  0
  142.5947   75.7896  220.6444 H   0  0  0  0  0  0  0  0  0  0  0  0
  142.3625   77.5233  220.4412 H   0  0  0  0  0  0  0  0  0  0  0  0
  141.2484   75.8894  222.4468 H   0  0  0  0  0  0  0  0  0  0  0  0
  138.5437   77.7749  222.3591 H   0  0  0  0  0  0  0  0  0  0  0  0
  140.2032   81.2979  224.1751 H   0  0  0  0  0  0  0  0  0  0  0  0
  142.7865   78.2965  222.4903 H   0  0  0  0  0  0  0  0  0  0  0  0
  138.7520   70.0895  222.4716 H   0  0  0  0  0  0  0  0  0  0  0  0
  138.8860   68.2375  224.1024 H   0  0  0  0  0  0  0  0  0  0  0  0
  139.6053   67.4748  226.2787 H   0  0  0  0  0  0  0  0  0  0  0  0
  140.6915   67.8625  228.4722 H   0  0  0  0  0  0  0  0  0  0  0  0
  141.6132   70.1361  228.9492 H   0  0  0  0  0  0  0  0  0  0  0  0
  141.4317   71.9189  227.2768 H   0  0  0  0  0  0  0  0  0  0  0  0
  1  2  2  0
  2  3  1  0
  3  4  1  0
  4  5  1  0
  5  6  2  0
  5  7  1  0
  7  8  1  0
  8  9  1  0
  9 10  1  0
 10 11  1  0
 11 12  1  0
 12 13  2  0
 13 14  1  0
 14 15  1  0
 14 16  2  0
 16 17  1  0
 17 18  1  0
 17 19  2  0
  2 20  1  0
 20 21  2  0
 21 22  1  0
 22 23  2  0
 23 24  1  0
 24 25  2  0
 25 26  1  0
 26 27  2  0
 27 28  1  0
 28 29  2  0
 11  7  1  0
 19 12  1  0
 29 20  1  0
 28 23  1  0
  3 30  1  0
  4 31  1  0
  4 32  1  0
  8 33  1  0
  8 34  1  0
  9 35  1  0
  9 36  1  0
 10 37  1  0
 10 38  1  0
 11 39  1  1
 13 40  1  0
 16 41  1  0
 19 42  1  0
 21 43  1  0
 22 44  1  0
 24 45  1  0
 25 46  1  0
 26 47  1  0
 27 48  1  0
M  END
>  <smiles>  (6) 
O=C(NCC(=O)N1CCC[C@H]1c1cc(Cl)cc(Cl)c1)c1ccc2ccccc2n1

>  <score_type>  (6) 
oracle

>  <origin>  (6) 
autodockgpu

>  <m_score__min__energy>  (6) 
-9.2400000000000002

>  <m_primary>  (6) 
energy

>  <rmsd>  (6) 
1.7348324066896188

>  <m_score__min__rmsd>  (6) 
1.7348324066896188

>  <meeko>  (6) 
{"free_energy": -9.07, "intermolecular_energy": -10.56, "internal_energy": -1.43, "cluster_size": 27, "cluster_id": 1, "rank_in_cluster": 7}

>  <energy>  (6) 
-9.08

>  <cluster_rmsd>  (6) 
0.4

>  <cluster>  (6) 
1

$$$$

     RDKit          3D

 48 51  0  0  0  0  0  0  0  0999 V2000
  140.9220   71.4880  221.4050 O   0  0  0  0  0  0  0  0  0  0  0  0
  140.3300   72.0290  222.3870 C   0  0  0  0  0  0  0  0  0  0  0  0
  139.8000   73.3460  222.2820 N   0  0  0  0  0  0  0  0  0  0  0  0
  139.9640   74.0320  221.0190 C   0  0  0  0  0  0  0  0  0  0  0  0
  139.3580   75.3600  221.0010 C   0  0  0  0  0  0  0  0  0  0  0  0
  138.1930   75.4900  221.4670 O   0  0  0  0  0  0  0  0  0  0  0  0
  139.9810   76.5180  220.4950 N   0  0  0  0  0  0  0  0  0  0  0  0
  139.5640   77.3820  219.3740 C   0  0  0  0  0  0  0  0  0  0  0  0
  140.8860   77.3520  218.5950 C   0  0  0  0  0  0  0  0  0  0  0  0
  141.8920   77.6260  219.6810 C   0  0  0  0  0  0  0  0  0  0  0  0
  141.2180   77.1880  220.9310 C   0  0  1  0  0  0  0  0  0  0  0  0
  140.9260   78.2780  221.8790 C   0  0  0  0  0  0  0  0  0  0  0  0
  139.6250   78.6300  222.2280 C   0  0  0  0  0  0  0  0  0  0  0  0
  139.3420   79.6350  223.1280 C   0  0  0  0  0  0  0  0  0  0  0  0
  137.6760   80.0420  223.5370 Cl  0  0  0  0  0  0  0  0  0  0  0  0
  140.3450   80.3550  223.7390 C   0  0  0  0  0  0  0  0  0  0  0  0
  141.6410   80.0260  223.4100 C   0  0  0  0  0  0  0  0  0  0  0  0
  142.9530   80.9280  224.1730 Cl  0  0  0  0  0  0  0  0  0  0  0  0
  141.9250   79.0160  222.5060 C   0  0  0  0  0  0  0  0  0  0  0  0
  140.1890   71.2940  223.6410 C   0  0  0  0  0  0  0  0  0  0  0  0
  139.5510   70.0690  223.6520 C   0  0  0  0  0  0  0  0  0  0  0  0
  139.3800   69.3170  224.7960 C   0  0  0  0  0  0  0  0  0  0  0  0
  139.8760   69.8220  225.9790 C   0  0  0  0  0  0  0  0  0  0  0  0
  139.7420   69.1260  227.1610 C   0  0  0  0  0  0  0  0  0  0  0  0
  140.2250   69.6020  228.3610 C   0  0  0  0  0  0  0  0  0  0  0  0
  140.8620   70.8250  228.3460 C   0  0  0  0  0  0  0  0  0  0  0  0
  140.9980   71.5250  227.1680 C   0  0  0  0  0  0  0  0  0  0  0  0
  140.5160   71.0540  225.9630 C   0  0  0  0  0  0  0  0  0  0  0  0
  140.6610   71.7580  224.8150 N   0  0  0  0  0  0  0  0  0  0  0  0
  139.3190   73.7630  223.1050 H   0  0  0  0  0  0  0  0  0  0  0  0
  141.0399   74.1363  220.8153 H   0  0  0  0  0  0  0  0  0  0  0  0
  139.4538   73.4303  220.2524 H   0  0  0  0  0  0  0  0  0  0  0  0
  138.7303   76.9506  218.8006 H   0  0  0  0  0  0  0  0  0  0  0  0
  139.1789   78.3768  219.6424 H   0  0  0  0  0  0  0  0  0  0  0  0
  141.0552   76.3688  218.1316 H   0  0  0  0  0  0  0  0  0  0  0  0
  140.9267   78.0674  217.7604 H   0  0  0  0  0  0  0  0  0  0  0  0
  142.8129   77.0484  219.5128 H   0  0  0  0  0  0  0  0  0  0  0  0
  142.1924   78.6836  219.7160 H   0  0  0  0  0  0  0  0  0  0  0  0
  141.8879   76.5240  221.4970 H   0  0  0  0  0  0  0  0  0  0  0  0
  138.7889   78.0839  221.7668 H   0  0  0  0  0  0  0  0  0  0  0  0
  140.1206   81.1570  224.4577 H   0  0  0  0  0  0  0  0  0  0  0  0
  142.9765   78.7895  222.2758 H   0  0  0  0  0  0  0  0  0  0  0  0
  139.1603   69.6738  222.7027 H   0  0  0  0  0  0  0  0  0  0  0  0
  138.8645   68.3458  224.7652 H   0  0  0  0  0  0  0  0  0  0  0  0
  139.2296   68.1527  227.1461 H   0  0  0  0  0  0  0  0  0  0  0  0
  140.1071   69.0295  229.2929 H   0  0  0  0  0  0  0  0  0  0  0  0
  141.2638   71.2438  229.2804 H   0  0  0  0  0  0  0  0  0  0  0  0
  141.5109   72.4979  227.1878 H   0  0  0  0  0  0  0  0  0  0  0  0
  1  2  2  0
  2  3  1  0
  3  4  1  0
  4  5  1  0
  5  6  2  0
  5  7  1  0
  7  8  1  0
  8  9  1  0
  9 10  1  0
 10 11  1  0
 11 12  1  0
 12 13  2  0
 13 14  1  0
 14 15  1  0
 14 16  2  0
 16 17  1  0
 17 18  1  0
 17 19  2  0
  2 20  1  0
 20 21  2  0
 21 22  1  0
 22 23  2  0
 23 24  1  0
 24 25  2  0
 25 26  1  0
 26 27  2  0
 27 28  1  0
 28 29  2  0
 11  7  1  0
 19 12  1  0
 29 20  1  0
 28 23  1  0
  3 30  1  0
  4 31  1  0
  4 32  1  0
  8 33  1  0
  8 34  1  0
  9 35  1  0
  9 36  1  0
 10 37  1  0
 10 38  1  0
 11 39  1  1
 13 40  1  0
 16 41  1  0
 19 42  1  0
 21 43  1  0
 22 44  1  0
 24 45  1  0
 25 46  1  0
 26 47  1  0
 27 48  1  0
M  END
>  <smiles>  (7) 
O=C(NCC(=O)N1CCC[C@H]1c1cc(Cl)cc(Cl)c1)c1ccc2ccccc2n1

>  <score_type>  (7) 
oracle

>  <origin>  (7) 
autodockgpu

>  <m_score__min__energy>  (7) 
-9.2400000000000002

>  <m_primary>  (7) 
energy

>  <rmsd>  (7) 
1.7169673669496384

>  <m_score__min__rmsd>  (7) 
1.7169673669496384

>  <meeko>  (7) 
{"free_energy": -9.0, "intermolecular_energy": -10.49, "internal_energy": -1.36, "cluster_size": 27, "cluster_id": 1, "rank_in_cluster": 14}

>  <energy>  (7) 
-9.07

>  <cluster_rmsd>  (7) 
0.42

>  <cluster>  (7) 
1

$$$$

     RDKit          3D

 48 51  0  0  0  0  0  0  0  0999 V2000
  141.0380   71.5670  221.4020 O   0  0  0  0  0  0  0  0  0  0  0  0
  140.4380   72.1090  222.3790 C   0  0  0  0  0  0  0  0  0  0  0  0
  139.9190   73.4300  222.2720 N   0  0  0  0  0  0  0  0  0  0  0  0
  140.1040   74.1200  221.0130 C   0  0  0  0  0  0  0  0  0  0  0  0
  141.1750   75.1100  221.0500 C   0  0  0  0  0  0  0  0  0  0  0  0
  141.2870   75.8290  222.0800 O   0  0  0  0  0  0  0  0  0  0  0  0
  142.1010   75.3270  220.0100 N   0  0  0  0  0  0  0  0  0  0  0  0
  142.9840   76.4860  219.7800 C   0  0  0  0  0  0  0  0  0  0  0  0
  142.5680   76.7710  218.3310 C   0  0  0  0  0  0  0  0  0  0  0  0
  142.6260   75.3980  217.7160 C   0  0  0  0  0  0  0  0  0  0  0  0
  142.4450   74.4700  218.8630 C   0  0  1  0  0  0  0  0  0  0  0  0
  143.6220   73.6330  219.1600 C   0  0  0  0  0  0  0  0  0  0  0  0
  144.4320   73.8580  220.2680 C   0  0  0  0  0  0  0  0  0  0  0  0
  145.5240   73.0690  220.5650 C   0  0  0  0  0  0  0  0  0  0  0  0
  146.5180   73.3950  221.9840 Cl  0  0  0  0  0  0  0  0  0  0  0  0
  145.8760   72.0020  219.7680 C   0  0  0  0  0  0  0  0  0  0  0  0
  145.0900   71.7600  218.6640 C   0  0  0  0  0  0  0  0  0  0  0  0
  145.5120   70.4010  217.6190 Cl  0  0  0  0  0  0  0  0  0  0  0  0
  143.9940   72.5520  218.3670 C   0  0  0  0  0  0  0  0  0  0  0  0
  140.2770   71.3710  223.6290 C   0  0  0  0  0  0  0  0  0  0  0  0
  139.6320   70.1490  223.6280 C   0  0  0  0  0  0  0  0  0  0  0  0
  139.4420   69.3950  224.7670 C   0  0  0  0  0  0  0  0  0  0  0  0
  139.9250   69.8940  225.9580 C   0  0  0  0  0  0  0  0  0  0  0  0
  139.7720   69.1950  227.1360 C   0  0  0  0  0  0  0  0  0  0  0  0
  140.2410   69.6640  228.3430 C   0  0  0  0  0  0  0  0  0  0  0  0
  140.8860   70.8840  228.3410 C   0  0  0  0  0  0  0  0  0  0  0  0
  141.0410   71.5870  227.1670 C   0  0  0  0  0  0  0  0  0  0  0  0
  140.5730   71.1220  225.9540 C   0  0  0  0  0  0  0  0  0  0  0  0
  140.7360   71.8280  224.8100 N   0  0  0  0  0  0  0  0  0  0  0  0
  139.4320   73.8480  223.0910 H   0  0  0  0  0  0  0  0  0  0  0  0
  140.3428   73.3760  220.2388 H   0  0  0  0  0  0  0  0  0  0  0  0
  139.1697   74.6584  220.7960 H   0  0  0  0  0  0  0  0  0  0  0  0
  142.7569   77.3255  220.4536 H   0  0  0  0  0  0  0  0  0  0  0  0
  144.0576   76.3232  219.9558 H   0  0  0  0  0  0  0  0  0  0  0  0
  141.5518   77.1891  218.2813 H   0  0  0  0  0  0  0  0  0  0  0  0
  143.2027   77.5126  217.8238 H   0  0  0  0  0  0  0  0  0  0  0  0
  141.8199   75.2675  216.9790 H   0  0  0  0  0  0  0  0  0  0  0  0
  143.5686   75.2197  217.1777 H   0  0  0  0  0  0  0  0  0  0  0  0
  141.6589   73.7386  218.6240 H   0  0  0  0  0  0  0  0  0  0  0  0
  144.1921   74.6994  220.9347 H   0  0  0  0  0  0  0  0  0  0  0  0
  146.7462   71.3716  220.0032 H   0  0  0  0  0  0  0  0  0  0  0  0
  143.3967   72.3186  217.4733 H   0  0  0  0  0  0  0  0  0  0  0  0
  139.2517   69.7587  222.6725 H   0  0  0  0  0  0  0  0  0  0  0  0
  138.9218   68.4266  224.7265 H   0  0  0  0  0  0  0  0  0  0  0  0
  139.2550   68.2244  227.1111 H   0  0  0  0  0  0  0  0  0  0  0  0
  140.1069   69.0893  229.2713 H   0  0  0  0  0  0  0  0  0  0  0  0
  141.2783   71.2971  229.2820 H   0  0  0  0  0  0  0  0  0  0  0  0
  141.5581   72.5574  227.1968 H   0  0  0  0  0  0  0  0  0  0  0  0
  1  2  2  0
  2  3  1  0
  3  4  1  0
  4  5  1  0
  5  6  2  0
  5  7  1  0
  7  8  1  0
  8  9  1  0
  9 10  1  0
 10 11  1  0
 11 12  1  0
 12 13  2  0
 13 14  1  0
 14 15  1  0
 14 16  2  0
 16 17  1  0
 17 18  1  0
 17 19  2  0
  2 20  1  0
 20 21  2  0
 21 22  1  0
 22 23  2  0
 23 24  1  0
 24 25  2  0
 25 26  1  0
 26 27  2  0
 27 28  1  0
 28 29  2  0
 11  7  1  0
 19 12  1  0
 29 20  1  0
 28 23  1  0
  3 30  1  0
  4 31  1  0
  4 32  1  0
  8 33  1  0
  8 34  1  0
  9 35  1  0
  9 36  1  0
 10 37  1  0
 10 38  1  0
 11 39  1  6
 13 40  1  0
 16 41  1  0
 19 42  1  0
 21 43  1  0
 22 44  1  0
 24 45  1  0
 25 46  1  0
 26 47  1  0
 27 48  1  0
M  END
>  <smiles>  (8) 
O=C(NCC(=O)N1CCC[C@H]1c1cc(Cl)cc(Cl)c1)c1ccc2ccccc2n1

>  <score_type>  (8) 
oracle

>  <origin>  (8) 
autodockgpu

>  <m_score__min__energy>  (8) 
-9.2400000000000002

>  <m_primary>  (8) 
energy

>  <rmsd>  (8) 
2.413444165451713

>  <m_score__min__rmsd>  (8) 
2.413444165451713

>  <meeko>  (8) 
{"free_energy": -9.01, "intermolecular_energy": -10.5, "internal_energy": -1.53, "cluster_size": 13, "cluster_id": 3, "rank_in_cluster": 1}

>  <energy>  (8) 
-9.04

>  <cluster_rmsd>  (8) 
0.4

>  <cluster>  (8) 
1

$$$$

     RDKit          3D

 48 51  0  0  0  0  0  0  0  0999 V2000
  137.7500   76.0050  222.3560 O   0  0  0  0  0  0  0  0  0  0  0  0
  139.0020   76.2010  222.3250 C   0  0  0  0  0  0  0  0  0  0  0  0
  139.8910   75.1650  221.9210 N   0  0  0  0  0  0  0  0  0  0  0  0
  139.3090   73.8940  221.5490 C   0  0  0  0  0  0  0  0  0  0  0  0
  140.1060   72.7480  221.9780 C   0  0  0  0  0  0  0  0  0  0  0  0
  141.3560   72.8900  222.0630 O   0  0  0  0  0  0  0  0  0  0  0  0
  139.5780   71.4830  222.3030 N   0  0  0  0  0  0  0  0  0  0  0  0
  139.8230   70.1800  221.6550 C   0  0  0  0  0  0  0  0  0  0  0  0
  138.3560   69.7950  221.4190 C   0  0  0  0  0  0  0  0  0  0  0  0
  137.7400   70.0860  222.7620 C   0  0  0  0  0  0  0  0  0  0  0  0
  138.6380   71.1020  223.3710 C   0  0  1  0  0  0  0  0  0  0  0  0
  139.3550   70.6380  224.5720 C   0  0  0  0  0  0  0  0  0  0  0  0
  139.9900   71.5170  225.4430 C   0  0  0  0  0  0  0  0  0  0  0  0
  140.6470   71.0930  226.5790 C   0  0  0  0  0  0  0  0  0  0  0  0
  141.4360   72.2490  227.6520 Cl  0  0  0  0  0  0  0  0  0  0  0  0
  140.7110   69.7600  226.9170 C   0  0  0  0  0  0  0  0  0  0  0  0
  140.0900   68.8690  226.0690 C   0  0  0  0  0  0  0  0  0  0  0  0
  140.1510   67.1520  226.4700 Cl  0  0  0  0  0  0  0  0  0  0  0  0
  139.4300   69.2950  224.9290 C   0  0  0  0  0  0  0  0  0  0  0  0
  139.5400   77.5030  222.7090 C   0  0  0  0  0  0  0  0  0  0  0  0
  138.6820   78.5160  223.0900 C   0  0  0  0  0  0  0  0  0  0  0  0
  139.1150   79.7710  223.4660 C   0  0  0  0  0  0  0  0  0  0  0  0
  140.4720   80.0130  223.4580 C   0  0  0  0  0  0  0  0  0  0  0  0
  140.9770   81.2430  223.8220 C   0  0  0  0  0  0  0  0  0  0  0  0
  142.3270   81.5190  223.8250 C   0  0  0  0  0  0  0  0  0  0  0  0
  143.1810   80.5040  223.4450 C   0  0  0  0  0  0  0  0  0  0  0  0
  142.6820   79.2740  223.0810 C   0  0  0  0  0  0  0  0  0  0  0  0
  141.3310   78.9910  223.0750 C   0  0  0  0  0  0  0  0  0  0  0  0
  140.8600   77.7740  222.7140 N   0  0  0  0  0  0  0  0  0  0  0  0
  140.9140   75.3560  221.9060 H   0  0  0  0  0  0  0  0  0  0  0  0
  138.3124   73.8182  222.0083 H   0  0  0  0  0  0  0  0  0  0  0  0
  139.2613   73.8657  220.4504 H   0  0  0  0  0  0  0  0  0  0  0  0
  140.3864   70.2789  220.7154 H   0  0  0  0  0  0  0  0  0  0  0  0
  140.4310   69.4599  222.2223 H   0  0  0  0  0  0  0  0  0  0  0  0
  137.9026   70.4112  220.6286 H   0  0  0  0  0  0  0  0  0  0  0  0
  138.2171   68.7574  221.0811 H   0  0  0  0  0  0  0  0  0  0  0  0
  136.7225   70.4870  222.6444 H   0  0  0  0  0  0  0  0  0  0  0  0
  137.6469   69.1835  223.3839 H   0  0  0  0  0  0  0  0  0  0  0  0
  138.0411   71.9501  223.7377 H   0  0  0  0  0  0  0  0  0  0  0  0
  139.9673   72.5932  225.2167 H   0  0  0  0  0  0  0  0  0  0  0  0
  141.2344   69.4214  227.8233 H   0  0  0  0  0  0  0  0  0  0  0  0
  138.9483   68.5461  224.2831 H   0  0  0  0  0  0  0  0  0  0  0  0
  137.6010   78.3124  223.0939 H   0  0  0  0  0  0  0  0  0  0  0  0
  138.4005   80.5530  223.7625 H   0  0  0  0  0  0  0  0  0  0  0  0
  140.2749   82.0350  224.1218 H   0  0  0  0  0  0  0  0  0  0  0  0
  142.7084   82.5082  224.1184 H   0  0  0  0  0  0  0  0  0  0  0  0
  144.2669   80.6789  223.4329 H   0  0  0  0  0  0  0  0  0  0  0  0
  143.3881   78.4849  222.7829 H   0  0  0  0  0  0  0  0  0  0  0  0
  1  2  2  0
  2  3  1  0
  3  4  1  0
  4  5  1  0
  5  6  2  0
  5  7  1  0
  7  8  1  0
  8  9  1  0
  9 10  1  0
 10 11  1  0
 11 12  1  0
 12 13  2  0
 13 14  1  0
 14 15  1  0
 14 16  2  0
 16 17  1  0
 17 18  1  0
 17 19  2  0
  2 20  1  0
 20 21  2  0
 21 22  1  0
 22 23  2  0
 23 24  1  0
 24 25  2  0
 25 26  1  0
 26 27  2  0
 27 28  1  0
 28 29  2  0
 11  7  1  0
 19 12  1  0
 29 20  1  0
 28 23  1  0
  3 30  1  0
  4 31  1  0
  4 32  1  0
  8 33  1  0
  8 34  1  0
  9 35  1  0
  9 36  1  0
 10 37  1  0
 10 38  1  0
 11 39  1  1
 13 40  1  0
 16 41  1  0
 19 42  1  0
 21 43  1  0
 22 44  1  0
 24 45  1  0
 25 46  1  0
 26 47  1  0
 27 48  1  0
M  END
>  <smiles>  (9) 
O=C(NCC(=O)N1CCC[C@H]1c1cc(Cl)cc(Cl)c1)c1ccc2ccccc2n1

>  <score_type>  (9) 
oracle

>  <origin>  (9) 
autodockgpu

>  <m_score__min__energy>  (9) 
-9.2400000000000002

>  <m_primary>  (9) 
energy

>  <rmsd>  (9) 
8.298098321109856

>  <m_score__min__rmsd>  (9) 
8.298098321109856

>  <meeko>  (9) 
{"free_energy": -9.05, "intermolecular_energy": -10.54, "internal_energy": -1.75, "cluster_size": 3, "cluster_id": 2, "rank_in_cluster": 1}

>  <energy>  (9) 
-9.03

>  <cluster_rmsd>  (9) 
1.03

>  <cluster>  (9) 
1

$$$$

     RDKit          3D

 48 51  0  0  0  0  0  0  0  0999 V2000
  139.3280   70.8170  221.4710 O   0  0  0  0  0  0  0  0  0  0  0  0
  139.4800   71.4130  222.5800 C   0  0  0  0  0  0  0  0  0  0  0  0
  139.5000   72.8350  222.6450 N   0  0  0  0  0  0  0  0  0  0  0  0
  139.3410   73.5620  221.4040 C   0  0  0  0  0  0  0  0  0  0  0  0
  139.1170   74.9910  221.5970 C   0  0  0  0  0  0  0  0  0  0  0  0
  138.1880   75.3490  222.3720 O   0  0  0  0  0  0  0  0  0  0  0  0
  139.8650   76.0100  220.9750 N   0  0  0  0  0  0  0  0  0  0  0  0
  139.5960   76.7180  219.7090 C   0  0  0  0  0  0  0  0  0  0  0  0
  140.9610   76.4750  219.0490 C   0  0  0  0  0  0  0  0  0  0  0  0
  141.9100   76.8430  220.1590 C   0  0  0  0  0  0  0  0  0  0  0  0
  141.1200   76.6510  221.4040 C   0  0  1  0  0  0  0  0  0  0  0  0
  140.8540   77.8920  222.1530 C   0  0  0  0  0  0  0  0  0  0  0  0
  139.5630   78.3180  222.4480 C   0  0  0  0  0  0  0  0  0  0  0  0
  139.3060   79.4680  223.1660 C   0  0  0  0  0  0  0  0  0  0  0  0
  137.6500   79.9650  223.5150 Cl  0  0  0  0  0  0  0  0  0  0  0  0
  140.3260   80.2670  223.6330 C   0  0  0  0  0  0  0  0  0  0  0  0
  141.6130   79.8660  223.3530 C   0  0  0  0  0  0  0  0  0  0  0  0
  142.9460   80.8650  223.9360 Cl  0  0  0  0  0  0  0  0  0  0  0  0
  141.8710   78.7110  222.6330 C   0  0  0  0  0  0  0  0  0  0  0  0
  139.6350   70.6340  223.8060 C   0  0  0  0  0  0  0  0  0  0  0  0
  139.2010   69.3230  223.8470 C   0  0  0  0  0  0  0  0  0  0  0  0
  139.3140   68.5250  224.9670 C   0  0  0  0  0  0  0  0  0  0  0  0
  139.8910   69.0730  226.0920 C   0  0  0  0  0  0  0  0  0  0  0  0
  140.0370   68.3360  227.2470 C   0  0  0  0  0  0  0  0  0  0  0  0
  140.6090   68.8520  228.3900 C   0  0  0  0  0  0  0  0  0  0  0  0
  141.0420   70.1610  228.3450 C   0  0  0  0  0  0  0  0  0  0  0  0
  140.8980   70.9020  227.1940 C   0  0  0  0  0  0  0  0  0  0  0  0
  140.3260   70.3910  226.0460 C   0  0  0  0  0  0  0  0  0  0  0  0
  140.1940   71.1370  224.9230 N   0  0  0  0  0  0  0  0  0  0  0  0
  139.6260   73.2960  223.5690 H   0  0  0  0  0  0  0  0  0  0  0  0
  140.2524   73.4295  220.8025 H   0  0  0  0  0  0  0  0  0  0  0  0
  138.4502   73.1575  220.9012 H   0  0  0  0  0  0  0  0  0  0  0  0
  138.7701   76.2633  219.1423 H   0  0  0  0  0  0  0  0  0  0  0  0
  139.2763   77.7670  219.7956 H   0  0  0  0  0  0  0  0  0  0  0  0
  141.0807   75.4226  218.7522 H   0  0  0  0  0  0  0  0  0  0  0  0
  141.1159   77.0473  218.1225 H   0  0  0  0  0  0  0  0  0  0  0  0
  142.7907   76.1840  220.1519 H   0  0  0  0  0  0  0  0  0  0  0  0
  142.2910   77.8701  220.0599 H   0  0  0  0  0  0  0  0  0  0  0  0
  141.6937   76.0373  222.1141 H   0  0  0  0  0  0  0  0  0  0  0  0
  138.7138   77.7145  222.0951 H   0  0  0  0  0  0  0  0  0  0  0  0
  140.1215   81.1846  224.2042 H   0  0  0  0  0  0  0  0  0  0  0  0
  142.9162   78.4318  222.4339 H   0  0  0  0  0  0  0  0  0  0  0  0
  138.7433   68.8947  222.9431 H   0  0  0  0  0  0  0  0  0  0  0  0
  138.9551   67.4852  224.9620 H   0  0  0  0  0  0  0  0  0  0  0  0
  139.6831   67.2946  227.2573 H   0  0  0  0  0  0  0  0  0  0  0  0
  140.7158   68.2447  229.3009 H   0  0  0  0  0  0  0  0  0  0  0  0
  141.5048   70.6150  229.2336 H   0  0  0  0  0  0  0  0  0  0  0  0
  141.2529   71.9432  227.1886 H   0  0  0  0  0  0  0  0  0  0  0  0
  1  2  2  0
  2  3  1  0
  3  4  1  0
  4  5  1  0
  5  6  2  0
  5  7  1  0
  7  8  1  0
  8  9  1  0
  9 10  1  0
 10 11  1  0
 11 12  1  0
 12 13  2  0
 13 14  1  0
 14 15  1  0
 14 16  2  0
 16 17  1  0
 17 18  1  0
 17 19  2  0
  2 20  1  0
 20 21  2  0
 21 22  1  0
 22 23  2  0
 23 24  1  0
 24 25  2  0
 25 26  1  0
 26 27  2  0
 27 28  1  0
 28 29  2  0
 11  7  1  0
 19 12  1  0
 29 20  1  0
 28 23  1  0
  3 30  1  0
  4 31  1  0
  4 32  1  0
  8 33  1  0
  8 34  1  0
  9 35  1  0
  9 36  1  0
 10 37  1  0
 10 38  1  0
 11 39  1  1
 13 40  1  0
 16 41  1  0
 19 42  1  0
 21 43  1  0
 22 44  1  0
 24 45  1  0
 25 46  1  0
 26 47  1  0
 27 48  1  0
M  END
>  <smiles>  (10) 
O=C(NCC(=O)N1CCC[C@H]1c1cc(Cl)cc(Cl)c1)c1ccc2ccccc2n1

>  <score_type>  (10) 
oracle

>  <origin>  (10) 
autodockgpu

>  <m_score__min__energy>  (10) 
-9.2400000000000002

>  <m_primary>  (10) 
energy

>  <rmsd>  (10) 
1.5417371937307975

>  <m_score__min__rmsd>  (10) 
1.5417371937307975

>  <meeko>  (10) 
{"free_energy": -9.01, "intermolecular_energy": -10.5, "internal_energy": -1.45, "cluster_size": 27, "cluster_id": 1, "rank_in_cluster": 12}

>  <energy>  (10) 
-9.02

>  <cluster_rmsd>  (10) 
1.89

>  <cluster>  (10) 
1

$$$$

     RDKit          3D

 48 51  0  0  0  0  0  0  0  0999 V2000
  139.6520   70.8980  221.2130 O   0  0  0  0  0  0  0  0  0  0  0  0
  139.5800   71.6430  222.2370 C   0  0  0  0  0  0  0  0  0  0  0  0
  139.3010   73.0330  222.1080 N   0  0  0  0  0  0  0  0  0  0  0  0
  139.1050   73.5520  220.7710 C   0  0  0  0  0  0  0  0  0  0  0  0
  140.3040   73.4780  219.9420 C   0  0  0  0  0  0  0  0  0  0  0  0
  140.3520   72.5970  219.0410 O   0  0  0  0  0  0  0  0  0  0  0  0
  141.4230   74.3240  220.0760 N   0  0  0  0  0  0  0  0  0  0  0  0
  141.8140   75.1720  221.2180 C   0  0  0  0  0  0  0  0  0  0  0  0
  141.9700   76.4890  220.4470 C   0  0  0  0  0  0  0  0  0  0  0  0
  142.7900   76.0570  219.2600 C   0  0  0  0  0  0  0  0  0  0  0  0
  142.5100   74.6040  219.1230 C   0  0  1  0  0  0  0  0  0  0  0  0
  143.6740   73.7340  219.3720 C   0  0  0  0  0  0  0  0  0  0  0  0
  144.5250   73.9270  220.4540 C   0  0  0  0  0  0  0  0  0  0  0  0
  145.6050   73.1070  220.7070 C   0  0  0  0  0  0  0  0  0  0  0  0
  146.6550   73.3930  222.0940 Cl  0  0  0  0  0  0  0  0  0  0  0  0
  145.9020   72.0390  219.8890 C   0  0  0  0  0  0  0  0  0  0  0  0
  145.0730   71.8270  218.8100 C   0  0  0  0  0  0  0  0  0  0  0  0
  145.4230   70.4680  217.7400 Cl  0  0  0  0  0  0  0  0  0  0  0  0
  143.9890   72.6510  218.5580 C   0  0  0  0  0  0  0  0  0  0  0  0
  139.7850   71.0700  223.5640 C   0  0  0  0  0  0  0  0  0  0  0  0
  139.4290   69.7580  223.8100 C   0  0  0  0  0  0  0  0  0  0  0  0
  139.5920   69.1480  225.0360 C   0  0  0  0  0  0  0  0  0  0  0  0
  140.1400   69.8930  226.0580 C   0  0  0  0  0  0  0  0  0  0  0  0
  140.3320   69.3490  227.3100 C   0  0  0  0  0  0  0  0  0  0  0  0
  140.8760   70.0650  228.3540 C   0  0  0  0  0  0  0  0  0  0  0  0
  141.2320   71.3750  228.1050 C   0  0  0  0  0  0  0  0  0  0  0  0
  141.0410   71.9230  226.8570 C   0  0  0  0  0  0  0  0  0  0  0  0
  140.4970   71.2110  225.8070 C   0  0  0  0  0  0  0  0  0  0  0  0
  140.3170   71.7690  224.5860 N   0  0  0  0  0  0  0  0  0  0  0  0
  139.2480   73.6180  222.9660 H   0  0  0  0  0  0  0  0  0  0  0  0
  138.3075   72.9713  220.2844 H   0  0  0  0  0  0  0  0  0  0  0  0
  138.8418   74.6155  220.8694 H   0  0  0  0  0  0  0  0  0  0  0  0
  141.0288   75.2273  221.9864 H   0  0  0  0  0  0  0  0  0  0  0  0
  142.6893   74.8387  221.7950 H   0  0  0  0  0  0  0  0  0  0  0  0
  140.9937   76.8884  220.1351 H   0  0  0  0  0  0  0  0  0  0  0  0
  142.4295   77.2972  221.0350 H   0  0  0  0  0  0  0  0  0  0  0  0
  142.4797   76.5997  218.3549 H   0  0  0  0  0  0  0  0  0  0  0  0
  143.8617   76.2655  219.3939 H   0  0  0  0  0  0  0  0  0  0  0  0
  142.2353   74.3777  218.0822 H   0  0  0  0  0  0  0  0  0  0  0  0
  144.3293   74.7676  221.1360 H   0  0  0  0  0  0  0  0  0  0  0  0
  146.7632   71.3845  220.0889 H   0  0  0  0  0  0  0  0  0  0  0  0
  143.3550   72.4418  217.6837 H   0  0  0  0  0  0  0  0  0  0  0  0
  138.9942   69.1711  222.9875 H   0  0  0  0  0  0  0  0  0  0  0  0
  139.2943   68.1008  225.1932 H   0  0  0  0  0  0  0  0  0  0  0  0
  140.0396   68.3027  227.4823 H   0  0  0  0  0  0  0  0  0  0  0  0
  141.0207   69.6110  229.3455 H   0  0  0  0  0  0  0  0  0  0  0  0
  141.6709   71.9846  228.9086 H   0  0  0  0  0  0  0  0  0  0  0  0
  141.3335   72.9701  226.6896 H   0  0  0  0  0  0  0  0  0  0  0  0
  1  2  2  0
  2  3  1  0
  3  4  1  0
  4  5  1  0
  5  6  2  0
  5  7  1  0
  7  8  1  0
  8  9  1  0
  9 10  1  0
 10 11  1  0
 11 12  1  0
 12 13  2  0
 13 14  1  0
 14 15  1  0
 14 16  2  0
 16 17  1  0
 17 18  1  0
 17 19  2  0
  2 20  1  0
 20 21  2  0
 21 22  1  0
 22 23  2  0
 23 24  1  0
 24 25  2  0
 25 26  1  0
 26 27  2  0
 27 28  1  0
 28 29  2  0
 11  7  1  0
 19 12  1  0
 29 20  1  0
 28 23  1  0
  3 30  1  0
  4 31  1  0
  4 32  1  0
  8 33  1  0
  8 34  1  0
  9 35  1  0
  9 36  1  0
 10 37  1  0
 10 38  1  0
 11 39  1  6
 13 40  1  0
 16 41  1  0
 19 42  1  0
 21 43  1  0
 22 44  1  0
 24 45  1  0
 25 46  1  0
 26 47  1  0
 27 48  1  0
M  END
>  <smiles>  (11) 
O=C(NCC(=O)N1CCC[C@H]1c1cc(Cl)cc(Cl)c1)c1ccc2ccccc2n1

>  <score_type>  (11) 
oracle

>  <origin>  (11) 
autodockgpu

>  <m_score__min__energy>  (11) 
-9.2400000000000002

>  <m_primary>  (11) 
energy

>  <rmsd>  (11) 
2.2863549858604113

>  <m_score__min__rmsd>  (11) 
2.2863549858604113

>  <meeko>  (11) 
{"free_energy": -8.46, "intermolecular_energy": -9.95, "internal_energy": -1.49, "cluster_size": 13, "cluster_id": 3, "rank_in_cluster": 10}

>  <energy>  (11) 
-9.02

>  <cluster_rmsd>  (11) 
0.61

>  <cluster>  (11) 
1

$$$$

     RDKit          3D

 48 51  0  0  0  0  0  0  0  0999 V2000
  140.3310   71.2800  221.2970 O   0  0  0  0  0  0  0  0  0  0  0  0
  140.0640   71.8870  222.3780 C   0  0  0  0  0  0  0  0  0  0  0  0
  139.7930   73.2830  222.3810 N   0  0  0  0  0  0  0  0  0  0  0  0
  139.8330   73.9740  221.1100 C   0  0  0  0  0  0  0  0  0  0  0  0
  140.2680   75.3630  221.2210 C   0  0  0  0  0  0  0  0  0  0  0  0
  140.1580   75.9340  222.3400 O   0  0  0  0  0  0  0  0  0  0  0  0
  140.8030   76.1220  220.1610 N   0  0  0  0  0  0  0  0  0  0  0  0
  140.2080   76.4310  218.8480 C   0  0  0  0  0  0  0  0  0  0  0  0
  141.3790   75.9520  217.9790 C   0  0  0  0  0  0  0  0  0  0  0  0
  142.5550   76.5960  218.6630 C   0  0  0  0  0  0  0  0  0  0  0  0
  142.0990   76.8130  220.0610 C   0  0  1  0  0  0  0  0  0  0  0  0
  141.9780   78.2300  220.4480 C   0  0  0  0  0  0  0  0  0  0  0  0
  141.8320   79.2460  219.5080 C   0  0  0  0  0  0  0  0  0  0  0  0
  141.6980   80.5730  219.8610 C   0  0  0  0  0  0  0  0  0  0  0  0
  141.5160   81.8230  218.6310 Cl  0  0  0  0  0  0  0  0  0  0  0  0
  141.7010   80.9680  221.1800 C   0  0  0  0  0  0  0  0  0  0  0  0
  141.8440   79.9810  222.1300 C   0  0  0  0  0  0  0  0  0  0  0  0
  141.8520   80.4510  223.8310 Cl  0  0  0  0  0  0  0  0  0  0  0  0
  141.9780   78.6490  221.7750 C   0  0  0  0  0  0  0  0  0  0  0  0
  140.0360   71.1450  223.6360 C   0  0  0  0  0  0  0  0  0  0  0  0
  139.5200   69.8630  223.6660 C   0  0  0  0  0  0  0  0  0  0  0  0
  139.4590   69.1010  224.8150 C   0  0  0  0  0  0  0  0  0  0  0  0
  139.9410   69.6550  225.9810 C   0  0  0  0  0  0  0  0  0  0  0  0
  139.9130   68.9520  227.1660 C   0  0  0  0  0  0  0  0  0  0  0  0
  140.3850   69.4750  228.3510 C   0  0  0  0  0  0  0  0  0  0  0  0
  140.9000   70.7550  228.3160 C   0  0  0  0  0  0  0  0  0  0  0  0
  140.9300   71.4610  227.1350 C   0  0  0  0  0  0  0  0  0  0  0  0
  140.4590   70.9430  225.9460 C   0  0  0  0  0  0  0  0  0  0  0  0
  140.4970   71.6540  224.7940 N   0  0  0  0  0  0  0  0  0  0  0  0
  139.5780   73.7530  223.2840 H   0  0  0  0  0  0  0  0  0  0  0  0
  140.5296   73.4421  220.4453 H   0  0  0  0  0  0  0  0  0  0  0  0
  138.8073   73.9847  220.7128 H   0  0  0  0  0  0  0  0  0  0  0  0
  139.2868   75.8597  218.6610 H   0  0  0  0  0  0  0  0  0  0  0  0
  139.8797   77.4695  218.6940 H   0  0  0  0  0  0  0  0  0  0  0  0
  141.4619   74.8552  217.9882 H   0  0  0  0  0  0  0  0  0  0  0  0
  141.2822   76.2177  216.9160 H   0  0  0  0  0  0  0  0  0  0  0  0
  143.4310   75.9312  218.6385 H   0  0  0  0  0  0  0  0  0  0  0  0
  142.8629   77.5316  218.1733 H   0  0  0  0  0  0  0  0  0  0  0  0
  142.8502   76.4166  220.7599 H   0  0  0  0  0  0  0  0  0  0  0  0
  141.8231   78.9803  218.4406 H   0  0  0  0  0  0  0  0  0  0  0  0
  141.5939   82.0256  221.4627 H   0  0  0  0  0  0  0  0  0  0  0  0
  142.0882   77.8962  222.5695 H   0  0  0  0  0  0  0  0  0  0  0  0
  139.1398   69.4294  222.7293 H   0  0  0  0  0  0  0  0  0  0  0  0
  139.0392   68.0843  224.8005 H   0  0  0  0  0  0  0  0  0  0  0  0
  139.4977   67.9334  227.1663 H   0  0  0  0  0  0  0  0  0  0  0  0
  140.3525   68.8961  229.2858 H   0  0  0  0  0  0  0  0  0  0  0  0
  141.2887   71.2135  229.2373 H   0  0  0  0  0  0  0  0  0  0  0  0
  141.3462   72.4792  227.1391 H   0  0  0  0  0  0  0  0  0  0  0  0
  1  2  2  0
  2  3  1  0
  3  4  1  0
  4  5  1  0
  5  6  2  0
  5  7  1  0
  7  8  1  0
  8  9  1  0
  9 10  1  0
 10 11  1  0
 11 12  1  0
 12 13  2  0
 13 14  1  0
 14 15  1  0
 14 16  2  0
 16 17  1  0
 17 18  1  0
 17 19  2  0
  2 20  1  0
 20 21  2  0
 21 22  1  0
 22 23  2  0
 23 24  1  0
 24 25  2  0
 25 26  1  0
 26 27  2  0
 27 28  1  0
 28 29  2  0
 11  7  1  0
 19 12  1  0
 29 20  1  0
 28 23  1  0
  3 30  1  0
  4 31  1  0
  4 32  1  0
  8 33  1  0
  8 34  1  0
  9 35  1  0
  9 36  1  0
 10 37  1  0
 10 38  1  0
 11 39  1  1
 13 40  1  0
 16 41  1  0
 19 42  1  0
 21 43  1  0
 22 44  1  0
 24 45  1  0
 25 46  1  0
 26 47  1  0
 27 48  1  0
M  END
>  <smiles>  (12) 
O=C(NCC(=O)N1CCC[C@H]1c1cc(Cl)cc(Cl)c1)c1ccc2ccccc2n1

>  <score_type>  (12) 
oracle

>  <origin>  (12) 
autodockgpu

>  <m_score__min__energy>  (12) 
-9.2400000000000002

>  <m_primary>  (12) 
energy

>  <rmsd>  (12) 
1.467520726448174

>  <m_score__min__rmsd>  (12) 
1.467520726448174

>  <meeko>  (12) 
{"free_energy": -8.89, "intermolecular_energy": -10.38, "internal_energy": -1.63, "cluster_size": 27, "cluster_id": 1, "rank_in_cluster": 20}

>  <energy>  (12) 
-9.01

>  <cluster_rmsd>  (12) 
0.67

>  <cluster>  (12) 
1

$$$$

     RDKit          3D

 48 51  0  0  0  0  0  0  0  0999 V2000
  138.7890   75.3320  221.6600 O   0  0  0  0  0  0  0  0  0  0  0  0
  139.9780   75.7390  221.8330 C   0  0  0  0  0  0  0  0  0  0  0  0
  141.0860   74.8920  221.5510 N   0  0  0  0  0  0  0  0  0  0  0  0
  140.8000   73.5600  221.0630 C   0  0  0  0  0  0  0  0  0  0  0  0
  141.9990   72.7570  220.8440 C   0  0  0  0  0  0  0  0  0  0  0  0
  141.9810   71.5480  221.2050 O   0  0  0  0  0  0  0  0  0  0  0  0
  143.1870   73.2350  220.2570 N   0  0  0  0  0  0  0  0  0  0  0  0
  144.0600   72.5820  219.2640 C   0  0  0  0  0  0  0  0  0  0  0  0
  145.3810   72.7240  220.0330 C   0  0  0  0  0  0  0  0  0  0  0  0
  145.3390   74.1690  220.4550 C   0  0  0  0  0  0  0  0  0  0  0  0
  143.8920   74.5110  220.4670 C   0  0  1  0  0  0  0  0  0  0  0  0
  143.4960   75.5100  219.4580 C   0  0  0  0  0  0  0  0  0  0  0  0
  142.9040   76.7200  219.8050 C   0  0  0  0  0  0  0  0  0  0  0  0
  142.5480   77.6700  218.8700 C   0  0  0  0  0  0  0  0  0  0  0  0
  141.8000   79.1890  219.3620 Cl  0  0  0  0  0  0  0  0  0  0  0  0
  142.7620   77.4680  217.5250 C   0  0  0  0  0  0  0  0  0  0  0  0
  143.3460   76.2770  217.1560 C   0  0  0  0  0  0  0  0  0  0  0  0
  143.6360   75.9840  215.4390 Cl  0  0  0  0  0  0  0  0  0  0  0  0
  143.7040   75.3240  218.0950 C   0  0  0  0  0  0  0  0  0  0  0  0
  140.2140   77.0930  222.3260 C   0  0  0  0  0  0  0  0  0  0  0  0
  139.1450   77.8910  222.6840 C   0  0  0  0  0  0  0  0  0  0  0  0
  139.2880   79.1790  223.1580 C   0  0  0  0  0  0  0  0  0  0  0  0
  140.5660   79.6820  223.2780 C   0  0  0  0  0  0  0  0  0  0  0  0
  140.7850   80.9600  223.7440 C   0  0  0  0  0  0  0  0  0  0  0  0
  142.0490   81.4950  223.8760 C   0  0  0  0  0  0  0  0  0  0  0  0
  143.1150   80.6950  223.5180 C   0  0  0  0  0  0  0  0  0  0  0  0
  142.9010   79.4180  223.0510 C   0  0  0  0  0  0  0  0  0  0  0  0
  141.6380   78.8770  222.9170 C   0  0  0  0  0  0  0  0  0  0  0  0
  141.4480   77.6180  222.4560 N   0  0  0  0  0  0  0  0  0  0  0  0
  142.0490   75.2540  221.7020 H   0  0  0  0  0  0  0  0  0  0  0  0
  140.1655   73.0465  221.8004 H   0  0  0  0  0  0  0  0  0  0  0  0
  140.2983   73.6695  220.0902 H   0  0  0  0  0  0  0  0  0  0  0  0
  143.7861   71.5304  219.0931 H   0  0  0  0  0  0  0  0  0  0  0  0
  144.0405   73.0017  218.2474 H   0  0  0  0  0  0  0  0  0  0  0  0
  145.4112   72.0532  220.9043 H   0  0  0  0  0  0  0  0  0  0  0  0
  146.2704   72.4583  219.4428 H   0  0  0  0  0  0  0  0  0  0  0  0
  145.7766   74.2946  221.4564 H   0  0  0  0  0  0  0  0  0  0  0  0
  145.9170   74.8187  219.7813 H   0  0  0  0  0  0  0  0  0  0  0  0
  143.6335   74.9901  221.4228 H   0  0  0  0  0  0  0  0  0  0  0  0
  142.7119   76.9278  220.8680 H   0  0  0  0  0  0  0  0  0  0  0  0
  142.4789   78.2246  216.7783 H   0  0  0  0  0  0  0  0  0  0  0  0
  144.1687   74.3880  217.7514 H   0  0  0  0  0  0  0  0  0  0  0  0
  138.1296   77.4795  222.5864 H   0  0  0  0  0  0  0  0  0  0  0  0
  138.4112   79.7845  223.4311 H   0  0  0  0  0  0  0  0  0  0  0  0
  139.9179   81.5774  224.0215 H   0  0  0  0  0  0  0  0  0  0  0  0
  142.2014   82.5177  224.2513 H   0  0  0  0  0  0  0  0  0  0  0  0
  144.1416   81.0801  223.6064 H   0  0  0  0  0  0  0  0  0  0  0  0
  143.7707   78.8043  222.7736 H   0  0  0  0  0  0  0  0  0  0  0  0
  1  2  2  0
  2  3  1  0
  3  4  1  0
  4  5  1  0
  5  6  2  0
  5  7  1  0
  7  8  1  0
  8  9  1  0
  9 10  1  0
 10 11  1  0
 11 12  1  0
 12 13  2  0
 13 14  1  0
 14 15  1  0
 14 16  2  0
 16 17  1  0
 17 18  1  0
 17 19  2  0
  2 20  1  0
 20 21  2  0
 21 22  1  0
 22 23  2  0
 23 24  1  0
 24 25  2  0
 25 26  1  0
 26 27  2  0
 27 28  1  0
 28 29  2  0
 11  7  1  0
 19 12  1  0
 29 20  1  0
 28 23  1  0
  3 30  1  0
  4 31  1  0
  4 32  1  0
  8 33  1  0
  8 34  1  0
  9 35  1  0
  9 36  1  0
 10 37  1  0
 10 38  1  0
 11 39  1  1
 13 40  1  0
 16 41  1  0
 19 42  1  0
 21 43  1  0
 22 44  1  0
 24 45  1  0
 25 46  1  0
 26 47  1  0
 27 48  1  0
M  END
>  <smiles>  (13) 
O=C(NCC(=O)N1CCC[C@H]1c1cc(Cl)cc(Cl)c1)c1ccc2ccccc2n1

>  <score_type>  (13) 
oracle

>  <origin>  (13) 
autodockgpu

>  <m_score__min__energy>  (13) 
-9.2400000000000002

>  <m_primary>  (13) 
energy

>  <rmsd>  (13) 
7.704545250319247

>  <m_score__min__rmsd>  (13) 
7.704545250319247

>  <meeko>  (13) 
{"free_energy": -8.08, "intermolecular_energy": -9.57, "internal_energy": -2.38, "cluster_size": 6, "cluster_id": 4, "rank_in_cluster": 1}

>  <energy>  (13) 
-9.0

>  <cluster_rmsd>  (13) 
0.37

>  <cluster>  (13) 
1

$$$$

     RDKit          3D

 48 51  0  0  0  0  0  0  0  0999 V2000
  139.7050   70.9840  221.2210 O   0  0  0  0  0  0  0  0  0  0  0  0
  139.4860   71.6800  222.2580 C   0  0  0  0  0  0  0  0  0  0  0  0
  138.9990   73.0130  222.1510 N   0  0  0  0  0  0  0  0  0  0  0  0
  138.7680   73.5330  220.8210 C   0  0  0  0  0  0  0  0  0  0  0  0
  139.0970   74.9490  220.6900 C   0  0  0  0  0  0  0  0  0  0  0  0
  138.1630   75.7580  220.4370 O   0  0  0  0  0  0  0  0  0  0  0  0
  140.3930   75.4850  220.8250 N   0  0  0  0  0  0  0  0  0  0  0  0
  141.0010   76.1640  221.9850 C   0  0  0  0  0  0  0  0  0  0  0  0
  141.4660   77.4310  221.2550 C   0  0  0  0  0  0  0  0  0  0  0  0
  142.1350   76.8570  220.0340 C   0  0  0  0  0  0  0  0  0  0  0  0
  141.5000   75.5250  219.8540 C   0  0  1  0  0  0  0  0  0  0  0  0
  142.4150   74.3850  220.0430 C   0  0  0  0  0  0  0  0  0  0  0  0
  143.7250   74.5510  220.4800 C   0  0  0  0  0  0  0  0  0  0  0  0
  144.5830   73.4880  220.6790 C   0  0  0  0  0  0  0  0  0  0  0  0
  146.2350   73.7510  221.2340 Cl  0  0  0  0  0  0  0  0  0  0  0  0
  144.1820   72.1900  220.4520 C   0  0  0  0  0  0  0  0  0  0  0  0
  142.8890   72.0010  220.0180 C   0  0  0  0  0  0  0  0  0  0  0  0
  142.3410   70.3500  219.7170 Cl  0  0  0  0  0  0  0  0  0  0  0  0
  142.0290   73.0670  219.8190 C   0  0  0  0  0  0  0  0  0  0  0  0
  139.7350   71.1080  223.5790 C   0  0  0  0  0  0  0  0  0  0  0  0
  139.4350   69.7820  223.8220 C   0  0  0  0  0  0  0  0  0  0  0  0
  139.6420   69.1720  225.0420 C   0  0  0  0  0  0  0  0  0  0  0  0
  140.1760   69.9330  226.0600 C   0  0  0  0  0  0  0  0  0  0  0  0
  140.4100   69.3900  227.3050 C   0  0  0  0  0  0  0  0  0  0  0  0
  140.9420   70.1220  228.3450 C   0  0  0  0  0  0  0  0  0  0  0  0
  141.2420   71.4460  228.0980 C   0  0  0  0  0  0  0  0  0  0  0  0
  141.0090   71.9930  226.8560 C   0  0  0  0  0  0  0  0  0  0  0  0
  140.4770   71.2660  225.8110 C   0  0  0  0  0  0  0  0  0  0  0  0
  140.2560   71.8220  224.5960 N   0  0  0  0  0  0  0  0  0  0  0  0
  138.8290   73.5590  223.0200 H   0  0  0  0  0  0  0  0  0  0  0  0
  139.3862   72.9637  220.1112 H   0  0  0  0  0  0  0  0  0  0  0  0
  137.6933   73.4273  220.6117 H   0  0  0  0  0  0  0  0  0  0  0  0
  140.2670   76.3815  222.7749 H   0  0  0  0  0  0  0  0  0  0  0  0
  141.7755   75.6022  222.5277 H   0  0  0  0  0  0  0  0  0  0  0  0
  140.6140   78.0706  220.9812 H   0  0  0  0  0  0  0  0  0  0  0  0
  142.1204   78.0772  221.8584 H   0  0  0  0  0  0  0  0  0  0  0  0
  141.9558   77.4951  219.1561 H   0  0  0  0  0  0  0  0  0  0  0  0
  143.2269   76.7881  220.1484 H   0  0  0  0  0  0  0  0  0  0  0  0
  141.1605   75.4157  218.8134 H   0  0  0  0  0  0  0  0  0  0  0  0
  144.0919   75.5696  220.6747 H   0  0  0  0  0  0  0  0  0  0  0  0
  144.8645   71.3420  220.6104 H   0  0  0  0  0  0  0  0  0  0  0  0
  141.0049   72.8654  219.4717 H   0  0  0  0  0  0  0  0  0  0  0  0
  139.0103   69.1830  223.0029 H   0  0  0  0  0  0  0  0  0  0  0  0
  139.3892   68.1128  225.1974 H   0  0  0  0  0  0  0  0  0  0  0  0
  140.1627   68.3318  227.4753 H   0  0  0  0  0  0  0  0  0  0  0  0
  141.1201   69.6691  229.3315 H   0  0  0  0  0  0  0  0  0  0  0  0
  141.6698   72.0681  228.8980 H   0  0  0  0  0  0  0  0  0  0  0  0
  141.2569   73.0518  226.6904 H   0  0  0  0  0  0  0  0  0  0  0  0
  1  2  2  0
  2  3  1  0
  3  4  1  0
  4  5  1  0
  5  6  2  0
  5  7  1  0
  7  8  1  0
  8  9  1  0
  9 10  1  0
 10 11  1  0
 11 12  1  0
 12 13  2  0
 13 14  1  0
 14 15  1  0
 14 16  2  0
 16 17  1  0
 17 18  1  0
 17 19  2  0
  2 20  1  0
 20 21  2  0
 21 22  1  0
 22 23  2  0
 23 24  1  0
 24 25  2  0
 25 26  1  0
 26 27  2  0
 27 28  1  0
 28 29  2  0
 11  7  1  0
 19 12  1  0
 29 20  1  0
 28 23  1  0
  3 30  1  0
  4 31  1  0
  4 32  1  0
  8 33  1  0
  8 34  1  0
  9 35  1  0
  9 36  1  0
 10 37  1  0
 10 38  1  0
 11 39  1  6
 13 40  1  0
 16 41  1  0
 19 42  1  0
 21 43  1  0
 22 44  1  0
 24 45  1  0
 25 46  1  0
 26 47  1  0
 27 48  1  0
M  END
>  <smiles>  (14) 
O=C(NCC(=O)N1CCC[C@H]1c1cc(Cl)cc(Cl)c1)c1ccc2ccccc2n1

>  <score_type>  (14) 
oracle

>  <origin>  (14) 
autodockgpu

>  <m_score__min__energy>  (14) 
-9.2400000000000002

>  <m_primary>  (14) 
energy

>  <rmsd>  (14) 
2.195060155789712

>  <m_score__min__rmsd>  (14) 
2.195060155789712

>  <meeko>  (14) 
{"free_energy": -8.48, "intermolecular_energy": -9.97, "internal_energy": -1.96, "cluster_size": 13, "cluster_id": 3, "rank_in_cluster": 7}

>  <energy>  (14) 
-9.0

>  <cluster_rmsd>  (14) 
0.72

>  <cluster>  (14) 
1

$$$$

     RDKit          3D

 48 51  0  0  0  0  0  0  0  0999 V2000
  140.6030   71.3760  221.3150 O   0  0  0  0  0  0  0  0  0  0  0  0
  140.2320   71.9790  222.3670 C   0  0  0  0  0  0  0  0  0  0  0  0
  139.8790   73.3570  222.3300 N   0  0  0  0  0  0  0  0  0  0  0  0
  139.9610   74.0330  221.0530 C   0  0  0  0  0  0  0  0  0  0  0  0
  140.3310   75.4400  221.1680 C   0  0  0  0  0  0  0  0  0  0  0  0
  140.2420   75.9900  222.3000 O   0  0  0  0  0  0  0  0  0  0  0  0
  140.7830   76.2390  220.0990 N   0  0  0  0  0  0  0  0  0  0  0  0
  140.0860   76.5960  218.8480 C   0  0  0  0  0  0  0  0  0  0  0  0
  141.1850   76.1520  217.8730 C   0  0  0  0  0  0  0  0  0  0  0  0
  142.4120   76.7730  218.4860 C   0  0  0  0  0  0  0  0  0  0  0  0
  142.0680   76.9370  219.9230 C   0  0  1  0  0  0  0  0  0  0  0  0
  141.9780   78.3380  220.3710 C   0  0  0  0  0  0  0  0  0  0  0  0
  141.7790   79.3900  219.4820 C   0  0  0  0  0  0  0  0  0  0  0  0
  141.6740   80.7020  219.8930 C   0  0  0  0  0  0  0  0  0  0  0  0
  141.4210   81.9990  218.7260 Cl  0  0  0  0  0  0  0  0  0  0  0  0
  141.7610   81.0470  221.2240 C   0  0  0  0  0  0  0  0  0  0  0  0
  141.9590   80.0230  222.1230 C   0  0  0  0  0  0  0  0  0  0  0  0
  142.0760   80.4270  223.8380 Cl  0  0  0  0  0  0  0  0  0  0  0  0
  142.0640   78.7060  221.7100 C   0  0  0  0  0  0  0  0  0  0  0  0
  140.1650   71.2520  223.6320 C   0  0  0  0  0  0  0  0  0  0  0  0
  139.5760   70.0030  223.6770 C   0  0  0  0  0  0  0  0  0  0  0  0
  139.4760   69.2570  224.8330 C   0  0  0  0  0  0  0  0  0  0  0  0
  139.9930   69.7940  225.9930 C   0  0  0  0  0  0  0  0  0  0  0  0
  139.9290   69.1050  227.1850 C   0  0  0  0  0  0  0  0  0  0  0  0
  140.4360   69.6120  228.3620 C   0  0  0  0  0  0  0  0  0  0  0  0
  141.0240   70.8590  228.3130 C   0  0  0  0  0  0  0  0  0  0  0  0
  141.0900   71.5510  227.1250 C   0  0  0  0  0  0  0  0  0  0  0  0
  140.5850   71.0490  225.9430 C   0  0  0  0  0  0  0  0  0  0  0  0
  140.6600   71.7460  224.7840 N   0  0  0  0  0  0  0  0  0  0  0  0
  139.5780   73.8250  223.2090 H   0  0  0  0  0  0  0  0  0  0  0  0
  140.7151   73.5229  220.4356 H   0  0  0  0  0  0  0  0  0  0  0  0
  138.9597   73.9952  220.5992 H   0  0  0  0  0  0  0  0  0  0  0  0
  139.1524   76.0302  218.7126 H   0  0  0  0  0  0  0  0  0  0  0  0
  139.7473   77.6388  218.7590 H   0  0  0  0  0  0  0  0  0  0  0  0
  141.2676   75.0558  217.8352 H   0  0  0  0  0  0  0  0  0  0  0  0
  141.0053   76.4567  216.8314 H   0  0  0  0  0  0  0  0  0  0  0  0
  143.2829   76.1116  218.3677 H   0  0  0  0  0  0  0  0  0  0  0  0
  142.6808   77.7269  218.0088 H   0  0  0  0  0  0  0  0  0  0  0  0
  142.8722   76.5172  220.5451 H   0  0  0  0  0  0  0  0  0  0  0  0
  141.7024   79.1658  218.4078 H   0  0  0  0  0  0  0  0  0  0  0  0
  141.6761   82.0930  221.5535 H   0  0  0  0  0  0  0  0  0  0  0  0
  142.2209   77.9232  222.4667 H   0  0  0  0  0  0  0  0  0  0  0  0
  139.1671   69.5832  222.7461 H   0  0  0  0  0  0  0  0  0  0  0  0
  138.9992   68.2657  224.8295 H   0  0  0  0  0  0  0  0  0  0  0  0
  139.4551   68.1124  227.1974 H   0  0  0  0  0  0  0  0  0  0  0  0
  140.3743   69.0451  229.3027 H   0  0  0  0  0  0  0  0  0  0  0  0
  141.4424   71.3028  229.2284 H   0  0  0  0  0  0  0  0  0  0  0  0
  141.5641   72.5436  227.1175 H   0  0  0  0  0  0  0  0  0  0  0  0
  1  2  2  0
  2  3  1  0
  3  4  1  0
  4  5  1  0
  5  6  2  0
  5  7  1  0
  7  8  1  0
  8  9  1  0
  9 10  1  0
 10 11  1  0
 11 12  1  0
 12 13  2  0
 13 14  1  0
 14 15  1  0
 14 16  2  0
 16 17  1  0
 17 18  1  0
 17 19  2  0
  2 20  1  0
 20 21  2  0
 21 22  1  0
 22 23  2  0
 23 24  1  0
 24 25  2  0
 25 26  1  0
 26 27  2  0
 27 28  1  0
 28 29  2  0
 11  7  1  0
 19 12  1  0
 29 20  1  0
 28 23  1  0
  3 30  1  0
  4 31  1  0
  4 32  1  0
  8 33  1  0
  8 34  1  0
  9 35  1  0
  9 36  1  0
 10 37  1  0
 10 38  1  0
 11 39  1  1
 13 40  1  0
 16 41  1  0
 19 42  1  0
 21 43  1  0
 22 44  1  0
 24 45  1  0
 25 46  1  0
 26 47  1  0
 27 48  1  0
M  END
>  <smiles>  (15) 
O=C(NCC(=O)N1CCC[C@H]1c1cc(Cl)cc(Cl)c1)c1ccc2ccccc2n1

>  <score_type>  (15) 
oracle

>  <origin>  (15) 
autodockgpu

>  <m_score__min__energy>  (15) 
-9.2400000000000002

>  <m_primary>  (15) 
energy

>  <rmsd>  (15) 
1.5073646403476475

>  <m_score__min__rmsd>  (15) 
1.5073646403476475

>  <meeko>  (15) 
{"free_energy": -8.91, "intermolecular_energy": -10.4, "internal_energy": -1.61, "cluster_size": 27, "cluster_id": 1, "rank_in_cluster": 18}

>  <energy>  (15) 
-8.97

>  <cluster_rmsd>  (15) 
0.69

>  <cluster>  (15) 
1

$$$$

     RDKit          3D

 48 51  0  0  0  0  0  0  0  0999 V2000
  138.7840   75.2580  221.7880 O   0  0  0  0  0  0  0  0  0  0  0  0
  139.9670   75.7050  221.8850 C   0  0  0  0  0  0  0  0  0  0  0  0
  141.0830   74.8900  221.5430 N   0  0  0  0  0  0  0  0  0  0  0  0
  140.8110   73.5450  221.0830 C   0  0  0  0  0  0  0  0  0  0  0  0
  142.0180   72.7520  220.8750 C   0  0  0  0  0  0  0  0  0  0  0  0
  142.0160   71.5510  221.2580 O   0  0  0  0  0  0  0  0  0  0  0  0
  143.1990   73.2340  220.2740 N   0  0  0  0  0  0  0  0  0  0  0  0
  144.0680   72.5780  219.2790 C   0  0  0  0  0  0  0  0  0  0  0  0
  145.3940   72.7330  220.0370 C   0  0  0  0  0  0  0  0  0  0  0  0
  145.3470   74.1810  220.4490 C   0  0  0  0  0  0  0  0  0  0  0  0
  143.8980   74.5150  220.4700 C   0  0  1  0  0  0  0  0  0  0  0  0
  143.4880   75.5050  219.4580 C   0  0  0  0  0  0  0  0  0  0  0  0
  142.8900   76.7130  219.8010 C   0  0  0  0  0  0  0  0  0  0  0  0
  142.5210   77.6540  218.8620 C   0  0  0  0  0  0  0  0  0  0  0  0
  141.7660   79.1710  219.3500 Cl  0  0  0  0  0  0  0  0  0  0  0  0
  142.7270   77.4450  217.5170 C   0  0  0  0  0  0  0  0  0  0  0  0
  143.3170   76.2550  217.1520 C   0  0  0  0  0  0  0  0  0  0  0  0
  143.5960   75.9530  215.4350 Cl  0  0  0  0  0  0  0  0  0  0  0  0
  143.6880   75.3120  218.0940 C   0  0  0  0  0  0  0  0  0  0  0  0
  140.1890   77.0700  222.3540 C   0  0  0  0  0  0  0  0  0  0  0  0
  139.1090   77.8750  222.6630 C   0  0  0  0  0  0  0  0  0  0  0  0
  139.2390   79.1730  223.1110 C   0  0  0  0  0  0  0  0  0  0  0  0
  140.5120   79.6800  223.2550 C   0  0  0  0  0  0  0  0  0  0  0  0
  140.7180   80.9690  223.6980 C   0  0  0  0  0  0  0  0  0  0  0  0
  141.9780   81.5070  223.8540 C   0  0  0  0  0  0  0  0  0  0  0  0
  143.0530   80.7000  223.5450 C   0  0  0  0  0  0  0  0  0  0  0  0
  142.8530   79.4130  223.1010 C   0  0  0  0  0  0  0  0  0  0  0  0
  141.5950   78.8670  222.9440 C   0  0  0  0  0  0  0  0  0  0  0  0
  141.4190   77.5980  222.5070 N   0  0  0  0  0  0  0  0  0  0  0  0
  142.0410   75.2840  221.6330 H   0  0  0  0  0  0  0  0  0  0  0  0
  140.1856   73.0390  221.8332 H   0  0  0  0  0  0  0  0  0  0  0  0
  140.3043   73.6291  220.1103 H   0  0  0  0  0  0  0  0  0  0  0  0
  143.7985   71.5237  219.1181 H   0  0  0  0  0  0  0  0  0  0  0  0
  144.0385   72.9897  218.2594 H   0  0  0  0  0  0  0  0  0  0  0  0
  145.4345   72.0687  220.9128 H   0  0  0  0  0  0  0  0  0  0  0  0
  146.2804   72.4681  219.4420 H   0  0  0  0  0  0  0  0  0  0  0  0
  145.7917   74.3163  221.4460 H   0  0  0  0  0  0  0  0  0  0  0  0
  145.9159   74.8290  219.7660 H   0  0  0  0  0  0  0  0  0  0  0  0
  143.6445   74.9992  221.4246 H   0  0  0  0  0  0  0  0  0  0  0  0
  142.7038   76.9267  220.8638 H   0  0  0  0  0  0  0  0  0  0  0  0
  142.4336   78.1947  216.7674 H   0  0  0  0  0  0  0  0  0  0  0  0
  144.1573   74.3773  217.7532 H   0  0  0  0  0  0  0  0  0  0  0  0
  138.0968   77.4605  222.5460 H   0  0  0  0  0  0  0  0  0  0  0  0
  138.3548   79.7838  223.3458 H   0  0  0  0  0  0  0  0  0  0  0  0
  139.8436   81.5924  223.9362 H   0  0  0  0  0  0  0  0  0  0  0  0
  142.1200   82.5379  224.2104 H   0  0  0  0  0  0  0  0  0  0  0  0
  144.0766   81.0876  223.6542 H   0  0  0  0  0  0  0  0  0  0  0  0
  143.7307   78.7946  222.8616 H   0  0  0  0  0  0  0  0  0  0  0  0
  1  2  2  0
  2  3  1  0
  3  4  1  0
  4  5  1  0
  5  6  2  0
  5  7  1  0
  7  8  1  0
  8  9  1  0
  9 10  1  0
 10 11  1  0
 11 12  1  0
 12 13  2  0
 13 14  1  0
 14 15  1  0
 14 16  2  0
 16 17  1  0
 17 18  1  0
 17 19  2  0
  2 20  1  0
 20 21  2  0
 21 22  1  0
 22 23  2  0
 23 24  1  0
 24 25  2  0
 25 26  1  0
 26 27  2  0
 27 28  1  0
 28 29  2  0
 11  7  1  0
 19 12  1  0
 29 20  1  0
 28 23  1  0
  3 30  1  0
  4 31  1  0
  4 32  1  0
  8 33  1  0
  8 34  1  0
  9 35  1  0
  9 36  1  0
 10 37  1  0
 10 38  1  0
 11 39  1  1
 13 40  1  0
 16 41  1  0
 19 42  1  0
 21 43  1  0
 22 44  1  0
 24 45  1  0
 25 46  1  0
 26 47  1  0
 27 48  1  0
M  END
>  <smiles>  (16) 
O=C(NCC(=O)N1CCC[C@H]1c1cc(Cl)cc(Cl)c1)c1ccc2ccccc2n1

>  <score_type>  (16) 
oracle

>  <origin>  (16) 
autodockgpu

>  <m_score__min__energy>  (16) 
-9.2400000000000002

>  <m_primary>  (16) 
energy

>  <rmsd>  (16) 
7.700020149579034

>  <m_score__min__rmsd>  (16) 
7.700020149579034

>  <meeko>  (16) 
{"free_energy": -8.06, "intermolecular_energy": -9.55, "internal_energy": -2.36, "cluster_size": 6, "cluster_id": 4, "rank_in_cluster": 4}

>  <energy>  (16) 
-8.95

>  <cluster_rmsd>  (16) 
1.8

>  <cluster>  (16) 
1

$$$$

     RDKit          3D

 48 51  0  0  0  0  0  0  0  0999 V2000
  141.0590   72.8090  222.3220 O   0  0  0  0  0  0  0  0  0  0  0  0
  140.0320   72.3960  222.9430 C   0  0  0  0  0  0  0  0  0  0  0  0
  138.7280   72.7960  222.5390 N   0  0  0  0  0  0  0  0  0  0  0  0
  138.6250   73.6850  221.4010 C   0  0  0  0  0  0  0  0  0  0  0  0
  138.7310   75.0960  221.7600 C   0  0  0  0  0  0  0  0  0  0  0  0
  137.9750   75.5390  222.6670 O   0  0  0  0  0  0  0  0  0  0  0  0
  139.6230   76.0080  221.1620 N   0  0  0  0  0  0  0  0  0  0  0  0
  139.5220   76.6830  219.8540 C   0  0  0  0  0  0  0  0  0  0  0  0
  140.9010   76.2790  219.3140 C   0  0  0  0  0  0  0  0  0  0  0  0
  141.7970   76.6010  220.4810 C   0  0  0  0  0  0  0  0  0  0  0  0
  140.9000   76.5420  221.6650 C   0  0  1  0  0  0  0  0  0  0  0  0
  140.7050   77.8360  222.3450 C   0  0  0  0  0  0  0  0  0  0  0  0
  139.4410   78.3270  222.6550 C   0  0  0  0  0  0  0  0  0  0  0  0
  139.2500   79.5270  223.3090 C   0  0  0  0  0  0  0  0  0  0  0  0
  137.6260   80.1060  223.6800 Cl  0  0  0  0  0  0  0  0  0  0  0  0
  140.3130   80.3130  223.6940 C   0  0  0  0  0  0  0  0  0  0  0  0
  141.5750   79.8480  223.3970 C   0  0  0  0  0  0  0  0  0  0  0  0
  142.9620   80.8290  223.8740 Cl  0  0  0  0  0  0  0  0  0  0  0  0
  141.7670   78.6430  222.7410 C   0  0  0  0  0  0  0  0  0  0  0  0
  140.1900   71.4990  224.0850 C   0  0  0  0  0  0  0  0  0  0  0  0
  140.9830   71.8770  225.1510 C   0  0  0  0  0  0  0  0  0  0  0  0
  141.1800   71.0850  226.2630 C   0  0  0  0  0  0  0  0  0  0  0  0
  140.5470   69.8610  226.3020 C   0  0  0  0  0  0  0  0  0  0  0  0
  140.6970   69.0170  227.3810 C   0  0  0  0  0  0  0  0  0  0  0  0
  140.0800   67.7870  227.4530 C   0  0  0  0  0  0  0  0  0  0  0  0
  139.2880   67.4140  226.3870 C   0  0  0  0  0  0  0  0  0  0  0  0
  139.1350   68.2520  225.3060 C   0  0  0  0  0  0  0  0  0  0  0  0
  139.7500   69.4860  225.2280 C   0  0  0  0  0  0  0  0  0  0  0  0
  139.5870   70.2970  224.1560 N   0  0  0  0  0  0  0  0  0  0  0  0
  137.9050   72.4410  223.0680 H   0  0  0  0  0  0  0  0  0  0  0  0
  139.4324   73.4428  220.6943 H   0  0  0  0  0  0  0  0  0  0  0  0
  137.6290   73.5349  220.9590 H   0  0  0  0  0  0  0  0  0  0  0  0
  138.6994   76.2867  219.2406 H   0  0  0  0  0  0  0  0  0  0  0  0
  139.3037   77.7609  219.8768 H   0  0  0  0  0  0  0  0  0  0  0  0
  140.9357   75.2078  219.0663 H   0  0  0  0  0  0  0  0  0  0  0  0
  141.1819   76.7924  218.3826 H   0  0  0  0  0  0  0  0  0  0  0  0
  142.6047   75.8593  220.5676 H   0  0  0  0  0  0  0  0  0  0  0  0
  142.2868   77.5802  220.3751 H   0  0  0  0  0  0  0  0  0  0  0  0
  141.3535   75.9069  222.4402 H   0  0  0  0  0  0  0  0  0  0  0  0
  138.5592   77.7356  222.3676 H   0  0  0  0  0  0  0  0  0  0  0  0
  140.1611   81.2696  224.2155 H   0  0  0  0  0  0  0  0  0  0  0  0
  142.7940   78.3130  222.5259 H   0  0  0  0  0  0  0  0  0  0  0  0
  141.4814   72.8568  225.1112 H   0  0  0  0  0  0  0  0  0  0  0  0
  141.8214   71.4192  227.0918 H   0  0  0  0  0  0  0  0  0  0  0  0
  141.3346   69.3379  228.2180 H   0  0  0  0  0  0  0  0  0  0  0  0
  140.2136   67.1296  228.3248 H   0  0  0  0  0  0  0  0  0  0  0  0
  138.7755   66.4408  226.4010 H   0  0  0  0  0  0  0  0  0  0  0  0
  138.4975   67.9259  224.4710 H   0  0  0  0  0  0  0  0  0  0  0  0
  1  2  2  0
  2  3  1  0
  3  4  1  0
  4  5  1  0
  5  6  2  0
  5  7  1  0
  7  8  1  0
  8  9  1  0
  9 10  1  0
 10 11  1  0
 11 12  1  0
 12 13  2  0
 13 14  1  0
 14 15  1  0
 14 16  2  0
 16 17  1  0
 17 18  1  0
 17 19  2  0
  2 20  1  0
 20 21  2  0
 21 22  1  0
 22 23  2  0
 23 24  1  0
 24 25  2  0
 25 26  1  0
 26 27  2  0
 27 28  1  0
 28 29  2  0
 11  7  1  0
 19 12  1  0
 29 20  1  0
 28 23  1  0
  3 30  1  0
  4 31  1  0
  4 32  1  0
  8 33  1  0
  8 34  1  0
  9 35  1  0
  9 36  1  0
 10 37  1  0
 10 38  1  0
 11 39  1  1
 13 40  1  0
 16 41  1  0
 19 42  1  0
 21 43  1  0
 22 44  1  0
 24 45  1  0
 25 46  1  0
 26 47  1  0
 27 48  1  0
M  END
>  <smiles>  (17) 
O=C(NCC(=O)N1CCC[C@H]1c1cc(Cl)cc(Cl)c1)c1ccc2ccccc2n1

>  <score_type>  (17) 
oracle

>  <origin>  (17) 
autodockgpu

>  <m_score__min__energy>  (17) 
-9.2400000000000002

>  <m_primary>  (17) 
energy

>  <rmsd>  (17) 
2.8554267036417555

>  <m_score__min__rmsd>  (17) 
2.8554267036417555

>  <meeko>  (17) 
{"free_energy": -8.97, "intermolecular_energy": -10.46, "internal_energy": -1.51, "cluster_size": 27, "cluster_id": 1, "rank_in_cluster": 15}

>  <energy>  (17) 
-8.92

>  <cluster_rmsd>  (17) 
0.73

>  <cluster>  (17) 
1

$$$$

     RDKit          3D

 48 51  0  0  0  0  0  0  0  0999 V2000
  139.8830   70.9970  221.1910 O   0  0  0  0  0  0  0  0  0  0  0  0
  139.5980   71.7020  222.2060 C   0  0  0  0  0  0  0  0  0  0  0  0
  139.0440   73.0040  222.0570 N   0  0  0  0  0  0  0  0  0  0  0  0
  138.8210   73.4830  220.7090 C   0  0  0  0  0  0  0  0  0  0  0  0
  139.1630   74.8920  220.5360 C   0  0  0  0  0  0  0  0  0  0  0  0
  138.2530   75.6850  220.1680 O   0  0  0  0  0  0  0  0  0  0  0  0
  140.4450   75.4370  220.7470 N   0  0  0  0  0  0  0  0  0  0  0  0
  140.9900   76.0850  221.9550 C   0  0  0  0  0  0  0  0  0  0  0  0
  141.4740   77.3790  221.2880 C   0  0  0  0  0  0  0  0  0  0  0  0
  142.2050   76.8510  220.0820 C   0  0  0  0  0  0  0  0  0  0  0  0
  141.5950   75.5190  219.8310 C   0  0  1  0  0  0  0  0  0  0  0  0
  142.5140   74.3830  220.0280 C   0  0  0  0  0  0  0  0  0  0  0  0
  143.8210   74.5540  220.4710 C   0  0  0  0  0  0  0  0  0  0  0  0
  144.6820   73.4960  220.6770 C   0  0  0  0  0  0  0  0  0  0  0  0
  146.3310   73.7670  221.2400 Cl  0  0  0  0  0  0  0  0  0  0  0  0
  144.2880   72.1960  220.4510 C   0  0  0  0  0  0  0  0  0  0  0  0
  142.9980   72.0000  220.0120 C   0  0  0  0  0  0  0  0  0  0  0  0
  142.4580   70.3470  219.7120 Cl  0  0  0  0  0  0  0  0  0  0  0  0
  142.1340   73.0630  219.8060 C   0  0  0  0  0  0  0  0  0  0  0  0
  139.8410   71.1720  223.5450 C   0  0  0  0  0  0  0  0  0  0  0  0
  139.5090   69.8620  223.8370 C   0  0  0  0  0  0  0  0  0  0  0  0
  139.7080   69.2920  225.0780 C   0  0  0  0  0  0  0  0  0  0  0  0
  140.2670   70.0750  226.0640 C   0  0  0  0  0  0  0  0  0  0  0  0
  140.4950   69.5720  227.3270 C   0  0  0  0  0  0  0  0  0  0  0  0
  141.0520   70.3270  228.3370 C   0  0  0  0  0  0  0  0  0  0  0  0
  141.3820   71.6330  228.0420 C   0  0  0  0  0  0  0  0  0  0  0  0
  141.1560   72.1410  226.7820 C   0  0  0  0  0  0  0  0  0  0  0  0
  140.5990   71.3900  225.7670 C   0  0  0  0  0  0  0  0  0  0  0  0
  140.3850   71.9080  224.5330 N   0  0  0  0  0  0  0  0  0  0  0  0
  138.8200   73.5570  222.9080 H   0  0  0  0  0  0  0  0  0  0  0  0
  139.4365   72.8865  220.0196 H   0  0  0  0  0  0  0  0  0  0  0  0
  137.7464   73.3789  220.4983 H   0  0  0  0  0  0  0  0  0  0  0  0
  140.2172   76.2698  222.7157 H   0  0  0  0  0  0  0  0  0  0  0  0
  141.7447   75.5141  222.5158 H   0  0  0  0  0  0  0  0  0  0  0  0
  140.6285   78.0188  220.9952 H   0  0  0  0  0  0  0  0  0  0  0  0
  142.0926   78.0118  221.9414 H   0  0  0  0  0  0  0  0  0  0  0  0
  142.0588   77.5149  219.2172 H   0  0  0  0  0  0  0  0  0  0  0  0
  143.2912   76.7898  220.2448 H   0  0  0  0  0  0  0  0  0  0  0  0
  141.3057   75.4389  218.7727 H   0  0  0  0  0  0  0  0  0  0  0  0
  144.1831   75.5744  220.6651 H   0  0  0  0  0  0  0  0  0  0  0  0
  144.9737   71.3515  220.6141 H   0  0  0  0  0  0  0  0  0  0  0  0
  141.1122   72.8565  219.4548 H   0  0  0  0  0  0  0  0  0  0  0  0
  139.0650   69.2446  223.0422 H   0  0  0  0  0  0  0  0  0  0  0  0
  139.4292   68.2460  225.2736 H   0  0  0  0  0  0  0  0  0  0  0  0
  140.2218   68.5274  227.5371 H   0  0  0  0  0  0  0  0  0  0  0  0
  141.2262   69.9048  229.3377 H   0  0  0  0  0  0  0  0  0  0  0  0
  141.8283   72.2728  228.8176 H   0  0  0  0  0  0  0  0  0  0  0  0
  141.4302   73.1863  226.5766 H   0  0  0  0  0  0  0  0  0  0  0  0
  1  2  2  0
  2  3  1  0
  3  4  1  0
  4  5  1  0
  5  6  2  0
  5  7  1  0
  7  8  1  0
  8  9  1  0
  9 10  1  0
 10 11  1  0
 11 12  1  0
 12 13  2  0
 13 14  1  0
 14 15  1  0
 14 16  2  0
 16 17  1  0
 17 18  1  0
 17 19  2  0
  2 20  1  0
 20 21  2  0
 21 22  1  0
 22 23  2  0
 23 24  1  0
 24 25  2  0
 25 26  1  0
 26 27  2  0
 27 28  1  0
 28 29  2  0
 11  7  1  0
 19 12  1  0
 29 20  1  0
 28 23  1  0
  3 30  1  0
  4 31  1  0
  4 32  1  0
  8 33  1  0
  8 34  1  0
  9 35  1  0
  9 36  1  0
 10 37  1  0
 10 38  1  0
 11 39  1  6
 13 40  1  0
 16 41  1  0
 19 42  1  0
 21 43  1  0
 22 44  1  0
 24 45  1  0
 25 46  1  0
 26 47  1  0
 27 48  1  0
M  END
>  <smiles>  (18) 
O=C(NCC(=O)N1CCC[C@H]1c1cc(Cl)cc(Cl)c1)c1ccc2ccccc2n1

>  <score_type>  (18) 
oracle

>  <origin>  (18) 
autodockgpu

>  <m_score__min__energy>  (18) 
-9.2400000000000002

>  <m_primary>  (18) 
energy

>  <rmsd>  (18) 
2.2370029955951374

>  <m_score__min__rmsd>  (18) 
2.2370029955951374

>  <meeko>  (18) 
{"free_energy": -8.47, "intermolecular_energy": -9.97, "internal_energy": -1.97, "cluster_size": 13, "cluster_id": 3, "rank_in_cluster": 8}

>  <energy>  (18) 
-8.91

>  <cluster_rmsd>  (18) 
1.8

>  <cluster>  (18) 
1

$$$$

     RDKit          3D

 48 51  0  0  0  0  0  0  0  0999 V2000
  140.6420   71.3120  221.3190 O   0  0  0  0  0  0  0  0  0  0  0  0
  140.2490   71.9430  222.3470 C   0  0  0  0  0  0  0  0  0  0  0  0
  139.9090   73.3220  222.2690 N   0  0  0  0  0  0  0  0  0  0  0  0
  140.0290   73.9670  220.9790 C   0  0  0  0  0  0  0  0  0  0  0  0
  140.2370   75.4090  221.0730 C   0  0  0  0  0  0  0  0  0  0  0  0
  139.9890   75.9770  222.1710 O   0  0  0  0  0  0  0  0  0  0  0  0
  140.6950   76.2220  220.0170 N   0  0  0  0  0  0  0  0  0  0  0  0
  140.0100   76.5890  218.7630 C   0  0  0  0  0  0  0  0  0  0  0  0
  141.1210   76.1610  217.7950 C   0  0  0  0  0  0  0  0  0  0  0  0
  142.3390   76.7810  218.4280 C   0  0  0  0  0  0  0  0  0  0  0  0
  141.9790   76.9270  219.8620 C   0  0  1  0  0  0  0  0  0  0  0  0
  141.8770   78.3230  220.3250 C   0  0  0  0  0  0  0  0  0  0  0  0
  141.9200   78.6630  221.6730 C   0  0  0  0  0  0  0  0  0  0  0  0
  141.8460   79.9680  222.1140 C   0  0  0  0  0  0  0  0  0  0  0  0
  141.9050   80.3460  223.8350 Cl  0  0  0  0  0  0  0  0  0  0  0  0
  141.7230   81.0180  221.2320 C   0  0  0  0  0  0  0  0  0  0  0  0
  141.6780   80.7070  219.8910 C   0  0  0  0  0  0  0  0  0  0  0  0
  141.5220   82.0280  218.7310 Cl  0  0  0  0  0  0  0  0  0  0  0  0
  141.7530   79.3970  219.4490 C   0  0  0  0  0  0  0  0  0  0  0  0
  140.1440   71.2460  223.6260 C   0  0  0  0  0  0  0  0  0  0  0  0
  139.5270   70.0120  223.6890 C   0  0  0  0  0  0  0  0  0  0  0  0
  139.3900   69.2940  224.8590 C   0  0  0  0  0  0  0  0  0  0  0  0
  139.8990   69.8450  226.0150 C   0  0  0  0  0  0  0  0  0  0  0  0
  139.7990   69.1850  227.2210 C   0  0  0  0  0  0  0  0  0  0  0  0
  140.2970   69.7060  228.3950 C   0  0  0  0  0  0  0  0  0  0  0  0
  140.9150   70.9380  228.3290 C   0  0  0  0  0  0  0  0  0  0  0  0
  141.0160   71.6020  227.1280 C   0  0  0  0  0  0  0  0  0  0  0  0
  140.5200   71.0850  225.9480 C   0  0  0  0  0  0  0  0  0  0  0  0
  140.6310   71.7540  224.7750 N   0  0  0  0  0  0  0  0  0  0  0  0
  139.5900   73.8120  223.1290 H   0  0  0  0  0  0  0  0  0  0  0  0
  140.8832   73.5248  220.4454 H   0  0  0  0  0  0  0  0  0  0  0  0
  139.0805   73.8081  220.4451 H   0  0  0  0  0  0  0  0  0  0  0  0
  139.0807   76.0203  218.6116 H   0  0  0  0  0  0  0  0  0  0  0  0
  139.6673   77.6311  218.6817 H   0  0  0  0  0  0  0  0  0  0  0  0
  141.2091   75.0656  217.7459 H   0  0  0  0  0  0  0  0  0  0  0  0
  140.9508   76.4764  216.7550 H   0  0  0  0  0  0  0  0  0  0  0  0
  143.2143   76.1250  218.3116 H   0  0  0  0  0  0  0  0  0  0  0  0
  142.6085   77.7414  217.9644 H   0  0  0  0  0  0  0  0  0  0  0  0
  142.7789   76.5034  220.4871 H   0  0  0  0  0  0  0  0  0  0  0  0
  142.0169   77.8589  222.4174 H   0  0  0  0  0  0  0  0  0  0  0  0
  141.6634   82.0589  221.5827 H   0  0  0  0  0  0  0  0  0  0  0  0
  141.7132   79.1984  218.3678 H   0  0  0  0  0  0  0  0  0  0  0  0
  139.1250   69.5804  222.7605 H   0  0  0  0  0  0  0  0  0  0  0  0
  138.8908   68.3138  224.8688 H   0  0  0  0  0  0  0  0  0  0  0  0
  139.3021   68.2040  227.2470 H   0  0  0  0  0  0  0  0  0  0  0  0
  140.2057   69.1619  229.3466 H   0  0  0  0  0  0  0  0  0  0  0  0
  141.3292   71.3918  229.2414 H   0  0  0  0  0  0  0  0  0  0  0  0
  141.5117   72.5838  227.1074 H   0  0  0  0  0  0  0  0  0  0  0  0
  1  2  2  0
  2  3  1  0
  3  4  1  0
  4  5  1  0
  5  6  2  0
  5  7  1  0
  7  8  1  0
  8  9  1  0
  9 10  1  0
 10 11  1  0
 11 12  1  0
 12 13  2  0
 13 14  1  0
 14 15  1  0
 14 16  2  0
 16 17  1  0
 17 18  1  0
 17 19  2  0
  2 20  1  0
 20 21  2  0
 21 22  1  0
 22 23  2  0
 23 24  1  0
 24 25  2  0
 25 26  1  0
 26 27  2  0
 27 28  1  0
 28 29  2  0
 11  7  1  0
 19 12  1  0
 29 20  1  0
 28 23  1  0
  3 30  1  0
  4 31  1  0
  4 32  1  0
  8 33  1  0
  8 34  1  0
  9 35  1  0
  9 36  1  0
 10 37  1  0
 10 38  1  0
 11 39  1  1
 13 40  1  0
 16 41  1  0
 19 42  1  0
 21 43  1  0
 22 44  1  0
 24 45  1  0
 25 46  1  0
 26 47  1  0
 27 48  1  0
M  END
>  <smiles>  (19) 
O=C(NCC(=O)N1CCC[C@H]1c1cc(Cl)cc(Cl)c1)c1ccc2ccccc2n1

>  <score_type>  (19) 
oracle

>  <origin>  (19) 
autodockgpu

>  <m_score__min__energy>  (19) 
-9.2400000000000002

>  <m_primary>  (19) 
energy

>  <rmsd>  (19) 
1.5018411968739291

>  <m_score__min__rmsd>  (19) 
1.5018411968739291

>  <meeko>  (19) 
{"free_energy": -8.82, "intermolecular_energy": -10.31, "internal_energy": -1.65, "cluster_size": 27, "cluster_id": 1, "rank_in_cluster": 22}

>  <energy>  (19) 
-8.9

>  <cluster_rmsd>  (19) 
1.87

>  <cluster>  (19) 
1

$$$$

     RDKit          3D

 48 51  0  0  0  0  0  0  0  0999 V2000
  137.6550   76.0720  222.2970 O   0  0  0  0  0  0  0  0  0  0  0  0
  138.9140   76.2190  222.3480 C   0  0  0  0  0  0  0  0  0  0  0  0
  139.7860   75.1330  222.0580 N   0  0  0  0  0  0  0  0  0  0  0  0
  139.1800   73.8670  221.7050 C   0  0  0  0  0  0  0  0  0  0  0  0
  140.1090   72.7430  221.7770 C   0  0  0  0  0  0  0  0  0  0  0  0
  141.3360   72.9710  221.5910 O   0  0  0  0  0  0  0  0  0  0  0  0
  139.7350   71.4100  222.0380 N   0  0  0  0  0  0  0  0  0  0  0  0
  140.2150   70.1690  221.4010 C   0  0  0  0  0  0  0  0  0  0  0  0
  138.8440   69.5920  221.0250 C   0  0  0  0  0  0  0  0  0  0  0  0
  138.0730   69.7650  222.3070 C   0  0  0  0  0  0  0  0  0  0  0  0
  138.7620   70.8790  223.0080 C   0  0  1  0  0  0  0  0  0  0  0  0
  139.4250   70.4890  224.2660 C   0  0  0  0  0  0  0  0  0  0  0  0
  140.0620   71.4150  225.0870 C   0  0  0  0  0  0  0  0  0  0  0  0
  140.6670   71.0620  226.2750 C   0  0  0  0  0  0  0  0  0  0  0  0
  141.4610   72.2740  227.2810 Cl  0  0  0  0  0  0  0  0  0  0  0  0
  140.6750   69.7580  226.7180 C   0  0  0  0  0  0  0  0  0  0  0  0
  140.0520   68.8230  225.9220 C   0  0  0  0  0  0  0  0  0  0  0  0
  140.0420   67.1420  226.4580 Cl  0  0  0  0  0  0  0  0  0  0  0  0
  139.4430   69.1780  224.7300 C   0  0  0  0  0  0  0  0  0  0  0  0
  139.4760   77.5180  222.7090 C   0  0  0  0  0  0  0  0  0  0  0  0
  138.6360   78.5610  223.0490 C   0  0  0  0  0  0  0  0  0  0  0  0
  139.0920   79.8140  223.4010 C   0  0  0  0  0  0  0  0  0  0  0  0
  140.4550   80.0240  223.4110 C   0  0  0  0  0  0  0  0  0  0  0  0
  140.9820   81.2500  223.7520 C   0  0  0  0  0  0  0  0  0  0  0  0
  142.3390   81.4950  223.7730 C   0  0  0  0  0  0  0  0  0  0  0  0
  143.1750   80.4510  223.4330 C   0  0  0  0  0  0  0  0  0  0  0  0
  142.6530   79.2240  223.0910 C   0  0  0  0  0  0  0  0  0  0  0  0
  141.2960   78.9730  223.0690 C   0  0  0  0  0  0  0  0  0  0  0  0
  140.8010   77.7580  222.7300 N   0  0  0  0  0  0  0  0  0  0  0  0
  140.8140   75.2840  222.1070 H   0  0  0  0  0  0  0  0  0  0  0  0
  138.3451   73.6749  222.3950 H   0  0  0  0  0  0  0  0  0  0  0  0
  138.8441   73.9461  220.6605 H   0  0  0  0  0  0  0  0  0  0  0  0
  140.8420   70.3667  220.5191 H   0  0  0  0  0  0  0  0  0  0  0  0
  140.8625   69.5255  222.0147 H   0  0  0  0  0  0  0  0  0  0  0  0
  138.3837   70.1579  220.2017 H   0  0  0  0  0  0  0  0  0  0  0  0
  138.8820   68.5531  220.6655 H   0  0  0  0  0  0  0  0  0  0  0  0
  137.0250   70.0260  222.0983 H   0  0  0  0  0  0  0  0  0  0  0  0
  138.0487   68.8440  222.9080 H   0  0  0  0  0  0  0  0  0  0  0  0
  138.0215   71.6279  223.3255 H   0  0  0  0  0  0  0  0  0  0  0  0
  140.0837   72.4699  224.7761 H   0  0  0  0  0  0  0  0  0  0  0  0
  141.1575   69.4760  227.6654 H   0  0  0  0  0  0  0  0  0  0  0  0
  138.9564   68.3956  224.1291 H   0  0  0  0  0  0  0  0  0  0  0  0
  137.5505   78.3832  223.0384 H   0  0  0  0  0  0  0  0  0  0  0  0
  138.3913   80.6198  223.6652 H   0  0  0  0  0  0  0  0  0  0  0  0
  140.2935   82.0656  224.0180 H   0  0  0  0  0  0  0  0  0  0  0  0
  142.7385   82.4819  224.0494 H   0  0  0  0  0  0  0  0  0  0  0  0
  144.2648   80.6002  223.4353 H   0  0  0  0  0  0  0  0  0  0  0  0
  143.3448   78.4113  222.8247 H   0  0  0  0  0  0  0  0  0  0  0  0
  1  2  2  0
  2  3  1  0
  3  4  1  0
  4  5  1  0
  5  6  2  0
  5  7  1  0
  7  8  1  0
  8  9  1  0
  9 10  1  0
 10 11  1  0
 11 12  1  0
 12 13  2  0
 13 14  1  0
 14 15  1  0
 14 16  2  0
 16 17  1  0
 17 18  1  0
 17 19  2  0
  2 20  1  0
 20 21  2  0
 21 22  1  0
 22 23  2  0
 23 24  1  0
 24 25  2  0
 25 26  1  0
 26 27  2  0
 27 28  1  0
 28 29  2  0
 11  7  1  0
 19 12  1  0
 29 20  1  0
 28 23  1  0
  3 30  1  0
  4 31  1  0
  4 32  1  0
  8 33  1  0
  8 34  1  0
  9 35  1  0
  9 36  1  0
 10 37  1  0
 10 38  1  0
 11 39  1  1
 13 40  1  0
 16 41  1  0
 19 42  1  0
 21 43  1  0
 22 44  1  0
 24 45  1  0
 25 46  1  0
 26 47  1  0
 27 48  1  0
M  END
>  <smiles>  (20) 
O=C(NCC(=O)N1CCC[C@H]1c1cc(Cl)cc(Cl)c1)c1ccc2ccccc2n1

>  <score_type>  (20) 
oracle

>  <origin>  (20) 
autodockgpu

>  <m_score__min__energy>  (20) 
-9.2400000000000002

>  <m_primary>  (20) 
energy

>  <rmsd>  (20) 
8.283669732069622

>  <m_score__min__rmsd>  (20) 
8.283669732069622

>  <meeko>  (20) 
{"free_energy": -8.72, "intermolecular_energy": -10.21, "internal_energy": -1.82, "cluster_size": 3, "cluster_id": 2, "rank_in_cluster": 3}

>  <energy>  (20) 
-8.89

>  <cluster_rmsd>  (20) 
1.78

>  <cluster>  (20) 
1

$$$$

     RDKit          3D

 48 51  0  0  0  0  0  0  0  0999 V2000
  140.6430   76.9640  218.4320 O   0  0  0  0  0  0  0  0  0  0  0  0
  141.8090   77.0370  218.9260 C   0  0  0  0  0  0  0  0  0  0  0  0
  142.3430   78.2870  219.3500 N   0  0  0  0  0  0  0  0  0  0  0  0
  141.5060   79.4570  219.1940 C   0  0  0  0  0  0  0  0  0  0  0  0
  141.5220   80.3360  220.3590 C   0  0  0  0  0  0  0  0  0  0  0  0
  141.8240   81.5490  220.1870 O   0  0  0  0  0  0  0  0  0  0  0  0
  141.2240   79.9270  221.6740 N   0  0  0  0  0  0  0  0  0  0  0  0
  140.3700   80.5860  222.6800 C   0  0  0  0  0  0  0  0  0  0  0  0
  141.3940   80.6200  223.8230 C   0  0  0  0  0  0  0  0  0  0  0  0
  141.9230   79.2100  223.8040 C   0  0  0  0  0  0  0  0  0  0  0  0
  141.6790   78.7390  222.4150 C   0  0  1  0  0  0  0  0  0  0  0  0
  140.7030   77.6400  222.3090 C   0  0  0  0  0  0  0  0  0  0  0  0
  141.0860   76.3340  222.0190 C   0  0  0  0  0  0  0  0  0  0  0  0
  140.1820   75.2950  221.9370 C   0  0  0  0  0  0  0  0  0  0  0  0
  140.7180   73.6560  221.5680 Cl  0  0  0  0  0  0  0  0  0  0  0  0
  138.8350   75.4970  222.1400 C   0  0  0  0  0  0  0  0  0  0  0  0
  138.4310   76.7820  222.4280 C   0  0  0  0  0  0  0  0  0  0  0  0
  136.7120   77.0790  222.6930 Cl  0  0  0  0  0  0  0  0  0  0  0  0
  139.3390   77.8240  222.5110 C   0  0  0  0  0  0  0  0  0  0  0  0
  142.6140   75.8270  219.0640 C   0  0  0  0  0  0  0  0  0  0  0  0
  142.2840   74.6960  218.3410 C   0  0  0  0  0  0  0  0  0  0  0  0
  142.9960   73.5170  218.4170 C   0  0  0  0  0  0  0  0  0  0  0  0
  144.0870   73.4770  219.2580 C   0  0  0  0  0  0  0  0  0  0  0  0
  144.8450   72.3330  219.3850 C   0  0  0  0  0  0  0  0  0  0  0  0
  145.9430   72.2580  220.2150 C   0  0  0  0  0  0  0  0  0  0  0  0
  146.2700   73.3890  220.9340 C   0  0  0  0  0  0  0  0  0  0  0  0
  145.5160   74.5340  220.8120 C   0  0  0  0  0  0  0  0  0  0  0  0
  144.4160   74.6160  219.9820 C   0  0  0  0  0  0  0  0  0  0  0  0
  143.6870   75.7520  219.8750 N   0  0  0  0  0  0  0  0  0  0  0  0
  143.3020   78.3150  219.7510 H   0  0  0  0  0  0  0  0  0  0  0  0
  141.8602   80.0262  218.3219 H   0  0  0  0  0  0  0  0  0  0  0  0
  140.4721   79.1040  219.0656 H   0  0  0  0  0  0  0  0  0  0  0  0
  140.0573   81.5935  222.3682 H   0  0  0  0  0  0  0  0  0  0  0  0
  139.4102   80.0958  222.9004 H   0  0  0  0  0  0  0  0  0  0  0  0
  142.1923   81.3501  223.6241 H   0  0  0  0  0  0  0  0  0  0  0  0
  140.9707   80.9242  224.7917 H   0  0  0  0  0  0  0  0  0  0  0  0
  142.9981   79.1950  224.0363 H   0  0  0  0  0  0  0  0  0  0  0  0
  141.4351   78.5703  224.5542 H   0  0  0  0  0  0  0  0  0  0  0  0
  142.6031   78.3063  222.0041 H   0  0  0  0  0  0  0  0  0  0  0  0
  142.1517   76.1216  221.8484 H   0  0  0  0  0  0  0  0  0  0  0  0
  138.1138   74.6690  222.0751 H   0  0  0  0  0  0  0  0  0  0  0  0
  138.9687   78.8330  222.7450 H   0  0  0  0  0  0  0  0  0  0  0  0
  141.4113   74.7382  217.6727 H   0  0  0  0  0  0  0  0  0  0  0  0
  142.7025   72.6373  217.8255 H   0  0  0  0  0  0  0  0  0  0  0  0
  144.5626   71.4447  218.8009 H   0  0  0  0  0  0  0  0  0  0  0  0
  146.5341   71.3343  220.3005 H   0  0  0  0  0  0  0  0  0  0  0  0
  147.1385   73.3757  221.6089 H   0  0  0  0  0  0  0  0  0  0  0  0
  145.8014   75.4192  221.3994 H   0  0  0  0  0  0  0  0  0  0  0  0
  1  2  2  0
  2  3  1  0
  3  4  1  0
  4  5  1  0
  5  6  2  0
  5  7  1  0
  7  8  1  0
  8  9  1  0
  9 10  1  0
 10 11  1  0
 11 12  1  0
 12 13  2  0
 13 14  1  0
 14 15  1  0
 14 16  2  0
 16 17  1  0
 17 18  1  0
 17 19  2  0
  2 20  1  0
 20 21  2  0
 21 22  1  0
 22 23  2  0
 23 24  1  0
 24 25  2  0
 25 26  1  0
 26 27  2  0
 27 28  1  0
 28 29  2  0
 11  7  1  0
 19 12  1  0
 29 20  1  0
 28 23  1  0
  3 30  1  0
  4 31  1  0
  4 32  1  0
  8 33  1  0
  8 34  1  0
  9 35  1  0
  9 36  1  0
 10 37  1  0
 10 38  1  0
 11 39  1  6
 13 40  1  0
 16 41  1  0
 19 42  1  0
 21 43  1  0
 22 44  1  0
 24 45  1  0
 25 46  1  0
 26 47  1  0
 27 48  1  0
M  END
>  <smiles>  (21) 
O=C(NCC(=O)N1CCC[C@H]1c1cc(Cl)cc(Cl)c1)c1ccc2ccccc2n1

>  <score_type>  (21) 
oracle

>  <origin>  (21) 
autodockgpu

>  <m_score__min__energy>  (21) 
-9.2400000000000002

>  <m_primary>  (21) 
energy

>  <rmsd>  (21) 
7.56190871894084

>  <m_score__min__rmsd>  (21) 
7.56190871894084

>  <meeko>  (21) 
{"free_energy": -7.52, "intermolecular_energy": -9.01, "internal_energy": -2.53, "cluster_size": 1, "cluster_id": 5, "rank_in_cluster": 1}

>  <energy>  (21) 
-8.84

>  <cluster_rmsd>  (21) 
1.71

>  <cluster>  (21) 
1

$$$$

     RDKit          3D

 48 51  0  0  0  0  0  0  0  0999 V2000
  138.7740   75.5110  221.6840 O   0  0  0  0  0  0  0  0  0  0  0  0
  139.9640   75.8930  221.8990 C   0  0  0  0  0  0  0  0  0  0  0  0
  141.0630   75.0180  221.6720 N   0  0  0  0  0  0  0  0  0  0  0  0
  140.7660   73.6870  221.1880 C   0  0  0  0  0  0  0  0  0  0  0  0
  141.9560   72.8590  221.0120 C   0  0  0  0  0  0  0  0  0  0  0  0
  141.9340   71.6810  221.4610 O   0  0  0  0  0  0  0  0  0  0  0  0
  143.1380   73.2830  220.3730 N   0  0  0  0  0  0  0  0  0  0  0  0
  143.9510   72.5790  219.3630 C   0  0  0  0  0  0  0  0  0  0  0  0
  145.3020   72.6860  220.0820 C   0  0  0  0  0  0  0  0  0  0  0  0
  145.3290   74.1390  220.4770 C   0  0  0  0  0  0  0  0  0  0  0  0
  143.8970   74.5350  220.5340 C   0  0  1  0  0  0  0  0  0  0  0  0
  143.5010   75.5300  219.5210 C   0  0  0  0  0  0  0  0  0  0  0  0
  142.8910   76.7330  219.8610 C   0  0  0  0  0  0  0  0  0  0  0  0
  142.5350   77.6790  218.9220 C   0  0  0  0  0  0  0  0  0  0  0  0
  141.7650   79.1890  219.4060 Cl  0  0  0  0  0  0  0  0  0  0  0  0
  142.7670   77.4800  217.5790 C   0  0  0  0  0  0  0  0  0  0  0  0
  143.3700   76.2960  217.2170 C   0  0  0  0  0  0  0  0  0  0  0  0
  143.6820   76.0060  215.5040 Cl  0  0  0  0  0  0  0  0  0  0  0  0
  143.7270   75.3470  218.1600 C   0  0  0  0  0  0  0  0  0  0  0  0
  140.2110   77.2470  222.3870 C   0  0  0  0  0  0  0  0  0  0  0  0
  139.1480   78.0590  222.7330 C   0  0  0  0  0  0  0  0  0  0  0  0
  139.3020   79.3470  223.2000 C   0  0  0  0  0  0  0  0  0  0  0  0
  140.5840   79.8380  223.3260 C   0  0  0  0  0  0  0  0  0  0  0  0
  140.8140   81.1160  223.7870 C   0  0  0  0  0  0  0  0  0  0  0  0
  142.0820   81.6380  223.9240 C   0  0  0  0  0  0  0  0  0  0  0  0
  143.1420   80.8250  223.5780 C   0  0  0  0  0  0  0  0  0  0  0  0
  142.9170   79.5480  223.1170 C   0  0  0  0  0  0  0  0  0  0  0  0
  141.6500   79.0190  222.9770 C   0  0  0  0  0  0  0  0  0  0  0  0
  141.4500   77.7590  222.5220 N   0  0  0  0  0  0  0  0  0  0  0  0
  142.0270   75.3610  221.8570 H   0  0  0  0  0  0  0  0  0  0  0  0
  140.1003   73.1928  221.9109 H   0  0  0  0  0  0  0  0  0  0  0  0
  140.2954   73.7964  220.1998 H   0  0  0  0  0  0  0  0  0  0  0  0
  143.6329   71.5354  219.2229 H   0  0  0  0  0  0  0  0  0  0  0  0
  143.9107   72.9799  218.3395 H   0  0  0  0  0  0  0  0  0  0  0  0
  145.3385   72.0306  220.9647 H   0  0  0  0  0  0  0  0  0  0  0  0
  146.1592   72.3767  219.4660 H   0  0  0  0  0  0  0  0  0  0  0  0
  145.8071   74.2662  221.4595 H   0  0  0  0  0  0  0  0  0  0  0  0
  145.9057   74.7542  219.7707 H   0  0  0  0  0  0  0  0  0  0  0  0
  143.6919   75.0401  221.4894 H   0  0  0  0  0  0  0  0  0  0  0  0
  142.6841   76.9384  220.9216 H   0  0  0  0  0  0  0  0  0  0  0  0
  142.4833   78.2331  216.8291 H   0  0  0  0  0  0  0  0  0  0  0  0
  144.2058   74.4162  217.8217 H   0  0  0  0  0  0  0  0  0  0  0  0
  138.1288   77.6581  222.6309 H   0  0  0  0  0  0  0  0  0  0  0  0
  138.4298   79.9632  223.4636 H   0  0  0  0  0  0  0  0  0  0  0  0
  139.9519   81.7440  224.0561 H   0  0  0  0  0  0  0  0  0  0  0  0
  142.2427   82.6613  224.2942 H   0  0  0  0  0  0  0  0  0  0  0  0
  144.1721   81.1996  223.6712 H   0  0  0  0  0  0  0  0  0  0  0  0
  143.7821   78.9236  222.8492 H   0  0  0  0  0  0  0  0  0  0  0  0
  1  2  2  0
  2  3  1  0
  3  4  1  0
  4  5  1  0
  5  6  2  0
  5  7  1  0
  7  8  1  0
  8  9  1  0
  9 10  1  0
 10 11  1  0
 11 12  1  0
 12 13  2  0
 13 14  1  0
 14 15  1  0
 14 16  2  0
 16 17  1  0
 17 18  1  0
 17 19  2  0
  2 20  1  0
 20 21  2  0
 21 22  1  0
 22 23  2  0
 23 24  1  0
 24 25  2  0
 25 26  1  0
 26 27  2  0
 27 28  1  0
 28 29  2  0
 11  7  1  0
 19 12  1  0
 29 20  1  0
 28 23  1  0
  3 30  1  0
  4 31  1  0
  4 32  1  0
  8 33  1  0
  8 34  1  0
  9 35  1  0
  9 36  1  0
 10 37  1  0
 10 38  1  0
 11 39  1  1
 13 40  1  0
 16 41  1  0
 19 42  1  0
 21 43  1  0
 22 44  1  0
 24 45  1  0
 25 46  1  0
 26 47  1  0
 27 48  1  0
M  END
>  <smiles>  (22) 
O=C(NCC(=O)N1CCC[C@H]1c1cc(Cl)cc(Cl)c1)c1ccc2ccccc2n1

>  <score_type>  (22) 
oracle

>  <origin>  (22) 
autodockgpu

>  <m_score__min__energy>  (22) 
-9.2400000000000002

>  <m_primary>  (22) 
energy

>  <rmsd>  (22) 
7.774546082934239

>  <m_score__min__rmsd>  (22) 
7.774546082934239

>  <meeko>  (22) 
{"free_energy": -8.07, "intermolecular_energy": -9.56, "internal_energy": -2.39, "cluster_size": 6, "cluster_id": 4, "rank_in_cluster": 3}

>  <energy>  (22) 
-8.82

>  <cluster_rmsd>  (22) 
1.81

>  <cluster>  (22) 
1

$$$$

     RDKit          3D

 48 51  0  0  0  0  0  0  0  0999 V2000
  141.1880   72.3240  221.7640 O   0  0  0  0  0  0  0  0  0  0  0  0
  140.1850   72.3770  222.5380 C   0  0  0  0  0  0  0  0  0  0  0  0
  139.1040   73.2620  222.2690 N   0  0  0  0  0  0  0  0  0  0  0  0
  139.1980   74.0910  221.0870 C   0  0  0  0  0  0  0  0  0  0  0  0
  140.1500   75.1880  221.2270 C   0  0  0  0  0  0  0  0  0  0  0  0
  140.3520   75.6600  222.3790 O   0  0  0  0  0  0  0  0  0  0  0  0
  140.8660   75.7680  220.1600 N   0  0  0  0  0  0  0  0  0  0  0  0
  140.4930   75.8660  218.7360 C   0  0  0  0  0  0  0  0  0  0  0  0
  141.7710   75.2520  218.1500 C   0  0  0  0  0  0  0  0  0  0  0  0
  142.8440   75.9930  218.9040 C   0  0  0  0  0  0  0  0  0  0  0  0
  142.1820   76.4310  220.1600 C   0  0  1  0  0  0  0  0  0  0  0  0
  142.0410   77.8920  220.2970 C   0  0  0  0  0  0  0  0  0  0  0  0
  141.8380   78.5050  221.5290 C   0  0  0  0  0  0  0  0  0  0  0  0
  141.7250   79.8730  221.6690 C   0  0  0  0  0  0  0  0  0  0  0  0
  141.4690   80.6020  223.2530 Cl  0  0  0  0  0  0  0  0  0  0  0  0
  141.8070   80.7150  220.5820 C   0  0  0  0  0  0  0  0  0  0  0  0
  142.0070   80.1310  219.3510 C   0  0  0  0  0  0  0  0  0  0  0  0
  142.1180   81.1800  217.9360 Cl  0  0  0  0  0  0  0  0  0  0  0  0
  142.1210   78.7580  219.2110 C   0  0  0  0  0  0  0  0  0  0  0  0
  140.1370   71.5180  223.7180 C   0  0  0  0  0  0  0  0  0  0  0  0
  139.5670   70.2630  223.6330 C   0  0  0  0  0  0  0  0  0  0  0  0
  139.4850   69.3960  224.7040 C   0  0  0  0  0  0  0  0  0  0  0  0
  140.0020   69.8150  225.9110 C   0  0  0  0  0  0  0  0  0  0  0  0
  139.9550   69.0020  227.0230 C   0  0  0  0  0  0  0  0  0  0  0  0
  140.4620   69.3890  228.2460 C   0  0  0  0  0  0  0  0  0  0  0  0
  141.0310   70.6430  228.3270 C   0  0  0  0  0  0  0  0  0  0  0  0
  141.0790   71.4580  227.2190 C   0  0  0  0  0  0  0  0  0  0  0  0
  140.5740   71.0770  225.9920 C   0  0  0  0  0  0  0  0  0  0  0  0
  140.6320   71.8940  224.9130 N   0  0  0  0  0  0  0  0  0  0  0  0
  138.2940   73.2820  222.9220 H   0  0  0  0  0  0  0  0  0  0  0  0
  139.5130   73.4607  220.2423 H   0  0  0  0  0  0  0  0  0  0  0  0
  138.2066   74.5383  220.9224 H   0  0  0  0  0  0  0  0  0  0  0  0
  139.5968   75.2749  218.4965 H   0  0  0  0  0  0  0  0  0  0  0  0
  140.2225   76.8679  218.3712 H   0  0  0  0  0  0  0  0  0  0  0  0
  141.8204   74.1702  218.3431 H   0  0  0  0  0  0  0  0  0  0  0  0
  141.8493   75.3463  217.0568 H   0  0  0  0  0  0  0  0  0  0  0  0
  143.6936   75.3297  219.1233 H   0  0  0  0  0  0  0  0  0  0  0  0
  143.2511   76.8380  218.3294 H   0  0  0  0  0  0  0  0  0  0  0  0
  142.8043   76.1488  221.0220 H   0  0  0  0  0  0  0  0  0  0  0  0
  141.7646   77.8742  222.4272 H   0  0  0  0  0  0  0  0  0  0  0  0
  141.7167   81.8057  220.6923 H   0  0  0  0  0  0  0  0  0  0  0  0
  142.2802   78.3378  218.2070 H   0  0  0  0  0  0  0  0  0  0  0  0
  139.1584   69.9384  222.6646 H   0  0  0  0  0  0  0  0  0  0  0  0
  139.0224   68.4037  224.5977 H   0  0  0  0  0  0  0  0  0  0  0  0
  139.4957   68.0067  226.9317 H   0  0  0  0  0  0  0  0  0  0  0  0
  140.4145   68.7245  229.1213 H   0  0  0  0  0  0  0  0  0  0  0  0
  141.4487   70.9935  229.2824 H   0  0  0  0  0  0  0  0  0  0  0  0
  141.5382   72.4529  227.3150 H   0  0  0  0  0  0  0  0  0  0  0  0
  1  2  2  0
  2  3  1  0
  3  4  1  0
  4  5  1  0
  5  6  2  0
  5  7  1  0
  7  8  1  0
  8  9  1  0
  9 10  1  0
 10 11  1  0
 11 12  1  0
 12 13  2  0
 13 14  1  0
 14 15  1  0
 14 16  2  0
 16 17  1  0
 17 18  1  0
 17 19  2  0
  2 20  1  0
 20 21  2  0
 21 22  1  0
 22 23  2  0
 23 24  1  0
 24 25  2  0
 25 26  1  0
 26 27  2  0
 27 28  1  0
 28 29  2  0
 11  7  1  0
 19 12  1  0
 29 20  1  0
 28 23  1  0
  3 30  1  0
  4 31  1  0
  4 32  1  0
  8 33  1  0
  8 34  1  0
  9 35  1  0
  9 36  1  0
 10 37  1  0
 10 38  1  0
 11 39  1  1
 13 40  1  0
 16 41  1  0
 19 42  1  0
 21 43  1  0
 22 44  1  0
 24 45  1  0
 25 46  1  0
 26 47  1  0
 27 48  1  0
M  END
>  <smiles>  (23) 
O=C(NCC(=O)N1CCC[C@H]1c1cc(Cl)cc(Cl)c1)c1ccc2ccccc2n1

>  <score_type>  (23) 
oracle

>  <origin>  (23) 
autodockgpu

>  <m_score__min__energy>  (23) 
-9.2400000000000002

>  <m_primary>  (23) 
energy

>  <rmsd>  (23) 
1.5795687984723534

>  <m_score__min__rmsd>  (23) 
1.5795687984723534

>  <meeko>  (23) 
{"free_energy": -9.02, "intermolecular_energy": -10.51, "internal_energy": -1.36, "cluster_size": 27, "cluster_id": 1, "rank_in_cluster": 10}

>  <energy>  (23) 
-8.81

>  <cluster_rmsd>  (23) 
1.87

>  <cluster>  (23) 
1

$$$$

     RDKit          3D

 48 51  0  0  0  0  0  0  0  0999 V2000
  137.6130   75.9910  222.5210 O   0  0  0  0  0  0  0  0  0  0  0  0
  138.8600   76.1910  222.4030 C   0  0  0  0  0  0  0  0  0  0  0  0
  139.7270   75.1480  221.9740 N   0  0  0  0  0  0  0  0  0  0  0  0
  139.1310   73.8620  221.6800 C   0  0  0  0  0  0  0  0  0  0  0  0
  140.0110   72.7370  221.9780 C   0  0  0  0  0  0  0  0  0  0  0  0
  141.2560   72.9330  221.9610 O   0  0  0  0  0  0  0  0  0  0  0  0
  139.5690   71.4340  222.2850 N   0  0  0  0  0  0  0  0  0  0  0  0
  139.9290   70.1560  221.6420 C   0  0  0  0  0  0  0  0  0  0  0  0
  138.5030   69.6650  221.3590 C   0  0  0  0  0  0  0  0  0  0  0  0
  137.8260   69.9030  222.6830 C   0  0  0  0  0  0  0  0  0  0  0  0
  138.6260   70.9800  223.3220 C   0  0  1  0  0  0  0  0  0  0  0  0
  139.3390   70.5650  224.5430 C   0  0  0  0  0  0  0  0  0  0  0  0
  139.4640   69.2290  224.9110 C   0  0  0  0  0  0  0  0  0  0  0  0
  140.1460   68.8290  226.0410 C   0  0  0  0  0  0  0  0  0  0  0  0
  140.2770   67.1220  226.4630 Cl  0  0  0  0  0  0  0  0  0  0  0  0
  140.7470   69.7430  226.8780 C   0  0  0  0  0  0  0  0  0  0  0  0
  140.6370   71.0720  226.5350 C   0  0  0  0  0  0  0  0  0  0  0  0
  141.3950   72.2720  227.5850 Cl  0  0  0  0  0  0  0  0  0  0  0  0
  139.9530   71.4730  225.4000 C   0  0  0  0  0  0  0  0  0  0  0  0
  139.4130   77.5070  222.7110 C   0  0  0  0  0  0  0  0  0  0  0  0
  138.5650   78.5660  222.9720 C   0  0  0  0  0  0  0  0  0  0  0  0
  139.0120   79.8360  223.2710 C   0  0  0  0  0  0  0  0  0  0  0  0
  140.3740   80.0460  223.3090 C   0  0  0  0  0  0  0  0  0  0  0  0
  140.8930   81.2890  223.6010 C   0  0  0  0  0  0  0  0  0  0  0  0
  142.2480   81.5350  223.6480 C   0  0  0  0  0  0  0  0  0  0  0  0
  143.0920   80.4750  223.3880 C   0  0  0  0  0  0  0  0  0  0  0  0
  142.5790   79.2320  223.0950 C   0  0  0  0  0  0  0  0  0  0  0  0
  141.2230   78.9790  223.0470 C   0  0  0  0  0  0  0  0  0  0  0  0
  140.7370   77.7480  222.7580 N   0  0  0  0  0  0  0  0  0  0  0  0
  140.7450   75.3420  221.8870 H   0  0  0  0  0  0  0  0  0  0  0  0
  138.2145   73.7567  222.2790 H   0  0  0  0  0  0  0  0  0  0  0  0
  138.9249   73.8375  220.5998 H   0  0  0  0  0  0  0  0  0  0  0  0
  140.5126   70.3006  220.7208 H   0  0  0  0  0  0  0  0  0  0  0  0
  140.5702   69.4799  222.2266 H   0  0  0  0  0  0  0  0  0  0  0  0
  138.0300   70.2500  220.5565 H   0  0  0  0  0  0  0  0  0  0  0  0
  138.4516   68.6218  221.0139 H   0  0  0  0  0  0  0  0  0  0  0  0
  136.7854   70.2275  222.5348 H   0  0  0  0  0  0  0  0  0  0  0  0
  137.7817   68.9931  223.2996 H   0  0  0  0  0  0  0  0  0  0  0  0
  137.9558   71.7792  223.6714 H   0  0  0  0  0  0  0  0  0  0  0  0
  139.0001   68.4608  224.2749 H   0  0  0  0  0  0  0  0  0  0  0  0
  141.2905   69.4255  227.7801 H   0  0  0  0  0  0  0  0  0  0  0  0
  139.8929   72.5465  225.1677 H   0  0  0  0  0  0  0  0  0  0  0  0
  137.4801   78.3875  222.9398 H   0  0  0  0  0  0  0  0  0  0  0  0
  138.3051   80.6544  223.4725 H   0  0  0  0  0  0  0  0  0  0  0  0
  140.1982   82.1172  223.8045 H   0  0  0  0  0  0  0  0  0  0  0  0
  142.6406   82.5353  223.8831 H   0  0  0  0  0  0  0  0  0  0  0  0
  144.1815   80.6243  223.4151 H   0  0  0  0  0  0  0  0  0  0  0  0
  143.2776   78.4072  222.8909 H   0  0  0  0  0  0  0  0  0  0  0  0
  1  2  2  0
  2  3  1  0
  3  4  1  0
  4  5  1  0
  5  6  2  0
  5  7  1  0
  7  8  1  0
  8  9  1  0
  9 10  1  0
 10 11  1  0
 11 12  1  0
 12 13  2  0
 13 14  1  0
 14 15  1  0
 14 16  2  0
 16 17  1  0
 17 18  1  0
 17 19  2  0
  2 20  1  0
 20 21  2  0
 21 22  1  0
 22 23  2  0
 23 24  1  0
 24 25  2  0
 25 26  1  0
 26 27  2  0
 27 28  1  0
 28 29  2  0
 11  7  1  0
 19 12  1  0
 29 20  1  0
 28 23  1  0
  3 30  1  0
  4 31  1  0
  4 32  1  0
  8 33  1  0
  8 34  1  0
  9 35  1  0
  9 36  1  0
 10 37  1  0
 10 38  1  0
 11 39  1  1
 13 40  1  0
 16 41  1  0
 19 42  1  0
 21 43  1  0
 22 44  1  0
 24 45  1  0
 25 46  1  0
 26 47  1  0
 27 48  1  0
M  END
>  <smiles>  (24) 
O=C(NCC(=O)N1CCC[C@H]1c1cc(Cl)cc(Cl)c1)c1ccc2ccccc2n1

>  <score_type>  (24) 
oracle

>  <origin>  (24) 
autodockgpu

>  <m_score__min__energy>  (24) 
-9.2400000000000002

>  <m_primary>  (24) 
energy

>  <rmsd>  (24) 
8.33206098945906

>  <m_score__min__rmsd>  (24) 
8.33206098945906

>  <meeko>  (24) 
{"free_energy": -8.98, "intermolecular_energy": -10.47, "internal_energy": -1.79, "cluster_size": 3, "cluster_id": 2, "rank_in_cluster": 2}

>  <energy>  (24) 
-8.76

>  <cluster_rmsd>  (24) 
0.93

>  <cluster>  (24) 
1

$$$$

     RDKit          3D

 48 51  0  0  0  0  0  0  0  0999 V2000
  140.8960   72.2530  221.8550 O   0  0  0  0  0  0  0  0  0  0  0  0
  139.8960   72.1750  222.6320 C   0  0  0  0  0  0  0  0  0  0  0  0
  138.7280   72.9520  222.3930 N   0  0  0  0  0  0  0  0  0  0  0  0
  138.7300   73.8240  221.2380 C   0  0  0  0  0  0  0  0  0  0  0  0
  138.7540   75.2410  221.5870 C   0  0  0  0  0  0  0  0  0  0  0  0
  137.9010   75.6660  222.4120 O   0  0  0  0  0  0  0  0  0  0  0  0
  139.6650   76.1790  221.0620 N   0  0  0  0  0  0  0  0  0  0  0  0
  139.5940   76.9360  219.7980 C   0  0  0  0  0  0  0  0  0  0  0  0
  140.9770   76.5510  219.2560 C   0  0  0  0  0  0  0  0  0  0  0  0
  141.8560   76.7880  220.4550 C   0  0  0  0  0  0  0  0  0  0  0  0
  140.9390   76.6650  221.6190 C   0  0  1  0  0  0  0  0  0  0  0  0
  140.7470   77.9150  222.3760 C   0  0  0  0  0  0  0  0  0  0  0  0
  141.8150   78.7060  222.7860 C   0  0  0  0  0  0  0  0  0  0  0  0
  141.6440   79.8870  223.4780 C   0  0  0  0  0  0  0  0  0  0  0  0
  143.0320   80.8540  223.9760 Cl  0  0  0  0  0  0  0  0  0  0  0  0
  140.3900   80.3530  223.8040 C   0  0  0  0  0  0  0  0  0  0  0  0
  139.3160   79.5870  223.4080 C   0  0  0  0  0  0  0  0  0  0  0  0
  137.6930   80.1540  223.8090 Cl  0  0  0  0  0  0  0  0  0  0  0  0
  139.4880   78.4020  222.7140 C   0  0  0  0  0  0  0  0  0  0  0  0
  139.9430   71.2790  223.7840 C   0  0  0  0  0  0  0  0  0  0  0  0
  139.4410   69.9960  223.6780 C   0  0  0  0  0  0  0  0  0  0  0  0
  139.4500   69.0930  224.7210 C   0  0  0  0  0  0  0  0  0  0  0  0
  139.9900   69.5020  225.9210 C   0  0  0  0  0  0  0  0  0  0  0  0
  140.0330   68.6540  227.0070 C   0  0  0  0  0  0  0  0  0  0  0  0
  140.5660   69.0300  228.2210 C   0  0  0  0  0  0  0  0  0  0  0  0
  141.0670   70.3110  228.3230 C   0  0  0  0  0  0  0  0  0  0  0  0
  141.0260   71.1620  227.2420 C   0  0  0  0  0  0  0  0  0  0  0  0
  140.4940   70.7920  226.0230 C   0  0  0  0  0  0  0  0  0  0  0  0
  140.4630   71.6450  224.9710 N   0  0  0  0  0  0  0  0  0  0  0  0
  137.9240   72.8660  223.0470 H   0  0  0  0  0  0  0  0  0  0  0  0
  139.6193   73.5983  220.6312 H   0  0  0  0  0  0  0  0  0  0  0  0
  137.7960   73.6389  220.6873 H   0  0  0  0  0  0  0  0  0  0  0  0
  138.7778   76.5889  219.1473 H   0  0  0  0  0  0  0  0  0  0  0  0
  139.3871   78.0128  219.8856 H   0  0  0  0  0  0  0  0  0  0  0  0
  141.0046   75.4973  218.9415 H   0  0  0  0  0  0  0  0  0  0  0  0
  141.2791   77.1188  218.3636 H   0  0  0  0  0  0  0  0  0  0  0  0
  142.6542   76.0329  220.5073 H   0  0  0  0  0  0  0  0  0  0  0  0
  142.3575   77.7664  220.4192 H   0  0  0  0  0  0  0  0  0  0  0  0
  141.3723   75.9772  222.3601 H   0  0  0  0  0  0  0  0  0  0  0  0
  142.8374   78.3765  222.5489 H   0  0  0  0  0  0  0  0  0  0  0  0
  140.2522   81.2945  224.3558 H   0  0  0  0  0  0  0  0  0  0  0  0
  138.5989   77.8252  222.4194 H   0  0  0  0  0  0  0  0  0  0  0  0
  139.0134   69.6792  222.7153 H   0  0  0  0  0  0  0  0  0  0  0  0
  139.0396   68.0798  224.5987 H   0  0  0  0  0  0  0  0  0  0  0  0
  139.6260   67.6376  226.9004 H   0  0  0  0  0  0  0  0  0  0  0  0
  140.5909   68.3363  229.0744 H   0  0  0  0  0  0  0  0  0  0  0  0
  141.5017   70.6543  229.2734 H   0  0  0  0  0  0  0  0  0  0  0  0
  141.4334   72.1776  227.3539 H   0  0  0  0  0  0  0  0  0  0  0  0
  1  2  2  0
  2  3  1  0
  3  4  1  0
  4  5  1  0
  5  6  2  0
  5  7  1  0
  7  8  1  0
  8  9  1  0
  9 10  1  0
 10 11  1  0
 11 12  1  0
 12 13  2  0
 13 14  1  0
 14 15  1  0
 14 16  2  0
 16 17  1  0
 17 18  1  0
 17 19  2  0
  2 20  1  0
 20 21  2  0
 21 22  1  0
 22 23  2  0
 23 24  1  0
 24 25  2  0
 25 26  1  0
 26 27  2  0
 27 28  1  0
 28 29  2  0
 11  7  1  0
 19 12  1  0
 29 20  1  0
 28 23  1  0
  3 30  1  0
  4 31  1  0
  4 32  1  0
  8 33  1  0
  8 34  1  0
  9 35  1  0
  9 36  1  0
 10 37  1  0
 10 38  1  0
 11 39  1  1
 13 40  1  0
 16 41  1  0
 19 42  1  0
 21 43  1  0
 22 44  1  0
 24 45  1  0
 25 46  1  0
 26 47  1  0
 27 48  1  0
M  END
>  <smiles>  (25) 
O=C(NCC(=O)N1CCC[C@H]1c1cc(Cl)cc(Cl)c1)c1ccc2ccccc2n1

>  <score_type>  (25) 
oracle

>  <origin>  (25) 
autodockgpu

>  <m_score__min__energy>  (25) 
-9.2400000000000002

>  <m_primary>  (25) 
energy

>  <rmsd>  (25) 
1.6973775932122352

>  <m_score__min__rmsd>  (25) 
1.6973775932122352

>  <meeko>  (25) 
{"free_energy": -9.24, "intermolecular_energy": -10.73, "internal_energy": -1.38, "cluster_size": 27, "cluster_id": 1, "rank_in_cluster": 1}

>  <energy>  (25) 
-8.75

>  <cluster_rmsd>  (25) 
1.46

>  <cluster>  (25) 
1

$$$$

     RDKit          3D

 48 51  0  0  0  0  0  0  0  0999 V2000
  140.4900   71.3920  221.3080 O   0  0  0  0  0  0  0  0  0  0  0  0
  140.1640   71.9830  222.3820 C   0  0  0  0  0  0  0  0  0  0  0  0
  139.8440   73.3700  222.3800 N   0  0  0  0  0  0  0  0  0  0  0  0
  139.9050   74.0680  221.1140 C   0  0  0  0  0  0  0  0  0  0  0  0
  140.3740   75.4440  221.2370 C   0  0  0  0  0  0  0  0  0  0  0  0
  140.3080   75.9990  222.3680 O   0  0  0  0  0  0  0  0  0  0  0  0
  140.8990   76.2090  220.1750 N   0  0  0  0  0  0  0  0  0  0  0  0
  140.3020   76.5010  218.8580 C   0  0  0  0  0  0  0  0  0  0  0  0
  141.4860   76.0410  217.9950 C   0  0  0  0  0  0  0  0  0  0  0  0
  142.6470   76.7120  218.6810 C   0  0  0  0  0  0  0  0  0  0  0  0
  142.1820   76.9260  220.0760 C   0  0  1  0  0  0  0  0  0  0  0  0
  142.0310   78.3420  220.4570 C   0  0  0  0  0  0  0  0  0  0  0  0
  142.0990   78.7660  221.7800 C   0  0  0  0  0  0  0  0  0  0  0  0
  141.9790   80.0910  222.1430 C   0  0  0  0  0  0  0  0  0  0  0  0
  142.0740   80.5780  223.8350 Cl  0  0  0  0  0  0  0  0  0  0  0  0
  141.7810   81.0780  221.2030 C   0  0  0  0  0  0  0  0  0  0  0  0
  141.7090   80.6830  219.8860 C   0  0  0  0  0  0  0  0  0  0  0  0
  141.4550   81.9210  218.6540 Cl  0  0  0  0  0  0  0  0  0  0  0  0
  141.8300   79.3530  219.5220 C   0  0  0  0  0  0  0  0  0  0  0  0
  140.1160   71.2340  223.6350 C   0  0  0  0  0  0  0  0  0  0  0  0
  139.5980   69.9540  223.6510 C   0  0  0  0  0  0  0  0  0  0  0  0
  139.5190   69.1850  224.7940 C   0  0  0  0  0  0  0  0  0  0  0  0
  139.9850   69.7320  225.9700 C   0  0  0  0  0  0  0  0  0  0  0  0
  139.9390   69.0220  227.1510 C   0  0  0  0  0  0  0  0  0  0  0  0
  140.3950   69.5380  228.3450 C   0  0  0  0  0  0  0  0  0  0  0  0
  140.9130   70.8170  228.3250 C   0  0  0  0  0  0  0  0  0  0  0  0
  140.9610   71.5300  227.1480 C   0  0  0  0  0  0  0  0  0  0  0  0
  140.5060   71.0190  225.9490 C   0  0  0  0  0  0  0  0  0  0  0  0
  140.5620   71.7370  224.8020 N   0  0  0  0  0  0  0  0  0  0  0  0
  139.5800   73.8270  223.2760 H   0  0  0  0  0  0  0  0  0  0  0  0
  140.5902   73.5236  220.4476 H   0  0  0  0  0  0  0  0  0  0  0  0
  138.8814   74.1067  220.7131 H   0  0  0  0  0  0  0  0  0  0  0  0
  139.3928   75.9110  218.6703 H   0  0  0  0  0  0  0  0  0  0  0  0
  139.9538   77.5321  218.6983 H   0  0  0  0  0  0  0  0  0  0  0  0
  141.5906   74.9461  218.0096 H   0  0  0  0  0  0  0  0  0  0  0  0
  141.3879   76.2996  216.9303 H   0  0  0  0  0  0  0  0  0  0  0  0
  143.5363   76.0648  218.6626 H   0  0  0  0  0  0  0  0  0  0  0  0
  142.9377   77.6515  218.1883 H   0  0  0  0  0  0  0  0  0  0  0  0
  142.9391   76.5479  220.7788 H   0  0  0  0  0  0  0  0  0  0  0  0
  142.2547   78.0145  222.5681 H   0  0  0  0  0  0  0  0  0  0  0  0
  141.6847   82.1351  221.4917 H   0  0  0  0  0  0  0  0  0  0  0  0
  141.7650   79.0860  218.4569 H   0  0  0  0  0  0  0  0  0  0  0  0
  139.2304   69.5266  222.7065 H   0  0  0  0  0  0  0  0  0  0  0  0
  139.0980   68.1691  224.7674 H   0  0  0  0  0  0  0  0  0  0  0  0
  139.5221   68.0041  227.1399 H   0  0  0  0  0  0  0  0  0  0  0  0
  140.3480   68.9541  229.2760 H   0  0  0  0  0  0  0  0  0  0  0  0
  141.2895   71.2693  229.2543 H   0  0  0  0  0  0  0  0  0  0  0  0
  141.3786   72.5475  227.1637 H   0  0  0  0  0  0  0  0  0  0  0  0
  1  2  2  0
  2  3  1  0
  3  4  1  0
  4  5  1  0
  5  6  2  0
  5  7  1  0
  7  8  1  0
  8  9  1  0
  9 10  1  0
 10 11  1  0
 11 12  1  0
 12 13  2  0
 13 14  1  0
 14 15  1  0
 14 16  2  0
 16 17  1  0
 17 18  1  0
 17 19  2  0
  2 20  1  0
 20 21  2  0
 21 22  1  0
 22 23  2  0
 23 24  1  0
 24 25  2  0
 25 26  1  0
 26 27  2  0
 27 28  1  0
 28 29  2  0
 11  7  1  0
 19 12  1  0
 29 20  1  0
 28 23  1  0
  3 30  1  0
  4 31  1  0
  4 32  1  0
  8 33  1  0
  8 34  1  0
  9 35  1  0
  9 36  1  0
 10 37  1  0
 10 38  1  0
 11 39  1  1
 13 40  1  0
 16 41  1  0
 19 42  1  0
 21 43  1  0
 22 44  1  0
 24 45  1  0
 25 46  1  0
 26 47  1  0
 27 48  1  0
M  END
>  <smiles>  (26) 
O=C(NCC(=O)N1CCC[C@H]1c1cc(Cl)cc(Cl)c1)c1ccc2ccccc2n1

>  <score_type>  (26) 
oracle

>  <origin>  (26) 
autodockgpu

>  <m_score__min__energy>  (26) 
-9.2400000000000002

>  <m_primary>  (26) 
energy

>  <rmsd>  (26) 
1.5389062916044463

>  <m_score__min__rmsd>  (26) 
1.5389062916044463

>  <meeko>  (26) 
{"free_energy": -8.95, "intermolecular_energy": -10.44, "internal_energy": -1.6, "cluster_size": 27, "cluster_id": 1, "rank_in_cluster": 16}

>  <energy>  (26) 
-8.56

>  <cluster_rmsd>  (26) 
1.82

>  <cluster>  (26) 
1

$$$$

     RDKit          3D

 48 51  0  0  0  0  0  0  0  0999 V2000
  140.5110   72.3470  221.7530 O   0  0  0  0  0  0  0  0  0  0  0  0
  139.5770   72.2400  222.6040 C   0  0  0  0  0  0  0  0  0  0  0  0
  138.3460   72.9310  222.4230 N   0  0  0  0  0  0  0  0  0  0  0  0
  138.2080   73.7520  221.2390 C   0  0  0  0  0  0  0  0  0  0  0  0
  138.3790   75.1770  221.5030 C   0  0  0  0  0  0  0  0  0  0  0  0
  137.4810   75.7740  222.1570 O   0  0  0  0  0  0  0  0  0  0  0  0
  139.4820   75.9430  221.0770 N   0  0  0  0  0  0  0  0  0  0  0  0
  139.7210   76.5760  219.7660 C   0  0  0  0  0  0  0  0  0  0  0  0
  141.1100   75.9780  219.5040 C   0  0  0  0  0  0  0  0  0  0  0  0
  141.8050   76.2230  220.8170 C   0  0  0  0  0  0  0  0  0  0  0  0
  140.7020   76.3250  221.8080 C   0  0  1  0  0  0  0  0  0  0  0  0
  140.5590   77.6570  222.4230 C   0  0  0  0  0  0  0  0  0  0  0  0
  139.3160   78.2150  222.7030 C   0  0  0  0  0  0  0  0  0  0  0  0
  139.1720   79.4520  223.2960 C   0  0  0  0  0  0  0  0  0  0  0  0
  137.5730   80.1150  223.6300 Cl  0  0  0  0  0  0  0  0  0  0  0  0
  140.2660   80.2110  223.6480 C   0  0  0  0  0  0  0  0  0  0  0  0
  141.5080   79.6800  223.3810 C   0  0  0  0  0  0  0  0  0  0  0  0
  142.9330   80.6250  223.8180 Cl  0  0  0  0  0  0  0  0  0  0  0  0
  141.6520   78.4380  222.7860 C   0  0  0  0  0  0  0  0  0  0  0  0
  139.7640   71.3980  223.7820 C   0  0  0  0  0  0  0  0  0  0  0  0
  139.4250   70.0600  223.7320 C   0  0  0  0  0  0  0  0  0  0  0  0
  139.5730   69.2030  224.8030 C   0  0  0  0  0  0  0  0  0  0  0  0
  140.0870   69.7180  225.9730 C   0  0  0  0  0  0  0  0  0  0  0  0
  140.2640   68.9200  227.0830 C   0  0  0  0  0  0  0  0  0  0  0  0
  140.7750   69.4020  228.2690 C   0  0  0  0  0  0  0  0  0  0  0  0
  141.1130   70.7390  228.3150 C   0  0  0  0  0  0  0  0  0  0  0  0
  140.9390   71.5400  227.2090 C   0  0  0  0  0  0  0  0  0  0  0  0
  140.4280   71.0630  226.0190 C   0  0  0  0  0  0  0  0  0  0  0  0
  140.2640   71.8670  224.9410 N   0  0  0  0  0  0  0  0  0  0  0  0
  137.5970   72.8230  223.1380 H   0  0  0  0  0  0  0  0  0  0  0  0
  138.9665   73.4389  220.5064 H   0  0  0  0  0  0  0  0  0  0  0  0
  137.1846   73.6106  220.8613 H   0  0  0  0  0  0  0  0  0  0  0  0
  138.9830   76.2669  219.0112 H   0  0  0  0  0  0  0  0  0  0  0  0
  139.6491   77.6732  219.7344 H   0  0  0  0  0  0  0  0  0  0  0  0
  141.0471   74.9031  219.2788 H   0  0  0  0  0  0  0  0  0  0  0  0
  141.6273   76.4169  218.6381 H   0  0  0  0  0  0  0  0  0  0  0  0
  142.4743   75.3860  221.0649 H   0  0  0  0  0  0  0  0  0  0  0  0
  142.4334   77.1256  220.7959 H   0  0  0  0  0  0  0  0  0  0  0  0
  140.9121   75.6654  222.6628 H   0  0  0  0  0  0  0  0  0  0  0  0
  138.4113   77.6468  222.4409 H   0  0  0  0  0  0  0  0  0  0  0  0
  140.1526   81.1975  224.1213 H   0  0  0  0  0  0  0  0  0  0  0  0
  142.6653   78.0556  222.5936 H   0  0  0  0  0  0  0  0  0  0  0  0
  139.0172   69.6582  222.7927 H   0  0  0  0  0  0  0  0  0  0  0  0
  139.2898   68.1429  224.7253 H   0  0  0  0  0  0  0  0  0  0  0  0
  139.9867   67.8574  227.0198 H   0  0  0  0  0  0  0  0  0  0  0  0
  140.9079   68.7475  229.1431 H   0  0  0  0  0  0  0  0  0  0  0  0
  141.5240   71.1674  229.2410 H   0  0  0  0  0  0  0  0  0  0  0  0
  141.2182   72.6018  227.2764 H   0  0  0  0  0  0  0  0  0  0  0  0
  1  2  2  0
  2  3  1  0
  3  4  1  0
  4  5  1  0
  5  6  2  0
  5  7  1  0
  7  8  1  0
  8  9  1  0
  9 10  1  0
 10 11  1  0
 11 12  1  0
 12 13  2  0
 13 14  1  0
 14 15  1  0
 14 16  2  0
 16 17  1  0
 17 18  1  0
 17 19  2  0
  2 20  1  0
 20 21  2  0
 21 22  1  0
 22 23  2  0
 23 24  1  0
 24 25  2  0
 25 26  1  0
 26 27  2  0
 27 28  1  0
 28 29  2  0
 11  7  1  0
 19 12  1  0
 29 20  1  0
 28 23  1  0
  3 30  1  0
  4 31  1  0
  4 32  1  0
  8 33  1  0
  8 34  1  0
  9 35  1  0
  9 36  1  0
 10 37  1  0
 10 38  1  0
 11 39  1  1
 13 40  1  0
 16 41  1  0
 19 42  1  0
 21 43  1  0
 22 44  1  0
 24 45  1  0
 25 46  1  0
 26 47  1  0
 27 48  1  0
M  END
>  <smiles>  (27) 
O=C(NCC(=O)N1CCC[C@H]1c1cc(Cl)cc(Cl)c1)c1ccc2ccccc2n1

>  <score_type>  (27) 
oracle

>  <origin>  (27) 
autodockgpu

>  <m_score__min__energy>  (27) 
-9.2400000000000002

>  <m_primary>  (27) 
energy

>  <rmsd>  (27) 
1.7898553757338227

>  <m_score__min__rmsd>  (27) 
1.7898553757338227

>  <meeko>  (27) 
{"free_energy": -9.0, "intermolecular_energy": -10.49, "internal_energy": -1.47, "cluster_size": 27, "cluster_id": 1, "rank_in_cluster": 13}

>  <energy>  (27) 
-8.51

>  <cluster_rmsd>  (27) 
1.76

>  <cluster>  (27) 
1

$$$$

     RDKit          3D

 48 51  0  0  0  0  0  0  0  0999 V2000
  139.7790   71.0740  221.2050 O   0  0  0  0  0  0  0  0  0  0  0  0
  139.4940   71.7210  222.2580 C   0  0  0  0  0  0  0  0  0  0  0  0
  138.9560   73.0370  222.1810 N   0  0  0  0  0  0  0  0  0  0  0  0
  138.7500   73.5970  220.8630 C   0  0  0  0  0  0  0  0  0  0  0  0
  139.0680   75.0190  220.7850 C   0  0  0  0  0  0  0  0  0  0  0  0
  138.1140   75.8400  220.7030 O   0  0  0  0  0  0  0  0  0  0  0  0
  140.3740   75.5490  220.7920 N   0  0  0  0  0  0  0  0  0  0  0  0
  141.0550   76.3260  221.8440 C   0  0  0  0  0  0  0  0  0  0  0  0
  141.4850   77.5130  220.9710 C   0  0  0  0  0  0  0  0  0  0  0  0
  142.0750   76.8170  219.7730 C   0  0  0  0  0  0  0  0  0  0  0  0
  141.4210   75.4820  219.7580 C   0  0  1  0  0  0  0  0  0  0  0  0
  142.3370   74.3530  220.0010 C   0  0  0  0  0  0  0  0  0  0  0  0
  141.9610   73.0320  219.7830 C   0  0  0  0  0  0  0  0  0  0  0  0
  142.8170   71.9710  219.9880 C   0  0  0  0  0  0  0  0  0  0  0  0
  142.2920   70.3130  219.6960 Cl  0  0  0  0  0  0  0  0  0  0  0  0
  144.1080   72.1640  220.4280 C   0  0  0  0  0  0  0  0  0  0  0  0
  144.5040   73.4640  220.6520 C   0  0  0  0  0  0  0  0  0  0  0  0
  146.1520   73.7510  221.2160 Cl  0  0  0  0  0  0  0  0  0  0  0  0
  143.6450   74.5290  220.4450 C   0  0  0  0  0  0  0  0  0  0  0  0
  139.7200   71.1110  223.5660 C   0  0  0  0  0  0  0  0  0  0  0  0
  139.4120   69.7790  223.7660 C   0  0  0  0  0  0  0  0  0  0  0  0
  139.5970   69.1340  224.9710 C   0  0  0  0  0  0  0  0  0  0  0  0
  140.1170   69.8630  226.0180 C   0  0  0  0  0  0  0  0  0  0  0  0
  140.3290   69.2850  227.2510 C   0  0  0  0  0  0  0  0  0  0  0  0
  140.8470   69.9840  228.3200 C   0  0  0  0  0  0  0  0  0  0  0  0
  141.1540   71.3140  228.1160 C   0  0  0  0  0  0  0  0  0  0  0  0
  140.9430   71.8970  226.8880 C   0  0  0  0  0  0  0  0  0  0  0  0
  140.4260   71.2020  225.8130 C   0  0  0  0  0  0  0  0  0  0  0  0
  140.2260   71.7930  224.6110 N   0  0  0  0  0  0  0  0  0  0  0  0
  138.7310   73.5420  223.0620 H   0  0  0  0  0  0  0  0  0  0  0  0
  139.3896   73.0564  220.1499 H   0  0  0  0  0  0  0  0  0  0  0  0
  137.6814   73.4881  220.6256 H   0  0  0  0  0  0  0  0  0  0  0  0
  140.3712   76.6264  222.6516 H   0  0  0  0  0  0  0  0  0  0  0  0
  141.8565   75.8078  222.3908 H   0  0  0  0  0  0  0  0  0  0  0  0
  140.6231   78.1352  220.6884 H   0  0  0  0  0  0  0  0  0  0  0  0
  142.1790   78.2049  221.4706 H   0  0  0  0  0  0  0  0  0  0  0  0
  141.8480   77.3714  218.8505 H   0  0  0  0  0  0  0  0  0  0  0  0
  143.1712   76.7449  219.8292 H   0  0  0  0  0  0  0  0  0  0  0  0
  141.0197   75.2788  218.7542 H   0  0  0  0  0  0  0  0  0  0  0  0
  140.9390   72.8253  219.4327 H   0  0  0  0  0  0  0  0  0  0  0  0
  144.7917   71.3182  220.5930 H   0  0  0  0  0  0  0  0  0  0  0  0
  144.0078   75.5494  220.6378 H   0  0  0  0  0  0  0  0  0  0  0  0
  138.9992   69.2051  222.9233 H   0  0  0  0  0  0  0  0  0  0  0  0
  139.3377   68.0719  225.0922 H   0  0  0  0  0  0  0  0  0  0  0  0
  140.0747   68.2235  227.3874 H   0  0  0  0  0  0  0  0  0  0  0  0
  141.0090   69.5018  229.2953 H   0  0  0  0  0  0  0  0  0  0  0  0
  141.5700   71.9116  228.9405 H   0  0  0  0  0  0  0  0  0  0  0  0
  141.1963   72.9594  226.7574 H   0  0  0  0  0  0  0  0  0  0  0  0
  1  2  2  0
  2  3  1  0
  3  4  1  0
  4  5  1  0
  5  6  2  0
  5  7  1  0
  7  8  1  0
  8  9  1  0
  9 10  1  0
 10 11  1  0
 11 12  1  0
 12 13  2  0
 13 14  1  0
 14 15  1  0
 14 16  2  0
 16 17  1  0
 17 18  1  0
 17 19  2  0
  2 20  1  0
 20 21  2  0
 21 22  1  0
 22 23  2  0
 23 24  1  0
 24 25  2  0
 25 26  1  0
 26 27  2  0
 27 28  1  0
 28 29  2  0
 11  7  1  0
 19 12  1  0
 29 20  1  0
 28 23  1  0
  3 30  1  0
  4 31  1  0
  4 32  1  0
  8 33  1  0
  8 34  1  0
  9 35  1  0
  9 36  1  0
 10 37  1  0
 10 38  1  0
 11 39  1  6
 13 40  1  0
 16 41  1  0
 19 42  1  0
 21 43  1  0
 22 44  1  0
 24 45  1  0
 25 46  1  0
 26 47  1  0
 27 48  1  0
M  END
>  <smiles>  (28) 
O=C(NCC(=O)N1CCC[C@H]1c1cc(Cl)cc(Cl)c1)c1ccc2ccccc2n1

>  <score_type>  (28) 
oracle

>  <origin>  (28) 
autodockgpu

>  <m_score__min__energy>  (28) 
-9.2400000000000002

>  <m_primary>  (28) 
energy

>  <rmsd>  (28) 
2.130080825420228

>  <m_score__min__rmsd>  (28) 
2.130080825420228

>  <meeko>  (28) 
{"free_energy": -8.46, "intermolecular_energy": -9.95, "internal_energy": -1.93, "cluster_size": 13, "cluster_id": 3, "rank_in_cluster": 9}

>  <energy>  (28) 
-9.05

>  <cluster_rmsd>  (28) 
0.0

>  <cluster>  (28) 
2

$$$$

     RDKit          3D

 48 51  0  0  0  0  0  0  0  0999 V2000
  138.2620   70.9100  221.9320 O   0  0  0  0  0  0  0  0  0  0  0  0
  138.9910   71.3390  222.8770 C   0  0  0  0  0  0  0  0  0  0  0  0
  139.5180   72.6600  222.8480 N   0  0  0  0  0  0  0  0  0  0  0  0
  139.1880   73.4850  221.7060 C   0  0  0  0  0  0  0  0  0  0  0  0
  139.4970   74.8970  221.9060 C   0  0  0  0  0  0  0  0  0  0  0  0
  140.7060   75.2300  222.0420 O   0  0  0  0  0  0  0  0  0  0  0  0
  138.5360   75.9270  221.9620 N   0  0  0  0  0  0  0  0  0  0  0  0
  137.2730   75.9770  222.7220 C   0  0  0  0  0  0  0  0  0  0  0  0
  136.3460   76.3270  221.5500 C   0  0  0  0  0  0  0  0  0  0  0  0
  137.0990   77.4490  220.8850 C   0  0  0  0  0  0  0  0  0  0  0  0
  138.5150   77.2330  221.2820 C   0  0  1  0  0  0  0  0  0  0  0  0
  139.0740   78.2900  222.1440 C   0  0  0  0  0  0  0  0  0  0  0  0
  138.2720   79.0860  222.9560 C   0  0  0  0  0  0  0  0  0  0  0  0
  138.7870   80.0640  223.7800 C   0  0  0  0  0  0  0  0  0  0  0  0
  137.7280   81.0460  224.7910 Cl  0  0  0  0  0  0  0  0  0  0  0  0
  140.1410   80.3100  223.8440 C   0  0  0  0  0  0  0  0  0  0  0  0
  140.9550   79.5360  223.0490 C   0  0  0  0  0  0  0  0  0  0  0  0
  142.6960   79.8230  223.1040 Cl  0  0  0  0  0  0  0  0  0  0  0  0
  140.4380   78.5530  222.2220 C   0  0  0  0  0  0  0  0  0  0  0  0
  139.2950   70.4670  224.0090 C   0  0  0  0  0  0  0  0  0  0  0  0
  138.9560   69.1280  223.9560 C   0  0  0  0  0  0  0  0  0  0  0  0
  139.2100   68.2440  224.9840 C   0  0  0  0  0  0  0  0  0  0  0  0
  139.8340   68.7310  226.1130 C   0  0  0  0  0  0  0  0  0  0  0  0
  140.1190   67.9060  227.1790 C   0  0  0  0  0  0  0  0  0  0  0  0
  140.7410   68.3590  228.3220 C   0  0  0  0  0  0  0  0  0  0  0  0
  141.0790   69.6960  228.3710 C   0  0  0  0  0  0  0  0  0  0  0  0
  140.7950   70.5250  227.3090 C   0  0  0  0  0  0  0  0  0  0  0  0
  140.1730   70.0770  226.1610 C   0  0  0  0  0  0  0  0  0  0  0  0
  139.9030   70.9080  225.1270 N   0  0  0  0  0  0  0  0  0  0  0  0
  140.1120   72.9830  223.6380 H   0  0  0  0  0  0  0  0  0  0  0  0
  139.7572   73.1226  220.8372 H   0  0  0  0  0  0  0  0  0  0  0  0
  138.1017   73.4078  221.5510 H   0  0  0  0  0  0  0  0  0  0  0  0
  137.0215   75.0090  223.1799 H   0  0  0  0  0  0  0  0  0  0  0  0
  137.2494   76.6614  223.5828 H   0  0  0  0  0  0  0  0  0  0  0  0
  136.2196   75.4715  220.8702 H   0  0  0  0  0  0  0  0  0  0  0  0
  135.3242   76.5964  221.8557 H   0  0  0  0  0  0  0  0  0  0  0  0
  136.9893   77.3966  219.7917 H   0  0  0  0  0  0  0  0  0  0  0  0
  136.7264   78.4392  221.1861 H   0  0  0  0  0  0  0  0  0  0  0  0
  139.1560   77.2611  220.3885 H   0  0  0  0  0  0  0  0  0  0  0  0
  137.1834   78.9286  222.9398 H   0  0  0  0  0  0  0  0  0  0  0  0
  140.5530   81.0901  224.5011 H   0  0  0  0  0  0  0  0  0  0  0  0
  141.1294   77.9597  221.6056 H   0  0  0  0  0  0  0  0  0  0  0  0
  138.4597   68.7491  223.0504 H   0  0  0  0  0  0  0  0  0  0  0  0
  138.9240   67.1847  224.9056 H   0  0  0  0  0  0  0  0  0  0  0  0
  139.8390   66.8441  227.1151 H   0  0  0  0  0  0  0  0  0  0  0  0
  140.9593   67.6824  229.1614 H   0  0  0  0  0  0  0  0  0  0  0  0
  141.5780   70.1017  229.2634 H   0  0  0  0  0  0  0  0  0  0  0  0
  141.0749   71.5865  227.3781 H   0  0  0  0  0  0  0  0  0  0  0  0
  1  2  2  0
  2  3  1  0
  3  4  1  0
  4  5  1  0
  5  6  2  0
  5  7  1  0
  7  8  1  0
  8  9  1  0
  9 10  1  0
 10 11  1  0
 11 12  1  0
 12 13  2  0
 13 14  1  0
 14 15  1  0
 14 16  2  0
 16 17  1  0
 17 18  1  0
 17 19  2  0
  2 20  1  0
 20 21  2  0
 21 22  1  0
 22 23  2  0
 23 24  1  0
 24 25  2  0
 25 26  1  0
 26 27  2  0
 27 28  1  0
 28 29  2  0
 11  7  1  0
 19 12  1  0
 29 20  1  0
 28 23  1  0
  3 30  1  0
  4 31  1  0
  4 32  1  0
  8 33  1  0
  8 34  1  0
  9 35  1  0
  9 36  1  0
 10 37  1  0
 10 38  1  0
 11 39  1  6
 13 40  1  0
 16 41  1  0
 19 42  1  0
 21 43  1  0
 22 44  1  0
 24 45  1  0
 25 46  1  0
 26 47  1  0
 27 48  1  0
M  END
>  <smiles>  (29) 
O=C(NCC(=O)N1CCC[C@H]1c1cc(Cl)cc(Cl)c1)c1ccc2ccccc2n1

>  <score_type>  (29) 
oracle

>  <origin>  (29) 
autodockgpu

>  <m_score__min__energy>  (29) 
-9.2400000000000002

>  <m_primary>  (29) 
energy

>  <rmsd>  (29) 
2.696316301963614

>  <m_score__min__rmsd>  (29) 
2.696316301963614

>  <meeko>  (29) 
{"free_energy": -8.75, "intermolecular_energy": -10.24, "internal_energy": -1.51, "cluster_size": 27, "cluster_id": 1, "rank_in_cluster": 25}

>  <energy>  (29) 
-8.98

>  <cluster_rmsd>  (29) 
0.15

>  <cluster>  (29) 
2

$$$$

     RDKit          3D

 48 51  0  0  0  0  0  0  0  0999 V2000
  141.3710   71.8060  221.5200 O   0  0  0  0  0  0  0  0  0  0  0  0
  140.4900   72.1890  222.3490 C   0  0  0  0  0  0  0  0  0  0  0  0
  139.7050   73.3480  222.0940 N   0  0  0  0  0  0  0  0  0  0  0  0
  139.9520   74.0640  220.8610 C   0  0  0  0  0  0  0  0  0  0  0  0
  141.0570   75.0130  220.9570 C   0  0  0  0  0  0  0  0  0  0  0  0
  141.1810   75.6770  222.0220 O   0  0  0  0  0  0  0  0  0  0  0  0
  142.0020   75.2470  219.9390 N   0  0  0  0  0  0  0  0  0  0  0  0
  142.8830   76.4140  219.7410 C   0  0  0  0  0  0  0  0  0  0  0  0
  142.4950   76.7130  218.2860 C   0  0  0  0  0  0  0  0  0  0  0  0
  142.5740   75.3470  217.6580 C   0  0  0  0  0  0  0  0  0  0  0  0
  142.3750   74.4050  218.7900 C   0  0  1  0  0  0  0  0  0  0  0  0
  143.5510   73.5720  219.1010 C   0  0  0  0  0  0  0  0  0  0  0  0
  144.3630   73.8170  220.2040 C   0  0  0  0  0  0  0  0  0  0  0  0
  145.4540   73.0320  220.5140 C   0  0  0  0  0  0  0  0  0  0  0  0
  146.4520   73.3840  221.9240 Cl  0  0  0  0  0  0  0  0  0  0  0  0
  145.8030   71.9490  219.7380 C   0  0  0  0  0  0  0  0  0  0  0  0
  145.0140   71.6860  218.6400 C   0  0  0  0  0  0  0  0  0  0  0  0
  145.4310   70.3060  217.6220 Cl  0  0  0  0  0  0  0  0  0  0  0  0
  143.9190   72.4740  218.3290 C   0  0  0  0  0  0  0  0  0  0  0  0
  140.2780   71.4310  223.5790 C   0  0  0  0  0  0  0  0  0  0  0  0
  139.5660   70.2470  223.5440 C   0  0  0  0  0  0  0  0  0  0  0  0
  139.3250   69.4780  224.6630 C   0  0  0  0  0  0  0  0  0  0  0  0
  139.8250   69.9210  225.8690 C   0  0  0  0  0  0  0  0  0  0  0  0
  139.6240   69.2030  227.0280 C   0  0  0  0  0  0  0  0  0  0  0  0
  140.1090   69.6170  228.2500 C   0  0  0  0  0  0  0  0  0  0  0  0
  140.8210   70.7980  228.2810 C   0  0  0  0  0  0  0  0  0  0  0  0
  141.0240   71.5190  227.1260 C   0  0  0  0  0  0  0  0  0  0  0  0
  140.5410   71.1100  225.9000 C   0  0  0  0  0  0  0  0  0  0  0  0
  140.7520   71.8330  224.7740 N   0  0  0  0  0  0  0  0  0  0  0  0
  138.9900   73.6360  222.7930 H   0  0  0  0  0  0  0  0  0  0  0  0
  140.1869   73.3328  220.0735 H   0  0  0  0  0  0  0  0  0  0  0  0
  139.0445   74.6420  220.6319 H   0  0  0  0  0  0  0  0  0  0  0  0
  142.6369   77.2444  220.4192 H   0  0  0  0  0  0  0  0  0  0  0  0
  143.9537   76.2557  219.9375 H   0  0  0  0  0  0  0  0  0  0  0  0
  141.4775   77.1258  218.2198 H   0  0  0  0  0  0  0  0  0  0  0  0
  143.1353   77.4639  217.8000 H   0  0  0  0  0  0  0  0  0  0  0  0
  141.7842   75.2199  216.9030 H   0  0  0  0  0  0  0  0  0  0  0  0
  143.5289   75.1803  217.1380 H   0  0  0  0  0  0  0  0  0  0  0  0
  141.5985   73.6715  218.5272 H   0  0  0  0  0  0  0  0  0  0  0  0
  144.1253   74.6712  220.8550 H   0  0  0  0  0  0  0  0  0  0  0  0
  146.6728   71.3222  219.9841 H   0  0  0  0  0  0  0  0  0  0  0  0
  143.3194   72.2237  217.4414 H   0  0  0  0  0  0  0  0  0  0  0  0
  139.1725   69.9013  222.5767 H   0  0  0  0  0  0  0  0  0  0  0  0
  138.7523   68.5413  224.5955 H   0  0  0  0  0  0  0  0  0  0  0  0
  139.0546   68.2633  226.9759 H   0  0  0  0  0  0  0  0  0  0  0  0
  139.9353   69.0294  229.1635 H   0  0  0  0  0  0  0  0  0  0  0  0
  141.2289   71.1658  229.2341 H   0  0  0  0  0  0  0  0  0  0  0  0
  141.5938   72.4582  227.1828 H   0  0  0  0  0  0  0  0  0  0  0  0
  1  2  2  0
  2  3  1  0
  3  4  1  0
  4  5  1  0
  5  6  2  0
  5  7  1  0
  7  8  1  0
  8  9  1  0
  9 10  1  0
 10 11  1  0
 11 12  1  0
 12 13  2  0
 13 14  1  0
 14 15  1  0
 14 16  2  0
 16 17  1  0
 17 18  1  0
 17 19  2  0
  2 20  1  0
 20 21  2  0
 21 22  1  0
 22 23  2  0
 23 24  1  0
 24 25  2  0
 25 26  1  0
 26 27  2  0
 27 28  1  0
 28 29  2  0
 11  7  1  0
 19 12  1  0
 29 20  1  0
 28 23  1  0
  3 30  1  0
  4 31  1  0
  4 32  1  0
  8 33  1  0
  8 34  1  0
  9 35  1  0
  9 36  1  0
 10 37  1  0
 10 38  1  0
 11 39  1  6
 13 40  1  0
 16 41  1  0
 19 42  1  0
 21 43  1  0
 22 44  1  0
 24 45  1  0
 25 46  1  0
 26 47  1  0
 27 48  1  0
M  END
>  <smiles>  (30) 
O=C(NCC(=O)N1CCC[C@H]1c1cc(Cl)cc(Cl)c1)c1ccc2ccccc2n1

>  <score_type>  (30) 
oracle

>  <origin>  (30) 
autodockgpu

>  <m_score__min__energy>  (30) 
-9.2400000000000002

>  <m_primary>  (30) 
energy

>  <rmsd>  (30) 
2.3831542764690905

>  <m_score__min__rmsd>  (30) 
2.3831542764690905

>  <meeko>  (30) 
{"free_energy": -8.96, "intermolecular_energy": -10.46, "internal_energy": -1.52, "cluster_size": 13, "cluster_id": 3, "rank_in_cluster": 2}

>  <energy>  (30) 
-8.72

>  <cluster_rmsd>  (30) 
0.29

>  <cluster>  (30) 
2

$$$$

     RDKit          3D

 48 51  0  0  0  0  0  0  0  0999 V2000
  141.5030   72.0170  221.7140 O   0  0  0  0  0  0  0  0  0  0  0  0
  140.5200   72.2890  222.4690 C   0  0  0  0  0  0  0  0  0  0  0  0
  139.6390   73.3630  222.1580 N   0  0  0  0  0  0  0  0  0  0  0  0
  139.9100   74.1210  220.9550 C   0  0  0  0  0  0  0  0  0  0  0  0
  140.7420   75.2970  221.1900 C   0  0  0  0  0  0  0  0  0  0  0  0
  140.7110   75.8300  222.3330 O   0  0  0  0  0  0  0  0  0  0  0  0
  141.5840   75.8870  220.2270 N   0  0  0  0  0  0  0  0  0  0  0  0
  142.3440   77.1490  220.3070 C   0  0  0  0  0  0  0  0  0  0  0  0
  141.8230   77.7810  219.0100 C   0  0  0  0  0  0  0  0  0  0  0  0
  141.9690   76.6450  218.0320 C   0  0  0  0  0  0  0  0  0  0  0  0
  141.9390   75.4220  218.8760 C   0  0  1  0  0  0  0  0  0  0  0  0
  143.2010   74.6610  218.8900 C   0  0  0  0  0  0  0  0  0  0  0  0
  143.9060   74.4150  220.0640 C   0  0  0  0  0  0  0  0  0  0  0  0
  145.0780   73.6880  220.0900 C   0  0  0  0  0  0  0  0  0  0  0  0
  145.9330   73.4020  221.6050 Cl  0  0  0  0  0  0  0  0  0  0  0  0
  145.6210   73.1600  218.9390 C   0  0  0  0  0  0  0  0  0  0  0  0
  144.9420   73.3910  217.7640 C   0  0  0  0  0  0  0  0  0  0  0  0
  145.6090   72.7310  216.2690 Cl  0  0  0  0  0  0  0  0  0  0  0  0
  143.7650   74.1210  217.7380 C   0  0  0  0  0  0  0  0  0  0  0  0
  140.2890   71.4930  223.6710 C   0  0  0  0  0  0  0  0  0  0  0  0
  139.5640   70.3200  223.5910 C   0  0  0  0  0  0  0  0  0  0  0  0
  139.3050   69.5160  224.6810 C   0  0  0  0  0  0  0  0  0  0  0  0
  139.8000   69.9120  225.9050 C   0  0  0  0  0  0  0  0  0  0  0  0
  139.5810   69.1580  227.0380 C   0  0  0  0  0  0  0  0  0  0  0  0
  140.0610   69.5240  228.2770 C   0  0  0  0  0  0  0  0  0  0  0  0
  140.7860   70.6960  228.3530 C   0  0  0  0  0  0  0  0  0  0  0  0
  141.0070   71.4520  227.2250 C   0  0  0  0  0  0  0  0  0  0  0  0
  140.5290   71.0910  225.9820 C   0  0  0  0  0  0  0  0  0  0  0  0
  140.7580   71.8490  224.8830 N   0  0  0  0  0  0  0  0  0  0  0  0
  138.8420   73.5620  222.7960 H   0  0  0  0  0  0  0  0  0  0  0  0
  140.4260   73.4656  220.2379 H   0  0  0  0  0  0  0  0  0  0  0  0
  138.9434   74.4770  220.5690 H   0  0  0  0  0  0  0  0  0  0  0  0
  142.0804   77.7406  221.1961 H   0  0  0  0  0  0  0  0  0  0  0  0
  143.4361   77.0548  220.3983 H   0  0  0  0  0  0  0  0  0  0  0  0
  140.7723   78.0909  219.1096 H   0  0  0  0  0  0  0  0  0  0  0  0
  142.3588   78.6949  218.7138 H   0  0  0  0  0  0  0  0  0  0  0  0
  141.1368   76.6417  217.3127 H   0  0  0  0  0  0  0  0  0  0  0  0
  142.8913   76.7206  217.4373 H   0  0  0  0  0  0  0  0  0  0  0  0
  141.2104   74.7083  218.4640 H   0  0  0  0  0  0  0  0  0  0  0  0
  143.5129   74.8165  221.0097 H   0  0  0  0  0  0  0  0  0  0  0  0
  146.5553   72.5798  218.9581 H   0  0  0  0  0  0  0  0  0  0  0  0
  143.2590   74.2792  216.7742 H   0  0  0  0  0  0  0  0  0  0  0  0
  139.1741   70.0121  222.6096 H   0  0  0  0  0  0  0  0  0  0  0  0
  138.7223   68.5888  224.5771 H   0  0  0  0  0  0  0  0  0  0  0  0
  139.0004   68.2279  226.9498 H   0  0  0  0  0  0  0  0  0  0  0  0
  139.8740   68.9075  229.1686 H   0  0  0  0  0  0  0  0  0  0  0  0
  141.1895   71.0275  229.3211 H   0  0  0  0  0  0  0  0  0  0  0  0
  141.5880   72.3814  227.3178 H   0  0  0  0  0  0  0  0  0  0  0  0
  1  2  2  0
  2  3  1  0
  3  4  1  0
  4  5  1  0
  5  6  2  0
  5  7  1  0
  7  8  1  0
  8  9  1  0
  9 10  1  0
 10 11  1  0
 11 12  1  0
 12 13  2  0
 13 14  1  0
 14 15  1  0
 14 16  2  0
 16 17  1  0
 17 18  1  0
 17 19  2  0
  2 20  1  0
 20 21  2  0
 21 22  1  0
 22 23  2  0
 23 24  1  0
 24 25  2  0
 25 26  1  0
 26 27  2  0
 27 28  1  0
 28 29  2  0
 11  7  1  0
 19 12  1  0
 29 20  1  0
 28 23  1  0
  3 30  1  0
  4 31  1  0
  4 32  1  0
  8 33  1  0
  8 34  1  0
  9 35  1  0
  9 36  1  0
 10 37  1  0
 10 38  1  0
 11 39  1  6
 13 40  1  0
 16 41  1  0
 19 42  1  0
 21 43  1  0
 22 44  1  0
 24 45  1  0
 25 46  1  0
 26 47  1  0
 27 48  1  0
M  END
>  <smiles>  (31) 
O=C(NCC(=O)N1CCC[C@H]1c1cc(Cl)cc(Cl)c1)c1ccc2ccccc2n1

>  <score_type>  (31) 
oracle

>  <origin>  (31) 
autodockgpu

>  <m_score__min__energy>  (31) 
-9.2400000000000002

>  <m_primary>  (31) 
energy

>  <rmsd>  (31) 
2.225997212135228

>  <m_score__min__rmsd>  (31) 
2.225997212135228

>  <meeko>  (31) 
{"free_energy": -8.73, "intermolecular_energy": -10.22, "internal_energy": -1.5, "cluster_size": 13, "cluster_id": 3, "rank_in_cluster": 4}

>  <energy>  (31) 
-9.01

>  <cluster_rmsd>  (31) 
0.0

>  <cluster>  (31) 
3

$$$$

     RDKit          3D

 48 51  0  0  0  0  0  0  0  0999 V2000
  140.5300   73.0490  222.4040 O   0  0  0  0  0  0  0  0  0  0  0  0
  139.6260   72.3710  222.9810 C   0  0  0  0  0  0  0  0  0  0  0  0
  138.2670   72.4710  222.5710 N   0  0  0  0  0  0  0  0  0  0  0  0
  137.9650   73.3700  221.4780 C   0  0  0  0  0  0  0  0  0  0  0  0
  138.2150   74.7720  221.7990 C   0  0  0  0  0  0  0  0  0  0  0  0
  137.4270   75.3510  222.5950 O   0  0  0  0  0  0  0  0  0  0  0  0
  139.2800   75.5340  221.2780 N   0  0  0  0  0  0  0  0  0  0  0  0
  139.4570   76.0720  219.9160 C   0  0  0  0  0  0  0  0  0  0  0  0
  140.8540   75.4940  219.6520 C   0  0  0  0  0  0  0  0  0  0  0  0
  141.5830   75.8580  220.9180 C   0  0  0  0  0  0  0  0  0  0  0  0
  140.5100   76.0040  221.9370 C   0  0  1  0  0  0  0  0  0  0  0  0
  140.3460   77.3750  222.4550 C   0  0  0  0  0  0  0  0  0  0  0  0
  141.4320   78.2050  222.7110 C   0  0  0  0  0  0  0  0  0  0  0  0
  141.2870   79.4960  223.1770 C   0  0  0  0  0  0  0  0  0  0  0  0
  142.6960   80.5100  223.4860 Cl  0  0  0  0  0  0  0  0  0  0  0  0
  140.0440   80.0380  223.4170 C   0  0  0  0  0  0  0  0  0  0  0  0
  138.9530   79.2340  223.1710 C   0  0  0  0  0  0  0  0  0  0  0  0
  137.3430   79.8950  223.4670 Cl  0  0  0  0  0  0  0  0  0  0  0  0
  139.0980   77.9390  222.7030 C   0  0  0  0  0  0  0  0  0  0  0  0
  139.9830   71.4770  224.0800 C   0  0  0  0  0  0  0  0  0  0  0  0
  140.9320   71.8690  225.0050 C   0  0  0  0  0  0  0  0  0  0  0  0
  141.3210   71.0800  226.0680 C   0  0  0  0  0  0  0  0  0  0  0  0
  140.7260   69.8440  226.2040 C   0  0  0  0  0  0  0  0  0  0  0  0
  141.0650   69.0030  227.2420 C   0  0  0  0  0  0  0  0  0  0  0  0
  140.4910   67.7610  227.4070 C   0  0  0  0  0  0  0  0  0  0  0  0
  139.5440   67.3730  226.4820 C   0  0  0  0  0  0  0  0  0  0  0  0
  139.2020   68.2090  225.4430 C   0  0  0  0  0  0  0  0  0  0  0  0
  139.7730   69.4540  225.2720 C   0  0  0  0  0  0  0  0  0  0  0  0
  139.4230   70.2630  224.2430 N   0  0  0  0  0  0  0  0  0  0  0  0
  137.5490   71.9020  223.0640 H   0  0  0  0  0  0  0  0  0  0  0  0
  138.5883   73.0927  220.6151 H   0  0  0  0  0  0  0  0  0  0  0  0
  136.8910   73.2713  221.2616 H   0  0  0  0  0  0  0  0  0  0  0  0
  138.7045   75.6864  219.2124 H   0  0  0  0  0  0  0  0  0  0  0  0
  139.3511   77.1612  219.8046 H   0  0  0  0  0  0  0  0  0  0  0  0
  140.8162   74.4037  219.5111 H   0  0  0  0  0  0  0  0  0  0  0  0
  141.3297   75.8791  218.7380 H   0  0  0  0  0  0  0  0  0  0  0  0
  142.2856   75.0617  221.2047 H   0  0  0  0  0  0  0  0  0  0  0  0
  142.1818   76.7741  220.8071 H   0  0  0  0  0  0  0  0  0  0  0  0
  140.7674   75.4178  222.8315 H   0  0  0  0  0  0  0  0  0  0  0  0
  142.4463   77.8174  222.5352 H   0  0  0  0  0  0  0  0  0  0  0  0
  139.9276   81.0668  223.7885 H   0  0  0  0  0  0  0  0  0  0  0  0
  138.1965   77.3356  222.5211 H   0  0  0  0  0  0  0  0  0  0  0  0
  141.3998   72.8577  224.8882 H   0  0  0  0  0  0  0  0  0  0  0  0
  142.0813   71.4261  226.7837 H   0  0  0  0  0  0  0  0  0  0  0  0
  141.8228   69.3359  227.9665 H   0  0  0  0  0  0  0  0  0  0  0  0
  140.7765   67.1053  228.2428 H   0  0  0  0  0  0  0  0  0  0  0  0
  139.0593   66.3899  226.5751 H   0  0  0  0  0  0  0  0  0  0  0  0
  138.4440   67.8716  224.7208 H   0  0  0  0  0  0  0  0  0  0  0  0
  1  2  2  0
  2  3  1  0
  3  4  1  0
  4  5  1  0
  5  6  2  0
  5  7  1  0
  7  8  1  0
  8  9  1  0
  9 10  1  0
 10 11  1  0
 11 12  1  0
 12 13  2  0
 13 14  1  0
 14 15  1  0
 14 16  2  0
 16 17  1  0
 17 18  1  0
 17 19  2  0
  2 20  1  0
 20 21  2  0
 21 22  1  0
 22 23  2  0
 23 24  1  0
 24 25  2  0
 25 26  1  0
 26 27  2  0
 27 28  1  0
 28 29  2  0
 11  7  1  0
 19 12  1  0
 29 20  1  0
 28 23  1  0
  3 30  1  0
  4 31  1  0
  4 32  1  0
  8 33  1  0
  8 34  1  0
  9 35  1  0
  9 36  1  0
 10 37  1  0
 10 38  1  0
 11 39  1  1
 13 40  1  0
 16 41  1  0
 19 42  1  0
 21 43  1  0
 22 44  1  0
 24 45  1  0
 25 46  1  0
 26 47  1  0
 27 48  1  0
M  END
>  <smiles>  (32) 
O=C(NCC(=O)N1CCC[C@H]1c1cc(Cl)cc(Cl)c1)c1ccc2ccccc2n1

>  <score_type>  (32) 
oracle

>  <origin>  (32) 
autodockgpu

>  <m_score__min__energy>  (32) 
-9.2400000000000002

>  <m_primary>  (32) 
energy

>  <rmsd>  (32) 
2.9246575580865484

>  <m_score__min__rmsd>  (32) 
2.9246575580865484

>  <meeko>  (32) 
{"free_energy": -8.76, "intermolecular_energy": -10.25, "internal_energy": -1.68, "cluster_size": 27, "cluster_id": 1, "rank_in_cluster": 24}

>  <energy>  (32) 
-8.96

>  <cluster_rmsd>  (32) 
0.19

>  <cluster>  (32) 
3

$$$$

     RDKit          3D

 48 51  0  0  0  0  0  0  0  0999 V2000
  141.1970   71.7420  221.4650 O   0  0  0  0  0  0  0  0  0  0  0  0
  140.5560   72.2690  222.4240 C   0  0  0  0  0  0  0  0  0  0  0  0
  140.0820   73.6080  222.3340 N   0  0  0  0  0  0  0  0  0  0  0  0
  140.3590   74.3330  221.1130 C   0  0  0  0  0  0  0  0  0  0  0  0
  140.0210   75.7510  221.1950 C   0  0  0  0  0  0  0  0  0  0  0  0
  139.5360   76.1860  222.2750 O   0  0  0  0  0  0  0  0  0  0  0  0
  140.1960   76.6770  220.1480 N   0  0  0  0  0  0  0  0  0  0  0  0
  139.1940   77.2150  219.2070 C   0  0  0  0  0  0  0  0  0  0  0  0
  139.9410   76.8840  217.9080 C   0  0  0  0  0  0  0  0  0  0  0  0
  141.3260   77.3900  218.2100 C   0  0  0  0  0  0  0  0  0  0  0  0
  141.4160   77.3640  219.6940 C   0  0  1  0  0  0  0  0  0  0  0  0
  141.5420   78.6940  220.3180 C   0  0  0  0  0  0  0  0  0  0  0  0
  141.9300   78.8570  221.6440 C   0  0  0  0  0  0  0  0  0  0  0  0
  142.0690   80.0980  222.2310 C   0  0  0  0  0  0  0  0  0  0  0  0
  142.5640   80.2510  223.9160 Cl  0  0  0  0  0  0  0  0  0  0  0  0
  141.8280   81.2560  221.5270 C   0  0  0  0  0  0  0  0  0  0  0  0
  141.4420   81.1210  220.2120 C   0  0  0  0  0  0  0  0  0  0  0  0
  141.1240   82.5840  219.2780 Cl  0  0  0  0  0  0  0  0  0  0  0  0
  141.3030   79.8750  219.6230 C   0  0  0  0  0  0  0  0  0  0  0  0
  140.3020   71.4950  223.6360 C   0  0  0  0  0  0  0  0  0  0  0  0
  139.5960   70.3090  223.5590 C   0  0  0  0  0  0  0  0  0  0  0  0
  139.3170   69.5240  224.6580 C   0  0  0  0  0  0  0  0  0  0  0  0
  139.7710   69.9520  225.8870 C   0  0  0  0  0  0  0  0  0  0  0  0
  139.5290   69.2190  227.0290 C   0  0  0  0  0  0  0  0  0  0  0  0
  139.9680   69.6180  228.2730 C   0  0  0  0  0  0  0  0  0  0  0  0
  140.6730   70.8020  228.3460 C   0  0  0  0  0  0  0  0  0  0  0  0
  140.9160   71.5380  227.2090 C   0  0  0  0  0  0  0  0  0  0  0  0
  140.4800   71.1440  225.9600 C   0  0  0  0  0  0  0  0  0  0  0  0
  140.7300   71.8830  224.8530 N   0  0  0  0  0  0  0  0  0  0  0  0
  139.5590   74.0120  223.1370 H   0  0  0  0  0  0  0  0  0  0  0  0
  141.4320   74.2421  220.8885 H   0  0  0  0  0  0  0  0  0  0  0  0
  139.7321   73.8934  220.3232 H   0  0  0  0  0  0  0  0  0  0  0  0
  138.2286   76.6928  219.2796 H   0  0  0  0  0  0  0  0  0  0  0  0
  138.9068   78.2672  219.3497 H   0  0  0  0  0  0  0  0  0  0  0  0
  139.9441   75.8015  217.7128 H   0  0  0  0  0  0  0  0  0  0  0  0
  139.4903   77.3306  217.0095 H   0  0  0  0  0  0  0  0  0  0  0  0
  142.0863   76.7328  217.7627 H   0  0  0  0  0  0  0  0  0  0  0  0
  141.5039   78.3941  217.7975 H   0  0  0  0  0  0  0  0  0  0  0  0
  142.3368   76.8454  219.9991 H   0  0  0  0  0  0  0  0  0  0  0  0
  142.1341   77.9610  222.2485 H   0  0  0  0  0  0  0  0  0  0  0  0
  141.9389   82.2457  221.9942 H   0  0  0  0  0  0  0  0  0  0  0  0
  140.9929   79.8175  218.5692 H   0  0  0  0  0  0  0  0  0  0  0  0
  139.2395   69.9752  222.5734 H   0  0  0  0  0  0  0  0  0  0  0  0
  138.7504   68.5866  224.5570 H   0  0  0  0  0  0  0  0  0  0  0  0
  138.9636   68.2792  226.9442 H   0  0  0  0  0  0  0  0  0  0  0  0
  139.7646   69.0169  229.1715 H   0  0  0  0  0  0  0  0  0  0  0  0
  141.0428   71.1594  229.3184 H   0  0  0  0  0  0  0  0  0  0  0  0
  141.4803   72.4779  227.2990 H   0  0  0  0  0  0  0  0  0  0  0  0
  1  2  2  0
  2  3  1  0
  3  4  1  0
  4  5  1  0
  5  6  2  0
  5  7  1  0
  7  8  1  0
  8  9  1  0
  9 10  1  0
 10 11  1  0
 11 12  1  0
 12 13  2  0
 13 14  1  0
 14 15  1  0
 14 16  2  0
 16 17  1  0
 17 18  1  0
 17 19  2  0
  2 20  1  0
 20 21  2  0
 21 22  1  0
 22 23  2  0
 23 24  1  0
 24 25  2  0
 25 26  1  0
 26 27  2  0
 27 28  1  0
 28 29  2  0
 11  7  1  0
 19 12  1  0
 29 20  1  0
 28 23  1  0
  3 30  1  0
  4 31  1  0
  4 32  1  0
  8 33  1  0
  8 34  1  0
  9 35  1  0
  9 36  1  0
 10 37  1  0
 10 38  1  0
 11 39  1  6
 13 40  1  0
 16 41  1  0
 19 42  1  0
 21 43  1  0
 22 44  1  0
 24 45  1  0
 25 46  1  0
 26 47  1  0
 27 48  1  0
M  END
>  <smiles>  (33) 
O=C(NCC(=O)N1CCC[C@H]1c1cc(Cl)cc(Cl)c1)c1ccc2ccccc2n1

>  <score_type>  (33) 
oracle

>  <origin>  (33) 
autodockgpu

>  <m_score__min__energy>  (33) 
-9.2400000000000002

>  <m_primary>  (33) 
energy

>  <rmsd>  (33) 
1.6563288932990854

>  <m_score__min__rmsd>  (33) 
1.6563288932990854

>  <meeko>  (33) 
{"free_energy": -8.51, "intermolecular_energy": -10.0, "internal_energy": -1.67, "cluster_size": 27, "cluster_id": 1, "rank_in_cluster": 27}

>  <energy>  (33) 
-8.75

>  <cluster_rmsd>  (33) 
0.65

>  <cluster>  (33) 
3

$$$$

     RDKit          3D

 48 51  0  0  0  0  0  0  0  0999 V2000
  141.2190   72.2060  221.7010 O   0  0  0  0  0  0  0  0  0  0  0  0
  140.2440   72.3430  222.5000 C   0  0  0  0  0  0  0  0  0  0  0  0
  139.2250   73.3040  222.2480 N   0  0  0  0  0  0  0  0  0  0  0  0
  139.3490   74.1090  221.0520 C   0  0  0  0  0  0  0  0  0  0  0  0
  140.2850   75.2190  221.1980 C   0  0  0  0  0  0  0  0  0  0  0  0
  140.5580   75.6200  222.3620 O   0  0  0  0  0  0  0  0  0  0  0  0
  140.9130   75.8840  220.1250 N   0  0  0  0  0  0  0  0  0  0  0  0
  140.4480   76.0460  218.7350 C   0  0  0  0  0  0  0  0  0  0  0  0
  141.7080   75.5150  218.0380 C   0  0  0  0  0  0  0  0  0  0  0  0
  142.7990   76.2540  218.7670 C   0  0  0  0  0  0  0  0  0  0  0  0
  142.2010   76.5960  220.0840 C   0  0  1  0  0  0  0  0  0  0  0  0
  142.0180   78.0410  220.3120 C   0  0  0  0  0  0  0  0  0  0  0  0
  141.8400   78.5740  221.5850 C   0  0  0  0  0  0  0  0  0  0  0  0
  141.6870   79.9260  221.8100 C   0  0  0  0  0  0  0  0  0  0  0  0
  141.4660   80.5520  223.4430 Cl  0  0  0  0  0  0  0  0  0  0  0  0
  141.7030   80.8330  220.7740 C   0  0  0  0  0  0  0  0  0  0  0  0
  141.8770   80.3290  219.5040 C   0  0  0  0  0  0  0  0  0  0  0  0
  141.9010   81.4620  218.1510 Cl  0  0  0  0  0  0  0  0  0  0  0  0
  142.0300   78.9720  219.2780 C   0  0  0  0  0  0  0  0  0  0  0  0
  140.1650   71.5060  223.6940 C   0  0  0  0  0  0  0  0  0  0  0  0
  139.5660   70.2620  223.6240 C   0  0  0  0  0  0  0  0  0  0  0  0
  139.4540   69.4160  224.7070 C   0  0  0  0  0  0  0  0  0  0  0  0
  139.9690   69.8420  225.9130 C   0  0  0  0  0  0  0  0  0  0  0  0
  139.8930   69.0490  227.0380 C   0  0  0  0  0  0  0  0  0  0  0  0
  140.3970   69.4430  228.2590 C   0  0  0  0  0  0  0  0  0  0  0  0
  140.9940   70.6850  228.3250 C   0  0  0  0  0  0  0  0  0  0  0  0
  141.0720   71.4810  227.2050 C   0  0  0  0  0  0  0  0  0  0  0  0
  140.5700   71.0920  225.9790 C   0  0  0  0  0  0  0  0  0  0  0  0
  140.6570   71.8900  224.8880 N   0  0  0  0  0  0  0  0  0  0  0  0
  138.4380   73.3940  222.9220 H   0  0  0  0  0  0  0  0  0  0  0  0
  139.6972   73.4642  220.2317 H   0  0  0  0  0  0  0  0  0  0  0  0
  138.3590   74.5424  220.8468 H   0  0  0  0  0  0  0  0  0  0  0  0
  139.5599   75.4348  218.5168 H   0  0  0  0  0  0  0  0  0  0  0  0
  140.1198   77.0552  218.4456 H   0  0  0  0  0  0  0  0  0  0  0  0
  141.8074   74.4269  218.1651 H   0  0  0  0  0  0  0  0  0  0  0  0
  141.7143   75.6725  216.9493 H   0  0  0  0  0  0  0  0  0  0  0  0
  143.6835   75.6130  218.8963 H   0  0  0  0  0  0  0  0  0  0  0  0
  143.1397   77.1445  218.2184 H   0  0  0  0  0  0  0  0  0  0  0  0
  142.8845   76.2908  220.8900 H   0  0  0  0  0  0  0  0  0  0  0  0
  141.8205   77.8898  222.4461 H   0  0  0  0  0  0  0  0  0  0  0  0
  141.5822   81.9117  220.9527 H   0  0  0  0  0  0  0  0  0  0  0  0
  142.1657   78.6175  218.2456 H   0  0  0  0  0  0  0  0  0  0  0  0
  139.1589   69.9310  222.6572 H   0  0  0  0  0  0  0  0  0  0  0  0
  138.9695   68.4330  224.6120 H   0  0  0  0  0  0  0  0  0  0  0  0
  139.4114   68.0633  226.9582 H   0  0  0  0  0  0  0  0  0  0  0  0
  140.3261   68.7939  229.1442 H   0  0  0  0  0  0  0  0  0  0  0  0
  141.4103   71.0413  229.2788 H   0  0  0  0  0  0  0  0  0  0  0  0
  141.5535   72.4664  227.2899 H   0  0  0  0  0  0  0  0  0  0  0  0
  1  2  2  0
  2  3  1  0
  3  4  1  0
  4  5  1  0
  5  6  2  0
  5  7  1  0
  7  8  1  0
  8  9  1  0
  9 10  1  0
 10 11  1  0
 11 12  1  0
 12 13  2  0
 13 14  1  0
 14 15  1  0
 14 16  2  0
 16 17  1  0
 17 18  1  0
 17 19  2  0
  2 20  1  0
 20 21  2  0
 21 22  1  0
 22 23  2  0
 23 24  1  0
 24 25  2  0
 25 26  1  0
 26 27  2  0
 27 28  1  0
 28 29  2  0
 11  7  1  0
 19 12  1  0
 29 20  1  0
 28 23  1  0
  3 30  1  0
  4 31  1  0
  4 32  1  0
  8 33  1  0
  8 34  1  0
  9 35  1  0
  9 36  1  0
 10 37  1  0
 10 38  1  0
 11 39  1  1
 13 40  1  0
 16 41  1  0
 19 42  1  0
 21 43  1  0
 22 44  1  0
 24 45  1  0
 25 46  1  0
 26 47  1  0
 27 48  1  0
M  END
>  <smiles>  (34) 
O=C(NCC(=O)N1CCC[C@H]1c1cc(Cl)cc(Cl)c1)c1ccc2ccccc2n1

>  <score_type>  (34) 
oracle

>  <origin>  (34) 
autodockgpu

>  <m_score__min__energy>  (34) 
-9.2400000000000002

>  <m_primary>  (34) 
energy

>  <rmsd>  (34) 
1.556555576831498

>  <m_score__min__rmsd>  (34) 
1.556555576831498

>  <meeko>  (34) 
{"free_energy": -9.08, "intermolecular_energy": -10.57, "internal_energy": -1.35, "cluster_size": 27, "cluster_id": 1, "rank_in_cluster": 5}

>  <energy>  (34) 
-8.73

>  <cluster_rmsd>  (34) 
0.9

>  <cluster>  (34) 
3

$$$$

     RDKit          3D

 48 51  0  0  0  0  0  0  0  0999 V2000
  139.3320   70.6290  221.2490 O   0  0  0  0  0  0  0  0  0  0  0  0
  139.2990   71.4610  222.2060 C   0  0  0  0  0  0  0  0  0  0  0  0
  138.8320   72.7900  221.9990 N   0  0  0  0  0  0  0  0  0  0  0  0
  138.4010   73.1450  220.6640 C   0  0  0  0  0  0  0  0  0  0  0  0
  138.9490   74.4160  220.2010 C   0  0  0  0  0  0  0  0  0  0  0  0
  138.3000   75.0650  219.3360 O   0  0  0  0  0  0  0  0  0  0  0  0
  140.1620   74.9760  220.6500 N   0  0  0  0  0  0  0  0  0  0  0  0
  140.5030   75.5010  221.9850 C   0  0  0  0  0  0  0  0  0  0  0  0
  141.0100   76.8790  221.5360 C   0  0  0  0  0  0  0  0  0  0  0  0
  141.9250   76.5150  220.3970 C   0  0  0  0  0  0  0  0  0  0  0  0
  141.4220   75.2000  219.9210 C   0  0  1  0  0  0  0  0  0  0  0  0
  142.3590   74.0800  220.1230 C   0  0  0  0  0  0  0  0  0  0  0  0
  142.0020   72.7590  219.8710 C   0  0  0  0  0  0  0  0  0  0  0  0
  142.8780   71.7070  220.0390 C   0  0  0  0  0  0  0  0  0  0  0  0
  142.3770   70.0500  219.7050 Cl  0  0  0  0  0  0  0  0  0  0  0  0
  144.1700   71.9100  220.4710 C   0  0  0  0  0  0  0  0  0  0  0  0
  144.5470   73.2100  220.7270 C   0  0  0  0  0  0  0  0  0  0  0  0
  146.1960   73.5080  221.2820 Cl  0  0  0  0  0  0  0  0  0  0  0  0
  143.6670   74.2660  220.5580 C   0  0  0  0  0  0  0  0  0  0  0  0
  139.7450   71.0530  223.5350 C   0  0  0  0  0  0  0  0  0  0  0  0
  140.5220   71.9080  224.2930 C   0  0  0  0  0  0  0  0  0  0  0  0
  140.9800   71.5940  225.5550 C   0  0  0  0  0  0  0  0  0  0  0  0
  140.6380   70.3640  226.0760 C   0  0  0  0  0  0  0  0  0  0  0  0
  141.0600   69.9820  227.3310 C   0  0  0  0  0  0  0  0  0  0  0  0
  140.7370   68.7610  227.8830 C   0  0  0  0  0  0  0  0  0  0  0  0
  139.9600   67.9100  227.1240 C   0  0  0  0  0  0  0  0  0  0  0  0
  139.5370   68.2870  225.8690 C   0  0  0  0  0  0  0  0  0  0  0  0
  139.8570   69.5080  225.3120 C   0  0  0  0  0  0  0  0  0  0  0  0
  139.4300   69.8600  224.0760 N   0  0  0  0  0  0  0  0  0  0  0  0
  138.8170   73.4500  222.8030 H   0  0  0  0  0  0  0  0  0  0  0  0
  138.7216   72.3531  219.9711 H   0  0  0  0  0  0  0  0  0  0  0  0
  137.3066   73.2521  220.6919 H   0  0  0  0  0  0  0  0  0  0  0  0
  139.6249   75.5723  222.6436 H   0  0  0  0  0  0  0  0  0  0  0  0
  141.2008   74.8962  222.5827 H   0  0  0  0  0  0  0  0  0  0  0  0
  140.1824   77.5189  221.1960 H   0  0  0  0  0  0  0  0  0  0  0  0
  141.5005   77.4549  222.3346 H   0  0  0  0  0  0  0  0  0  0  0  0
  141.8667   77.2667  219.5960 H   0  0  0  0  0  0  0  0  0  0  0  0
  142.9801   76.4725  220.7053 H   0  0  0  0  0  0  0  0  0  0  0  0
  141.2861   75.2310  218.8299 H   0  0  0  0  0  0  0  0  0  0  0  0
  140.9803   72.5451  219.5239 H   0  0  0  0  0  0  0  0  0  0  0  0
  144.8694   71.0717  220.6055 H   0  0  0  0  0  0  0  0  0  0  0  0
  144.0144   75.2868  220.7752 H   0  0  0  0  0  0  0  0  0  0  0  0
  140.7883   72.8873  223.8687 H   0  0  0  0  0  0  0  0  0  0  0  0
  141.5979   72.3015  226.1274 H   0  0  0  0  0  0  0  0  0  0  0  0
  141.6789   70.6789  227.9152 H   0  0  0  0  0  0  0  0  0  0  0  0
  141.0843   68.4767  228.8872 H   0  0  0  0  0  0  0  0  0  0  0  0
  139.6770   66.9250  227.5237 H   0  0  0  0  0  0  0  0  0  0  0  0
  138.9194   67.5868  225.2874 H   0  0  0  0  0  0  0  0  0  0  0  0
  1  2  2  0
  2  3  1  0
  3  4  1  0
  4  5  1  0
  5  6  2  0
  5  7  1  0
  7  8  1  0
  8  9  1  0
  9 10  1  0
 10 11  1  0
 11 12  1  0
 12 13  2  0
 13 14  1  0
 14 15  1  0
 14 16  2  0
 16 17  1  0
 17 18  1  0
 17 19  2  0
  2 20  1  0
 20 21  2  0
 21 22  1  0
 22 23  2  0
 23 24  1  0
 24 25  2  0
 25 26  1  0
 26 27  2  0
 27 28  1  0
 28 29  2  0
 11  7  1  0
 19 12  1  0
 29 20  1  0
 28 23  1  0
  3 30  1  0
  4 31  1  0
  4 32  1  0
  8 33  1  0
  8 34  1  0
  9 35  1  0
  9 36  1  0
 10 37  1  0
 10 38  1  0
 11 39  1  6
 13 40  1  0
 16 41  1  0
 19 42  1  0
 21 43  1  0
 22 44  1  0
 24 45  1  0
 25 46  1  0
 26 47  1  0
 27 48  1  0
M  END
>  <smiles>  (35) 
O=C(NCC(=O)N1CCC[C@H]1c1cc(Cl)cc(Cl)c1)c1ccc2ccccc2n1

>  <score_type>  (35) 
oracle

>  <origin>  (35) 
autodockgpu

>  <m_score__min__energy>  (35) 
-9.2400000000000002

>  <m_primary>  (35) 
energy

>  <rmsd>  (35) 
3.0299744149825374

>  <m_score__min__rmsd>  (35) 
3.0299744149825374

>  <meeko>  (35) 
{"free_energy": -7.95, "intermolecular_energy": -9.44, "internal_energy": -1.98, "cluster_size": 13, "cluster_id": 3, "rank_in_cluster": 13}

>  <energy>  (35) 
-8.69

>  <cluster_rmsd>  (35) 
0.89

>  <cluster>  (35) 
3

$$$$

     RDKit          3D

 48 51  0  0  0  0  0  0  0  0999 V2000
  138.8100   75.2460  221.8020 O   0  0  0  0  0  0  0  0  0  0  0  0
  139.9950   75.6860  221.9060 C   0  0  0  0  0  0  0  0  0  0  0  0
  141.1080   74.8660  221.5690 N   0  0  0  0  0  0  0  0  0  0  0  0
  140.8310   73.5230  221.1070 C   0  0  0  0  0  0  0  0  0  0  0  0
  142.0370   72.7330  220.8750 C   0  0  0  0  0  0  0  0  0  0  0  0
  142.0260   71.5170  221.2080 O   0  0  0  0  0  0  0  0  0  0  0  0
  143.2240   73.2340  220.3030 N   0  0  0  0  0  0  0  0  0  0  0  0
  144.1180   72.6000  219.3160 C   0  0  0  0  0  0  0  0  0  0  0  0
  145.4270   72.7570  220.1010 C   0  0  0  0  0  0  0  0  0  0  0  0
  145.3590   74.1990  220.5310 C   0  0  0  0  0  0  0  0  0  0  0  0
  143.9070   74.5190  220.5290 C   0  0  1  0  0  0  0  0  0  0  0  0
  143.5060   75.5180  219.5220 C   0  0  0  0  0  0  0  0  0  0  0  0
  142.9150   76.7280  219.8720 C   0  0  0  0  0  0  0  0  0  0  0  0
  142.5550   77.6770  218.9380 C   0  0  0  0  0  0  0  0  0  0  0  0
  141.8090   79.1960  219.4330 Cl  0  0  0  0  0  0  0  0  0  0  0  0
  142.7640   77.4760  217.5910 C   0  0  0  0  0  0  0  0  0  0  0  0
  143.3470   76.2850  217.2200 C   0  0  0  0  0  0  0  0  0  0  0  0
  143.6290   75.9910  215.5030 Cl  0  0  0  0  0  0  0  0  0  0  0  0
  143.7090   75.3320  218.1580 C   0  0  0  0  0  0  0  0  0  0  0  0
  140.2210   77.0500  222.3770 C   0  0  0  0  0  0  0  0  0  0  0  0
  139.1450   77.8530  222.7030 C   0  0  0  0  0  0  0  0  0  0  0  0
  139.2790   79.1490  223.1530 C   0  0  0  0  0  0  0  0  0  0  0  0
  140.5540   79.6570  223.2830 C   0  0  0  0  0  0  0  0  0  0  0  0
  140.7650   80.9440  223.7280 C   0  0  0  0  0  0  0  0  0  0  0  0
  142.0250   81.4840  223.8690 C   0  0  0  0  0  0  0  0  0  0  0  0
  143.0970   80.6790  223.5440 C   0  0  0  0  0  0  0  0  0  0  0  0
  142.8930   79.3930  223.0980 C   0  0  0  0  0  0  0  0  0  0  0  0
  141.6330   78.8470  222.9550 C   0  0  0  0  0  0  0  0  0  0  0  0
  141.4520   77.5780  222.5160 N   0  0  0  0  0  0  0  0  0  0  0  0
  142.0680   75.2550  221.6640 H   0  0  0  0  0  0  0  0  0  0  0  0
  140.2191   73.0121  221.8649 H   0  0  0  0  0  0  0  0  0  0  0  0
  140.3080   73.6108  220.1433 H   0  0  0  0  0  0  0  0  0  0  0  0
  143.8618   71.5456  219.1356 H   0  0  0  0  0  0  0  0  0  0  0  0
  144.1039   73.0254  218.3017 H   0  0  0  0  0  0  0  0  0  0  0  0
  145.4569   72.0815  220.9687 H   0  0  0  0  0  0  0  0  0  0  0  0
  146.3270   72.5081  219.5196 H   0  0  0  0  0  0  0  0  0  0  0  0
  145.7837   74.3251  221.5378 H   0  0  0  0  0  0  0  0  0  0  0  0
  145.9346   74.8613  219.8676 H   0  0  0  0  0  0  0  0  0  0  0  0
  143.6315   74.9883  221.4850 H   0  0  0  0  0  0  0  0  0  0  0  0
  142.7274   76.9360  220.9357 H   0  0  0  0  0  0  0  0  0  0  0  0
  142.4781   78.2328  216.8457 H   0  0  0  0  0  0  0  0  0  0  0  0
  144.1728   74.3962  217.8127 H   0  0  0  0  0  0  0  0  0  0  0  0
  138.1318   77.4378  222.5983 H   0  0  0  0  0  0  0  0  0  0  0  0
  138.3971   79.7582  223.4004 H   0  0  0  0  0  0  0  0  0  0  0  0
  139.8930   81.5650  223.9807 H   0  0  0  0  0  0  0  0  0  0  0  0
  142.1699   82.5143  224.2259 H   0  0  0  0  0  0  0  0  0  0  0  0
  144.1215   81.0674  223.6419 H   0  0  0  0  0  0  0  0  0  0  0  0
  143.7681   78.7761  222.8456 H   0  0  0  0  0  0  0  0  0  0  0  0
  1  2  2  0
  2  3  1  0
  3  4  1  0
  4  5  1  0
  5  6  2  0
  5  7  1  0
  7  8  1  0
  8  9  1  0
  9 10  1  0
 10 11  1  0
 11 12  1  0
 12 13  2  0
 13 14  1  0
 14 15  1  0
 14 16  2  0
 16 17  1  0
 17 18  1  0
 17 19  2  0
  2 20  1  0
 20 21  2  0
 21 22  1  0
 22 23  2  0
 23 24  1  0
 24 25  2  0
 25 26  1  0
 26 27  2  0
 27 28  1  0
 28 29  2  0
 11  7  1  0
 19 12  1  0
 29 20  1  0
 28 23  1  0
  3 30  1  0
  4 31  1  0
  4 32  1  0
  8 33  1  0
  8 34  1  0
  9 35  1  0
  9 36  1  0
 10 37  1  0
 10 38  1  0
 11 39  1  1
 13 40  1  0
 16 41  1  0
 19 42  1  0
 21 43  1  0
 22 44  1  0
 24 45  1  0
 25 46  1  0
 26 47  1  0
 27 48  1  0
M  END
>  <smiles>  (36) 
O=C(NCC(=O)N1CCC[C@H]1c1cc(Cl)cc(Cl)c1)c1ccc2ccccc2n1

>  <score_type>  (36) 
oracle

>  <origin>  (36) 
autodockgpu

>  <m_score__min__energy>  (36) 
-9.2400000000000002

>  <m_primary>  (36) 
energy

>  <rmsd>  (36) 
7.6974850865759326

>  <m_score__min__rmsd>  (36) 
7.6974850865759326

>  <meeko>  (36) 
{"free_energy": -8.06, "intermolecular_energy": -9.55, "internal_energy": -2.37, "cluster_size": 6, "cluster_id": 4, "rank_in_cluster": 6}

>  <energy>  (36) 
-8.67

>  <cluster_rmsd>  (36) 
0.66

>  <cluster>  (36) 
3

$$$$

     RDKit          3D

 48 51  0  0  0  0  0  0  0  0999 V2000
  139.7830   70.5320  221.5570 O   0  0  0  0  0  0  0  0  0  0  0  0
  139.6010   71.3720  222.4900 C   0  0  0  0  0  0  0  0  0  0  0  0
  139.0480   72.6540  222.2180 N   0  0  0  0  0  0  0  0  0  0  0  0
  138.7060   72.9560  220.8450 C   0  0  0  0  0  0  0  0  0  0  0  0
  139.0350   74.3230  220.4550 C   0  0  0  0  0  0  0  0  0  0  0  0
  138.1690   74.9880  219.8230 O   0  0  0  0  0  0  0  0  0  0  0  0
  140.2600   74.9610  220.7320 N   0  0  0  0  0  0  0  0  0  0  0  0
  140.7130   75.5970  221.9840 C   0  0  0  0  0  0  0  0  0  0  0  0
  141.1070   76.9560  221.3880 C   0  0  0  0  0  0  0  0  0  0  0  0
  141.9160   76.5430  220.1860 C   0  0  0  0  0  0  0  0  0  0  0  0
  141.4270   75.1780  219.8600 C   0  0  1  0  0  0  0  0  0  0  0  0
  142.4300   74.1140  220.0390 C   0  0  0  0  0  0  0  0  0  0  0  0
  143.7230   74.3800  220.4810 C   0  0  0  0  0  0  0  0  0  0  0  0
  144.6630   73.3880  220.6710 C   0  0  0  0  0  0  0  0  0  0  0  0
  146.2880   73.7770  221.2330 Cl  0  0  0  0  0  0  0  0  0  0  0  0
  144.3690   72.0640  220.4300 C   0  0  0  0  0  0  0  0  0  0  0  0
  143.0960   71.7760  219.9910 C   0  0  0  0  0  0  0  0  0  0  0  0
  142.6830   70.0900  219.6710 Cl  0  0  0  0  0  0  0  0  0  0  0  0
  142.1520   72.7710  219.8010 C   0  0  0  0  0  0  0  0  0  0  0  0
  139.9630   71.0200  223.8610 C   0  0  0  0  0  0  0  0  0  0  0  0
  140.6880   71.9090  224.6310 C   0  0  0  0  0  0  0  0  0  0  0  0
  141.0660   71.6470  225.9320 C   0  0  0  0  0  0  0  0  0  0  0  0
  140.6960   70.4370  226.4790 C   0  0  0  0  0  0  0  0  0  0  0  0
  141.0380   70.1080  227.7720 C   0  0  0  0  0  0  0  0  0  0  0  0
  140.6850   68.9080  228.3510 C   0  0  0  0  0  0  0  0  0  0  0  0
  139.9610   68.0230  227.5790 C   0  0  0  0  0  0  0  0  0  0  0  0
  139.6170   68.3460  226.2860 C   0  0  0  0  0  0  0  0  0  0  0  0
  139.9670   69.5470  225.7010 C   0  0  0  0  0  0  0  0  0  0  0  0
  139.6180   69.8470  224.4270 N   0  0  0  0  0  0  0  0  0  0  0  0
  138.9110   73.3210  223.0040 H   0  0  0  0  0  0  0  0  0  0  0  0
  139.2541   72.2642  220.1885 H   0  0  0  0  0  0  0  0  0  0  0  0
  137.6160   72.8433  220.7487 H   0  0  0  0  0  0  0  0  0  0  0  0
  139.9053   75.6835  222.7257 H   0  0  0  0  0  0  0  0  0  0  0  0
  141.4958   75.0656  222.5451 H   0  0  0  0  0  0  0  0  0  0  0  0
  140.2202   77.5364  221.0936 H   0  0  0  0  0  0  0  0  0  0  0  0
  141.6501   77.6084  222.0875 H   0  0  0  0  0  0  0  0  0  0  0  0
  141.7411   77.2299  219.3448 H   0  0  0  0  0  0  0  0  0  0  0  0
  142.9981   76.5640  220.3826 H   0  0  0  0  0  0  0  0  0  0  0  0
  141.1775   75.1219  218.7901 H   0  0  0  0  0  0  0  0  0  0  0  0
  144.0066   75.4227  220.6870 H   0  0  0  0  0  0  0  0  0  0  0  0
  145.1175   71.2723  220.5814 H   0  0  0  0  0  0  0  0  0  0  0  0
  141.1480   72.4905  219.4499 H   0  0  0  0  0  0  0  0  0  0  0  0
  140.9779   72.8721  224.1855 H   0  0  0  0  0  0  0  0  0  0  0  0
  141.6439   72.3801  226.5139 H   0  0  0  0  0  0  0  0  0  0  0  0
  141.6156   70.8315  228.3660 H   0  0  0  0  0  0  0  0  0  0  0  0
  140.9688   68.6660  229.3858 H   0  0  0  0  0  0  0  0  0  0  0  0
  139.6567   67.0531  227.9995 H   0  0  0  0  0  0  0  0  0  0  0  0
  139.0406   67.6188  225.6953 H   0  0  0  0  0  0  0  0  0  0  0  0
  1  2  2  0
  2  3  1  0
  3  4  1  0
  4  5  1  0
  5  6  2  0
  5  7  1  0
  7  8  1  0
  8  9  1  0
  9 10  1  0
 10 11  1  0
 11 12  1  0
 12 13  2  0
 13 14  1  0
 14 15  1  0
 14 16  2  0
 16 17  1  0
 17 18  1  0
 17 19  2  0
  2 20  1  0
 20 21  2  0
 21 22  1  0
 22 23  2  0
 23 24  1  0
 24 25  2  0
 25 26  1  0
 26 27  2  0
 27 28  1  0
 28 29  2  0
 11  7  1  0
 19 12  1  0
 29 20  1  0
 28 23  1  0
  3 30  1  0
  4 31  1  0
  4 32  1  0
  8 33  1  0
  8 34  1  0
  9 35  1  0
  9 36  1  0
 10 37  1  0
 10 38  1  0
 11 39  1  6
 13 40  1  0
 16 41  1  0
 19 42  1  0
 21 43  1  0
 22 44  1  0
 24 45  1  0
 25 46  1  0
 26 47  1  0
 27 48  1  0
M  END
>  <smiles>  (37) 
O=C(NCC(=O)N1CCC[C@H]1c1cc(Cl)cc(Cl)c1)c1ccc2ccccc2n1

>  <score_type>  (37) 
oracle

>  <origin>  (37) 
autodockgpu

>  <m_score__min__energy>  (37) 
-9.2400000000000002

>  <m_primary>  (37) 
energy

>  <rmsd>  (37) 
3.0607167666450406

>  <m_score__min__rmsd>  (37) 
3.0607167666450406

>  <meeko>  (37) 
{"free_energy": -8.29, "intermolecular_energy": -9.79, "internal_energy": -1.85, "cluster_size": 13, "cluster_id": 3, "rank_in_cluster": 12}

>  <energy>  (37) 
-8.48

>  <cluster_rmsd>  (37) 
1.49

>  <cluster>  (37) 
3

$$$$

     RDKit          3D

 48 51  0  0  0  0  0  0  0  0999 V2000
  138.5370   70.9520  221.7050 O   0  0  0  0  0  0  0  0  0  0  0  0
  139.0940   71.5120  222.6970 C   0  0  0  0  0  0  0  0  0  0  0  0
  139.4120   72.8990  222.6660 N   0  0  0  0  0  0  0  0  0  0  0  0
  139.0760   73.6340  221.4650 C   0  0  0  0  0  0  0  0  0  0  0  0
  138.9620   75.0720  221.6830 C   0  0  0  0  0  0  0  0  0  0  0  0
  138.0530   75.4890  222.4520 O   0  0  0  0  0  0  0  0  0  0  0  0
  139.7970   76.0410  221.0910 N   0  0  0  0  0  0  0  0  0  0  0  0
  139.6340   76.7460  219.8050 C   0  0  0  0  0  0  0  0  0  0  0  0
  141.0160   76.4200  219.2210 C   0  0  0  0  0  0  0  0  0  0  0  0
  141.9250   76.7490  220.3760 C   0  0  0  0  0  0  0  0  0  0  0  0
  141.0610   76.6170  221.5790 C   0  0  1  0  0  0  0  0  0  0  0  0
  140.8260   77.8810  222.3000 C   0  0  0  0  0  0  0  0  0  0  0  0
  139.5470   78.3350  222.6030 C   0  0  0  0  0  0  0  0  0  0  0  0
  139.3170   79.5060  223.2950 C   0  0  0  0  0  0  0  0  0  0  0  0
  137.6750   80.0380  223.6550 Cl  0  0  0  0  0  0  0  0  0  0  0  0
  140.3560   80.3000  223.7270 C   0  0  0  0  0  0  0  0  0  0  0  0
  141.6330   79.8720  223.4390 C   0  0  0  0  0  0  0  0  0  0  0  0
  142.9900   80.8640  223.9780 Cl  0  0  0  0  0  0  0  0  0  0  0  0
  141.8630   78.6960  222.7450 C   0  0  0  0  0  0  0  0  0  0  0  0
  139.4120   70.7270  223.8870 C   0  0  0  0  0  0  0  0  0  0  0  0
  139.1590   69.3690  223.9020 C   0  0  0  0  0  0  0  0  0  0  0  0
  139.4330   68.5620  224.9870 C   0  0  0  0  0  0  0  0  0  0  0  0
  139.9860   69.1510  226.1040 C   0  0  0  0  0  0  0  0  0  0  0  0
  140.2850   68.4070  227.2250 C   0  0  0  0  0  0  0  0  0  0  0  0
  140.8380   68.9630  228.3580 C   0  0  0  0  0  0  0  0  0  0  0  0
  141.0900   70.3190  228.3390 C   0  0  0  0  0  0  0  0  0  0  0  0
  140.7920   71.0670  227.2230 C   0  0  0  0  0  0  0  0  0  0  0  0
  140.2380   70.5160  226.0840 C   0  0  0  0  0  0  0  0  0  0  0  0
  139.9530   71.2690  224.9950 N   0  0  0  0  0  0  0  0  0  0  0  0
  139.8680   73.3300  223.4950 H   0  0  0  0  0  0  0  0  0  0  0  0
  139.8607   73.4554  220.7150 H   0  0  0  0  0  0  0  0  0  0  0  0
  138.0921   73.2760  221.1277 H   0  0  0  0  0  0  0  0  0  0  0  0
  138.8150   76.3297  219.2001 H   0  0  0  0  0  0  0  0  0  0  0  0
  139.3686   77.8119  219.8636 H   0  0  0  0  0  0  0  0  0  0  0  0
  141.0922   75.3589  218.9412 H   0  0  0  0  0  0  0  0  0  0  0  0
  141.2508   76.9715  218.2987 H   0  0  0  0  0  0  0  0  0  0  0  0
  142.7665   76.0420  220.4222 H   0  0  0  0  0  0  0  0  0  0  0  0
  142.3680   77.7519  220.2872 H   0  0  0  0  0  0  0  0  0  0  0  0
  141.5612   75.9815  222.3247 H   0  0  0  0  0  0  0  0  0  0  0  0
  138.6836   77.7361  222.2777 H   0  0  0  0  0  0  0  0  0  0  0  0
  140.1740   81.2347  224.2777 H   0  0  0  0  0  0  0  0  0  0  0  0
  142.9008   78.3956  222.5383 H   0  0  0  0  0  0  0  0  0  0  0  0
  138.7178   68.9088  223.0056 H   0  0  0  0  0  0  0  0  0  0  0  0
  139.2172   67.4837  224.9616 H   0  0  0  0  0  0  0  0  0  0  0  0
  140.0740   67.3275  227.2148 H   0  0  0  0  0  0  0  0  0  0  0  0
  141.0691   68.3503  229.2418 H   0  0  0  0  0  0  0  0  0  0  0  0
  141.5318   70.8054  229.2212 H   0  0  0  0  0  0  0  0  0  0  0  0
  141.0034   72.1464  227.2386 H   0  0  0  0  0  0  0  0  0  0  0  0
  1  2  2  0
  2  3  1  0
  3  4  1  0
  4  5  1  0
  5  6  2  0
  5  7  1  0
  7  8  1  0
  8  9  1  0
  9 10  1  0
 10 11  1  0
 11 12  1  0
 12 13  2  0
 13 14  1  0
 14 15  1  0
 14 16  2  0
 16 17  1  0
 17 18  1  0
 17 19  2  0
  2 20  1  0
 20 21  2  0
 21 22  1  0
 22 23  2  0
 23 24  1  0
 24 25  2  0
 25 26  1  0
 26 27  2  0
 27 28  1  0
 28 29  2  0
 11  7  1  0
 19 12  1  0
 29 20  1  0
 28 23  1  0
  3 30  1  0
  4 31  1  0
  4 32  1  0
  8 33  1  0
  8 34  1  0
  9 35  1  0
  9 36  1  0
 10 37  1  0
 10 38  1  0
 11 39  1  1
 13 40  1  0
 16 41  1  0
 19 42  1  0
 21 43  1  0
 22 44  1  0
 24 45  1  0
 25 46  1  0
 26 47  1  0
 27 48  1  0
M  END
>  <smiles>  (38) 
O=C(NCC(=O)N1CCC[C@H]1c1cc(Cl)cc(Cl)c1)c1ccc2ccccc2n1

>  <score_type>  (38) 
oracle

>  <origin>  (38) 
autodockgpu

>  <m_score__min__energy>  (38) 
-9.2400000000000002

>  <m_primary>  (38) 
energy

>  <rmsd>  (38) 
1.608424087150894

>  <m_score__min__rmsd>  (38) 
1.608424087150894

>  <meeko>  (38) 
{"free_energy": -8.92, "intermolecular_energy": -10.42, "internal_energy": -1.46, "cluster_size": 27, "cluster_id": 1, "rank_in_cluster": 17}

>  <energy>  (38) 
-8.47

>  <cluster_rmsd>  (38) 
1.47

>  <cluster>  (38) 
3

$$$$

     RDKit          3D

 48 51  0  0  0  0  0  0  0  0999 V2000
  140.6800   73.1940  222.3820 O   0  0  0  0  0  0  0  0  0  0  0  0
  139.6380   72.5540  222.7160 C   0  0  0  0  0  0  0  0  0  0  0  0
  138.3820   72.8430  222.1130 N   0  0  0  0  0  0  0  0  0  0  0  0
  138.3460   73.8880  221.1130 C   0  0  0  0  0  0  0  0  0  0  0  0
  138.6330   75.2130  221.6540 C   0  0  0  0  0  0  0  0  0  0  0  0
  138.0070   75.5850  222.6830 O   0  0  0  0  0  0  0  0  0  0  0  0
  139.5650   76.1170  221.1050 N   0  0  0  0  0  0  0  0  0  0  0  0
  139.5170   76.8290  219.8140 C   0  0  0  0  0  0  0  0  0  0  0  0
  140.8990   76.4030  219.2990 C   0  0  0  0  0  0  0  0  0  0  0  0
  141.7710   76.6690  220.4980 C   0  0  0  0  0  0  0  0  0  0  0  0
  140.8410   76.6020  221.6560 C   0  0  1  0  0  0  0  0  0  0  0  0
  140.6620   77.8820  222.3660 C   0  0  0  0  0  0  0  0  0  0  0  0
  141.7390   78.6750  222.7490 C   0  0  0  0  0  0  0  0  0  0  0  0
  141.5810   79.8820  223.3960 C   0  0  0  0  0  0  0  0  0  0  0  0
  142.9790   80.8510  223.8590 Cl  0  0  0  0  0  0  0  0  0  0  0  0
  140.3320   80.3740  223.7030 C   0  0  0  0  0  0  0  0  0  0  0  0
  139.2490   79.6070  223.3340 C   0  0  0  0  0  0  0  0  0  0  0  0
  137.6320   80.2060  223.7120 Cl  0  0  0  0  0  0  0  0  0  0  0  0
  139.4090   78.3950  222.6840 C   0  0  0  0  0  0  0  0  0  0  0  0
  139.7260   71.5070  223.7300 C   0  0  0  0  0  0  0  0  0  0  0  0
  139.1950   70.2570  223.4770 C   0  0  0  0  0  0  0  0  0  0  0  0
  139.2400   69.2190  224.3840 C   0  0  0  0  0  0  0  0  0  0  0  0
  139.8480   69.4520  225.5990 C   0  0  0  0  0  0  0  0  0  0  0  0
  139.9300   68.4620  226.5540 C   0  0  0  0  0  0  0  0  0  0  0  0
  140.5300   68.6600  227.7790 C   0  0  0  0  0  0  0  0  0  0  0  0
  141.0600   69.9100  228.0290 C   0  0  0  0  0  0  0  0  0  0  0  0
  140.9800   70.9020  227.0780 C   0  0  0  0  0  0  0  0  0  0  0  0
  140.3800   70.7100  225.8500 C   0  0  0  0  0  0  0  0  0  0  0  0
  140.3130   71.6990  224.9280 N   0  0  0  0  0  0  0  0  0  0  0  0
  137.5440   72.3000  222.4070 H   0  0  0  0  0  0  0  0  0  0  0  0
  139.0930   73.6571  220.3393 H   0  0  0  0  0  0  0  0  0  0  0  0
  137.3243   73.9157  220.7064 H   0  0  0  0  0  0  0  0  0  0  0  0
  138.7011   76.4715  219.1686 H   0  0  0  0  0  0  0  0  0  0  0  0
  139.3264   77.9114  219.8608 H   0  0  0  0  0  0  0  0  0  0  0  0
  140.9125   75.3384  219.0224 H   0  0  0  0  0  0  0  0  0  0  0  0
  141.2183   76.9337  218.3899 H   0  0  0  0  0  0  0  0  0  0  0  0
  142.5564   75.9038  220.5852 H   0  0  0  0  0  0  0  0  0  0  0  0
  142.2887   77.6373  220.4325 H   0  0  0  0  0  0  0  0  0  0  0  0
  141.2562   75.9339  222.4250 H   0  0  0  0  0  0  0  0  0  0  0  0
  142.7578   78.3248  222.5266 H   0  0  0  0  0  0  0  0  0  0  0  0
  140.2048   81.3366  224.2199 H   0  0  0  0  0  0  0  0  0  0  0  0
  138.5138   77.8177  222.4095 H   0  0  0  0  0  0  0  0  0  0  0  0
  138.7126   70.0809  222.5043 H   0  0  0  0  0  0  0  0  0  0  0  0
  138.8049   68.2372  224.1456 H   0  0  0  0  0  0  0  0  0  0  0  0
  139.4996   67.4748  226.3299 H   0  0  0  0  0  0  0  0  0  0  0  0
  140.5843   67.8551  228.5268 H   0  0  0  0  0  0  0  0  0  0  0  0
  141.5487   70.1143  228.9931 H   0  0  0  0  0  0  0  0  0  0  0  0
  141.4118   71.8877  227.3060 H   0  0  0  0  0  0  0  0  0  0  0  0
  1  2  2  0
  2  3  1  0
  3  4  1  0
  4  5  1  0
  5  6  2  0
  5  7  1  0
  7  8  1  0
  8  9  1  0
  9 10  1  0
 10 11  1  0
 11 12  1  0
 12 13  2  0
 13 14  1  0
 14 15  1  0
 14 16  2  0
 16 17  1  0
 17 18  1  0
 17 19  2  0
  2 20  1  0
 20 21  2  0
 21 22  1  0
 22 23  2  0
 23 24  1  0
 24 25  2  0
 25 26  1  0
 26 27  2  0
 27 28  1  0
 28 29  2  0
 11  7  1  0
 19 12  1  0
 29 20  1  0
 28 23  1  0
  3 30  1  0
  4 31  1  0
  4 32  1  0
  8 33  1  0
  8 34  1  0
  9 35  1  0
  9 36  1  0
 10 37  1  0
 10 38  1  0
 11 39  1  1
 13 40  1  0
 16 41  1  0
 19 42  1  0
 21 43  1  0
 22 44  1  0
 24 45  1  0
 25 46  1  0
 26 47  1  0
 27 48  1  0
M  END
>  <smiles>  (39) 
O=C(NCC(=O)N1CCC[C@H]1c1cc(Cl)cc(Cl)c1)c1ccc2ccccc2n1

>  <score_type>  (39) 
oracle

>  <origin>  (39) 
autodockgpu

>  <m_score__min__energy>  (39) 
-9.2400000000000002

>  <m_primary>  (39) 
energy

>  <rmsd>  (39) 
1.7314372963416873

>  <m_score__min__rmsd>  (39) 
1.7314372963416873

>  <meeko>  (39) 
{"free_energy": -9.14, "intermolecular_energy": -10.63, "internal_energy": -1.42, "cluster_size": 27, "cluster_id": 1, "rank_in_cluster": 4}

>  <energy>  (39) 
-8.46

>  <cluster_rmsd>  (39) 
1.49

>  <cluster>  (39) 
3

$$$$

     RDKit          3D

 48 51  0  0  0  0  0  0  0  0999 V2000
  140.7510   73.1810  222.4070 O   0  0  0  0  0  0  0  0  0  0  0  0
  139.7020   72.5360  222.7100 C   0  0  0  0  0  0  0  0  0  0  0  0
  138.4600   72.8290  222.0810 N   0  0  0  0  0  0  0  0  0  0  0  0
  138.4460   73.8840  221.0900 C   0  0  0  0  0  0  0  0  0  0  0  0
  138.7380   75.2010  221.6470 C   0  0  0  0  0  0  0  0  0  0  0  0
  138.1640   75.5360  222.7190 O   0  0  0  0  0  0  0  0  0  0  0  0
  139.6200   76.1370  221.0700 N   0  0  0  0  0  0  0  0  0  0  0  0
  139.4920   76.8690  219.7960 C   0  0  0  0  0  0  0  0  0  0  0  0
  140.8560   76.4860  219.2060 C   0  0  0  0  0  0  0  0  0  0  0  0
  141.7790   76.7520  220.3650 C   0  0  0  0  0  0  0  0  0  0  0  0
  140.9110   76.6430  221.5660 C   0  0  1  0  0  0  0  0  0  0  0  0
  140.7370   77.9050  222.3070 C   0  0  0  0  0  0  0  0  0  0  0  0
  141.8170   78.6900  222.6990 C   0  0  0  0  0  0  0  0  0  0  0  0
  141.6640   79.8820  223.3760 C   0  0  0  0  0  0  0  0  0  0  0  0
  143.0660   80.8400  223.8490 Cl  0  0  0  0  0  0  0  0  0  0  0  0
  140.4180   80.3660  223.7050 C   0  0  0  0  0  0  0  0  0  0  0  0
  139.3320   79.6070  223.3280 C   0  0  0  0  0  0  0  0  0  0  0  0
  137.7190   80.1950  223.7330 Cl  0  0  0  0  0  0  0  0  0  0  0  0
  139.4860   78.4100  222.6480 C   0  0  0  0  0  0  0  0  0  0  0  0
  139.7680   71.4790  223.7160 C   0  0  0  0  0  0  0  0  0  0  0  0
  139.2010   70.2460  223.4570 C   0  0  0  0  0  0  0  0  0  0  0  0
  139.2230   69.2010  224.3570 C   0  0  0  0  0  0  0  0  0  0  0  0
  139.8450   69.4080  225.5690 C   0  0  0  0  0  0  0  0  0  0  0  0
  139.9060   68.4090  226.5160 C   0  0  0  0  0  0  0  0  0  0  0  0
  140.5200   68.5810  227.7380 C   0  0  0  0  0  0  0  0  0  0  0  0
  141.0860   69.8130  227.9930 C   0  0  0  0  0  0  0  0  0  0  0  0
  141.0270   70.8150  227.0510 C   0  0  0  0  0  0  0  0  0  0  0  0
  140.4140   70.6480  225.8250 C   0  0  0  0  0  0  0  0  0  0  0  0
  140.3680   71.6460  224.9110 N   0  0  0  0  0  0  0  0  0  0  0  0
  137.6170   72.2820  222.3500 H   0  0  0  0  0  0  0  0  0  0  0  0
  139.2007   73.6536  220.3236 H   0  0  0  0  0  0  0  0  0  0  0  0
  137.4298   73.9248  220.6708 H   0  0  0  0  0  0  0  0  0  0  0  0
  138.6539   76.5026  219.1851 H   0  0  0  0  0  0  0  0  0  0  0  0
  139.2789   77.9455  219.8719 H   0  0  0  0  0  0  0  0  0  0  0  0
  140.8808   75.4271  218.9092 H   0  0  0  0  0  0  0  0  0  0  0  0
  141.1174   77.0400  218.2923 H   0  0  0  0  0  0  0  0  0  0  0  0
  142.5853   76.0045  220.3992 H   0  0  0  0  0  0  0  0  0  0  0  0
  142.2695   77.7339  220.2917 H   0  0  0  0  0  0  0  0  0  0  0  0
  141.3806   75.9725  222.3008 H   0  0  0  0  0  0  0  0  0  0  0  0
  142.8340   78.3460  222.4593 H   0  0  0  0  0  0  0  0  0  0  0  0
  140.2950   81.3165  224.2449 H   0  0  0  0  0  0  0  0  0  0  0  0
  138.5885   77.8390  222.3679 H   0  0  0  0  0  0  0  0  0  0  0  0
  138.7082   70.0902  222.4860 H   0  0  0  0  0  0  0  0  0  0  0  0
  138.7589   68.2335  224.1150 H   0  0  0  0  0  0  0  0  0  0  0  0
  139.4466   67.4359  226.2878 H   0  0  0  0  0  0  0  0  0  0  0  0
  140.5572   67.7693  228.4794 H   0  0  0  0  0  0  0  0  0  0  0  0
  141.5875   69.9957  228.9548 H   0  0  0  0  0  0  0  0  0  0  0  0
  141.4862   71.7870  227.2841 H   0  0  0  0  0  0  0  0  0  0  0  0
  1  2  2  0
  2  3  1  0
  3  4  1  0
  4  5  1  0
  5  6  2  0
  5  7  1  0
  7  8  1  0
  8  9  1  0
  9 10  1  0
 10 11  1  0
 11 12  1  0
 12 13  2  0
 13 14  1  0
 14 15  1  0
 14 16  2  0
 16 17  1  0
 17 18  1  0
 17 19  2  0
  2 20  1  0
 20 21  2  0
 21 22  1  0
 22 23  2  0
 23 24  1  0
 24 25  2  0
 25 26  1  0
 26 27  2  0
 27 28  1  0
 28 29  2  0
 11  7  1  0
 19 12  1  0
 29 20  1  0
 28 23  1  0
  3 30  1  0
  4 31  1  0
  4 32  1  0
  8 33  1  0
  8 34  1  0
  9 35  1  0
  9 36  1  0
 10 37  1  0
 10 38  1  0
 11 39  1  1
 13 40  1  0
 16 41  1  0
 19 42  1  0
 21 43  1  0
 22 44  1  0
 24 45  1  0
 25 46  1  0
 26 47  1  0
 27 48  1  0
M  END
>  <smiles>  (40) 
O=C(NCC(=O)N1CCC[C@H]1c1cc(Cl)cc(Cl)c1)c1ccc2ccccc2n1

>  <score_type>  (40) 
oracle

>  <origin>  (40) 
autodockgpu

>  <m_score__min__energy>  (40) 
-9.2400000000000002

>  <m_primary>  (40) 
energy

>  <rmsd>  (40) 
1.7002937301459993

>  <m_score__min__rmsd>  (40) 
1.7002937301459993

>  <meeko>  (40) 
{"free_energy": -9.08, "intermolecular_energy": -10.57, "internal_energy": -1.4, "cluster_size": 27, "cluster_id": 1, "rank_in_cluster": 6}

>  <energy>  (40) 
-8.46

>  <cluster_rmsd>  (40) 
0.84

>  <cluster>  (40) 
3

$$$$

     RDKit          3D

 48 51  0  0  0  0  0  0  0  0999 V2000
  139.9760   71.0880  221.3300 O   0  0  0  0  0  0  0  0  0  0  0  0
  139.8600   71.7090  222.4300 C   0  0  0  0  0  0  0  0  0  0  0  0
  139.6640   73.1180  222.4530 N   0  0  0  0  0  0  0  0  0  0  0  0
  139.6050   73.8050  221.1800 C   0  0  0  0  0  0  0  0  0  0  0  0
  140.1480   75.1580  221.2290 C   0  0  0  0  0  0  0  0  0  0  0  0
  140.0190   75.8140  222.2980 O   0  0  0  0  0  0  0  0  0  0  0  0
  140.8100   75.7950  220.1600 N   0  0  0  0  0  0  0  0  0  0  0  0
  140.3580   75.9830  218.7680 C   0  0  0  0  0  0  0  0  0  0  0  0
  141.5930   75.3930  218.0740 C   0  0  0  0  0  0  0  0  0  0  0  0
  142.7160   76.0760  218.8080 C   0  0  0  0  0  0  0  0  0  0  0  0
  142.1320   76.4430  220.1240 C   0  0  1  0  0  0  0  0  0  0  0  0
  142.0190   77.8940  220.3560 C   0  0  0  0  0  0  0  0  0  0  0  0
  142.0920   78.8190  219.3200 C   0  0  0  0  0  0  0  0  0  0  0  0
  141.9680   80.1770  219.5250 C   0  0  0  0  0  0  0  0  0  0  0  0
  142.0680   81.3090  218.1760 Cl  0  0  0  0  0  0  0  0  0  0  0  0
  141.7630   80.6980  220.7830 C   0  0  0  0  0  0  0  0  0  0  0  0
  141.6880   79.8020  221.8260 C   0  0  0  0  0  0  0  0  0  0  0  0
  141.4250   80.4330  223.4530 Cl  0  0  0  0  0  0  0  0  0  0  0  0
  141.8120   78.4390  221.6200 C   0  0  0  0  0  0  0  0  0  0  0  0
  139.9260   70.9710  223.6880 C   0  0  0  0  0  0  0  0  0  0  0  0
  139.4790   69.6650  223.7440 C   0  0  0  0  0  0  0  0  0  0  0  0
  139.5100   68.9040  224.8940 C   0  0  0  0  0  0  0  0  0  0  0  0
  140.0150   69.4860  226.0370 C   0  0  0  0  0  0  0  0  0  0  0  0
  140.0770   68.7860  227.2230 C   0  0  0  0  0  0  0  0  0  0  0  0
  140.5750   69.3370  228.3840 C   0  0  0  0  0  0  0  0  0  0  0  0
  141.0220   70.6410  228.3240 C   0  0  0  0  0  0  0  0  0  0  0  0
  140.9620   71.3440  227.1430 C   0  0  0  0  0  0  0  0  0  0  0  0
  140.4640   70.7990  225.9770 C   0  0  0  0  0  0  0  0  0  0  0  0
  140.4140   71.5070  224.8230 N   0  0  0  0  0  0  0  0  0  0  0  0
  139.5720   73.6000  223.3700 H   0  0  0  0  0  0  0  0  0  0  0  0
  140.1796   73.2246  220.4431 H   0  0  0  0  0  0  0  0  0  0  0  0
  138.5435   73.8897  220.9043 H   0  0  0  0  0  0  0  0  0  0  0  0
  139.4419   75.4163  218.5452 H   0  0  0  0  0  0  0  0  0  0  0  0
  140.0803   77.0077  218.4801 H   0  0  0  0  0  0  0  0  0  0  0  0
  141.6389   74.3011  218.1988 H   0  0  0  0  0  0  0  0  0  0  0  0
  141.6107   75.5526  216.9858 H   0  0  0  0  0  0  0  0  0  0  0  0
  143.5680   75.3924  218.9378 H   0  0  0  0  0  0  0  0  0  0  0  0
  143.1009   76.9505  218.2629 H   0  0  0  0  0  0  0  0  0  0  0  0
  142.7980   76.1021  220.9304 H   0  0  0  0  0  0  0  0  0  0  0  0
  142.2552   78.4526  218.2958 H   0  0  0  0  0  0  0  0  0  0  0  0
  141.6636   81.7811  220.9474 H   0  0  0  0  0  0  0  0  0  0  0  0
  141.7446   77.7630  222.4851 H   0  0  0  0  0  0  0  0  0  0  0  0
  139.0786   69.2096  222.8262 H   0  0  0  0  0  0  0  0  0  0  0  0
  139.1438   67.8668  224.8988 H   0  0  0  0  0  0  0  0  0  0  0  0
  139.7150   67.7475  227.2435 H   0  0  0  0  0  0  0  0  0  0  0  0
  140.6145   68.7608  229.3202 H   0  0  0  0  0  0  0  0  0  0  0  0
  141.4288   71.1214  229.2260 H   0  0  0  0  0  0  0  0  0  0  0  0
  141.3255   72.3821  227.1274 H   0  0  0  0  0  0  0  0  0  0  0  0
  1  2  2  0
  2  3  1  0
  3  4  1  0
  4  5  1  0
  5  6  2  0
  5  7  1  0
  7  8  1  0
  8  9  1  0
  9 10  1  0
 10 11  1  0
 11 12  1  0
 12 13  2  0
 13 14  1  0
 14 15  1  0
 14 16  2  0
 16 17  1  0
 17 18  1  0
 17 19  2  0
  2 20  1  0
 20 21  2  0
 21 22  1  0
 22 23  2  0
 23 24  1  0
 24 25  2  0
 25 26  1  0
 26 27  2  0
 27 28  1  0
 28 29  2  0
 11  7  1  0
 19 12  1  0
 29 20  1  0
 28 23  1  0
  3 30  1  0
  4 31  1  0
  4 32  1  0
  8 33  1  0
  8 34  1  0
  9 35  1  0
  9 36  1  0
 10 37  1  0
 10 38  1  0
 11 39  1  1
 13 40  1  0
 16 41  1  0
 19 42  1  0
 21 43  1  0
 22 44  1  0
 24 45  1  0
 25 46  1  0
 26 47  1  0
 27 48  1  0
M  END
>  <smiles>  (41) 
O=C(NCC(=O)N1CCC[C@H]1c1cc(Cl)cc(Cl)c1)c1ccc2ccccc2n1

>  <score_type>  (41) 
oracle

>  <origin>  (41) 
autodockgpu

>  <m_score__min__energy>  (41) 
-9.2400000000000002

>  <m_primary>  (41) 
energy

>  <rmsd>  (41) 
1.4532213449064793

>  <m_score__min__rmsd>  (41) 
1.4532213449064793

>  <meeko>  (41) 
{"free_energy": -8.81, "intermolecular_energy": -10.3, "internal_energy": -1.63, "cluster_size": 27, "cluster_id": 1, "rank_in_cluster": 23}

>  <energy>  (41) 
-8.35

>  <cluster_rmsd>  (41) 
1.49

>  <cluster>  (41) 
3

$$$$

     RDKit          3D

 48 51  0  0  0  0  0  0  0  0999 V2000
  140.8510   72.9820  222.2250 O   0  0  0  0  0  0  0  0  0  0  0  0
  139.8020   72.5230  222.7720 C   0  0  0  0  0  0  0  0  0  0  0  0
  138.5130   72.9560  222.3520 N   0  0  0  0  0  0  0  0  0  0  0  0
  138.4520   73.9320  221.2850 C   0  0  0  0  0  0  0  0  0  0  0  0
  138.6700   75.3000  221.7430 C   0  0  0  0  0  0  0  0  0  0  0  0
  137.9940   75.7160  222.7230 O   0  0  0  0  0  0  0  0  0  0  0  0
  139.5850   76.2020  221.1640 N   0  0  0  0  0  0  0  0  0  0  0  0
  139.5010   76.9100  219.8730 C   0  0  0  0  0  0  0  0  0  0  0  0
  140.8660   76.4810  219.3190 C   0  0  0  0  0  0  0  0  0  0  0  0
  141.7730   76.7490  220.4910 C   0  0  0  0  0  0  0  0  0  0  0  0
  140.8790   76.6870  221.6760 C   0  0  1  0  0  0  0  0  0  0  0  0
  140.7230   77.9680  222.3880 C   0  0  0  0  0  0  0  0  0  0  0  0
  141.8140   78.7420  222.7700 C   0  0  0  0  0  0  0  0  0  0  0  0
  141.6770   79.9510  223.4190 C   0  0  0  0  0  0  0  0  0  0  0  0
  143.0920   80.8950  223.8810 Cl  0  0  0  0  0  0  0  0  0  0  0  0
  140.4370   80.4640  223.7280 C   0  0  0  0  0  0  0  0  0  0  0  0
  139.3410   79.7160  223.3600 C   0  0  0  0  0  0  0  0  0  0  0  0
  137.7350   80.3420  223.7400 Cl  0  0  0  0  0  0  0  0  0  0  0  0
  139.4780   78.5020  222.7080 C   0  0  0  0  0  0  0  0  0  0  0  0
  139.9180   71.5380  223.8440 C   0  0  0  0  0  0  0  0  0  0  0  0
  139.5050   70.2370  223.6300 C   0  0  0  0  0  0  0  0  0  0  0  0
  139.5830   69.2530  224.5940 C   0  0  0  0  0  0  0  0  0  0  0  0
  140.1000   69.5960  225.8240 C   0  0  0  0  0  0  0  0  0  0  0  0
  140.2080   68.6640  226.8350 C   0  0  0  0  0  0  0  0  0  0  0  0
  140.7200   68.9730  228.0770 C   0  0  0  0  0  0  0  0  0  0  0  0
  141.1310   70.2730  228.2860 C   0  0  0  0  0  0  0  0  0  0  0  0
  141.0250   71.2070  227.2810 C   0  0  0  0  0  0  0  0  0  0  0  0
  140.5130   70.9050  226.0350 C   0  0  0  0  0  0  0  0  0  0  0  0
  140.4180   71.8380  225.0580 N   0  0  0  0  0  0  0  0  0  0  0  0
  137.6720   72.5610  222.8190 H   0  0  0  0  0  0  0  0  0  0  0  0
  139.2240   73.6853  220.5412 H   0  0  0  0  0  0  0  0  0  0  0  0
  137.4385   73.8877  220.8596 H   0  0  0  0  0  0  0  0  0  0  0  0
  138.6662   76.5518  219.2527 H   0  0  0  0  0  0  0  0  0  0  0  0
  139.3138   77.9928  219.9225 H   0  0  0  0  0  0  0  0  0  0  0  0
  140.8700   75.4157  219.0450 H   0  0  0  0  0  0  0  0  0  0  0  0
  141.1591   77.0088  218.3995 H   0  0  0  0  0  0  0  0  0  0  0  0
  142.5595   75.9828  220.5570 H   0  0  0  0  0  0  0  0  0  0  0  0
  142.2894   77.7166  220.4072 H   0  0  0  0  0  0  0  0  0  0  0  0
  141.3166   76.0208  222.4340 H   0  0  0  0  0  0  0  0  0  0  0  0
  142.8263   78.3750  222.5454 H   0  0  0  0  0  0  0  0  0  0  0  0
  140.3269   81.4283  224.2457 H   0  0  0  0  0  0  0  0  0  0  0  0
  138.5725   77.9408  222.4337 H   0  0  0  0  0  0  0  0  0  0  0  0
  139.0945   69.9732  222.6442 H   0  0  0  0  0  0  0  0  0  0  0  0
  139.2432   68.2275  224.3871 H   0  0  0  0  0  0  0  0  0  0  0  0
  139.8725   67.6342  226.6427 H   0  0  0  0  0  0  0  0  0  0  0  0
  140.7977   68.2138  228.8692 H   0  0  0  0  0  0  0  0  0  0  0  0
  141.5460   70.5649  229.2620 H   0  0  0  0  0  0  0  0  0  0  0  0
  141.3617   72.2354  227.4784 H   0  0  0  0  0  0  0  0  0  0  0  0
  1  2  2  0
  2  3  1  0
  3  4  1  0
  4  5  1  0
  5  6  2  0
  5  7  1  0
  7  8  1  0
  8  9  1  0
  9 10  1  0
 10 11  1  0
 11 12  1  0
 12 13  2  0
 13 14  1  0
 14 15  1  0
 14 16  2  0
 16 17  1  0
 17 18  1  0
 17 19  2  0
  2 20  1  0
 20 21  2  0
 21 22  1  0
 22 23  2  0
 23 24  1  0
 24 25  2  0
 25 26  1  0
 26 27  2  0
 27 28  1  0
 28 29  2  0
 11  7  1  0
 19 12  1  0
 29 20  1  0
 28 23  1  0
  3 30  1  0
  4 31  1  0
  4 32  1  0
  8 33  1  0
  8 34  1  0
  9 35  1  0
  9 36  1  0
 10 37  1  0
 10 38  1  0
 11 39  1  1
 13 40  1  0
 16 41  1  0
 19 42  1  0
 21 43  1  0
 22 44  1  0
 24 45  1  0
 25 46  1  0
 26 47  1  0
 27 48  1  0
M  END
>  <smiles>  (42) 
O=C(NCC(=O)N1CCC[C@H]1c1cc(Cl)cc(Cl)c1)c1ccc2ccccc2n1

>  <score_type>  (42) 
oracle

>  <origin>  (42) 
autodockgpu

>  <m_score__min__energy>  (42) 
-9.2400000000000002

>  <m_primary>  (42) 
energy

>  <rmsd>  (42) 
1.7562806599489418

>  <m_score__min__rmsd>  (42) 
1.7562806599489418

>  <meeko>  (42) 
{"free_energy": -9.23, "intermolecular_energy": -10.73, "internal_energy": -1.42, "cluster_size": 27, "cluster_id": 1, "rank_in_cluster": 2}

>  <energy>  (42) 
-8.29

>  <cluster_rmsd>  (42) 
1.61

>  <cluster>  (42) 
3

$$$$

     RDKit          3D

 48 51  0  0  0  0  0  0  0  0999 V2000
  138.7650   75.4300  221.5890 O   0  0  0  0  0  0  0  0  0  0  0  0
  139.9530   75.8020  221.8290 C   0  0  0  0  0  0  0  0  0  0  0  0
  141.0500   74.9220  221.6060 N   0  0  0  0  0  0  0  0  0  0  0  0
  140.7520   73.6000  221.0990 C   0  0  0  0  0  0  0  0  0  0  0  0
  141.9430   72.7850  220.8810 C   0  0  0  0  0  0  0  0  0  0  0  0
  141.9110   71.5750  221.2380 O   0  0  0  0  0  0  0  0  0  0  0  0
  143.1370   73.2520  220.2970 N   0  0  0  0  0  0  0  0  0  0  0  0
  144.0100   72.5890  219.3110 C   0  0  0  0  0  0  0  0  0  0  0  0
  145.3280   72.7230  220.0860 C   0  0  0  0  0  0  0  0  0  0  0  0
  145.2950   74.1700  220.5030 C   0  0  0  0  0  0  0  0  0  0  0  0
  143.8510   74.5230  220.5060 C   0  0  1  0  0  0  0  0  0  0  0  0
  143.4680   75.5220  219.4920 C   0  0  0  0  0  0  0  0  0  0  0  0
  142.8570   76.7250  219.8310 C   0  0  0  0  0  0  0  0  0  0  0  0
  142.5120   77.6740  218.8910 C   0  0  0  0  0  0  0  0  0  0  0  0
  141.7390   79.1850  219.3710 Cl  0  0  0  0  0  0  0  0  0  0  0  0
  142.7570   77.4790  217.5500 C   0  0  0  0  0  0  0  0  0  0  0  0
  143.3610   76.2950  217.1900 C   0  0  0  0  0  0  0  0  0  0  0  0
  143.6900   76.0100  215.4790 Cl  0  0  0  0  0  0  0  0  0  0  0  0
  143.7070   75.3430  218.1330 C   0  0  0  0  0  0  0  0  0  0  0  0
  140.2020   77.1470  222.3400 C   0  0  0  0  0  0  0  0  0  0  0  0
  139.1390   77.9470  222.7150 C   0  0  0  0  0  0  0  0  0  0  0  0
  139.2950   79.2270  223.2060 C   0  0  0  0  0  0  0  0  0  0  0  0
  140.5760   79.7200  223.3250 C   0  0  0  0  0  0  0  0  0  0  0  0
  140.8070   80.9900  223.8080 C   0  0  0  0  0  0  0  0  0  0  0  0
  142.0750   81.5140  223.9390 C   0  0  0  0  0  0  0  0  0  0  0  0
  143.1330   80.7120  223.5650 C   0  0  0  0  0  0  0  0  0  0  0  0
  142.9080   79.4430  223.0810 C   0  0  0  0  0  0  0  0  0  0  0  0
  141.6410   78.9120  222.9470 C   0  0  0  0  0  0  0  0  0  0  0  0
  141.4400   77.6610  222.4700 N   0  0  0  0  0  0  0  0  0  0  0  0
  142.0130   75.2550  221.8130 H   0  0  0  0  0  0  0  0  0  0  0  0
  140.1044   73.0854  221.8241 H   0  0  0  0  0  0  0  0  0  0  0  0
  140.2606   73.7276  220.1232 H   0  0  0  0  0  0  0  0  0  0  0  0
  143.7287   71.5391  219.1421 H   0  0  0  0  0  0  0  0  0  0  0  0
  143.9991   73.0056  218.2930 H   0  0  0  0  0  0  0  0  0  0  0  0
  145.3486   72.0549  220.9596 H   0  0  0  0  0  0  0  0  0  0  0  0
  146.2183   72.4483  219.5013 H   0  0  0  0  0  0  0  0  0  0  0  0
  145.7281   74.2956  221.5063 H   0  0  0  0  0  0  0  0  0  0  0  0
  145.8816   74.8129  219.8303 H   0  0  0  0  0  0  0  0  0  0  0  0
  143.5912   75.0073  221.4589 H   0  0  0  0  0  0  0  0  0  0  0  0
  142.6404   76.9275  220.8903 H   0  0  0  0  0  0  0  0  0  0  0  0
  142.4825   78.2353  216.7999 H   0  0  0  0  0  0  0  0  0  0  0  0
  144.1876   74.4125  217.7965 H   0  0  0  0  0  0  0  0  0  0  0  0
  138.1202   77.5440  222.6173 H   0  0  0  0  0  0  0  0  0  0  0  0
  138.4242   79.8346  223.4933 H   0  0  0  0  0  0  0  0  0  0  0  0
  139.9461   81.6093  224.1002 H   0  0  0  0  0  0  0  0  0  0  0  0
  142.2367   82.5308  224.3262 H   0  0  0  0  0  0  0  0  0  0  0  0
  144.1627   81.0886  223.6540 H   0  0  0  0  0  0  0  0  0  0  0  0
  143.7721   78.8279  222.7895 H   0  0  0  0  0  0  0  0  0  0  0  0
  1  2  2  0
  2  3  1  0
  3  4  1  0
  4  5  1  0
  5  6  2  0
  5  7  1  0
  7  8  1  0
  8  9  1  0
  9 10  1  0
 10 11  1  0
 11 12  1  0
 12 13  2  0
 13 14  1  0
 14 15  1  0
 14 16  2  0
 16 17  1  0
 17 18  1  0
 17 19  2  0
  2 20  1  0
 20 21  2  0
 21 22  1  0
 22 23  2  0
 23 24  1  0
 24 25  2  0
 25 26  1  0
 26 27  2  0
 27 28  1  0
 28 29  2  0
 11  7  1  0
 19 12  1  0
 29 20  1  0
 28 23  1  0
  3 30  1  0
  4 31  1  0
  4 32  1  0
  8 33  1  0
  8 34  1  0
  9 35  1  0
  9 36  1  0
 10 37  1  0
 10 38  1  0
 11 39  1  1
 13 40  1  0
 16 41  1  0
 19 42  1  0
 21 43  1  0
 22 44  1  0
 24 45  1  0
 25 46  1  0
 26 47  1  0
 27 48  1  0
M  END
>  <smiles>  (43) 
O=C(NCC(=O)N1CCC[C@H]1c1cc(Cl)cc(Cl)c1)c1ccc2ccccc2n1

>  <score_type>  (43) 
oracle

>  <origin>  (43) 
autodockgpu

>  <m_score__min__energy>  (43) 
-9.2400000000000002

>  <m_primary>  (43) 
energy

>  <rmsd>  (43) 
7.710169086835088

>  <m_score__min__rmsd>  (43) 
7.710169086835088

>  <meeko>  (43) 
{"free_energy": -8.06, "intermolecular_energy": -9.55, "internal_energy": -2.38, "cluster_size": 6, "cluster_id": 4, "rank_in_cluster": 5}

>  <energy>  (43) 
-7.95

>  <cluster_rmsd>  (43) 
1.73

>  <cluster>  (43) 
3

$$$$

     RDKit          3D

 48 51  0  0  0  0  0  0  0  0999 V2000
  140.7880   71.3790  221.3430 O   0  0  0  0  0  0  0  0  0  0  0  0
  140.3290   71.9830  222.3600 C   0  0  0  0  0  0  0  0  0  0  0  0
  139.9700   73.3580  222.2900 N   0  0  0  0  0  0  0  0  0  0  0  0
  140.1500   74.0310  221.0210 C   0  0  0  0  0  0  0  0  0  0  0  0
  140.8680   75.2960  221.1360 C   0  0  0  0  0  0  0  0  0  0  0  0
  140.7740   75.9390  222.2160 O   0  0  0  0  0  0  0  0  0  0  0  0
  141.6650   75.8580  220.1190 N   0  0  0  0  0  0  0  0  0  0  0  0
  142.3730   77.1530  220.1040 C   0  0  0  0  0  0  0  0  0  0  0  0
  141.8000   77.6790  218.7810 C   0  0  0  0  0  0  0  0  0  0  0  0
  141.9750   76.4910  217.8730 C   0  0  0  0  0  0  0  0  0  0  0  0
  142.0130   75.3230  218.7920 C   0  0  1  0  0  0  0  0  0  0  0  0
  143.3070   74.6180  218.8250 C   0  0  0  0  0  0  0  0  0  0  0  0
  143.9780   74.3540  220.0150 C   0  0  0  0  0  0  0  0  0  0  0  0
  145.1790   73.6780  220.0580 C   0  0  0  0  0  0  0  0  0  0  0  0
  145.9890   73.3680  221.5930 Cl  0  0  0  0  0  0  0  0  0  0  0  0
  145.7880   73.2210  218.9100 C   0  0  0  0  0  0  0  0  0  0  0  0
  145.1430   73.4710  217.7190 C   0  0  0  0  0  0  0  0  0  0  0  0
  145.8940   72.9000  216.2270 Cl  0  0  0  0  0  0  0  0  0  0  0  0
  143.9370   74.1490  217.6760 C   0  0  0  0  0  0  0  0  0  0  0  0
  140.1670   71.2590  223.6180 C   0  0  0  0  0  0  0  0  0  0  0  0
  139.5630   70.0160  223.6230 C   0  0  0  0  0  0  0  0  0  0  0  0
  139.3740   69.2730  224.7700 C   0  0  0  0  0  0  0  0  0  0  0  0
  139.8150   69.8060  225.9620 C   0  0  0  0  0  0  0  0  0  0  0  0
  139.6610   69.1210  227.1480 C   0  0  0  0  0  0  0  0  0  0  0  0
  140.0900   69.6240  228.3570 C   0  0  0  0  0  0  0  0  0  0  0  0
  140.6930   70.8640  228.3480 C   0  0  0  0  0  0  0  0  0  0  0  0
  140.8490   71.5540  227.1670 C   0  0  0  0  0  0  0  0  0  0  0  0
  140.4220   71.0550  225.9520 C   0  0  0  0  0  0  0  0  0  0  0  0
  140.5860   71.7490  224.8000 N   0  0  0  0  0  0  0  0  0  0  0  0
  139.5960   73.8250  223.1410 H   0  0  0  0  0  0  0  0  0  0  0  0
  140.7165   73.3675  220.3510 H   0  0  0  0  0  0  0  0  0  0  0  0
  139.1483   74.2592  220.6280 H   0  0  0  0  0  0  0  0  0  0  0  0
  142.1018   77.7885  220.9599 H   0  0  0  0  0  0  0  0  0  0  0  0
  143.4697   77.1100  220.1776 H   0  0  0  0  0  0  0  0  0  0  0  0
  140.7391   77.9508  218.8844 H   0  0  0  0  0  0  0  0  0  0  0  0
  142.2907   78.5934  218.4163 H   0  0  0  0  0  0  0  0  0  0  0  0
  141.1300   76.4082  217.1737 H   0  0  0  0  0  0  0  0  0  0  0  0
  142.8817   76.5667  217.2549 H   0  0  0  0  0  0  0  0  0  0  0  0
  141.3075   74.5549  218.4422 H   0  0  0  0  0  0  0  0  0  0  0  0
  143.5323   74.6985  220.9598 H   0  0  0  0  0  0  0  0  0  0  0  0
  146.7458   72.6810  218.9430 H   0  0  0  0  0  0  0  0  0  0  0  0
  143.4601   74.3231  216.7002 H   0  0  0  0  0  0  0  0  0  0  0  0
  139.2161   69.5988  222.6661 H   0  0  0  0  0  0  0  0  0  0  0  0
  138.8871   68.2873  224.7343 H   0  0  0  0  0  0  0  0  0  0  0  0
  139.1764   68.1337  227.1287 H   0  0  0  0  0  0  0  0  0  0  0  0
  139.9568   69.0592  229.2915 H   0  0  0  0  0  0  0  0  0  0  0  0
  141.0515   71.3045  229.2901 H   0  0  0  0  0  0  0  0  0  0  0  0
  141.3328   72.5416  227.1920 H   0  0  0  0  0  0  0  0  0  0  0  0
  1  2  2  0
  2  3  1  0
  3  4  1  0
  4  5  1  0
  5  6  2  0
  5  7  1  0
  7  8  1  0
  8  9  1  0
  9 10  1  0
 10 11  1  0
 11 12  1  0
 12 13  2  0
 13 14  1  0
 14 15  1  0
 14 16  2  0
 16 17  1  0
 17 18  1  0
 17 19  2  0
  2 20  1  0
 20 21  2  0
 21 22  1  0
 22 23  2  0
 23 24  1  0
 24 25  2  0
 25 26  1  0
 26 27  2  0
 27 28  1  0
 28 29  2  0
 11  7  1  0
 19 12  1  0
 29 20  1  0
 28 23  1  0
  3 30  1  0
  4 31  1  0
  4 32  1  0
  8 33  1  0
  8 34  1  0
  9 35  1  0
  9 36  1  0
 10 37  1  0
 10 38  1  0
 11 39  1  6
 13 40  1  0
 16 41  1  0
 19 42  1  0
 21 43  1  0
 22 44  1  0
 24 45  1  0
 25 46  1  0
 26 47  1  0
 27 48  1  0
M  END
>  <smiles>  (44) 
O=C(NCC(=O)N1CCC[C@H]1c1cc(Cl)cc(Cl)c1)c1ccc2ccccc2n1

>  <score_type>  (44) 
oracle

>  <origin>  (44) 
autodockgpu

>  <m_score__min__energy>  (44) 
-9.2400000000000002

>  <m_primary>  (44) 
energy

>  <rmsd>  (44) 
2.1962504450370974

>  <m_score__min__rmsd>  (44) 
2.1962504450370974

>  <meeko>  (44) 
{"free_energy": -8.69, "intermolecular_energy": -10.18, "internal_energy": -1.61, "cluster_size": 13, "cluster_id": 3, "rank_in_cluster": 5}

>  <energy>  (44) 
-8.08

>  <cluster_rmsd>  (44) 
0.0

>  <cluster>  (44) 
4

$$$$

     RDKit          3D

 48 51  0  0  0  0  0  0  0  0999 V2000
  138.7950   75.2680  221.8030 O   0  0  0  0  0  0  0  0  0  0  0  0
  139.9820   75.7070  221.8870 C   0  0  0  0  0  0  0  0  0  0  0  0
  141.0880   74.8840  221.5320 N   0  0  0  0  0  0  0  0  0  0  0  0
  140.8020   73.5410  221.0770 C   0  0  0  0  0  0  0  0  0  0  0  0
  142.0000   72.7340  220.8710 C   0  0  0  0  0  0  0  0  0  0  0  0
  141.9810   71.5300  221.2480 O   0  0  0  0  0  0  0  0  0  0  0  0
  143.1900   73.2040  220.2800 N   0  0  0  0  0  0  0  0  0  0  0  0
  144.0580   72.5420  219.2880 C   0  0  0  0  0  0  0  0  0  0  0  0
  145.3800   72.6790  220.0540 C   0  0  0  0  0  0  0  0  0  0  0  0
  145.3470   74.1260  220.4710 C   0  0  0  0  0  0  0  0  0  0  0  0
  143.9030   74.4770  220.4840 C   0  0  1  0  0  0  0  0  0  0  0  0
  143.5100   75.4750  219.4730 C   0  0  0  0  0  0  0  0  0  0  0  0
  142.9140   76.6840  219.8170 C   0  0  0  0  0  0  0  0  0  0  0  0
  142.5610   77.6320  218.8790 C   0  0  0  0  0  0  0  0  0  0  0  0
  141.8090   79.1500  219.3660 Cl  0  0  0  0  0  0  0  0  0  0  0  0
  142.7830   77.4300  217.5350 C   0  0  0  0  0  0  0  0  0  0  0  0
  143.3710   76.2400  217.1700 C   0  0  0  0  0  0  0  0  0  0  0  0
  143.6690   75.9460  215.4550 Cl  0  0  0  0  0  0  0  0  0  0  0  0
  143.7250   75.2880  218.1110 C   0  0  0  0  0  0  0  0  0  0  0  0
  140.2180   77.0710  222.3510 C   0  0  0  0  0  0  0  0  0  0  0  0
  139.1480   77.8850  222.6660 C   0  0  0  0  0  0  0  0  0  0  0  0
  139.2920   79.1830  223.1110 C   0  0  0  0  0  0  0  0  0  0  0  0
  140.5700   79.6800  223.2450 C   0  0  0  0  0  0  0  0  0  0  0  0
  140.7910   80.9670  223.6840 C   0  0  0  0  0  0  0  0  0  0  0  0
  142.0550   81.4960  223.8290 C   0  0  0  0  0  0  0  0  0  0  0  0
  143.1220   80.6790  223.5150 C   0  0  0  0  0  0  0  0  0  0  0  0
  142.9080   79.3930  223.0750 C   0  0  0  0  0  0  0  0  0  0  0  0
  141.6440   78.8580  222.9280 C   0  0  0  0  0  0  0  0  0  0  0  0
  141.4540   77.5890  222.4940 N   0  0  0  0  0  0  0  0  0  0  0  0
  142.0500   75.2720  221.6110 H   0  0  0  0  0  0  0  0  0  0  0  0
  140.1716   73.0443  221.8293 H   0  0  0  0  0  0  0  0  0  0  0  0
  140.2962   73.6275  220.1040 H   0  0  0  0  0  0  0  0  0  0  0  0
  143.7777   71.4914  219.1214 H   0  0  0  0  0  0  0  0  0  0  0  0
  144.0395   72.9580  218.2699 H   0  0  0  0  0  0  0  0  0  0  0  0
  145.4076   72.0111  220.9276 H   0  0  0  0  0  0  0  0  0  0  0  0
  146.2670   72.4061  219.4634 H   0  0  0  0  0  0  0  0  0  0  0  0
  145.7868   74.2524  221.4713 H   0  0  0  0  0  0  0  0  0  0  0  0
  145.9277   74.7696  219.7939 H   0  0  0  0  0  0  0  0  0  0  0  0
  143.6497   74.9618  221.4384 H   0  0  0  0  0  0  0  0  0  0  0  0
  142.7164   76.8923  220.8789 H   0  0  0  0  0  0  0  0  0  0  0  0
  142.5030   78.1858  216.7865 H   0  0  0  0  0  0  0  0  0  0  0  0
  144.1920   74.3521  217.7703 H   0  0  0  0  0  0  0  0  0  0  0  0
  138.1315   77.4789  222.5569 H   0  0  0  0  0  0  0  0  0  0  0  0
  138.4145   79.8013  223.3511 H   0  0  0  0  0  0  0  0  0  0  0  0
  139.9235   81.5976  223.9286 H   0  0  0  0  0  0  0  0  0  0  0  0
  142.2073   82.5271  224.1806 H   0  0  0  0  0  0  0  0  0  0  0  0
  144.1495   81.0581  223.6171 H   0  0  0  0  0  0  0  0  0  0  0  0
  143.7785   78.7665  222.8307 H   0  0  0  0  0  0  0  0  0  0  0  0
  1  2  2  0
  2  3  1  0
  3  4  1  0
  4  5  1  0
  5  6  2  0
  5  7  1  0
  7  8  1  0
  8  9  1  0
  9 10  1  0
 10 11  1  0
 11 12  1  0
 12 13  2  0
 13 14  1  0
 14 15  1  0
 14 16  2  0
 16 17  1  0
 17 18  1  0
 17 19  2  0
  2 20  1  0
 20 21  2  0
 21 22  1  0
 22 23  2  0
 23 24  1  0
 24 25  2  0
 25 26  1  0
 26 27  2  0
 27 28  1  0
 28 29  2  0
 11  7  1  0
 19 12  1  0
 29 20  1  0
 28 23  1  0
  3 30  1  0
  4 31  1  0
  4 32  1  0
  8 33  1  0
  8 34  1  0
  9 35  1  0
  9 36  1  0
 10 37  1  0
 10 38  1  0
 11 39  1  1
 13 40  1  0
 16 41  1  0
 19 42  1  0
 21 43  1  0
 22 44  1  0
 24 45  1  0
 25 46  1  0
 26 47  1  0
 27 48  1  0
M  END
>  <smiles>  (45) 
O=C(NCC(=O)N1CCC[C@H]1c1cc(Cl)cc(Cl)c1)c1ccc2ccccc2n1

>  <score_type>  (45) 
oracle

>  <origin>  (45) 
autodockgpu

>  <m_score__min__energy>  (45) 
-9.2400000000000002

>  <m_primary>  (45) 
energy

>  <rmsd>  (45) 
7.709902406696505

>  <m_score__min__rmsd>  (45) 
7.709902406696505

>  <meeko>  (45) 
{"free_energy": -8.07, "intermolecular_energy": -9.56, "internal_energy": -2.37, "cluster_size": 6, "cluster_id": 4, "rank_in_cluster": 2}

>  <energy>  (45) 
-8.07

>  <cluster_rmsd>  (45) 
0.05

>  <cluster>  (45) 
4

$$$$

     RDKit          3D

 48 51  0  0  0  0  0  0  0  0999 V2000
  140.7310   73.1170  222.3590 O   0  0  0  0  0  0  0  0  0  0  0  0
  139.6800   72.5240  222.7500 C   0  0  0  0  0  0  0  0  0  0  0  0
  138.4110   72.8490  222.1940 N   0  0  0  0  0  0  0  0  0  0  0  0
  138.3730   73.8750  221.1740 C   0  0  0  0  0  0  0  0  0  0  0  0
  138.6420   75.2130  221.6910 C   0  0  0  0  0  0  0  0  0  0  0  0
  137.9970   75.6020  222.7030 O   0  0  0  0  0  0  0  0  0  0  0  0
  139.5750   76.1130  221.1380 N   0  0  0  0  0  0  0  0  0  0  0  0
  139.5290   76.8160  219.8420 C   0  0  0  0  0  0  0  0  0  0  0  0
  140.9110   76.3860  219.3310 C   0  0  0  0  0  0  0  0  0  0  0  0
  141.7820   76.6580  220.5290 C   0  0  0  0  0  0  0  0  0  0  0  0
  140.8510   76.6000  221.6870 C   0  0  1  0  0  0  0  0  0  0  0  0
  140.6730   77.8840  222.3880 C   0  0  0  0  0  0  0  0  0  0  0  0
  141.7500   78.6830  222.7580 C   0  0  0  0  0  0  0  0  0  0  0  0
  141.5920   79.8950  223.3970 C   0  0  0  0  0  0  0  0  0  0  0  0
  142.9900   80.8720  223.8450 Cl  0  0  0  0  0  0  0  0  0  0  0  0
  140.3430   80.3860  223.7080 C   0  0  0  0  0  0  0  0  0  0  0  0
  139.2610   79.6120  223.3530 C   0  0  0  0  0  0  0  0  0  0  0  0
  137.6440   80.2090  223.7350 Cl  0  0  0  0  0  0  0  0  0  0  0  0
  139.4200   78.3960  222.7100 C   0  0  0  0  0  0  0  0  0  0  0  0
  139.7720   71.4950  223.7830 C   0  0  0  0  0  0  0  0  0  0  0  0
  139.2700   70.2310  223.5410 C   0  0  0  0  0  0  0  0  0  0  0  0
  139.3200   69.2090  224.4660 C   0  0  0  0  0  0  0  0  0  0  0  0
  139.9030   69.4730  225.6860 C   0  0  0  0  0  0  0  0  0  0  0  0
  139.9880   68.5000  226.6590 C   0  0  0  0  0  0  0  0  0  0  0  0
  140.5640   68.7300  227.8900 C   0  0  0  0  0  0  0  0  0  0  0  0
  141.0650   69.9930  228.1280 C   0  0  0  0  0  0  0  0  0  0  0  0
  140.9810   70.9690  227.1600 C   0  0  0  0  0  0  0  0  0  0  0  0
  140.4060   70.7450  225.9250 C   0  0  0  0  0  0  0  0  0  0  0  0
  140.3350   71.7180  224.9860 N   0  0  0  0  0  0  0  0  0  0  0  0
  137.5670   72.3460  222.5350 H   0  0  0  0  0  0  0  0  0  0  0  0
  139.1288   73.6370  220.4110 H   0  0  0  0  0  0  0  0  0  0  0  0
  137.3542   73.8846  220.7593 H   0  0  0  0  0  0  0  0  0  0  0  0
  138.7135   76.4545  219.1983 H   0  0  0  0  0  0  0  0  0  0  0  0
  139.3392   77.8988  219.8814 H   0  0  0  0  0  0  0  0  0  0  0  0
  140.9239   75.3199  219.0605 H   0  0  0  0  0  0  0  0  0  0  0  0
  141.2316   76.9113  218.4192 H   0  0  0  0  0  0  0  0  0  0  0  0
  142.5660   75.8920  220.6217 H   0  0  0  0  0  0  0  0  0  0  0  0
  142.3012   77.6251  220.4578 H   0  0  0  0  0  0  0  0  0  0  0  0
  141.2648   75.9367  222.4608 H   0  0  0  0  0  0  0  0  0  0  0  0
  142.7684   78.3342  222.5319 H   0  0  0  0  0  0  0  0  0  0  0  0
  140.2158   81.3528  224.2170 H   0  0  0  0  0  0  0  0  0  0  0  0
  138.5247   77.8147  222.4446 H   0  0  0  0  0  0  0  0  0  0  0  0
  138.8080   70.0298  222.5632 H   0  0  0  0  0  0  0  0  0  0  0  0
  138.9077   68.2153  224.2370 H   0  0  0  0  0  0  0  0  0  0  0  0
  139.5803   67.5011  226.4446 H   0  0  0  0  0  0  0  0  0  0  0  0
  140.6218   67.9385  228.6517 H   0  0  0  0  0  0  0  0  0  0  0  0
  141.5342   70.2218  229.0963 H   0  0  0  0  0  0  0  0  0  0  0  0
  141.3883   71.9669  227.3796 H   0  0  0  0  0  0  0  0  0  0  0  0
  1  2  2  0
  2  3  1  0
  3  4  1  0
  4  5  1  0
  5  6  2  0
  5  7  1  0
  7  8  1  0
  8  9  1  0
  9 10  1  0
 10 11  1  0
 11 12  1  0
 12 13  2  0
 13 14  1  0
 14 15  1  0
 14 16  2  0
 16 17  1  0
 17 18  1  0
 17 19  2  0
  2 20  1  0
 20 21  2  0
 21 22  1  0
 22 23  2  0
 23 24  1  0
 24 25  2  0
 25 26  1  0
 26 27  2  0
 27 28  1  0
 28 29  2  0
 11  7  1  0
 19 12  1  0
 29 20  1  0
 28 23  1  0
  3 30  1  0
  4 31  1  0
  4 32  1  0
  8 33  1  0
  8 34  1  0
  9 35  1  0
  9 36  1  0
 10 37  1  0
 10 38  1  0
 11 39  1  1
 13 40  1  0
 16 41  1  0
 19 42  1  0
 21 43  1  0
 22 44  1  0
 24 45  1  0
 25 46  1  0
 26 47  1  0
 27 48  1  0
M  END
>  <smiles>  (46) 
O=C(NCC(=O)N1CCC[C@H]1c1cc(Cl)cc(Cl)c1)c1ccc2ccccc2n1

>  <score_type>  (46) 
oracle

>  <origin>  (46) 
autodockgpu

>  <m_score__min__energy>  (46) 
-9.2400000000000002

>  <m_primary>  (46) 
energy

>  <rmsd>  (46) 
1.7398544721093567

>  <m_score__min__rmsd>  (46) 
1.7398544721093567

>  <meeko>  (46) 
{"free_energy": -9.18, "intermolecular_energy": -10.67, "internal_energy": -1.43, "cluster_size": 27, "cluster_id": 1, "rank_in_cluster": 3}

>  <energy>  (46) 
-8.07

>  <cluster_rmsd>  (46) 
0.15

>  <cluster>  (46) 
4

$$$$

     RDKit          3D

 48 51  0  0  0  0  0  0  0  0999 V2000
  139.3980   70.9620  221.3840 O   0  0  0  0  0  0  0  0  0  0  0  0
  139.5150   71.6030  222.4730 C   0  0  0  0  0  0  0  0  0  0  0  0
  139.4570   73.0240  222.4910 N   0  0  0  0  0  0  0  0  0  0  0  0
  139.2610   73.7010  221.2270 C   0  0  0  0  0  0  0  0  0  0  0  0
  139.0120   75.1310  221.3700 C   0  0  0  0  0  0  0  0  0  0  0  0
  137.9920   75.4970  222.0160 O   0  0  0  0  0  0  0  0  0  0  0  0
  139.8330   76.1450  220.8350 N   0  0  0  0  0  0  0  0  0  0  0  0
  139.6630   76.9140  219.5880 C   0  0  0  0  0  0  0  0  0  0  0  0
  141.0530   76.6450  218.9950 C   0  0  0  0  0  0  0  0  0  0  0  0
  141.9510   76.9280  220.1700 C   0  0  0  0  0  0  0  0  0  0  0  0
  141.0850   76.7160  221.3600 C   0  0  1  0  0  0  0  0  0  0  0  0
  140.8240   77.9350  222.1460 C   0  0  0  0  0  0  0  0  0  0  0  0
  141.8510   78.7450  222.6210 C   0  0  0  0  0  0  0  0  0  0  0  0
  141.6160   79.8980  223.3410 C   0  0  0  0  0  0  0  0  0  0  0  0
  142.9530   80.8920  223.9200 Cl  0  0  0  0  0  0  0  0  0  0  0  0
  140.3360   80.3150  223.6330 C   0  0  0  0  0  0  0  0  0  0  0  0
  139.3030   79.5290  223.1740 C   0  0  0  0  0  0  0  0  0  0  0  0
  137.6490   80.0320  223.5290 Cl  0  0  0  0  0  0  0  0  0  0  0  0
  139.5390   78.3720  222.4510 C   0  0  0  0  0  0  0  0  0  0  0  0
  139.7100   70.8740  223.7230 C   0  0  0  0  0  0  0  0  0  0  0  0
  139.3870   69.5320  223.7950 C   0  0  0  0  0  0  0  0  0  0  0  0
  139.5430   68.7780  224.9390 C   0  0  0  0  0  0  0  0  0  0  0  0
  140.0490   69.4040  226.0580 C   0  0  0  0  0  0  0  0  0  0  0  0
  140.2320   68.7130  227.2370 C   0  0  0  0  0  0  0  0  0  0  0  0
  140.7340   69.3070  228.3750 C   0  0  0  0  0  0  0  0  0  0  0  0
  141.0570   70.6460  228.2990 C   0  0  0  0  0  0  0  0  0  0  0  0
  140.8750   71.3410  227.1250 C   0  0  0  0  0  0  0  0  0  0  0  0
  140.3720   70.7520  225.9820 C   0  0  0  0  0  0  0  0  0  0  0  0
  140.2010   71.4530  224.8360 N   0  0  0  0  0  0  0  0  0  0  0  0
  139.5550   73.5210  223.4000 H   0  0  0  0  0  0  0  0  0  0  0  0
  140.1639   73.5636  220.6139 H   0  0  0  0  0  0  0  0  0  0  0  0
  138.3692   73.2608  220.7570 H   0  0  0  0  0  0  0  0  0  0  0  0
  138.8545   76.5156  218.9574 H   0  0  0  0  0  0  0  0  0  0  0  0
  139.3778   77.9703  219.7019 H   0  0  0  0  0  0  0  0  0  0  0  0
  141.1499   75.6020  218.6593 H   0  0  0  0  0  0  0  0  0  0  0  0
  141.2814   77.2495  218.1048 H   0  0  0  0  0  0  0  0  0  0  0  0
  142.8052   76.2350  220.1823 H   0  0  0  0  0  0  0  0  0  0  0  0
  142.3757   77.9422  220.1371 H   0  0  0  0  0  0  0  0  0  0  0  0
  141.5936   76.0504  222.0729 H   0  0  0  0  0  0  0  0  0  0  0  0
  142.8915   78.4544  222.4141 H   0  0  0  0  0  0  0  0  0  0  0  0
  140.1477   81.2343  224.2069 H   0  0  0  0  0  0  0  0  0  0  0  0
  138.6803   77.7775  222.1057 H   0  0  0  0  0  0  0  0  0  0  0  0
  138.9859   69.0415  222.8958 H   0  0  0  0  0  0  0  0  0  0  0  0
  139.2725   67.7119  224.9580 H   0  0  0  0  0  0  0  0  0  0  0  0
  139.9670   67.6459  227.2708 H   0  0  0  0  0  0  0  0  0  0  0  0
  140.8714   68.7368  229.3056 H   0  0  0  0  0  0  0  0  0  0  0  0
  141.4625   71.1614  229.1821 H   0  0  0  0  0  0  0  0  0  0  0  0
  141.1408   72.4080  227.0962 H   0  0  0  0  0  0  0  0  0  0  0  0
  1  2  2  0
  2  3  1  0
  3  4  1  0
  4  5  1  0
  5  6  2  0
  5  7  1  0
  7  8  1  0
  8  9  1  0
  9 10  1  0
 10 11  1  0
 11 12  1  0
 12 13  2  0
 13 14  1  0
 14 15  1  0
 14 16  2  0
 16 17  1  0
 17 18  1  0
 17 19  2  0
  2 20  1  0
 20 21  2  0
 21 22  1  0
 22 23  2  0
 23 24  1  0
 24 25  2  0
 25 26  1  0
 26 27  2  0
 27 28  1  0
 28 29  2  0
 11  7  1  0
 19 12  1  0
 29 20  1  0
 28 23  1  0
  3 30  1  0
  4 31  1  0
  4 32  1  0
  8 33  1  0
  8 34  1  0
  9 35  1  0
  9 36  1  0
 10 37  1  0
 10 38  1  0
 11 39  1  1
 13 40  1  0
 16 41  1  0
 19 42  1  0
 21 43  1  0
 22 44  1  0
 24 45  1  0
 25 46  1  0
 26 47  1  0
 27 48  1  0
M  END
>  <smiles>  (47) 
O=C(NCC(=O)N1CCC[C@H]1c1cc(Cl)cc(Cl)c1)c1ccc2ccccc2n1

>  <score_type>  (47) 
oracle

>  <origin>  (47) 
autodockgpu

>  <m_score__min__energy>  (47) 
-9.2400000000000002

>  <m_primary>  (47) 
energy

>  <rmsd>  (47) 
1.5618488319027626

>  <m_score__min__rmsd>  (47) 
1.5618488319027626

>  <meeko>  (47) 
{"free_energy": -9.02, "intermolecular_energy": -10.51, "internal_energy": -1.46, "cluster_size": 27, "cluster_id": 1, "rank_in_cluster": 11}

>  <energy>  (47) 
-8.06

>  <cluster_rmsd>  (47) 
0.05

>  <cluster>  (47) 
4

$$$$

     RDKit          3D

 48 51  0  0  0  0  0  0  0  0999 V2000
  140.9080   71.6030  221.3770 O   0  0  0  0  0  0  0  0  0  0  0  0
  140.3970   72.1770  222.3850 C   0  0  0  0  0  0  0  0  0  0  0  0
  139.9910   73.5400  222.3180 N   0  0  0  0  0  0  0  0  0  0  0  0
  140.1860   74.2340  221.0630 C   0  0  0  0  0  0  0  0  0  0  0  0
  140.2500   75.6840  221.2100 C   0  0  0  0  0  0  0  0  0  0  0  0
  139.9660   76.1830  222.3330 O   0  0  0  0  0  0  0  0  0  0  0  0
  140.6070   76.5780  220.1810 N   0  0  0  0  0  0  0  0  0  0  0  0
  139.7990   77.0510  219.0410 C   0  0  0  0  0  0  0  0  0  0  0  0
  140.7950   76.6970  217.9280 C   0  0  0  0  0  0  0  0  0  0  0  0
  142.0810   77.2570  218.4760 C   0  0  0  0  0  0  0  0  0  0  0  0
  141.8770   77.2870  219.9480 C   0  0  1  0  0  0  0  0  0  0  0  0
  141.8450   78.6410  220.5300 C   0  0  0  0  0  0  0  0  0  0  0  0
  141.4610   79.7560  219.7930 C   0  0  0  0  0  0  0  0  0  0  0  0
  141.4090   81.0240  220.3340 C   0  0  0  0  0  0  0  0  0  0  0  0
  140.9150   82.4060  219.3570 Cl  0  0  0  0  0  0  0  0  0  0  0  0
  141.7400   81.2570  221.6500 C   0  0  0  0  0  0  0  0  0  0  0  0
  142.1240   80.1680  222.4010 C   0  0  0  0  0  0  0  0  0  0  0  0
  142.5550   80.4280  224.0930 Cl  0  0  0  0  0  0  0  0  0  0  0  0
  142.1750   78.8950  221.8580 C   0  0  0  0  0  0  0  0  0  0  0  0
  140.2200   71.4330  223.6290 C   0  0  0  0  0  0  0  0  0  0  0  0
  139.5150   70.2450  223.6260 C   0  0  0  0  0  0  0  0  0  0  0  0
  139.3070   69.4880  224.7600 C   0  0  0  0  0  0  0  0  0  0  0  0
  139.8350   69.9480  225.9470 C   0  0  0  0  0  0  0  0  0  0  0  0
  139.6670   69.2430  227.1200 C   0  0  0  0  0  0  0  0  0  0  0  0
  140.1810   69.6730  228.3240 C   0  0  0  0  0  0  0  0  0  0  0  0
  140.8860   70.8600  228.3230 C   0  0  0  0  0  0  0  0  0  0  0  0
  141.0550   71.5680  227.1550 C   0  0  0  0  0  0  0  0  0  0  0  0
  140.5430   71.1420  225.9460 C   0  0  0  0  0  0  0  0  0  0  0  0
  140.7220   71.8530  224.8070 N   0  0  0  0  0  0  0  0  0  0  0  0
  139.5740   73.9840  223.1620 H   0  0  0  0  0  0  0  0  0  0  0  0
  141.1284   73.8865  220.6145 H   0  0  0  0  0  0  0  0  0  0  0  0
  139.3170   74.0087  220.4274 H   0  0  0  0  0  0  0  0  0  0  0  0
  138.8505   76.5025  218.9440 H   0  0  0  0  0  0  0  0  0  0  0  0
  139.4655   78.0984  219.0814 H   0  0  0  0  0  0  0  0  0  0  0  0
  140.8621   75.6088  217.7818 H   0  0  0  0  0  0  0  0  0  0  0  0
  140.5202   77.0964  216.9406 H   0  0  0  0  0  0  0  0  0  0  0  0
  142.9301   76.6085  218.2144 H   0  0  0  0  0  0  0  0  0  0  0  0
  142.3126   78.2510  218.0657 H   0  0  0  0  0  0  0  0  0  0  0  0
  142.7320   76.8094  220.4488 H   0  0  0  0  0  0  0  0  0  0  0  0
  141.1877   79.6215  218.7360 H   0  0  0  0  0  0  0  0  0  0  0  0
  141.6996   82.2677  222.0823 H   0  0  0  0  0  0  0  0  0  0  0  0
  142.4869   78.0564  222.4979 H   0  0  0  0  0  0  0  0  0  0  0  0
  139.0994   69.8854  222.6731 H   0  0  0  0  0  0  0  0  0  0  0  0
  138.7381   68.5475  224.7183 H   0  0  0  0  0  0  0  0  0  0  0  0
  139.1005   68.3004  227.0936 H   0  0  0  0  0  0  0  0  0  0  0  0
  140.0356   69.0942  229.2481 H   0  0  0  0  0  0  0  0  0  0  0  0
  141.3151   71.2420  229.2611 H   0  0  0  0  0  0  0  0  0  0  0  0
  141.6206   72.5109  227.1862 H   0  0  0  0  0  0  0  0  0  0  0  0
  1  2  2  0
  2  3  1  0
  3  4  1  0
  4  5  1  0
  5  6  2  0
  5  7  1  0
  7  8  1  0
  8  9  1  0
  9 10  1  0
 10 11  1  0
 11 12  1  0
 12 13  2  0
 13 14  1  0
 14 15  1  0
 14 16  2  0
 16 17  1  0
 17 18  1  0
 17 19  2  0
  2 20  1  0
 20 21  2  0
 21 22  1  0
 22 23  2  0
 23 24  1  0
 24 25  2  0
 25 26  1  0
 26 27  2  0
 27 28  1  0
 28 29  2  0
 11  7  1  0
 19 12  1  0
 29 20  1  0
 28 23  1  0
  3 30  1  0
  4 31  1  0
  4 32  1  0
  8 33  1  0
  8 34  1  0
  9 35  1  0
  9 36  1  0
 10 37  1  0
 10 38  1  0
 11 39  1  1
 13 40  1  0
 16 41  1  0
 19 42  1  0
 21 43  1  0
 22 44  1  0
 24 45  1  0
 25 46  1  0
 26 47  1  0
 27 48  1  0
M  END
>  <smiles>  (48) 
O=C(NCC(=O)N1CCC[C@H]1c1cc(Cl)cc(Cl)c1)c1ccc2ccccc2n1

>  <score_type>  (48) 
oracle

>  <origin>  (48) 
autodockgpu

>  <m_score__min__energy>  (48) 
-9.2400000000000002

>  <m_primary>  (48) 
energy

>  <rmsd>  (48) 
1.616387569982444

>  <m_score__min__rmsd>  (48) 
1.616387569982444

>  <meeko>  (48) 
{"free_energy": -8.84, "intermolecular_energy": -10.33, "internal_energy": -1.62, "cluster_size": 27, "cluster_id": 1, "rank_in_cluster": 21}

>  <energy>  (48) 
-8.06

>  <cluster_rmsd>  (48) 
0.07

>  <cluster>  (48) 
4

$$$$

     RDKit          3D

 48 51  0  0  0  0  0  0  0  0999 V2000
  140.3150   71.2350  221.3000 O   0  0  0  0  0  0  0  0  0  0  0  0
  140.0630   71.8390  222.3860 C   0  0  0  0  0  0  0  0  0  0  0  0
  139.7790   73.2340  222.3940 N   0  0  0  0  0  0  0  0  0  0  0  0
  139.7890   73.9240  221.1220 C   0  0  0  0  0  0  0  0  0  0  0  0
  140.3200   75.2810  221.2070 C   0  0  0  0  0  0  0  0  0  0  0  0
  140.2330   75.8870  222.3100 O   0  0  0  0  0  0  0  0  0  0  0  0
  140.9250   75.9720  220.1380 N   0  0  0  0  0  0  0  0  0  0  0  0
  140.4340   76.1660  218.7610 C   0  0  0  0  0  0  0  0  0  0  0  0
  141.6810   75.6540  218.0280 C   0  0  0  0  0  0  0  0  0  0  0  0
  142.7850   76.3780  218.7530 C   0  0  0  0  0  0  0  0  0  0  0  0
  142.2120   76.6870  220.0900 C   0  0  1  0  0  0  0  0  0  0  0  0
  142.0310   78.1260  220.3560 C   0  0  0  0  0  0  0  0  0  0  0  0
  141.9050   78.6310  221.6450 C   0  0  0  0  0  0  0  0  0  0  0  0
  141.7560   79.9780  221.9050 C   0  0  0  0  0  0  0  0  0  0  0  0
  141.6010   80.5690  223.5590 Cl  0  0  0  0  0  0  0  0  0  0  0  0
  141.7220   80.9060  220.8880 C   0  0  0  0  0  0  0  0  0  0  0  0
  141.8450   80.4290  219.6020 C   0  0  0  0  0  0  0  0  0  0  0  0
  141.8060   81.5900  218.2730 Cl  0  0  0  0  0  0  0  0  0  0  0  0
  141.9950   79.0780  219.3420 C   0  0  0  0  0  0  0  0  0  0  0  0
  140.0650   71.0970  223.6440 C   0  0  0  0  0  0  0  0  0  0  0  0
  139.5420   69.8190  223.6890 C   0  0  0  0  0  0  0  0  0  0  0  0
  139.5080   69.0570  224.8380 C   0  0  0  0  0  0  0  0  0  0  0  0
  140.0260   69.6080  225.9910 C   0  0  0  0  0  0  0  0  0  0  0  0
  140.0270   68.9050  227.1760 C   0  0  0  0  0  0  0  0  0  0  0  0
  140.5360   69.4240  228.3470 C   0  0  0  0  0  0  0  0  0  0  0  0
  141.0580   70.7010  228.2980 C   0  0  0  0  0  0  0  0  0  0  0  0
  141.0590   71.4070  227.1170 C   0  0  0  0  0  0  0  0  0  0  0  0
  140.5510   70.8920  225.9410 C   0  0  0  0  0  0  0  0  0  0  0  0
  140.5620   71.6040  224.7880 N   0  0  0  0  0  0  0  0  0  0  0  0
  139.5760   73.7020  223.3010 H   0  0  0  0  0  0  0  0  0  0  0  0
  140.4089   73.3497  220.4178 H   0  0  0  0  0  0  0  0  0  0  0  0
  138.7448   74.0026  220.7850 H   0  0  0  0  0  0  0  0  0  0  0  0
  139.5427   75.5586  218.5450 H   0  0  0  0  0  0  0  0  0  0  0  0
  140.0993   77.1813  218.5019 H   0  0  0  0  0  0  0  0  0  0  0  0
  141.7845   74.5634  218.1278 H   0  0  0  0  0  0  0  0  0  0  0  0
  141.6662   75.8369  216.9434 H   0  0  0  0  0  0  0  0  0  0  0  0
  143.6731   75.7361  218.8495 H   0  0  0  0  0  0  0  0  0  0  0  0
  143.1133   77.2822  218.2194 H   0  0  0  0  0  0  0  0  0  0  0  0
  142.9113   76.3635  220.8751 H   0  0  0  0  0  0  0  0  0  0  0  0
  141.9249   77.9288  222.4915 H   0  0  0  0  0  0  0  0  0  0  0  0
  141.6020   81.9799  221.0937 H   0  0  0  0  0  0  0  0  0  0  0  0
  142.0890   78.7454  218.2977 H   0  0  0  0  0  0  0  0  0  0  0  0
  139.1328   69.3883  222.7632 H   0  0  0  0  0  0  0  0  0  0  0  0
  139.0816   68.0430  224.8348 H   0  0  0  0  0  0  0  0  0  0  0  0
  139.6048   67.8893  227.1880 H   0  0  0  0  0  0  0  0  0  0  0  0
  140.5267   68.8446  229.2820 H   0  0  0  0  0  0  0  0  0  0  0  0
  141.4754   71.1566  229.2080 H   0  0  0  0  0  0  0  0  0  0  0  0
  141.4815   72.4226  227.1095 H   0  0  0  0  0  0  0  0  0  0  0  0
  1  2  2  0
  2  3  1  0
  3  4  1  0
  4  5  1  0
  5  6  2  0
  5  7  1  0
  7  8  1  0
  8  9  1  0
  9 10  1  0
 10 11  1  0
 11 12  1  0
 12 13  2  0
 13 14  1  0
 14 15  1  0
 14 16  2  0
 16 17  1  0
 17 18  1  0
 17 19  2  0
  2 20  1  0
 20 21  2  0
 21 22  1  0
 22 23  2  0
 23 24  1  0
 24 25  2  0
 25 26  1  0
 26 27  2  0
 27 28  1  0
 28 29  2  0
 11  7  1  0
 19 12  1  0
 29 20  1  0
 28 23  1  0
  3 30  1  0
  4 31  1  0
  4 32  1  0
  8 33  1  0
  8 34  1  0
  9 35  1  0
  9 36  1  0
 10 37  1  0
 10 38  1  0
 11 39  1  1
 13 40  1  0
 16 41  1  0
 19 42  1  0
 21 43  1  0
 22 44  1  0
 24 45  1  0
 25 46  1  0
 26 47  1  0
 27 48  1  0
M  END
>  <smiles>  (49) 
O=C(NCC(=O)N1CCC[C@H]1c1cc(Cl)cc(Cl)c1)c1ccc2ccccc2n1

>  <score_type>  (49) 
oracle

>  <origin>  (49) 
autodockgpu

>  <m_score__min__energy>  (49) 
-9.2400000000000002

>  <m_primary>  (49) 
energy

>  <rmsd>  (49) 
1.513386407307791

>  <m_score__min__rmsd>  (49) 
1.513386407307791

>  <meeko>  (49) 
{"free_energy": -8.9, "intermolecular_energy": -10.39, "internal_energy": -1.6, "cluster_size": 27, "cluster_id": 1, "rank_in_cluster": 19}

>  <energy>  (49) 
-8.06

>  <cluster_rmsd>  (49) 
0.07

>  <cluster>  (49) 
4

$$$$

     RDKit          3D

 48 51  0  0  0  0  0  0  0  0999 V2000
  141.2320   72.1750  221.6380 O   0  0  0  0  0  0  0  0  0  0  0  0
  140.3240   72.3780  222.4990 C   0  0  0  0  0  0  0  0  0  0  0  0
  139.3840   73.4330  222.3310 N   0  0  0  0  0  0  0  0  0  0  0  0
  139.5090   74.2550  221.1460 C   0  0  0  0  0  0  0  0  0  0  0  0
  140.6070   75.2130  221.2220 C   0  0  0  0  0  0  0  0  0  0  0  0
  140.6810   75.9570  222.2370 O   0  0  0  0  0  0  0  0  0  0  0  0
  141.6010   75.3710  220.2350 N   0  0  0  0  0  0  0  0  0  0  0  0
  142.6010   76.4450  220.0880 C   0  0  0  0  0  0  0  0  0  0  0  0
  142.2880   76.8140  218.6320 C   0  0  0  0  0  0  0  0  0  0  0  0
  142.2450   75.4610  217.9730 C   0  0  0  0  0  0  0  0  0  0  0  0
  141.9200   74.5200  219.0760 C   0  0  1  0  0  0  0  0  0  0  0  0
  142.9950   73.5640  219.3970 C   0  0  0  0  0  0  0  0  0  0  0  0
  144.0530   73.8940  220.2380 C   0  0  0  0  0  0  0  0  0  0  0  0
  145.0540   73.0010  220.5610 C   0  0  0  0  0  0  0  0  0  0  0  0
  146.3740   73.4680  221.6320 Cl  0  0  0  0  0  0  0  0  0  0  0  0
  145.0590   71.7180  220.0600 C   0  0  0  0  0  0  0  0  0  0  0  0
  144.0220   71.3680  219.2250 C   0  0  0  0  0  0  0  0  0  0  0  0
  143.9970   69.7310  218.5640 Cl  0  0  0  0  0  0  0  0  0  0  0  0
  143.0180   72.2640  218.9020 C   0  0  0  0  0  0  0  0  0  0  0  0
  140.2400   71.5200  223.6780 C   0  0  0  0  0  0  0  0  0  0  0  0
  139.6700   70.2650  223.5770 C   0  0  0  0  0  0  0  0  0  0  0  0
  139.5550   69.4000  224.6440 C   0  0  0  0  0  0  0  0  0  0  0  0
  140.0380   69.8170  225.8660 C   0  0  0  0  0  0  0  0  0  0  0  0
  139.9570   69.0050  226.9770 C   0  0  0  0  0  0  0  0  0  0  0  0
  140.4290   69.3900  228.2130 C   0  0  0  0  0  0  0  0  0  0  0  0
  140.9980   70.6430  228.3110 C   0  0  0  0  0  0  0  0  0  0  0  0
  141.0800   71.4580  227.2050 C   0  0  0  0  0  0  0  0  0  0  0  0
  140.6100   71.0780  225.9640 C   0  0  0  0  0  0  0  0  0  0  0  0
  140.7010   71.8950  224.8870 N   0  0  0  0  0  0  0  0  0  0  0  0
  138.6500   73.5750  223.0540 H   0  0  0  0  0  0  0  0  0  0  0  0
  139.6787   73.5971  220.2809 H   0  0  0  0  0  0  0  0  0  0  0  0
  138.5780   74.8330  221.0504 H   0  0  0  0  0  0  0  0  0  0  0  0
  142.4216   77.2814  220.7796 H   0  0  0  0  0  0  0  0  0  0  0  0
  143.6439   76.1730  220.3081 H   0  0  0  0  0  0  0  0  0  0  0  0
  141.3205   77.3307  218.5490 H   0  0  0  0  0  0  0  0  0  0  0  0
  143.0154   77.5055  218.1818 H   0  0  0  0  0  0  0  0  0  0  0  0
  141.4676   75.4318  217.1953 H   0  0  0  0  0  0  0  0  0  0  0  0
  143.1920   75.2088  217.4735 H   0  0  0  0  0  0  0  0  0  0  0  0
  141.0813   73.8750  218.7752 H   0  0  0  0  0  0  0  0  0  0  0  0
  144.0931   74.9079  220.6627 H   0  0  0  0  0  0  0  0  0  0  0  0
  145.8563   71.0046  220.3158 H   0  0  0  0  0  0  0  0  0  0  0  0
  142.2103   71.9370  218.2307 H   0  0  0  0  0  0  0  0  0  0  0  0
  139.2895   69.9406  222.5972 H   0  0  0  0  0  0  0  0  0  0  0  0
  139.0928   68.4090  224.5243 H   0  0  0  0  0  0  0  0  0  0  0  0
  139.4977   68.0109  226.8728 H   0  0  0  0  0  0  0  0  0  0  0  0
  140.3551   68.7252  229.0862 H   0  0  0  0  0  0  0  0  0  0  0  0
  141.3882   70.9925  229.2783 H   0  0  0  0  0  0  0  0  0  0  0  0
  141.5384   72.4519  227.3144 H   0  0  0  0  0  0  0  0  0  0  0  0
  1  2  2  0
  2  3  1  0
  3  4  1  0
  4  5  1  0
  5  6  2  0
  5  7  1  0
  7  8  1  0
  8  9  1  0
  9 10  1  0
 10 11  1  0
 11 12  1  0
 12 13  2  0
 13 14  1  0
 14 15  1  0
 14 16  2  0
 16 17  1  0
 17 18  1  0
 17 19  2  0
  2 20  1  0
 20 21  2  0
 21 22  1  0
 22 23  2  0
 23 24  1  0
 24 25  2  0
 25 26  1  0
 26 27  2  0
 27 28  1  0
 28 29  2  0
 11  7  1  0
 19 12  1  0
 29 20  1  0
 28 23  1  0
  3 30  1  0
  4 31  1  0
  4 32  1  0
  8 33  1  0
  8 34  1  0
  9 35  1  0
  9 36  1  0
 10 37  1  0
 10 38  1  0
 11 39  1  6
 13 40  1  0
 16 41  1  0
 19 42  1  0
 21 43  1  0
 22 44  1  0
 24 45  1  0
 25 46  1  0
 26 47  1  0
 27 48  1  0
M  END
>  <smiles>  (50) 
O=C(NCC(=O)N1CCC[C@H]1c1cc(Cl)cc(Cl)c1)c1ccc2ccccc2n1

>  <score_type>  (50) 
oracle

>  <origin>  (50) 
autodockgpu

>  <m_score__min__energy>  (50) 
-9.2400000000000002

>  <m_primary>  (50) 
energy

>  <rmsd>  (50) 
2.2458458147623257

>  <m_score__min__rmsd>  (50) 
2.2458458147623257

>  <meeko>  (50) 
{"free_energy": -8.75, "intermolecular_energy": -10.24, "internal_energy": -1.61, "cluster_size": 13, "cluster_id": 3, "rank_in_cluster": 3}

>  <energy>  (50) 
-7.52

>  <cluster_rmsd>  (50) 
0.0

>  <cluster>  (50) 
5

$$$$
