
     RDKit          3D

 61 65  0  0  0  0  0  0  0  0999 V2000
  140.0530   72.8380  222.3440 O   0  0  0  0  0  0  0  0  0  0  0  0
  139.3980   71.8570  222.8250 C   0  0  0  0  0  0  0  0  0  0  0  0
  138.2700   71.4350  222.1000 N   0  0  0  0  0  0  0  0  0  0  0  0
  137.9660   72.1690  220.8630 C   0  0  0  0  0  0  0  0  0  0  0  0
  136.5960   72.7210  221.0240 C   0  0  0  0  0  0  0  0  0  0  0  0
  135.6590   72.4450  220.2050 O   0  0  0  0  0  0  0  0  0  0  0  0
  136.2420   73.5870  222.0940 N   0  0  0  0  0  0  0  0  0  0  0  0
  135.9850   73.1000  223.4400 C   0  0  0  0  0  0  0  0  0  0  0  0
  135.4700   74.2700  224.2230 C   0  0  0  0  0  0  0  0  0  0  0  0
  135.1960   75.3820  223.2270 C   0  0  0  0  0  0  0  0  0  0  0  0
  136.0800   75.0280  222.0480 C   0  0  1  0  0  0  0  0  0  0  0  0
  137.3730   75.7540  222.1400 C   0  0  0  0  0  0  0  0  0  0  0  0
  137.4360   77.1300  222.2140 C   0  0  0  0  0  0  0  0  0  0  0  0
  138.6080   77.7900  222.2970 N   0  0  0  0  0  0  0  0  0  0  0  0
  139.7800   77.1170  222.3100 C   0  0  0  0  0  0  0  0  0  0  0  0
  141.0010   77.8470  222.3990 N   0  0  0  0  0  0  0  0  0  0  0  0
  140.8980   79.2890  222.4750 C   0  0  0  0  0  0  0  0  0  0  0  0
  141.8870   79.9750  221.5650 C   0  0  0  0  0  0  0  0  0  0  0  0
  142.6660   80.9280  222.4280 C   0  0  0  0  0  0  0  0  0  0  0  0
  142.6220   80.3170  223.7980 C   0  0  0  0  0  0  0  0  0  0  0  0
  141.2100   79.7700  223.8640 C   0  0  0  0  0  0  0  0  0  0  0  0
  139.7420   75.7720  222.2380 N   0  0  0  0  0  0  0  0  0  0  0  0
  138.5910   75.0790  222.1550 C   0  0  0  0  0  0  0  0  0  0  0  0
  139.8200   71.2240  224.0690 C   0  0  0  0  0  0  0  0  0  0  0  0
  140.6970   71.8920  224.8990 C   0  0  0  0  0  0  0  0  0  0  0  0
  141.1370   71.3560  226.0860 C   0  0  0  0  0  0  0  0  0  0  0  0
  140.6780   70.1060  226.4500 C   0  0  0  0  0  0  0  0  0  0  0  0
  141.1100   69.5540  227.6390 C   0  0  0  0  0  0  0  0  0  0  0  0
  140.6580   68.3030  228.0140 C   0  0  0  0  0  0  0  0  0  0  0  0
  141.0860   67.7740  229.1770 F   0  0  0  0  0  0  0  0  0  0  0  0
  139.7680   67.6120  227.1880 C   0  0  0  0  0  0  0  0  0  0  0  0
  139.3650   68.2080  226.0070 C   0  0  0  0  0  0  0  0  0  0  0  0
  139.8000   69.4540  225.6070 C   0  0  0  0  0  0  0  0  0  0  0  0
  139.3750   69.9930  224.4400 N   0  0  0  0  0  0  0  0  0  0  0  0
  137.6980   70.6460  222.4410 H   0  0  0  0  0  0  0  0  0  0  0  0
  138.6895   72.9848  220.7180 H   0  0  0  0  0  0  0  0  0  0  0  0
  138.0278   71.5097  219.9846 H   0  0  0  0  0  0  0  0  0  0  0  0
  135.2333   72.2973  223.4169 H   0  0  0  0  0  0  0  0  0  0  0  0
  136.8971   72.6864  223.8950 H   0  0  0  0  0  0  0  0  0  0  0  0
  134.5430   73.9953  224.7476 H   0  0  0  0  0  0  0  0  0  0  0  0
  136.2022   74.5905  224.9788 H   0  0  0  0  0  0  0  0  0  0  0  0
  134.1359   75.3945  222.9336 H   0  0  0  0  0  0  0  0  0  0  0  0
  135.4054   76.3823  223.6339 H   0  0  0  0  0  0  0  0  0  0  0  0
  135.6397   75.3273  221.0854 H   0  0  0  0  0  0  0  0  0  0  0  0
  136.4996   77.7070  222.2050 H   0  0  0  0  0  0  0  0  0  0  0  0
  141.9090   77.3330  222.4070 H   0  0  0  0  0  0  0  0  0  0  0  0
  139.8673   79.5332  222.1785 H   0  0  0  0  0  0  0  0  0  0  0  0
  142.5619   79.2352  221.1097 H   0  0  0  0  0  0  0  0  0  0  0  0
  141.3763   80.5038  220.7467 H   0  0  0  0  0  0  0  0  0  0  0  0
  143.7039   81.0136  222.0737 H   0  0  0  0  0  0  0  0  0  0  0  0
  142.2478   81.9453  222.4103 H   0  0  0  0  0  0  0  0  0  0  0  0
  143.3656   79.5128  223.8994 H   0  0  0  0  0  0  0  0  0  0  0  0
  142.8567   81.0275  224.6043 H   0  0  0  0  0  0  0  0  0  0  0  0
  141.1539   78.9372  224.5805 H   0  0  0  0  0  0  0  0  0  0  0  0
  140.4931   80.5331  224.2013 H   0  0  0  0  0  0  0  0  0  0  0  0
  138.6125   73.9806  222.0991 H   0  0  0  0  0  0  0  0  0  0  0  0
  141.0565   72.8878  224.6005 H   0  0  0  0  0  0  0  0  0  0  0  0
  141.8370   71.9091  226.7294 H   0  0  0  0  0  0  0  0  0  0  0  0
  141.8095   70.1062  228.2839 H   0  0  0  0  0  0  0  0  0  0  0  0
  139.3961   66.6161  227.4707 H   0  0  0  0  0  0  0  0  0  0  0  0
  138.6651   67.6630  225.3566 H   0  0  0  0  0  0  0  0  0  0  0  0
  1  2  2  0
  2  3  1  0
  3  4  1  0
  4  5  1  0
  5  6  2  0
  5  7  1  0
  7  8  1  0
  8  9  1  0
  9 10  1  0
 10 11  1  0
 11 12  1  0
 12 13  2  0
 13 14  1  0
 14 15  2  0
 15 16  1  0
 16 17  1  0
 17 18  1  0
 18 19  1  0
 19 20  1  0
 20 21  1  0
 15 22  1  0
 22 23  2  0
  2 24  1  0
 24 25  2  0
 25 26  1  0
 26 27  2  0
 27 28  1  0
 28 29  2  0
 29 30  1  0
 29 31  1  0
 31 32  2  0
 32 33  1  0
 33 34  2  0
 11  7  1  0
 23 12  1  0
 34 24  1  0
 21 17  1  0
 33 27  1  0
  3 35  1  0
  4 36  1  0
  4 37  1  0
  8 38  1  0
  8 39  1  0
  9 40  1  0
  9 41  1  0
 10 42  1  0
 10 43  1  0
 11 44  1  6
 13 45  1  0
 16 46  1  0
 17 47  1  0
 18 48  1  0
 18 49  1  0
 19 50  1  0
 19 51  1  0
 20 52  1  0
 20 53  1  0
 21 54  1  0
 21 55  1  0
 23 56  1  0
 25 57  1  0
 26 58  1  0
 28 59  1  0
 31 60  1  0
 32 61  1  0
M  END
>  <smiles>  (1) 
O=C(NCC(=O)N1CCC[C@H]1c1cnc(NC2CCCC2)nc1)c1ccc2cc(F)ccc2n1

>  <score_type>  (1) 
oracle

>  <origin>  (1) 
autodockgpu

>  <m_score__min__energy>  (1) 
-9.4299999999999997

>  <m_primary>  (1) 
energy

>  <rmsd>  (1) 
4.773990490046055

>  <m_score__min__rmsd>  (1) 
4.773990490046055

>  <meeko>  (1) 
{"free_energy": -8.72, "intermolecular_energy": -10.8, "internal_energy": -1.74, "cluster_size": 13, "cluster_id": 3, "rank_in_cluster": 4}

>  <energy>  (1) 
-9.43

>  <cluster_rmsd>  (1) 
0.0

>  <cluster>  (1) 
1

$$$$

     RDKit          3D

 61 65  0  0  0  0  0  0  0  0999 V2000
  139.0770   71.7120  221.0550 O   0  0  0  0  0  0  0  0  0  0  0  0
  140.0440   71.8070  221.8800 C   0  0  0  0  0  0  0  0  0  0  0  0
  141.1510   72.5690  221.4690 N   0  0  0  0  0  0  0  0  0  0  0  0
  141.0770   73.1770  220.1330 C   0  0  0  0  0  0  0  0  0  0  0  0
  142.2390   74.0960  220.0200 C   0  0  0  0  0  0  0  0  0  0  0  0
  143.2100   74.0560  220.8440 O   0  0  0  0  0  0  0  0  0  0  0  0
  142.3450   75.0720  218.9930 N   0  0  0  0  0  0  0  0  0  0  0  0
  141.7540   74.8880  217.6770 C   0  0  0  0  0  0  0  0  0  0  0  0
  142.2330   76.0310  216.8330 C   0  0  0  0  0  0  0  0  0  0  0  0
  143.3180   76.7390  217.6230 C   0  0  0  0  0  0  0  0  0  0  0  0
  143.0200   76.3550  219.0580 C   0  0  1  0  0  0  0  0  0  0  0  0
  142.1940   77.4050  219.7100 C   0  0  0  0  0  0  0  0  0  0  0  0
  141.3970   77.1340  220.8030 C   0  0  0  0  0  0  0  0  0  0  0  0
  140.6480   78.0860  221.3950 N   0  0  0  0  0  0  0  0  0  0  0  0
  140.6500   79.3550  220.9320 C   0  0  0  0  0  0  0  0  0  0  0  0
  139.8450   80.3350  221.5820 N   0  0  0  0  0  0  0  0  0  0  0  0
  140.3470   80.8720  222.8300 C   0  0  0  0  0  0  0  0  0  0  0  0
  141.7130   81.4930  222.6700 C   0  0  0  0  0  0  0  0  0  0  0  0
  142.6000   80.8310  223.6880 C   0  0  0  0  0  0  0  0  0  0  0  0
  141.9880   79.4770  223.8970 C   0  0  0  0  0  0  0  0  0  0  0  0
  140.5040   79.7810  223.8510 C   0  0  0  0  0  0  0  0  0  0  0  0
  141.4210   79.6410  219.8650 N   0  0  0  0  0  0  0  0  0  0  0  0
  142.1830   78.7180  219.2480 C   0  0  0  0  0  0  0  0  0  0  0  0
  139.9770   71.1460  223.1780 C   0  0  0  0  0  0  0  0  0  0  0  0
  139.2890   69.9550  223.2910 C   0  0  0  0  0  0  0  0  0  0  0  0
  139.1860   69.2770  224.4830 C   0  0  0  0  0  0  0  0  0  0  0  0
  139.7950   69.8150  225.5970 C   0  0  0  0  0  0  0  0  0  0  0  0
  139.7010   69.1470  226.8010 C   0  0  0  0  0  0  0  0  0  0  0  0
  140.3070   69.6760  227.9240 C   0  0  0  0  0  0  0  0  0  0  0  0
  140.2090   69.0160  229.0940 F   0  0  0  0  0  0  0  0  0  0  0  0
  141.0100   70.8810  227.8300 C   0  0  0  0  0  0  0  0  0  0  0  0
  141.0760   71.5120  226.6010 C   0  0  0  0  0  0  0  0  0  0  0  0
  140.4800   71.0070  225.4640 C   0  0  0  0  0  0  0  0  0  0  0  0
  140.5740   71.6650  224.2840 N   0  0  0  0  0  0  0  0  0  0  0  0
  141.9650   72.6820  222.0940 H   0  0  0  0  0  0  0  0  0  0  0  0
  141.1322   72.3983  219.3580 H   0  0  0  0  0  0  0  0  0  0  0  0
  140.1289   73.7174  219.9950 H   0  0  0  0  0  0  0  0  0  0  0  0
  142.0817   73.9317  217.2434 H   0  0  0  0  0  0  0  0  0  0  0  0
  140.6556   74.8672  217.7330 H   0  0  0  0  0  0  0  0  0  0  0  0
  142.6412   75.6547  215.8833 H   0  0  0  0  0  0  0  0  0  0  0  0
  141.4073   76.7180  216.5958 H   0  0  0  0  0  0  0  0  0  0  0  0
  144.3160   76.3882  217.3215 H   0  0  0  0  0  0  0  0  0  0  0  0
  143.3226   77.8273  217.4633 H   0  0  0  0  0  0  0  0  0  0  0  0
  143.9306   76.2714  219.6694 H   0  0  0  0  0  0  0  0  0  0  0  0
  141.3719   76.1099  221.2037 H   0  0  0  0  0  0  0  0  0  0  0  0
  138.9430   80.6290  221.1510 H   0  0  0  0  0  0  0  0  0  0  0  0
  139.6148   81.6288  223.1481 H   0  0  0  0  0  0  0  0  0  0  0  0
  142.0970   81.3121  221.6552 H   0  0  0  0  0  0  0  0  0  0  0  0
  141.6768   82.5822  222.8195 H   0  0  0  0  0  0  0  0  0  0  0  0
  143.6276   80.7384  223.3066 H   0  0  0  0  0  0  0  0  0  0  0  0
  142.6671   81.4080  224.6221 H   0  0  0  0  0  0  0  0  0  0  0  0
  142.2769   78.7815  223.0953 H   0  0  0  0  0  0  0  0  0  0  0  0
  142.3083   78.9887  224.8292 H   0  0  0  0  0  0  0  0  0  0  0  0
  139.9381   78.8875  223.5484 H   0  0  0  0  0  0  0  0  0  0  0  0
  140.1202   80.0864  224.8356 H   0  0  0  0  0  0  0  0  0  0  0  0
  142.7961   79.0013  218.3798 H   0  0  0  0  0  0  0  0  0  0  0  0
  138.8064   69.5335  222.3969 H   0  0  0  0  0  0  0  0  0  0  0  0
  138.6316   68.3290  224.5462 H   0  0  0  0  0  0  0  0  0  0  0  0
  139.1468   68.1990  226.8660 H   0  0  0  0  0  0  0  0  0  0  0  0
  141.4994   71.3172  228.7133 H   0  0  0  0  0  0  0  0  0  0  0  0
  141.6291   72.4599  226.5268 H   0  0  0  0  0  0  0  0  0  0  0  0
  1  2  2  0
  2  3  1  0
  3  4  1  0
  4  5  1  0
  5  6  2  0
  5  7  1  0
  7  8  1  0
  8  9  1  0
  9 10  1  0
 10 11  1  0
 11 12  1  0
 12 13  2  0
 13 14  1  0
 14 15  2  0
 15 16  1  0
 16 17  1  0
 17 18  1  0
 18 19  1  0
 19 20  1  0
 20 21  1  0
 15 22  1  0
 22 23  2  0
  2 24  1  0
 24 25  2  0
 25 26  1  0
 26 27  2  0
 27 28  1  0
 28 29  2  0
 29 30  1  0
 29 31  1  0
 31 32  2  0
 32 33  1  0
 33 34  2  0
 11  7  1  0
 23 12  1  0
 34 24  1  0
 21 17  1  0
 33 27  1  0
  3 35  1  0
  4 36  1  0
  4 37  1  0
  8 38  1  0
  8 39  1  0
  9 40  1  0
  9 41  1  0
 10 42  1  0
 10 43  1  0
 11 44  1  1
 13 45  1  0
 16 46  1  0
 17 47  1  0
 18 48  1  0
 18 49  1  0
 19 50  1  0
 19 51  1  0
 20 52  1  0
 20 53  1  0
 21 54  1  0
 21 55  1  0
 23 56  1  0
 25 57  1  0
 26 58  1  0
 28 59  1  0
 31 60  1  0
 32 61  1  0
M  END
>  <smiles>  (2) 
O=C(NCC(=O)N1CCC[C@H]1c1cnc(NC2CCCC2)nc1)c1ccc2cc(F)ccc2n1

>  <score_type>  (2) 
oracle

>  <origin>  (2) 
autodockgpu

>  <m_score__min__energy>  (2) 
-9.4299999999999997

>  <m_primary>  (2) 
energy

>  <rmsd>  (2) 
2.0962155069589947

>  <m_score__min__rmsd>  (2) 
2.0962155069589947

>  <meeko>  (2) 
{"free_energy": -7.84, "intermolecular_energy": -9.93, "internal_energy": -2.12, "cluster_size": 10, "cluster_id": 2, "rank_in_cluster": 10}

>  <energy>  (2) 
-8.83

>  <cluster_rmsd>  (2) 
1.31

>  <cluster>  (2) 
1

$$$$

     RDKit          3D

 61 65  0  0  0  0  0  0  0  0999 V2000
  139.6720   73.4660  222.7010 O   0  0  0  0  0  0  0  0  0  0  0  0
  139.9690   72.2360  222.5570 C   0  0  0  0  0  0  0  0  0  0  0  0
  140.2410   71.8010  221.2470 N   0  0  0  0  0  0  0  0  0  0  0  0
  140.1550   72.8120  220.1840 C   0  0  0  0  0  0  0  0  0  0  0  0
  141.4360   72.7480  219.4340 C   0  0  0  0  0  0  0  0  0  0  0  0
  142.0620   71.6510  219.2650 O   0  0  0  0  0  0  0  0  0  0  0  0
  142.0430   73.8970  218.8590 N   0  0  0  0  0  0  0  0  0  0  0  0
  141.8610   74.2600  217.4620 C   0  0  0  0  0  0  0  0  0  0  0  0
  142.7930   75.4040  217.1970 C   0  0  0  0  0  0  0  0  0  0  0  0
  143.7000   75.5250  218.4070 C   0  0  0  0  0  0  0  0  0  0  0  0
  142.9050   74.8630  219.5130 C   0  0  1  0  0  0  0  0  0  0  0  0
  142.1440   75.8830  220.2810 C   0  0  0  0  0  0  0  0  0  0  0  0
  142.1260   77.2120  219.9120 C   0  0  0  0  0  0  0  0  0  0  0  0
  141.4370   78.1380  220.6070 N   0  0  0  0  0  0  0  0  0  0  0  0
  140.7280   77.7930  221.7040 C   0  0  0  0  0  0  0  0  0  0  0  0
  140.0100   78.7980  222.4150 N   0  0  0  0  0  0  0  0  0  0  0  0
  140.6760   79.3980  223.5530 C   0  0  0  0  0  0  0  0  0  0  0  0
  140.7140   80.9030  223.4570 C   0  0  0  0  0  0  0  0  0  0  0  0
  142.1570   81.2990  223.6000 C   0  0  0  0  0  0  0  0  0  0  0  0
  142.9250   80.1120  223.0970 C   0  0  0  0  0  0  0  0  0  0  0  0
  142.1080   78.9500  223.6250 C   0  0  0  0  0  0  0  0  0  0  0  0
  140.7310   76.4990  222.0830 N   0  0  0  0  0  0  0  0  0  0  0  0
  141.4080   75.5470  221.4140 C   0  0  0  0  0  0  0  0  0  0  0  0
  140.0160   71.3450  223.7100 C   0  0  0  0  0  0  0  0  0  0  0  0
  139.5460   70.0540  223.5820 C   0  0  0  0  0  0  0  0  0  0  0  0
  139.5600   69.1600  224.6270 C   0  0  0  0  0  0  0  0  0  0  0  0
  140.0640   69.5800  225.8410 C   0  0  0  0  0  0  0  0  0  0  0  0
  140.0850   68.6960  226.9000 C   0  0  0  0  0  0  0  0  0  0  0  0
  140.5870   69.1040  228.1200 C   0  0  0  0  0  0  0  0  0  0  0  0
  140.6030   68.2320  229.1470 F   0  0  0  0  0  0  0  0  0  0  0  0
  141.0690   70.4070  228.2700 C   0  0  0  0  0  0  0  0  0  0  0  0
  141.0260   71.2560  227.1790 C   0  0  0  0  0  0  0  0  0  0  0  0
  140.5300   70.8750  225.9490 C   0  0  0  0  0  0  0  0  0  0  0  0
  140.5110   71.7460  224.9120 N   0  0  0  0  0  0  0  0  0  0  0  0
  140.4860   70.8150  221.0680 H   0  0  0  0  0  0  0  0  0  0  0  0
  139.3114   72.5882  219.5145 H   0  0  0  0  0  0  0  0  0  0  0  0
  139.9898   73.8156  220.6029 H   0  0  0  0  0  0  0  0  0  0  0  0
  142.1099   73.4082  216.8121 H   0  0  0  0  0  0  0  0  0  0  0  0
  140.8174   74.5398  217.2554 H   0  0  0  0  0  0  0  0  0  0  0  0
  143.3904   75.2038  216.2953 H   0  0  0  0  0  0  0  0  0  0  0  0
  142.2335   76.3363  217.0304 H   0  0  0  0  0  0  0  0  0  0  0  0
  144.6519   75.0001  218.2388 H   0  0  0  0  0  0  0  0  0  0  0  0
  143.9696   76.5662  218.6377 H   0  0  0  0  0  0  0  0  0  0  0  0
  143.5481   74.3570  220.2481 H   0  0  0  0  0  0  0  0  0  0  0  0
  142.6919   77.5256  219.0224 H   0  0  0  0  0  0  0  0  0  0  0  0
  139.0520   79.0660  222.1020 H   0  0  0  0  0  0  0  0  0  0  0  0
  140.1032   79.0831  224.4377 H   0  0  0  0  0  0  0  0  0  0  0  0
  140.3235   81.2324  222.4829 H   0  0  0  0  0  0  0  0  0  0  0  0
  140.0927   81.3689  224.2360 H   0  0  0  0  0  0  0  0  0  0  0  0
  142.3774   82.1899  222.9936 H   0  0  0  0  0  0  0  0  0  0  0  0
  142.4187   81.5573  224.6367 H   0  0  0  0  0  0  0  0  0  0  0  0
  142.9676   80.1019  221.9979 H   0  0  0  0  0  0  0  0  0  0  0  0
  143.9750   80.0964  223.4244 H   0  0  0  0  0  0  0  0  0  0  0  0
  142.2629   78.0570  223.0017 H   0  0  0  0  0  0  0  0  0  0  0  0
  142.3992   78.6803  224.6509 H   0  0  0  0  0  0  0  0  0  0  0  0
  141.3797   74.5040  221.7624 H   0  0  0  0  0  0  0  0  0  0  0  0
  139.1462   69.7285  222.6103 H   0  0  0  0  0  0  0  0  0  0  0  0
  139.1791   68.1361  224.4983 H   0  0  0  0  0  0  0  0  0  0  0  0
  139.7040   67.6719  226.7732 H   0  0  0  0  0  0  0  0  0  0  0  0
  141.4734   70.7497  229.2339 H   0  0  0  0  0  0  0  0  0  0  0  0
  141.4046   72.2820  227.2972 H   0  0  0  0  0  0  0  0  0  0  0  0
  1  2  2  0
  2  3  1  0
  3  4  1  0
  4  5  1  0
  5  6  2  0
  5  7  1  0
  7  8  1  0
  8  9  1  0
  9 10  1  0
 10 11  1  0
 11 12  1  0
 12 13  2  0
 13 14  1  0
 14 15  2  0
 15 16  1  0
 16 17  1  0
 17 18  1  0
 18 19  1  0
 19 20  1  0
 20 21  1  0
 15 22  1  0
 22 23  2  0
  2 24  1  0
 24 25  2  0
 25 26  1  0
 26 27  2  0
 27 28  1  0
 28 29  2  0
 29 30  1  0
 29 31  1  0
 31 32  2  0
 32 33  1  0
 33 34  2  0
 11  7  1  0
 23 12  1  0
 34 24  1  0
 21 17  1  0
 33 27  1  0
  3 35  1  0
  4 36  1  0
  4 37  1  0
  8 38  1  0
  8 39  1  0
  9 40  1  0
  9 41  1  0
 10 42  1  0
 10 43  1  0
 11 44  1  1
 13 45  1  0
 16 46  1  0
 17 47  1  0
 18 48  1  0
 18 49  1  0
 19 50  1  0
 19 51  1  0
 20 52  1  0
 20 53  1  0
 21 54  1  0
 21 55  1  0
 23 56  1  0
 25 57  1  0
 26 58  1  0
 28 59  1  0
 31 60  1  0
 32 61  1  0
M  END
>  <smiles>  (3) 
O=C(NCC(=O)N1CCC[C@H]1c1cnc(NC2CCCC2)nc1)c1ccc2cc(F)ccc2n1

>  <score_type>  (3) 
oracle

>  <origin>  (3) 
autodockgpu

>  <m_score__min__energy>  (3) 
-9.4299999999999997

>  <m_primary>  (3) 
energy

>  <rmsd>  (3) 
2.3468180096134312

>  <m_score__min__rmsd>  (3) 
2.3468180096134312

>  <meeko>  (3) 
{"free_energy": -8.68, "intermolecular_energy": -10.77, "internal_energy": -1.84, "cluster_size": 10, "cluster_id": 2, "rank_in_cluster": 2}

>  <energy>  (3) 
-8.68

>  <cluster_rmsd>  (3) 
0.94

>  <cluster>  (3) 
1

$$$$

     RDKit          3D

 61 65  0  0  0  0  0  0  0  0999 V2000
  139.5540   70.9550  221.4350 O   0  0  0  0  0  0  0  0  0  0  0  0
  139.5800   71.6760  222.4850 C   0  0  0  0  0  0  0  0  0  0  0  0
  139.2570   73.0360  222.3260 N   0  0  0  0  0  0  0  0  0  0  0  0
  138.9220   73.4810  220.9660 C   0  0  0  0  0  0  0  0  0  0  0  0
  138.4190   74.8730  221.0880 C   0  0  0  0  0  0  0  0  0  0  0  0
  137.1730   75.1390  221.1110 O   0  0  0  0  0  0  0  0  0  0  0  0
  139.2880   75.9940  221.1890 N   0  0  0  0  0  0  0  0  0  0  0  0
  139.6540   76.5860  222.4660 C   0  0  0  0  0  0  0  0  0  0  0  0
  140.4200   77.8350  222.1490 C   0  0  0  0  0  0  0  0  0  0  0  0
  140.2650   78.0830  220.6610 C   0  0  0  0  0  0  0  0  0  0  0  0
  139.9310   76.7140  220.1060 C   0  0  1  0  0  0  0  0  0  0  0  0
  141.1650   76.0400  219.6230 C   0  0  0  0  0  0  0  0  0  0  0  0
  141.2960   75.5990  218.3230 C   0  0  0  0  0  0  0  0  0  0  0  0
  142.4140   74.9880  217.8840 N   0  0  0  0  0  0  0  0  0  0  0  0
  143.4600   74.7820  218.7130 C   0  0  0  0  0  0  0  0  0  0  0  0
  144.6270   74.1320  218.2150 N   0  0  0  0  0  0  0  0  0  0  0  0
  144.9620   72.8510  218.7990 C   0  0  0  0  0  0  0  0  0  0  0  0
  143.7550   72.1640  219.3870 C   0  0  0  0  0  0  0  0  0  0  0  0
  144.1040   71.8440  220.8140 C   0  0  0  0  0  0  0  0  0  0  0  0
  145.1140   72.8850  221.1970 C   0  0  0  0  0  0  0  0  0  0  0  0
  145.9360   73.0220  219.9310 C   0  0  0  0  0  0  0  0  0  0  0  0
  143.3540   75.2050  219.9890 N   0  0  0  0  0  0  0  0  0  0  0  0
  142.2530   75.8190  220.4620 C   0  0  0  0  0  0  0  0  0  0  0  0
  139.9320   71.0940  223.7740 C   0  0  0  0  0  0  0  0  0  0  0  0
  140.6610   71.8440  224.6740 C   0  0  0  0  0  0  0  0  0  0  0  0
  141.0280   71.3600  225.9080 C   0  0  0  0  0  0  0  0  0  0  0  0
  140.6480   70.0770  226.2460 C   0  0  0  0  0  0  0  0  0  0  0  0
  141.0080   69.5750  227.4810 C   0  0  0  0  0  0  0  0  0  0  0  0
  140.6340   68.2930  227.8310 C   0  0  0  0  0  0  0  0  0  0  0  0
  140.9910   67.8130  229.0390 F   0  0  0  0  0  0  0  0  0  0  0  0
  139.8940   67.5170  226.9350 C   0  0  0  0  0  0  0  0  0  0  0  0
  139.5580   68.0650  225.7100 C   0  0  0  0  0  0  0  0  0  0  0  0
  139.9180   69.3420  225.3330 C   0  0  0  0  0  0  0  0  0  0  0  0
  139.5640   69.8310  224.1210 N   0  0  0  0  0  0  0  0  0  0  0  0
  139.2620   73.6690  223.1400 H   0  0  0  0  0  0  0  0  0  0  0  0
  139.8169   73.4552  220.3268 H   0  0  0  0  0  0  0  0  0  0  0  0
  138.1673   72.8247  220.5080 H   0  0  0  0  0  0  0  0  0  0  0  0
  138.7511   76.8300  223.0450 H   0  0  0  0  0  0  0  0  0  0  0  0
  140.2561   75.8912  223.0699 H   0  0  0  0  0  0  0  0  0  0  0  0
  140.0120   78.6833  222.7181 H   0  0  0  0  0  0  0  0  0  0  0  0
  141.4802   77.7256  222.4209 H   0  0  0  0  0  0  0  0  0  0  0  0
  139.4509   78.7961  220.4642 H   0  0  0  0  0  0  0  0  0  0  0  0
  141.1643   78.5221  220.2044 H   0  0  0  0  0  0  0  0  0  0  0  0
  139.2602   76.7645  219.2356 H   0  0  0  0  0  0  0  0  0  0  0  0
  140.4617   75.7507  217.6223 H   0  0  0  0  0  0  0  0  0  0  0  0
  145.1900   74.5880  217.4640 H   0  0  0  0  0  0  0  0  0  0  0  0
  145.3865   72.2500  217.9813 H   0  0  0  0  0  0  0  0  0  0  0  0
  142.8812   72.8311  219.3492 H   0  0  0  0  0  0  0  0  0  0  0  0
  143.4999   71.2538  218.8244 H   0  0  0  0  0  0  0  0  0  0  0  0
  143.2136   71.9114  221.4564 H   0  0  0  0  0  0  0  0  0  0  0  0
  144.4930   70.8216  220.9300 H   0  0  0  0  0  0  0  0  0  0  0  0
  144.6261   73.8353  221.4595 H   0  0  0  0  0  0  0  0  0  0  0  0
  145.7101   72.6148  222.0811 H   0  0  0  0  0  0  0  0  0  0  0  0
  146.4085   74.0143  219.8850 H   0  0  0  0  0  0  0  0  0  0  0  0
  146.7460   72.2790  219.8881 H   0  0  0  0  0  0  0  0  0  0  0  0
  142.2136   76.1459  221.5116 H   0  0  0  0  0  0  0  0  0  0  0  0
  140.9592   72.8653  224.3946 H   0  0  0  0  0  0  0  0  0  0  0  0
  141.6091   71.9792  226.6072 H   0  0  0  0  0  0  0  0  0  0  0  0
  141.5891   70.1927  228.1815 H   0  0  0  0  0  0  0  0  0  0  0  0
  139.5858   66.4942  227.1976 H   0  0  0  0  0  0  0  0  0  0  0  0
  138.9767   67.4539  225.0038 H   0  0  0  0  0  0  0  0  0  0  0  0
  1  2  2  0
  2  3  1  0
  3  4  1  0
  4  5  1  0
  5  6  2  0
  5  7  1  0
  7  8  1  0
  8  9  1  0
  9 10  1  0
 10 11  1  0
 11 12  1  0
 12 13  2  0
 13 14  1  0
 14 15  2  0
 15 16  1  0
 16 17  1  0
 17 18  1  0
 18 19  1  0
 19 20  1  0
 20 21  1  0
 15 22  1  0
 22 23  2  0
  2 24  1  0
 24 25  2  0
 25 26  1  0
 26 27  2  0
 27 28  1  0
 28 29  2  0
 29 30  1  0
 29 31  1  0
 31 32  2  0
 32 33  1  0
 33 34  2  0
 11  7  1  0
 23 12  1  0
 34 24  1  0
 21 17  1  0
 33 27  1  0
  3 35  1  0
  4 36  1  0
  4 37  1  0
  8 38  1  0
  8 39  1  0
  9 40  1  0
  9 41  1  0
 10 42  1  0
 10 43  1  0
 11 44  1  6
 13 45  1  0
 16 46  1  0
 17 47  1  0
 18 48  1  0
 18 49  1  0
 19 50  1  0
 19 51  1  0
 20 52  1  0
 20 53  1  0
 21 54  1  0
 21 55  1  0
 23 56  1  0
 25 57  1  0
 26 58  1  0
 28 59  1  0
 31 60  1  0
 32 61  1  0
M  END
>  <smiles>  (4) 
O=C(NCC(=O)N1CCC[C@H]1c1cnc(NC2CCCC2)nc1)c1ccc2cc(F)ccc2n1

>  <score_type>  (4) 
oracle

>  <origin>  (4) 
autodockgpu

>  <m_score__min__energy>  (4) 
-9.4299999999999997

>  <m_primary>  (4) 
energy

>  <rmsd>  (4) 
3.2022868794173593

>  <m_score__min__rmsd>  (4) 
3.2022868794173593

>  <meeko>  (4) 
{"free_energy": -7.86, "intermolecular_energy": -9.95, "internal_energy": -1.78, "cluster_size": 7, "cluster_id": 4, "rank_in_cluster": 7}

>  <energy>  (4) 
-8.14

>  <cluster_rmsd>  (4) 
1.89

>  <cluster>  (4) 
1

$$$$

     RDKit          3D

 61 65  0  0  0  0  0  0  0  0999 V2000
  140.4450   73.3730  222.6250 O   0  0  0  0  0  0  0  0  0  0  0  0
  139.6690   72.3650  222.6890 C   0  0  0  0  0  0  0  0  0  0  0  0
  138.7510   72.2060  221.6360 N   0  0  0  0  0  0  0  0  0  0  0  0
  138.7830   73.2200  220.5730 C   0  0  0  0  0  0  0  0  0  0  0  0
  137.4250   73.8190  220.5180 C   0  0  0  0  0  0  0  0  0  0  0  0
  136.5330   73.3940  219.7140 O   0  0  0  0  0  0  0  0  0  0  0  0
  137.0320   74.9000  221.3540 N   0  0  0  0  0  0  0  0  0  0  0  0
  136.5310   74.7000  222.7040 C   0  0  0  0  0  0  0  0  0  0  0  0
  136.0580   76.0400  223.1840 C   0  0  0  0  0  0  0  0  0  0  0  0
  136.0650   76.9660  221.9820 C   0  0  0  0  0  0  0  0  0  0  0  0
  137.0550   76.3160  221.0380 C   0  0  1  0  0  0  0  0  0  0  0  0
  138.4020   76.9200  221.2110 C   0  0  0  0  0  0  0  0  0  0  0  0
  138.9410   77.1610  222.4580 C   0  0  0  0  0  0  0  0  0  0  0  0
  140.1620   77.7090  222.6150 N   0  0  0  0  0  0  0  0  0  0  0  0
  140.9120   78.0460  221.5440 C   0  0  0  0  0  0  0  0  0  0  0  0
  142.1990   78.6230  221.7470 N   0  0  0  0  0  0  0  0  0  0  0  0
  142.2370   79.9610  222.2990 C   0  0  0  0  0  0  0  0  0  0  0  0
  141.8030   79.9900  223.7430 C   0  0  0  0  0  0  0  0  0  0  0  0
  140.6940   81.0020  223.8310 C   0  0  0  0  0  0  0  0  0  0  0  0
  140.0780   81.0050  222.4620 C   0  0  0  0  0  0  0  0  0  0  0  0
  141.2890   80.8650  221.5620 C   0  0  0  0  0  0  0  0  0  0  0  0
  140.4050   77.8190  220.3160 N   0  0  0  0  0  0  0  0  0  0  0  0
  139.1900   77.2740  220.1190 C   0  0  0  0  0  0  0  0  0  0  0  0
  139.7520   71.4370  223.8120 C   0  0  0  0  0  0  0  0  0  0  0  0
  139.2330   70.1670  223.6730 C   0  0  0  0  0  0  0  0  0  0  0  0
  139.2760   69.2400  224.6880 C   0  0  0  0  0  0  0  0  0  0  0  0
  139.8610   69.6060  225.8830 C   0  0  0  0  0  0  0  0  0  0  0  0
  139.9130   68.6880  226.9130 C   0  0  0  0  0  0  0  0  0  0  0  0
  140.4970   69.0420  228.1140 C   0  0  0  0  0  0  0  0  0  0  0  0
  140.5410   68.1390  229.1120 F   0  0  0  0  0  0  0  0  0  0  0  0
  141.0290   70.3240  228.2740 C   0  0  0  0  0  0  0  0  0  0  0  0
  140.9530   71.2080  227.2120 C   0  0  0  0  0  0  0  0  0  0  0  0
  140.3760   70.8810  226.0020 C   0  0  0  0  0  0  0  0  0  0  0  0
  140.3270   71.7850  224.9940 N   0  0  0  0  0  0  0  0  0  0  0  0
  138.0960   71.4080  221.6340 H   0  0  0  0  0  0  0  0  0  0  0  0
  139.5297   73.9929  220.8079 H   0  0  0  0  0  0  0  0  0  0  0  0
  139.0594   72.7734  219.6065 H   0  0  0  0  0  0  0  0  0  0  0  0
  135.6974   73.9823  222.6978 H   0  0  0  0  0  0  0  0  0  0  0  0
  137.3126   74.2939  223.3629 H   0  0  0  0  0  0  0  0  0  0  0  0
  135.0399   75.9578  223.5924 H   0  0  0  0  0  0  0  0  0  0  0  0
  136.7100   76.4252  223.9818 H   0  0  0  0  0  0  0  0  0  0  0  0
  135.0662   77.0238  221.5249 H   0  0  0  0  0  0  0  0  0  0  0  0
  136.3364   78.0002  222.2405 H   0  0  0  0  0  0  0  0  0  0  0  0
  136.7936   76.4709  219.9808 H   0  0  0  0  0  0  0  0  0  0  0  0
  138.3560   76.8977  223.3515 H   0  0  0  0  0  0  0  0  0  0  0  0
  143.0540   78.0780  221.5010 H   0  0  0  0  0  0  0  0  0  0  0  0
  143.2804   80.2961  222.2041 H   0  0  0  0  0  0  0  0  0  0  0  0
  141.4392   78.9987  224.0512 H   0  0  0  0  0  0  0  0  0  0  0  0
  142.6395   80.2553  224.4063 H   0  0  0  0  0  0  0  0  0  0  0  0
  139.9549   80.7039  224.5892 H   0  0  0  0  0  0  0  0  0  0  0  0
  141.0581   81.9966  224.1279 H   0  0  0  0  0  0  0  0  0  0  0  0
  139.3870   80.1587  222.3344 H   0  0  0  0  0  0  0  0  0  0  0  0
  139.4751   81.9009  222.2525 H   0  0  0  0  0  0  0  0  0  0  0  0
  141.0021   80.4176  220.5989 H   0  0  0  0  0  0  0  0  0  0  0  0
  141.7462   81.8405  221.3396 H   0  0  0  0  0  0  0  0  0  0  0  0
  138.8201   77.1085  219.0964 H   0  0  0  0  0  0  0  0  0  0  0  0
  138.7682   69.8855  222.7166 H   0  0  0  0  0  0  0  0  0  0  0  0
  138.8550   68.2330  224.5508 H   0  0  0  0  0  0  0  0  0  0  0  0
  139.4919   67.6808  226.7782 H   0  0  0  0  0  0  0  0  0  0  0  0
  141.4978   70.6239  229.2229 H   0  0  0  0  0  0  0  0  0  0  0  0
  141.3716   72.2174  227.3382 H   0  0  0  0  0  0  0  0  0  0  0  0
  1  2  2  0
  2  3  1  0
  3  4  1  0
  4  5  1  0
  5  6  2  0
  5  7  1  0
  7  8  1  0
  8  9  1  0
  9 10  1  0
 10 11  1  0
 11 12  1  0
 12 13  2  0
 13 14  1  0
 14 15  2  0
 15 16  1  0
 16 17  1  0
 17 18  1  0
 18 19  1  0
 19 20  1  0
 20 21  1  0
 15 22  1  0
 22 23  2  0
  2 24  1  0
 24 25  2  0
 25 26  1  0
 26 27  2  0
 27 28  1  0
 28 29  2  0
 29 30  1  0
 29 31  1  0
 31 32  2  0
 32 33  1  0
 33 34  2  0
 11  7  1  0
 23 12  1  0
 34 24  1  0
 21 17  1  0
 33 27  1  0
  3 35  1  0
  4 36  1  0
  4 37  1  0
  8 38  1  0
  8 39  1  0
  9 40  1  0
  9 41  1  0
 10 42  1  0
 10 43  1  0
 11 44  1  6
 13 45  1  0
 16 46  1  0
 17 47  1  0
 18 48  1  0
 18 49  1  0
 19 50  1  0
 19 51  1  0
 20 52  1  0
 20 53  1  0
 21 54  1  0
 21 55  1  0
 23 56  1  0
 25 57  1  0
 26 58  1  0
 28 59  1  0
 31 60  1  0
 32 61  1  0
M  END
>  <smiles>  (5) 
O=C(NCC(=O)N1CCC[C@H]1c1cnc(NC2CCCC2)nc1)c1ccc2cc(F)ccc2n1

>  <score_type>  (5) 
oracle

>  <origin>  (5) 
autodockgpu

>  <m_score__min__energy>  (5) 
-9.4299999999999997

>  <m_primary>  (5) 
energy

>  <rmsd>  (5) 
3.4570137084826014

>  <m_score__min__rmsd>  (5) 
3.4570137084826014

>  <meeko>  (5) 
{"free_energy": -8.18, "intermolecular_energy": -10.27, "internal_energy": -1.76, "cluster_size": 13, "cluster_id": 3, "rank_in_cluster": 12}

>  <energy>  (5) 
-8.11

>  <cluster_rmsd>  (5) 
1.81

>  <cluster>  (5) 
1

$$$$

     RDKit          3D

 61 65  0  0  0  0  0  0  0  0999 V2000
  139.3940   75.0240  222.3660 O   0  0  0  0  0  0  0  0  0  0  0  0
  140.2100   75.3120  221.4310 C   0  0  0  0  0  0  0  0  0  0  0  0
  139.9720   76.5080  220.7310 N   0  0  0  0  0  0  0  0  0  0  0  0
  138.8080   77.3000  221.1530 C   0  0  0  0  0  0  0  0  0  0  0  0
  139.2240   78.0520  222.3650 C   0  0  0  0  0  0  0  0  0  0  0  0
  138.4970   78.1010  223.4100 O   0  0  0  0  0  0  0  0  0  0  0  0
  140.4540   78.7630  222.4390 N   0  0  0  0  0  0  0  0  0  0  0  0
  141.4490   78.4960  223.4660 C   0  0  0  0  0  0  0  0  0  0  0  0
  142.5000   79.5550  223.3220 C   0  0  0  0  0  0  0  0  0  0  0  0
  141.9570   80.5880  222.3520 C   0  0  0  0  0  0  0  0  0  0  0  0
  140.9190   79.8190  221.5610 C   0  0  1  0  0  0  0  0  0  0  0  0
  141.5130   79.2990  220.3020 C   0  0  0  0  0  0  0  0  0  0  0  0
  142.1900   78.0980  220.2550 C   0  0  0  0  0  0  0  0  0  0  0  0
  142.7300   77.6250  219.1140 N   0  0  0  0  0  0  0  0  0  0  0  0
  142.6250   78.3190  217.9600 C   0  0  0  0  0  0  0  0  0  0  0  0
  143.2080   77.7890  216.7730 N   0  0  0  0  0  0  0  0  0  0  0  0
  142.6060   76.5910  216.2260 C   0  0  0  0  0  0  0  0  0  0  0  0
  141.3010   76.2550  216.9040 C   0  0  0  0  0  0  0  0  0  0  0  0
  141.4290   74.8350  217.3840 C   0  0  0  0  0  0  0  0  0  0  0  0
  142.9010   74.6420  217.6010 C   0  0  0  0  0  0  0  0  0  0  0  0
  143.5030   75.4040  216.4370 C   0  0  0  0  0  0  0  0  0  0  0  0
  141.9680   79.4950  217.9830 N   0  0  0  0  0  0  0  0  0  0  0  0
  141.4160   79.9990  219.1030 C   0  0  0  0  0  0  0  0  0  0  0  0
  141.3260   74.4260  221.1230 C   0  0  0  0  0  0  0  0  0  0  0  0
  141.1030   73.0660  221.0470 C   0  0  0  0  0  0  0  0  0  0  0  0
  142.1080   72.1720  220.7610 C   0  0  0  0  0  0  0  0  0  0  0  0
  143.3790   72.6630  220.5450 C   0  0  0  0  0  0  0  0  0  0  0  0
  144.3990   71.7790  220.2560 C   0  0  0  0  0  0  0  0  0  0  0  0
  145.6760   72.2580  220.0380 C   0  0  0  0  0  0  0  0  0  0  0  0
  146.6640   71.3870  219.7580 F   0  0  0  0  0  0  0  0  0  0  0  0
  145.9220   73.6320  220.1100 C   0  0  0  0  0  0  0  0  0  0  0  0
  144.8670   74.4770  220.4020 C   0  0  0  0  0  0  0  0  0  0  0  0
  143.5820   74.0260  220.6240 C   0  0  0  0  0  0  0  0  0  0  0  0
  142.5840   74.8970  220.9070 N   0  0  0  0  0  0  0  0  0  0  0  0
  140.5980   76.7940  219.9630 H   0  0  0  0  0  0  0  0  0  0  0  0
  138.5144   77.9981  220.3552 H   0  0  0  0  0  0  0  0  0  0  0  0
  137.9434   76.6535  221.3642 H   0  0  0  0  0  0  0  0  0  0  0  0
  140.9895   78.5492  224.4640 H   0  0  0  0  0  0  0  0  0  0  0  0
  141.8786   77.4897  223.3532 H   0  0  0  0  0  0  0  0  0  0  0  0
  142.7024   80.0218  224.2973 H   0  0  0  0  0  0  0  0  0  0  0  0
  143.4427   79.1256  222.9520 H   0  0  0  0  0  0  0  0  0  0  0  0
  141.4969   81.4295  222.8906 H   0  0  0  0  0  0  0  0  0  0  0  0
  142.7379   81.0313  221.7167 H   0  0  0  0  0  0  0  0  0  0  0  0
  140.0734   80.4503  221.2506 H   0  0  0  0  0  0  0  0  0  0  0  0
  142.2924   77.5077  221.1776 H   0  0  0  0  0  0  0  0  0  0  0  0
  144.0290   78.2680  216.3430 H   0  0  0  0  0  0  0  0  0  0  0  0
  142.4431   76.7956  215.1576 H   0  0  0  0  0  0  0  0  0  0  0  0
  141.1285   76.9307  217.7547 H   0  0  0  0  0  0  0  0  0  0  0  0
  140.4510   76.3695  216.2152 H   0  0  0  0  0  0  0  0  0  0  0  0
  140.8755   74.6910  218.3236 H   0  0  0  0  0  0  0  0  0  0  0  0
  141.0141   74.1122  216.6661 H   0  0  0  0  0  0  0  0  0  0  0  0
  143.2208   75.0677  218.5636 H   0  0  0  0  0  0  0  0  0  0  0  0
  143.2052   73.5856  217.6398 H   0  0  0  0  0  0  0  0  0  0  0  0
  144.5243   75.7325  216.6798 H   0  0  0  0  0  0  0  0  0  0  0  0
  143.5728   74.7801  215.5337 H   0  0  0  0  0  0  0  0  0  0  0  0
  140.8885   80.9637  219.0703 H   0  0  0  0  0  0  0  0  0  0  0  0
  140.0862   72.6841  221.2212 H   0  0  0  0  0  0  0  0  0  0  0  0
  141.9036   71.0926  220.7059 H   0  0  0  0  0  0  0  0  0  0  0  0
  144.1960   70.6994  220.1996 H   0  0  0  0  0  0  0  0  0  0  0  0
  146.9321   74.0322  219.9383 H   0  0  0  0  0  0  0  0  0  0  0  0
  145.0611   75.5582  220.4599 H   0  0  0  0  0  0  0  0  0  0  0  0
  1  2  2  0
  2  3  1  0
  3  4  1  0
  4  5  1  0
  5  6  2  0
  5  7  1  0
  7  8  1  0
  8  9  1  0
  9 10  1  0
 10 11  1  0
 11 12  1  0
 12 13  2  0
 13 14  1  0
 14 15  2  0
 15 16  1  0
 16 17  1  0
 17 18  1  0
 18 19  1  0
 19 20  1  0
 20 21  1  0
 15 22  1  0
 22 23  2  0
  2 24  1  0
 24 25  2  0
 25 26  1  0
 26 27  2  0
 27 28  1  0
 28 29  2  0
 29 30  1  0
 29 31  1  0
 31 32  2  0
 32 33  1  0
 33 34  2  0
 11  7  1  0
 23 12  1  0
 34 24  1  0
 21 17  1  0
 33 27  1  0
  3 35  1  0
  4 36  1  0
  4 37  1  0
  8 38  1  0
  8 39  1  0
  9 40  1  0
  9 41  1  0
 10 42  1  0
 10 43  1  0
 11 44  1  6
 13 45  1  0
 16 46  1  0
 17 47  1  0
 18 48  1  0
 18 49  1  0
 19 50  1  0
 19 51  1  0
 20 52  1  0
 20 53  1  0
 21 54  1  0
 21 55  1  0
 23 56  1  0
 25 57  1  0
 26 58  1  0
 28 59  1  0
 31 60  1  0
 32 61  1  0
M  END
>  <smiles>  (6) 
O=C(NCC(=O)N1CCC[C@H]1c1cnc(NC2CCCC2)nc1)c1ccc2cc(F)ccc2n1

>  <score_type>  (6) 
oracle

>  <origin>  (6) 
autodockgpu

>  <m_score__min__energy>  (6) 
-9.4299999999999997

>  <m_primary>  (6) 
energy

>  <rmsd>  (6) 
6.4841098336922105

>  <m_score__min__rmsd>  (6) 
6.4841098336922105

>  <meeko>  (6) 
{"free_energy": -6.73, "intermolecular_energy": -8.82, "internal_energy": -3.36, "cluster_size": 5, "cluster_id": 10, "rank_in_cluster": 3}

>  <energy>  (6) 
-8.06

>  <cluster_rmsd>  (6) 
1.46

>  <cluster>  (6) 
1

$$$$

     RDKit          3D

 61 65  0  0  0  0  0  0  0  0999 V2000
  140.4960   73.3930  222.3370 O   0  0  0  0  0  0  0  0  0  0  0  0
  139.8350   72.3050  222.3740 C   0  0  0  0  0  0  0  0  0  0  0  0
  139.0970   71.9750  221.2240 N   0  0  0  0  0  0  0  0  0  0  0  0
  139.1670   72.9200  220.1000 C   0  0  0  0  0  0  0  0  0  0  0  0
  137.8410   73.5850  220.0230 C   0  0  0  0  0  0  0  0  0  0  0  0
  137.0510   73.3990  219.0410 O   0  0  0  0  0  0  0  0  0  0  0  0
  137.3700   74.4680  221.0320 N   0  0  0  0  0  0  0  0  0  0  0  0
  136.9230   73.9980  222.3340 C   0  0  0  0  0  0  0  0  0  0  0  0
  136.3380   75.1870  223.0360 C   0  0  0  0  0  0  0  0  0  0  0  0
  136.2280   76.2970  222.0080 C   0  0  0  0  0  0  0  0  0  0  0  0
  137.2520   75.9120  220.9590 C   0  0  1  0  0  0  0  0  0  0  0  0
  138.5400   76.6060  221.2200 C   0  0  0  0  0  0  0  0  0  0  0  0
  139.3490   76.2690  222.2850 C   0  0  0  0  0  0  0  0  0  0  0  0
  140.5180   76.8980  222.5220 N   0  0  0  0  0  0  0  0  0  0  0  0
  140.9430   77.8940  221.7150 C   0  0  0  0  0  0  0  0  0  0  0  0
  142.1840   78.5370  221.9960 N   0  0  0  0  0  0  0  0  0  0  0  0
  142.1670   79.5860  222.9940 C   0  0  0  0  0  0  0  0  0  0  0  0
  140.9230   79.5350  223.8460 C   0  0  0  0  0  0  0  0  0  0  0  0
  140.2990   80.9010  223.7640 C   0  0  0  0  0  0  0  0  0  0  0  0
  140.7400   81.4370  222.4340 C   0  0  0  0  0  0  0  0  0  0  0  0
  142.1690   80.9390  222.3420 C   0  0  0  0  0  0  0  0  0  0  0  0
  140.1680   78.2400  220.6680 N   0  0  0  0  0  0  0  0  0  0  0  0
  138.9950   77.6350  220.4000 C   0  0  0  0  0  0  0  0  0  0  0  0
  139.8600   71.4640  223.5650 C   0  0  0  0  0  0  0  0  0  0  0  0
  139.2700   70.2170  223.5190 C   0  0  0  0  0  0  0  0  0  0  0  0
  139.2570   69.3700  224.6020 C   0  0  0  0  0  0  0  0  0  0  0  0
  139.8560   69.7930  225.7710 C   0  0  0  0  0  0  0  0  0  0  0  0
  139.8520   68.9560  226.8680 C   0  0  0  0  0  0  0  0  0  0  0  0
  140.4490   69.3680  228.0440 C   0  0  0  0  0  0  0  0  0  0  0  0
  140.4380   68.5430  229.1080 F   0  0  0  0  0  0  0  0  0  0  0  0
  141.0520   70.6270  228.1100 C   0  0  0  0  0  0  0  0  0  0  0  0
  141.0310   71.4290  226.9840 C   0  0  0  0  0  0  0  0  0  0  0  0
  140.4420   71.0430  225.7970 C   0  0  0  0  0  0  0  0  0  0  0  0
  140.4480   71.8680  224.7220 N   0  0  0  0  0  0  0  0  0  0  0  0
  138.5400   71.1070  221.1950 H   0  0  0  0  0  0  0  0  0  0  0  0
  139.9558   73.6654  220.2792 H   0  0  0  0  0  0  0  0  0  0  0  0
  139.4067   72.4018  219.1598 H   0  0  0  0  0  0  0  0  0  0  0  0
  136.1608   73.2140  222.2142 H   0  0  0  0  0  0  0  0  0  0  0  0
  137.7552   73.5654  222.9088 H   0  0  0  0  0  0  0  0  0  0  0  0
  135.3425   74.9395  223.4332 H   0  0  0  0  0  0  0  0  0  0  0  0
  136.9708   75.4952  223.8814 H   0  0  0  0  0  0  0  0  0  0  0  0
  135.2172   76.3335  221.5757 H   0  0  0  0  0  0  0  0  0  0  0  0
  136.4069   77.2949  222.4348 H   0  0  0  0  0  0  0  0  0  0  0  0
  136.9512   76.2150  219.9452 H   0  0  0  0  0  0  0  0  0  0  0  0
  139.0308   75.4624  222.9618 H   0  0  0  0  0  0  0  0  0  0  0  0
  143.0450   78.2410  221.4880 H   0  0  0  0  0  0  0  0  0  0  0  0
  143.0637   79.4284  223.6113 H   0  0  0  0  0  0  0  0  0  0  0  0
  140.2279   78.7749  223.4600 H   0  0  0  0  0  0  0  0  0  0  0  0
  141.1612   79.2660  224.8857 H   0  0  0  0  0  0  0  0  0  0  0  0
  139.2022   80.8307  223.8105 H   0  0  0  0  0  0  0  0  0  0  0  0
  140.6034   81.5503  224.5981 H   0  0  0  0  0  0  0  0  0  0  0  0
  140.1239   81.0324  221.6175 H   0  0  0  0  0  0  0  0  0  0  0  0
  140.6482   82.5297  222.3474 H   0  0  0  0  0  0  0  0  0  0  0  0
  142.4806   80.8581  221.2902 H   0  0  0  0  0  0  0  0  0  0  0  0
  142.8726   81.6270  222.8334 H   0  0  0  0  0  0  0  0  0  0  0  0
  138.3967   77.9537  219.5337 H   0  0  0  0  0  0  0  0  0  0  0  0
  138.7936   69.8894  222.5832 H   0  0  0  0  0  0  0  0  0  0  0  0
  138.7812   68.3803  224.5382 H   0  0  0  0  0  0  0  0  0  0  0  0
  139.3761   67.9662  226.8066 H   0  0  0  0  0  0  0  0  0  0  0  0
  141.5327   70.9722  229.0372 H   0  0  0  0  0  0  0  0  0  0  0  0
  141.5054   72.4200  227.0366 H   0  0  0  0  0  0  0  0  0  0  0  0
  1  2  2  0
  2  3  1  0
  3  4  1  0
  4  5  1  0
  5  6  2  0
  5  7  1  0
  7  8  1  0
  8  9  1  0
  9 10  1  0
 10 11  1  0
 11 12  1  0
 12 13  2  0
 13 14  1  0
 14 15  2  0
 15 16  1  0
 16 17  1  0
 17 18  1  0
 18 19  1  0
 19 20  1  0
 20 21  1  0
 15 22  1  0
 22 23  2  0
  2 24  1  0
 24 25  2  0
 25 26  1  0
 26 27  2  0
 27 28  1  0
 28 29  2  0
 29 30  1  0
 29 31  1  0
 31 32  2  0
 32 33  1  0
 33 34  2  0
 11  7  1  0
 23 12  1  0
 34 24  1  0
 21 17  1  0
 33 27  1  0
  3 35  1  0
  4 36  1  0
  4 37  1  0
  8 38  1  0
  8 39  1  0
  9 40  1  0
  9 41  1  0
 10 42  1  0
 10 43  1  0
 11 44  1  6
 13 45  1  0
 16 46  1  0
 17 47  1  0
 18 48  1  0
 18 49  1  0
 19 50  1  0
 19 51  1  0
 20 52  1  0
 20 53  1  0
 21 54  1  0
 21 55  1  0
 23 56  1  0
 25 57  1  0
 26 58  1  0
 28 59  1  0
 31 60  1  0
 32 61  1  0
M  END
>  <smiles>  (7) 
O=C(NCC(=O)N1CCC[C@H]1c1cnc(NC2CCCC2)nc1)c1ccc2cc(F)ccc2n1

>  <score_type>  (7) 
oracle

>  <origin>  (7) 
autodockgpu

>  <m_score__min__energy>  (7) 
-9.4299999999999997

>  <m_primary>  (7) 
energy

>  <rmsd>  (7) 
3.3850754990357754

>  <m_score__min__rmsd>  (7) 
3.3850754990357754

>  <meeko>  (7) 
{"free_energy": -8.35, "intermolecular_energy": -10.44, "internal_energy": -1.92, "cluster_size": 13, "cluster_id": 3, "rank_in_cluster": 6}

>  <energy>  (7) 
-8.03

>  <cluster_rmsd>  (7) 
1.49

>  <cluster>  (7) 
1

$$$$

     RDKit          3D

 61 65  0  0  0  0  0  0  0  0999 V2000
  140.1430   73.0010  222.6860 O   0  0  0  0  0  0  0  0  0  0  0  0
  139.6330   71.8730  222.9840 C   0  0  0  0  0  0  0  0  0  0  0  0
  138.7290   71.3240  222.0580 N   0  0  0  0  0  0  0  0  0  0  0  0
  138.4690   72.1090  220.8430 C   0  0  0  0  0  0  0  0  0  0  0  0
  137.0050   72.3580  220.8050 C   0  0  0  0  0  0  0  0  0  0  0  0
  136.1870   71.4970  220.3420 O   0  0  0  0  0  0  0  0  0  0  0  0
  136.4220   73.5660  221.2780 N   0  0  0  0  0  0  0  0  0  0  0  0
  135.5600   73.6100  222.4480 C   0  0  0  0  0  0  0  0  0  0  0  0
  135.0060   75.0010  222.5150 C   0  0  0  0  0  0  0  0  0  0  0  0
  135.3700   75.6840  221.2100 C   0  0  0  0  0  0  0  0  0  0  0  0
  136.5680   74.8960  220.7200 C   0  0  1  0  0  0  0  0  0  0  0  0
  137.8280   75.5610  221.1430 C   0  0  0  0  0  0  0  0  0  0  0  0
  138.4480   76.5160  220.3640 C   0  0  0  0  0  0  0  0  0  0  0  0
  139.5910   77.1200  220.7470 N   0  0  0  0  0  0  0  0  0  0  0  0
  140.1780   76.8060  221.9220 C   0  0  0  0  0  0  0  0  0  0  0  0
  141.3870   77.4630  222.2950 N   0  0  0  0  0  0  0  0  0  0  0  0
  141.4740   78.8810  222.0150 C   0  0  0  0  0  0  0  0  0  0  0  0
  142.6560   79.5210  222.7000 C   0  0  0  0  0  0  0  0  0  0  0  0
  142.1090   80.6720  223.4980 C   0  0  0  0  0  0  0  0  0  0  0  0
  140.6960   80.2760  223.8110 C   0  0  0  0  0  0  0  0  0  0  0  0
  140.2580   79.5990  222.5270 C   0  0  0  0  0  0  0  0  0  0  0  0
  139.5900   75.8740  222.6990 N   0  0  0  0  0  0  0  0  0  0  0  0
  138.4490   75.2510  222.3500 C   0  0  0  0  0  0  0  0  0  0  0  0
  139.9860   71.2070  224.2330 C   0  0  0  0  0  0  0  0  0  0  0  0
  140.7500   71.8830  225.1620 C   0  0  0  0  0  0  0  0  0  0  0  0
  141.1200   71.3170  226.3600 C   0  0  0  0  0  0  0  0  0  0  0  0
  140.7070   70.0290  226.6300 C   0  0  0  0  0  0  0  0  0  0  0  0
  141.0700   69.4470  227.8280 C   0  0  0  0  0  0  0  0  0  0  0  0
  140.6630   68.1570  228.1110 C   0  0  0  0  0  0  0  0  0  0  0  0
  141.0230   67.5980  229.2820 F   0  0  0  0  0  0  0  0  0  0  0  0
  139.8880   67.4560  227.1830 C   0  0  0  0  0  0  0  0  0  0  0  0
  139.5500   68.0830  225.9970 C   0  0  0  0  0  0  0  0  0  0  0  0
  139.9430   69.3690  225.6890 C   0  0  0  0  0  0  0  0  0  0  0  0
  139.5850   69.9370  224.5120 N   0  0  0  0  0  0  0  0  0  0  0  0
  138.2820   70.4130  222.2450 H   0  0  0  0  0  0  0  0  0  0  0  0
  139.0155   73.0628  220.8830 H   0  0  0  0  0  0  0  0  0  0  0  0
  138.8038   71.5714  219.9436 H   0  0  0  0  0  0  0  0  0  0  0  0
  134.7434   72.8800  222.3463 H   0  0  0  0  0  0  0  0  0  0  0  0
  136.1170   73.3587  223.3627 H   0  0  0  0  0  0  0  0  0  0  0  0
  133.9128   74.9675  222.6323 H   0  0  0  0  0  0  0  0  0  0  0  0
  135.4198   75.5485  223.3746 H   0  0  0  0  0  0  0  0  0  0  0  0
  134.5399   75.6252  220.4907 H   0  0  0  0  0  0  0  0  0  0  0  0
  135.5836   76.7560  221.3328 H   0  0  0  0  0  0  0  0  0  0  0  0
  136.6161   74.8407  219.6224 H   0  0  0  0  0  0  0  0  0  0  0  0
  137.9958   76.7933  219.4004 H   0  0  0  0  0  0  0  0  0  0  0  0
  142.1520   76.9180  222.7480 H   0  0  0  0  0  0  0  0  0  0  0  0
  141.5692   78.9662  220.9224 H   0  0  0  0  0  0  0  0  0  0  0  0
  143.1489   78.7966  223.3651 H   0  0  0  0  0  0  0  0  0  0  0  0
  143.4053   79.8610  221.9699 H   0  0  0  0  0  0  0  0  0  0  0  0
  142.6871   80.8129  224.4232 H   0  0  0  0  0  0  0  0  0  0  0  0
  142.1643   81.6241  222.9498 H   0  0  0  0  0  0  0  0  0  0  0  0
  140.6566   79.5799  224.6618 H   0  0  0  0  0  0  0  0  0  0  0  0
  140.0561   81.1216  224.1034 H   0  0  0  0  0  0  0  0  0  0  0  0
  139.4459   78.8846  222.7271 H   0  0  0  0  0  0  0  0  0  0  0  0
  139.8744   80.3243  221.7943 H   0  0  0  0  0  0  0  0  0  0  0  0
  138.0073   74.4971  223.0182 H   0  0  0  0  0  0  0  0  0  0  0  0
  141.0744   72.9097  224.9370 H   0  0  0  0  0  0  0  0  0  0  0  0
  141.7297   71.8773  227.0841 H   0  0  0  0  0  0  0  0  0  0  0  0
  141.6795   70.0066  228.5529 H   0  0  0  0  0  0  0  0  0  0  0  0
  139.5542   66.4287  227.3909 H   0  0  0  0  0  0  0  0  0  0  0  0
  138.9403   67.5311  225.2665 H   0  0  0  0  0  0  0  0  0  0  0  0
  1  2  2  0
  2  3  1  0
  3  4  1  0
  4  5  1  0
  5  6  2  0
  5  7  1  0
  7  8  1  0
  8  9  1  0
  9 10  1  0
 10 11  1  0
 11 12  1  0
 12 13  2  0
 13 14  1  0
 14 15  2  0
 15 16  1  0
 16 17  1  0
 17 18  1  0
 18 19  1  0
 19 20  1  0
 20 21  1  0
 15 22  1  0
 22 23  2  0
  2 24  1  0
 24 25  2  0
 25 26  1  0
 26 27  2  0
 27 28  1  0
 28 29  2  0
 29 30  1  0
 29 31  1  0
 31 32  2  0
 32 33  1  0
 33 34  2  0
 11  7  1  0
 23 12  1  0
 34 24  1  0
 21 17  1  0
 33 27  1  0
  3 35  1  0
  4 36  1  0
  4 37  1  0
  8 38  1  0
  8 39  1  0
  9 40  1  0
  9 41  1  0
 10 42  1  0
 10 43  1  0
 11 44  1  6
 13 45  1  0
 16 46  1  0
 17 47  1  0
 18 48  1  0
 18 49  1  0
 19 50  1  0
 19 51  1  0
 20 52  1  0
 20 53  1  0
 21 54  1  0
 21 55  1  0
 23 56  1  0
 25 57  1  0
 26 58  1  0
 28 59  1  0
 31 60  1  0
 32 61  1  0
M  END
>  <smiles>  (8) 
O=C(NCC(=O)N1CCC[C@H]1c1cnc(NC2CCCC2)nc1)c1ccc2cc(F)ccc2n1

>  <score_type>  (8) 
oracle

>  <origin>  (8) 
autodockgpu

>  <m_score__min__energy>  (8) 
-9.4299999999999997

>  <m_primary>  (8) 
energy

>  <rmsd>  (8) 
4.365687428246462

>  <m_score__min__rmsd>  (8) 
4.365687428246462

>  <meeko>  (8) 
{"free_energy": -7.98, "intermolecular_energy": -10.06, "internal_energy": -1.89, "cluster_size": 13, "cluster_id": 3, "rank_in_cluster": 13}

>  <energy>  (8) 
-7.98

>  <cluster_rmsd>  (8) 
1.84

>  <cluster>  (8) 
1

$$$$

     RDKit          3D

 61 65  0  0  0  0  0  0  0  0999 V2000
  141.0620   74.9370  221.5900 O   0  0  0  0  0  0  0  0  0  0  0  0
  139.9390   75.3040  222.0660 C   0  0  0  0  0  0  0  0  0  0  0  0
  138.9940   74.2920  222.3090 N   0  0  0  0  0  0  0  0  0  0  0  0
  139.4020   72.9160  221.9890 C   0  0  0  0  0  0  0  0  0  0  0  0
  138.1660   72.0920  222.0150 C   0  0  0  0  0  0  0  0  0  0  0  0
  137.0490   72.5650  222.4040 O   0  0  0  0  0  0  0  0  0  0  0  0
  138.1480   70.7290  221.6090 N   0  0  0  0  0  0  0  0  0  0  0  0
  138.9910   70.2220  220.5390 C   0  0  0  0  0  0  0  0  0  0  0  0
  138.5560   68.8090  220.2900 C   0  0  0  0  0  0  0  0  0  0  0  0
  137.2710   68.5990  221.0690 C   0  0  0  0  0  0  0  0  0  0  0  0
  137.3360   69.6560  222.1520 C   0  0  1  0  0  0  0  0  0  0  0  0
  137.9050   69.0810  223.3980 C   0  0  0  0  0  0  0  0  0  0  0  0
  138.6630   67.9290  223.3920 C   0  0  0  0  0  0  0  0  0  0  0  0
  139.1800   67.4060  224.5220 N   0  0  0  0  0  0  0  0  0  0  0  0
  138.9700   68.0000  225.7170 C   0  0  0  0  0  0  0  0  0  0  0  0
  139.5310   67.4190  226.8920 N   0  0  0  0  0  0  0  0  0  0  0  0
  140.6370   68.1230  227.5060 C   0  0  0  0  0  0  0  0  0  0  0  0
  140.1790   69.0460  228.6070 C   0  0  0  0  0  0  0  0  0  0  0  0
  140.7290   70.4060  228.2750 C   0  0  0  0  0  0  0  0  0  0  0  0
  140.8610   70.4030  226.7800 C   0  0  0  0  0  0  0  0  0  0  0  0
  141.3370   68.9920  226.4990 C   0  0  0  0  0  0  0  0  0  0  0  0
  138.2310   69.1270  225.7470 N   0  0  0  0  0  0  0  0  0  0  0  0
  137.7000   69.6780  224.6390 C   0  0  0  0  0  0  0  0  0  0  0  0
  139.6740   76.7130  222.3360 C   0  0  0  0  0  0  0  0  0  0  0  0
  140.7270   77.6050  222.3380 C   0  0  0  0  0  0  0  0  0  0  0  0
  140.5510   78.9470  222.5840 C   0  0  0  0  0  0  0  0  0  0  0  0
  139.2740   79.4050  222.8350 C   0  0  0  0  0  0  0  0  0  0  0  0
  139.0800   80.7490  223.0840 C   0  0  0  0  0  0  0  0  0  0  0  0
  137.8060   81.2190  223.3370 C   0  0  0  0  0  0  0  0  0  0  0  0
  137.6290   82.5320  223.5790 F   0  0  0  0  0  0  0  0  0  0  0  0
  136.7270   80.3310  223.3380 C   0  0  0  0  0  0  0  0  0  0  0  0
  136.9730   78.9940  223.0830 C   0  0  0  0  0  0  0  0  0  0  0  0
  138.2340   78.4960  222.8280 C   0  0  0  0  0  0  0  0  0  0  0  0
  138.4210   77.1770  222.5840 N   0  0  0  0  0  0  0  0  0  0  0  0
  138.0660   74.5280  222.6930 H   0  0  0  0  0  0  0  0  0  0  0  0
  139.8625   72.8787  220.9907 H   0  0  0  0  0  0  0  0  0  0  0  0
  140.1436   72.5432  222.7109 H   0  0  0  0  0  0  0  0  0  0  0  0
  138.8570   70.8270  219.6301 H   0  0  0  0  0  0  0  0  0  0  0  0
  140.0551   70.2688  220.8138 H   0  0  0  0  0  0  0  0  0  0  0  0
  138.3771   68.6521  219.2160 H   0  0  0  0  0  0  0  0  0  0  0  0
  139.3308   68.0966  220.6097 H   0  0  0  0  0  0  0  0  0  0  0  0
  136.3920   68.7496  220.4251 H   0  0  0  0  0  0  0  0  0  0  0  0
  137.1760   67.5795  221.4711 H   0  0  0  0  0  0  0  0  0  0  0  0
  136.3421   70.0376  222.4287 H   0  0  0  0  0  0  0  0  0  0  0  0
  138.8518   67.4207  222.4349 H   0  0  0  0  0  0  0  0  0  0  0  0
  139.1370   66.5290  227.2650 H   0  0  0  0  0  0  0  0  0  0  0  0
  141.3024   67.3449  227.9083 H   0  0  0  0  0  0  0  0  0  0  0  0
  139.0801   69.0784  228.6442 H   0  0  0  0  0  0  0  0  0  0  0  0
  140.5323   68.7013  229.5900 H   0  0  0  0  0  0  0  0  0  0  0  0
  140.0371   71.1959  228.6027 H   0  0  0  0  0  0  0  0  0  0  0  0
  141.6863   70.6046  228.7791 H   0  0  0  0  0  0  0  0  0  0  0  0
  139.8939   70.6010  226.2946 H   0  0  0  0  0  0  0  0  0  0  0  0
  141.5385   71.1803  226.3967 H   0  0  0  0  0  0  0  0  0  0  0  0
  141.0648   68.6911  225.4766 H   0  0  0  0  0  0  0  0  0  0  0  0
  142.4309   68.9074  226.5779 H   0  0  0  0  0  0  0  0  0  0  0  0
  137.1043   70.5997  224.7143 H   0  0  0  0  0  0  0  0  0  0  0  0
  141.7413   77.2303  222.1361 H   0  0  0  0  0  0  0  0  0  0  0  0
  141.4071   79.6377  222.5807 H   0  0  0  0  0  0  0  0  0  0  0  0
  139.9348   81.4414  223.0809 H   0  0  0  0  0  0  0  0  0  0  0  0
  135.7055   80.6871  223.5370 H   0  0  0  0  0  0  0  0  0  0  0  0
  136.1235   78.2952  223.0835 H   0  0  0  0  0  0  0  0  0  0  0  0
  1  2  2  0
  2  3  1  0
  3  4  1  0
  4  5  1  0
  5  6  2  0
  5  7  1  0
  7  8  1  0
  8  9  1  0
  9 10  1  0
 10 11  1  0
 11 12  1  0
 12 13  2  0
 13 14  1  0
 14 15  2  0
 15 16  1  0
 16 17  1  0
 17 18  1  0
 18 19  1  0
 19 20  1  0
 20 21  1  0
 15 22  1  0
 22 23  2  0
  2 24  1  0
 24 25  2  0
 25 26  1  0
 26 27  2  0
 27 28  1  0
 28 29  2  0
 29 30  1  0
 29 31  1  0
 31 32  2  0
 32 33  1  0
 33 34  2  0
 11  7  1  0
 23 12  1  0
 34 24  1  0
 21 17  1  0
 33 27  1  0
  3 35  1  0
  4 36  1  0
  4 37  1  0
  8 38  1  0
  8 39  1  0
  9 40  1  0
  9 41  1  0
 10 42  1  0
 10 43  1  0
 11 44  1  1
 13 45  1  0
 16 46  1  0
 17 47  1  0
 18 48  1  0
 18 49  1  0
 19 50  1  0
 19 51  1  0
 20 52  1  0
 20 53  1  0
 21 54  1  0
 21 55  1  0
 23 56  1  0
 25 57  1  0
 26 58  1  0
 28 59  1  0
 31 60  1  0
 32 61  1  0
M  END
>  <smiles>  (9) 
O=C(NCC(=O)N1CCC[C@H]1c1cnc(NC2CCCC2)nc1)c1ccc2cc(F)ccc2n1

>  <score_type>  (9) 
oracle

>  <origin>  (9) 
autodockgpu

>  <m_score__min__energy>  (9) 
-9.4299999999999997

>  <m_primary>  (9) 
energy

>  <rmsd>  (9) 
8.643856675723107

>  <m_score__min__rmsd>  (9) 
8.643856675723107

>  <meeko>  (9) 
{"free_energy": -8.03, "intermolecular_energy": -10.12, "internal_energy": -2.2, "cluster_size": 8, "cluster_id": 1, "rank_in_cluster": 7}

>  <energy>  (9) 
-8.9

>  <cluster_rmsd>  (9) 
0.0

>  <cluster>  (9) 
2

$$$$

     RDKit          3D

 61 65  0  0  0  0  0  0  0  0999 V2000
  140.7720   71.6530  221.4590 O   0  0  0  0  0  0  0  0  0  0  0  0
  140.0050   71.9350  222.4370 C   0  0  0  0  0  0  0  0  0  0  0  0
  139.1870   73.0690  222.2910 N   0  0  0  0  0  0  0  0  0  0  0  0
  139.3010   73.8090  221.0260 C   0  0  0  0  0  0  0  0  0  0  0  0
  139.9780   75.0920  221.3460 C   0  0  0  0  0  0  0  0  0  0  0  0
  139.7090   75.7500  222.4040 O   0  0  0  0  0  0  0  0  0  0  0  0
  140.9650   75.6680  220.5000 N   0  0  0  0  0  0  0  0  0  0  0  0
  141.6700   76.8920  220.8430 C   0  0  0  0  0  0  0  0  0  0  0  0
  142.4780   77.2690  219.6380 C   0  0  0  0  0  0  0  0  0  0  0  0
  142.0220   76.3700  218.5030 C   0  0  0  0  0  0  0  0  0  0  0  0
  141.4250   75.1740  219.2160 C   0  0  1  0  0  0  0  0  0  0  0  0
  142.4380   74.0950  219.3460 C   0  0  0  0  0  0  0  0  0  0  0  0
  143.0320   73.5130  218.2450 C   0  0  0  0  0  0  0  0  0  0  0  0
  143.9510   72.5340  218.3620 N   0  0  0  0  0  0  0  0  0  0  0  0
  144.3280   72.0810  219.5770 C   0  0  0  0  0  0  0  0  0  0  0  0
  145.3020   71.0440  219.6630 N   0  0  0  0  0  0  0  0  0  0  0  0
  145.1030   69.8870  218.8170 C   0  0  0  0  0  0  0  0  0  0  0  0
  143.9680   69.0200  219.3020 C   0  0  0  0  0  0  0  0  0  0  0  0
  144.5300   67.6340  219.4570 C   0  0  0  0  0  0  0  0  0  0  0  0
  145.9890   67.8490  219.7340 C   0  0  0  0  0  0  0  0  0  0  0  0
  146.3250   69.0110  218.8200 C   0  0  0  0  0  0  0  0  0  0  0  0
  143.7600   72.6350  220.6670 N   0  0  0  0  0  0  0  0  0  0  0  0
  142.8390   73.6140  220.5890 C   0  0  0  0  0  0  0  0  0  0  0  0
  139.9990   71.1050  223.6360 C   0  0  0  0  0  0  0  0  0  0  0  0
  139.4200   69.8540  223.5830 C   0  0  0  0  0  0  0  0  0  0  0  0
  139.3780   69.0180  224.6740 C   0  0  0  0  0  0  0  0  0  0  0  0
  139.9370   69.4560  225.8570 C   0  0  0  0  0  0  0  0  0  0  0  0
  139.9040   68.6290  226.9620 C   0  0  0  0  0  0  0  0  0  0  0  0
  140.4610   69.0570  228.1510 C   0  0  0  0  0  0  0  0  0  0  0  0
  140.4220   68.2410  229.2230 F   0  0  0  0  0  0  0  0  0  0  0  0
  141.0530   70.3200  228.2240 C   0  0  0  0  0  0  0  0  0  0  0  0
  141.0620   71.1120  227.0900 C   0  0  0  0  0  0  0  0  0  0  0  0
  140.5130   70.7100  225.8890 C   0  0  0  0  0  0  0  0  0  0  0  0
  140.5470   71.5250  224.8080 N   0  0  0  0  0  0  0  0  0  0  0  0
  138.5460   73.3480  223.0500 H   0  0  0  0  0  0  0  0  0  0  0  0
  139.8981   73.2346  220.3025 H   0  0  0  0  0  0  0  0  0  0  0  0
  138.3120   73.9829  220.5769 H   0  0  0  0  0  0  0  0  0  0  0  0
  140.9518   77.6896  221.0838 H   0  0  0  0  0  0  0  0  0  0  0  0
  142.3127   76.7476  221.7240 H   0  0  0  0  0  0  0  0  0  0  0  0
  142.3021   78.3236  219.3794 H   0  0  0  0  0  0  0  0  0  0  0  0
  143.5539   77.1452  219.8307 H   0  0  0  0  0  0  0  0  0  0  0  0
  141.2673   76.8740  217.8814 H   0  0  0  0  0  0  0  0  0  0  0  0
  142.8388   76.0967  217.8188 H   0  0  0  0  0  0  0  0  0  0  0  0
  140.5865   74.7278  218.6612 H   0  0  0  0  0  0  0  0  0  0  0  0
  142.7467   73.8587  217.2405 H   0  0  0  0  0  0  0  0  0  0  0  0
  146.1090   71.1480  220.3160 H   0  0  0  0  0  0  0  0  0  0  0  0
  144.8845   70.2822  217.8140 H   0  0  0  0  0  0  0  0  0  0  0  0
  143.5932   69.3890  220.2681 H   0  0  0  0  0  0  0  0  0  0  0  0
  143.1258   69.0324  218.5945 H   0  0  0  0  0  0  0  0  0  0  0  0
  144.0480   67.1106  220.2959 H   0  0  0  0  0  0  0  0  0  0  0  0
  144.3607   67.0119  218.5658 H   0  0  0  0  0  0  0  0  0  0  0  0
  146.1597   68.1099  220.7889 H   0  0  0  0  0  0  0  0  0  0  0  0
  146.6068   66.9564  219.5560 H   0  0  0  0  0  0  0  0  0  0  0  0
  147.1938   69.5646  219.2057 H   0  0  0  0  0  0  0  0  0  0  0  0
  146.5854   68.6709  217.8069 H   0  0  0  0  0  0  0  0  0  0  0  0
  142.4034   74.0337  221.5077 H   0  0  0  0  0  0  0  0  0  0  0  0
  138.9767   69.5136  222.6356 H   0  0  0  0  0  0  0  0  0  0  0  0
  138.9104   68.0247  224.6053 H   0  0  0  0  0  0  0  0  0  0  0  0
  139.4369   67.6353  226.8958 H   0  0  0  0  0  0  0  0  0  0  0  0
  141.5021   70.6769  229.1626 H   0  0  0  0  0  0  0  0  0  0  0  0
  141.5276   72.1069  227.1479 H   0  0  0  0  0  0  0  0  0  0  0  0
  1  2  2  0
  2  3  1  0
  3  4  1  0
  4  5  1  0
  5  6  2  0
  5  7  1  0
  7  8  1  0
  8  9  1  0
  9 10  1  0
 10 11  1  0
 11 12  1  0
 12 13  2  0
 13 14  1  0
 14 15  2  0
 15 16  1  0
 16 17  1  0
 17 18  1  0
 18 19  1  0
 19 20  1  0
 20 21  1  0
 15 22  1  0
 22 23  2  0
  2 24  1  0
 24 25  2  0
 25 26  1  0
 26 27  2  0
 27 28  1  0
 28 29  2  0
 29 30  1  0
 29 31  1  0
 31 32  2  0
 32 33  1  0
 33 34  2  0
 11  7  1  0
 23 12  1  0
 34 24  1  0
 21 17  1  0
 33 27  1  0
  3 35  1  0
  4 36  1  0
  4 37  1  0
  8 38  1  0
  8 39  1  0
  9 40  1  0
  9 41  1  0
 10 42  1  0
 10 43  1  0
 11 44  1  6
 13 45  1  0
 16 46  1  0
 17 47  1  0
 18 48  1  0
 18 49  1  0
 19 50  1  0
 19 51  1  0
 20 52  1  0
 20 53  1  0
 21 54  1  0
 21 55  1  0
 23 56  1  0
 25 57  1  0
 26 58  1  0
 28 59  1  0
 31 60  1  0
 32 61  1  0
M  END
>  <smiles>  (10) 
O=C(NCC(=O)N1CCC[C@H]1c1cnc(NC2CCCC2)nc1)c1ccc2cc(F)ccc2n1

>  <score_type>  (10) 
oracle

>  <origin>  (10) 
autodockgpu

>  <m_score__min__energy>  (10) 
-9.4299999999999997

>  <m_primary>  (10) 
energy

>  <rmsd>  (10) 
2.0209616265330412

>  <m_score__min__rmsd>  (10) 
2.0209616265330412

>  <meeko>  (10) 
{"free_energy": -8.48, "intermolecular_energy": -10.57, "internal_energy": -1.82, "cluster_size": 1, "cluster_id": 5, "rank_in_cluster": 1}

>  <energy>  (10) 
-8.68

>  <cluster_rmsd>  (10) 
0.38

>  <cluster>  (10) 
2

$$$$

     RDKit          3D

 61 65  0  0  0  0  0  0  0  0999 V2000
  138.2820   69.9310  221.7020 O   0  0  0  0  0  0  0  0  0  0  0  0
  138.4410   70.5990  222.7750 C   0  0  0  0  0  0  0  0  0  0  0  0
  138.1040   71.9630  222.7250 N   0  0  0  0  0  0  0  0  0  0  0  0
  137.6030   72.4740  221.4420 C   0  0  0  0  0  0  0  0  0  0  0  0
  136.2070   72.9240  221.6820 C   0  0  0  0  0  0  0  0  0  0  0  0
  135.2200   72.4220  221.0510 O   0  0  0  0  0  0  0  0  0  0  0  0
  135.8820   73.9380  222.6240 N   0  0  0  0  0  0  0  0  0  0  0  0
  135.5330   73.6380  224.0040 C   0  0  0  0  0  0  0  0  0  0  0  0
  135.0840   74.9300  224.6180 C   0  0  0  0  0  0  0  0  0  0  0  0
  134.9420   75.9310  223.4870 C   0  0  0  0  0  0  0  0  0  0  0  0
  135.8400   75.3710  222.4030 C   0  0  1  0  0  0  0  0  0  0  0  0
  137.1850   76.0010  222.4730 C   0  0  0  0  0  0  0  0  0  0  0  0
  138.3120   75.3750  221.9830 C   0  0  0  0  0  0  0  0  0  0  0  0
  139.5320   75.9460  222.0460 N   0  0  0  0  0  0  0  0  0  0  0  0
  139.6950   77.1670  222.5990 C   0  0  0  0  0  0  0  0  0  0  0  0
  140.9990   77.7410  222.6490 N   0  0  0  0  0  0  0  0  0  0  0  0
  141.1540   78.9490  223.4310 C   0  0  0  0  0  0  0  0  0  0  0  0
  140.3080   80.0790  222.8980 C   0  0  0  0  0  0  0  0  0  0  0  0
  141.2430   81.2350  222.6680 C   0  0  0  0  0  0  0  0  0  0  0  0
  142.5740   80.5950  222.4050 C   0  0  0  0  0  0  0  0  0  0  0  0
  142.5750   79.4350  223.3810 C   0  0  0  0  0  0  0  0  0  0  0  0
  138.6070   77.7970  223.0840 N   0  0  0  0  0  0  0  0  0  0  0  0
  137.3740   77.2590  223.0390 C   0  0  0  0  0  0  0  0  0  0  0  0
  138.9510   69.9550  223.9800 C   0  0  0  0  0  0  0  0  0  0  0  0
  138.8510   68.5840  224.1010 C   0  0  0  0  0  0  0  0  0  0  0  0
  139.3100   67.9100  225.2090 C   0  0  0  0  0  0  0  0  0  0  0  0
  139.8890   68.6400  226.2260 C   0  0  0  0  0  0  0  0  0  0  0  0
  140.3550   67.9790  227.3450 C   0  0  0  0  0  0  0  0  0  0  0  0
  140.9360   68.6990  228.3700 C   0  0  0  0  0  0  0  0  0  0  0  0
  141.3870   68.0430  229.4570 F   0  0  0  0  0  0  0  0  0  0  0  0
  141.0480   70.0880  228.2650 C   0  0  0  0  0  0  0  0  0  0  0  0
  140.5660   70.7040  227.1250 C   0  0  0  0  0  0  0  0  0  0  0  0
  139.9810   70.0100  226.0850 C   0  0  0  0  0  0  0  0  0  0  0  0
  139.5240   70.6620  224.9900 N   0  0  0  0  0  0  0  0  0  0  0  0
  138.2130   72.5560  223.5630 H   0  0  0  0  0  0  0  0  0  0  0  0
  138.2210   73.3181  221.1019 H   0  0  0  0  0  0  0  0  0  0  0  0
  137.6421   71.6985  220.6629 H   0  0  0  0  0  0  0  0  0  0  0  0
  134.7201   72.8977  224.0384 H   0  0  0  0  0  0  0  0  0  0  0  0
  136.3896   73.2143  224.5487 H   0  0  0  0  0  0  0  0  0  0  0  0
  134.1173   74.7921  225.1244 H   0  0  0  0  0  0  0  0  0  0  0  0
  135.8090   75.2826  225.3664 H   0  0  0  0  0  0  0  0  0  0  0  0
  133.8990   75.9891  223.1422 H   0  0  0  0  0  0  0  0  0  0  0  0
  135.2162   76.9541  223.7839 H   0  0  0  0  0  0  0  0  0  0  0  0
  135.4635   75.5860  221.3920 H   0  0  0  0  0  0  0  0  0  0  0  0
  138.2126   74.3791  221.5266 H   0  0  0  0  0  0  0  0  0  0  0  0
  141.7830   77.2840  222.1340 H   0  0  0  0  0  0  0  0  0  0  0  0
  140.8472   78.6866  224.4542 H   0  0  0  0  0  0  0  0  0  0  0  0
  139.8288   79.7830  221.9531 H   0  0  0  0  0  0  0  0  0  0  0  0
  139.5079   80.3465  223.6039 H   0  0  0  0  0  0  0  0  0  0  0  0
  140.9197   81.8301  221.8012 H   0  0  0  0  0  0  0  0  0  0  0  0
  141.2727   81.9256  223.5237 H   0  0  0  0  0  0  0  0  0  0  0  0
  142.6472   80.2412  221.3660 H   0  0  0  0  0  0  0  0  0  0  0  0
  143.4248   81.2800  222.5351 H   0  0  0  0  0  0  0  0  0  0  0  0
  143.2422   78.6354  223.0267 H   0  0  0  0  0  0  0  0  0  0  0  0
  142.9369   79.7387  224.3744 H   0  0  0  0  0  0  0  0  0  0  0  0
  136.5165   77.8127  223.4490 H   0  0  0  0  0  0  0  0  0  0  0  0
  138.3887   68.0107  223.2839 H   0  0  0  0  0  0  0  0  0  0  0  0
  139.2176   66.8163  225.2820 H   0  0  0  0  0  0  0  0  0  0  0  0
  140.2639   66.8853  227.4195 H   0  0  0  0  0  0  0  0  0  0  0  0
  141.5091   70.6777  229.0710 H   0  0  0  0  0  0  0  0  0  0  0  0
  140.6526   71.7975  227.0429 H   0  0  0  0  0  0  0  0  0  0  0  0
  1  2  2  0
  2  3  1  0
  3  4  1  0
  4  5  1  0
  5  6  2  0
  5  7  1  0
  7  8  1  0
  8  9  1  0
  9 10  1  0
 10 11  1  0
 11 12  1  0
 12 13  2  0
 13 14  1  0
 14 15  2  0
 15 16  1  0
 16 17  1  0
 17 18  1  0
 18 19  1  0
 19 20  1  0
 20 21  1  0
 15 22  1  0
 22 23  2  0
  2 24  1  0
 24 25  2  0
 25 26  1  0
 26 27  2  0
 27 28  1  0
 28 29  2  0
 29 30  1  0
 29 31  1  0
 31 32  2  0
 32 33  1  0
 33 34  2  0
 11  7  1  0
 23 12  1  0
 34 24  1  0
 21 17  1  0
 33 27  1  0
  3 35  1  0
  4 36  1  0
  4 37  1  0
  8 38  1  0
  8 39  1  0
  9 40  1  0
  9 41  1  0
 10 42  1  0
 10 43  1  0
 11 44  1  6
 13 45  1  0
 16 46  1  0
 17 47  1  0
 18 48  1  0
 18 49  1  0
 19 50  1  0
 19 51  1  0
 20 52  1  0
 20 53  1  0
 21 54  1  0
 21 55  1  0
 23 56  1  0
 25 57  1  0
 26 58  1  0
 28 59  1  0
 31 60  1  0
 32 61  1  0
M  END
>  <smiles>  (11) 
O=C(NCC(=O)N1CCC[C@H]1c1cnc(NC2CCCC2)nc1)c1ccc2cc(F)ccc2n1

>  <score_type>  (11) 
oracle

>  <origin>  (11) 
autodockgpu

>  <m_score__min__energy>  (11) 
-9.4299999999999997

>  <m_primary>  (11) 
energy

>  <rmsd>  (11) 
4.415293667576591

>  <m_score__min__rmsd>  (11) 
4.415293667576591

>  <meeko>  (11) 
{"free_energy": -8.73, "intermolecular_energy": -10.82, "internal_energy": -1.41, "cluster_size": 13, "cluster_id": 3, "rank_in_cluster": 3}

>  <energy>  (11) 
-8.52

>  <cluster_rmsd>  (11) 
1.75

>  <cluster>  (11) 
2

$$$$

     RDKit          3D

 61 65  0  0  0  0  0  0  0  0999 V2000
  137.8750   70.5800  222.0630 O   0  0  0  0  0  0  0  0  0  0  0  0
  138.6130   71.1410  222.9370 C   0  0  0  0  0  0  0  0  0  0  0  0
  138.9400   72.4910  222.7160 N   0  0  0  0  0  0  0  0  0  0  0  0
  138.3940   73.1120  221.5010 C   0  0  0  0  0  0  0  0  0  0  0  0
  139.3470   74.1830  221.1090 C   0  0  0  0  0  0  0  0  0  0  0  0
  140.3020   74.5460  221.8710 O   0  0  0  0  0  0  0  0  0  0  0  0
  139.2570   74.8700  219.8680 N   0  0  0  0  0  0  0  0  0  0  0  0
  137.9960   75.0550  219.1670 C   0  0  0  0  0  0  0  0  0  0  0  0
  138.3350   75.6500  217.8340 C   0  0  0  0  0  0  0  0  0  0  0  0
  139.8420   75.5680  217.6840 C   0  0  0  0  0  0  0  0  0  0  0  0
  140.3360   75.4780  219.1130 C   0  0  1  0  0  0  0  0  0  0  0  0
  140.6990   76.8280  219.6180 C   0  0  0  0  0  0  0  0  0  0  0  0
  139.8580   77.5530  220.4360 C   0  0  0  0  0  0  0  0  0  0  0  0
  140.1860   78.7780  220.8940 N   0  0  0  0  0  0  0  0  0  0  0  0
  141.3660   79.3460  220.5640 C   0  0  0  0  0  0  0  0  0  0  0  0
  141.6800   80.6420  221.0660 N   0  0  0  0  0  0  0  0  0  0  0  0
  141.9450   80.7480  222.4860 C   0  0  0  0  0  0  0  0  0  0  0  0
  142.6380   79.5210  223.0250 C   0  0  0  0  0  0  0  0  0  0  0  0
  141.8010   79.0350  224.1750 C   0  0  0  0  0  0  0  0  0  0  0  0
  140.4120   79.5020  223.8550 C   0  0  0  0  0  0  0  0  0  0  0  0
  140.6610   80.8720  223.2560 C   0  0  0  0  0  0  0  0  0  0  0  0
  142.2030   78.6550  219.7650 N   0  0  0  0  0  0  0  0  0  0  0  0
  141.9100   77.4310  219.2880 C   0  0  0  0  0  0  0  0  0  0  0  0
  139.0810   70.3950  224.0980 C   0  0  0  0  0  0  0  0  0  0  0  0
  138.8510   69.0360  224.1620 C   0  0  0  0  0  0  0  0  0  0  0  0
  139.2650   68.2700  225.2260 C   0  0  0  0  0  0  0  0  0  0  0  0
  139.9330   68.8920  226.2600 C   0  0  0  0  0  0  0  0  0  0  0  0
  140.3550   68.1380  227.3360 C   0  0  0  0  0  0  0  0  0  0  0  0
  141.0250   68.7500  228.3780 C   0  0  0  0  0  0  0  0  0  0  0  0
  141.4320   68.0030  229.4230 F   0  0  0  0  0  0  0  0  0  0  0  0
  141.2690   70.1250  228.3320 C   0  0  0  0  0  0  0  0  0  0  0  0
  140.8260   70.8370  227.2330 C   0  0  0  0  0  0  0  0  0  0  0  0
  140.1550   70.2520  226.1780 C   0  0  0  0  0  0  0  0  0  0  0  0
  139.7420   70.9960  225.1250 N   0  0  0  0  0  0  0  0  0  0  0  0
  139.5350   72.9980  223.3880 H   0  0  0  0  0  0  0  0  0  0  0  0
  138.3101   72.3654  220.6976 H   0  0  0  0  0  0  0  0  0  0  0  0
  137.3887   73.5207  221.6808 H   0  0  0  0  0  0  0  0  0  0  0  0
  137.4895   74.0877  219.0339 H   0  0  0  0  0  0  0  0  0  0  0  0
  137.3172   75.7090  219.7341 H   0  0  0  0  0  0  0  0  0  0  0  0
  137.8436   75.0819  217.0304 H   0  0  0  0  0  0  0  0  0  0  0  0
  137.9895   76.6923  217.7693 H   0  0  0  0  0  0  0  0  0  0  0  0
  140.1319   74.6750  217.1109 H   0  0  0  0  0  0  0  0  0  0  0  0
  140.2651   76.4240  217.1379 H   0  0  0  0  0  0  0  0  0  0  0  0
  141.2491   74.8715  219.2050 H   0  0  0  0  0  0  0  0  0  0  0  0
  138.8894   77.1183  220.7238 H   0  0  0  0  0  0  0  0  0  0  0  0
  141.7110   81.4550  220.4130 H   0  0  0  0  0  0  0  0  0  0  0  0
  142.5834   81.6354  222.6081 H   0  0  0  0  0  0  0  0  0  0  0  0
  142.7019   78.7466  222.2464 H   0  0  0  0  0  0  0  0  0  0  0  0
  143.6647   79.7504  223.3465 H   0  0  0  0  0  0  0  0  0  0  0  0
  141.8356   77.9377  224.2442 H   0  0  0  0  0  0  0  0  0  0  0  0
  142.1578   79.4184  225.1423 H   0  0  0  0  0  0  0  0  0  0  0  0
  139.9240   78.8333  223.1306 H   0  0  0  0  0  0  0  0  0  0  0  0
  139.7412   79.5180  224.7267 H   0  0  0  0  0  0  0  0  0  0  0  0
  139.8362   81.1534  222.5848 H   0  0  0  0  0  0  0  0  0  0  0  0
  140.7242   81.6501  224.0310 H   0  0  0  0  0  0  0  0  0  0  0  0
  142.6266   76.9075  218.6380 H   0  0  0  0  0  0  0  0  0  0  0  0
  138.3177   68.5484  223.3327 H   0  0  0  0  0  0  0  0  0  0  0  0
  139.0684   67.1880  225.2520 H   0  0  0  0  0  0  0  0  0  0  0  0
  140.1591   67.0559  227.3640 H   0  0  0  0  0  0  0  0  0  0  0  0
  141.8015   70.6295  229.1517 H   0  0  0  0  0  0  0  0  0  0  0  0
  141.0170   71.9197  227.1976 H   0  0  0  0  0  0  0  0  0  0  0  0
  1  2  2  0
  2  3  1  0
  3  4  1  0
  4  5  1  0
  5  6  2  0
  5  7  1  0
  7  8  1  0
  8  9  1  0
  9 10  1  0
 10 11  1  0
 11 12  1  0
 12 13  2  0
 13 14  1  0
 14 15  2  0
 15 16  1  0
 16 17  1  0
 17 18  1  0
 18 19  1  0
 19 20  1  0
 20 21  1  0
 15 22  1  0
 22 23  2  0
  2 24  1  0
 24 25  2  0
 25 26  1  0
 26 27  2  0
 27 28  1  0
 28 29  2  0
 29 30  1  0
 29 31  1  0
 31 32  2  0
 32 33  1  0
 33 34  2  0
 11  7  1  0
 23 12  1  0
 34 24  1  0
 21 17  1  0
 33 27  1  0
  3 35  1  0
  4 36  1  0
  4 37  1  0
  8 38  1  0
  8 39  1  0
  9 40  1  0
  9 41  1  0
 10 42  1  0
 10 43  1  0
 11 44  1  6
 13 45  1  0
 16 46  1  0
 17 47  1  0
 18 48  1  0
 18 49  1  0
 19 50  1  0
 19 51  1  0
 20 52  1  0
 20 53  1  0
 21 54  1  0
 21 55  1  0
 23 56  1  0
 25 57  1  0
 26 58  1  0
 28 59  1  0
 31 60  1  0
 32 61  1  0
M  END
>  <smiles>  (12) 
O=C(NCC(=O)N1CCC[C@H]1c1cnc(NC2CCCC2)nc1)c1ccc2cc(F)ccc2n1

>  <score_type>  (12) 
oracle

>  <origin>  (12) 
autodockgpu

>  <m_score__min__energy>  (12) 
-9.4299999999999997

>  <m_primary>  (12) 
energy

>  <rmsd>  (12) 
1.3347969589818671

>  <m_score__min__rmsd>  (12) 
1.3347969589818671

>  <meeko>  (12) 
{"free_energy": -7.86, "intermolecular_energy": -9.95, "internal_energy": -2.17, "cluster_size": 1, "cluster_id": 9, "rank_in_cluster": 1}

>  <energy>  (12) 
-8.5

>  <cluster_rmsd>  (12) 
1.23

>  <cluster>  (12) 
2

$$$$

     RDKit          3D

 61 65  0  0  0  0  0  0  0  0999 V2000
  140.2020   72.8240  222.3840 O   0  0  0  0  0  0  0  0  0  0  0  0
  139.4340   71.9530  222.9080 C   0  0  0  0  0  0  0  0  0  0  0  0
  138.2300   71.6840  222.2340 N   0  0  0  0  0  0  0  0  0  0  0  0
  137.9840   72.4360  220.9950 C   0  0  0  0  0  0  0  0  0  0  0  0
  136.5990   72.9650  221.0880 C   0  0  0  0  0  0  0  0  0  0  0  0
  135.6540   72.5070  220.3660 O   0  0  0  0  0  0  0  0  0  0  0  0
  136.2370   74.0090  221.9830 N   0  0  0  0  0  0  0  0  0  0  0  0
  135.8120   73.7530  223.3500 C   0  0  0  0  0  0  0  0  0  0  0  0
  135.3480   75.0670  223.9030 C   0  0  0  0  0  0  0  0  0  0  0  0
  135.2780   76.0360  222.7380 C   0  0  0  0  0  0  0  0  0  0  0  0
  136.2250   75.4350  221.7190 C   0  0  1  0  0  0  0  0  0  0  0  0
  137.5710   76.0530  221.8420 C   0  0  0  0  0  0  0  0  0  0  0  0
  138.6400   75.3730  222.3870 C   0  0  0  0  0  0  0  0  0  0  0  0
  139.8620   75.9320  222.4990 N   0  0  0  0  0  0  0  0  0  0  0  0
  140.0850   77.1950  222.0750 C   0  0  0  0  0  0  0  0  0  0  0  0
  141.3890   77.7550  222.2090 N   0  0  0  0  0  0  0  0  0  0  0  0
  141.6010   78.6650  223.3160 C   0  0  0  0  0  0  0  0  0  0  0  0
  140.3870   79.5180  223.5860 C   0  0  0  0  0  0  0  0  0  0  0  0
  140.8580   80.9460  223.5520 C   0  0  0  0  0  0  0  0  0  0  0  0
  142.0490   80.9270  222.6400 C   0  0  0  0  0  0  0  0  0  0  0  0
  142.7200   79.6190  223.0100 C   0  0  0  0  0  0  0  0  0  0  0  0
  139.0540   77.8780  221.5400 N   0  0  0  0  0  0  0  0  0  0  0  0
  137.8210   77.3530  221.4110 C   0  0  0  0  0  0  0  0  0  0  0  0
  139.8110   71.2830  224.1480 C   0  0  0  0  0  0  0  0  0  0  0  0
  140.7060   71.8990  224.9980 C   0  0  0  0  0  0  0  0  0  0  0  0
  141.1060   71.3270  226.1830 C   0  0  0  0  0  0  0  0  0  0  0  0
  140.5880   70.0940  226.5220 C   0  0  0  0  0  0  0  0  0  0  0  0
  140.9790   69.5060  227.7080 C   0  0  0  0  0  0  0  0  0  0  0  0
  140.4670   68.2710  228.0590 C   0  0  0  0  0  0  0  0  0  0  0  0
  140.8560   67.7060  229.2180 F   0  0  0  0  0  0  0  0  0  0  0  0
  139.5590   67.6320  227.2110 C   0  0  0  0  0  0  0  0  0  0  0  0
  139.1980   68.2620  226.0340 C   0  0  0  0  0  0  0  0  0  0  0  0
  139.6930   69.4940  225.6590 C   0  0  0  0  0  0  0  0  0  0  0  0
  139.3070   70.0680  224.4940 N   0  0  0  0  0  0  0  0  0  0  0  0
  137.5670   70.9900  222.6110 H   0  0  0  0  0  0  0  0  0  0  0  0
  138.7017   73.2648  220.9051 H   0  0  0  0  0  0  0  0  0  0  0  0
  138.1049   71.7937  220.1102 H   0  0  0  0  0  0  0  0  0  0  0  0
  134.9889   73.0234  223.3620 H   0  0  0  0  0  0  0  0  0  0  0  0
  136.6332   73.3355  223.9510 H   0  0  0  0  0  0  0  0  0  0  0  0
  134.3545   74.9546  224.3616 H   0  0  0  0  0  0  0  0  0  0  0  0
  136.0371   75.4330  224.6783 H   0  0  0  0  0  0  0  0  0  0  0  0
  134.2554   76.0953  222.3371 H   0  0  0  0  0  0  0  0  0  0  0  0
  135.5489   77.0642  223.0197 H   0  0  0  0  0  0  0  0  0  0  0  0
  135.9057   75.6237  220.6834 H   0  0  0  0  0  0  0  0  0  0  0  0
  138.4911   74.3424  222.7414 H   0  0  0  0  0  0  0  0  0  0  0  0
  142.1320   77.4990  221.5240 H   0  0  0  0  0  0  0  0  0  0  0  0
  141.8288   78.0329  224.1869 H   0  0  0  0  0  0  0  0  0  0  0  0
  139.6238   79.3502  222.8118 H   0  0  0  0  0  0  0  0  0  0  0  0
  139.9322   79.2702  224.5564 H   0  0  0  0  0  0  0  0  0  0  0  0
  140.0730   81.6050  223.1527 H   0  0  0  0  0  0  0  0  0  0  0  0
  141.1039   81.3293  224.5533 H   0  0  0  0  0  0  0  0  0  0  0  0
  141.7418   80.9321  221.5838 H   0  0  0  0  0  0  0  0  0  0  0  0
  142.7031   81.8042  222.7522 H   0  0  0  0  0  0  0  0  0  0  0  0
  143.3240   79.2459  222.1698 H   0  0  0  0  0  0  0  0  0  0  0  0
  143.4000   79.7377  223.8664 H   0  0  0  0  0  0  0  0  0  0  0  0
  137.0120   77.9505  220.9655 H   0  0  0  0  0  0  0  0  0  0  0  0
  141.1138   72.8816  224.7183 H   0  0  0  0  0  0  0  0  0  0  0  0
  141.8207   71.8395  226.8437 H   0  0  0  0  0  0  0  0  0  0  0  0
  141.6937   70.0171  228.3698 H   0  0  0  0  0  0  0  0  0  0  0  0
  139.1404   66.6493  227.4738 H   0  0  0  0  0  0  0  0  0  0  0  0
  138.4837   67.7579  225.3664 H   0  0  0  0  0  0  0  0  0  0  0  0
  1  2  2  0
  2  3  1  0
  3  4  1  0
  4  5  1  0
  5  6  2  0
  5  7  1  0
  7  8  1  0
  8  9  1  0
  9 10  1  0
 10 11  1  0
 11 12  1  0
 12 13  2  0
 13 14  1  0
 14 15  2  0
 15 16  1  0
 16 17  1  0
 17 18  1  0
 18 19  1  0
 19 20  1  0
 20 21  1  0
 15 22  1  0
 22 23  2  0
  2 24  1  0
 24 25  2  0
 25 26  1  0
 26 27  2  0
 27 28  1  0
 28 29  2  0
 29 30  1  0
 29 31  1  0
 31 32  2  0
 32 33  1  0
 33 34  2  0
 11  7  1  0
 23 12  1  0
 34 24  1  0
 21 17  1  0
 33 27  1  0
  3 35  1  0
  4 36  1  0
  4 37  1  0
  8 38  1  0
  8 39  1  0
  9 40  1  0
  9 41  1  0
 10 42  1  0
 10 43  1  0
 11 44  1  6
 13 45  1  0
 16 46  1  0
 17 47  1  0
 18 48  1  0
 18 49  1  0
 19 50  1  0
 19 51  1  0
 20 52  1  0
 20 53  1  0
 21 54  1  0
 21 55  1  0
 23 56  1  0
 25 57  1  0
 26 58  1  0
 28 59  1  0
 31 60  1  0
 32 61  1  0
M  END
>  <smiles>  (13) 
O=C(NCC(=O)N1CCC[C@H]1c1cnc(NC2CCCC2)nc1)c1ccc2cc(F)ccc2n1

>  <score_type>  (13) 
oracle

>  <origin>  (13) 
autodockgpu

>  <m_score__min__energy>  (13) 
-9.4299999999999997

>  <m_primary>  (13) 
energy

>  <rmsd>  (13) 
4.608674411627904

>  <m_score__min__rmsd>  (13) 
4.608674411627904

>  <meeko>  (13) 
{"free_energy": -8.62, "intermolecular_energy": -10.7, "internal_energy": -1.86, "cluster_size": 13, "cluster_id": 3, "rank_in_cluster": 5}

>  <energy>  (13) 
-8.49

>  <cluster_rmsd>  (13) 
1.41

>  <cluster>  (13) 
2

$$$$

     RDKit          3D

 61 65  0  0  0  0  0  0  0  0999 V2000
  141.2210   72.8200  222.0420 O   0  0  0  0  0  0  0  0  0  0  0  0
  140.1420   72.6410  222.6950 C   0  0  0  0  0  0  0  0  0  0  0  0
  139.0380   73.4250  222.3180 N   0  0  0  0  0  0  0  0  0  0  0  0
  139.2450   74.3690  221.2100 C   0  0  0  0  0  0  0  0  0  0  0  0
  139.1170   75.7330  221.7860 C   0  0  0  0  0  0  0  0  0  0  0  0
  138.1060   76.0770  222.4810 O   0  0  0  0  0  0  0  0  0  0  0  0
  140.1070   76.7360  221.6030 N   0  0  0  0  0  0  0  0  0  0  0  0
  140.7210   77.4400  222.7170 C   0  0  0  0  0  0  0  0  0  0  0  0
  141.5610   78.5290  222.1200 C   0  0  0  0  0  0  0  0  0  0  0  0
  141.2160   78.5940  220.6440 C   0  0  0  0  0  0  0  0  0  0  0  0
  140.6570   77.2170  220.3500 C   0  0  1  0  0  0  0  0  0  0  0  0
  141.7250   76.3330  219.8160 C   0  0  0  0  0  0  0  0  0  0  0  0
  142.3380   75.3730  220.5950 C   0  0  0  0  0  0  0  0  0  0  0  0
  143.3070   74.5710  220.1120 N   0  0  0  0  0  0  0  0  0  0  0  0
  143.7180   74.6790  218.8300 C   0  0  0  0  0  0  0  0  0  0  0  0
  144.7460   73.8140  218.3520 N   0  0  0  0  0  0  0  0  0  0  0  0
  144.5450   72.3920  218.5410 C   0  0  0  0  0  0  0  0  0  0  0  0
  143.0820   72.0260  218.5640 C   0  0  0  0  0  0  0  0  0  0  0  0
  142.8560   71.2700  219.8450 C   0  0  0  0  0  0  0  0  0  0  0  0
  143.9090   71.7900  220.7790 C   0  0  0  0  0  0  0  0  0  0  0  0
  145.1060   71.9490  219.8620 C   0  0  0  0  0  0  0  0  0  0  0  0
  143.1330   75.6100  218.0500 N   0  0  0  0  0  0  0  0  0  0  0  0
  142.1630   76.4280  218.4980 C   0  0  0  0  0  0  0  0  0  0  0  0
  140.0840   71.6630  223.7750 C   0  0  0  0  0  0  0  0  0  0  0  0
  139.4470   70.4580  223.5570 C   0  0  0  0  0  0  0  0  0  0  0  0
  139.3540   69.4900  224.5290 C   0  0  0  0  0  0  0  0  0  0  0  0
  139.9220   69.7430  225.7610 C   0  0  0  0  0  0  0  0  0  0  0  0
  139.8380   68.7820  226.7480 C   0  0  0  0  0  0  0  0  0  0  0  0
  140.4030   69.0230  227.9860 C   0  0  0  0  0  0  0  0  0  0  0  0
  140.3150   68.0790  228.9420 F   0  0  0  0  0  0  0  0  0  0  0  0
  141.0530   70.2370  228.2250 C   0  0  0  0  0  0  0  0  0  0  0  0
  141.1110   71.1680  227.2040 C   0  0  0  0  0  0  0  0  0  0  0  0
  140.5560   70.9530  225.9590 C   0  0  0  0  0  0  0  0  0  0  0  0
  140.6400   71.8990  224.9930 N   0  0  0  0  0  0  0  0  0  0  0  0
  138.1370   73.3250  222.8100 H   0  0  0  0  0  0  0  0  0  0  0  0
  140.2468   74.2322  220.7768 H   0  0  0  0  0  0  0  0  0  0  0  0
  138.5106   74.2064  220.4074 H   0  0  0  0  0  0  0  0  0  0  0  0
  139.9461   77.8711  223.3678 H   0  0  0  0  0  0  0  0  0  0  0  0
  141.3289   76.7597  223.3315 H   0  0  0  0  0  0  0  0  0  0  0  0
  141.3338   79.4902  222.6041 H   0  0  0  0  0  0  0  0  0  0  0  0
  142.6320   78.3239  222.2650 H   0  0  0  0  0  0  0  0  0  0  0  0
  140.4641   79.3731  220.4500 H   0  0  0  0  0  0  0  0  0  0  0  0
  142.0802   78.8490  220.0130 H   0  0  0  0  0  0  0  0  0  0  0  0
  139.8737   77.2366  219.5780 H   0  0  0  0  0  0  0  0  0  0  0  0
  142.0256   75.2589  221.6435 H   0  0  0  0  0  0  0  0  0  0  0  0
  145.5890   74.2200  217.8920 H   0  0  0  0  0  0  0  0  0  0  0  0
  145.0508   71.9012  217.6964 H   0  0  0  0  0  0  0  0  0  0  0  0
  142.4618   72.9342  218.5432 H   0  0  0  0  0  0  0  0  0  0  0  0
  142.8077   71.4196  217.6882 H   0  0  0  0  0  0  0  0  0  0  0  0
  141.8502   71.4706  220.2426 H   0  0  0  0  0  0  0  0  0  0  0  0
  142.9219   70.1809  219.7051 H   0  0  0  0  0  0  0  0  0  0  0  0
  143.6119   72.7544  221.2167 H   0  0  0  0  0  0  0  0  0  0  0  0
  144.0982   71.1312  221.6393 H   0  0  0  0  0  0  0  0  0  0  0  0
  145.7967   72.7071  220.2598 H   0  0  0  0  0  0  0  0  0  0  0  0
  145.6758   71.0126  219.7695 H   0  0  0  0  0  0  0  0  0  0  0  0
  141.7159   77.1721  217.8224 H   0  0  0  0  0  0  0  0  0  0  0  0
  138.9982   70.2655  222.5714 H   0  0  0  0  0  0  0  0  0  0  0  0
  138.8399   68.5381  224.3297 H   0  0  0  0  0  0  0  0  0  0  0  0
  139.3242   67.8296  226.5504 H   0  0  0  0  0  0  0  0  0  0  0  0
  141.5085   70.4474  229.2039 H   0  0  0  0  0  0  0  0  0  0  0  0
  141.6227   72.1232  227.3929 H   0  0  0  0  0  0  0  0  0  0  0  0
  1  2  2  0
  2  3  1  0
  3  4  1  0
  4  5  1  0
  5  6  2  0
  5  7  1  0
  7  8  1  0
  8  9  1  0
  9 10  1  0
 10 11  1  0
 11 12  1  0
 12 13  2  0
 13 14  1  0
 14 15  2  0
 15 16  1  0
 16 17  1  0
 17 18  1  0
 18 19  1  0
 19 20  1  0
 20 21  1  0
 15 22  1  0
 22 23  2  0
  2 24  1  0
 24 25  2  0
 25 26  1  0
 26 27  2  0
 27 28  1  0
 28 29  2  0
 29 30  1  0
 29 31  1  0
 31 32  2  0
 32 33  1  0
 33 34  2  0
 11  7  1  0
 23 12  1  0
 34 24  1  0
 21 17  1  0
 33 27  1  0
  3 35  1  0
  4 36  1  0
  4 37  1  0
  8 38  1  0
  8 39  1  0
  9 40  1  0
  9 41  1  0
 10 42  1  0
 10 43  1  0
 11 44  1  6
 13 45  1  0
 16 46  1  0
 17 47  1  0
 18 48  1  0
 18 49  1  0
 19 50  1  0
 19 51  1  0
 20 52  1  0
 20 53  1  0
 21 54  1  0
 21 55  1  0
 23 56  1  0
 25 57  1  0
 26 58  1  0
 28 59  1  0
 31 60  1  0
 32 61  1  0
M  END
>  <smiles>  (14) 
O=C(NCC(=O)N1CCC[C@H]1c1cnc(NC2CCCC2)nc1)c1ccc2cc(F)ccc2n1

>  <score_type>  (14) 
oracle

>  <origin>  (14) 
autodockgpu

>  <m_score__min__energy>  (14) 
-9.4299999999999997

>  <m_primary>  (14) 
energy

>  <rmsd>  (14) 
2.648561942963111

>  <m_score__min__rmsd>  (14) 
2.648561942963111

>  <meeko>  (14) 
{"free_energy": -8.38, "intermolecular_energy": -10.47, "internal_energy": -2.1, "cluster_size": 7, "cluster_id": 4, "rank_in_cluster": 4}

>  <energy>  (14) 
-8.45

>  <cluster_rmsd>  (14) 
1.09

>  <cluster>  (14) 
2

$$$$

     RDKit          3D

 61 65  0  0  0  0  0  0  0  0999 V2000
  140.7780   73.3590  222.7080 O   0  0  0  0  0  0  0  0  0  0  0  0
  140.0650   72.3040  222.6610 C   0  0  0  0  0  0  0  0  0  0  0  0
  139.3270   72.0920  221.4830 N   0  0  0  0  0  0  0  0  0  0  0  0
  139.4570   73.1080  220.4290 C   0  0  0  0  0  0  0  0  0  0  0  0
  140.6140   72.7020  219.5910 C   0  0  0  0  0  0  0  0  0  0  0  0
  140.5930   71.6430  218.8810 O   0  0  0  0  0  0  0  0  0  0  0  0
  141.8140   73.4620  219.5230 N   0  0  0  0  0  0  0  0  0  0  0  0
  142.6240   73.5360  218.3180 C   0  0  0  0  0  0  0  0  0  0  0  0
  143.8780   74.2670  218.6950 C   0  0  0  0  0  0  0  0  0  0  0  0
  143.8810   74.3880  220.2070 C   0  0  0  0  0  0  0  0  0  0  0  0
  142.4180   74.2550  220.5770 C   0  0  1  0  0  0  0  0  0  0  0  0
  141.7970   75.5990  220.7090 C   0  0  0  0  0  0  0  0  0  0  0  0
  140.9660   75.9200  221.7620 C   0  0  0  0  0  0  0  0  0  0  0  0
  140.4030   77.1390  221.8840 N   0  0  0  0  0  0  0  0  0  0  0  0
  140.6350   78.1020  220.9660 C   0  0  0  0  0  0  0  0  0  0  0  0
  140.0230   79.3790  221.1250 N   0  0  0  0  0  0  0  0  0  0  0  0
  140.6760   80.3120  222.0190 C   0  0  0  0  0  0  0  0  0  0  0  0
  142.1630   80.3800  221.7770 C   0  0  0  0  0  0  0  0  0  0  0  0
  142.8210   80.1080  223.1010 C   0  0  0  0  0  0  0  0  0  0  0  0
  141.8320   79.2590  223.8450 C   0  0  0  0  0  0  0  0  0  0  0  0
  140.5080   79.8820  223.4490 C   0  0  0  0  0  0  0  0  0  0  0  0
  141.4440   77.8100  219.9280 N   0  0  0  0  0  0  0  0  0  0  0  0
  142.0240   76.6050  219.7740 C   0  0  0  0  0  0  0  0  0  0  0  0
  140.0340   71.3810  223.7900 C   0  0  0  0  0  0  0  0  0  0  0  0
  139.4400   70.1460  223.6310 C   0  0  0  0  0  0  0  0  0  0  0  0
  139.3750   69.2260  224.6510 C   0  0  0  0  0  0  0  0  0  0  0  0
  139.9260   69.5610  225.8710 C   0  0  0  0  0  0  0  0  0  0  0  0
  139.8700   68.6490  226.9060 C   0  0  0  0  0  0  0  0  0  0  0  0
  140.4190   68.9720  228.1310 C   0  0  0  0  0  0  0  0  0  0  0  0
  140.3580   68.0750  229.1340 F   0  0  0  0  0  0  0  0  0  0  0  0
  141.0260   70.2180  228.3110 C   0  0  0  0  0  0  0  0  0  0  0  0
  141.0580   71.0970  227.2440 C   0  0  0  0  0  0  0  0  0  0  0  0
  140.5180   70.8010  226.0100 C   0  0  0  0  0  0  0  0  0  0  0  0
  140.5750   71.6980  224.9970 N   0  0  0  0  0  0  0  0  0  0  0  0
  138.7300   71.2550  221.3880 H   0  0  0  0  0  0  0  0  0  0  0  0
  138.5412   73.1435  219.8206 H   0  0  0  0  0  0  0  0  0  0  0  0
  139.6094   74.1091  220.8587 H   0  0  0  0  0  0  0  0  0  0  0  0
  142.8663   72.5246  217.9598 H   0  0  0  0  0  0  0  0  0  0  0  0
  142.0885   74.0540  217.5087 H   0  0  0  0  0  0  0  0  0  0  0  0
  144.7603   73.7024  218.3591 H   0  0  0  0  0  0  0  0  0  0  0  0
  143.9126   75.2590  218.2210 H   0  0  0  0  0  0  0  0  0  0  0  0
  144.4766   73.5842  220.6643 H   0  0  0  0  0  0  0  0  0  0  0  0
  144.3276   75.3292  220.5599 H   0  0  0  0  0  0  0  0  0  0  0  0
  142.2728   73.7635  221.5503 H   0  0  0  0  0  0  0  0  0  0  0  0
  140.7560   75.1574  222.5264 H   0  0  0  0  0  0  0  0  0  0  0  0
  139.1450   79.5980  220.6060 H   0  0  0  0  0  0  0  0  0  0  0  0
  140.2089   81.2893  221.8273 H   0  0  0  0  0  0  0  0  0  0  0  0
  142.4636   79.6211  221.0397 H   0  0  0  0  0  0  0  0  0  0  0  0
  142.4579   81.3622  221.3793 H   0  0  0  0  0  0  0  0  0  0  0  0
  143.7689   79.5679  222.9604 H   0  0  0  0  0  0  0  0  0  0  0  0
  143.0691   81.0328  223.6425 H   0  0  0  0  0  0  0  0  0  0  0  0
  141.8891   78.2081  223.5251 H   0  0  0  0  0  0  0  0  0  0  0  0
  142.0005   79.2369  224.9318 H   0  0  0  0  0  0  0  0  0  0  0  0
  139.6957   79.1453  223.5357 H   0  0  0  0  0  0  0  0  0  0  0  0
  140.2451   80.7284  224.1006 H   0  0  0  0  0  0  0  0  0  0  0  0
  142.6772   76.4153  218.9095 H   0  0  0  0  0  0  0  0  0  0  0  0
  139.0034   69.8884  222.6548 H   0  0  0  0  0  0  0  0  0  0  0  0
  138.8959   68.2477  224.4983 H   0  0  0  0  0  0  0  0  0  0  0  0
  139.3906   67.6704  226.7555 H   0  0  0  0  0  0  0  0  0  0  0  0
  141.4684   70.4933  229.2798 H   0  0  0  0  0  0  0  0  0  0  0  0
  141.5361   72.0774  227.3860 H   0  0  0  0  0  0  0  0  0  0  0  0
  1  2  2  0
  2  3  1  0
  3  4  1  0
  4  5  1  0
  5  6  2  0
  5  7  1  0
  7  8  1  0
  8  9  1  0
  9 10  1  0
 10 11  1  0
 11 12  1  0
 12 13  2  0
 13 14  1  0
 14 15  2  0
 15 16  1  0
 16 17  1  0
 17 18  1  0
 18 19  1  0
 19 20  1  0
 20 21  1  0
 15 22  1  0
 22 23  2  0
  2 24  1  0
 24 25  2  0
 25 26  1  0
 26 27  2  0
 27 28  1  0
 28 29  2  0
 29 30  1  0
 29 31  1  0
 31 32  2  0
 32 33  1  0
 33 34  2  0
 11  7  1  0
 23 12  1  0
 34 24  1  0
 21 17  1  0
 33 27  1  0
  3 35  1  0
  4 36  1  0
  4 37  1  0
  8 38  1  0
  8 39  1  0
  9 40  1  0
  9 41  1  0
 10 42  1  0
 10 43  1  0
 11 44  1  1
 13 45  1  0
 16 46  1  0
 17 47  1  0
 18 48  1  0
 18 49  1  0
 19 50  1  0
 19 51  1  0
 20 52  1  0
 20 53  1  0
 21 54  1  0
 21 55  1  0
 23 56  1  0
 25 57  1  0
 26 58  1  0
 28 59  1  0
 31 60  1  0
 32 61  1  0
M  END
>  <smiles>  (15) 
O=C(NCC(=O)N1CCC[C@H]1c1cnc(NC2CCCC2)nc1)c1ccc2cc(F)ccc2n1

>  <score_type>  (15) 
oracle

>  <origin>  (15) 
autodockgpu

>  <m_score__min__energy>  (15) 
-9.4299999999999997

>  <m_primary>  (15) 
energy

>  <rmsd>  (15) 
2.705806894747716

>  <m_score__min__rmsd>  (15) 
2.705806894747716

>  <meeko>  (15) 
{"free_energy": -8.45, "intermolecular_energy": -10.54, "internal_energy": -1.72, "cluster_size": 10, "cluster_id": 2, "rank_in_cluster": 6}

>  <energy>  (15) 
-8.19

>  <cluster_rmsd>  (15) 
1.49

>  <cluster>  (15) 
2

$$$$

     RDKit          3D

 61 65  0  0  0  0  0  0  0  0999 V2000
  140.3870   72.3600  222.0900 O   0  0  0  0  0  0  0  0  0  0  0  0
  139.4210   72.1110  222.8820 C   0  0  0  0  0  0  0  0  0  0  0  0
  138.2100   72.7820  222.6320 N   0  0  0  0  0  0  0  0  0  0  0  0
  138.1870   73.6980  221.4830 C   0  0  0  0  0  0  0  0  0  0  0  0
  138.4270   75.0610  222.0230 C   0  0  0  0  0  0  0  0  0  0  0  0
  139.5920   75.4600  222.3490 O   0  0  0  0  0  0  0  0  0  0  0  0
  137.3800   76.0040  222.2110 N   0  0  0  0  0  0  0  0  0  0  0  0
  136.4760   75.9510  223.3490 C   0  0  0  0  0  0  0  0  0  0  0  0
  135.4160   76.9820  223.0970 C   0  0  0  0  0  0  0  0  0  0  0  0
  135.5900   77.4520  221.6650 C   0  0  0  0  0  0  0  0  0  0  0  0
  137.0370   77.1260  221.3570 C   0  0  1  0  0  0  0  0  0  0  0  0
  137.8950   78.3150  221.6000 C   0  0  0  0  0  0  0  0  0  0  0  0
  138.3300   79.1250  220.5710 C   0  0  0  0  0  0  0  0  0  0  0  0
  139.1080   80.2030  220.7900 N   0  0  0  0  0  0  0  0  0  0  0  0
  139.4950   80.5340  222.0410 C   0  0  0  0  0  0  0  0  0  0  0  0
  140.3180   81.6810  222.2360 N   0  0  0  0  0  0  0  0  0  0  0  0
  141.7360   81.4470  222.4110 C   0  0  0  0  0  0  0  0  0  0  0  0
  142.2090   80.2370  221.6440 C   0  0  0  0  0  0  0  0  0  0  0  0
  142.8990   79.3480  222.6420 C   0  0  0  0  0  0  0  0  0  0  0  0
  142.2460   79.6750  223.9520 C   0  0  0  0  0  0  0  0  0  0  0  0
  142.0550   81.1750  223.8540 C   0  0  0  0  0  0  0  0  0  0  0  0
  139.0820   79.7560  223.0620 N   0  0  0  0  0  0  0  0  0  0  0  0
  138.3050   78.6720  222.8810 C   0  0  0  0  0  0  0  0  0  0  0  0
  139.5910   71.1740  223.9850 C   0  0  0  0  0  0  0  0  0  0  0  0
  139.0270   69.9180  223.8930 C   0  0  0  0  0  0  0  0  0  0  0  0
  139.1470   68.9830  224.8940 C   0  0  0  0  0  0  0  0  0  0  0  0
  139.8590   69.3240  226.0260 C   0  0  0  0  0  0  0  0  0  0  0  0
  139.9890   68.3970  227.0400 C   0  0  0  0  0  0  0  0  0  0  0  0
  140.7000   68.7260  228.1780 C   0  0  0  0  0  0  0  0  0  0  0  0
  140.8200   67.8140  229.1620 F   0  0  0  0  0  0  0  0  0  0  0  0
  141.2800   69.9930  228.2910 C   0  0  0  0  0  0  0  0  0  0  0  0
  141.1210   70.8860  227.2470 C   0  0  0  0  0  0  0  0  0  0  0  0
  140.4170   70.5840  226.0990 C   0  0  0  0  0  0  0  0  0  0  0  0
  140.2910   71.4960  225.1060 N   0  0  0  0  0  0  0  0  0  0  0  0
  137.3930   72.6220  223.2410 H   0  0  0  0  0  0  0  0  0  0  0  0
  138.9773   73.4287  220.7669 H   0  0  0  0  0  0  0  0  0  0  0  0
  137.2250   73.6450  220.9521 H   0  0  0  0  0  0  0  0  0  0  0  0
  136.0232   74.9517  223.4288 H   0  0  0  0  0  0  0  0  0  0  0  0
  137.0088   76.1491  224.2907 H   0  0  0  0  0  0  0  0  0  0  0  0
  134.4181   76.5392  223.2312 H   0  0  0  0  0  0  0  0  0  0  0  0
  135.5085   77.8220  223.8011 H   0  0  0  0  0  0  0  0  0  0  0  0
  134.9127   76.9100  220.9886 H   0  0  0  0  0  0  0  0  0  0  0  0
  135.3545   78.5184  221.5333 H   0  0  0  0  0  0  0  0  0  0  0  0
  137.1934   76.8586  220.3015 H   0  0  0  0  0  0  0  0  0  0  0  0
  138.0324   78.8831  219.5400 H   0  0  0  0  0  0  0  0  0  0  0  0
  139.8860   82.6300  222.2460 H   0  0  0  0  0  0  0  0  0  0  0  0
  142.2375   82.3551  222.0450 H   0  0  0  0  0  0  0  0  0  0  0  0
  141.3530   79.7124  221.1944 H   0  0  0  0  0  0  0  0  0  0  0  0
  142.8872   80.5219  220.8262 H   0  0  0  0  0  0  0  0  0  0  0  0
  142.7497   78.2884  222.3871 H   0  0  0  0  0  0  0  0  0  0  0  0
  143.9866   79.5109  222.6650 H   0  0  0  0  0  0  0  0  0  0  0  0
  141.2813   79.1568  224.0562 H   0  0  0  0  0  0  0  0  0  0  0  0
  142.8350   79.3629  224.8270 H   0  0  0  0  0  0  0  0  0  0  0  0
  141.2250   81.4995  224.4988 H   0  0  0  0  0  0  0  0  0  0  0  0
  142.9505   81.7223  224.1836 H   0  0  0  0  0  0  0  0  0  0  0  0
  137.9939   78.0680  223.7461 H   0  0  0  0  0  0  0  0  0  0  0  0
  138.4614   69.6555  222.9868 H   0  0  0  0  0  0  0  0  0  0  0  0
  138.6873   67.9886  224.7951 H   0  0  0  0  0  0  0  0  0  0  0  0
  139.5294   67.4024  226.9428 H   0  0  0  0  0  0  0  0  0  0  0  0
  141.8496   70.2731  229.1894 H   0  0  0  0  0  0  0  0  0  0  0  0
  141.5768   71.8832  227.3357 H   0  0  0  0  0  0  0  0  0  0  0  0
  1  2  2  0
  2  3  1  0
  3  4  1  0
  4  5  1  0
  5  6  2  0
  5  7  1  0
  7  8  1  0
  8  9  1  0
  9 10  1  0
 10 11  1  0
 11 12  1  0
 12 13  2  0
 13 14  1  0
 14 15  2  0
 15 16  1  0
 16 17  1  0
 17 18  1  0
 18 19  1  0
 19 20  1  0
 20 21  1  0
 15 22  1  0
 22 23  2  0
  2 24  1  0
 24 25  2  0
 25 26  1  0
 26 27  2  0
 27 28  1  0
 28 29  2  0
 29 30  1  0
 29 31  1  0
 31 32  2  0
 32 33  1  0
 33 34  2  0
 11  7  1  0
 23 12  1  0
 34 24  1  0
 21 17  1  0
 33 27  1  0
  3 35  1  0
  4 36  1  0
  4 37  1  0
  8 38  1  0
  8 39  1  0
  9 40  1  0
  9 41  1  0
 10 42  1  0
 10 43  1  0
 11 44  1  6
 13 45  1  0
 16 46  1  0
 17 47  1  0
 18 48  1  0
 18 49  1  0
 19 50  1  0
 19 51  1  0
 20 52  1  0
 20 53  1  0
 21 54  1  0
 21 55  1  0
 23 56  1  0
 25 57  1  0
 26 58  1  0
 28 59  1  0
 31 60  1  0
 32 61  1  0
M  END
>  <smiles>  (16) 
O=C(NCC(=O)N1CCC[C@H]1c1cnc(NC2CCCC2)nc1)c1ccc2cc(F)ccc2n1

>  <score_type>  (16) 
oracle

>  <origin>  (16) 
autodockgpu

>  <m_score__min__energy>  (16) 
-9.4299999999999997

>  <m_primary>  (16) 
energy

>  <rmsd>  (16) 
3.456781593766666

>  <m_score__min__rmsd>  (16) 
3.456781593766666

>  <meeko>  (16) 
{"free_energy": -8.07, "intermolecular_energy": -10.16, "internal_energy": -1.59, "cluster_size": 3, "cluster_id": 7, "rank_in_cluster": 3}

>  <energy>  (16) 
-8.1

>  <cluster_rmsd>  (16) 
1.63

>  <cluster>  (16) 
2

$$$$

     RDKit          3D

 61 65  0  0  0  0  0  0  0  0999 V2000
  140.3540   72.7910  222.3770 O   0  0  0  0  0  0  0  0  0  0  0  0
  139.6860   71.7850  222.7830 C   0  0  0  0  0  0  0  0  0  0  0  0
  138.6840   71.3030  221.9230 N   0  0  0  0  0  0  0  0  0  0  0  0
  138.5130   72.0100  220.6460 C   0  0  0  0  0  0  0  0  0  0  0  0
  137.1600   72.6220  220.6780 C   0  0  0  0  0  0  0  0  0  0  0  0
  136.3440   72.5030  219.7070 O   0  0  0  0  0  0  0  0  0  0  0  0
  136.6880   73.3750  221.7880 N   0  0  0  0  0  0  0  0  0  0  0  0
  136.3830   72.7650  223.0720 C   0  0  0  0  0  0  0  0  0  0  0  0
  135.7490   73.8350  223.9100 C   0  0  0  0  0  0  0  0  0  0  0  0
  135.4650   75.0070  222.9880 C   0  0  0  0  0  0  0  0  0  0  0  0
  136.4380   74.8030  221.8450 C   0  0  1  0  0  0  0  0  0  0  0  0
  137.6750   75.5930  222.0760 C   0  0  0  0  0  0  0  0  0  0  0  0
  137.6360   76.9130  222.4750 C   0  0  0  0  0  0  0  0  0  0  0  0
  138.7570   77.6310  222.6850 N   0  0  0  0  0  0  0  0  0  0  0  0
  139.9760   77.0760  222.5090 C   0  0  0  0  0  0  0  0  0  0  0  0
  141.1410   77.8640  222.7400 N   0  0  0  0  0  0  0  0  0  0  0  0
  140.9410   79.1700  223.3330 C   0  0  0  0  0  0  0  0  0  0  0  0
  140.7590   80.2430  222.2880 C   0  0  0  0  0  0  0  0  0  0  0  0
  141.7800   81.3040  222.5900 C   0  0  0  0  0  0  0  0  0  0  0  0
  142.8940   80.5700  223.2780 C   0  0  0  0  0  0  0  0  0  0  0  0
  142.1430   79.5750  224.1390 C   0  0  0  0  0  0  0  0  0  0  0  0
  140.0380   75.7870  222.1190 N   0  0  0  0  0  0  0  0  0  0  0  0
  138.9400   75.0390  221.9000 C   0  0  0  0  0  0  0  0  0  0  0  0
  139.9690   71.1840  224.0810 C   0  0  0  0  0  0  0  0  0  0  0  0
  140.7010   71.8980  225.0070 C   0  0  0  0  0  0  0  0  0  0  0  0
  141.0050   71.3950  226.2500 C   0  0  0  0  0  0  0  0  0  0  0  0
  140.5560   70.1300  226.5720 C   0  0  0  0  0  0  0  0  0  0  0  0
  140.8520   69.6100  227.8160 C   0  0  0  0  0  0  0  0  0  0  0  0
  140.4070   68.3450  228.1490 C   0  0  0  0  0  0  0  0  0  0  0  0
  140.7020   67.8470  229.3660 F   0  0  0  0  0  0  0  0  0  0  0  0
  139.6630   67.6060  227.2260 C   0  0  0  0  0  0  0  0  0  0  0  0
  139.3920   68.1710  225.9930 C   0  0  0  0  0  0  0  0  0  0  0  0
  139.8230   69.4320  225.6330 C   0  0  0  0  0  0  0  0  0  0  0  0
  139.5310   69.9390  224.4120 N   0  0  0  0  0  0  0  0  0  0  0  0
  138.1090   70.4910  222.1980 H   0  0  0  0  0  0  0  0  0  0  0  0
  139.2804   72.7908  220.5387 H   0  0  0  0  0  0  0  0  0  0  0  0
  138.6171   71.3217  219.7943 H   0  0  0  0  0  0  0  0  0  0  0  0
  135.6864   71.9243  222.9378 H   0  0  0  0  0  0  0  0  0  0  0  0
  137.2908   72.3694  223.5509 H   0  0  0  0  0  0  0  0  0  0  0  0
  134.8116   73.4646  224.3507 H   0  0  0  0  0  0  0  0  0  0  0  0
  136.4128   74.1345  224.7344 H   0  0  0  0  0  0  0  0  0  0  0  0
  134.4257   74.9815  222.6287 H   0  0  0  0  0  0  0  0  0  0  0  0
  135.5859   75.9812  223.4844 H   0  0  0  0  0  0  0  0  0  0  0  0
  136.0373   75.1543  220.8827 H   0  0  0  0  0  0  0  0  0  0  0  0
  136.6588   77.3948  222.6266 H   0  0  0  0  0  0  0  0  0  0  0  0
  142.0780   77.4860  222.4820 H   0  0  0  0  0  0  0  0  0  0  0  0
  140.0394   79.0830  223.9571 H   0  0  0  0  0  0  0  0  0  0  0  0
  140.9266   79.8282  221.2831 H   0  0  0  0  0  0  0  0  0  0  0  0
  139.7384   80.6528  222.3095 H   0  0  0  0  0  0  0  0  0  0  0  0
  142.1387   81.7735  221.6622 H   0  0  0  0  0  0  0  0  0  0  0  0
  141.3691   82.1152  223.2090 H   0  0  0  0  0  0  0  0  0  0  0  0
  143.5422   80.0583  222.5513 H   0  0  0  0  0  0  0  0  0  0  0  0
  143.5668   81.2266  223.8492 H   0  0  0  0  0  0  0  0  0  0  0  0
  142.7739   78.6999  224.3538 H   0  0  0  0  0  0  0  0  0  0  0  0
  141.8560   80.0099  225.1077 H   0  0  0  0  0  0  0  0  0  0  0  0
  139.0425   73.9909  221.5822 H   0  0  0  0  0  0  0  0  0  0  0  0
  141.0540   72.9054  224.7415 H   0  0  0  0  0  0  0  0  0  0  0  0
  141.5911   71.9856  226.9695 H   0  0  0  0  0  0  0  0  0  0  0  0
  141.4381   70.1986  228.5372 H   0  0  0  0  0  0  0  0  0  0  0  0
  139.3008   66.5974  227.4743 H   0  0  0  0  0  0  0  0  0  0  0  0
  138.8064   67.5890  225.2662 H   0  0  0  0  0  0  0  0  0  0  0  0
  1  2  2  0
  2  3  1  0
  3  4  1  0
  4  5  1  0
  5  6  2  0
  5  7  1  0
  7  8  1  0
  8  9  1  0
  9 10  1  0
 10 11  1  0
 11 12  1  0
 12 13  2  0
 13 14  1  0
 14 15  2  0
 15 16  1  0
 16 17  1  0
 17 18  1  0
 18 19  1  0
 19 20  1  0
 20 21  1  0
 15 22  1  0
 22 23  2  0
  2 24  1  0
 24 25  2  0
 25 26  1  0
 26 27  2  0
 27 28  1  0
 28 29  2  0
 29 30  1  0
 29 31  1  0
 31 32  2  0
 32 33  1  0
 33 34  2  0
 11  7  1  0
 23 12  1  0
 34 24  1  0
 21 17  1  0
 33 27  1  0
  3 35  1  0
  4 36  1  0
  4 37  1  0
  8 38  1  0
  8 39  1  0
  9 40  1  0
  9 41  1  0
 10 42  1  0
 10 43  1  0
 11 44  1  6
 13 45  1  0
 16 46  1  0
 17 47  1  0
 18 48  1  0
 18 49  1  0
 19 50  1  0
 19 51  1  0
 20 52  1  0
 20 53  1  0
 21 54  1  0
 21 55  1  0
 23 56  1  0
 25 57  1  0
 26 58  1  0
 28 59  1  0
 31 60  1  0
 32 61  1  0
M  END
>  <smiles>  (17) 
O=C(NCC(=O)N1CCC[C@H]1c1cnc(NC2CCCC2)nc1)c1ccc2cc(F)ccc2n1

>  <score_type>  (17) 
oracle

>  <origin>  (17) 
autodockgpu

>  <m_score__min__energy>  (17) 
-9.4299999999999997

>  <m_primary>  (17) 
energy

>  <rmsd>  (17) 
4.637770592623721

>  <m_score__min__rmsd>  (17) 
4.637770592623721

>  <meeko>  (17) 
{"free_energy": -8.79, "intermolecular_energy": -10.88, "internal_energy": -1.81, "cluster_size": 13, "cluster_id": 3, "rank_in_cluster": 2}

>  <energy>  (17) 
-8.08

>  <cluster_rmsd>  (17) 
1.23

>  <cluster>  (17) 
2

$$$$

     RDKit          3D

 61 65  0  0  0  0  0  0  0  0999 V2000
  139.9560   73.4460  222.4160 O   0  0  0  0  0  0  0  0  0  0  0  0
  140.1290   72.1860  222.3370 C   0  0  0  0  0  0  0  0  0  0  0  0
  140.3420   71.6570  221.0520 N   0  0  0  0  0  0  0  0  0  0  0  0
  140.3450   72.6130  219.9360 C   0  0  0  0  0  0  0  0  0  0  0  0
  141.7680   72.9420  219.6630 C   0  0  0  0  0  0  0  0  0  0  0  0
  142.7140   72.1450  219.9720 O   0  0  0  0  0  0  0  0  0  0  0  0
  142.1670   74.1580  219.0440 N   0  0  0  0  0  0  0  0  0  0  0  0
  141.8300   74.4790  217.6660 C   0  0  0  0  0  0  0  0  0  0  0  0
  142.5730   75.7370  217.3310 C   0  0  0  0  0  0  0  0  0  0  0  0
  143.5460   75.9920  218.4670 C   0  0  0  0  0  0  0  0  0  0  0  0
  142.9360   75.2380  219.6310 C   0  0  1  0  0  0  0  0  0  0  0  0
  142.1040   76.1520  220.4560 C   0  0  0  0  0  0  0  0  0  0  0  0
  141.4080   75.7090  221.5610 C   0  0  0  0  0  0  0  0  0  0  0  0
  140.6520   76.5370  222.3110 N   0  0  0  0  0  0  0  0  0  0  0  0
  140.5490   77.8480  222.0010 C   0  0  0  0  0  0  0  0  0  0  0  0
  139.7410   78.6940  222.8150 N   0  0  0  0  0  0  0  0  0  0  0  0
  140.4260   79.4940  223.8090 C   0  0  0  0  0  0  0  0  0  0  0  0
  140.5360   80.9400  223.3920 C   0  0  0  0  0  0  0  0  0  0  0  0
  141.9950   81.2930  223.4730 C   0  0  0  0  0  0  0  0  0  0  0  0
  142.7100   79.9930  223.2500 C   0  0  0  0  0  0  0  0  0  0  0  0
  141.8350   79.0090  224.0010 C   0  0  0  0  0  0  0  0  0  0  0  0
  141.2210   78.3020  220.9240 N   0  0  0  0  0  0  0  0  0  0  0  0
  141.9850   77.5050  220.1530 C   0  0  0  0  0  0  0  0  0  0  0  0
  140.1000   71.3590  223.5380 C   0  0  0  0  0  0  0  0  0  0  0  0
  139.5540   70.0940  223.4680 C   0  0  0  0  0  0  0  0  0  0  0  0
  139.4940   69.2590  224.5600 C   0  0  0  0  0  0  0  0  0  0  0  0
  140.0010   69.7140  225.7600 C   0  0  0  0  0  0  0  0  0  0  0  0
  139.9490   68.8880  226.8650 C   0  0  0  0  0  0  0  0  0  0  0  0
  140.4530   69.3320  228.0720 C   0  0  0  0  0  0  0  0  0  0  0  0
  140.3960   68.5180  229.1440 F   0  0  0  0  0  0  0  0  0  0  0  0
  141.0110   70.6100  228.1630 C   0  0  0  0  0  0  0  0  0  0  0  0
  141.0400   71.3990  227.0270 C   0  0  0  0  0  0  0  0  0  0  0  0
  140.5440   70.9820  225.8090 C   0  0  0  0  0  0  0  0  0  0  0  0
  140.5970   71.7940  224.7270 N   0  0  0  0  0  0  0  0  0  0  0  0
  140.4870   70.6440  220.9250 H   0  0  0  0  0  0  0  0  0  0  0  0
  139.8828   72.1597  219.0467 H   0  0  0  0  0  0  0  0  0  0  0  0
  139.7698   73.5166  220.1861 H   0  0  0  0  0  0  0  0  0  0  0  0
  142.1427   73.6630  216.9978 H   0  0  0  0  0  0  0  0  0  0  0  0
  140.7451   74.6111  217.5411 H   0  0  0  0  0  0  0  0  0  0  0  0
  143.1206   75.6121  216.3852 H   0  0  0  0  0  0  0  0  0  0  0  0
  141.8798   76.5825  217.2099 H   0  0  0  0  0  0  0  0  0  0  0  0
  144.5448   75.6000  218.2247 H   0  0  0  0  0  0  0  0  0  0  0  0
  143.6883   77.0623  218.6772 H   0  0  0  0  0  0  0  0  0  0  0  0
  143.6962   74.8313  220.3141 H   0  0  0  0  0  0  0  0  0  0  0  0
  141.4713   74.6468  221.8397 H   0  0  0  0  0  0  0  0  0  0  0  0
  138.7080   78.7130  222.6730 H   0  0  0  0  0  0  0  0  0  0  0  0
  139.8325   79.4023  224.7306 H   0  0  0  0  0  0  0  0  0  0  0  0
  140.1697   81.0684  222.3628 H   0  0  0  0  0  0  0  0  0  0  0  0
  139.9309   81.5902  224.0409 H   0  0  0  0  0  0  0  0  0  0  0  0
  142.2623   82.0222  222.6940 H   0  0  0  0  0  0  0  0  0  0  0  0
  142.2601   81.7561  224.4349 H   0  0  0  0  0  0  0  0  0  0  0  0
  142.7603   79.7447  222.1796 H   0  0  0  0  0  0  0  0  0  0  0  0
  143.7557   80.0017  223.5913 H   0  0  0  0  0  0  0  0  0  0  0  0
  141.9526   77.9967  223.5869 H   0  0  0  0  0  0  0  0  0  0  0  0
  142.1053   78.9540  225.0659 H   0  0  0  0  0  0  0  0  0  0  0  0
  142.5147   77.9231  219.2843 H   0  0  0  0  0  0  0  0  0  0  0  0
  139.1530   69.7409  222.5065 H   0  0  0  0  0  0  0  0  0  0  0  0
  139.0532   68.2545  224.4785 H   0  0  0  0  0  0  0  0  0  0  0  0
  139.5091   67.8830  226.7848 H   0  0  0  0  0  0  0  0  0  0  0  0
  141.4177   70.9800  229.1157 H   0  0  0  0  0  0  0  0  0  0  0  0
  141.4787   72.4052  227.0981 H   0  0  0  0  0  0  0  0  0  0  0  0
  1  2  2  0
  2  3  1  0
  3  4  1  0
  4  5  1  0
  5  6  2  0
  5  7  1  0
  7  8  1  0
  8  9  1  0
  9 10  1  0
 10 11  1  0
 11 12  1  0
 12 13  2  0
 13 14  1  0
 14 15  2  0
 15 16  1  0
 16 17  1  0
 17 18  1  0
 18 19  1  0
 19 20  1  0
 20 21  1  0
 15 22  1  0
 22 23  2  0
  2 24  1  0
 24 25  2  0
 25 26  1  0
 26 27  2  0
 27 28  1  0
 28 29  2  0
 29 30  1  0
 29 31  1  0
 31 32  2  0
 32 33  1  0
 33 34  2  0
 11  7  1  0
 23 12  1  0
 34 24  1  0
 21 17  1  0
 33 27  1  0
  3 35  1  0
  4 36  1  0
  4 37  1  0
  8 38  1  0
  8 39  1  0
  9 40  1  0
  9 41  1  0
 10 42  1  0
 10 43  1  0
 11 44  1  1
 13 45  1  0
 16 46  1  0
 17 47  1  0
 18 48  1  0
 18 49  1  0
 19 50  1  0
 19 51  1  0
 20 52  1  0
 20 53  1  0
 21 54  1  0
 21 55  1  0
 23 56  1  0
 25 57  1  0
 26 58  1  0
 28 59  1  0
 31 60  1  0
 32 61  1  0
M  END
>  <smiles>  (18) 
O=C(NCC(=O)N1CCC[C@H]1c1cnc(NC2CCCC2)nc1)c1ccc2cc(F)ccc2n1

>  <score_type>  (18) 
oracle

>  <origin>  (18) 
autodockgpu

>  <m_score__min__energy>  (18) 
-9.4299999999999997

>  <m_primary>  (18) 
energy

>  <rmsd>  (18) 
2.2554418758287578

>  <m_score__min__rmsd>  (18) 
2.2554418758287578

>  <meeko>  (18) 
{"free_energy": -8.9, "intermolecular_energy": -10.99, "internal_energy": -1.75, "cluster_size": 10, "cluster_id": 2, "rank_in_cluster": 1}

>  <energy>  (18) 
-7.84

>  <cluster_rmsd>  (18) 
1.19

>  <cluster>  (18) 
2

$$$$

     RDKit          3D

 61 65  0  0  0  0  0  0  0  0999 V2000
  140.4290   73.0370  222.6510 O   0  0  0  0  0  0  0  0  0  0  0  0
  139.9630   71.8740  222.8810 C   0  0  0  0  0  0  0  0  0  0  0  0
  139.2480   71.2620  221.8370 N   0  0  0  0  0  0  0  0  0  0  0  0
  139.1140   72.0280  220.5900 C   0  0  0  0  0  0  0  0  0  0  0  0
  137.6670   72.3290  220.4320 C   0  0  0  0  0  0  0  0  0  0  0  0
  136.9340   71.6940  219.6050 O   0  0  0  0  0  0  0  0  0  0  0  0
  137.0090   73.3380  221.1880 N   0  0  0  0  0  0  0  0  0  0  0  0
  136.3600   73.0620  222.4590 C   0  0  0  0  0  0  0  0  0  0  0  0
  135.6350   74.3160  222.8460 C   0  0  0  0  0  0  0  0  0  0  0  0
  135.6740   75.2380  221.6410 C   0  0  0  0  0  0  0  0  0  0  0  0
  136.8700   74.7430  220.8540 C   0  0  1  0  0  0  0  0  0  0  0  0
  138.0770   75.5370  221.2010 C   0  0  0  0  0  0  0  0  0  0  0  0
  138.5610   76.5300  220.3750 C   0  0  0  0  0  0  0  0  0  0  0  0
  139.6560   77.2510  220.6880 N   0  0  0  0  0  0  0  0  0  0  0  0
  140.3280   77.0230  221.8370 C   0  0  0  0  0  0  0  0  0  0  0  0
  141.4820   77.8040  222.1360 N   0  0  0  0  0  0  0  0  0  0  0  0
  141.4030   78.6730  223.2920 C   0  0  0  0  0  0  0  0  0  0  0  0
  140.0880   79.4090  223.3560 C   0  0  0  0  0  0  0  0  0  0  0  0
  140.4260   80.8710  223.4570 C   0  0  0  0  0  0  0  0  0  0  0  0
  141.7620   80.9950  222.7860 C   0  0  0  0  0  0  0  0  0  0  0  0
  142.4690   79.7310  223.2320 C   0  0  0  0  0  0  0  0  0  0  0  0
  139.8730   76.0560  222.6590 N   0  0  0  0  0  0  0  0  0  0  0  0
  138.7840   75.3170  222.3800 C   0  0  0  0  0  0  0  0  0  0  0  0
  140.1770   71.2330  224.1740 C   0  0  0  0  0  0  0  0  0  0  0  0
  140.9000   71.8990  225.1420 C   0  0  0  0  0  0  0  0  0  0  0  0
  141.1400   71.3560  226.3830 C   0  0  0  0  0  0  0  0  0  0  0  0
  140.6350   70.1020  226.6570 C   0  0  0  0  0  0  0  0  0  0  0  0
  140.8660   69.5430  227.8980 C   0  0  0  0  0  0  0  0  0  0  0  0
  140.3660   68.2880  228.1850 C   0  0  0  0  0  0  0  0  0  0  0  0
  140.5980   67.7510  229.3980 F   0  0  0  0  0  0  0  0  0  0  0  0
  139.6300   67.5980  227.2180 C   0  0  0  0  0  0  0  0  0  0  0  0
  139.4240   68.2000  225.9900 C   0  0  0  0  0  0  0  0  0  0  0  0
  139.9130   69.4520  225.6760 C   0  0  0  0  0  0  0  0  0  0  0  0
  139.6840   69.9980  224.4580 N   0  0  0  0  0  0  0  0  0  0  0  0
  138.8460   70.3200  221.9650 H   0  0  0  0  0  0  0  0  0  0  0  0
  139.6915   72.9620  220.6540 H   0  0  0  0  0  0  0  0  0  0  0  0
  139.4976   71.4585  219.7306 H   0  0  0  0  0  0  0  0  0  0  0  0
  135.6490   72.2298  222.3501 H   0  0  0  0  0  0  0  0  0  0  0  0
  137.0932   72.7727  223.2263 H   0  0  0  0  0  0  0  0  0  0  0  0
  134.5929   74.0839  223.1111 H   0  0  0  0  0  0  0  0  0  0  0  0
  136.1068   74.7898  223.7195 H   0  0  0  0  0  0  0  0  0  0  0  0
  134.7508   75.1507  221.0493 H   0  0  0  0  0  0  0  0  0  0  0  0
  135.7531   76.2999  221.9170 H   0  0  0  0  0  0  0  0  0  0  0  0
  136.7390   74.8614  219.7683 H   0  0  0  0  0  0  0  0  0  0  0  0
  138.0368   76.7401  219.4310 H   0  0  0  0  0  0  0  0  0  0  0  0
  142.3280   77.7270  221.5300 H   0  0  0  0  0  0  0  0  0  0  0  0
  141.5222   78.0203  224.1694 H   0  0  0  0  0  0  0  0  0  0  0  0
  139.4992   79.2163  222.4471 H   0  0  0  0  0  0  0  0  0  0  0  0
  139.4863   79.0778  224.2153 H   0  0  0  0  0  0  0  0  0  0  0  0
  139.6721   81.4811  222.9379 H   0  0  0  0  0  0  0  0  0  0  0  0
  140.4466   81.2245  224.4984 H   0  0  0  0  0  0  0  0  0  0  0  0
  141.6562   81.0267  221.6916 H   0  0  0  0  0  0  0  0  0  0  0  0
  142.3019   81.9166  223.0489 H   0  0  0  0  0  0  0  0  0  0  0  0
  143.2482   79.4507  222.5079 H   0  0  0  0  0  0  0  0  0  0  0  0
  142.9667   79.8637  224.2039 H   0  0  0  0  0  0  0  0  0  0  0  0
  138.4522   74.5390  223.0833 H   0  0  0  0  0  0  0  0  0  0  0  0
  141.2983   72.8986  224.9137 H   0  0  0  0  0  0  0  0  0  0  0  0
  141.7198   71.9078  227.1375 H   0  0  0  0  0  0  0  0  0  0  0  0
  141.4449   70.0940  228.6538 H   0  0  0  0  0  0  0  0  0  0  0  0
  139.2234   66.5979  227.4289 H   0  0  0  0  0  0  0  0  0  0  0  0
  138.8443   67.6566  225.2293 H   0  0  0  0  0  0  0  0  0  0  0  0
  1  2  2  0
  2  3  1  0
  3  4  1  0
  4  5  1  0
  5  6  2  0
  5  7  1  0
  7  8  1  0
  8  9  1  0
  9 10  1  0
 10 11  1  0
 11 12  1  0
 12 13  2  0
 13 14  1  0
 14 15  2  0
 15 16  1  0
 16 17  1  0
 17 18  1  0
 18 19  1  0
 19 20  1  0
 20 21  1  0
 15 22  1  0
 22 23  2  0
  2 24  1  0
 24 25  2  0
 25 26  1  0
 26 27  2  0
 27 28  1  0
 28 29  2  0
 29 30  1  0
 29 31  1  0
 31 32  2  0
 32 33  1  0
 33 34  2  0
 11  7  1  0
 23 12  1  0
 34 24  1  0
 21 17  1  0
 33 27  1  0
  3 35  1  0
  4 36  1  0
  4 37  1  0
  8 38  1  0
  8 39  1  0
  9 40  1  0
  9 41  1  0
 10 42  1  0
 10 43  1  0
 11 44  1  6
 13 45  1  0
 16 46  1  0
 17 47  1  0
 18 48  1  0
 18 49  1  0
 19 50  1  0
 19 51  1  0
 20 52  1  0
 20 53  1  0
 21 54  1  0
 21 55  1  0
 23 56  1  0
 25 57  1  0
 26 58  1  0
 28 59  1  0
 31 60  1  0
 32 61  1  0
M  END
>  <smiles>  (19) 
O=C(NCC(=O)N1CCC[C@H]1c1cnc(NC2CCCC2)nc1)c1ccc2cc(F)ccc2n1

>  <score_type>  (19) 
oracle

>  <origin>  (19) 
autodockgpu

>  <m_score__min__energy>  (19) 
-9.4299999999999997

>  <m_primary>  (19) 
energy

>  <rmsd>  (19) 
4.332330874445793

>  <m_score__min__rmsd>  (19) 
4.332330874445793

>  <meeko>  (19) 
{"free_energy": -8.26, "intermolecular_energy": -10.34, "internal_energy": -2.0, "cluster_size": 13, "cluster_id": 3, "rank_in_cluster": 9}

>  <energy>  (19) 
-8.82

>  <cluster_rmsd>  (19) 
0.0

>  <cluster>  (19) 
3

$$$$

     RDKit          3D

 61 65  0  0  0  0  0  0  0  0999 V2000
  141.0050   72.6570  222.8110 O   0  0  0  0  0  0  0  0  0  0  0  0
  140.5220   73.2400  221.7870 C   0  0  0  0  0  0  0  0  0  0  0  0
  139.6860   72.4710  220.9580 N   0  0  0  0  0  0  0  0  0  0  0  0
  139.4570   71.0760  221.3610 C   0  0  0  0  0  0  0  0  0  0  0  0
  138.1450   70.6800  220.7890 C   0  0  0  0  0  0  0  0  0  0  0  0
  137.5070   71.4330  219.9820 O   0  0  0  0  0  0  0  0  0  0  0  0
  137.5170   69.4430  221.1010 N   0  0  0  0  0  0  0  0  0  0  0  0
  137.6240   68.2750  220.2410 C   0  0  0  0  0  0  0  0  0  0  0  0
  136.6910   67.2470  220.8050 C   0  0  0  0  0  0  0  0  0  0  0  0
  135.8540   67.9420  221.8620 C   0  0  0  0  0  0  0  0  0  0  0  0
  136.7030   69.1330  222.2600 C   0  0  1  0  0  0  0  0  0  0  0  0
  137.5150   68.8060  223.4600 C   0  0  0  0  0  0  0  0  0  0  0  0
  138.4660   67.8060  223.4500 C   0  0  0  0  0  0  0  0  0  0  0  0
  139.2040   67.5090  224.5380 N   0  0  0  0  0  0  0  0  0  0  0  0
  139.0360   68.1880  225.6930 C   0  0  0  0  0  0  0  0  0  0  0  0
  139.8340   67.8470  226.8240 N   0  0  0  0  0  0  0  0  0  0  0  0
  140.8370   68.8080  227.2330 C   0  0  0  0  0  0  0  0  0  0  0  0
  140.2670   69.8670  228.1440 C   0  0  0  0  0  0  0  0  0  0  0  0
  140.6090   71.1910  227.5190 C   0  0  0  0  0  0  0  0  0  0  0  0
  140.7170   70.8980  226.0520 C   0  0  0  0  0  0  0  0  0  0  0  0
  141.3870   69.5390  226.0410 C   0  0  0  0  0  0  0  0  0  0  0  0
  138.1130   69.1690  225.7260 N   0  0  0  0  0  0  0  0  0  0  0  0
  137.3580   69.4940  224.6600 C   0  0  0  0  0  0  0  0  0  0  0  0
  140.8370   74.6370  221.5130 C   0  0  0  0  0  0  0  0  0  0  0  0
  141.6260   74.9460  220.4240 C   0  0  0  0  0  0  0  0  0  0  0  0
  141.9640   76.2410  220.1050 C   0  0  0  0  0  0  0  0  0  0  0  0
  141.4910   77.2570  220.9090 C   0  0  0  0  0  0  0  0  0  0  0  0
  141.8200   78.5630  220.6030 C   0  0  0  0  0  0  0  0  0  0  0  0
  141.3520   79.5890  221.4010 C   0  0  0  0  0  0  0  0  0  0  0  0
  141.6800   80.8590  221.0930 F   0  0  0  0  0  0  0  0  0  0  0  0
  140.5500   79.2970  222.5070 C   0  0  0  0  0  0  0  0  0  0  0  0
  140.2480   77.9730  222.7720 C   0  0  0  0  0  0  0  0  0  0  0  0
  140.7010   76.9280  221.9930 C   0  0  0  0  0  0  0  0  0  0  0  0
  140.3770   75.6490  222.2960 N   0  0  0  0  0  0  0  0  0  0  0  0
  139.2660   72.8890  220.1130 H   0  0  0  0  0  0  0  0  0  0  0  0
  140.2545   70.4304  220.9645 H   0  0  0  0  0  0  0  0  0  0  0  0
  139.4599   70.9735  222.4562 H   0  0  0  0  0  0  0  0  0  0  0  0
  137.3303   68.5317  219.2125 H   0  0  0  0  0  0  0  0  0  0  0  0
  138.6572   67.8991  220.2059 H   0  0  0  0  0  0  0  0  0  0  0  0
  136.0424   66.8489  220.0107 H   0  0  0  0  0  0  0  0  0  0  0  0
  137.2499   66.4041  221.2377 H   0  0  0  0  0  0  0  0  0  0  0  0
  134.8889   68.2683  221.4472 H   0  0  0  0  0  0  0  0  0  0  0  0
  135.6084   67.2882  222.7118 H   0  0  0  0  0  0  0  0  0  0  0  0
  136.0978   70.0077  222.5406 H   0  0  0  0  0  0  0  0  0  0  0  0
  138.6268   67.2332  222.5248 H   0  0  0  0  0  0  0  0  0  0  0  0
  139.6740   66.9390  227.3120 H   0  0  0  0  0  0  0  0  0  0  0  0
  141.6141   68.2291  227.7536 H   0  0  0  0  0  0  0  0  0  0  0  0
  139.1757   69.7539  228.2232 H   0  0  0  0  0  0  0  0  0  0  0  0
  140.6816   69.7857  229.1596 H   0  0  0  0  0  0  0  0  0  0  0  0
  139.8152   71.9279  227.7107 H   0  0  0  0  0  0  0  0  0  0  0  0
  141.5353   71.6198  227.9289 H   0  0  0  0  0  0  0  0  0  0  0  0
  139.7242   70.8562  225.5802 H   0  0  0  0  0  0  0  0  0  0  0  0
  141.2694   71.6653  225.4897 H   0  0  0  0  0  0  0  0  0  0  0  0
  141.1447   68.9989  225.1139 H   0  0  0  0  0  0  0  0  0  0  0  0
  142.4827   69.6249  226.0860 H   0  0  0  0  0  0  0  0  0  0  0  0
  136.6169   70.3033  224.7371 H   0  0  0  0  0  0  0  0  0  0  0  0
  141.9977   74.1285  219.7887 H   0  0  0  0  0  0  0  0  0  0  0  0
  142.5952   76.4604  219.2312 H   0  0  0  0  0  0  0  0  0  0  0  0
  142.4507   78.7848  219.7295 H   0  0  0  0  0  0  0  0  0  0  0  0
  140.1673   80.1013  223.1525 H   0  0  0  0  0  0  0  0  0  0  0  0
  139.6178   77.7429  223.6437 H   0  0  0  0  0  0  0  0  0  0  0  0
  1  2  2  0
  2  3  1  0
  3  4  1  0
  4  5  1  0
  5  6  2  0
  5  7  1  0
  7  8  1  0
  8  9  1  0
  9 10  1  0
 10 11  1  0
 11 12  1  0
 12 13  2  0
 13 14  1  0
 14 15  2  0
 15 16  1  0
 16 17  1  0
 17 18  1  0
 18 19  1  0
 19 20  1  0
 20 21  1  0
 15 22  1  0
 22 23  2  0
  2 24  1  0
 24 25  2  0
 25 26  1  0
 26 27  2  0
 27 28  1  0
 28 29  2  0
 29 30  1  0
 29 31  1  0
 31 32  2  0
 32 33  1  0
 33 34  2  0
 11  7  1  0
 23 12  1  0
 34 24  1  0
 21 17  1  0
 33 27  1  0
  3 35  1  0
  4 36  1  0
  4 37  1  0
  8 38  1  0
  8 39  1  0
  9 40  1  0
  9 41  1  0
 10 42  1  0
 10 43  1  0
 11 44  1  1
 13 45  1  0
 16 46  1  0
 17 47  1  0
 18 48  1  0
 18 49  1  0
 19 50  1  0
 19 51  1  0
 20 52  1  0
 20 53  1  0
 21 54  1  0
 21 55  1  0
 23 56  1  0
 25 57  1  0
 26 58  1  0
 28 59  1  0
 31 60  1  0
 32 61  1  0
M  END
>  <smiles>  (20) 
O=C(NCC(=O)N1CCC[C@H]1c1cnc(NC2CCCC2)nc1)c1ccc2cc(F)ccc2n1

>  <score_type>  (20) 
oracle

>  <origin>  (20) 
autodockgpu

>  <m_score__min__energy>  (20) 
-9.4299999999999997

>  <m_primary>  (20) 
energy

>  <rmsd>  (20) 
8.469633040868782

>  <m_score__min__rmsd>  (20) 
8.469633040868782

>  <meeko>  (20) 
{"free_energy": -8.11, "intermolecular_energy": -10.2, "internal_energy": -2.12, "cluster_size": 8, "cluster_id": 1, "rank_in_cluster": 5}

>  <energy>  (20) 
-8.79

>  <cluster_rmsd>  (20) 
1.2

>  <cluster>  (20) 
3

$$$$

     RDKit          3D

 61 65  0  0  0  0  0  0  0  0999 V2000
  137.7790   69.9690  221.8840 O   0  0  0  0  0  0  0  0  0  0  0  0
  138.3280   70.6730  222.7920 C   0  0  0  0  0  0  0  0  0  0  0  0
  138.3730   72.0610  222.5750 N   0  0  0  0  0  0  0  0  0  0  0  0
  137.7790   72.5540  221.3240 C   0  0  0  0  0  0  0  0  0  0  0  0
  136.3700   72.9070  221.6340 C   0  0  0  0  0  0  0  0  0  0  0  0
  135.3900   72.3480  221.0420 O   0  0  0  0  0  0  0  0  0  0  0  0
  136.0230   73.8840  222.6070 N   0  0  0  0  0  0  0  0  0  0  0  0
  135.7020   73.5370  223.9820 C   0  0  0  0  0  0  0  0  0  0  0  0
  135.2180   74.7970  224.6350 C   0  0  0  0  0  0  0  0  0  0  0  0
  135.0260   75.8210  223.5320 C   0  0  0  0  0  0  0  0  0  0  0  0
  135.9280   75.3200  222.4220 C   0  0  1  0  0  0  0  0  0  0  0  0
  137.2500   75.9950  222.4920 C   0  0  0  0  0  0  0  0  0  0  0  0
  137.3680   77.3530  222.7020 C   0  0  0  0  0  0  0  0  0  0  0  0
  138.5660   77.9670  222.7650 N   0  0  0  0  0  0  0  0  0  0  0  0
  139.7110   77.2630  222.6220 C   0  0  0  0  0  0  0  0  0  0  0  0
  140.9610   77.9450  222.6940 N   0  0  0  0  0  0  0  0  0  0  0  0
  140.9490   79.2780  223.2580 C   0  0  0  0  0  0  0  0  0  0  0  0
  140.6820   80.3320  222.2130 C   0  0  0  0  0  0  0  0  0  0  0  0
  141.8110   81.3210  222.3120 C   0  0  0  0  0  0  0  0  0  0  0  0
  142.9630   80.5240  222.8490 C   0  0  0  0  0  0  0  0  0  0  0  0
  142.2870   79.6130  223.8540 C   0  0  0  0  0  0  0  0  0  0  0  0
  139.6200   75.9350  222.4150 N   0  0  0  0  0  0  0  0  0  0  0  0
  138.4410   75.2880  222.3470 C   0  0  0  0  0  0  0  0  0  0  0  0
  138.8770   70.0430  223.9880 C   0  0  0  0  0  0  0  0  0  0  0  0
  138.8000   68.6710  224.1190 C   0  0  0  0  0  0  0  0  0  0  0  0
  139.2960   68.0100  225.2180 C   0  0  0  0  0  0  0  0  0  0  0  0
  139.8890   68.7540  226.2170 C   0  0  0  0  0  0  0  0  0  0  0  0
  140.3920   68.1060  227.3270 C   0  0  0  0  0  0  0  0  0  0  0  0
  140.9880   68.8400  228.3340 C   0  0  0  0  0  0  0  0  0  0  0  0
  141.4750   68.1970  229.4130 F   0  0  0  0  0  0  0  0  0  0  0  0
  141.0760   70.2300  228.2190 C   0  0  0  0  0  0  0  0  0  0  0  0
  140.5570   70.8330  227.0880 C   0  0  0  0  0  0  0  0  0  0  0  0
  139.9570   70.1250  226.0670 C   0  0  0  0  0  0  0  0  0  0  0  0
  139.4640   70.7640  224.9800 N   0  0  0  0  0  0  0  0  0  0  0  0
  138.8060   72.6830  223.2750 H   0  0  0  0  0  0  0  0  0  0  0  0
  138.3235   73.4415  220.9692 H   0  0  0  0  0  0  0  0  0  0  0  0
  137.8323   71.7923  220.5322 H   0  0  0  0  0  0  0  0  0  0  0  0
  134.9147   72.7692  224.0066 H   0  0  0  0  0  0  0  0  0  0  0  0
  136.5791   73.1284  224.5052 H   0  0  0  0  0  0  0  0  0  0  0  0
  134.2638   74.6132  225.1504 H   0  0  0  0  0  0  0  0  0  0  0  0
  135.9411   75.1552  225.3825 H   0  0  0  0  0  0  0  0  0  0  0  0
  133.9770   75.8516  223.2024 H   0  0  0  0  0  0  0  0  0  0  0  0
  135.2689   76.8451  223.8516 H   0  0  0  0  0  0  0  0  0  0  0  0
  135.5309   75.5460  221.4214 H   0  0  0  0  0  0  0  0  0  0  0  0
  136.4548   77.9543  222.8219 H   0  0  0  0  0  0  0  0  0  0  0  0
  141.8250   77.4740  222.3470 H   0  0  0  0  0  0  0  0  0  0  0  0
  140.1517   79.2770  224.0158 H   0  0  0  0  0  0  0  0  0  0  0  0
  140.6602   79.8781  221.2113 H   0  0  0  0  0  0  0  0  0  0  0  0
  139.7091   80.8187  222.3758 H   0  0  0  0  0  0  0  0  0  0  0  0
  142.0528   81.7353  221.3221 H   0  0  0  0  0  0  0  0  0  0  0  0
  141.5606   82.1786  222.9538 H   0  0  0  0  0  0  0  0  0  0  0  0
  143.4519   79.9444  222.0521 H   0  0  0  0  0  0  0  0  0  0  0  0
  143.7614   81.1432  223.2840 H   0  0  0  0  0  0  0  0  0  0  0  0
  142.8804   78.6990  224.0040 H   0  0  0  0  0  0  0  0  0  0  0  0
  142.1858   80.0952  224.8375 H   0  0  0  0  0  0  0  0  0  0  0  0
  138.4186   74.2014  222.1770 H   0  0  0  0  0  0  0  0  0  0  0  0
  138.3257   68.0865  223.3169 H   0  0  0  0  0  0  0  0  0  0  0  0
  139.2218   66.9155  225.2986 H   0  0  0  0  0  0  0  0  0  0  0  0
  140.3187   67.0115  227.4092 H   0  0  0  0  0  0  0  0  0  0  0  0
  141.5476   70.8310  229.0105 H   0  0  0  0  0  0  0  0  0  0  0  0
  140.6256   71.9272  226.9982 H   0  0  0  0  0  0  0  0  0  0  0  0
  1  2  2  0
  2  3  1  0
  3  4  1  0
  4  5  1  0
  5  6  2  0
  5  7  1  0
  7  8  1  0
  8  9  1  0
  9 10  1  0
 10 11  1  0
 11 12  1  0
 12 13  2  0
 13 14  1  0
 14 15  2  0
 15 16  1  0
 16 17  1  0
 17 18  1  0
 18 19  1  0
 19 20  1  0
 20 21  1  0
 15 22  1  0
 22 23  2  0
  2 24  1  0
 24 25  2  0
 25 26  1  0
 26 27  2  0
 27 28  1  0
 28 29  2  0
 29 30  1  0
 29 31  1  0
 31 32  2  0
 32 33  1  0
 33 34  2  0
 11  7  1  0
 23 12  1  0
 34 24  1  0
 21 17  1  0
 33 27  1  0
  3 35  1  0
  4 36  1  0
  4 37  1  0
  8 38  1  0
  8 39  1  0
  9 40  1  0
  9 41  1  0
 10 42  1  0
 10 43  1  0
 11 44  1  6
 13 45  1  0
 16 46  1  0
 17 47  1  0
 18 48  1  0
 18 49  1  0
 19 50  1  0
 19 51  1  0
 20 52  1  0
 20 53  1  0
 21 54  1  0
 21 55  1  0
 23 56  1  0
 25 57  1  0
 26 58  1  0
 28 59  1  0
 31 60  1  0
 32 61  1  0
M  END
>  <smiles>  (21) 
O=C(NCC(=O)N1CCC[C@H]1c1cnc(NC2CCCC2)nc1)c1ccc2cc(F)ccc2n1

>  <score_type>  (21) 
oracle

>  <origin>  (21) 
autodockgpu

>  <m_score__min__energy>  (21) 
-9.4299999999999997

>  <m_primary>  (21) 
energy

>  <rmsd>  (21) 
4.376543080788855

>  <m_score__min__rmsd>  (21) 
4.376543080788855

>  <meeko>  (21) 
{"free_energy": -8.82, "intermolecular_energy": -10.91, "internal_energy": -1.57, "cluster_size": 13, "cluster_id": 3, "rank_in_cluster": 1}

>  <energy>  (21) 
-8.73

>  <cluster_rmsd>  (21) 
0.33

>  <cluster>  (21) 
3

$$$$

     RDKit          3D

 61 65  0  0  0  0  0  0  0  0999 V2000
  139.2390   74.2210  219.8190 O   0  0  0  0  0  0  0  0  0  0  0  0
  139.3090   74.7010  220.9970 C   0  0  0  0  0  0  0  0  0  0  0  0
  138.6600   73.9790  222.0140 N   0  0  0  0  0  0  0  0  0  0  0  0
  137.9700   72.7450  221.6110 C   0  0  0  0  0  0  0  0  0  0  0  0
  139.0230   71.7170  221.4120 C   0  0  0  0  0  0  0  0  0  0  0  0
  140.2620   72.0140  221.4080 O   0  0  0  0  0  0  0  0  0  0  0  0
  138.7210   70.3410  221.2150 N   0  0  0  0  0  0  0  0  0  0  0  0
  139.4340   69.5150  220.2540 C   0  0  0  0  0  0  0  0  0  0  0  0
  138.7140   68.2010  220.2090 C   0  0  0  0  0  0  0  0  0  0  0  0
  137.4190   68.3800  220.9780 C   0  0  0  0  0  0  0  0  0  0  0  0
  137.7080   69.5530  221.8910 C   0  0  1  0  0  0  0  0  0  0  0  0
  138.1530   69.0690  223.2240 C   0  0  0  0  0  0  0  0  0  0  0  0
  138.8380   67.8810  223.3790 C   0  0  0  0  0  0  0  0  0  0  0  0
  139.2420   67.4410  224.5870 N   0  0  0  0  0  0  0  0  0  0  0  0
  138.9890   68.1570  225.7040 C   0  0  0  0  0  0  0  0  0  0  0  0
  139.4310   67.6620  226.9650 N   0  0  0  0  0  0  0  0  0  0  0  0
  140.3910   68.4710  227.6870 C   0  0  0  0  0  0  0  0  0  0  0  0
  139.7420   69.6590  228.3520 C   0  0  0  0  0  0  0  0  0  0  0  0
  140.4940   70.8720  227.8780 C   0  0  0  0  0  0  0  0  0  0  0  0
  141.0300   70.4800  226.5320 C   0  0  0  0  0  0  0  0  0  0  0  0
  141.4230   69.0320  226.7490 C   0  0  0  0  0  0  0  0  0  0  0  0
  138.3210   69.3210  225.5760 N   0  0  0  0  0  0  0  0  0  0  0  0
  137.9020   69.7920  224.3860 C   0  0  0  0  0  0  0  0  0  0  0  0
  140.0340   75.9410  221.2480 C   0  0  0  0  0  0  0  0  0  0  0  0
  141.1190   76.2570  220.4580 C   0  0  0  0  0  0  0  0  0  0  0  0
  141.8490   77.4090  220.6370 C   0  0  0  0  0  0  0  0  0  0  0  0
  141.4720   78.2710  221.6460 C   0  0  0  0  0  0  0  0  0  0  0  0
  142.1930   79.4330  221.8400 C   0  0  0  0  0  0  0  0  0  0  0  0
  141.8260   80.3040  222.8470 C   0  0  0  0  0  0  0  0  0  0  0  0
  142.5370   81.4340  223.0270 F   0  0  0  0  0  0  0  0  0  0  0  0
  140.7290   80.0020  223.6580 C   0  0  0  0  0  0  0  0  0  0  0  0
  140.0380   78.8270  223.4240 C   0  0  0  0  0  0  0  0  0  0  0  0
  140.3830   77.9390  222.4260 C   0  0  0  0  0  0  0  0  0  0  0  0
  139.6730   76.8010  222.2390 N   0  0  0  0  0  0  0  0  0  0  0  0
  138.6820   74.3190  222.9880 H   0  0  0  0  0  0  0  0  0  0  0  0
  137.2717   72.4258  222.3987 H   0  0  0  0  0  0  0  0  0  0  0  0
  137.3862   72.8986  220.6915 H   0  0  0  0  0  0  0  0  0  0  0  0
  139.4221   69.9895  219.2617 H   0  0  0  0  0  0  0  0  0  0  0  0
  140.4866   69.3832  220.5449 H   0  0  0  0  0  0  0  0  0  0  0  0
  138.4993   67.9231  219.1666 H   0  0  0  0  0  0  0  0  0  0  0  0
  139.3267   67.4017  220.6514 H   0  0  0  0  0  0  0  0  0  0  0  0
  136.5858   68.6080  220.2970 H   0  0  0  0  0  0  0  0  0  0  0  0
  137.1181   67.4750  221.5261 H   0  0  0  0  0  0  0  0  0  0  0  0
  136.8164   70.1685  222.0812 H   0  0  0  0  0  0  0  0  0  0  0  0
  139.0611   67.2744  222.4889 H   0  0  0  0  0  0  0  0  0  0  0  0
  139.0590   66.7550  227.3220 H   0  0  0  0  0  0  0  0  0  0  0  0
  140.8400   67.8061  228.4395 H   0  0  0  0  0  0  0  0  0  0  0  0
  138.6840   69.7284  228.0590 H   0  0  0  0  0  0  0  0  0  0  0  0
  139.7757   69.5711  229.4480 H   0  0  0  0  0  0  0  0  0  0  0  0
  139.8207   71.7375  227.7913 H   0  0  0  0  0  0  0  0  0  0  0  0
  141.2913   71.1687  228.5754 H   0  0  0  0  0  0  0  0  0  0  0  0
  140.2577   70.5707  225.7540 H   0  0  0  0  0  0  0  0  0  0  0  0
  141.8598   71.1143  226.1869 H   0  0  0  0  0  0  0  0  0  0  0  0
  141.4136   68.4842  225.7952 H   0  0  0  0  0  0  0  0  0  0  0  0
  142.4393   68.9426  227.1603 H   0  0  0  0  0  0  0  0  0  0  0  0
  137.3612   70.7484  224.3326 H   0  0  0  0  0  0  0  0  0  0  0  0
  141.4112   75.5631  219.6560 H   0  0  0  0  0  0  0  0  0  0  0  0
  142.7108   77.6370  219.9925 H   0  0  0  0  0  0  0  0  0  0  0  0
  143.0546   79.6634  221.1961 H   0  0  0  0  0  0  0  0  0  0  0  0
  140.4218   80.6837  224.4648 H   0  0  0  0  0  0  0  0  0  0  0  0
  139.1742   78.5897  224.0625 H   0  0  0  0  0  0  0  0  0  0  0  0
  1  2  2  0
  2  3  1  0
  3  4  1  0
  4  5  1  0
  5  6  2  0
  5  7  1  0
  7  8  1  0
  8  9  1  0
  9 10  1  0
 10 11  1  0
 11 12  1  0
 12 13  2  0
 13 14  1  0
 14 15  2  0
 15 16  1  0
 16 17  1  0
 17 18  1  0
 18 19  1  0
 19 20  1  0
 20 21  1  0
 15 22  1  0
 22 23  2  0
  2 24  1  0
 24 25  2  0
 25 26  1  0
 26 27  2  0
 27 28  1  0
 28 29  2  0
 29 30  1  0
 29 31  1  0
 31 32  2  0
 32 33  1  0
 33 34  2  0
 11  7  1  0
 23 12  1  0
 34 24  1  0
 21 17  1  0
 33 27  1  0
  3 35  1  0
  4 36  1  0
  4 37  1  0
  8 38  1  0
  8 39  1  0
  9 40  1  0
  9 41  1  0
 10 42  1  0
 10 43  1  0
 11 44  1  1
 13 45  1  0
 16 46  1  0
 17 47  1  0
 18 48  1  0
 18 49  1  0
 19 50  1  0
 19 51  1  0
 20 52  1  0
 20 53  1  0
 21 54  1  0
 21 55  1  0
 23 56  1  0
 25 57  1  0
 26 58  1  0
 28 59  1  0
 31 60  1  0
 32 61  1  0
M  END
>  <smiles>  (22) 
O=C(NCC(=O)N1CCC[C@H]1c1cnc(NC2CCCC2)nc1)c1ccc2cc(F)ccc2n1

>  <score_type>  (22) 
oracle

>  <origin>  (22) 
autodockgpu

>  <m_score__min__energy>  (22) 
-9.4299999999999997

>  <m_primary>  (22) 
energy

>  <rmsd>  (22) 
8.187525412788261

>  <m_score__min__rmsd>  (22) 
8.187525412788261

>  <meeko>  (22) 
{"free_energy": -8.68, "intermolecular_energy": -10.77, "internal_energy": -1.63, "cluster_size": 8, "cluster_id": 1, "rank_in_cluster": 3}

>  <energy>  (22) 
-8.72

>  <cluster_rmsd>  (22) 
1.13

>  <cluster>  (22) 
3

$$$$

     RDKit          3D

 61 65  0  0  0  0  0  0  0  0999 V2000
  138.6440   76.4530  222.8640 O   0  0  0  0  0  0  0  0  0  0  0  0
  139.4530   76.6420  221.8990 C   0  0  0  0  0  0  0  0  0  0  0  0
  139.3630   77.8770  221.2320 N   0  0  0  0  0  0  0  0  0  0  0  0
  138.3460   78.8190  221.7200 C   0  0  0  0  0  0  0  0  0  0  0  0
  138.9280   79.4920  222.9090 C   0  0  0  0  0  0  0  0  0  0  0  0
  138.2260   79.7740  223.9350 O   0  0  0  0  0  0  0  0  0  0  0  0
  140.2990   79.8640  222.9830 N   0  0  0  0  0  0  0  0  0  0  0  0
  141.2310   79.2330  223.9030 C   0  0  0  0  0  0  0  0  0  0  0  0
  142.5080   80.0120  223.8140 C   0  0  0  0  0  0  0  0  0  0  0  0
  142.2080   81.2620  223.0080 C   0  0  0  0  0  0  0  0  0  0  0  0
  140.9820   80.8790  222.2040 C   0  0  1  0  0  0  0  0  0  0  0  0
  141.3820   80.3950  220.8570 C   0  0  0  0  0  0  0  0  0  0  0  0
  141.3170   81.2040  219.7410 C   0  0  0  0  0  0  0  0  0  0  0  0
  141.6790   80.7660  218.5180 N   0  0  0  0  0  0  0  0  0  0  0  0
  142.1240   79.5030  218.3400 C   0  0  0  0  0  0  0  0  0  0  0  0
  142.4980   79.0740  217.0330 N   0  0  0  0  0  0  0  0  0  0  0  0
  141.6940   78.0310  216.4310 C   0  0  0  0  0  0  0  0  0  0  0  0
  140.3510   77.8920  217.1050 C   0  0  0  0  0  0  0  0  0  0  0  0
  140.2280   76.4490  217.5090 C   0  0  0  0  0  0  0  0  0  0  0  0
  141.6440   75.9900  217.6990 C   0  0  0  0  0  0  0  0  0  0  0  0
  142.3680   76.6950  216.5700 C   0  0  0  0  0  0  0  0  0  0  0  0
  142.1950   78.6960  219.4170 N   0  0  0  0  0  0  0  0  0  0  0  0
  141.8420   79.0980  220.6520 C   0  0  0  0  0  0  0  0  0  0  0  0
  140.4140   75.6110  221.5260 C   0  0  0  0  0  0  0  0  0  0  0  0
  140.0880   74.2850  221.7250 C   0  0  0  0  0  0  0  0  0  0  0  0
  140.9440   73.2610  221.3970 C   0  0  0  0  0  0  0  0  0  0  0  0
  142.1700   73.5820  220.8500 C   0  0  0  0  0  0  0  0  0  0  0  0
  143.0410   72.5660  220.5140 C   0  0  0  0  0  0  0  0  0  0  0  0
  144.2710   72.8750  219.9650 C   0  0  0  0  0  0  0  0  0  0  0  0
  145.1140   71.8750  219.6420 F   0  0  0  0  0  0  0  0  0  0  0  0
  144.6190   74.2110  219.7550 C   0  0  0  0  0  0  0  0  0  0  0  0
  143.7120   75.1940  220.1070 C   0  0  0  0  0  0  0  0  0  0  0  0
  142.4770   74.9140  220.6570 C   0  0  0  0  0  0  0  0  0  0  0  0
  141.6250   75.9140  220.9850 N   0  0  0  0  0  0  0  0  0  0  0  0
  139.9920   78.0870  220.4410 H   0  0  0  0  0  0  0  0  0  0  0  0
  138.1102   79.5599  220.9419 H   0  0  0  0  0  0  0  0  0  0  0  0
  137.4121   78.2973  221.9765 H   0  0  0  0  0  0  0  0  0  0  0  0
  140.8351   79.2678  224.9287 H   0  0  0  0  0  0  0  0  0  0  0  0
  141.3907   78.1756  223.6453 H   0  0  0  0  0  0  0  0  0  0  0  0
  142.8547   80.2859  224.8213 H   0  0  0  0  0  0  0  0  0  0  0  0
  143.2995   79.4163  223.3357 H   0  0  0  0  0  0  0  0  0  0  0  0
  141.9938   82.1144  223.6695 H   0  0  0  0  0  0  0  0  0  0  0  0
  143.0522   81.5780  222.3775 H   0  0  0  0  0  0  0  0  0  0  0  0
  140.3113   81.7324  222.0258 H   0  0  0  0  0  0  0  0  0  0  0  0
  140.9589   82.2381  219.8524 H   0  0  0  0  0  0  0  0  0  0  0  0
  143.3180   79.5130  216.5620 H   0  0  0  0  0  0  0  0  0  0  0  0
  141.5684   78.3189  215.3768 H   0  0  0  0  0  0  0  0  0  0  0  0
  140.3009   78.5412  217.9916 H   0  0  0  0  0  0  0  0  0  0  0  0
  139.5335   78.1894  216.4318 H   0  0  0  0  0  0  0  0  0  0  0  0
  139.6596   76.3547  218.4461 H   0  0  0  0  0  0  0  0  0  0  0  0
  139.6908   75.8491  216.7596 H   0  0  0  0  0  0  0  0  0  0  0  0
  142.0354   76.3014  218.6787 H   0  0  0  0  0  0  0  0  0  0  0  0
  141.7581   74.8961  217.6794 H   0  0  0  0  0  0  0  0  0  0  0  0
  143.4317   76.8253  216.8180 H   0  0  0  0  0  0  0  0  0  0  0  0
  142.3246   76.1175  215.6348 H   0  0  0  0  0  0  0  0  0  0  0  0
  141.9172   78.4009  221.4996 H   0  0  0  0  0  0  0  0  0  0  0  0
  139.1087   74.0389  222.1614 H   0  0  0  0  0  0  0  0  0  0  0  0
  140.6593   72.2120  221.5661 H   0  0  0  0  0  0  0  0  0  0  0  0
  142.7580   71.5164  220.6821 H   0  0  0  0  0  0  0  0  0  0  0  0
  145.5936   74.4759  219.3190 H   0  0  0  0  0  0  0  0  0  0  0  0
  143.9869   76.2461  219.9413 H   0  0  0  0  0  0  0  0  0  0  0  0
  1  2  2  0
  2  3  1  0
  3  4  1  0
  4  5  1  0
  5  6  2  0
  5  7  1  0
  7  8  1  0
  8  9  1  0
  9 10  1  0
 10 11  1  0
 11 12  1  0
 12 13  2  0
 13 14  1  0
 14 15  2  0
 15 16  1  0
 16 17  1  0
 17 18  1  0
 18 19  1  0
 19 20  1  0
 20 21  1  0
 15 22  1  0
 22 23  2  0
  2 24  1  0
 24 25  2  0
 25 26  1  0
 26 27  2  0
 27 28  1  0
 28 29  2  0
 29 30  1  0
 29 31  1  0
 31 32  2  0
 32 33  1  0
 33 34  2  0
 11  7  1  0
 23 12  1  0
 34 24  1  0
 21 17  1  0
 33 27  1  0
  3 35  1  0
  4 36  1  0
  4 37  1  0
  8 38  1  0
  8 39  1  0
  9 40  1  0
  9 41  1  0
 10 42  1  0
 10 43  1  0
 11 44  1  6
 13 45  1  0
 16 46  1  0
 17 47  1  0
 18 48  1  0
 18 49  1  0
 19 50  1  0
 19 51  1  0
 20 52  1  0
 20 53  1  0
 21 54  1  0
 21 55  1  0
 23 56  1  0
 25 57  1  0
 26 58  1  0
 28 59  1  0
 31 60  1  0
 32 61  1  0
M  END
>  <smiles>  (23) 
O=C(NCC(=O)N1CCC[C@H]1c1cnc(NC2CCCC2)nc1)c1ccc2cc(F)ccc2n1

>  <score_type>  (23) 
oracle

>  <origin>  (23) 
autodockgpu

>  <m_score__min__energy>  (23) 
-9.4299999999999997

>  <m_primary>  (23) 
energy

>  <rmsd>  (23) 
6.934776256213439

>  <m_score__min__rmsd>  (23) 
6.934776256213439

>  <meeko>  (23) 
{"free_energy": -6.49, "intermolecular_energy": -8.58, "internal_energy": -3.39, "cluster_size": 5, "cluster_id": 10, "rank_in_cluster": 5}

>  <energy>  (23) 
-8.62

>  <cluster_rmsd>  (23) 
1.19

>  <cluster>  (23) 
3

$$$$

     RDKit          3D

 61 65  0  0  0  0  0  0  0  0999 V2000
  140.5030   73.3780  222.7200 O   0  0  0  0  0  0  0  0  0  0  0  0
  140.1130   72.1710  222.5980 C   0  0  0  0  0  0  0  0  0  0  0  0
  139.7180   71.7620  221.3120 N   0  0  0  0  0  0  0  0  0  0  0  0
  139.7970   72.7690  220.2440 C   0  0  0  0  0  0  0  0  0  0  0  0
  140.9740   72.4100  219.4110 C   0  0  0  0  0  0  0  0  0  0  0  0
  140.9500   71.4270  218.6010 O   0  0  0  0  0  0  0  0  0  0  0  0
  142.1950   73.1360  219.4610 N   0  0  0  0  0  0  0  0  0  0  0  0
  143.1400   73.1510  218.3560 C   0  0  0  0  0  0  0  0  0  0  0  0
  144.3640   73.8600  218.8540 C   0  0  0  0  0  0  0  0  0  0  0  0
  144.1980   74.0280  220.3530 C   0  0  0  0  0  0  0  0  0  0  0  0
  142.6980   73.9450  220.5550 C   0  0  1  0  0  0  0  0  0  0  0  0
  142.1070   75.3090  220.5770 C   0  0  0  0  0  0  0  0  0  0  0  0
  142.7390   76.3890  219.9970 C   0  0  0  0  0  0  0  0  0  0  0  0
  142.2040   77.6270  220.0170 N   0  0  0  0  0  0  0  0  0  0  0  0
  141.0150   77.8550  220.6140 C   0  0  0  0  0  0  0  0  0  0  0  0
  140.4790   79.1760  220.6160 N   0  0  0  0  0  0  0  0  0  0  0  0
  140.7750   80.0010  221.7690 C   0  0  0  0  0  0  0  0  0  0  0  0
  142.2350   80.3770  221.8340 C   0  0  0  0  0  0  0  0  0  0  0  0
  142.7200   79.9550  223.1930 C   0  0  0  0  0  0  0  0  0  0  0  0
  141.8270   78.8100  223.5720 C   0  0  0  0  0  0  0  0  0  0  0  0
  140.4800   79.2600  223.0420 C   0  0  0  0  0  0  0  0  0  0  0  0
  140.3800   76.8140  221.1880 N   0  0  0  0  0  0  0  0  0  0  0  0
  140.8830   75.5650  221.1870 C   0  0  0  0  0  0  0  0  0  0  0  0
  140.0880   71.2820  223.7530 C   0  0  0  0  0  0  0  0  0  0  0  0
  139.5490   70.0190  223.6160 C   0  0  0  0  0  0  0  0  0  0  0  0
  139.4920   69.1270  224.6620 C   0  0  0  0  0  0  0  0  0  0  0  0
  139.9960   69.5200  225.8850 C   0  0  0  0  0  0  0  0  0  0  0  0
  139.9470   68.6370  226.9450 C   0  0  0  0  0  0  0  0  0  0  0  0
  140.4480   69.0190  228.1740 C   0  0  0  0  0  0  0  0  0  0  0  0
  140.3950   68.1500  229.2020 F   0  0  0  0  0  0  0  0  0  0  0  0
  140.9990   70.2940  228.3330 C   0  0  0  0  0  0  0  0  0  0  0  0
  141.0250   71.1420  227.2400 C   0  0  0  0  0  0  0  0  0  0  0  0
  140.5320   70.7870  226.0010 C   0  0  0  0  0  0  0  0  0  0  0  0
  140.5810   71.6560  224.9640 N   0  0  0  0  0  0  0  0  0  0  0  0
  139.3910   70.7970  221.1520 H   0  0  0  0  0  0  0  0  0  0  0  0
  138.8809   72.7500  219.6354 H   0  0  0  0  0  0  0  0  0  0  0  0
  139.8985   73.7823  220.6598 H   0  0  0  0  0  0  0  0  0  0  0  0
  143.3915   72.1228  218.0567 H   0  0  0  0  0  0  0  0  0  0  0  0
  142.7163   73.6577  217.4763 H   0  0  0  0  0  0  0  0  0  0  0  0
  145.2616   73.2621  218.6376 H   0  0  0  0  0  0  0  0  0  0  0  0
  144.4820   74.8355  218.3596 H   0  0  0  0  0  0  0  0  0  0  0  0
  144.7132   73.2234  220.8982 H   0  0  0  0  0  0  0  0  0  0  0  0
  144.6294   74.9675  220.7290 H   0  0  0  0  0  0  0  0  0  0  0  0
  142.4273   73.4875  221.5180 H   0  0  0  0  0  0  0  0  0  0  0  0
  143.7097   76.2359  219.5027 H   0  0  0  0  0  0  0  0  0  0  0  0
  139.9040   79.5010  219.8080 H   0  0  0  0  0  0  0  0  0  0  0  0
  140.1491   80.8996  221.6648 H   0  0  0  0  0  0  0  0  0  0  0  0
  142.7987   79.8521  221.0486 H   0  0  0  0  0  0  0  0  0  0  0  0
  142.3770   81.4564  221.6765 H   0  0  0  0  0  0  0  0  0  0  0  0
  143.7701   79.6306  223.1476 H   0  0  0  0  0  0  0  0  0  0  0  0
  142.6810   80.7757  223.9244 H   0  0  0  0  0  0  0  0  0  0  0  0
  142.1520   77.8755  223.0912 H   0  0  0  0  0  0  0  0  0  0  0  0
  141.8250   78.5918  224.6501 H   0  0  0  0  0  0  0  0  0  0  0  0
  139.8367   78.3908  222.8403 H   0  0  0  0  0  0  0  0  0  0  0  0
  139.9473   79.8924  223.7675 H   0  0  0  0  0  0  0  0  0  0  0  0
  140.3264   74.7473  221.6683 H   0  0  0  0  0  0  0  0  0  0  0  0
  139.1511   69.7149  222.6366 H   0  0  0  0  0  0  0  0  0  0  0  0
  139.0559   68.1262  224.5268 H   0  0  0  0  0  0  0  0  0  0  0  0
  139.5117   67.6356  226.8116 H   0  0  0  0  0  0  0  0  0  0  0  0
  141.4025   70.6156  229.3045 H   0  0  0  0  0  0  0  0  0  0  0  0
  141.4586   72.1453  227.3644 H   0  0  0  0  0  0  0  0  0  0  0  0
  1  2  2  0
  2  3  1  0
  3  4  1  0
  4  5  1  0
  5  6  2  0
  5  7  1  0
  7  8  1  0
  8  9  1  0
  9 10  1  0
 10 11  1  0
 11 12  1  0
 12 13  2  0
 13 14  1  0
 14 15  2  0
 15 16  1  0
 16 17  1  0
 17 18  1  0
 18 19  1  0
 19 20  1  0
 20 21  1  0
 15 22  1  0
 22 23  2  0
  2 24  1  0
 24 25  2  0
 25 26  1  0
 26 27  2  0
 27 28  1  0
 28 29  2  0
 29 30  1  0
 29 31  1  0
 31 32  2  0
 32 33  1  0
 33 34  2  0
 11  7  1  0
 23 12  1  0
 34 24  1  0
 21 17  1  0
 33 27  1  0
  3 35  1  0
  4 36  1  0
  4 37  1  0
  8 38  1  0
  8 39  1  0
  9 40  1  0
  9 41  1  0
 10 42  1  0
 10 43  1  0
 11 44  1  1
 13 45  1  0
 16 46  1  0
 17 47  1  0
 18 48  1  0
 18 49  1  0
 19 50  1  0
 19 51  1  0
 20 52  1  0
 20 53  1  0
 21 54  1  0
 21 55  1  0
 23 56  1  0
 25 57  1  0
 26 58  1  0
 28 59  1  0
 31 60  1  0
 32 61  1  0
M  END
>  <smiles>  (24) 
O=C(NCC(=O)N1CCC[C@H]1c1cnc(NC2CCCC2)nc1)c1ccc2cc(F)ccc2n1

>  <score_type>  (24) 
oracle

>  <origin>  (24) 
autodockgpu

>  <m_score__min__energy>  (24) 
-9.4299999999999997

>  <m_primary>  (24) 
energy

>  <rmsd>  (24) 
3.024361349232771

>  <m_score__min__rmsd>  (24) 
3.024361349232771

>  <meeko>  (24) 
{"free_energy": -8.5, "intermolecular_energy": -10.59, "internal_energy": -1.68, "cluster_size": 10, "cluster_id": 2, "rank_in_cluster": 4}

>  <energy>  (24) 
-8.35

>  <cluster_rmsd>  (24) 
1.7

>  <cluster>  (24) 
3

$$$$

     RDKit          3D

 61 65  0  0  0  0  0  0  0  0999 V2000
  138.1470   70.6760  221.3320 O   0  0  0  0  0  0  0  0  0  0  0  0
  138.5170   71.3850  222.3230 C   0  0  0  0  0  0  0  0  0  0  0  0
  138.4440   72.7800  222.1650 N   0  0  0  0  0  0  0  0  0  0  0  0
  137.9460   73.2730  220.8720 C   0  0  0  0  0  0  0  0  0  0  0  0
  139.0090   72.9900  219.8740 C   0  0  0  0  0  0  0  0  0  0  0  0
  138.8110   72.2200  218.8790 O   0  0  0  0  0  0  0  0  0  0  0  0
  140.3110   73.5570  219.9610 N   0  0  0  0  0  0  0  0  0  0  0  0
  141.1790   73.7020  218.8040 C   0  0  0  0  0  0  0  0  0  0  0  0
  142.5080   74.1590  219.3250 C   0  0  0  0  0  0  0  0  0  0  0  0
  142.4580   74.0290  220.8360 C   0  0  0  0  0  0  0  0  0  0  0  0
  140.9760   74.0650  221.1460 C   0  0  1  0  0  0  0  0  0  0  0  0
  140.5560   75.4490  221.4900 C   0  0  0  0  0  0  0  0  0  0  0  0
  141.1710   76.5560  220.9450 C   0  0  0  0  0  0  0  0  0  0  0  0
  140.7910   77.8120  221.2560 N   0  0  0  0  0  0  0  0  0  0  0  0
  139.7810   78.0330  222.1250 C   0  0  0  0  0  0  0  0  0  0  0  0
  139.4060   79.3730  222.4310 N   0  0  0  0  0  0  0  0  0  0  0  0
  140.2670   80.1030  223.3380 C   0  0  0  0  0  0  0  0  0  0  0  0
  141.0610   81.1710  222.6270 C   0  0  0  0  0  0  0  0  0  0  0  0
  142.5050   80.9180  222.9610 C   0  0  0  0  0  0  0  0  0  0  0  0
  142.5760   79.4430  223.2290 C   0  0  0  0  0  0  0  0  0  0  0  0
  141.2770   79.1840  223.9660 C   0  0  0  0  0  0  0  0  0  0  0  0
  139.1660   76.9650  222.6700 N   0  0  0  0  0  0  0  0  0  0  0  0
  139.5180   75.6970  222.3830 C   0  0  0  0  0  0  0  0  0  0  0  0
  138.9910   70.7540  223.5490 C   0  0  0  0  0  0  0  0  0  0  0  0
  138.8290   69.3930  223.7100 C   0  0  0  0  0  0  0  0  0  0  0  0
  139.2520   68.7310  224.8390 C   0  0  0  0  0  0  0  0  0  0  0  0
  139.8560   69.4630  225.8390 C   0  0  0  0  0  0  0  0  0  0  0  0
  140.2870   68.8150  226.9790 C   0  0  0  0  0  0  0  0  0  0  0  0
  140.8930   69.5370  227.9880 C   0  0  0  0  0  0  0  0  0  0  0  0
  141.3090   68.8940  229.0960 F   0  0  0  0  0  0  0  0  0  0  0  0
  141.0670   70.9160  227.8440 C   0  0  0  0  0  0  0  0  0  0  0  0
  140.6200   71.5210  226.6830 C   0  0  0  0  0  0  0  0  0  0  0  0
  140.0100   70.8240  225.6600 C   0  0  0  0  0  0  0  0  0  0  0  0
  139.5890   71.4640  224.5430 N   0  0  0  0  0  0  0  0  0  0  0  0
  138.7310   73.4060  222.9330 H   0  0  0  0  0  0  0  0  0  0  0  0
  137.0183   72.7495  220.5976 H   0  0  0  0  0  0  0  0  0  0  0  0
  137.7195   74.3485  220.9173 H   0  0  0  0  0  0  0  0  0  0  0  0
  141.2851   72.7379  218.2851 H   0  0  0  0  0  0  0  0  0  0  0  0
  140.7648   74.4223  218.0832 H   0  0  0  0  0  0  0  0  0  0  0  0
  143.3114   73.5277  218.9175 H   0  0  0  0  0  0  0  0  0  0  0  0
  142.7119   75.1977  219.0259 H   0  0  0  0  0  0  0  0  0  0  0  0
  142.9051   73.0789  221.1638 H   0  0  0  0  0  0  0  0  0  0  0  0
  143.0227   74.8191  221.3526 H   0  0  0  0  0  0  0  0  0  0  0  0
  140.7134   73.4496  222.0191 H   0  0  0  0  0  0  0  0  0  0  0  0
  141.9977   76.4102  220.2341 H   0  0  0  0  0  0  0  0  0  0  0  0
  138.5460   79.7780  222.0030 H   0  0  0  0  0  0  0  0  0  0  0  0
  139.6006   80.5532  224.0885 H   0  0  0  0  0  0  0  0  0  0  0  0
  140.9039   81.1022  221.5404 H   0  0  0  0  0  0  0  0  0  0  0  0
  140.7486   82.1774  222.9426 H   0  0  0  0  0  0  0  0  0  0  0  0
  143.1533   81.1911  222.1154 H   0  0  0  0  0  0  0  0  0  0  0  0
  142.8468   81.5159  223.8187 H   0  0  0  0  0  0  0  0  0  0  0  0
  142.6228   78.8698  222.2913 H   0  0  0  0  0  0  0  0  0  0  0  0
  143.4701   79.1412  223.7943 H   0  0  0  0  0  0  0  0  0  0  0  0
  140.9693   78.1349  223.8450 H   0  0  0  0  0  0  0  0  0  0  0  0
  141.3779   79.3666  225.0460 H   0  0  0  0  0  0  0  0  0  0  0  0
  138.9852   74.8579  222.8543 H   0  0  0  0  0  0  0  0  0  0  0  0
  138.3446   68.8175  222.9074 H   0  0  0  0  0  0  0  0  0  0  0  0
  139.1119   67.6448  224.9415 H   0  0  0  0  0  0  0  0  0  0  0  0
  140.1484   67.7288  227.0832 H   0  0  0  0  0  0  0  0  0  0  0  0
  141.5488   71.5075  228.6364 H   0  0  0  0  0  0  0  0  0  0  0  0
  140.7570   72.6066  226.5702 H   0  0  0  0  0  0  0  0  0  0  0  0
  1  2  2  0
  2  3  1  0
  3  4  1  0
  4  5  1  0
  5  6  2  0
  5  7  1  0
  7  8  1  0
  8  9  1  0
  9 10  1  0
 10 11  1  0
 11 12  1  0
 12 13  2  0
 13 14  1  0
 14 15  2  0
 15 16  1  0
 16 17  1  0
 17 18  1  0
 18 19  1  0
 19 20  1  0
 20 21  1  0
 15 22  1  0
 22 23  2  0
  2 24  1  0
 24 25  2  0
 25 26  1  0
 26 27  2  0
 27 28  1  0
 28 29  2  0
 29 30  1  0
 29 31  1  0
 31 32  2  0
 32 33  1  0
 33 34  2  0
 11  7  1  0
 23 12  1  0
 34 24  1  0
 21 17  1  0
 33 27  1  0
  3 35  1  0
  4 36  1  0
  4 37  1  0
  8 38  1  0
  8 39  1  0
  9 40  1  0
  9 41  1  0
 10 42  1  0
 10 43  1  0
 11 44  1  1
 13 45  1  0
 16 46  1  0
 17 47  1  0
 18 48  1  0
 18 49  1  0
 19 50  1  0
 19 51  1  0
 20 52  1  0
 20 53  1  0
 21 54  1  0
 21 55  1  0
 23 56  1  0
 25 57  1  0
 26 58  1  0
 28 59  1  0
 31 60  1  0
 32 61  1  0
M  END
>  <smiles>  (25) 
O=C(NCC(=O)N1CCC[C@H]1c1cnc(NC2CCCC2)nc1)c1ccc2cc(F)ccc2n1

>  <score_type>  (25) 
oracle

>  <origin>  (25) 
autodockgpu

>  <m_score__min__energy>  (25) 
-9.4299999999999997

>  <m_primary>  (25) 
energy

>  <rmsd>  (25) 
2.254671107081839

>  <m_score__min__rmsd>  (25) 
2.254671107081839

>  <meeko>  (25) 
{"free_energy": -8.1, "intermolecular_energy": -10.19, "internal_energy": -1.85, "cluster_size": 10, "cluster_id": 2, "rank_in_cluster": 8}

>  <energy>  (25) 
-8.33

>  <cluster_rmsd>  (25) 
1.62

>  <cluster>  (25) 
3

$$$$

     RDKit          3D

 61 65  0  0  0  0  0  0  0  0999 V2000
  139.3700   75.0460  222.3770 O   0  0  0  0  0  0  0  0  0  0  0  0
  140.1780   75.3360  221.4360 C   0  0  0  0  0  0  0  0  0  0  0  0
  139.9270   76.5290  220.7340 N   0  0  0  0  0  0  0  0  0  0  0  0
  138.7610   77.3150  221.1620 C   0  0  0  0  0  0  0  0  0  0  0  0
  139.1870   78.0870  222.3580 C   0  0  0  0  0  0  0  0  0  0  0  0
  138.4440   78.1960  223.3880 O   0  0  0  0  0  0  0  0  0  0  0  0
  140.4420   78.7500  222.4330 N   0  0  0  0  0  0  0  0  0  0  0  0
  141.4460   78.4090  223.4290 C   0  0  0  0  0  0  0  0  0  0  0  0
  142.5320   79.4350  223.3030 C   0  0  0  0  0  0  0  0  0  0  0  0
  142.0080   80.5230  222.3840 C   0  0  0  0  0  0  0  0  0  0  0  0
  140.9280   79.8220  221.5860 C   0  0  1  0  0  0  0  0  0  0  0  0
  141.4790   79.3300  220.2970 C   0  0  0  0  0  0  0  0  0  0  0  0
  141.3360   80.0390  219.1220 C   0  0  0  0  0  0  0  0  0  0  0  0
  141.8360   79.5940  217.9520 N   0  0  0  0  0  0  0  0  0  0  0  0
  142.5020   78.4210  217.8870 C   0  0  0  0  0  0  0  0  0  0  0  0
  143.0160   77.9800  216.6330 N   0  0  0  0  0  0  0  0  0  0  0  0
  142.5630   76.6900  216.1560 C   0  0  0  0  0  0  0  0  0  0  0  0
  141.3520   76.2020  216.9110 C   0  0  0  0  0  0  0  0  0  0  0  0
  141.6990   74.8340  217.4280 C   0  0  0  0  0  0  0  0  0  0  0  0
  143.1920   74.8540  217.5750 C   0  0  0  0  0  0  0  0  0  0  0  0
  143.6260   75.6470  216.3580 C   0  0  0  0  0  0  0  0  0  0  0  0
  142.6530   77.7110  219.0230 N   0  0  0  0  0  0  0  0  0  0  0  0
  142.1680   78.1240  220.2090 C   0  0  0  0  0  0  0  0  0  0  0  0
  141.2970   74.4560  221.1230 C   0  0  0  0  0  0  0  0  0  0  0  0
  141.0730   73.0990  221.0090 C   0  0  0  0  0  0  0  0  0  0  0  0
  142.0810   72.2110  220.7160 C   0  0  0  0  0  0  0  0  0  0  0  0
  143.3560   72.7050  220.5320 C   0  0  0  0  0  0  0  0  0  0  0  0
  144.3800   71.8270  220.2370 C   0  0  0  0  0  0  0  0  0  0  0  0
  145.6600   72.3090  220.0500 C   0  0  0  0  0  0  0  0  0  0  0  0
  146.6510   71.4430  219.7630 F   0  0  0  0  0  0  0  0  0  0  0  0
  145.9070   73.6800  220.1610 C   0  0  0  0  0  0  0  0  0  0  0  0
  144.8490   74.5200  220.4570 C   0  0  0  0  0  0  0  0  0  0  0  0
  143.5600   74.0650  220.6490 C   0  0  0  0  0  0  0  0  0  0  0  0
  142.5590   74.9300  220.9380 N   0  0  0  0  0  0  0  0  0  0  0  0
  140.5470   76.8160  219.9610 H   0  0  0  0  0  0  0  0  0  0  0  0
  138.4491   77.9995  220.3594 H   0  0  0  0  0  0  0  0  0  0  0  0
  137.9059   76.6631  221.3938 H   0  0  0  0  0  0  0  0  0  0  0  0
  141.0077   78.4406  224.4374 H   0  0  0  0  0  0  0  0  0  0  0  0
  141.8366   77.3930  223.2702 H   0  0  0  0  0  0  0  0  0  0  0  0
  142.7701   79.8567  224.2907 H   0  0  0  0  0  0  0  0  0  0  0  0
  143.4511   78.9869  222.8976 H   0  0  0  0  0  0  0  0  0  0  0  0
  141.5889   81.3589  222.9633 H   0  0  0  0  0  0  0  0  0  0  0  0
  142.7920   80.9627  221.7500 H   0  0  0  0  0  0  0  0  0  0  0  0
  140.0998   80.4941  221.3169 H   0  0  0  0  0  0  0  0  0  0  0  0
  140.7969   80.9977  219.1406 H   0  0  0  0  0  0  0  0  0  0  0  0
  143.6860   78.5840  216.1100 H   0  0  0  0  0  0  0  0  0  0  0  0
  142.3233   76.8299  215.0916 H   0  0  0  0  0  0  0  0  0  0  0  0
  141.1266   76.8794  217.7479 H   0  0  0  0  0  0  0  0  0  0  0  0
  140.4634   76.1707  216.2633 H   0  0  0  0  0  0  0  0  0  0  0  0
  141.2154   74.6513  218.3989 H   0  0  0  0  0  0  0  0  0  0  0  0
  141.3562   74.0339  216.7554 H   0  0  0  0  0  0  0  0  0  0  0  0
  143.4939   75.3560  218.5060 H   0  0  0  0  0  0  0  0  0  0  0  0
  143.6424   73.8520  217.6314 H   0  0  0  0  0  0  0  0  0  0  0  0
  144.6016   76.1225  216.5373 H   0  0  0  0  0  0  0  0  0  0  0  0
  143.7397   75.0044  215.4725 H   0  0  0  0  0  0  0  0  0  0  0  0
  142.3163   77.5083  221.1084 H   0  0  0  0  0  0  0  0  0  0  0  0
  140.0531   72.7147  221.1576 H   0  0  0  0  0  0  0  0  0  0  0  0
  141.8760   71.1337  220.6304 H   0  0  0  0  0  0  0  0  0  0  0  0
  144.1769   70.7493  220.1515 H   0  0  0  0  0  0  0  0  0  0  0  0
  146.9206   74.0821  220.0161 H   0  0  0  0  0  0  0  0  0  0  0  0
  145.0434   75.5992  220.5433 H   0  0  0  0  0  0  0  0  0  0  0  0
  1  2  2  0
  2  3  1  0
  3  4  1  0
  4  5  1  0
  5  6  2  0
  5  7  1  0
  7  8  1  0
  8  9  1  0
  9 10  1  0
 10 11  1  0
 11 12  1  0
 12 13  2  0
 13 14  1  0
 14 15  2  0
 15 16  1  0
 16 17  1  0
 17 18  1  0
 18 19  1  0
 19 20  1  0
 20 21  1  0
 15 22  1  0
 22 23  2  0
  2 24  1  0
 24 25  2  0
 25 26  1  0
 26 27  2  0
 27 28  1  0
 28 29  2  0
 29 30  1  0
 29 31  1  0
 31 32  2  0
 32 33  1  0
 33 34  2  0
 11  7  1  0
 23 12  1  0
 34 24  1  0
 21 17  1  0
 33 27  1  0
  3 35  1  0
  4 36  1  0
  4 37  1  0
  8 38  1  0
  8 39  1  0
  9 40  1  0
  9 41  1  0
 10 42  1  0
 10 43  1  0
 11 44  1  6
 13 45  1  0
 16 46  1  0
 17 47  1  0
 18 48  1  0
 18 49  1  0
 19 50  1  0
 19 51  1  0
 20 52  1  0
 20 53  1  0
 21 54  1  0
 21 55  1  0
 23 56  1  0
 25 57  1  0
 26 58  1  0
 28 59  1  0
 31 60  1  0
 32 61  1  0
M  END
>  <smiles>  (26) 
O=C(NCC(=O)N1CCC[C@H]1c1cnc(NC2CCCC2)nc1)c1ccc2cc(F)ccc2n1

>  <score_type>  (26) 
oracle

>  <origin>  (26) 
autodockgpu

>  <m_score__min__energy>  (26) 
-9.4299999999999997

>  <m_primary>  (26) 
energy

>  <rmsd>  (26) 
6.4765848866234

>  <m_score__min__rmsd>  (26) 
6.4765848866234

>  <meeko>  (26) 
{"free_energy": -6.78, "intermolecular_energy": -8.86, "internal_energy": -3.33, "cluster_size": 5, "cluster_id": 10, "rank_in_cluster": 2}

>  <energy>  (26) 
-8.28

>  <cluster_rmsd>  (26) 
1.82

>  <cluster>  (26) 
3

$$$$

     RDKit          3D

 61 65  0  0  0  0  0  0  0  0999 V2000
  141.2190   72.3850  221.6390 O   0  0  0  0  0  0  0  0  0  0  0  0
  140.3010   72.5010  222.5150 C   0  0  0  0  0  0  0  0  0  0  0  0
  139.3990   73.5670  222.3480 N   0  0  0  0  0  0  0  0  0  0  0  0
  139.6090   74.4330  221.1790 C   0  0  0  0  0  0  0  0  0  0  0  0
  139.6850   75.8250  221.6930 C   0  0  0  0  0  0  0  0  0  0  0  0
  139.0930   76.1810  222.7640 O   0  0  0  0  0  0  0  0  0  0  0  0
  140.4180   76.8460  221.0280 N   0  0  0  0  0  0  0  0  0  0  0  0
  140.9860   77.9840  221.7330 C   0  0  0  0  0  0  0  0  0  0  0  0
  141.5120   78.9150  220.6820 C   0  0  0  0  0  0  0  0  0  0  0  0
  141.0040   78.4040  219.3470 C   0  0  0  0  0  0  0  0  0  0  0  0
  140.7180   76.9410  219.6120 C   0  0  1  0  0  0  0  0  0  0  0  0
  141.8840   76.1090  219.2170 C   0  0  0  0  0  0  0  0  0  0  0  0
  142.9610   75.9140  220.0560 C   0  0  0  0  0  0  0  0  0  0  0  0
  144.0200   75.1590  219.6980 N   0  0  0  0  0  0  0  0  0  0  0  0
  144.0630   74.5590  218.4890 C   0  0  0  0  0  0  0  0  0  0  0  0
  145.1980   73.7690  218.1430 N   0  0  0  0  0  0  0  0  0  0  0  0
  145.2880   72.4540  218.7430 C   0  0  0  0  0  0  0  0  0  0  0  0
  144.0140   71.6650  218.5680 C   0  0  0  0  0  0  0  0  0  0  0  0
  143.5940   71.2300  219.9450 C   0  0  0  0  0  0  0  0  0  0  0  0
  144.1630   72.2740  220.8600 C   0  0  0  0  0  0  0  0  0  0  0  0
  145.5090   72.5620  220.2260 C   0  0  0  0  0  0  0  0  0  0  0  0
  143.0210   74.7360  217.6520 N   0  0  0  0  0  0  0  0  0  0  0  0
  141.9480   75.4820  217.9750 C   0  0  0  0  0  0  0  0  0  0  0  0
  140.2160   71.5610  223.6270 C   0  0  0  0  0  0  0  0  0  0  0  0
  139.6290   70.3290  223.4210 C   0  0  0  0  0  0  0  0  0  0  0  0
  139.5150   69.3940  224.4230 C   0  0  0  0  0  0  0  0  0  0  0  0
  140.0070   69.7100  225.6720 C   0  0  0  0  0  0  0  0  0  0  0  0
  139.9010   68.7820  226.6890 C   0  0  0  0  0  0  0  0  0  0  0  0
  140.3900   69.0860  227.9440 C   0  0  0  0  0  0  0  0  0  0  0  0
  140.2800   68.1730  228.9290 F   0  0  0  0  0  0  0  0  0  0  0  0
  140.9880   70.3280  228.1730 C   0  0  0  0  0  0  0  0  0  0  0  0
  141.0710   71.2240  227.1220 C   0  0  0  0  0  0  0  0  0  0  0  0
  140.5910   70.9470  225.8580 C   0  0  0  0  0  0  0  0  0  0  0  0
  140.6980   71.8590  224.8630 N   0  0  0  0  0  0  0  0  0  0  0  0
  138.6350   73.7120  223.0260 H   0  0  0  0  0  0  0  0  0  0  0  0
  140.5465   74.1640  220.6704 H   0  0  0  0  0  0  0  0  0  0  0  0
  138.7925   74.3222  220.4503 H   0  0  0  0  0  0  0  0  0  0  0  0
  140.2115   78.4854  222.3319 H   0  0  0  0  0  0  0  0  0  0  0  0
  141.7841   77.6684  222.4210 H   0  0  0  0  0  0  0  0  0  0  0  0
  141.1430   79.9356  220.8617 H   0  0  0  0  0  0  0  0  0  0  0  0
  142.6114   78.9473  220.6989 H   0  0  0  0  0  0  0  0  0  0  0  0
  140.0889   78.9349  219.0456 H   0  0  0  0  0  0  0  0  0  0  0  0
  141.7227   78.5579  218.5286 H   0  0  0  0  0  0  0  0  0  0  0  0
  139.8706   76.5643  219.0204 H   0  0  0  0  0  0  0  0  0  0  0  0
  142.9563   76.3890  221.0482 H   0  0  0  0  0  0  0  0  0  0  0  0
  145.9110   74.1510  217.4850 H   0  0  0  0  0  0  0  0  0  0  0  0
  146.1261   71.9499  218.2396 H   0  0  0  0  0  0  0  0  0  0  0  0
  143.2352   72.2951  218.1136 H   0  0  0  0  0  0  0  0  0  0  0  0
  144.1671   70.8006  217.9051 H   0  0  0  0  0  0  0  0  0  0  0  0
  142.4974   71.1990  220.0251 H   0  0  0  0  0  0  0  0  0  0  0  0
  143.9515   70.2192  220.1910 H   0  0  0  0  0  0  0  0  0  0  0  0
  143.5310   73.1741  220.8788 H   0  0  0  0  0  0  0  0  0  0  0  0
  144.2311   71.9498  221.9089 H   0  0  0  0  0  0  0  0  0  0  0  0
  145.8497   73.5738  220.4909 H   0  0  0  0  0  0  0  0  0  0  0  0
  146.2818   71.8611  220.5747 H   0  0  0  0  0  0  0  0  0  0  0  0
  141.1217   75.5964  217.2580 H   0  0  0  0  0  0  0  0  0  0  0  0
  139.2391   70.0867  222.4214 H   0  0  0  0  0  0  0  0  0  0  0  0
  139.0433   68.4186  224.2330 H   0  0  0  0  0  0  0  0  0  0  0  0
  139.4297   67.8061  226.5004 H   0  0  0  0  0  0  0  0  0  0  0  0
  141.3837   70.5874  229.1661 H   0  0  0  0  0  0  0  0  0  0  0  0
  141.5411   72.2020  227.3021 H   0  0  0  0  0  0  0  0  0  0  0  0
  1  2  2  0
  2  3  1  0
  3  4  1  0
  4  5  1  0
  5  6  2  0
  5  7  1  0
  7  8  1  0
  8  9  1  0
  9 10  1  0
 10 11  1  0
 11 12  1  0
 12 13  2  0
 13 14  1  0
 14 15  2  0
 15 16  1  0
 16 17  1  0
 17 18  1  0
 18 19  1  0
 19 20  1  0
 20 21  1  0
 15 22  1  0
 22 23  2  0
  2 24  1  0
 24 25  2  0
 25 26  1  0
 26 27  2  0
 27 28  1  0
 28 29  2  0
 29 30  1  0
 29 31  1  0
 31 32  2  0
 32 33  1  0
 33 34  2  0
 11  7  1  0
 23 12  1  0
 34 24  1  0
 21 17  1  0
 33 27  1  0
  3 35  1  0
  4 36  1  0
  4 37  1  0
  8 38  1  0
  8 39  1  0
  9 40  1  0
  9 41  1  0
 10 42  1  0
 10 43  1  0
 11 44  1  6
 13 45  1  0
 16 46  1  0
 17 47  1  0
 18 48  1  0
 18 49  1  0
 19 50  1  0
 19 51  1  0
 20 52  1  0
 20 53  1  0
 21 54  1  0
 21 55  1  0
 23 56  1  0
 25 57  1  0
 26 58  1  0
 28 59  1  0
 31 60  1  0
 32 61  1  0
M  END
>  <smiles>  (27) 
O=C(NCC(=O)N1CCC[C@H]1c1cnc(NC2CCCC2)nc1)c1ccc2cc(F)ccc2n1

>  <score_type>  (27) 
oracle

>  <origin>  (27) 
autodockgpu

>  <m_score__min__energy>  (27) 
-9.4299999999999997

>  <m_primary>  (27) 
energy

>  <rmsd>  (27) 
2.3804944268545225

>  <m_score__min__rmsd>  (27) 
2.3804944268545225

>  <meeko>  (27) 
{"free_energy": -8.32, "intermolecular_energy": -10.41, "internal_energy": -2.2, "cluster_size": 7, "cluster_id": 4, "rank_in_cluster": 6}

>  <energy>  (27) 
-8.26

>  <cluster_rmsd>  (27) 
1.51

>  <cluster>  (27) 
3

$$$$

     RDKit          3D

 61 65  0  0  0  0  0  0  0  0999 V2000
  141.1300   74.1790  221.7210 O   0  0  0  0  0  0  0  0  0  0  0  0
  139.9590   74.6460  221.9030 C   0  0  0  0  0  0  0  0  0  0  0  0
  138.8860   73.7600  221.7010 N   0  0  0  0  0  0  0  0  0  0  0  0
  139.2290   72.3870  221.3030 C   0  0  0  0  0  0  0  0  0  0  0  0
  138.0090   71.5670  221.5170 C   0  0  0  0  0  0  0  0  0  0  0  0
  136.9010   72.0880  221.8680 O   0  0  0  0  0  0  0  0  0  0  0  0
  137.9960   70.1560  221.3450 N   0  0  0  0  0  0  0  0  0  0  0  0
  138.8010   69.4850  220.3360 C   0  0  0  0  0  0  0  0  0  0  0  0
  138.3790   68.0460  220.3460 C   0  0  0  0  0  0  0  0  0  0  0  0
  137.1340   67.9570  221.2070 C   0  0  0  0  0  0  0  0  0  0  0  0
  137.2280   69.1810  222.0950 C   0  0  1  0  0  0  0  0  0  0  0  0
  137.8610   68.8270  223.3930 C   0  0  0  0  0  0  0  0  0  0  0  0
  138.7560   67.7830  223.5090 C   0  0  0  0  0  0  0  0  0  0  0  0
  139.3310   67.4610  224.6850 N   0  0  0  0  0  0  0  0  0  0  0  0
  139.0480   68.1590  225.8060 C   0  0  0  0  0  0  0  0  0  0  0  0
  139.6740   67.7910  227.0330 N   0  0  0  0  0  0  0  0  0  0  0  0
  140.7000   68.6790  227.5360 C   0  0  0  0  0  0  0  0  0  0  0  0
  140.1200   69.8110  228.3470 C   0  0  0  0  0  0  0  0  0  0  0  0
  140.6470   71.0810  227.7370 C   0  0  0  0  0  0  0  0  0  0  0  0
  140.9010   70.7310  226.3010 C   0  0  0  0  0  0  0  0  0  0  0  0
  141.4490   69.3210  226.4030 C   0  0  0  0  0  0  0  0  0  0  0  0
  138.1760   69.1830  225.7160 N   0  0  0  0  0  0  0  0  0  0  0  0
  137.5830   69.5330  224.5590 C   0  0  0  0  0  0  0  0  0  0  0  0
  139.7700   76.0370  222.2990 C   0  0  0  0  0  0  0  0  0  0  0  0
  140.8780   76.8350  222.4970 C   0  0  0  0  0  0  0  0  0  0  0  0
  140.7760   78.1540  222.8710 C   0  0  0  0  0  0  0  0  0  0  0  0
  139.5160   78.6870  223.0520 C   0  0  0  0  0  0  0  0  0  0  0  0
  139.3950   80.0100  223.4270 C   0  0  0  0  0  0  0  0  0  0  0  0
  138.1390   80.5550  223.6110 C   0  0  0  0  0  0  0  0  0  0  0  0
  138.0330   81.8470  223.9770 F   0  0  0  0  0  0  0  0  0  0  0  0
  137.0050   79.7640  223.4140 C   0  0  0  0  0  0  0  0  0  0  0  0
  137.1780   78.4440  223.0380 C   0  0  0  0  0  0  0  0  0  0  0  0
  138.4200   77.8730  222.8480 C   0  0  0  0  0  0  0  0  0  0  0  0
  138.5340   76.5750  222.4800 N   0  0  0  0  0  0  0  0  0  0  0  0
  137.9150   74.0810  221.8310 H   0  0  0  0  0  0  0  0  0  0  0  0
  139.5230   72.3610  220.2433 H   0  0  0  0  0  0  0  0  0  0  0  0
  140.0745   72.0022  221.8921 H   0  0  0  0  0  0  0  0  0  0  0  0
  138.6175   69.9284  219.3462 H   0  0  0  0  0  0  0  0  0  0  0  0
  139.8751   69.5871  220.5500 H   0  0  0  0  0  0  0  0  0  0  0  0
  138.1557   67.7104  219.3225 H   0  0  0  0  0  0  0  0  0  0  0  0
  139.1790   67.4043  220.7438 H   0  0  0  0  0  0  0  0  0  0  0  0
  136.2252   67.9894  220.5882 H   0  0  0  0  0  0  0  0  0  0  0  0
  137.0744   67.0183  221.7773 H   0  0  0  0  0  0  0  0  0  0  0  0
  136.2407   69.5939  222.3495 H   0  0  0  0  0  0  0  0  0  0  0  0
  139.0081   67.1953  222.6140 H   0  0  0  0  0  0  0  0  0  0  0  0
  139.3800   66.9160  227.5190 H   0  0  0  0  0  0  0  0  0  0  0  0
  141.3575   68.0554  228.1595 H   0  0  0  0  0  0  0  0  0  0  0  0
  139.0213   69.7916  228.2966 H   0  0  0  0  0  0  0  0  0  0  0  0
  140.4029   69.7293  229.4069 H   0  0  0  0  0  0  0  0  0  0  0  0
  139.9031   71.8875  227.8148 H   0  0  0  0  0  0  0  0  0  0  0  0
  141.5523   71.4447  228.2452 H   0  0  0  0  0  0  0  0  0  0  0  0
  139.9706   70.7551  225.7147 H   0  0  0  0  0  0  0  0  0  0  0  0
  141.5792   71.4308  225.7908 H   0  0  0  0  0  0  0  0  0  0  0  0
  141.2734   68.7718  225.4662 H   0  0  0  0  0  0  0  0  0  0  0  0
  142.5349   69.3174  226.5784 H   0  0  0  0  0  0  0  0  0  0  0  0
  136.8785   70.3775  224.5357 H   0  0  0  0  0  0  0  0  0  0  0  0
  141.8779   76.4007  222.3505 H   0  0  0  0  0  0  0  0  0  0  0  0
  141.6756   78.7687  223.0221 H   0  0  0  0  0  0  0  0  0  0  0  0
  140.2933   80.6266  223.5784 H   0  0  0  0  0  0  0  0  0  0  0  0
  135.9970   80.1812  223.5547 H   0  0  0  0  0  0  0  0  0  0  0  0
  136.2847   77.8210  222.8834 H   0  0  0  0  0  0  0  0  0  0  0  0
  1  2  2  0
  2  3  1  0
  3  4  1  0
  4  5  1  0
  5  6  2  0
  5  7  1  0
  7  8  1  0
  8  9  1  0
  9 10  1  0
 10 11  1  0
 11 12  1  0
 12 13  2  0
 13 14  1  0
 14 15  2  0
 15 16  1  0
 16 17  1  0
 17 18  1  0
 18 19  1  0
 19 20  1  0
 20 21  1  0
 15 22  1  0
 22 23  2  0
  2 24  1  0
 24 25  2  0
 25 26  1  0
 26 27  2  0
 27 28  1  0
 28 29  2  0
 29 30  1  0
 29 31  1  0
 31 32  2  0
 32 33  1  0
 33 34  2  0
 11  7  1  0
 23 12  1  0
 34 24  1  0
 21 17  1  0
 33 27  1  0
  3 35  1  0
  4 36  1  0
  4 37  1  0
  8 38  1  0
  8 39  1  0
  9 40  1  0
  9 41  1  0
 10 42  1  0
 10 43  1  0
 11 44  1  1
 13 45  1  0
 16 46  1  0
 17 47  1  0
 18 48  1  0
 18 49  1  0
 19 50  1  0
 19 51  1  0
 20 52  1  0
 20 53  1  0
 21 54  1  0
 21 55  1  0
 23 56  1  0
 25 57  1  0
 26 58  1  0
 28 59  1  0
 31 60  1  0
 32 61  1  0
M  END
>  <smiles>  (28) 
O=C(NCC(=O)N1CCC[C@H]1c1cnc(NC2CCCC2)nc1)c1ccc2cc(F)ccc2n1

>  <score_type>  (28) 
oracle

>  <origin>  (28) 
autodockgpu

>  <m_score__min__energy>  (28) 
-9.4299999999999997

>  <m_primary>  (28) 
energy

>  <rmsd>  (28) 
8.446119395442913

>  <m_score__min__rmsd>  (28) 
8.446119395442913

>  <meeko>  (28) 
{"free_energy": -8.06, "intermolecular_energy": -10.14, "internal_energy": -2.25, "cluster_size": 8, "cluster_id": 1, "rank_in_cluster": 6}

>  <energy>  (28) 
-8.25

>  <cluster_rmsd>  (28) 
1.36

>  <cluster>  (28) 
3

$$$$

     RDKit          3D

 61 65  0  0  0  0  0  0  0  0999 V2000
  140.9560   72.5560  221.5910 O   0  0  0  0  0  0  0  0  0  0  0  0
  140.0390   72.5610  222.4750 C   0  0  0  0  0  0  0  0  0  0  0  0
  139.0400   73.5410  222.3430 N   0  0  0  0  0  0  0  0  0  0  0  0
  139.1580   74.4550  221.1980 C   0  0  0  0  0  0  0  0  0  0  0  0
  139.0830   75.8330  221.7470 C   0  0  0  0  0  0  0  0  0  0  0  0
  138.1160   76.2120  222.4860 O   0  0  0  0  0  0  0  0  0  0  0  0
  140.0780   76.8150  221.4880 N   0  0  0  0  0  0  0  0  0  0  0  0
  140.5360   77.7500  222.5040 C   0  0  0  0  0  0  0  0  0  0  0  0
  141.4350   78.7260  221.8070 C   0  0  0  0  0  0  0  0  0  0  0  0
  141.2820   78.4820  220.3170 C   0  0  0  0  0  0  0  0  0  0  0  0
  140.7800   77.0540  220.2420 C   0  0  1  0  0  0  0  0  0  0  0  0
  141.9180   76.1200  220.0360 C   0  0  0  0  0  0  0  0  0  0  0  0
  142.6770   76.1350  218.8840 C   0  0  0  0  0  0  0  0  0  0  0  0
  143.7080   75.2880  218.6960 N   0  0  0  0  0  0  0  0  0  0  0  0
  144.0400   74.3820  219.6410 C   0  0  0  0  0  0  0  0  0  0  0  0
  145.1370   73.5020  219.4090 N   0  0  0  0  0  0  0  0  0  0  0  0
  145.0840   72.2060  220.0520 C   0  0  0  0  0  0  0  0  0  0  0  0
  145.9310   71.1840  219.3350 C   0  0  0  0  0  0  0  0  0  0  0  0
  145.0260   70.0220  219.0350 C   0  0  0  0  0  0  0  0  0  0  0  0
  143.6560   70.6260  218.9380 C   0  0  0  0  0  0  0  0  0  0  0  0
  143.6820   71.6650  220.0410 C   0  0  0  0  0  0  0  0  0  0  0  0
  143.3120   74.3500  220.7750 N   0  0  0  0  0  0  0  0  0  0  0  0
  142.2750   75.1800  220.9980 C   0  0  0  0  0  0  0  0  0  0  0  0
  140.0510   71.5870  223.5600 C   0  0  0  0  0  0  0  0  0  0  0  0
  139.5390   70.3250  223.3360 C   0  0  0  0  0  0  0  0  0  0  0  0
  139.5180   69.3570  224.3120 C   0  0  0  0  0  0  0  0  0  0  0  0
  140.0300   69.6690  225.5550 C   0  0  0  0  0  0  0  0  0  0  0  0
  140.0170   68.7090  226.5460 C   0  0  0  0  0  0  0  0  0  0  0  0
  140.5260   69.0090  227.7940 C   0  0  0  0  0  0  0  0  0  0  0  0
  140.5080   68.0640  228.7540 F   0  0  0  0  0  0  0  0  0  0  0  0
  141.0500   70.2810  228.0410 C   0  0  0  0  0  0  0  0  0  0  0  0
  141.0410   71.2090  227.0160 C   0  0  0  0  0  0  0  0  0  0  0  0
  140.5390   70.9360  225.7600 C   0  0  0  0  0  0  0  0  0  0  0  0
  140.5530   71.8810  224.7900 N   0  0  0  0  0  0  0  0  0  0  0  0
  138.2710   73.5950  223.0290 H   0  0  0  0  0  0  0  0  0  0  0  0
  140.1201   74.3016  220.6872 H   0  0  0  0  0  0  0  0  0  0  0  0
  138.3592   74.2762  220.4631 H   0  0  0  0  0  0  0  0  0  0  0  0
  139.6793   78.2748  222.9518 H   0  0  0  0  0  0  0  0  0  0  0  0
  141.0658   77.2292  223.3152 H   0  0  0  0  0  0  0  0  0  0  0  0
  141.1383   79.7561  222.0538 H   0  0  0  0  0  0  0  0  0  0  0  0
  142.4803   78.5919  222.1221 H   0  0  0  0  0  0  0  0  0  0  0  0
  140.5530   79.1786  219.8773 H   0  0  0  0  0  0  0  0  0  0  0  0
  142.2173   78.6372  219.7592 H   0  0  0  0  0  0  0  0  0  0  0  0
  140.1030   76.8892  219.3908 H   0  0  0  0  0  0  0  0  0  0  0  0
  142.4329   76.8610  218.0944 H   0  0  0  0  0  0  0  0  0  0  0  0
  145.9230   73.8090  218.7970 H   0  0  0  0  0  0  0  0  0  0  0  0
  145.4540   72.3631  221.0759 H   0  0  0  0  0  0  0  0  0  0  0  0
  146.3297   71.6072  218.4013 H   0  0  0  0  0  0  0  0  0  0  0  0
  146.7894   70.8742  219.9492 H   0  0  0  0  0  0  0  0  0  0  0  0
  145.3084   69.5448  218.0850 H   0  0  0  0  0  0  0  0  0  0  0  0
  145.0834   69.2384  219.8048 H   0  0  0  0  0  0  0  0  0  0  0  0
  143.4951   71.0926  217.9550 H   0  0  0  0  0  0  0  0  0  0  0  0
  142.8429   69.8926  219.0430 H   0  0  0  0  0  0  0  0  0  0  0  0
  142.9617   72.4688  219.8287 H   0  0  0  0  0  0  0  0  0  0  0  0
  143.4041   71.2335  221.0139 H   0  0  0  0  0  0  0  0  0  0  0  0
  141.7106   75.1149  221.9399 H   0  0  0  0  0  0  0  0  0  0  0  0
  139.1336   70.0854  222.3419 H   0  0  0  0  0  0  0  0  0  0  0  0
  139.1035   68.3589  224.1073 H   0  0  0  0  0  0  0  0  0  0  0  0
  139.6034   67.7101  226.3430 H   0  0  0  0  0  0  0  0  0  0  0  0
  141.4604   70.5380  229.0287 H   0  0  0  0  0  0  0  0  0  0  0  0
  141.4527   72.2103  227.2107 H   0  0  0  0  0  0  0  0  0  0  0  0
  1  2  2  0
  2  3  1  0
  3  4  1  0
  4  5  1  0
  5  6  2  0
  5  7  1  0
  7  8  1  0
  8  9  1  0
  9 10  1  0
 10 11  1  0
 11 12  1  0
 12 13  2  0
 13 14  1  0
 14 15  2  0
 15 16  1  0
 16 17  1  0
 17 18  1  0
 18 19  1  0
 19 20  1  0
 20 21  1  0
 15 22  1  0
 22 23  2  0
  2 24  1  0
 24 25  2  0
 25 26  1  0
 26 27  2  0
 27 28  1  0
 28 29  2  0
 29 30  1  0
 29 31  1  0
 31 32  2  0
 32 33  1  0
 33 34  2  0
 11  7  1  0
 23 12  1  0
 34 24  1  0
 21 17  1  0
 33 27  1  0
  3 35  1  0
  4 36  1  0
  4 37  1  0
  8 38  1  0
  8 39  1  0
  9 40  1  0
  9 41  1  0
 10 42  1  0
 10 43  1  0
 11 44  1  6
 13 45  1  0
 16 46  1  0
 17 47  1  0
 18 48  1  0
 18 49  1  0
 19 50  1  0
 19 51  1  0
 20 52  1  0
 20 53  1  0
 21 54  1  0
 21 55  1  0
 23 56  1  0
 25 57  1  0
 26 58  1  0
 28 59  1  0
 31 60  1  0
 32 61  1  0
M  END
>  <smiles>  (29) 
O=C(NCC(=O)N1CCC[C@H]1c1cnc(NC2CCCC2)nc1)c1ccc2cc(F)ccc2n1

>  <score_type>  (29) 
oracle

>  <origin>  (29) 
autodockgpu

>  <m_score__min__energy>  (29) 
-9.4299999999999997

>  <m_primary>  (29) 
energy

>  <rmsd>  (29) 
2.533666986046672

>  <m_score__min__rmsd>  (29) 
2.533666986046672

>  <meeko>  (29) 
{"free_energy": -8.48, "intermolecular_energy": -10.57, "internal_energy": -1.84, "cluster_size": 7, "cluster_id": 4, "rank_in_cluster": 3}

>  <energy>  (29) 
-8.25

>  <cluster_rmsd>  (29) 
0.92

>  <cluster>  (29) 
3

$$$$

     RDKit          3D

 61 65  0  0  0  0  0  0  0  0999 V2000
  140.3120   73.4140  222.7150 O   0  0  0  0  0  0  0  0  0  0  0  0
  139.9610   72.1960  222.5900 C   0  0  0  0  0  0  0  0  0  0  0  0
  139.5350   71.7900  221.3130 N   0  0  0  0  0  0  0  0  0  0  0  0
  139.5390   72.8130  220.2580 C   0  0  0  0  0  0  0  0  0  0  0  0
  140.6830   72.4960  219.3650 C   0  0  0  0  0  0  0  0  0  0  0  0
  140.5410   71.7890  218.3140 O   0  0  0  0  0  0  0  0  0  0  0  0
  142.0040   72.9570  219.6210 N   0  0  0  0  0  0  0  0  0  0  0  0
  143.1070   72.7110  218.7070 C   0  0  0  0  0  0  0  0  0  0  0  0
  144.3480   73.1830  219.4040 C   0  0  0  0  0  0  0  0  0  0  0  0
  143.9640   73.4720  220.8430 C   0  0  0  0  0  0  0  0  0  0  0  0
  142.4690   73.7110  220.7690 C   0  0  1  0  0  0  0  0  0  0  0  0
  142.1870   75.1660  220.6530 C   0  0  0  0  0  0  0  0  0  0  0  0
  141.2160   75.7850  221.4120 C   0  0  0  0  0  0  0  0  0  0  0  0
  140.9590   77.1040  221.3070 N   0  0  0  0  0  0  0  0  0  0  0  0
  141.6530   77.8770  220.4430 C   0  0  0  0  0  0  0  0  0  0  0  0
  141.3550   79.2680  220.3580 N   0  0  0  0  0  0  0  0  0  0  0  0
  141.6220   80.0680  221.5340 C   0  0  0  0  0  0  0  0  0  0  0  0
  142.5830   79.3860  222.4750 C   0  0  0  0  0  0  0  0  0  0  0  0
  141.9030   79.3430  223.8160 C   0  0  0  0  0  0  0  0  0  0  0  0
  140.4380   79.3390  223.4940 C   0  0  0  0  0  0  0  0  0  0  0  0
  140.3610   80.2940  222.3200 C   0  0  0  0  0  0  0  0  0  0  0  0
  142.6060   77.2920  219.6910 N   0  0  0  0  0  0  0  0  0  0  0  0
  142.8910   75.9790  219.7680 C   0  0  0  0  0  0  0  0  0  0  0  0
  140.0100   71.2900  223.7310 C   0  0  0  0  0  0  0  0  0  0  0  0
  139.5420   70.0000  223.5860 C   0  0  0  0  0  0  0  0  0  0  0  0
  139.5580   69.0920  224.6180 C   0  0  0  0  0  0  0  0  0  0  0  0
  140.0610   69.4960  225.8380 C   0  0  0  0  0  0  0  0  0  0  0  0
  140.0840   68.5970  226.8850 C   0  0  0  0  0  0  0  0  0  0  0  0
  140.5850   68.9910  228.1110 C   0  0  0  0  0  0  0  0  0  0  0  0
  140.6020   68.1050  229.1260 F   0  0  0  0  0  0  0  0  0  0  0  0
  141.0640   70.2920  228.2780 C   0  0  0  0  0  0  0  0  0  0  0  0
  141.0200   71.1560  227.1990 C   0  0  0  0  0  0  0  0  0  0  0  0
  140.5250   70.7900  225.9640 C   0  0  0  0  0  0  0  0  0  0  0  0
  140.5040   71.6750  224.9380 N   0  0  0  0  0  0  0  0  0  0  0  0
  139.2380   70.8150  221.1500 H   0  0  0  0  0  0  0  0  0  0  0  0
  138.5957   72.7795  219.6931 H   0  0  0  0  0  0  0  0  0  0  0  0
  139.6358   73.8225  220.6841 H   0  0  0  0  0  0  0  0  0  0  0  0
  143.1822   71.6369  218.4820 H   0  0  0  0  0  0  0  0  0  0  0  0
  142.9599   73.2392  217.7534 H   0  0  0  0  0  0  0  0  0  0  0  0
  145.1217   72.4019  219.3688 H   0  0  0  0  0  0  0  0  0  0  0  0
  144.7545   74.0819  218.9174 H   0  0  0  0  0  0  0  0  0  0  0  0
  144.1933   72.6134  221.4912 H   0  0  0  0  0  0  0  0  0  0  0  0
  144.5135   74.3238  221.2703 H   0  0  0  0  0  0  0  0  0  0  0  0
  141.9431   73.3783  221.6761 H   0  0  0  0  0  0  0  0  0  0  0  0
  140.6332   75.1836  222.1252 H   0  0  0  0  0  0  0  0  0  0  0  0
  140.9640   79.6580  219.4730 H   0  0  0  0  0  0  0  0  0  0  0  0
  142.0487   81.0122  221.1646 H   0  0  0  0  0  0  0  0  0  0  0  0
  142.7993   78.3659  222.1249 H   0  0  0  0  0  0  0  0  0  0  0  0
  143.5398   79.9259  222.5294 H   0  0  0  0  0  0  0  0  0  0  0  0
  142.1830   78.4318  224.3649 H   0  0  0  0  0  0  0  0  0  0  0  0
  142.1881   80.1902  224.4570 H   0  0  0  0  0  0  0  0  0  0  0  0
  140.0952   78.3326  223.2116 H   0  0  0  0  0  0  0  0  0  0  0  0
  139.8007   79.6316  224.3415 H   0  0  0  0  0  0  0  0  0  0  0  0
  139.4782   80.0730  221.7021 H   0  0  0  0  0  0  0  0  0  0  0  0
  140.2681   81.3392  222.6501 H   0  0  0  0  0  0  0  0  0  0  0  0
  143.6791   75.5484  219.1327 H   0  0  0  0  0  0  0  0  0  0  0  0
  139.1420   69.6872  222.6102 H   0  0  0  0  0  0  0  0  0  0  0  0
  139.1794   68.0692  224.4750 H   0  0  0  0  0  0  0  0  0  0  0  0
  139.7060   67.5736  226.7444 H   0  0  0  0  0  0  0  0  0  0  0  0
  141.4675   70.6224  229.2465 H   0  0  0  0  0  0  0  0  0  0  0  0
  141.3965   72.1811  227.3312 H   0  0  0  0  0  0  0  0  0  0  0  0
  1  2  2  0
  2  3  1  0
  3  4  1  0
  4  5  1  0
  5  6  2  0
  5  7  1  0
  7  8  1  0
  8  9  1  0
  9 10  1  0
 10 11  1  0
 11 12  1  0
 12 13  2  0
 13 14  1  0
 14 15  2  0
 15 16  1  0
 16 17  1  0
 17 18  1  0
 18 19  1  0
 19 20  1  0
 20 21  1  0
 15 22  1  0
 22 23  2  0
  2 24  1  0
 24 25  2  0
 25 26  1  0
 26 27  2  0
 27 28  1  0
 28 29  2  0
 29 30  1  0
 29 31  1  0
 31 32  2  0
 32 33  1  0
 33 34  2  0
 11  7  1  0
 23 12  1  0
 34 24  1  0
 21 17  1  0
 33 27  1  0
  3 35  1  0
  4 36  1  0
  4 37  1  0
  8 38  1  0
  8 39  1  0
  9 40  1  0
  9 41  1  0
 10 42  1  0
 10 43  1  0
 11 44  1  1
 13 45  1  0
 16 46  1  0
 17 47  1  0
 18 48  1  0
 18 49  1  0
 19 50  1  0
 19 51  1  0
 20 52  1  0
 20 53  1  0
 21 54  1  0
 21 55  1  0
 23 56  1  0
 25 57  1  0
 26 58  1  0
 28 59  1  0
 31 60  1  0
 32 61  1  0
M  END
>  <smiles>  (30) 
O=C(NCC(=O)N1CCC[C@H]1c1cnc(NC2CCCC2)nc1)c1ccc2cc(F)ccc2n1

>  <score_type>  (30) 
oracle

>  <origin>  (30) 
autodockgpu

>  <m_score__min__energy>  (30) 
-9.4299999999999997

>  <m_primary>  (30) 
energy

>  <rmsd>  (30) 
3.147712978161917

>  <m_score__min__rmsd>  (30) 
3.147712978161917

>  <meeko>  (30) 
{"free_energy": -8.49, "intermolecular_energy": -10.58, "internal_energy": -1.77, "cluster_size": 10, "cluster_id": 2, "rank_in_cluster": 5}

>  <energy>  (30) 
-8.18

>  <cluster_rmsd>  (30) 
1.64

>  <cluster>  (30) 
3

$$$$

     RDKit          3D

 61 65  0  0  0  0  0  0  0  0999 V2000
  141.6640   73.7780  220.7770 O   0  0  0  0  0  0  0  0  0  0  0  0
  140.8910   74.5260  221.4590 C   0  0  0  0  0  0  0  0  0  0  0  0
  139.8330   73.8930  222.1340 N   0  0  0  0  0  0  0  0  0  0  0  0
  139.7310   72.4350  221.9830 C   0  0  0  0  0  0  0  0  0  0  0  0
  138.2830   72.1050  222.0280 C   0  0  0  0  0  0  0  0  0  0  0  0
  137.4000   72.9830  222.2990 O   0  0  0  0  0  0  0  0  0  0  0  0
  137.7880   70.7960  221.7720 N   0  0  0  0  0  0  0  0  0  0  0  0
  138.0790   70.0790  220.5410 C   0  0  0  0  0  0  0  0  0  0  0  0
  137.2430   68.8350  220.5690 C   0  0  0  0  0  0  0  0  0  0  0  0
  136.2730   68.9790  221.7260 C   0  0  0  0  0  0  0  0  0  0  0  0
  136.9540   69.9830  222.6350 C   0  0  1  0  0  0  0  0  0  0  0  0
  137.7320   69.2780  223.6870 C   0  0  0  0  0  0  0  0  0  0  0  0
  138.4680   68.1430  223.4150 C   0  0  0  0  0  0  0  0  0  0  0  0
  139.1740   67.5030  224.3680 N   0  0  0  0  0  0  0  0  0  0  0  0
  139.1870   67.9570  225.6410 C   0  0  0  0  0  0  0  0  0  0  0  0
  139.9450   67.2550  226.6230 N   0  0  0  0  0  0  0  0  0  0  0  0
  141.0480   67.9680  227.2320 C   0  0  0  0  0  0  0  0  0  0  0  0
  140.6320   68.6760  228.4980 C   0  0  0  0  0  0  0  0  0  0  0  0
  141.0300   70.1160  228.3260 C   0  0  0  0  0  0  0  0  0  0  0  0
  141.0040   70.3400  226.8430 C   0  0  0  0  0  0  0  0  0  0  0  0
  141.5630   69.0360  226.3090 C   0  0  0  0  0  0  0  0  0  0  0  0
  138.4750   69.0640  225.9290 N   0  0  0  0  0  0  0  0  0  0  0  0
  137.7580   69.7300  225.0040 C   0  0  0  0  0  0  0  0  0  0  0  0
  141.1170   75.9660  221.5170 C   0  0  0  0  0  0  0  0  0  0  0  0
  141.5380   76.6260  220.3810 C   0  0  0  0  0  0  0  0  0  0  0  0
  141.7700   77.9820  220.3630 C   0  0  0  0  0  0  0  0  0  0  0  0
  141.5710   78.6950  221.5270 C   0  0  0  0  0  0  0  0  0  0  0  0
  141.7980   80.0570  221.5260 C   0  0  0  0  0  0  0  0  0  0  0  0
  141.6030   80.7820  222.6850 C   0  0  0  0  0  0  0  0  0  0  0  0
  141.8290   82.1100  222.6730 F   0  0  0  0  0  0  0  0  0  0  0  0
  141.1750   80.1320  223.8460 C   0  0  0  0  0  0  0  0  0  0  0  0
  140.9600   78.7660  223.7960 C   0  0  0  0  0  0  0  0  0  0  0  0
  141.1480   78.0170  222.6530 C   0  0  0  0  0  0  0  0  0  0  0  0
  140.9230   76.6810  222.6570 N   0  0  0  0  0  0  0  0  0  0  0  0
  139.1730   74.4480  222.7010 H   0  0  0  0  0  0  0  0  0  0  0  0
  140.1621   72.1218  221.0207 H   0  0  0  0  0  0  0  0  0  0  0  0
  140.2821   71.9137  222.7796 H   0  0  0  0  0  0  0  0  0  0  0  0
  137.8143   70.6959  219.6696 H   0  0  0  0  0  0  0  0  0  0  0  0
  139.1496   69.8387  220.4626 H   0  0  0  0  0  0  0  0  0  0  0  0
  136.6905   68.7297  219.6236 H   0  0  0  0  0  0  0  0  0  0  0  0
  137.8725   67.9415  220.6932 H   0  0  0  0  0  0  0  0  0  0  0  0
  135.3007   69.3588  221.3791 H   0  0  0  0  0  0  0  0  0  0  0  0
  136.0585   68.0235  222.2271 H   0  0  0  0  0  0  0  0  0  0  0  0
  136.2362   70.6193  223.1734 H   0  0  0  0  0  0  0  0  0  0  0  0
  138.4788   67.7483  222.3883 H   0  0  0  0  0  0  0  0  0  0  0  0
  139.6880   66.2740  226.8680 H   0  0  0  0  0  0  0  0  0  0  0  0
  141.8147   67.2094  227.4482 H   0  0  0  0  0  0  0  0  0  0  0  0
  139.5441   68.5957  228.6395 H   0  0  0  0  0  0  0  0  0  0  0  0
  141.1127   68.2309  229.3816 H   0  0  0  0  0  0  0  0  0  0  0  0
  140.3137   70.7801  228.8319 H   0  0  0  0  0  0  0  0  0  0  0  0
  142.0158   70.3320  228.7638 H   0  0  0  0  0  0  0  0  0  0  0  0
  139.9783   70.5104  226.4839 H   0  0  0  0  0  0  0  0  0  0  0  0
  141.5706   71.2264  226.5216 H   0  0  0  0  0  0  0  0  0  0  0  0
  141.2105   68.8589  225.2822 H   0  0  0  0  0  0  0  0  0  0  0  0
  142.6624   69.0483  226.2738 H   0  0  0  0  0  0  0  0  0  0  0  0
  137.1934   70.6302  225.2884 H   0  0  0  0  0  0  0  0  0  0  0  0
  141.6935   76.0483  219.4579 H   0  0  0  0  0  0  0  0  0  0  0  0
  142.1056   78.4847  219.4440 H   0  0  0  0  0  0  0  0  0  0  0  0
  142.1322   80.5615  220.6074 H   0  0  0  0  0  0  0  0  0  0  0  0
  141.0128   80.6934  224.7779 H   0  0  0  0  0  0  0  0  0  0  0  0
  140.6238   78.2539  224.7096 H   0  0  0  0  0  0  0  0  0  0  0  0
  1  2  2  0
  2  3  1  0
  3  4  1  0
  4  5  1  0
  5  6  2  0
  5  7  1  0
  7  8  1  0
  8  9  1  0
  9 10  1  0
 10 11  1  0
 11 12  1  0
 12 13  2  0
 13 14  1  0
 14 15  2  0
 15 16  1  0
 16 17  1  0
 17 18  1  0
 18 19  1  0
 19 20  1  0
 20 21  1  0
 15 22  1  0
 22 23  2  0
  2 24  1  0
 24 25  2  0
 25 26  1  0
 26 27  2  0
 27 28  1  0
 28 29  2  0
 29 30  1  0
 29 31  1  0
 31 32  2  0
 32 33  1  0
 33 34  2  0
 11  7  1  0
 23 12  1  0
 34 24  1  0
 21 17  1  0
 33 27  1  0
  3 35  1  0
  4 36  1  0
  4 37  1  0
  8 38  1  0
  8 39  1  0
  9 40  1  0
  9 41  1  0
 10 42  1  0
 10 43  1  0
 11 44  1  1
 13 45  1  0
 16 46  1  0
 17 47  1  0
 18 48  1  0
 18 49  1  0
 19 50  1  0
 19 51  1  0
 20 52  1  0
 20 53  1  0
 21 54  1  0
 21 55  1  0
 23 56  1  0
 25 57  1  0
 26 58  1  0
 28 59  1  0
 31 60  1  0
 32 61  1  0
M  END
>  <smiles>  (31) 
O=C(NCC(=O)N1CCC[C@H]1c1cnc(NC2CCCC2)nc1)c1ccc2cc(F)ccc2n1

>  <score_type>  (31) 
oracle

>  <origin>  (31) 
autodockgpu

>  <m_score__min__energy>  (31) 
-9.4299999999999997

>  <m_primary>  (31) 
energy

>  <rmsd>  (31) 
8.426728761593777

>  <m_score__min__rmsd>  (31) 
8.426728761593777

>  <meeko>  (31) 
{"free_energy": -8.83, "intermolecular_energy": -10.92, "internal_energy": -1.95, "cluster_size": 8, "cluster_id": 1, "rank_in_cluster": 2}

>  <energy>  (31) 
-7.98

>  <cluster_rmsd>  (31) 
1.43

>  <cluster>  (31) 
3

$$$$

     RDKit          3D

 61 65  0  0  0  0  0  0  0  0999 V2000
  140.6930   73.3800  222.3090 O   0  0  0  0  0  0  0  0  0  0  0  0
  140.0820   72.2620  222.2980 C   0  0  0  0  0  0  0  0  0  0  0  0
  139.4990   71.8730  221.0800 N   0  0  0  0  0  0  0  0  0  0  0  0
  139.6560   72.7960  219.9470 C   0  0  0  0  0  0  0  0  0  0  0  0
  138.3440   73.4670  219.7620 C   0  0  0  0  0  0  0  0  0  0  0  0
  137.6710   73.3450  218.6860 O   0  0  0  0  0  0  0  0  0  0  0  0
  137.7540   74.2830  220.7660 N   0  0  0  0  0  0  0  0  0  0  0  0
  137.2490   73.7400  222.0160 C   0  0  0  0  0  0  0  0  0  0  0  0
  136.5500   74.8660  222.7160 C   0  0  0  0  0  0  0  0  0  0  0  0
  136.4440   76.0060  221.7210 C   0  0  0  0  0  0  0  0  0  0  0  0
  137.5570   75.7200  220.7340 C   0  0  1  0  0  0  0  0  0  0  0  0
  138.7820   76.4740  221.1070 C   0  0  0  0  0  0  0  0  0  0  0  0
  139.1720   77.6140  220.4340 C   0  0  0  0  0  0  0  0  0  0  0  0
  140.2830   78.2990  220.7710 N   0  0  0  0  0  0  0  0  0  0  0  0
  141.0640   77.8890  221.7940 C   0  0  0  0  0  0  0  0  0  0  0  0
  142.2310   78.6380  222.1230 N   0  0  0  0  0  0  0  0  0  0  0  0
  142.0580   79.7580  223.0230 C   0  0  0  0  0  0  0  0  0  0  0  0
  140.8120   79.6230  223.8620 C   0  0  0  0  0  0  0  0  0  0  0  0
  140.0210   80.8850  223.6510 C   0  0  0  0  0  0  0  0  0  0  0  0
  140.4210   81.3550  222.2830 C   0  0  0  0  0  0  0  0  0  0  0  0
  141.9030   81.0390  222.2520 C   0  0  0  0  0  0  0  0  0  0  0  0
  140.7020   76.7780  222.4650 N   0  0  0  0  0  0  0  0  0  0  0  0
  139.6000   76.0680  222.1580 C   0  0  0  0  0  0  0  0  0  0  0  0
  140.0070   71.4480  223.5060 C   0  0  0  0  0  0  0  0  0  0  0  0
  139.3180   70.2530  223.4690 C   0  0  0  0  0  0  0  0  0  0  0  0
  139.2070   69.4350  224.5680 C   0  0  0  0  0  0  0  0  0  0  0  0
  139.8090   69.8340  225.7440 C   0  0  0  0  0  0  0  0  0  0  0  0
  139.7070   69.0240  226.8570 C   0  0  0  0  0  0  0  0  0  0  0  0
  140.3050   69.4120  228.0400 C   0  0  0  0  0  0  0  0  0  0  0  0
  140.1990   68.6150  229.1210 F   0  0  0  0  0  0  0  0  0  0  0  0
  141.0080   70.6190  228.0980 C   0  0  0  0  0  0  0  0  0  0  0  0
  141.0820   71.3950  226.9560 C   0  0  0  0  0  0  0  0  0  0  0  0
  140.4940   71.0320  225.7610 C   0  0  0  0  0  0  0  0  0  0  0  0
  140.5960   71.8290  224.6710 N   0  0  0  0  0  0  0  0  0  0  0  0
  138.9900   70.9780  221.0100 H   0  0  0  0  0  0  0  0  0  0  0  0
  140.4351   73.5402  220.1688 H   0  0  0  0  0  0  0  0  0  0  0  0
  139.9589   72.2586  219.0363 H   0  0  0  0  0  0  0  0  0  0  0  0
  136.5436   72.9198  221.8168 H   0  0  0  0  0  0  0  0  0  0  0  0
  138.0645   73.3332  222.6319 H   0  0  0  0  0  0  0  0  0  0  0  0
  135.5465   74.5480  223.0351 H   0  0  0  0  0  0  0  0  0  0  0  0
  137.1055   75.1770  223.6130 H   0  0  0  0  0  0  0  0  0  0  0  0
  135.4643   76.0012  221.2208 H   0  0  0  0  0  0  0  0  0  0  0  0
  136.5341   76.9956  222.1927 H   0  0  0  0  0  0  0  0  0  0  0  0
  137.3081   76.0450  219.7130 H   0  0  0  0  0  0  0  0  0  0  0  0
  138.5570   77.9749  219.5964 H   0  0  0  0  0  0  0  0  0  0  0  0
  143.1520   78.3630  221.7160 H   0  0  0  0  0  0  0  0  0  0  0  0
  142.9530   79.7704  223.6624 H   0  0  0  0  0  0  0  0  0  0  0  0
  140.2279   78.7489  223.5382 H   0  0  0  0  0  0  0  0  0  0  0  0
  141.0593   79.4795  224.9242 H   0  0  0  0  0  0  0  0  0  0  0  0
  138.9413   80.6784  223.6908 H   0  0  0  0  0  0  0  0  0  0  0  0
  140.2207   81.6385  224.4271 H   0  0  0  0  0  0  0  0  0  0  0  0
  139.8801   80.8048  221.4990 H   0  0  0  0  0  0  0  0  0  0  0  0
  140.1932   82.4151  222.0980 H   0  0  0  0  0  0  0  0  0  0  0  0
  142.2462   80.9074  221.2152 H   0  0  0  0  0  0  0  0  0  0  0  0
  142.5023   81.8520  222.6877 H   0  0  0  0  0  0  0  0  0  0  0  0
  139.3461   75.1679  222.7371 H   0  0  0  0  0  0  0  0  0  0  0  0
  138.8409   69.9443  222.5271 H   0  0  0  0  0  0  0  0  0  0  0  0
  138.6525   68.4866  224.5116 H   0  0  0  0  0  0  0  0  0  0  0  0
  139.1529   68.0753  226.8021 H   0  0  0  0  0  0  0  0  0  0  0  0
  141.4914   70.9440  229.0311 H   0  0  0  0  0  0  0  0  0  0  0  0
  141.6347   72.3450  227.0018 H   0  0  0  0  0  0  0  0  0  0  0  0
  1  2  2  0
  2  3  1  0
  3  4  1  0
  4  5  1  0
  5  6  2  0
  5  7  1  0
  7  8  1  0
  8  9  1  0
  9 10  1  0
 10 11  1  0
 11 12  1  0
 12 13  2  0
 13 14  1  0
 14 15  2  0
 15 16  1  0
 16 17  1  0
 17 18  1  0
 18 19  1  0
 19 20  1  0
 20 21  1  0
 15 22  1  0
 22 23  2  0
  2 24  1  0
 24 25  2  0
 25 26  1  0
 26 27  2  0
 27 28  1  0
 28 29  2  0
 29 30  1  0
 29 31  1  0
 31 32  2  0
 32 33  1  0
 33 34  2  0
 11  7  1  0
 23 12  1  0
 34 24  1  0
 21 17  1  0
 33 27  1  0
  3 35  1  0
  4 36  1  0
  4 37  1  0
  8 38  1  0
  8 39  1  0
  9 40  1  0
  9 41  1  0
 10 42  1  0
 10 43  1  0
 11 44  1  6
 13 45  1  0
 16 46  1  0
 17 47  1  0
 18 48  1  0
 18 49  1  0
 19 50  1  0
 19 51  1  0
 20 52  1  0
 20 53  1  0
 21 54  1  0
 21 55  1  0
 23 56  1  0
 25 57  1  0
 26 58  1  0
 28 59  1  0
 31 60  1  0
 32 61  1  0
M  END
>  <smiles>  (32) 
O=C(NCC(=O)N1CCC[C@H]1c1cnc(NC2CCCC2)nc1)c1ccc2cc(F)ccc2n1

>  <score_type>  (32) 
oracle

>  <origin>  (32) 
autodockgpu

>  <m_score__min__energy>  (32) 
-9.4299999999999997

>  <m_primary>  (32) 
energy

>  <rmsd>  (32) 
3.2689069288436245

>  <m_score__min__rmsd>  (32) 
3.2689069288436245

>  <meeko>  (32) 
{"free_energy": -8.28, "intermolecular_energy": -10.37, "internal_energy": -1.95, "cluster_size": 13, "cluster_id": 3, "rank_in_cluster": 8}

>  <energy>  (32) 
-8.67

>  <cluster_rmsd>  (32) 
0.0

>  <cluster>  (32) 
4

$$$$

     RDKit          3D

 61 65  0  0  0  0  0  0  0  0999 V2000
  141.0030   72.3300  221.5900 O   0  0  0  0  0  0  0  0  0  0  0  0
  140.1250   72.4600  222.5040 C   0  0  0  0  0  0  0  0  0  0  0  0
  139.1940   73.5010  222.3420 N   0  0  0  0  0  0  0  0  0  0  0  0
  139.3320   74.3290  221.1360 C   0  0  0  0  0  0  0  0  0  0  0  0
  139.1200   75.7360  221.5610 C   0  0  0  0  0  0  0  0  0  0  0  0
  137.9910   76.1500  221.9810 O   0  0  0  0  0  0  0  0  0  0  0  0
  140.1580   76.7080  221.5300 N   0  0  0  0  0  0  0  0  0  0  0  0
  140.6450   77.3680  222.7310 C   0  0  0  0  0  0  0  0  0  0  0  0
  141.5900   78.4380  222.2720 C   0  0  0  0  0  0  0  0  0  0  0  0
  141.4390   78.5450  220.7670 C   0  0  0  0  0  0  0  0  0  0  0  0
  140.8790   77.1940  220.3700 C   0  0  1  0  0  0  0  0  0  0  0  0
  141.9780   76.2840  219.9550 C   0  0  0  0  0  0  0  0  0  0  0  0
  142.6740   76.4660  218.7780 C   0  0  0  0  0  0  0  0  0  0  0  0
  143.6710   75.6410  218.4010 N   0  0  0  0  0  0  0  0  0  0  0  0
  144.0290   74.5920  219.1730 C   0  0  0  0  0  0  0  0  0  0  0  0
  145.0880   73.7400  218.7430 N   0  0  0  0  0  0  0  0  0  0  0  0
  144.7580   72.3490  218.5150 C   0  0  0  0  0  0  0  0  0  0  0  0
  143.2890   72.1560  218.2300 C   0  0  0  0  0  0  0  0  0  0  0  0
  142.7970   71.1330  219.2160 C   0  0  0  0  0  0  0  0  0  0  0  0
  143.7120   71.2780  220.3970 C   0  0  0  0  0  0  0  0  0  0  0  0
  145.0550   71.5270  219.7380 C   0  0  0  0  0  0  0  0  0  0  0  0
  143.3630   74.3950  220.3270 N   0  0  0  0  0  0  0  0  0  0  0  0
  142.3620   75.1980  220.7370 C   0  0  0  0  0  0  0  0  0  0  0  0
  140.1110   71.5590  223.6510 C   0  0  0  0  0  0  0  0  0  0  0  0
  139.5820   70.2930  223.5050 C   0  0  0  0  0  0  0  0  0  0  0  0
  139.5360   69.3920  224.5420 C   0  0  0  0  0  0  0  0  0  0  0  0
  140.0400   69.7770  225.7670 C   0  0  0  0  0  0  0  0  0  0  0  0
  140.0030   68.8840  226.8190 C   0  0  0  0  0  0  0  0  0  0  0  0
  140.5050   69.2580  228.0500 C   0  0  0  0  0  0  0  0  0  0  0  0
  140.4620   68.3790  229.0700 F   0  0  0  0  0  0  0  0  0  0  0  0
  141.0460   70.5360  228.2180 C   0  0  0  0  0  0  0  0  0  0  0  0
  141.0620   71.3940  227.1340 C   0  0  0  0  0  0  0  0  0  0  0  0
  140.5670   71.0470  225.8930 C   0  0  0  0  0  0  0  0  0  0  0  0
  140.6060   71.9260  224.8640 N   0  0  0  0  0  0  0  0  0  0  0  0
  138.4600   73.6560  223.0510 H   0  0  0  0  0  0  0  0  0  0  0  0
  140.3377   74.2096  220.7067 H   0  0  0  0  0  0  0  0  0  0  0  0
  138.6041   74.0331  220.3662 H   0  0  0  0  0  0  0  0  0  0  0  0
  139.8068   77.8135  223.2869 H   0  0  0  0  0  0  0  0  0  0  0  0
  141.1454   76.6552  223.4029 H   0  0  0  0  0  0  0  0  0  0  0  0
  141.3346   79.3969  222.7467 H   0  0  0  0  0  0  0  0  0  0  0  0
  142.6263   78.1916  222.5466 H   0  0  0  0  0  0  0  0  0  0  0  0
  140.7430   79.3533  220.4983 H   0  0  0  0  0  0  0  0  0  0  0  0
  142.3845   78.7830  220.2577 H   0  0  0  0  0  0  0  0  0  0  0  0
  140.2028   77.2560  219.5046 H   0  0  0  0  0  0  0  0  0  0  0  0
  142.4069   77.3111  218.1265 H   0  0  0  0  0  0  0  0  0  0  0  0
  146.0440   74.1340  218.6080 H   0  0  0  0  0  0  0  0  0  0  0  0
  145.3627   72.0334  217.6520 H   0  0  0  0  0  0  0  0  0  0  0  0
  142.7477   73.1042  218.3633 H   0  0  0  0  0  0  0  0  0  0  0  0
  143.1236   71.8241  217.1944 H   0  0  0  0  0  0  0  0  0  0  0  0
  141.7555   71.3397  219.5035 H   0  0  0  0  0  0  0  0  0  0  0  0
  142.8075   70.1141  218.8016 H   0  0  0  0  0  0  0  0  0  0  0  0
  143.4149   72.1279  221.0289 H   0  0  0  0  0  0  0  0  0  0  0  0
  143.7059   70.4064  221.0680 H   0  0  0  0  0  0  0  0  0  0  0  0
  145.7206   72.0779  220.4188 H   0  0  0  0  0  0  0  0  0  0  0  0
  145.5641   70.5860  219.4826 H   0  0  0  0  0  0  0  0  0  0  0  0
  141.8486   74.9958  221.6886 H   0  0  0  0  0  0  0  0  0  0  0  0
  139.1831   69.9943  222.5243 H   0  0  0  0  0  0  0  0  0  0  0  0
  139.1079   68.3889  224.3986 H   0  0  0  0  0  0  0  0  0  0  0  0
  139.5761   67.8801  226.6776 H   0  0  0  0  0  0  0  0  0  0  0  0
  141.4500   70.8520  229.1911 H   0  0  0  0  0  0  0  0  0  0  0  0
  141.4887   72.3992  227.2665 H   0  0  0  0  0  0  0  0  0  0  0  0
  1  2  2  0
  2  3  1  0
  3  4  1  0
  4  5  1  0
  5  6  2  0
  5  7  1  0
  7  8  1  0
  8  9  1  0
  9 10  1  0
 10 11  1  0
 11 12  1  0
 12 13  2  0
 13 14  1  0
 14 15  2  0
 15 16  1  0
 16 17  1  0
 17 18  1  0
 18 19  1  0
 19 20  1  0
 20 21  1  0
 15 22  1  0
 22 23  2  0
  2 24  1  0
 24 25  2  0
 25 26  1  0
 26 27  2  0
 27 28  1  0
 28 29  2  0
 29 30  1  0
 29 31  1  0
 31 32  2  0
 32 33  1  0
 33 34  2  0
 11  7  1  0
 23 12  1  0
 34 24  1  0
 21 17  1  0
 33 27  1  0
  3 35  1  0
  4 36  1  0
  4 37  1  0
  8 38  1  0
  8 39  1  0
  9 40  1  0
  9 41  1  0
 10 42  1  0
 10 43  1  0
 11 44  1  6
 13 45  1  0
 16 46  1  0
 17 47  1  0
 18 48  1  0
 18 49  1  0
 19 50  1  0
 19 51  1  0
 20 52  1  0
 20 53  1  0
 21 54  1  0
 21 55  1  0
 23 56  1  0
 25 57  1  0
 26 58  1  0
 28 59  1  0
 31 60  1  0
 32 61  1  0
M  END
>  <smiles>  (33) 
O=C(NCC(=O)N1CCC[C@H]1c1cnc(NC2CCCC2)nc1)c1ccc2cc(F)ccc2n1

>  <score_type>  (33) 
oracle

>  <origin>  (33) 
autodockgpu

>  <m_score__min__energy>  (33) 
-9.4299999999999997

>  <m_primary>  (33) 
energy

>  <rmsd>  (33) 
2.626099481284067

>  <m_score__min__rmsd>  (33) 
2.626099481284067

>  <meeko>  (33) 
{"free_energy": -8.34, "intermolecular_energy": -10.42, "internal_energy": -2.12, "cluster_size": 7, "cluster_id": 4, "rank_in_cluster": 5}

>  <energy>  (33) 
-8.52

>  <cluster_rmsd>  (33) 
0.17

>  <cluster>  (33) 
4

$$$$

     RDKit          3D

 61 65  0  0  0  0  0  0  0  0999 V2000
  138.6580   72.6970  222.5500 O   0  0  0  0  0  0  0  0  0  0  0  0
  139.5260   71.7650  222.5840 C   0  0  0  0  0  0  0  0  0  0  0  0
  140.0850   71.3770  221.3540 N   0  0  0  0  0  0  0  0  0  0  0  0
  139.6100   72.0890  220.1580 C   0  0  0  0  0  0  0  0  0  0  0  0
  140.7440   72.1070  219.1980 C   0  0  0  0  0  0  0  0  0  0  0  0
  140.7100   71.4530  218.1050 O   0  0  0  0  0  0  0  0  0  0  0  0
  141.9330   72.8500  219.4330 N   0  0  0  0  0  0  0  0  0  0  0  0
  142.8880   73.1490  218.3780 C   0  0  0  0  0  0  0  0  0  0  0  0
  144.0750   73.7750  219.0460 C   0  0  0  0  0  0  0  0  0  0  0  0
  143.8860   73.5960  220.5410 C   0  0  0  0  0  0  0  0  0  0  0  0
  142.3900   73.4120  220.6900 C   0  0  1  0  0  0  0  0  0  0  0  0
  141.7410   74.7120  221.0050 C   0  0  0  0  0  0  0  0  0  0  0  0
  140.6750   74.8050  221.8760 C   0  0  0  0  0  0  0  0  0  0  0  0
  140.0860   75.9840  222.1620 N   0  0  0  0  0  0  0  0  0  0  0  0
  140.5250   77.1300  221.5990 C   0  0  0  0  0  0  0  0  0  0  0  0
  139.8790   78.3580  221.9250 N   0  0  0  0  0  0  0  0  0  0  0  0
  140.3500   79.0540  223.1040 C   0  0  0  0  0  0  0  0  0  0  0  0
  140.4690   80.5400  222.8730 C   0  0  0  0  0  0  0  0  0  0  0  0
  141.8770   80.9140  223.2440 C   0  0  0  0  0  0  0  0  0  0  0  0
  142.6730   79.6630  223.0090 C   0  0  0  0  0  0  0  0  0  0  0  0
  141.7240   78.5810  223.4850 C   0  0  0  0  0  0  0  0  0  0  0  0
  141.5650   77.0630  220.7450 N   0  0  0  0  0  0  0  0  0  0  0  0
  142.1780   75.9050  220.4350 C   0  0  0  0  0  0  0  0  0  0  0  0
  139.9000   71.1480  223.8510 C   0  0  0  0  0  0  0  0  0  0  0  0
  140.6300   71.8810  224.7650 C   0  0  0  0  0  0  0  0  0  0  0  0
  141.0170   71.3640  225.9790 C   0  0  0  0  0  0  0  0  0  0  0  0
  140.6590   70.0670  226.2830 C   0  0  0  0  0  0  0  0  0  0  0  0
  141.0390   69.5320  227.4970 C   0  0  0  0  0  0  0  0  0  0  0  0
  140.6860   68.2350  227.8130 C   0  0  0  0  0  0  0  0  0  0  0  0
  141.0640   67.7240  229.0000 F   0  0  0  0  0  0  0  0  0  0  0  0
  139.9470   67.4770  226.9010 C   0  0  0  0  0  0  0  0  0  0  0  0
  139.5890   68.0570  225.6970 C   0  0  0  0  0  0  0  0  0  0  0  0
  139.9280   69.3500  225.3560 C   0  0  0  0  0  0  0  0  0  0  0  0
  139.5530   69.8710  224.1630 N   0  0  0  0  0  0  0  0  0  0  0  0
  140.7920   70.6270  221.3180 H   0  0  0  0  0  0  0  0  0  0  0  0
  138.7494   71.5626  219.7194 H   0  0  0  0  0  0  0  0  0  0  0  0
  139.2838   73.1097  220.4067 H   0  0  0  0  0  0  0  0  0  0  0  0
  143.1859   72.2247  217.8614 H   0  0  0  0  0  0  0  0  0  0  0  0
  142.4526   73.8230  217.6255 H   0  0  0  0  0  0  0  0  0  0  0  0
  144.9994   73.2762  218.7194 H   0  0  0  0  0  0  0  0  0  0  0  0
  144.1569   74.8404  218.7847 H   0  0  0  0  0  0  0  0  0  0  0  0
  144.4288   72.7102  220.9024 H   0  0  0  0  0  0  0  0  0  0  0  0
  144.2733   74.4434  221.1258 H   0  0  0  0  0  0  0  0  0  0  0  0
  142.1293   72.7403  221.5212 H   0  0  0  0  0  0  0  0  0  0  0  0
  140.2938   73.8894  222.3518 H   0  0  0  0  0  0  0  0  0  0  0  0
  139.1060   78.7100  221.3190 H   0  0  0  0  0  0  0  0  0  0  0  0
  139.6120   78.8447  223.8924 H   0  0  0  0  0  0  0  0  0  0  0  0
  140.2779   80.7775  221.8161 H   0  0  0  0  0  0  0  0  0  0  0  0
  139.7359   81.0977  223.4742 H   0  0  0  0  0  0  0  0  0  0  0  0
  142.2425   81.7328  222.6068 H   0  0  0  0  0  0  0  0  0  0  0  0
  141.9553   81.2706  224.2816 H   0  0  0  0  0  0  0  0  0  0  0  0
  142.9153   79.5395  221.9431 H   0  0  0  0  0  0  0  0  0  0  0  0
  143.6439   79.6555  223.5260 H   0  0  0  0  0  0  0  0  0  0  0  0
  141.9521   77.6252  222.9906 H   0  0  0  0  0  0  0  0  0  0  0  0
  141.8105   78.4109  224.5683 H   0  0  0  0  0  0  0  0  0  0  0  0
  143.0238   75.9013  219.7317 H   0  0  0  0  0  0  0  0  0  0  0  0
  140.9118   72.9141  224.5135 H   0  0  0  0  0  0  0  0  0  0  0  0
  141.5977   71.9698  226.6902 H   0  0  0  0  0  0  0  0  0  0  0  0
  141.6203   70.1358  228.2094 H   0  0  0  0  0  0  0  0  0  0  0  0
  139.6564   66.4422  227.1351 H   0  0  0  0  0  0  0  0  0  0  0  0
  139.0076   67.4600  224.9790 H   0  0  0  0  0  0  0  0  0  0  0  0
  1  2  2  0
  2  3  1  0
  3  4  1  0
  4  5  1  0
  5  6  2  0
  5  7  1  0
  7  8  1  0
  8  9  1  0
  9 10  1  0
 10 11  1  0
 11 12  1  0
 12 13  2  0
 13 14  1  0
 14 15  2  0
 15 16  1  0
 16 17  1  0
 17 18  1  0
 18 19  1  0
 19 20  1  0
 20 21  1  0
 15 22  1  0
 22 23  2  0
  2 24  1  0
 24 25  2  0
 25 26  1  0
 26 27  2  0
 27 28  1  0
 28 29  2  0
 29 30  1  0
 29 31  1  0
 31 32  2  0
 32 33  1  0
 33 34  2  0
 11  7  1  0
 23 12  1  0
 34 24  1  0
 21 17  1  0
 33 27  1  0
  3 35  1  0
  4 36  1  0
  4 37  1  0
  8 38  1  0
  8 39  1  0
  9 40  1  0
  9 41  1  0
 10 42  1  0
 10 43  1  0
 11 44  1  1
 13 45  1  0
 16 46  1  0
 17 47  1  0
 18 48  1  0
 18 49  1  0
 19 50  1  0
 19 51  1  0
 20 52  1  0
 20 53  1  0
 21 54  1  0
 21 55  1  0
 23 56  1  0
 25 57  1  0
 26 58  1  0
 28 59  1  0
 31 60  1  0
 32 61  1  0
M  END
>  <smiles>  (34) 
O=C(NCC(=O)N1CCC[C@H]1c1cnc(NC2CCCC2)nc1)c1ccc2cc(F)ccc2n1

>  <score_type>  (34) 
oracle

>  <origin>  (34) 
autodockgpu

>  <m_score__min__energy>  (34) 
-9.4299999999999997

>  <m_primary>  (34) 
energy

>  <rmsd>  (34) 
3.7713455413833525

>  <m_score__min__rmsd>  (34) 
3.7713455413833525

>  <meeko>  (34) 
{"free_energy": -8.08, "intermolecular_energy": -10.17, "internal_energy": -1.83, "cluster_size": 10, "cluster_id": 2, "rank_in_cluster": 9}

>  <energy>  (34) 
-8.48

>  <cluster_rmsd>  (34) 
0.97

>  <cluster>  (34) 
4

$$$$

     RDKit          3D

 61 65  0  0  0  0  0  0  0  0999 V2000
  138.4180   70.8680  221.3760 O   0  0  0  0  0  0  0  0  0  0  0  0
  138.8940   71.4620  222.3970 C   0  0  0  0  0  0  0  0  0  0  0  0
  139.0660   72.8540  222.2950 N   0  0  0  0  0  0  0  0  0  0  0  0
  138.6770   73.4770  221.0220 C   0  0  0  0  0  0  0  0  0  0  0  0
  139.7140   73.0960  220.0300 C   0  0  0  0  0  0  0  0  0  0  0  0
  139.5100   72.1920  219.1560 O   0  0  0  0  0  0  0  0  0  0  0  0
  140.9960   73.7110  219.9890 N   0  0  0  0  0  0  0  0  0  0  0  0
  141.8280   73.7020  218.7970 C   0  0  0  0  0  0  0  0  0  0  0  0
  143.1530   74.2770  219.2010 C   0  0  0  0  0  0  0  0  0  0  0  0
  143.1460   74.3820  220.7140 C   0  0  0  0  0  0  0  0  0  0  0  0
  141.6710   74.4180  221.0600 C   0  0  1  0  0  0  0  0  0  0  0  0
  141.2100   75.8240  221.1990 C   0  0  0  0  0  0  0  0  0  0  0  0
  141.6560   76.8260  220.3620 C   0  0  0  0  0  0  0  0  0  0  0  0
  141.2390   78.1020  220.4870 N   0  0  0  0  0  0  0  0  0  0  0  0
  140.3560   78.4490  221.4490 C   0  0  0  0  0  0  0  0  0  0  0  0
  139.9370   79.8070  221.5530 N   0  0  0  0  0  0  0  0  0  0  0  0
  140.7130   80.6680  222.4200 C   0  0  0  0  0  0  0  0  0  0  0  0
  142.1370   80.8130  221.9460 C   0  0  0  0  0  0  0  0  0  0  0  0
  143.0110   80.4340  223.1090 C   0  0  0  0  0  0  0  0  0  0  0  0
  142.1760   79.4800  223.9120 C   0  0  0  0  0  0  0  0  0  0  0  0
  140.7930   80.0920  223.8060 C   0  0  0  0  0  0  0  0  0  0  0  0
  139.9070   77.4860  222.2790 N   0  0  0  0  0  0  0  0  0  0  0  0
  140.3010   76.2020  222.1840 C   0  0  0  0  0  0  0  0  0  0  0  0
  139.2370   70.7090  223.5980 C   0  0  0  0  0  0  0  0  0  0  0  0
  138.9430   69.3620  223.6530 C   0  0  0  0  0  0  0  0  0  0  0  0
  139.2370   68.5910  224.7530 C   0  0  0  0  0  0  0  0  0  0  0  0
  139.8480   69.1960  225.8320 C   0  0  0  0  0  0  0  0  0  0  0  0
  140.1500   68.4360  226.9440 C   0  0  0  0  0  0  0  0  0  0  0  0
  140.7620   69.0300  228.0310 C   0  0  0  0  0  0  0  0  0  0  0  0
  141.0520   68.2790  229.1110 F   0  0  0  0  0  0  0  0  0  0  0  0
  141.0690   70.3930  227.9940 C   0  0  0  0  0  0  0  0  0  0  0  0
  140.7460   71.1110  226.8570 C   0  0  0  0  0  0  0  0  0  0  0  0
  140.1350   70.5440  225.7580 C   0  0  0  0  0  0  0  0  0  0  0  0
  139.8400   71.2930  224.6680 N   0  0  0  0  0  0  0  0  0  0  0  0
  139.4490   73.3890  223.0900 H   0  0  0  0  0  0  0  0  0  0  0  0
  137.6919   73.1059  220.7030 H   0  0  0  0  0  0  0  0  0  0  0  0
  138.6045   74.5702  221.1207 H   0  0  0  0  0  0  0  0  0  0  0  0
  141.9559   72.6729  218.4301 H   0  0  0  0  0  0  0  0  0  0  0  0
  141.3697   74.2876  217.9864 H   0  0  0  0  0  0  0  0  0  0  0  0
  143.9682   73.6160  218.8717 H   0  0  0  0  0  0  0  0  0  0  0  0
  143.3113   75.2627  218.7391 H   0  0  0  0  0  0  0  0  0  0  0  0
  143.6357   73.5094  221.1708 H   0  0  0  0  0  0  0  0  0  0  0  0
  143.6943   75.2606  221.0848 H   0  0  0  0  0  0  0  0  0  0  0  0
  141.4527   73.9376  222.0252 H   0  0  0  0  0  0  0  0  0  0  0  0
  142.3746   76.5759  219.5676 H   0  0  0  0  0  0  0  0  0  0  0  0
  139.1050   80.1320  221.0140 H   0  0  0  0  0  0  0  0  0  0  0  0
  140.2030   81.6426  222.4103 H   0  0  0  0  0  0  0  0  0  0  0  0
  142.3248   80.1426  221.0944 H   0  0  0  0  0  0  0  0  0  0  0  0
  142.3432   81.8398  221.6096 H   0  0  0  0  0  0  0  0  0  0  0  0
  143.9324   79.9450  222.7597 H   0  0  0  0  0  0  0  0  0  0  0  0
  143.3280   81.3085  223.6962 H   0  0  0  0  0  0  0  0  0  0  0  0
  142.1985   78.4692  223.4787 H   0  0  0  0  0  0  0  0  0  0  0  0
  142.5239   79.3551  224.9480 H   0  0  0  0  0  0  0  0  0  0  0  0
  140.0202   79.3221  223.9474 H   0  0  0  0  0  0  0  0  0  0  0  0
  140.6264   80.8591  224.5766 H   0  0  0  0  0  0  0  0  0  0  0  0
  139.9050   75.4518  222.8842 H   0  0  0  0  0  0  0  0  0  0  0  0
  138.4568   68.8887  222.7872 H   0  0  0  0  0  0  0  0  0  0  0  0
  138.9913   67.5190  224.7722 H   0  0  0  0  0  0  0  0  0  0  0  0
  139.9049   67.3639  226.9646 H   0  0  0  0  0  0  0  0  0  0  0  0
  141.5563   70.8834  228.8496 H   0  0  0  0  0  0  0  0  0  0  0  0
  140.9875   72.1838  226.8277 H   0  0  0  0  0  0  0  0  0  0  0  0
  1  2  2  0
  2  3  1  0
  3  4  1  0
  4  5  1  0
  5  6  2  0
  5  7  1  0
  7  8  1  0
  8  9  1  0
  9 10  1  0
 10 11  1  0
 11 12  1  0
 12 13  2  0
 13 14  1  0
 14 15  2  0
 15 16  1  0
 16 17  1  0
 17 18  1  0
 18 19  1  0
 19 20  1  0
 20 21  1  0
 15 22  1  0
 22 23  2  0
  2 24  1  0
 24 25  2  0
 25 26  1  0
 26 27  2  0
 27 28  1  0
 28 29  2  0
 29 30  1  0
 29 31  1  0
 31 32  2  0
 32 33  1  0
 33 34  2  0
 11  7  1  0
 23 12  1  0
 34 24  1  0
 21 17  1  0
 33 27  1  0
  3 35  1  0
  4 36  1  0
  4 37  1  0
  8 38  1  0
  8 39  1  0
  9 40  1  0
  9 41  1  0
 10 42  1  0
 10 43  1  0
 11 44  1  1
 13 45  1  0
 16 46  1  0
 17 47  1  0
 18 48  1  0
 18 49  1  0
 19 50  1  0
 19 51  1  0
 20 52  1  0
 20 53  1  0
 21 54  1  0
 21 55  1  0
 23 56  1  0
 25 57  1  0
 26 58  1  0
 28 59  1  0
 31 60  1  0
 32 61  1  0
M  END
>  <smiles>  (35) 
O=C(NCC(=O)N1CCC[C@H]1c1cnc(NC2CCCC2)nc1)c1ccc2cc(F)ccc2n1

>  <score_type>  (35) 
oracle

>  <origin>  (35) 
autodockgpu

>  <m_score__min__energy>  (35) 
-9.4299999999999997

>  <m_primary>  (35) 
energy

>  <rmsd>  (35) 
2.279762985765825

>  <m_score__min__rmsd>  (35) 
2.279762985765825

>  <meeko>  (35) 
{"free_energy": -8.19, "intermolecular_energy": -10.28, "internal_energy": -1.83, "cluster_size": 10, "cluster_id": 2, "rank_in_cluster": 7}

>  <energy>  (35) 
-8.38

>  <cluster_rmsd>  (35) 
0.64

>  <cluster>  (35) 
4

$$$$

     RDKit          3D

 61 65  0  0  0  0  0  0  0  0999 V2000
  141.2580   72.7890  221.9790 O   0  0  0  0  0  0  0  0  0  0  0  0
  140.1990   72.6390  222.6700 C   0  0  0  0  0  0  0  0  0  0  0  0
  139.1150   73.4780  222.3560 N   0  0  0  0  0  0  0  0  0  0  0  0
  139.3180   74.4390  221.2620 C   0  0  0  0  0  0  0  0  0  0  0  0
  139.1930   75.7930  221.8600 C   0  0  0  0  0  0  0  0  0  0  0  0
  138.2920   76.0700  222.7170 O   0  0  0  0  0  0  0  0  0  0  0  0
  140.0650   76.8630  221.5190 N   0  0  0  0  0  0  0  0  0  0  0  0
  140.6820   77.7180  222.5210 C   0  0  0  0  0  0  0  0  0  0  0  0
  141.3680   78.8210  221.7730 C   0  0  0  0  0  0  0  0  0  0  0  0
  140.9170   78.7220  220.3280 C   0  0  0  0  0  0  0  0  0  0  0  0
  140.4770   77.2780  220.1920 C   0  0  1  0  0  0  0  0  0  0  0  0
  141.5880   76.4510  219.6520 C   0  0  0  0  0  0  0  0  0  0  0  0
  142.8880   76.5950  220.0920 C   0  0  0  0  0  0  0  0  0  0  0  0
  143.8960   75.8460  219.6030 N   0  0  0  0  0  0  0  0  0  0  0  0
  143.6670   74.9150  218.6520 C   0  0  0  0  0  0  0  0  0  0  0  0
  144.7570   74.1410  218.1580 N   0  0  0  0  0  0  0  0  0  0  0  0
  145.0140   72.8770  218.8150 C   0  0  0  0  0  0  0  0  0  0  0  0
  143.7600   72.2830  219.4080 C   0  0  0  0  0  0  0  0  0  0  0  0
  144.0610   72.0220  220.8580 C   0  0  0  0  0  0  0  0  0  0  0  0
  145.1130   73.0320  221.2120 C   0  0  0  0  0  0  0  0  0  0  0  0
  145.9690   73.0610  219.9610 C   0  0  0  0  0  0  0  0  0  0  0  0
  142.4040   74.7580  218.2070 N   0  0  0  0  0  0  0  0  0  0  0  0
  141.3730   75.4870  218.6710 C   0  0  0  0  0  0  0  0  0  0  0  0
  140.1420   71.6390  223.7300 C   0  0  0  0  0  0  0  0  0  0  0  0
  139.5830   70.4070  223.4610 C   0  0  0  0  0  0  0  0  0  0  0  0
  139.4960   69.4160  224.4110 C   0  0  0  0  0  0  0  0  0  0  0  0
  139.9890   69.6750  225.6730 C   0  0  0  0  0  0  0  0  0  0  0  0
  139.9100   68.6920  226.6390 C   0  0  0  0  0  0  0  0  0  0  0  0
  140.4010   68.9390  227.9060 C   0  0  0  0  0  0  0  0  0  0  0  0
  140.3180   67.9720  228.8410 F   0  0  0  0  0  0  0  0  0  0  0  0
  140.9720   70.1800  228.1980 C   0  0  0  0  0  0  0  0  0  0  0  0
  141.0280   71.1330  227.1970 C   0  0  0  0  0  0  0  0  0  0  0  0
  140.5460   70.9130  225.9230 C   0  0  0  0  0  0  0  0  0  0  0  0
  140.6250   71.8810  224.9780 N   0  0  0  0  0  0  0  0  0  0  0  0
  138.2310   73.4040  222.8820 H   0  0  0  0  0  0  0  0  0  0  0  0
  140.3180   74.3087  220.8226 H   0  0  0  0  0  0  0  0  0  0  0  0
  138.5805   74.2893  220.4597 H   0  0  0  0  0  0  0  0  0  0  0  0
  139.9149   78.1329  223.1913 H   0  0  0  0  0  0  0  0  0  0  0  0
  141.3943   77.1545  223.1416 H   0  0  0  0  0  0  0  0  0  0  0  0
  141.0820   79.7969  222.1923 H   0  0  0  0  0  0  0  0  0  0  0  0
  142.4613   78.7283  221.8509 H   0  0  0  0  0  0  0  0  0  0  0  0
  140.0805   79.4082  220.1295 H   0  0  0  0  0  0  0  0  0  0  0  0
  141.7063   78.9982  219.6133 H   0  0  0  0  0  0  0  0  0  0  0  0
  139.6446   77.1562  219.4833 H   0  0  0  0  0  0  0  0  0  0  0  0
  143.1084   77.3447  220.8662 H   0  0  0  0  0  0  0  0  0  0  0  0
  145.3210   74.4980  217.3570 H   0  0  0  0  0  0  0  0  0  0  0  0
  145.4258   72.2128  218.0409 H   0  0  0  0  0  0  0  0  0  0  0  0
  142.9225   72.9900  219.3142 H   0  0  0  0  0  0  0  0  0  0  0  0
  143.4708   71.3583  218.8871 H   0  0  0  0  0  0  0  0  0  0  0  0
  143.1610   72.1661  221.4738 H   0  0  0  0  0  0  0  0  0  0  0  0
  144.3962   70.9895  221.0360 H   0  0  0  0  0  0  0  0  0  0  0  0
  144.6674   74.0175  221.4124 H   0  0  0  0  0  0  0  0  0  0  0  0
  145.6748   72.7809  222.1238 H   0  0  0  0  0  0  0  0  0  0  0  0
  146.4911   74.0254  219.8750 H   0  0  0  0  0  0  0  0  0  0  0  0
  146.7415   72.2780  219.9775 H   0  0  0  0  0  0  0  0  0  0  0  0
  140.3601   75.3214  218.2753 H   0  0  0  0  0  0  0  0  0  0  0  0
  139.1931   70.2101  222.4514 H   0  0  0  0  0  0  0  0  0  0  0  0
  139.0449   68.4420  224.1705 H   0  0  0  0  0  0  0  0  0  0  0  0
  139.4586   67.7176  226.4010 H   0  0  0  0  0  0  0  0  0  0  0  0
  141.3682   70.3946  229.2015 H   0  0  0  0  0  0  0  0  0  0  0  0
  141.4771   72.1104  227.4270 H   0  0  0  0  0  0  0  0  0  0  0  0
  1  2  2  0
  2  3  1  0
  3  4  1  0
  4  5  1  0
  5  6  2  0
  5  7  1  0
  7  8  1  0
  8  9  1  0
  9 10  1  0
 10 11  1  0
 11 12  1  0
 12 13  2  0
 13 14  1  0
 14 15  2  0
 15 16  1  0
 16 17  1  0
 17 18  1  0
 18 19  1  0
 19 20  1  0
 20 21  1  0
 15 22  1  0
 22 23  2  0
  2 24  1  0
 24 25  2  0
 25 26  1  0
 26 27  2  0
 27 28  1  0
 28 29  2  0
 29 30  1  0
 29 31  1  0
 31 32  2  0
 32 33  1  0
 33 34  2  0
 11  7  1  0
 23 12  1  0
 34 24  1  0
 21 17  1  0
 33 27  1  0
  3 35  1  0
  4 36  1  0
  4 37  1  0
  8 38  1  0
  8 39  1  0
  9 40  1  0
  9 41  1  0
 10 42  1  0
 10 43  1  0
 11 44  1  6
 13 45  1  0
 16 46  1  0
 17 47  1  0
 18 48  1  0
 18 49  1  0
 19 50  1  0
 19 51  1  0
 20 52  1  0
 20 53  1  0
 21 54  1  0
 21 55  1  0
 23 56  1  0
 25 57  1  0
 26 58  1  0
 28 59  1  0
 31 60  1  0
 32 61  1  0
M  END
>  <smiles>  (36) 
O=C(NCC(=O)N1CCC[C@H]1c1cnc(NC2CCCC2)nc1)c1ccc2cc(F)ccc2n1

>  <score_type>  (36) 
oracle

>  <origin>  (36) 
autodockgpu

>  <m_score__min__energy>  (36) 
-9.4299999999999997

>  <m_primary>  (36) 
energy

>  <rmsd>  (36) 
2.6086586211065366

>  <m_score__min__rmsd>  (36) 
2.6086586211065366

>  <meeko>  (36) 
{"free_energy": -8.67, "intermolecular_energy": -10.76, "internal_energy": -2.12, "cluster_size": 7, "cluster_id": 4, "rank_in_cluster": 1}

>  <energy>  (36) 
-8.34

>  <cluster_rmsd>  (36) 
0.81

>  <cluster>  (36) 
4

$$$$

     RDKit          3D

 61 65  0  0  0  0  0  0  0  0999 V2000
  140.6680   72.8410  223.0940 O   0  0  0  0  0  0  0  0  0  0  0  0
  140.5450   73.1890  221.8740 C   0  0  0  0  0  0  0  0  0  0  0  0
  140.1030   72.2010  220.9770 N   0  0  0  0  0  0  0  0  0  0  0  0
  139.8290   70.8710  221.5400 C   0  0  0  0  0  0  0  0  0  0  0  0
  138.9860   70.1560  220.5470 C   0  0  0  0  0  0  0  0  0  0  0  0
  138.8320   70.5890  219.3590 O   0  0  0  0  0  0  0  0  0  0  0  0
  138.3000   68.9490  220.8540 N   0  0  0  0  0  0  0  0  0  0  0  0
  138.5240   67.7150  220.1180 C   0  0  0  0  0  0  0  0  0  0  0  0
  137.5000   66.7370  220.6090 C   0  0  0  0  0  0  0  0  0  0  0  0
  136.5180   67.5160  221.4640 C   0  0  0  0  0  0  0  0  0  0  0  0
  137.3120   68.7340  221.8940 C   0  0  1  0  0  0  0  0  0  0  0  0
  137.9240   68.5030  223.2280 C   0  0  0  0  0  0  0  0  0  0  0  0
  138.8700   67.5220  223.4390 C   0  0  0  0  0  0  0  0  0  0  0  0
  139.4250   67.3120  224.6490 N   0  0  0  0  0  0  0  0  0  0  0  0
  139.0710   68.0650  225.7130 C   0  0  0  0  0  0  0  0  0  0  0  0
  139.6790   67.8160  226.9770 N   0  0  0  0  0  0  0  0  0  0  0  0
  140.7560   68.6990  227.3720 C   0  0  0  0  0  0  0  0  0  0  0  0
  140.2910   69.7610  228.3370 C   0  0  0  0  0  0  0  0  0  0  0  0
  140.6930   71.0810  227.7370 C   0  0  0  0  0  0  0  0  0  0  0  0
  140.7240   70.8280  226.2580 C   0  0  0  0  0  0  0  0  0  0  0  0
  141.3050   69.4310  226.1800 C   0  0  0  0  0  0  0  0  0  0  0  0
  138.1480   69.0300  225.5290 N   0  0  0  0  0  0  0  0  0  0  0  0
  137.5720   69.2690  224.3360 C   0  0  0  0  0  0  0  0  0  0  0  0
  140.8550   74.5510  221.4590 C   0  0  0  0  0  0  0  0  0  0  0  0
  141.2990   74.7770  220.1720 C   0  0  0  0  0  0  0  0  0  0  0  0
  141.6100   76.0350  219.7120 C   0  0  0  0  0  0  0  0  0  0  0  0
  141.4680   77.1010  220.5750 C   0  0  0  0  0  0  0  0  0  0  0  0
  141.7750   78.3710  220.1290 C   0  0  0  0  0  0  0  0  0  0  0  0
  141.6370   79.4470  220.9850 C   0  0  0  0  0  0  0  0  0  0  0  0
  141.9400   80.6810  220.5390 F   0  0  0  0  0  0  0  0  0  0  0  0
  141.1870   79.2400  222.2910 C   0  0  0  0  0  0  0  0  0  0  0  0
  140.8920   77.9490  222.6910 C   0  0  0  0  0  0  0  0  0  0  0  0
  141.0200   76.8560  221.8580 C   0  0  0  0  0  0  0  0  0  0  0  0
  140.7180   75.6120  222.3000 N   0  0  0  0  0  0  0  0  0  0  0  0
  139.9850   72.4230  219.9760 H   0  0  0  0  0  0  0  0  0  0  0  0
  140.7706   70.3257  221.7014 H   0  0  0  0  0  0  0  0  0  0  0  0
  139.3188   70.9485  222.5114 H   0  0  0  0  0  0  0  0  0  0  0  0
  138.3984   67.8876  219.0389 H   0  0  0  0  0  0  0  0  0  0  0  0
  139.5446   67.3364  220.2759 H   0  0  0  0  0  0  0  0  0  0  0  0
  136.9775   66.2772  219.7571 H   0  0  0  0  0  0  0  0  0  0  0  0
  137.9729   65.9310  221.1892 H   0  0  0  0  0  0  0  0  0  0  0  0
  135.6339   67.8094  220.8790 H   0  0  0  0  0  0  0  0  0  0  0  0
  136.1336   66.9331  222.3140 H   0  0  0  0  0  0  0  0  0  0  0  0
  136.6831   69.6293  222.0075 H   0  0  0  0  0  0  0  0  0  0  0  0
  139.1813   66.8912  222.5933 H   0  0  0  0  0  0  0  0  0  0  0  0
  139.3370   67.0250  227.5660 H   0  0  0  0  0  0  0  0  0  0  0  0
  141.5149   68.0569  227.8430 H   0  0  0  0  0  0  0  0  0  0  0  0
  139.1986   69.7142  228.4577 H   0  0  0  0  0  0  0  0  0  0  0  0
  140.7384   69.6210  229.3321 H   0  0  0  0  0  0  0  0  0  0  0  0
  139.9564   71.8602  227.9828 H   0  0  0  0  0  0  0  0  0  0  0  0
  141.6604   71.4374  228.1206 H   0  0  0  0  0  0  0  0  0  0  0  0
  139.7127   70.8632  225.8268 H   0  0  0  0  0  0  0  0  0  0  0  0
  141.3014   71.5766  225.6957 H   0  0  0  0  0  0  0  0  0  0  0  0
  140.9928   68.9366  225.2483 H   0  0  0  0  0  0  0  0  0  0  0  0
  142.4049   69.4464  226.1824 H   0  0  0  0  0  0  0  0  0  0  0  0
  136.8237   70.0691  224.2366 H   0  0  0  0  0  0  0  0  0  0  0  0
  141.4079   73.9207  219.4902 H   0  0  0  0  0  0  0  0  0  0  0  0
  141.9632   76.1871  218.6814 H   0  0  0  0  0  0  0  0  0  0  0  0
  142.1273   78.5254  219.0985 H   0  0  0  0  0  0  0  0  0  0  0  0
  141.0698   80.0846  222.9859 H   0  0  0  0  0  0  0  0  0  0  0  0
  140.5392   77.7861  223.7201 H   0  0  0  0  0  0  0  0  0  0  0  0
  1  2  2  0
  2  3  1  0
  3  4  1  0
  4  5  1  0
  5  6  2  0
  5  7  1  0
  7  8  1  0
  8  9  1  0
  9 10  1  0
 10 11  1  0
 11 12  1  0
 12 13  2  0
 13 14  1  0
 14 15  2  0
 15 16  1  0
 16 17  1  0
 17 18  1  0
 18 19  1  0
 19 20  1  0
 20 21  1  0
 15 22  1  0
 22 23  2  0
  2 24  1  0
 24 25  2  0
 25 26  1  0
 26 27  2  0
 27 28  1  0
 28 29  2  0
 29 30  1  0
 29 31  1  0
 31 32  2  0
 32 33  1  0
 33 34  2  0
 11  7  1  0
 23 12  1  0
 34 24  1  0
 21 17  1  0
 33 27  1  0
  3 35  1  0
  4 36  1  0
  4 37  1  0
  8 38  1  0
  8 39  1  0
  9 40  1  0
  9 41  1  0
 10 42  1  0
 10 43  1  0
 11 44  1  1
 13 45  1  0
 16 46  1  0
 17 47  1  0
 18 48  1  0
 18 49  1  0
 19 50  1  0
 19 51  1  0
 20 52  1  0
 20 53  1  0
 21 54  1  0
 21 55  1  0
 23 56  1  0
 25 57  1  0
 26 58  1  0
 28 59  1  0
 31 60  1  0
 32 61  1  0
M  END
>  <smiles>  (37) 
O=C(NCC(=O)N1CCC[C@H]1c1cnc(NC2CCCC2)nc1)c1ccc2cc(F)ccc2n1

>  <score_type>  (37) 
oracle

>  <origin>  (37) 
autodockgpu

>  <m_score__min__energy>  (37) 
-9.4299999999999997

>  <m_primary>  (37) 
energy

>  <rmsd>  (37) 
8.534444232734371

>  <m_score__min__rmsd>  (37) 
8.534444232734371

>  <meeko>  (37) 
{"free_energy": -8.14, "intermolecular_energy": -10.23, "internal_energy": -2.15, "cluster_size": 8, "cluster_id": 1, "rank_in_cluster": 4}

>  <energy>  (37) 
-8.32

>  <cluster_rmsd>  (37) 
0.59

>  <cluster>  (37) 
4

$$$$

     RDKit          3D

 61 65  0  0  0  0  0  0  0  0999 V2000
  137.9180   70.5090  221.5340 O   0  0  0  0  0  0  0  0  0  0  0  0
  138.4210   71.1680  222.5020 C   0  0  0  0  0  0  0  0  0  0  0  0
  138.4680   72.5660  222.3580 N   0  0  0  0  0  0  0  0  0  0  0  0
  137.9300   73.1200  221.1070 C   0  0  0  0  0  0  0  0  0  0  0  0
  136.5510   73.5830  221.4080 C   0  0  0  0  0  0  0  0  0  0  0  0
  135.5240   72.9450  221.0070 O   0  0  0  0  0  0  0  0  0  0  0  0
  136.2870   74.7610  222.1590 N   0  0  0  0  0  0  0  0  0  0  0  0
  135.8150   74.7210  223.5340 C   0  0  0  0  0  0  0  0  0  0  0  0
  135.4830   76.1340  223.9100 C   0  0  0  0  0  0  0  0  0  0  0  0
  135.5340   76.9540  222.6340 C   0  0  0  0  0  0  0  0  0  0  0  0
  136.4290   76.1380  221.7240 C   0  0  1  0  0  0  0  0  0  0  0  0
  137.8310   76.6240  221.8100 C   0  0  0  0  0  0  0  0  0  0  0  0
  138.2720   77.7150  221.0890 C   0  0  0  0  0  0  0  0  0  0  0  0
  139.5430   78.1570  221.1670 N   0  0  0  0  0  0  0  0  0  0  0  0
  140.4420   77.5400  221.9630 C   0  0  0  0  0  0  0  0  0  0  0  0
  141.7770   78.0350  222.0210 N   0  0  0  0  0  0  0  0  0  0  0  0
  142.0290   79.1390  222.9230 C   0  0  0  0  0  0  0  0  0  0  0  0
  140.8550   79.4050  223.8320 C   0  0  0  0  0  0  0  0  0  0  0  0
  140.5070   80.8570  223.6590 C   0  0  0  0  0  0  0  0  0  0  0  0
  140.9610   81.1900  222.2680 C   0  0  0  0  0  0  0  0  0  0  0  0
  142.2550   80.4100  222.1540 C   0  0  0  0  0  0  0  0  0  0  0  0
  140.0330   76.4720  222.6760 N   0  0  0  0  0  0  0  0  0  0  0  0
  138.7720   76.0020  222.6250 C   0  0  0  0  0  0  0  0  0  0  0  0
  138.9170   70.4790  223.6870 C   0  0  0  0  0  0  0  0  0  0  0  0
  138.7660   69.1110  223.7810 C   0  0  0  0  0  0  0  0  0  0  0  0
  139.2090   68.3960  224.8690 C   0  0  0  0  0  0  0  0  0  0  0  0
  139.8250   69.0810  225.8960 C   0  0  0  0  0  0  0  0  0  0  0  0
  140.2770   68.3790  226.9950 C   0  0  0  0  0  0  0  0  0  0  0  0
  140.8950   69.0540  228.0290 C   0  0  0  0  0  0  0  0  0  0  0  0
  141.3310   68.3580  229.0980 F   0  0  0  0  0  0  0  0  0  0  0  0
  141.0590   70.4400  227.9520 C   0  0  0  0  0  0  0  0  0  0  0  0
  140.5910   71.0980  226.8300 C   0  0  0  0  0  0  0  0  0  0  0  0
  139.9690   70.4500  225.7830 C   0  0  0  0  0  0  0  0  0  0  0  0
  139.5270   71.1420  224.7060 N   0  0  0  0  0  0  0  0  0  0  0  0
  138.8650   73.1520  223.1080 H   0  0  0  0  0  0  0  0  0  0  0  0
  138.5486   73.9642  220.7684 H   0  0  0  0  0  0  0  0  0  0  0  0
  137.9300   72.3659  220.3062 H   0  0  0  0  0  0  0  0  0  0  0  0
  134.9195   74.0868  223.6103 H   0  0  0  0  0  0  0  0  0  0  0  0
  136.5778   74.2990  224.2049 H   0  0  0  0  0  0  0  0  0  0  0  0
  134.4760   76.1816  224.3501 H   0  0  0  0  0  0  0  0  0  0  0  0
  136.1943   76.5205  224.6548 H   0  0  0  0  0  0  0  0  0  0  0  0
  134.5299   77.0674  222.1992 H   0  0  0  0  0  0  0  0  0  0  0  0
  135.9064   77.9762  222.7965 H   0  0  0  0  0  0  0  0  0  0  0  0
  136.1475   76.2301  220.6646 H   0  0  0  0  0  0  0  0  0  0  0  0
  137.5645   78.2400  220.4304 H   0  0  0  0  0  0  0  0  0  0  0  0
  142.5150   77.5970  221.4270 H   0  0  0  0  0  0  0  0  0  0  0  0
  142.9139   78.8525  223.5102 H   0  0  0  0  0  0  0  0  0  0  0  0
  140.0016   78.7723  223.5467 H   0  0  0  0  0  0  0  0  0  0  0  0
  141.1005   79.1751  224.8793 H   0  0  0  0  0  0  0  0  0  0  0  0
  139.4228   81.0117  223.7614 H   0  0  0  0  0  0  0  0  0  0  0  0
  140.9840   81.4944  224.4181 H   0  0  0  0  0  0  0  0  0  0  0  0
  140.2276   80.8562  221.5192 H   0  0  0  0  0  0  0  0  0  0  0  0
  141.0806   82.2690  222.0906 H   0  0  0  0  0  0  0  0  0  0  0  0
  142.4774   80.1869  221.1001 H   0  0  0  0  0  0  0  0  0  0  0  0
  143.1096   80.9787  222.5493 H   0  0  0  0  0  0  0  0  0  0  0  0
  138.4860   75.1270  223.2272 H   0  0  0  0  0  0  0  0  0  0  0  0
  138.2741   68.5734  222.9570 H   0  0  0  0  0  0  0  0  0  0  0  0
  139.0755   67.3053  224.9192 H   0  0  0  0  0  0  0  0  0  0  0  0
  140.1457   67.2881  227.0469 H   0  0  0  0  0  0  0  0  0  0  0  0
  141.5493   70.9945  228.7657 H   0  0  0  0  0  0  0  0  0  0  0  0
  140.7206   72.1887  226.7692 H   0  0  0  0  0  0  0  0  0  0  0  0
  1  2  2  0
  2  3  1  0
  3  4  1  0
  4  5  1  0
  5  6  2  0
  5  7  1  0
  7  8  1  0
  8  9  1  0
  9 10  1  0
 10 11  1  0
 11 12  1  0
 12 13  2  0
 13 14  1  0
 14 15  2  0
 15 16  1  0
 16 17  1  0
 17 18  1  0
 18 19  1  0
 19 20  1  0
 20 21  1  0
 15 22  1  0
 22 23  2  0
  2 24  1  0
 24 25  2  0
 25 26  1  0
 26 27  2  0
 27 28  1  0
 28 29  2  0
 29 30  1  0
 29 31  1  0
 31 32  2  0
 32 33  1  0
 33 34  2  0
 11  7  1  0
 23 12  1  0
 34 24  1  0
 21 17  1  0
 33 27  1  0
  3 35  1  0
  4 36  1  0
  4 37  1  0
  8 38  1  0
  8 39  1  0
  9 40  1  0
  9 41  1  0
 10 42  1  0
 10 43  1  0
 11 44  1  6
 13 45  1  0
 16 46  1  0
 17 47  1  0
 18 48  1  0
 18 49  1  0
 19 50  1  0
 19 51  1  0
 20 52  1  0
 20 53  1  0
 21 54  1  0
 21 55  1  0
 23 56  1  0
 25 57  1  0
 26 58  1  0
 28 59  1  0
 31 60  1  0
 32 61  1  0
M  END
>  <smiles>  (38) 
O=C(NCC(=O)N1CCC[C@H]1c1cnc(NC2CCCC2)nc1)c1ccc2cc(F)ccc2n1

>  <score_type>  (38) 
oracle

>  <origin>  (38) 
autodockgpu

>  <m_score__min__energy>  (38) 
-9.4299999999999997

>  <m_primary>  (38) 
energy

>  <rmsd>  (38) 
3.8623140548926607

>  <m_score__min__rmsd>  (38) 
3.8623140548926607

>  <meeko>  (38) 
{"free_energy": -8.25, "intermolecular_energy": -10.33, "internal_energy": -1.87, "cluster_size": 13, "cluster_id": 3, "rank_in_cluster": 11}

>  <energy>  (38) 
-7.86

>  <cluster_rmsd>  (38) 
1.02

>  <cluster>  (38) 
4

$$$$

     RDKit          3D

 61 65  0  0  0  0  0  0  0  0999 V2000
  139.2580   71.1910  221.4770 O   0  0  0  0  0  0  0  0  0  0  0  0
  138.7880   71.5470  222.6060 C   0  0  0  0  0  0  0  0  0  0  0  0
  137.6890   72.4240  222.5850 N   0  0  0  0  0  0  0  0  0  0  0  0
  137.1970   72.8360  221.2620 C   0  0  0  0  0  0  0  0  0  0  0  0
  137.6430   74.2390  221.0640 C   0  0  0  0  0  0  0  0  0  0  0  0
  136.8210   75.2130  221.0600 O   0  0  0  0  0  0  0  0  0  0  0  0
  139.0080   74.5870  220.8670 N   0  0  0  0  0  0  0  0  0  0  0  0
  139.6010   74.7010  219.5440 C   0  0  0  0  0  0  0  0  0  0  0  0
  141.0720   74.8970  219.7560 C   0  0  0  0  0  0  0  0  0  0  0  0
  141.3460   74.6380  221.2250 C   0  0  0  0  0  0  0  0  0  0  0  0
  140.0020   74.8750  221.8830 C   0  0  1  0  0  0  0  0  0  0  0  0
  139.9160   76.2690  222.3900 C   0  0  0  0  0  0  0  0  0  0  0  0
  138.7080   76.9110  222.5630 C   0  0  0  0  0  0  0  0  0  0  0  0
  138.6290   78.1760  223.0230 N   0  0  0  0  0  0  0  0  0  0  0  0
  139.7460   78.8690  223.3350 C   0  0  0  0  0  0  0  0  0  0  0  0
  139.6250   80.2040  223.8180 N   0  0  0  0  0  0  0  0  0  0  0  0
  140.4710   81.2040  223.2000 C   0  0  0  0  0  0  0  0  0  0  0  0
  140.7170   80.9110  221.7400 C   0  0  0  0  0  0  0  0  0  0  0  0
  142.2090   80.8970  221.5580 C   0  0  0  0  0  0  0  0  0  0  0  0
  142.7480   80.4980  222.9000 C   0  0  0  0  0  0  0  0  0  0  0  0
  141.8240   81.2300  223.8520 C   0  0  0  0  0  0  0  0  0  0  0  0
  140.9380   78.2610  223.1730 N   0  0  0  0  0  0  0  0  0  0  0  0
  141.0550   77.0000  222.7170 C   0  0  0  0  0  0  0  0  0  0  0  0
  139.3810   71.0540  223.8430 C   0  0  0  0  0  0  0  0  0  0  0  0
  140.3140   71.8330  224.4970 C   0  0  0  0  0  0  0  0  0  0  0  0
  140.9140   71.4320  225.6680 C   0  0  0  0  0  0  0  0  0  0  0  0
  140.5640   70.2070  226.1970 C   0  0  0  0  0  0  0  0  0  0  0  0
  141.1560   69.7900  227.3720 C   0  0  0  0  0  0  0  0  0  0  0  0
  140.8130   68.5650  227.9120 C   0  0  0  0  0  0  0  0  0  0  0  0
  141.3990   68.1680  229.0580 F   0  0  0  0  0  0  0  0  0  0  0  0
  139.8700   67.7630  227.2650 C   0  0  0  0  0  0  0  0  0  0  0  0
  139.3040   68.2250  226.0910 C   0  0  0  0  0  0  0  0  0  0  0  0
  139.6280   69.4430  225.5290 C   0  0  0  0  0  0  0  0  0  0  0  0
  139.0440   69.8490  224.3760 N   0  0  0  0  0  0  0  0  0  0  0  0
  137.2660   72.7480  223.4680 H   0  0  0  0  0  0  0  0  0  0  0  0
  137.6211   72.1886  220.4804 H   0  0  0  0  0  0  0  0  0  0  0  0
  136.1017   72.7547  221.2020 H   0  0  0  0  0  0  0  0  0  0  0  0
  139.4188   73.7837  218.9649 H   0  0  0  0  0  0  0  0  0  0  0  0
  139.1636   75.5390  218.9814 H   0  0  0  0  0  0  0  0  0  0  0  0
  141.6409   74.1894  219.1350 H   0  0  0  0  0  0  0  0  0  0  0  0
  141.3775   75.9151  219.4730 H   0  0  0  0  0  0  0  0  0  0  0  0
  141.6853   73.6040  221.3853 H   0  0  0  0  0  0  0  0  0  0  0  0
  142.1412   75.2798  221.6320 H   0  0  0  0  0  0  0  0  0  0  0  0
  139.8431   74.2305  222.7601 H   0  0  0  0  0  0  0  0  0  0  0  0
  137.7796   76.3743  222.3181 H   0  0  0  0  0  0  0  0  0  0  0  0
  138.9480   80.4160  224.5830 H   0  0  0  0  0  0  0  0  0  0  0  0
  139.9417   82.1611  223.3176 H   0  0  0  0  0  0  0  0  0  0  0  0
  140.2913   79.9331  221.4708 H   0  0  0  0  0  0  0  0  0  0  0  0
  140.2427   81.6656  221.0954 H   0  0  0  0  0  0  0  0  0  0  0  0
  142.5000   80.1660  220.7893 H   0  0  0  0  0  0  0  0  0  0  0  0
  142.5985   81.8698  221.2235 H   0  0  0  0  0  0  0  0  0  0  0  0
  142.6880   79.4093  223.0454 H   0  0  0  0  0  0  0  0  0  0  0  0
  143.8102   80.7477  223.0391 H   0  0  0  0  0  0  0  0  0  0  0  0
  141.7914   80.7183  224.8252 H   0  0  0  0  0  0  0  0  0  0  0  0
  142.1655   82.2584  224.0412 H   0  0  0  0  0  0  0  0  0  0  0  0
  142.0508   76.5468  222.6026 H   0  0  0  0  0  0  0  0  0  0  0  0
  140.5871   72.8079  224.0670 H   0  0  0  0  0  0  0  0  0  0  0  0
  141.6544   72.0721  226.1701 H   0  0  0  0  0  0  0  0  0  0  0  0
  141.8964   70.4289  227.8756 H   0  0  0  0  0  0  0  0  0  0  0  0
  139.5839   66.7854  227.6803 H   0  0  0  0  0  0  0  0  0  0  0  0
  138.5616   67.5928  225.5818 H   0  0  0  0  0  0  0  0  0  0  0  0
  1  2  2  0
  2  3  1  0
  3  4  1  0
  4  5  1  0
  5  6  2  0
  5  7  1  0
  7  8  1  0
  8  9  1  0
  9 10  1  0
 10 11  1  0
 11 12  1  0
 12 13  2  0
 13 14  1  0
 14 15  2  0
 15 16  1  0
 16 17  1  0
 17 18  1  0
 18 19  1  0
 19 20  1  0
 20 21  1  0
 15 22  1  0
 22 23  2  0
  2 24  1  0
 24 25  2  0
 25 26  1  0
 26 27  2  0
 27 28  1  0
 28 29  2  0
 29 30  1  0
 29 31  1  0
 31 32  2  0
 32 33  1  0
 33 34  2  0
 11  7  1  0
 23 12  1  0
 34 24  1  0
 21 17  1  0
 33 27  1  0
  3 35  1  0
  4 36  1  0
  4 37  1  0
  8 38  1  0
  8 39  1  0
  9 40  1  0
  9 41  1  0
 10 42  1  0
 10 43  1  0
 11 44  1  1
 13 45  1  0
 16 46  1  0
 17 47  1  0
 18 48  1  0
 18 49  1  0
 19 50  1  0
 19 51  1  0
 20 52  1  0
 20 53  1  0
 21 54  1  0
 21 55  1  0
 23 56  1  0
 25 57  1  0
 26 58  1  0
 28 59  1  0
 31 60  1  0
 32 61  1  0
M  END
>  <smiles>  (39) 
O=C(NCC(=O)N1CCC[C@H]1c1cnc(NC2CCCC2)nc1)c1ccc2cc(F)ccc2n1

>  <score_type>  (39) 
oracle

>  <origin>  (39) 
autodockgpu

>  <m_score__min__energy>  (39) 
-9.4299999999999997

>  <m_primary>  (39) 
energy

>  <rmsd>  (39) 
2.9172248269125514

>  <m_score__min__rmsd>  (39) 
2.9172248269125514

>  <meeko>  (39) 
{"free_energy": -8.36, "intermolecular_energy": -10.45, "internal_energy": -1.84, "cluster_size": 3, "cluster_id": 7, "rank_in_cluster": 1}

>  <energy>  (39) 
-8.48

>  <cluster_rmsd>  (39) 
0.0

>  <cluster>  (39) 
5

$$$$

     RDKit          3D

 61 65  0  0  0  0  0  0  0  0999 V2000
  139.9310   73.0180  222.7390 O   0  0  0  0  0  0  0  0  0  0  0  0
  140.2100   71.7780  222.8190 C   0  0  0  0  0  0  0  0  0  0  0  0
  140.3080   71.0730  221.6060 N   0  0  0  0  0  0  0  0  0  0  0  0
  140.0810   71.8420  220.3740 C   0  0  0  0  0  0  0  0  0  0  0  0
  141.1930   71.4980  219.4500 C   0  0  0  0  0  0  0  0  0  0  0  0
  141.0060   70.7920  218.4060 O   0  0  0  0  0  0  0  0  0  0  0  0
  142.5290   71.9330  219.6670 N   0  0  0  0  0  0  0  0  0  0  0  0
  143.6180   71.5880  218.7670 C   0  0  0  0  0  0  0  0  0  0  0  0
  144.8780   72.0660  219.4230 C   0  0  0  0  0  0  0  0  0  0  0  0
  144.5140   72.4650  220.8410 C   0  0  0  0  0  0  0  0  0  0  0  0
  143.0270   72.7480  220.7580 C   0  0  1  0  0  0  0  0  0  0  0  0
  142.7920   74.2000  220.5430 C   0  0  0  0  0  0  0  0  0  0  0  0
  143.7340   75.0130  219.9490 C   0  0  0  0  0  0  0  0  0  0  0  0
  143.5220   76.3300  219.7530 N   0  0  0  0  0  0  0  0  0  0  0  0
  142.3620   76.9070  220.1370 C   0  0  0  0  0  0  0  0  0  0  0  0
  142.1710   78.3020  219.9140 N   0  0  0  0  0  0  0  0  0  0  0  0
  141.3580   79.0140  220.8780 C   0  0  0  0  0  0  0  0  0  0  0  0
  141.5410   80.5080  220.7780 C   0  0  0  0  0  0  0  0  0  0  0  0
  141.9140   80.9810  222.1560 C   0  0  0  0  0  0  0  0  0  0  0  0
  142.5830   79.7980  222.7920 C   0  0  0  0  0  0  0  0  0  0  0  0
  141.7490   78.6400  222.2800 C   0  0  0  0  0  0  0  0  0  0  0  0
  141.4270   76.1310  220.7190 N   0  0  0  0  0  0  0  0  0  0  0  0
  141.6040   74.8130  220.9310 C   0  0  0  0  0  0  0  0  0  0  0  0
  140.4100   71.1460  224.1180 C   0  0  0  0  0  0  0  0  0  0  0  0
  140.9470   71.8880  225.1490 C   0  0  0  0  0  0  0  0  0  0  0  0
  141.1630   71.3580  226.4000 C   0  0  0  0  0  0  0  0  0  0  0  0
  140.8270   70.0380  226.6190 C   0  0  0  0  0  0  0  0  0  0  0  0
  141.0370   69.4910  227.8680 C   0  0  0  0  0  0  0  0  0  0  0  0
  140.7040   68.1700  228.1000 C   0  0  0  0  0  0  0  0  0  0  0  0
  140.9140   67.6460  229.3230 F   0  0  0  0  0  0  0  0  0  0  0  0
  140.1570   67.4030  227.0680 C   0  0  0  0  0  0  0  0  0  0  0  0
  139.9660   67.9970  225.8330 C   0  0  0  0  0  0  0  0  0  0  0  0
  140.2890   69.3130  225.5740 C   0  0  0  0  0  0  0  0  0  0  0  0
  140.0820   69.8460  224.3470 N   0  0  0  0  0  0  0  0  0  0  0  0
  140.5300   70.0650  221.6070 H   0  0  0  0  0  0  0  0  0  0  0  0
  139.1153   71.5651  219.9259 H   0  0  0  0  0  0  0  0  0  0  0  0
  140.0544   72.9224  220.5790 H   0  0  0  0  0  0  0  0  0  0  0  0
  143.6569   70.4990  218.6171 H   0  0  0  0  0  0  0  0  0  0  0  0
  143.4815   72.0535  217.7797 H   0  0  0  0  0  0  0  0  0  0  0  0
  145.6261   71.2597  219.4374 H   0  0  0  0  0  0  0  0  0  0  0  0
  145.3094   72.9159  218.8738 H   0  0  0  0  0  0  0  0  0  0  0  0
  144.7196   71.6453  221.5452 H   0  0  0  0  0  0  0  0  0  0  0  0
  145.0942   73.3251  221.2065 H   0  0  0  0  0  0  0  0  0  0  0  0
  142.4974   72.4961  221.6886 H   0  0  0  0  0  0  0  0  0  0  0  0
  144.6887   74.5732  219.6248 H   0  0  0  0  0  0  0  0  0  0  0  0
  142.6130   78.7570  219.0860 H   0  0  0  0  0  0  0  0  0  0  0  0
  140.3166   78.7380  220.6560 H   0  0  0  0  0  0  0  0  0  0  0  0
  142.3426   80.7465  220.0635 H   0  0  0  0  0  0  0  0  0  0  0  0
  140.6242   81.0000  220.4211 H   0  0  0  0  0  0  0  0  0  0  0  0
  142.6053   81.8348  222.1000 H   0  0  0  0  0  0  0  0  0  0  0  0
  141.0413   81.3261  222.7299 H   0  0  0  0  0  0  0  0  0  0  0  0
  143.6298   79.7096  222.4659 H   0  0  0  0  0  0  0  0  0  0  0  0
  142.6289   79.8558  223.8895 H   0  0  0  0  0  0  0  0  0  0  0  0
  142.3395   77.7119  222.2796 H   0  0  0  0  0  0  0  0  0  0  0  0
  140.8685   78.4601  222.9144 H   0  0  0  0  0  0  0  0  0  0  0  0
  140.8103   74.2212  221.4105 H   0  0  0  0  0  0  0  0  0  0  0  0
  141.2117   72.9397  224.9648 H   0  0  0  0  0  0  0  0  0  0  0  0
  141.5929   71.9714  227.2056 H   0  0  0  0  0  0  0  0  0  0  0  0
  141.4671   70.1029  228.6746 H   0  0  0  0  0  0  0  0  0  0  0  0
  139.8843   66.3503  227.2337 H   0  0  0  0  0  0  0  0  0  0  0  0
  139.5370   67.3922  225.0205 H   0  0  0  0  0  0  0  0  0  0  0  0
  1  2  2  0
  2  3  1  0
  3  4  1  0
  4  5  1  0
  5  6  2  0
  5  7  1  0
  7  8  1  0
  8  9  1  0
  9 10  1  0
 10 11  1  0
 11 12  1  0
 12 13  2  0
 13 14  1  0
 14 15  2  0
 15 16  1  0
 16 17  1  0
 17 18  1  0
 18 19  1  0
 19 20  1  0
 20 21  1  0
 15 22  1  0
 22 23  2  0
  2 24  1  0
 24 25  2  0
 25 26  1  0
 26 27  2  0
 27 28  1  0
 28 29  2  0
 29 30  1  0
 29 31  1  0
 31 32  2  0
 32 33  1  0
 33 34  2  0
 11  7  1  0
 23 12  1  0
 34 24  1  0
 21 17  1  0
 33 27  1  0
  3 35  1  0
  4 36  1  0
  4 37  1  0
  8 38  1  0
  8 39  1  0
  9 40  1  0
  9 41  1  0
 10 42  1  0
 10 43  1  0
 11 44  1  1
 13 45  1  0
 16 46  1  0
 17 47  1  0
 18 48  1  0
 18 49  1  0
 19 50  1  0
 19 51  1  0
 20 52  1  0
 20 53  1  0
 21 54  1  0
 21 55  1  0
 23 56  1  0
 25 57  1  0
 26 58  1  0
 28 59  1  0
 31 60  1  0
 32 61  1  0
M  END
>  <smiles>  (40) 
O=C(NCC(=O)N1CCC[C@H]1c1cnc(NC2CCCC2)nc1)c1ccc2cc(F)ccc2n1

>  <score_type>  (40) 
oracle

>  <origin>  (40) 
autodockgpu

>  <m_score__min__energy>  (40) 
-9.4299999999999997

>  <m_primary>  (40) 
energy

>  <rmsd>  (40) 
4.401814989762919

>  <m_score__min__rmsd>  (40) 
4.401814989762919

>  <meeko>  (40) 
{"free_energy": -8.43, "intermolecular_energy": -10.52, "internal_energy": -1.79, "cluster_size": 1, "cluster_id": 6, "rank_in_cluster": 1}

>  <energy>  (40) 
-8.43

>  <cluster_rmsd>  (40) 
0.0

>  <cluster>  (40) 
6

$$$$

     RDKit          3D

 61 65  0  0  0  0  0  0  0  0999 V2000
  140.2390   71.3780  221.8570 O   0  0  0  0  0  0  0  0  0  0  0  0
  139.4370   71.4370  222.8450 C   0  0  0  0  0  0  0  0  0  0  0  0
  138.3660   72.3410  222.7370 N   0  0  0  0  0  0  0  0  0  0  0  0
  138.2830   73.1210  221.4940 C   0  0  0  0  0  0  0  0  0  0  0  0
  139.3780   74.1240  221.5500 C   0  0  0  0  0  0  0  0  0  0  0  0
  139.5960   74.8250  222.5910 O   0  0  0  0  0  0  0  0  0  0  0  0
  140.2510   74.3640  220.4540 N   0  0  0  0  0  0  0  0  0  0  0  0
  139.9120   73.9910  219.0900 C   0  0  0  0  0  0  0  0  0  0  0  0
  141.1400   74.2350  218.2660 C   0  0  0  0  0  0  0  0  0  0  0  0
  142.2740   74.5160  219.2350 C   0  0  0  0  0  0  0  0  0  0  0  0
  141.5610   74.9860  220.4870 C   0  0  1  0  0  0  0  0  0  0  0  0
  141.4900   76.4700  220.5110 C   0  0  0  0  0  0  0  0  0  0  0  0
  142.2650   77.2530  219.6810 C   0  0  0  0  0  0  0  0  0  0  0  0
  142.2020   78.5990  219.7020 N   0  0  0  0  0  0  0  0  0  0  0  0
  141.3670   79.2390  220.5490 C   0  0  0  0  0  0  0  0  0  0  0  0
  141.3260   80.6630  220.5450 N   0  0  0  0  0  0  0  0  0  0  0  0
  141.8640   81.3370  221.7080 C   0  0  0  0  0  0  0  0  0  0  0  0
  142.9210   80.5140  222.4000 C   0  0  0  0  0  0  0  0  0  0  0  0
  142.4930   80.3960  223.8360 C   0  0  0  0  0  0  0  0  0  0  0  0
  140.9980   80.5160  223.7940 C   0  0  0  0  0  0  0  0  0  0  0  0
  140.7870   81.5740  222.7290 C   0  0  0  0  0  0  0  0  0  0  0  0
  140.6000   78.4930  221.3700 N   0  0  0  0  0  0  0  0  0  0  0  0
  140.6360   77.1480  221.3770 C   0  0  0  0  0  0  0  0  0  0  0  0
  139.6460   70.5970  224.0190 C   0  0  0  0  0  0  0  0  0  0  0  0
  139.1940   69.2930  224.0010 C   0  0  0  0  0  0  0  0  0  0  0  0
  139.3570   68.4440  225.0700 C   0  0  0  0  0  0  0  0  0  0  0  0
  139.9960   68.9240  226.1950 C   0  0  0  0  0  0  0  0  0  0  0  0
  140.1680   68.0850  227.2780 C   0  0  0  0  0  0  0  0  0  0  0  0
  140.8070   68.5540  228.4090 C   0  0  0  0  0  0  0  0  0  0  0  0
  140.9680   67.7260  229.4600 F   0  0  0  0  0  0  0  0  0  0  0  0
  141.2730   69.8710  228.4470 C   0  0  0  0  0  0  0  0  0  0  0  0
  141.0770   70.6720  227.3370 C   0  0  0  0  0  0  0  0  0  0  0  0
  140.4430   70.2300  226.1940 C   0  0  0  0  0  0  0  0  0  0  0  0
  140.2760   71.0570  225.1330 N   0  0  0  0  0  0  0  0  0  0  0  0
  137.6840   72.4330  223.5060 H   0  0  0  0  0  0  0  0  0  0  0  0
  138.4153   72.4625  220.6229 H   0  0  0  0  0  0  0  0  0  0  0  0
  137.3020   73.6089  221.3958 H   0  0  0  0  0  0  0  0  0  0  0  0
  139.6289   72.9290  219.0454 H   0  0  0  0  0  0  0  0  0  0  0  0
  139.0590   74.5769  218.7170 H   0  0  0  0  0  0  0  0  0  0  0  0
  141.3716   73.3464  217.6604 H   0  0  0  0  0  0  0  0  0  0  0  0
  140.9909   75.0812  217.5791 H   0  0  0  0  0  0  0  0  0  0  0  0
  142.8569   73.6044  219.4332 H   0  0  0  0  0  0  0  0  0  0  0  0
  142.9941   75.2529  218.8498 H   0  0  0  0  0  0  0  0  0  0  0  0
  142.0917   74.6990  221.4068 H   0  0  0  0  0  0  0  0  0  0  0  0
  142.9565   76.7632  218.9796 H   0  0  0  0  0  0  0  0  0  0  0  0
  140.9210   81.1650  219.7250 H   0  0  0  0  0  0  0  0  0  0  0  0
  142.2919   82.2803  221.3377 H   0  0  0  0  0  0  0  0  0  0  0  0
  142.9889   79.5171  221.9400 H   0  0  0  0  0  0  0  0  0  0  0  0
  143.9117   80.9846  222.3161 H   0  0  0  0  0  0  0  0  0  0  0  0
  142.7933   79.4232  224.2525 H   0  0  0  0  0  0  0  0  0  0  0  0
  142.9562   81.1626  224.4746 H   0  0  0  0  0  0  0  0  0  0  0  0
  140.5300   79.5629  223.5065 H   0  0  0  0  0  0  0  0  0  0  0  0
  140.5500   80.7738  224.7650 H   0  0  0  0  0  0  0  0  0  0  0  0
  139.7927   81.4655  222.2711 H   0  0  0  0  0  0  0  0  0  0  0  0
  140.8382   82.5900  223.1475 H   0  0  0  0  0  0  0  0  0  0  0  0
  139.9909   76.5841  222.0668 H   0  0  0  0  0  0  0  0  0  0  0  0
  138.6855   68.9200  223.0997 H   0  0  0  0  0  0  0  0  0  0  0  0
  138.9875   67.4087  225.0296 H   0  0  0  0  0  0  0  0  0  0  0  0
  139.7984   67.0496  227.2402 H   0  0  0  0  0  0  0  0  0  0  0  0
  141.7840   70.2615  229.3394 H   0  0  0  0  0  0  0  0  0  0  0  0
  141.4432   71.7088  227.3666 H   0  0  0  0  0  0  0  0  0  0  0  0
  1  2  2  0
  2  3  1  0
  3  4  1  0
  4  5  1  0
  5  6  2  0
  5  7  1  0
  7  8  1  0
  8  9  1  0
  9 10  1  0
 10 11  1  0
 11 12  1  0
 12 13  2  0
 13 14  1  0
 14 15  2  0
 15 16  1  0
 16 17  1  0
 17 18  1  0
 18 19  1  0
 19 20  1  0
 20 21  1  0
 15 22  1  0
 22 23  2  0
  2 24  1  0
 24 25  2  0
 25 26  1  0
 26 27  2  0
 27 28  1  0
 28 29  2  0
 29 30  1  0
 29 31  1  0
 31 32  2  0
 32 33  1  0
 33 34  2  0
 11  7  1  0
 23 12  1  0
 34 24  1  0
 21 17  1  0
 33 27  1  0
  3 35  1  0
  4 36  1  0
  4 37  1  0
  8 38  1  0
  8 39  1  0
  9 40  1  0
  9 41  1  0
 10 42  1  0
 10 43  1  0
 11 44  1  1
 13 45  1  0
 16 46  1  0
 17 47  1  0
 18 48  1  0
 18 49  1  0
 19 50  1  0
 19 51  1  0
 20 52  1  0
 20 53  1  0
 21 54  1  0
 21 55  1  0
 23 56  1  0
 25 57  1  0
 26 58  1  0
 28 59  1  0
 31 60  1  0
 32 61  1  0
M  END
>  <smiles>  (41) 
O=C(NCC(=O)N1CCC[C@H]1c1cnc(NC2CCCC2)nc1)c1ccc2cc(F)ccc2n1

>  <score_type>  (41) 
oracle

>  <origin>  (41) 
autodockgpu

>  <m_score__min__energy>  (41) 
-9.4299999999999997

>  <m_primary>  (41) 
energy

>  <rmsd>  (41) 
1.6016087704811908

>  <m_score__min__rmsd>  (41) 
1.6016087704811908

>  <meeko>  (41) 
{"free_energy": -8.52, "intermolecular_energy": -10.61, "internal_energy": -1.62, "cluster_size": 10, "cluster_id": 2, "rank_in_cluster": 3}

>  <energy>  (41) 
-8.36

>  <cluster_rmsd>  (41) 
0.0

>  <cluster>  (41) 
7

$$$$

     RDKit          3D

 61 65  0  0  0  0  0  0  0  0999 V2000
  139.3230   75.0280  222.3860 O   0  0  0  0  0  0  0  0  0  0  0  0
  140.1560   75.3400  221.4740 C   0  0  0  0  0  0  0  0  0  0  0  0
  139.9240   76.5490  220.7940 N   0  0  0  0  0  0  0  0  0  0  0  0
  138.7470   77.3260  221.2090 C   0  0  0  0  0  0  0  0  0  0  0  0
  139.1700   78.1470  222.3730 C   0  0  0  0  0  0  0  0  0  0  0  0
  138.3950   78.3660  223.3600 O   0  0  0  0  0  0  0  0  0  0  0  0
  140.4610   78.7370  222.4630 N   0  0  0  0  0  0  0  0  0  0  0  0
  141.4460   78.3150  223.4460 C   0  0  0  0  0  0  0  0  0  0  0  0
  142.5860   79.2830  223.3460 C   0  0  0  0  0  0  0  0  0  0  0  0
  142.1210   80.4230  222.4590 C   0  0  0  0  0  0  0  0  0  0  0  0
  141.0030   79.8050  221.6450 C   0  0  1  0  0  0  0  0  0  0  0  0
  141.5240   79.3200  220.3410 C   0  0  0  0  0  0  0  0  0  0  0  0
  142.2040   78.1260  220.2240 C   0  0  0  0  0  0  0  0  0  0  0  0
  142.6780   77.6840  219.0420 N   0  0  0  0  0  0  0  0  0  0  0  0
  142.5000   78.4060  217.9140 C   0  0  0  0  0  0  0  0  0  0  0  0
  143.0140   77.9090  216.6810 N   0  0  0  0  0  0  0  0  0  0  0  0
  142.4770   76.6510  216.2060 C   0  0  0  0  0  0  0  0  0  0  0  0
  141.2360   76.2460  216.9620 C   0  0  0  0  0  0  0  0  0  0  0  0
  141.4920   74.8580  217.4820 C   0  0  0  0  0  0  0  0  0  0  0  0
  142.9840   74.7810  217.6290 C   0  0  0  0  0  0  0  0  0  0  0  0
  143.4690   75.5400  216.4100 C   0  0  0  0  0  0  0  0  0  0  0  0
  141.8390   79.5760  218.0040 N   0  0  0  0  0  0  0  0  0  0  0  0
  141.3520   80.0490  219.1670 C   0  0  0  0  0  0  0  0  0  0  0  0
  141.2830   74.4670  221.1700 C   0  0  0  0  0  0  0  0  0  0  0  0
  141.0780   73.1040  221.1020 C   0  0  0  0  0  0  0  0  0  0  0  0
  142.0950   72.2220  220.8200 C   0  0  0  0  0  0  0  0  0  0  0  0
  143.3590   72.7280  220.6000 C   0  0  0  0  0  0  0  0  0  0  0  0
  144.3910   71.8560  220.3150 C   0  0  0  0  0  0  0  0  0  0  0  0
  145.6610   72.3510  220.0930 C   0  0  0  0  0  0  0  0  0  0  0  0
  146.6600   71.4910  219.8170 F   0  0  0  0  0  0  0  0  0  0  0  0
  145.8890   73.7280  220.1570 C   0  0  0  0  0  0  0  0  0  0  0  0
  144.8230   74.5610  220.4450 C   0  0  0  0  0  0  0  0  0  0  0  0
  143.5440   74.0950  220.6720 C   0  0  0  0  0  0  0  0  0  0  0  0
  142.5350   74.9530  220.9510 N   0  0  0  0  0  0  0  0  0  0  0  0
  140.5640   76.8550  220.0450 H   0  0  0  0  0  0  0  0  0  0  0  0
  138.4123   77.9763  220.3873 H   0  0  0  0  0  0  0  0  0  0  0  0
  137.9081   76.6653  221.4731 H   0  0  0  0  0  0  0  0  0  0  0  0
  141.0112   78.3424  224.4561 H   0  0  0  0  0  0  0  0  0  0  0  0
  141.7807   77.2842  223.2577 H   0  0  0  0  0  0  0  0  0  0  0  0
  142.8478   79.6633  224.3444 H   0  0  0  0  0  0  0  0  0  0  0  0
  143.4790   78.7970  222.9261 H   0  0  0  0  0  0  0  0  0  0  0  0
  141.7492   81.2642  223.0625 H   0  0  0  0  0  0  0  0  0  0  0  0
  142.9271   80.8363  221.8350 H   0  0  0  0  0  0  0  0  0  0  0  0
  140.2125   80.5289  221.3978 H   0  0  0  0  0  0  0  0  0  0  0  0
  142.3648   77.5146  221.1242 H   0  0  0  0  0  0  0  0  0  0  0  0
  143.7430   78.4530  216.1690 H   0  0  0  0  0  0  0  0  0  0  0  0
  142.2474   76.8040  215.1412 H   0  0  0  0  0  0  0  0  0  0  0  0
  141.0561   76.9385  217.7975 H   0  0  0  0  0  0  0  0  0  0  0  0
  140.3471   76.2725  216.3145 H   0  0  0  0  0  0  0  0  0  0  0  0
  140.9974   74.7093  218.4532 H   0  0  0  0  0  0  0  0  0  0  0  0
  141.0971   74.0806  216.8114 H   0  0  0  0  0  0  0  0  0  0  0  0
  143.3181   75.2651  218.5585 H   0  0  0  0  0  0  0  0  0  0  0  0
  143.3679   73.7519  217.6883 H   0  0  0  0  0  0  0  0  0  0  0  0
  144.4741   75.9502  216.5876 H   0  0  0  0  0  0  0  0  0  0  0  0
  143.5394   74.8891  215.5260 H   0  0  0  0  0  0  0  0  0  0  0  0
  140.8186   81.0108  219.1896 H   0  0  0  0  0  0  0  0  0  0  0  0
  140.0666   72.7094  221.2794 H   0  0  0  0  0  0  0  0  0  0  0  0
  141.9049   71.1397  220.7711 H   0  0  0  0  0  0  0  0  0  0  0  0
  144.2027   70.7734  220.2651 H   0  0  0  0  0  0  0  0  0  0  0  0
  146.8937   74.1404  219.9823 H   0  0  0  0  0  0  0  0  0  0  0  0
  145.0030   75.6450  220.4955 H   0  0  0  0  0  0  0  0  0  0  0  0
  1  2  2  0
  2  3  1  0
  3  4  1  0
  4  5  1  0
  5  6  2  0
  5  7  1  0
  7  8  1  0
  8  9  1  0
  9 10  1  0
 10 11  1  0
 11 12  1  0
 12 13  2  0
 13 14  1  0
 14 15  2  0
 15 16  1  0
 16 17  1  0
 17 18  1  0
 18 19  1  0
 19 20  1  0
 20 21  1  0
 15 22  1  0
 22 23  2  0
  2 24  1  0
 24 25  2  0
 25 26  1  0
 26 27  2  0
 27 28  1  0
 28 29  2  0
 29 30  1  0
 29 31  1  0
 31 32  2  0
 32 33  1  0
 33 34  2  0
 11  7  1  0
 23 12  1  0
 34 24  1  0
 21 17  1  0
 33 27  1  0
  3 35  1  0
  4 36  1  0
  4 37  1  0
  8 38  1  0
  8 39  1  0
  9 40  1  0
  9 41  1  0
 10 42  1  0
 10 43  1  0
 11 44  1  6
 13 45  1  0
 16 46  1  0
 17 47  1  0
 18 48  1  0
 18 49  1  0
 19 50  1  0
 19 51  1  0
 20 52  1  0
 20 53  1  0
 21 54  1  0
 21 55  1  0
 23 56  1  0
 25 57  1  0
 26 58  1  0
 28 59  1  0
 31 60  1  0
 32 61  1  0
M  END
>  <smiles>  (42) 
O=C(NCC(=O)N1CCC[C@H]1c1cnc(NC2CCCC2)nc1)c1ccc2cc(F)ccc2n1

>  <score_type>  (42) 
oracle

>  <origin>  (42) 
autodockgpu

>  <m_score__min__energy>  (42) 
-9.4299999999999997

>  <m_primary>  (42) 
energy

>  <rmsd>  (42) 
6.468403544317972

>  <m_score__min__rmsd>  (42) 
6.468403544317972

>  <meeko>  (42) 
{"free_energy": -6.63, "intermolecular_energy": -8.72, "internal_energy": -3.4, "cluster_size": 5, "cluster_id": 10, "rank_in_cluster": 4}

>  <energy>  (42) 
-8.15

>  <cluster_rmsd>  (42) 
1.56

>  <cluster>  (42) 
7

$$$$

     RDKit          3D

 61 65  0  0  0  0  0  0  0  0999 V2000
  138.6400   75.4490  220.9170 O   0  0  0  0  0  0  0  0  0  0  0  0
  139.8030   75.7440  221.3450 C   0  0  0  0  0  0  0  0  0  0  0  0
  139.9340   76.9650  222.0300 N   0  0  0  0  0  0  0  0  0  0  0  0
  138.7140   77.7720  222.1810 C   0  0  0  0  0  0  0  0  0  0  0  0
  139.0860   78.9490  223.0070 C   0  0  0  0  0  0  0  0  0  0  0  0
  138.2350   79.5530  223.7390 O   0  0  0  0  0  0  0  0  0  0  0  0
  140.4060   79.4760  223.0380 N   0  0  0  0  0  0  0  0  0  0  0  0
  141.4040   79.0250  223.9940 C   0  0  0  0  0  0  0  0  0  0  0  0
  142.5870   79.9320  223.8320 C   0  0  0  0  0  0  0  0  0  0  0  0
  142.1470   81.0750  222.9360 C   0  0  0  0  0  0  0  0  0  0  0  0
  140.9700   80.4970  222.1760 C   0  0  1  0  0  0  0  0  0  0  0  0
  141.4190   79.9590  220.8660 C   0  0  0  0  0  0  0  0  0  0  0  0
  141.4950   80.7490  219.7380 C   0  0  0  0  0  0  0  0  0  0  0  0
  141.9010   80.2610  218.5490 N   0  0  0  0  0  0  0  0  0  0  0  0
  142.2540   78.9640  218.4180 C   0  0  0  0  0  0  0  0  0  0  0  0
  142.6790   78.4820  217.1460 N   0  0  0  0  0  0  0  0  0  0  0  0
  142.4040   77.0920  216.8460 C   0  0  0  0  0  0  0  0  0  0  0  0
  143.2190   76.1570  217.7050 C   0  0  0  0  0  0  0  0  0  0  0  0
  143.9430   75.2390  216.7600 C   0  0  0  0  0  0  0  0  0  0  0  0
  144.0920   76.0370  215.4990 C   0  0  0  0  0  0  0  0  0  0  0  0
  142.7690   76.7740  215.4240 C   0  0  0  0  0  0  0  0  0  0  0  0
  142.1870   78.1730  219.5070 N   0  0  0  0  0  0  0  0  0  0  0  0
  141.7860   78.6250  220.7110 C   0  0  0  0  0  0  0  0  0  0  0  0
  140.9250   74.8400  221.1210 C   0  0  0  0  0  0  0  0  0  0  0  0
  140.7050   73.4780  221.1390 C   0  0  0  0  0  0  0  0  0  0  0  0
  141.7150   72.5680  220.9350 C   0  0  0  0  0  0  0  0  0  0  0  0
  142.9890   73.0450  220.7050 C   0  0  0  0  0  0  0  0  0  0  0  0
  144.0150   72.1450  220.4980 C   0  0  0  0  0  0  0  0  0  0  0  0
  145.2950   72.6100  220.2670 C   0  0  0  0  0  0  0  0  0  0  0  0
  146.2890   71.7220  220.0670 F   0  0  0  0  0  0  0  0  0  0  0  0
  145.5390   73.9860  220.2440 C   0  0  0  0  0  0  0  0  0  0  0  0
  144.4780   74.8470  220.4560 C   0  0  0  0  0  0  0  0  0  0  0  0
  143.1900   74.4110  220.6900 C   0  0  0  0  0  0  0  0  0  0  0  0
  142.1860   75.2970  220.8920 N   0  0  0  0  0  0  0  0  0  0  0  0
  140.8510   77.2580  222.3990 H   0  0  0  0  0  0  0  0  0  0  0  0
  138.3504   78.0990  221.1957 H   0  0  0  0  0  0  0  0  0  0  0  0
  137.9094   77.1913  222.6558 H   0  0  0  0  0  0  0  0  0  0  0  0
  141.0086   79.0950  225.0181 H   0  0  0  0  0  0  0  0  0  0  0  0
  141.6798   77.9750  223.8166 H   0  0  0  0  0  0  0  0  0  0  0  0
  142.9034   80.3196  224.8116 H   0  0  0  0  0  0  0  0  0  0  0  0
  143.4391   79.3928  223.3924 H   0  0  0  0  0  0  0  0  0  0  0  0
  141.8398   81.9464  223.5329 H   0  0  0  0  0  0  0  0  0  0  0  0
  142.9493   81.4336  222.2744 H   0  0  0  0  0  0  0  0  0  0  0  0
  140.2075   81.2537  221.9395 H   0  0  0  0  0  0  0  0  0  0  0  0
  141.2155   81.8104  219.8110 H   0  0  0  0  0  0  0  0  0  0  0  0
  143.1620   79.1290  216.4850 H   0  0  0  0  0  0  0  0  0  0  0  0
  141.3295   76.9503  217.0339 H   0  0  0  0  0  0  0  0  0  0  0  0
  143.9399   76.7265  218.3099 H   0  0  0  0  0  0  0  0  0  0  0  0
  142.5795   75.5924  218.3995 H   0  0  0  0  0  0  0  0  0  0  0  0
  144.9283   74.9637  217.1642 H   0  0  0  0  0  0  0  0  0  0  0  0
  143.4006   74.2962  216.5959 H   0  0  0  0  0  0  0  0  0  0  0  0
  144.9357   76.7393  215.5695 H   0  0  0  0  0  0  0  0  0  0  0  0
  144.3045   75.4225  214.6117 H   0  0  0  0  0  0  0  0  0  0  0  0
  142.8773   77.6993  214.8390 H   0  0  0  0  0  0  0  0  0  0  0  0
  141.9937   76.1704  214.9295 H   0  0  0  0  0  0  0  0  0  0  0  0
  141.7485   77.9404  221.5712 H   0  0  0  0  0  0  0  0  0  0  0  0
  139.6858   73.1074  221.3230 H   0  0  0  0  0  0  0  0  0  0  0  0
  141.5126   71.4870  220.9546 H   0  0  0  0  0  0  0  0  0  0  0  0
  143.8144   71.0636  220.5169 H   0  0  0  0  0  0  0  0  0  0  0  0
  146.5516   74.3750  220.0615 H   0  0  0  0  0  0  0  0  0  0  0  0
  144.6697   75.9300  220.4372 H   0  0  0  0  0  0  0  0  0  0  0  0
  1  2  2  0
  2  3  1  0
  3  4  1  0
  4  5  1  0
  5  6  2  0
  5  7  1  0
  7  8  1  0
  8  9  1  0
  9 10  1  0
 10 11  1  0
 11 12  1  0
 12 13  2  0
 13 14  1  0
 14 15  2  0
 15 16  1  0
 16 17  1  0
 17 18  1  0
 18 19  1  0
 19 20  1  0
 20 21  1  0
 15 22  1  0
 22 23  2  0
  2 24  1  0
 24 25  2  0
 25 26  1  0
 26 27  2  0
 27 28  1  0
 28 29  2  0
 29 30  1  0
 29 31  1  0
 31 32  2  0
 32 33  1  0
 33 34  2  0
 11  7  1  0
 23 12  1  0
 34 24  1  0
 21 17  1  0
 33 27  1  0
  3 35  1  0
  4 36  1  0
  4 37  1  0
  8 38  1  0
  8 39  1  0
  9 40  1  0
  9 41  1  0
 10 42  1  0
 10 43  1  0
 11 44  1  6
 13 45  1  0
 16 46  1  0
 17 47  1  0
 18 48  1  0
 18 49  1  0
 19 50  1  0
 19 51  1  0
 20 52  1  0
 20 53  1  0
 21 54  1  0
 21 55  1  0
 23 56  1  0
 25 57  1  0
 26 58  1  0
 28 59  1  0
 31 60  1  0
 32 61  1  0
M  END
>  <smiles>  (43) 
O=C(NCC(=O)N1CCC[C@H]1c1cnc(NC2CCCC2)nc1)c1ccc2cc(F)ccc2n1

>  <score_type>  (43) 
oracle

>  <origin>  (43) 
autodockgpu

>  <m_score__min__energy>  (43) 
-9.4299999999999997

>  <m_primary>  (43) 
energy

>  <rmsd>  (43) 
6.71702052539134

>  <m_score__min__rmsd>  (43) 
6.71702052539134

>  <meeko>  (43) 
{"free_energy": -7.25, "intermolecular_energy": -9.34, "internal_energy": -2.53, "cluster_size": 5, "cluster_id": 10, "rank_in_cluster": 1}

>  <energy>  (43) 
-8.07

>  <cluster_rmsd>  (43) 
1.95

>  <cluster>  (43) 
7

$$$$

     RDKit          3D

 61 65  0  0  0  0  0  0  0  0999 V2000
  141.0670   72.5260  221.6220 O   0  0  0  0  0  0  0  0  0  0  0  0
  140.1540   72.5750  222.5080 C   0  0  0  0  0  0  0  0  0  0  0  0
  139.1910   73.5900  222.3680 N   0  0  0  0  0  0  0  0  0  0  0  0
  139.3390   74.4860  221.2120 C   0  0  0  0  0  0  0  0  0  0  0  0
  139.1360   75.8680  221.7190 C   0  0  0  0  0  0  0  0  0  0  0  0
  138.1040   76.1930  222.3930 O   0  0  0  0  0  0  0  0  0  0  0  0
  140.0720   76.9130  221.4880 N   0  0  0  0  0  0  0  0  0  0  0  0
  140.6830   77.6670  222.5710 C   0  0  0  0  0  0  0  0  0  0  0  0
  141.4540   78.7810  221.9290 C   0  0  0  0  0  0  0  0  0  0  0  0
  141.0650   78.8000  220.4630 C   0  0  0  0  0  0  0  0  0  0  0  0
  140.5640   77.3930  220.2110 C   0  0  1  0  0  0  0  0  0  0  0  0
  141.6570   76.5480  219.6630 C   0  0  0  0  0  0  0  0  0  0  0  0
  141.4210   75.5630  218.7260 C   0  0  0  0  0  0  0  0  0  0  0  0
  142.4120   74.7970  218.2290 N   0  0  0  0  0  0  0  0  0  0  0  0
  143.6880   74.9680  218.6350 C   0  0  0  0  0  0  0  0  0  0  0  0
  144.7110   74.1390  218.0890 N   0  0  0  0  0  0  0  0  0  0  0  0
  144.9870   72.8970  218.7800 C   0  0  0  0  0  0  0  0  0  0  0  0
  143.7420   72.2990  219.3870 C   0  0  0  0  0  0  0  0  0  0  0  0
  144.0450   72.0810  220.8430 C   0  0  0  0  0  0  0  0  0  0  0  0
  145.0810   73.1170  221.1710 C   0  0  0  0  0  0  0  0  0  0  0  0
  145.9380   73.1260  219.9210 C   0  0  0  0  0  0  0  0  0  0  0  0
  143.9420   75.9240  219.5510 N   0  0  0  0  0  0  0  0  0  0  0  0
  142.9790   76.7090  220.0690 C   0  0  0  0  0  0  0  0  0  0  0  0
  140.1340   71.6140  223.6040 C   0  0  0  0  0  0  0  0  0  0  0  0
  139.6040   70.3590  223.3870 C   0  0  0  0  0  0  0  0  0  0  0  0
  139.5520   69.4020  224.3740 C   0  0  0  0  0  0  0  0  0  0  0  0
  140.0510   69.7200  225.6200 C   0  0  0  0  0  0  0  0  0  0  0  0
  140.0080   68.7720  226.6220 C   0  0  0  0  0  0  0  0  0  0  0  0
  140.5040   69.0780  227.8740 C   0  0  0  0  0  0  0  0  0  0  0  0
  140.4550   68.1450  228.8450 F   0  0  0  0  0  0  0  0  0  0  0  0
  141.0450   70.3440  228.1140 C   0  0  0  0  0  0  0  0  0  0  0  0
  141.0670   71.2600  227.0780 C   0  0  0  0  0  0  0  0  0  0  0  0
  140.5780   70.9810  225.8180 C   0  0  0  0  0  0  0  0  0  0  0  0
  140.6220   71.9140  224.8380 N   0  0  0  0  0  0  0  0  0  0  0  0
  138.4270   73.6810  223.0550 H   0  0  0  0  0  0  0  0  0  0  0  0
  140.3451   74.3843  220.7790 H   0  0  0  0  0  0  0  0  0  0  0  0
  138.6117   74.2411  220.4239 H   0  0  0  0  0  0  0  0  0  0  0  0
  139.9071   78.0750  223.2355 H   0  0  0  0  0  0  0  0  0  0  0  0
  141.3386   77.0283  223.1812 H   0  0  0  0  0  0  0  0  0  0  0  0
  141.1959   79.7404  222.4011 H   0  0  0  0  0  0  0  0  0  0  0  0
  142.5370   78.6284  222.0465 H   0  0  0  0  0  0  0  0  0  0  0  0
  140.2718   79.5390  220.2764 H   0  0  0  0  0  0  0  0  0  0  0  0
  141.8981   79.0825  219.8026 H   0  0  0  0  0  0  0  0  0  0  0  0
  139.7600   77.3605  219.4609 H   0  0  0  0  0  0  0  0  0  0  0  0
  140.3921   75.3979  218.3738 H   0  0  0  0  0  0  0  0  0  0  0  0
  145.2160   74.4440  217.2280 H   0  0  0  0  0  0  0  0  0  0  0  0
  145.4101   72.2190  218.0242 H   0  0  0  0  0  0  0  0  0  0  0  0
  142.8935   72.9899  219.2739 H   0  0  0  0  0  0  0  0  0  0  0  0
  143.4682   71.3565  218.8903 H   0  0  0  0  0  0  0  0  0  0  0  0
  143.1421   72.2271  221.4541 H   0  0  0  0  0  0  0  0  0  0  0  0
  144.3960   71.0590  221.0486 H   0  0  0  0  0  0  0  0  0  0  0  0
  144.6196   74.1004  221.3445 H   0  0  0  0  0  0  0  0  0  0  0  0
  145.6454   72.8992  222.0897 H   0  0  0  0  0  0  0  0  0  0  0  0
  146.4454   74.0957  219.8098 H   0  0  0  0  0  0  0  0  0  0  0  0
  146.7227   72.3560  219.9588 H   0  0  0  0  0  0  0  0  0  0  0  0
  143.2364   77.4774  220.8128 H   0  0  0  0  0  0  0  0  0  0  0  0
  139.2091   70.1149  222.3898 H   0  0  0  0  0  0  0  0  0  0  0  0
  139.1235   68.4087  224.1746 H   0  0  0  0  0  0  0  0  0  0  0  0
  139.5808   67.7778  226.4244 H   0  0  0  0  0  0  0  0  0  0  0  0
  141.4444   70.6061  229.1048 H   0  0  0  0  0  0  0  0  0  0  0  0
  141.4936   72.2561  227.2669 H   0  0  0  0  0  0  0  0  0  0  0  0
  1  2  2  0
  2  3  1  0
  3  4  1  0
  4  5  1  0
  5  6  2  0
  5  7  1  0
  7  8  1  0
  8  9  1  0
  9 10  1  0
 10 11  1  0
 11 12  1  0
 12 13  2  0
 13 14  1  0
 14 15  2  0
 15 16  1  0
 16 17  1  0
 17 18  1  0
 18 19  1  0
 19 20  1  0
 20 21  1  0
 15 22  1  0
 22 23  2  0
  2 24  1  0
 24 25  2  0
 25 26  1  0
 26 27  2  0
 27 28  1  0
 28 29  2  0
 29 30  1  0
 29 31  1  0
 31 32  2  0
 32 33  1  0
 33 34  2  0
 11  7  1  0
 23 12  1  0
 34 24  1  0
 21 17  1  0
 33 27  1  0
  3 35  1  0
  4 36  1  0
  4 37  1  0
  8 38  1  0
  8 39  1  0
  9 40  1  0
  9 41  1  0
 10 42  1  0
 10 43  1  0
 11 44  1  6
 13 45  1  0
 16 46  1  0
 17 47  1  0
 18 48  1  0
 18 49  1  0
 19 50  1  0
 19 51  1  0
 20 52  1  0
 20 53  1  0
 21 54  1  0
 21 55  1  0
 23 56  1  0
 25 57  1  0
 26 58  1  0
 28 59  1  0
 31 60  1  0
 32 61  1  0
M  END
>  <smiles>  (44) 
O=C(NCC(=O)N1CCC[C@H]1c1cnc(NC2CCCC2)nc1)c1ccc2cc(F)ccc2n1

>  <score_type>  (44) 
oracle

>  <origin>  (44) 
autodockgpu

>  <m_score__min__energy>  (44) 
-9.4299999999999997

>  <m_primary>  (44) 
energy

>  <rmsd>  (44) 
2.6247671284749297

>  <m_score__min__rmsd>  (44) 
2.6247671284749297

>  <meeko>  (44) 
{"free_energy": -8.52, "intermolecular_energy": -10.61, "internal_energy": -2.14, "cluster_size": 7, "cluster_id": 4, "rank_in_cluster": 2}

>  <energy>  (44) 
-8.35

>  <cluster_rmsd>  (44) 
0.0

>  <cluster>  (44) 
8

$$$$

     RDKit          3D

 61 65  0  0  0  0  0  0  0  0999 V2000
  139.2670   75.6180  220.0470 O   0  0  0  0  0  0  0  0  0  0  0  0
  139.3050   75.7070  221.3170 C   0  0  0  0  0  0  0  0  0  0  0  0
  138.9420   74.5580  222.0420 N   0  0  0  0  0  0  0  0  0  0  0  0
  138.5580   73.3750  221.2580 C   0  0  0  0  0  0  0  0  0  0  0  0
  139.2240   72.2100  221.8960 C   0  0  0  0  0  0  0  0  0  0  0  0
  140.0950   72.3530  222.8150 O   0  0  0  0  0  0  0  0  0  0  0  0
  138.9340   70.8680  221.5280 N   0  0  0  0  0  0  0  0  0  0  0  0
  139.6880   70.1590  220.5070 C   0  0  0  0  0  0  0  0  0  0  0  0
  138.9750   68.8600  220.2790 C   0  0  0  0  0  0  0  0  0  0  0  0
  137.6490   68.9500  221.0100 C   0  0  0  0  0  0  0  0  0  0  0  0
  137.8970   70.0080  222.0660 C   0  0  1  0  0  0  0  0  0  0  0  0
  138.2910   69.3710  223.3500 C   0  0  0  0  0  0  0  0  0  0  0  0
  138.0990   69.9950  224.5650 C   0  0  0  0  0  0  0  0  0  0  0  0
  138.4560   69.4190  225.7300 N   0  0  0  0  0  0  0  0  0  0  0  0
  139.0200   68.1920  225.7490 C   0  0  0  0  0  0  0  0  0  0  0  0
  139.3850   67.6120  226.9990 N   0  0  0  0  0  0  0  0  0  0  0  0
  140.2750   68.3800  227.8430 C   0  0  0  0  0  0  0  0  0  0  0  0
  139.5750   69.5510  228.4860 C   0  0  0  0  0  0  0  0  0  0  0  0
  140.3810   70.7710  228.1360 C   0  0  0  0  0  0  0  0  0  0  0  0
  141.0450   70.4230  226.8360 C   0  0  0  0  0  0  0  0  0  0  0  0
  141.4000   68.9630  227.0340 C   0  0  0  0  0  0  0  0  0  0  0  0
  139.2160   67.5630  224.5730 N   0  0  0  0  0  0  0  0  0  0  0  0
  138.8740   68.1070  223.3910 C   0  0  0  0  0  0  0  0  0  0  0  0
  139.7080   76.9520  221.9600 C   0  0  0  0  0  0  0  0  0  0  0  0
  138.7550   77.7140  222.6050 C   0  0  0  0  0  0  0  0  0  0  0  0
  139.0630   78.8980  223.2330 C   0  0  0  0  0  0  0  0  0  0  0  0
  140.3740   79.3290  223.2100 C   0  0  0  0  0  0  0  0  0  0  0  0
  140.7000   80.5150  223.8360 C   0  0  0  0  0  0  0  0  0  0  0  0
  142.0090   80.9570  223.8200 C   0  0  0  0  0  0  0  0  0  0  0  0
  142.3160   82.1170  224.4330 F   0  0  0  0  0  0  0  0  0  0  0  0
  142.9890   80.1990  223.1730 C   0  0  0  0  0  0  0  0  0  0  0  0
  142.6120   79.0180  222.5610 C   0  0  0  0  0  0  0  0  0  0  0  0
  141.3130   78.5520  222.5610 C   0  0  0  0  0  0  0  0  0  0  0  0
  140.9960   77.3880  221.9460 N   0  0  0  0  0  0  0  0  0  0  0  0
  138.9520   74.5700  223.0730 H   0  0  0  0  0  0  0  0  0  0  0  0
  137.4658   73.2452  221.2766 H   0  0  0  0  0  0  0  0  0  0  0  0
  138.8624   73.4796  220.2061 H   0  0  0  0  0  0  0  0  0  0  0  0
  139.7149   70.7464  219.5774 H   0  0  0  0  0  0  0  0  0  0  0  0
  140.7283   69.9925  220.8234 H   0  0  0  0  0  0  0  0  0  0  0  0
  138.8041   68.7062  219.2033 H   0  0  0  0  0  0  0  0  0  0  0  0
  139.5717   68.0134  220.6494 H   0  0  0  0  0  0  0  0  0  0  0  0
  136.8437   69.2578  220.3268 H   0  0  0  0  0  0  0  0  0  0  0  0
  137.3286   67.9875  221.4354 H   0  0  0  0  0  0  0  0  0  0  0  0
  136.9960   70.5974  222.2912 H   0  0  0  0  0  0  0  0  0  0  0  0
  137.6399   70.9945  224.5837 H   0  0  0  0  0  0  0  0  0  0  0  0
  139.0080   66.6760  227.2630 H   0  0  0  0  0  0  0  0  0  0  0  0
  140.6400   67.6810  228.6099 H   0  0  0  0  0  0  0  0  0  0  0  0
  138.5519   69.6453  228.0931 H   0  0  0  0  0  0  0  0  0  0  0  0
  139.4998   69.4216  229.5758 H   0  0  0  0  0  0  0  0  0  0  0  0
  139.7273   71.6476  228.0162 H   0  0  0  0  0  0  0  0  0  0  0  0
  141.1074   71.0313  228.9200 H   0  0  0  0  0  0  0  0  0  0  0  0
  140.3553   70.5538  225.9891 H   0  0  0  0  0  0  0  0  0  0  0  0
  141.9114   71.0585  226.6005 H   0  0  0  0  0  0  0  0  0  0  0  0
  141.4798   68.4521  226.0631 H   0  0  0  0  0  0  0  0  0  0  0  0
  142.3694   68.8447  227.5401 H   0  0  0  0  0  0  0  0  0  0  0  0
  139.0547   67.5537  222.4576 H   0  0  0  0  0  0  0  0  0  0  0  0
  137.7129   77.3620  222.6171 H   0  0  0  0  0  0  0  0  0  0  0  0
  138.2845   79.4865  223.7406 H   0  0  0  0  0  0  0  0  0  0  0  0
  139.9228   81.1045  224.3443 H   0  0  0  0  0  0  0  0  0  0  0  0
  144.0364   80.5345  223.1512 H   0  0  0  0  0  0  0  0  0  0  0  0
  143.3830   78.4223  222.0505 H   0  0  0  0  0  0  0  0  0  0  0  0
  1  2  2  0
  2  3  1  0
  3  4  1  0
  4  5  1  0
  5  6  2  0
  5  7  1  0
  7  8  1  0
  8  9  1  0
  9 10  1  0
 10 11  1  0
 11 12  1  0
 12 13  2  0
 13 14  1  0
 14 15  2  0
 15 16  1  0
 16 17  1  0
 17 18  1  0
 18 19  1  0
 19 20  1  0
 20 21  1  0
 15 22  1  0
 22 23  2  0
  2 24  1  0
 24 25  2  0
 25 26  1  0
 26 27  2  0
 27 28  1  0
 28 29  2  0
 29 30  1  0
 29 31  1  0
 31 32  2  0
 32 33  1  0
 33 34  2  0
 11  7  1  0
 23 12  1  0
 34 24  1  0
 21 17  1  0
 33 27  1  0
  3 35  1  0
  4 36  1  0
  4 37  1  0
  8 38  1  0
  8 39  1  0
  9 40  1  0
  9 41  1  0
 10 42  1  0
 10 43  1  0
 11 44  1  1
 13 45  1  0
 16 46  1  0
 17 47  1  0
 18 48  1  0
 18 49  1  0
 19 50  1  0
 19 51  1  0
 20 52  1  0
 20 53  1  0
 21 54  1  0
 21 55  1  0
 23 56  1  0
 25 57  1  0
 26 58  1  0
 28 59  1  0
 31 60  1  0
 32 61  1  0
M  END
>  <smiles>  (45) 
O=C(NCC(=O)N1CCC[C@H]1c1cnc(NC2CCCC2)nc1)c1ccc2cc(F)ccc2n1

>  <score_type>  (45) 
oracle

>  <origin>  (45) 
autodockgpu

>  <m_score__min__energy>  (45) 
-9.4299999999999997

>  <m_primary>  (45) 
energy

>  <rmsd>  (45) 
8.292385834167314

>  <m_score__min__rmsd>  (45) 
8.292385834167314

>  <meeko>  (45) 
{"free_energy": -9.43, "intermolecular_energy": -11.52, "internal_energy": -1.66, "cluster_size": 8, "cluster_id": 1, "rank_in_cluster": 1}

>  <energy>  (45) 
-7.86

>  <cluster_rmsd>  (45) 
0.0

>  <cluster>  (45) 
9

$$$$

     RDKit          3D

 61 65  0  0  0  0  0  0  0  0999 V2000
  140.6880   73.3100  222.1950 O   0  0  0  0  0  0  0  0  0  0  0  0
  139.6990   72.5350  222.4040 C   0  0  0  0  0  0  0  0  0  0  0  0
  138.6380   72.6030  221.4840 N   0  0  0  0  0  0  0  0  0  0  0  0
  138.7820   73.5610  220.3780 C   0  0  0  0  0  0  0  0  0  0  0  0
  137.5470   74.3870  220.3700 C   0  0  0  0  0  0  0  0  0  0  0  0
  136.8380   74.5260  219.3210 O   0  0  0  0  0  0  0  0  0  0  0  0
  137.0780   75.0720  221.5240 N   0  0  0  0  0  0  0  0  0  0  0  0
  136.5620   74.3740  222.6900 C   0  0  0  0  0  0  0  0  0  0  0  0
  136.0050   75.4260  223.6020 C   0  0  0  0  0  0  0  0  0  0  0  0
  135.9840   76.7240  222.8170 C   0  0  0  0  0  0  0  0  0  0  0  0
  137.0280   76.5060  221.7420 C   0  0  1  0  0  0  0  0  0  0  0  0
  138.3360   77.0660  222.1730 C   0  0  0  0  0  0  0  0  0  0  0  0
  139.5220   76.3920  221.9700 C   0  0  0  0  0  0  0  0  0  0  0  0
  140.7090   76.8990  222.3610 N   0  0  0  0  0  0  0  0  0  0  0  0
  140.7790   78.1000  222.9740 C   0  0  0  0  0  0  0  0  0  0  0  0
  142.0500   78.6060  223.3740 N   0  0  0  0  0  0  0  0  0  0  0  0
  142.4590   79.8730  222.8060 C   0  0  0  0  0  0  0  0  0  0  0  0
  141.7520   81.0370  223.4540 C   0  0  0  0  0  0  0  0  0  0  0  0
  141.1130   81.8180  222.3390 C   0  0  0  0  0  0  0  0  0  0  0  0
  140.8710   80.8030  221.2600 C   0  0  0  0  0  0  0  0  0  0  0  0
  142.1120   79.9370  221.3460 C   0  0  0  0  0  0  0  0  0  0  0  0
  139.6310   78.7760  223.1830 N   0  0  0  0  0  0  0  0  0  0  0  0
  138.4290   78.3020  222.8060 C   0  0  0  0  0  0  0  0  0  0  0  0
  139.6940   71.6320  223.5490 C   0  0  0  0  0  0  0  0  0  0  0  0
  138.9800   70.4540  223.4730 C   0  0  0  0  0  0  0  0  0  0  0  0
  138.9310   69.5560  224.5130 C   0  0  0  0  0  0  0  0  0  0  0  0
  139.6250   69.8540  225.6680 C   0  0  0  0  0  0  0  0  0  0  0  0
  139.5870   68.9630  226.7220 C   0  0  0  0  0  0  0  0  0  0  0  0
  140.2770   69.2510  227.8830 C   0  0  0  0  0  0  0  0  0  0  0  0
  140.2320   68.3740  228.9050 F   0  0  0  0  0  0  0  0  0  0  0  0
  141.0070   70.4380  227.9800 C   0  0  0  0  0  0  0  0  0  0  0  0
  141.0140   71.2980  226.8970 C   0  0  0  0  0  0  0  0  0  0  0  0
  140.3340   71.0370  225.7250 C   0  0  0  0  0  0  0  0  0  0  0  0
  140.3740   71.9130  224.6930 N   0  0  0  0  0  0  0  0  0  0  0  0
  137.8090   72.0000  221.6010 H   0  0  0  0  0  0  0  0  0  0  0  0
  139.6640   74.1981  220.5399 H   0  0  0  0  0  0  0  0  0  0  0  0
  138.9188   73.0417  219.4180 H   0  0  0  0  0  0  0  0  0  0  0  0
  135.7703   73.6705  222.3927 H   0  0  0  0  0  0  0  0  0  0  0  0
  137.3517   73.7924  223.1881 H   0  0  0  0  0  0  0  0  0  0  0  0
  134.9851   75.1555  223.9130 H   0  0  0  0  0  0  0  0  0  0  0  0
  136.6184   75.5249  224.5097 H   0  0  0  0  0  0  0  0  0  0  0  0
  134.9930   76.8984  222.3726 H   0  0  0  0  0  0  0  0  0  0  0  0
  136.1911   77.6052  223.4419 H   0  0  0  0  0  0  0  0  0  0  0  0
  136.7795   77.0225  220.8031 H   0  0  0  0  0  0  0  0  0  0  0  0
  139.4991   75.4105  221.4738 H   0  0  0  0  0  0  0  0  0  0  0  0
  142.6320   78.0620  224.0470 H   0  0  0  0  0  0  0  0  0  0  0  0
  143.5444   79.9403  222.9717 H   0  0  0  0  0  0  0  0  0  0  0  0
  140.9843   80.6745  224.1535 H   0  0  0  0  0  0  0  0  0  0  0  0
  142.4531   81.6609  224.0277 H   0  0  0  0  0  0  0  0  0  0  0  0
  140.1648   82.2656  222.6715 H   0  0  0  0  0  0  0  0  0  0  0  0
  141.7447   82.6506  221.9960 H   0  0  0  0  0  0  0  0  0  0  0  0
  139.9619   80.2172  221.4609 H   0  0  0  0  0  0  0  0  0  0  0  0
  140.7118   81.2466  220.2661 H   0  0  0  0  0  0  0  0  0  0  0  0
  141.9051   78.9295  220.9559 H   0  0  0  0  0  0  0  0  0  0  0  0
  142.9385   80.3494  220.7487 H   0  0  0  0  0  0  0  0  0  0  0  0
  137.5203   78.8914  222.9982 H   0  0  0  0  0  0  0  0  0  0  0  0
  138.4306   70.2252  222.5479 H   0  0  0  0  0  0  0  0  0  0  0  0
  138.3534   68.6239  224.4266 H   0  0  0  0  0  0  0  0  0  0  0  0
  139.0109   68.0298  226.6375 H   0  0  0  0  0  0  0  0  0  0  0  0
  141.5635   70.6830  228.8967 H   0  0  0  0  0  0  0  0  0  0  0  0
  141.5881   72.2332  226.9734 H   0  0  0  0  0  0  0  0  0  0  0  0
  1  2  2  0
  2  3  1  0
  3  4  1  0
  4  5  1  0
  5  6  2  0
  5  7  1  0
  7  8  1  0
  8  9  1  0
  9 10  1  0
 10 11  1  0
 11 12  1  0
 12 13  2  0
 13 14  1  0
 14 15  2  0
 15 16  1  0
 16 17  1  0
 17 18  1  0
 18 19  1  0
 19 20  1  0
 20 21  1  0
 15 22  1  0
 22 23  2  0
  2 24  1  0
 24 25  2  0
 25 26  1  0
 26 27  2  0
 27 28  1  0
 28 29  2  0
 29 30  1  0
 29 31  1  0
 31 32  2  0
 32 33  1  0
 33 34  2  0
 11  7  1  0
 23 12  1  0
 34 24  1  0
 21 17  1  0
 33 27  1  0
  3 35  1  0
  4 36  1  0
  4 37  1  0
  8 38  1  0
  8 39  1  0
  9 40  1  0
  9 41  1  0
 10 42  1  0
 10 43  1  0
 11 44  1  6
 13 45  1  0
 16 46  1  0
 17 47  1  0
 18 48  1  0
 18 49  1  0
 19 50  1  0
 19 51  1  0
 20 52  1  0
 20 53  1  0
 21 54  1  0
 21 55  1  0
 23 56  1  0
 25 57  1  0
 26 58  1  0
 28 59  1  0
 31 60  1  0
 32 61  1  0
M  END
>  <smiles>  (46) 
O=C(NCC(=O)N1CCC[C@H]1c1cnc(NC2CCCC2)nc1)c1ccc2cc(F)ccc2n1

>  <score_type>  (46) 
oracle

>  <origin>  (46) 
autodockgpu

>  <m_score__min__energy>  (46) 
-9.4299999999999997

>  <m_primary>  (46) 
energy

>  <rmsd>  (46) 
3.601517268745309

>  <m_score__min__rmsd>  (46) 
3.601517268745309

>  <meeko>  (46) 
{"free_energy": -8.33, "intermolecular_energy": -10.41, "internal_energy": -1.78, "cluster_size": 13, "cluster_id": 3, "rank_in_cluster": 7}

>  <energy>  (46) 
-7.25

>  <cluster_rmsd>  (46) 
0.0

>  <cluster>  (46) 
10

$$$$

     RDKit          3D

 61 65  0  0  0  0  0  0  0  0999 V2000
  138.8780   71.3500  221.4200 O   0  0  0  0  0  0  0  0  0  0  0  0
  138.4670   71.6380  222.5910 C   0  0  0  0  0  0  0  0  0  0  0  0
  137.5480   72.6970  222.6950 N   0  0  0  0  0  0  0  0  0  0  0  0
  137.1580   73.3600  221.4430 C   0  0  0  0  0  0  0  0  0  0  0  0
  138.1010   74.4920  221.2520 C   0  0  0  0  0  0  0  0  0  0  0  0
  137.7610   75.6980  221.4830 O   0  0  0  0  0  0  0  0  0  0  0  0
  139.4380   74.3070  220.8040 N   0  0  0  0  0  0  0  0  0  0  0  0
  139.7530   73.8520  219.4590 C   0  0  0  0  0  0  0  0  0  0  0  0
  141.2320   73.6070  219.4310 C   0  0  0  0  0  0  0  0  0  0  0  0
  141.7200   73.6870  220.8650 C   0  0  0  0  0  0  0  0  0  0  0  0
  140.6600   74.5210  221.5540 C   0  0  1  0  0  0  0  0  0  0  0  0
  141.0700   75.9490  221.5860 C   0  0  0  0  0  0  0  0  0  0  0  0
  141.6390   76.5710  220.4950 C   0  0  0  0  0  0  0  0  0  0  0  0
  142.0120   77.8670  220.5220 N   0  0  0  0  0  0  0  0  0  0  0  0
  141.8380   78.6120  221.6360 C   0  0  0  0  0  0  0  0  0  0  0  0
  142.2430   79.9780  221.6300 N   0  0  0  0  0  0  0  0  0  0  0  0
  141.2600   80.9550  222.0480 C   0  0  0  0  0  0  0  0  0  0  0  0
  141.0270   80.9210  223.5380 C   0  0  0  0  0  0  0  0  0  0  0  0
  139.5470   80.7410  223.7300 C   0  0  0  0  0  0  0  0  0  0  0  0
  139.0920   80.0190  222.4960 C   0  0  0  0  0  0  0  0  0  0  0  0
  139.9280   80.6710  221.4130 C   0  0  0  0  0  0  0  0  0  0  0  0
  141.2830   78.0240  222.7140 N   0  0  0  0  0  0  0  0  0  0  0  0
  140.8990   76.7340  222.7240 C   0  0  0  0  0  0  0  0  0  0  0  0
  138.9430   70.8880  223.7470 C   0  0  0  0  0  0  0  0  0  0  0  0
  138.7820   69.5180  223.7730 C   0  0  0  0  0  0  0  0  0  0  0  0
  139.2070   68.7480  224.8300 C   0  0  0  0  0  0  0  0  0  0  0  0
  139.8140   69.3780  225.8960 C   0  0  0  0  0  0  0  0  0  0  0  0
  140.2470   68.6200  226.9660 C   0  0  0  0  0  0  0  0  0  0  0  0
  140.8560   69.2400  228.0390 C   0  0  0  0  0  0  0  0  0  0  0  0
  141.2740   68.4900  229.0770 F   0  0  0  0  0  0  0  0  0  0  0  0
  141.0300   70.6260  228.0320 C   0  0  0  0  0  0  0  0  0  0  0  0
  140.5790   71.3420  226.9380 C   0  0  0  0  0  0  0  0  0  0  0  0
  139.9670   70.7500  225.8520 C   0  0  0  0  0  0  0  0  0  0  0  0
  139.5440   71.4970  224.8050 N   0  0  0  0  0  0  0  0  0  0  0  0
  137.1800   72.9760  223.6180 H   0  0  0  0  0  0  0  0  0  0  0  0
  137.2339   72.6563  220.6010 H   0  0  0  0  0  0  0  0  0  0  0  0
  136.1173   73.7133  221.4881 H   0  0  0  0  0  0  0  0  0  0  0  0
  139.2090   72.9226  219.2345 H   0  0  0  0  0  0  0  0  0  0  0  0
  139.4578   74.5977  218.7062 H   0  0  0  0  0  0  0  0  0  0  0  0
  141.4424   72.6107  219.0150 H   0  0  0  0  0  0  0  0  0  0  0  0
  141.7419   74.3498  218.7999 H   0  0  0  0  0  0  0  0  0  0  0  0
  141.7854   72.6851  221.3144 H   0  0  0  0  0  0  0  0  0  0  0  0
  142.7278   74.1195  220.9508 H   0  0  0  0  0  0  0  0  0  0  0  0
  140.5132   74.2307  222.6048 H   0  0  0  0  0  0  0  0  0  0  0  0
  141.7938   75.9917  219.5728 H   0  0  0  0  0  0  0  0  0  0  0  0
  143.2120   80.2270  221.3330 H   0  0  0  0  0  0  0  0  0  0  0  0
  141.6594   81.9335  221.7429 H   0  0  0  0  0  0  0  0  0  0  0  0
  141.5746   80.0809  223.9900 H   0  0  0  0  0  0  0  0  0  0  0  0
  141.3831   81.8438  224.0193 H   0  0  0  0  0  0  0  0  0  0  0  0
  139.3419   80.1413  224.6290 H   0  0  0  0  0  0  0  0  0  0  0  0
  139.0244   81.6987  223.8704 H   0  0  0  0  0  0  0  0  0  0  0  0
  139.3006   78.9412  222.5655 H   0  0  0  0  0  0  0  0  0  0  0  0
  138.0087   80.0899  222.3186 H   0  0  0  0  0  0  0  0  0  0  0  0
  140.0476   79.9898  220.5577 H   0  0  0  0  0  0  0  0  0  0  0  0
  139.4555   81.5876  221.0300 H   0  0  0  0  0  0  0  0  0  0  0  0
  140.4506   76.3001  223.6299 H   0  0  0  0  0  0  0  0  0  0  0  0
  138.2966   69.0244  222.9182 H   0  0  0  0  0  0  0  0  0  0  0  0
  139.0664   67.6570  224.8254 H   0  0  0  0  0  0  0  0  0  0  0  0
  140.1076   67.5289  226.9636 H   0  0  0  0  0  0  0  0  0  0  0  0
  141.5147   71.1364  228.8773 H   0  0  0  0  0  0  0  0  0  0  0  0
  140.7144   72.4336  226.9334 H   0  0  0  0  0  0  0  0  0  0  0  0
  1  2  2  0
  2  3  1  0
  3  4  1  0
  4  5  1  0
  5  6  2  0
  5  7  1  0
  7  8  1  0
  8  9  1  0
  9 10  1  0
 10 11  1  0
 11 12  1  0
 12 13  2  0
 13 14  1  0
 14 15  2  0
 15 16  1  0
 16 17  1  0
 17 18  1  0
 18 19  1  0
 19 20  1  0
 20 21  1  0
 15 22  1  0
 22 23  2  0
  2 24  1  0
 24 25  2  0
 25 26  1  0
 26 27  2  0
 27 28  1  0
 28 29  2  0
 29 30  1  0
 29 31  1  0
 31 32  2  0
 32 33  1  0
 33 34  2  0
 11  7  1  0
 23 12  1  0
 34 24  1  0
 21 17  1  0
 33 27  1  0
  3 35  1  0
  4 36  1  0
  4 37  1  0
  8 38  1  0
  8 39  1  0
  9 40  1  0
  9 41  1  0
 10 42  1  0
 10 43  1  0
 11 44  1  1
 13 45  1  0
 16 46  1  0
 17 47  1  0
 18 48  1  0
 18 49  1  0
 19 50  1  0
 19 51  1  0
 20 52  1  0
 20 53  1  0
 21 54  1  0
 21 55  1  0
 23 56  1  0
 25 57  1  0
 26 58  1  0
 28 59  1  0
 31 60  1  0
 32 61  1  0
M  END
>  <smiles>  (47) 
O=C(NCC(=O)N1CCC[C@H]1c1cnc(NC2CCCC2)nc1)c1ccc2cc(F)ccc2n1

>  <score_type>  (47) 
oracle

>  <origin>  (47) 
autodockgpu

>  <m_score__min__energy>  (47) 
-9.4299999999999997

>  <m_primary>  (47) 
energy

>  <rmsd>  (47) 
2.08767775447439

>  <m_score__min__rmsd>  (47) 
2.08767775447439

>  <meeko>  (47) 
{"free_energy": -8.15, "intermolecular_energy": -10.24, "internal_energy": -1.89, "cluster_size": 3, "cluster_id": 7, "rank_in_cluster": 2}

>  <energy>  (47) 
-6.78

>  <cluster_rmsd>  (47) 
0.99

>  <cluster>  (47) 
10

$$$$

     RDKit          3D

 61 65  0  0  0  0  0  0  0  0999 V2000
  140.5870   72.9940  223.0910 O   0  0  0  0  0  0  0  0  0  0  0  0
  140.1530   73.4380  221.9790 C   0  0  0  0  0  0  0  0  0  0  0  0
  139.2800   72.5990  221.2620 N   0  0  0  0  0  0  0  0  0  0  0  0
  138.9610   71.3010  221.8730 C   0  0  0  0  0  0  0  0  0  0  0  0
  138.3360   70.4750  220.8070 C   0  0  0  0  0  0  0  0  0  0  0  0
  138.0700   70.9510  219.6560 O   0  0  0  0  0  0  0  0  0  0  0  0
  137.9950   69.1080  221.0010 N   0  0  0  0  0  0  0  0  0  0  0  0
  138.4890   68.0510  220.1340 C   0  0  0  0  0  0  0  0  0  0  0  0
  137.7730   66.7990  220.5420 C   0  0  0  0  0  0  0  0  0  0  0  0
  136.6680   67.2130  221.4950 C   0  0  0  0  0  0  0  0  0  0  0  0
  137.1450   68.5460  222.0330 C   0  0  1  0  0  0  0  0  0  0  0  0
  137.8590   68.3550  223.3220 C   0  0  0  0  0  0  0  0  0  0  0  0
  138.8770   67.4350  223.4650 C   0  0  0  0  0  0  0  0  0  0  0  0
  139.5250   67.2600  224.6340 N   0  0  0  0  0  0  0  0  0  0  0  0
  139.1960   67.9890  225.7220 C   0  0  0  0  0  0  0  0  0  0  0  0
  139.9030   67.7780  226.9420 N   0  0  0  0  0  0  0  0  0  0  0  0
  140.8800   68.7790  227.3150 C   0  0  0  0  0  0  0  0  0  0  0  0
  140.2730   69.8760  228.1540 C   0  0  0  0  0  0  0  0  0  0  0  0
  140.6050   71.1700  227.4630 C   0  0  0  0  0  0  0  0  0  0  0  0
  140.7470   70.7970  226.0160 C   0  0  0  0  0  0  0  0  0  0  0  0
  141.4410   69.4520  226.0940 C   0  0  0  0  0  0  0  0  0  0  0  0
  138.2040   68.8940  225.6060 N   0  0  0  0  0  0  0  0  0  0  0  0
  137.5350   69.0960  224.4550 C   0  0  0  0  0  0  0  0  0  0  0  0
  140.5570   74.7530  221.4970 C   0  0  0  0  0  0  0  0  0  0  0  0
  140.8330   74.9220  220.1560 C   0  0  0  0  0  0  0  0  0  0  0  0
  141.2200   76.1330  219.6320 C   0  0  0  0  0  0  0  0  0  0  0  0
  141.3320   77.2100  220.4870 C   0  0  0  0  0  0  0  0  0  0  0  0
  141.7190   78.4330  219.9780 C   0  0  0  0  0  0  0  0  0  0  0  0
  141.8350   79.5190  220.8240 C   0  0  0  0  0  0  0  0  0  0  0  0
  142.2130   80.7080  220.3160 F   0  0  0  0  0  0  0  0  0  0  0  0
  141.5590   79.3690  222.1860 C   0  0  0  0  0  0  0  0  0  0  0  0
  141.1740   78.1230  222.6480 C   0  0  0  0  0  0  0  0  0  0  0  0
  141.0510   77.0220  221.8260 C   0  0  0  0  0  0  0  0  0  0  0  0
  140.6710   75.8230  222.3290 N   0  0  0  0  0  0  0  0  0  0  0  0
  138.8960   72.9040  220.3540 H   0  0  0  0  0  0  0  0  0  0  0  0
  139.8787   70.8177  222.2394 H   0  0  0  0  0  0  0  0  0  0  0  0
  138.2839   71.4211  222.7316 H   0  0  0  0  0  0  0  0  0  0  0  0
  138.2707   68.2885  219.0824 H   0  0  0  0  0  0  0  0  0  0  0  0
  139.5789   67.9354  220.2277 H   0  0  0  0  0  0  0  0  0  0  0  0
  137.3443   66.3035  219.6584 H   0  0  0  0  0  0  0  0  0  0  0  0
  138.4629   66.0905  221.0237 H   0  0  0  0  0  0  0  0  0  0  0  0
  135.7113   67.3233  220.9634 H   0  0  0  0  0  0  0  0  0  0  0  0
  136.4860   66.4719  222.2873 H   0  0  0  0  0  0  0  0  0  0  0  0
  136.3142   69.2325  222.2533 H   0  0  0  0  0  0  0  0  0  0  0  0
  139.1692   66.8249  222.5976 H   0  0  0  0  0  0  0  0  0  0  0  0
  139.6990   66.9310  227.5150 H   0  0  0  0  0  0  0  0  0  0  0  0
  141.6569   68.2454  227.8822 H   0  0  0  0  0  0  0  0  0  0  0  0
  139.1824   69.7473  228.2177 H   0  0  0  0  0  0  0  0  0  0  0  0
  140.6678   69.8586  229.1806 H   0  0  0  0  0  0  0  0  0  0  0  0
  139.7952   71.9020  227.5983 H   0  0  0  0  0  0  0  0  0  0  0  0
  141.5153   71.6380  227.8658 H   0  0  0  0  0  0  0  0  0  0  0  0
  139.7645   70.7103  225.5290 H   0  0  0  0  0  0  0  0  0  0  0  0
  141.2967   71.5417  225.4218 H   0  0  0  0  0  0  0  0  0  0  0  0
  141.2266   68.8564  225.1944 H   0  0  0  0  0  0  0  0  0  0  0  0
  142.5340   69.5604  226.1545 H   0  0  0  0  0  0  0  0  0  0  0  0
  136.7323   69.8467  224.4100 H   0  0  0  0  0  0  0  0  0  0  0  0
  140.7402   74.0575  219.4821 H   0  0  0  0  0  0  0  0  0  0  0  0
  141.4348   76.2403  218.5585 H   0  0  0  0  0  0  0  0  0  0  0  0
  141.9339   78.5425  218.9048 H   0  0  0  0  0  0  0  0  0  0  0  0
  141.6459   80.2222  222.8749 H   0  0  0  0  0  0  0  0  0  0  0  0
  140.9560   78.0049  223.7197 H   0  0  0  0  0  0  0  0  0  0  0  0
  1  2  2  0
  2  3  1  0
  3  4  1  0
  4  5  1  0
  5  6  2  0
  5  7  1  0
  7  8  1  0
  8  9  1  0
  9 10  1  0
 10 11  1  0
 11 12  1  0
 12 13  2  0
 13 14  1  0
 14 15  2  0
 15 16  1  0
 16 17  1  0
 17 18  1  0
 18 19  1  0
 19 20  1  0
 20 21  1  0
 15 22  1  0
 22 23  2  0
  2 24  1  0
 24 25  2  0
 25 26  1  0
 26 27  2  0
 27 28  1  0
 28 29  2  0
 29 30  1  0
 29 31  1  0
 31 32  2  0
 32 33  1  0
 33 34  2  0
 11  7  1  0
 23 12  1  0
 34 24  1  0
 21 17  1  0
 33 27  1  0
  3 35  1  0
  4 36  1  0
  4 37  1  0
  8 38  1  0
  8 39  1  0
  9 40  1  0
  9 41  1  0
 10 42  1  0
 10 43  1  0
 11 44  1  1
 13 45  1  0
 16 46  1  0
 17 47  1  0
 18 48  1  0
 18 49  1  0
 19 50  1  0
 19 51  1  0
 20 52  1  0
 20 53  1  0
 21 54  1  0
 21 55  1  0
 23 56  1  0
 25 57  1  0
 26 58  1  0
 28 59  1  0
 31 60  1  0
 32 61  1  0
M  END
>  <smiles>  (48) 
O=C(NCC(=O)N1CCC[C@H]1c1cnc(NC2CCCC2)nc1)c1ccc2cc(F)ccc2n1

>  <score_type>  (48) 
oracle

>  <origin>  (48) 
autodockgpu

>  <m_score__min__energy>  (48) 
-9.4299999999999997

>  <m_primary>  (48) 
energy

>  <rmsd>  (48) 
8.571990735504478

>  <m_score__min__rmsd>  (48) 
8.571990735504478

>  <meeko>  (48) 
{"free_energy": -7.98, "intermolecular_energy": -10.07, "internal_energy": -2.17, "cluster_size": 8, "cluster_id": 1, "rank_in_cluster": 8}

>  <energy>  (48) 
-6.73

>  <cluster_rmsd>  (48) 
1.05

>  <cluster>  (48) 
10

$$$$

     RDKit          3D

 61 65  0  0  0  0  0  0  0  0999 V2000
  140.0200   73.0260  222.7130 O   0  0  0  0  0  0  0  0  0  0  0  0
  139.6110   71.8470  222.9680 C   0  0  0  0  0  0  0  0  0  0  0  0
  138.8050   71.2330  221.9930 N   0  0  0  0  0  0  0  0  0  0  0  0
  138.5210   72.0160  220.7820 C   0  0  0  0  0  0  0  0  0  0  0  0
  137.0720   72.3400  220.8170 C   0  0  0  0  0  0  0  0  0  0  0  0
  136.2170   71.6750  220.1450 O   0  0  0  0  0  0  0  0  0  0  0  0
  136.5450   73.4050  221.5980 N   0  0  0  0  0  0  0  0  0  0  0  0
  135.9940   73.1990  222.9280 C   0  0  0  0  0  0  0  0  0  0  0  0
  135.3840   74.5050  223.3410 C   0  0  0  0  0  0  0  0  0  0  0  0
  135.3740   75.3950  222.1120 C   0  0  0  0  0  0  0  0  0  0  0  0
  136.4640   74.8080  221.2400 C   0  0  1  0  0  0  0  0  0  0  0  0
  137.7440   75.5310  221.4600 C   0  0  0  0  0  0  0  0  0  0  0  0
  138.0710   76.0830  222.6810 C   0  0  0  0  0  0  0  0  0  0  0  0
  139.2320   76.7390  222.8820 N   0  0  0  0  0  0  0  0  0  0  0  0
  140.1270   76.8810  221.8810 C   0  0  0  0  0  0  0  0  0  0  0  0
  141.3440   77.5810  222.1290 N   0  0  0  0  0  0  0  0  0  0  0  0
  141.3150   78.6030  223.1530 C   0  0  0  0  0  0  0  0  0  0  0  0
  140.1830   79.5800  222.9450 C   0  0  0  0  0  0  0  0  0  0  0  0
  140.8050   80.9480  222.9240 C   0  0  0  0  0  0  0  0  0  0  0  0
  142.2070   80.7180  222.4400 C   0  0  0  0  0  0  0  0  0  0  0  0
  142.5770   79.4180  223.1250 C   0  0  0  0  0  0  0  0  0  0  0  0
  139.8280   76.3490  220.6790 N   0  0  0  0  0  0  0  0  0  0  0  0
  138.6800   75.6880  220.4410 C   0  0  0  0  0  0  0  0  0  0  0  0
  139.9750   71.1910  224.2190 C   0  0  0  0  0  0  0  0  0  0  0  0
  140.7110   71.8890  225.1530 C   0  0  0  0  0  0  0  0  0  0  0  0
  141.0900   71.3340  226.3540 C   0  0  0  0  0  0  0  0  0  0  0  0
  140.7140   70.0340  226.6210 C   0  0  0  0  0  0  0  0  0  0  0  0
  141.0850   69.4620  227.8220 C   0  0  0  0  0  0  0  0  0  0  0  0
  140.7140   68.1610  228.1010 C   0  0  0  0  0  0  0  0  0  0  0  0
  141.0820   67.6130  229.2750 F   0  0  0  0  0  0  0  0  0  0  0  0
  139.9670   67.4380  227.1680 C   0  0  0  0  0  0  0  0  0  0  0  0
  139.6190   68.0550  225.9800 C   0  0  0  0  0  0  0  0  0  0  0  0
  139.9760   69.3530  225.6740 C   0  0  0  0  0  0  0  0  0  0  0  0
  139.6100   69.9100  224.4960 N   0  0  0  0  0  0  0  0  0  0  0  0
  138.4430   70.2790  222.1440 H   0  0  0  0  0  0  0  0  0  0  0  0
  139.1168   72.9407  220.7794 H   0  0  0  0  0  0  0  0  0  0  0  0
  138.7796   71.4510  219.8743 H   0  0  0  0  0  0  0  0  0  0  0  0
  135.2264   72.4114  222.9039 H   0  0  0  0  0  0  0  0  0  0  0  0
  136.7725   72.8808  223.6370 H   0  0  0  0  0  0  0  0  0  0  0  0
  134.3569   74.3457  223.7011 H   0  0  0  0  0  0  0  0  0  0  0  0
  135.9585   74.9673  224.1572 H   0  0  0  0  0  0  0  0  0  0  0  0
  134.3991   75.3528  221.6042 H   0  0  0  0  0  0  0  0  0  0  0  0
  135.5414   76.4557  222.3504 H   0  0  0  0  0  0  0  0  0  0  0  0
  136.2460   74.9113  220.1668 H   0  0  0  0  0  0  0  0  0  0  0  0
  137.3627   75.9851  223.5169 H   0  0  0  0  0  0  0  0  0  0  0  0
  142.1970   77.3400  221.5790 H   0  0  0  0  0  0  0  0  0  0  0  0
  141.1934   78.0693  224.1071 H   0  0  0  0  0  0  0  0  0  0  0  0
  139.6757   79.3775  221.9902 H   0  0  0  0  0  0  0  0  0  0  0  0
  139.4302   79.4953  223.7425 H   0  0  0  0  0  0  0  0  0  0  0  0
  140.2606   81.6118  222.2363 H   0  0  0  0  0  0  0  0  0  0  0  0
  140.7783   81.4340  223.9104 H   0  0  0  0  0  0  0  0  0  0  0  0
  142.2384   80.6143  221.3454 H   0  0  0  0  0  0  0  0  0  0  0  0
  142.8931   81.5468  222.6689 H   0  0  0  0  0  0  0  0  0  0  0  0
  143.3600   78.8940  222.5572 H   0  0  0  0  0  0  0  0  0  0  0  0
  142.9736   79.5893  224.1366 H   0  0  0  0  0  0  0  0  0  0  0  0
  138.4813   75.2721  219.4422 H   0  0  0  0  0  0  0  0  0  0  0  0
  141.0054   72.9253  224.9305 H   0  0  0  0  0  0  0  0  0  0  0  0
  141.6776   71.9122  227.0823 H   0  0  0  0  0  0  0  0  0  0  0  0
  141.6722   70.0387  228.5518 H   0  0  0  0  0  0  0  0  0  0  0  0
  139.6623   66.4012  227.3735 H   0  0  0  0  0  0  0  0  0  0  0  0
  139.0309   67.4854  225.2454 H   0  0  0  0  0  0  0  0  0  0  0  0
  1  2  2  0
  2  3  1  0
  3  4  1  0
  4  5  1  0
  5  6  2  0
  5  7  1  0
  7  8  1  0
  8  9  1  0
  9 10  1  0
 10 11  1  0
 11 12  1  0
 12 13  2  0
 13 14  1  0
 14 15  2  0
 15 16  1  0
 16 17  1  0
 17 18  1  0
 18 19  1  0
 19 20  1  0
 20 21  1  0
 15 22  1  0
 22 23  2  0
  2 24  1  0
 24 25  2  0
 25 26  1  0
 26 27  2  0
 27 28  1  0
 28 29  2  0
 29 30  1  0
 29 31  1  0
 31 32  2  0
 32 33  1  0
 33 34  2  0
 11  7  1  0
 23 12  1  0
 34 24  1  0
 21 17  1  0
 33 27  1  0
  3 35  1  0
  4 36  1  0
  4 37  1  0
  8 38  1  0
  8 39  1  0
  9 40  1  0
  9 41  1  0
 10 42  1  0
 10 43  1  0
 11 44  1  6
 13 45  1  0
 16 46  1  0
 17 47  1  0
 18 48  1  0
 18 49  1  0
 19 50  1  0
 19 51  1  0
 20 52  1  0
 20 53  1  0
 21 54  1  0
 21 55  1  0
 23 56  1  0
 25 57  1  0
 26 58  1  0
 28 59  1  0
 31 60  1  0
 32 61  1  0
M  END
>  <smiles>  (49) 
O=C(NCC(=O)N1CCC[C@H]1c1cnc(NC2CCCC2)nc1)c1ccc2cc(F)ccc2n1

>  <score_type>  (49) 
oracle

>  <origin>  (49) 
autodockgpu

>  <m_score__min__energy>  (49) 
-9.4299999999999997

>  <m_primary>  (49) 
energy

>  <rmsd>  (49) 
4.533420552589994

>  <m_score__min__rmsd>  (49) 
4.533420552589994

>  <meeko>  (49) 
{"free_energy": -8.25, "intermolecular_energy": -10.33, "internal_energy": -2.0, "cluster_size": 13, "cluster_id": 3, "rank_in_cluster": 10}

>  <energy>  (49) 
-6.63

>  <cluster_rmsd>  (49) 
1.0

>  <cluster>  (49) 
10

$$$$

     RDKit          3D

 61 65  0  0  0  0  0  0  0  0999 V2000
  141.1380   73.9120  221.0240 O   0  0  0  0  0  0  0  0  0  0  0  0
  140.2850   73.8670  221.9690 C   0  0  0  0  0  0  0  0  0  0  0  0
  139.6750   75.0820  222.3270 N   0  0  0  0  0  0  0  0  0  0  0  0
  140.0840   76.2750  221.5720 C   0  0  0  0  0  0  0  0  0  0  0  0
  139.6350   77.4510  222.3620 C   0  0  0  0  0  0  0  0  0  0  0  0
  138.4370   77.5610  222.7830 O   0  0  0  0  0  0  0  0  0  0  0  0
  140.5050   78.5230  222.6990 N   0  0  0  0  0  0  0  0  0  0  0  0
  141.6550   78.3500  223.5720 C   0  0  0  0  0  0  0  0  0  0  0  0
  142.2020   79.7220  223.8290 C   0  0  0  0  0  0  0  0  0  0  0  0
  141.1860   80.7110  223.2890 C   0  0  0  0  0  0  0  0  0  0  0  0
  140.4160   79.9040  222.2640 C   0  0  1  0  0  0  0  0  0  0  0  0
  140.9880   80.1160  220.9090 C   0  0  0  0  0  0  0  0  0  0  0  0
  140.7230   81.2530  220.1730 C   0  0  0  0  0  0  0  0  0  0  0  0
  141.2400   81.4460  218.9430 N   0  0  0  0  0  0  0  0  0  0  0  0
  142.0480   80.5210  218.3810 C   0  0  0  0  0  0  0  0  0  0  0  0
  142.5780   80.7590  217.0790 N   0  0  0  0  0  0  0  0  0  0  0  0
  142.4440   82.1010  216.5520 C   0  0  0  0  0  0  0  0  0  0  0  0
  143.0880   82.2420  215.1950 C   0  0  0  0  0  0  0  0  0  0  0  0
  144.0500   83.3930  215.3010 C   0  0  0  0  0  0  0  0  0  0  0  0
  144.4410   83.4240  216.7490 C   0  0  0  0  0  0  0  0  0  0  0  0
  143.1360   83.0920  217.4450 C   0  0  0  0  0  0  0  0  0  0  0  0
  142.3210   79.4030  219.0820 N   0  0  0  0  0  0  0  0  0  0  0  0
  141.8220   79.1750  220.3110 C   0  0  0  0  0  0  0  0  0  0  0  0
  139.9780   72.6040  222.6300 C   0  0  0  0  0  0  0  0  0  0  0  0
  139.1300   71.7100  222.0090 C   0  0  0  0  0  0  0  0  0  0  0  0
  138.7970   70.5010  222.5730 C   0  0  0  0  0  0  0  0  0  0  0  0
  139.3360   70.1820  223.8030 C   0  0  0  0  0  0  0  0  0  0  0  0
  139.0120   68.9720  224.3830 C   0  0  0  0  0  0  0  0  0  0  0  0
  139.5440   68.6410  225.6140 C   0  0  0  0  0  0  0  0  0  0  0  0
  139.2210   67.4580  226.1710 F   0  0  0  0  0  0  0  0  0  0  0  0
  140.4060   69.5330  226.2590 C   0  0  0  0  0  0  0  0  0  0  0  0
  140.7000   70.7330  225.6360 C   0  0  0  0  0  0  0  0  0  0  0  0
  140.1830   71.0890  224.4080 C   0  0  0  0  0  0  0  0  0  0  0  0
  140.5030   72.2770  223.8420 N   0  0  0  0  0  0  0  0  0  0  0  0
  138.9770   75.1090  223.0860 H   0  0  0  0  0  0  0  0  0  0  0  0
  141.1774   76.2926  221.4530 H   0  0  0  0  0  0  0  0  0  0  0  0
  139.6398   76.2796  220.5657 H   0  0  0  0  0  0  0  0  0  0  0  0
  141.3473   77.8799  224.5177 H   0  0  0  0  0  0  0  0  0  0  0  0
  142.4119   77.6992  223.1099 H   0  0  0  0  0  0  0  0  0  0  0  0
  142.3431   79.8766  224.9089 H   0  0  0  0  0  0  0  0  0  0  0  0
  143.1782   79.8542  223.3395 H   0  0  0  0  0  0  0  0  0  0  0  0
  140.5206   81.0673  224.0892 H   0  0  0  0  0  0  0  0  0  0  0  0
  141.6506   81.6125  222.8630 H   0  0  0  0  0  0  0  0  0  0  0  0
  139.3617   80.2095  222.1926 H   0  0  0  0  0  0  0  0  0  0  0  0
  140.0695   82.0260  220.6035 H   0  0  0  0  0  0  0  0  0  0  0  0
  143.0350   79.9790  216.5580 H   0  0  0  0  0  0  0  0  0  0  0  0
  141.3628   82.2929  216.4872 H   0  0  0  0  0  0  0  0  0  0  0  0
  143.6257   81.3194  214.9311 H   0  0  0  0  0  0  0  0  0  0  0  0
  142.3358   82.4208  214.4125 H   0  0  0  0  0  0  0  0  0  0  0  0
  144.9307   83.2235  214.6641 H   0  0  0  0  0  0  0  0  0  0  0  0
  143.6049   84.3421  214.9676 H   0  0  0  0  0  0  0  0  0  0  0  0
  145.2123   82.6713  216.9692 H   0  0  0  0  0  0  0  0  0  0  0  0
  144.8771   84.3827  217.0663 H   0  0  0  0  0  0  0  0  0  0  0  0
  143.3294   82.6491  218.4332 H   0  0  0  0  0  0  0  0  0  0  0  0
  142.5223   83.9898  217.6102 H   0  0  0  0  0  0  0  0  0  0  0  0
  142.0730   78.2455  220.8429 H   0  0  0  0  0  0  0  0  0  0  0  0
  138.7058   71.9736  221.0289 H   0  0  0  0  0  0  0  0  0  0  0  0
  138.1184   69.8058  222.0571 H   0  0  0  0  0  0  0  0  0  0  0  0
  138.3341   68.2755  223.8679 H   0  0  0  0  0  0  0  0  0  0  0  0
  140.8404   69.2865  227.2391 H   0  0  0  0  0  0  0  0  0  0  0  0
  141.3774   71.4355  226.1436 H   0  0  0  0  0  0  0  0  0  0  0  0
  1  2  2  0
  2  3  1  0
  3  4  1  0
  4  5  1  0
  5  6  2  0
  5  7  1  0
  7  8  1  0
  8  9  1  0
  9 10  1  0
 10 11  1  0
 11 12  1  0
 12 13  2  0
 13 14  1  0
 14 15  2  0
 15 16  1  0
 16 17  1  0
 17 18  1  0
 18 19  1  0
 19 20  1  0
 20 21  1  0
 15 22  1  0
 22 23  2  0
  2 24  1  0
 24 25  2  0
 25 26  1  0
 26 27  2  0
 27 28  1  0
 28 29  2  0
 29 30  1  0
 29 31  1  0
 31 32  2  0
 32 33  1  0
 33 34  2  0
 11  7  1  0
 23 12  1  0
 34 24  1  0
 21 17  1  0
 33 27  1  0
  3 35  1  0
  4 36  1  0
  4 37  1  0
  8 38  1  0
  8 39  1  0
  9 40  1  0
  9 41  1  0
 10 42  1  0
 10 43  1  0
 11 44  1  6
 13 45  1  0
 16 46  1  0
 17 47  1  0
 18 48  1  0
 18 49  1  0
 19 50  1  0
 19 51  1  0
 20 52  1  0
 20 53  1  0
 21 54  1  0
 21 55  1  0
 23 56  1  0
 25 57  1  0
 26 58  1  0
 28 59  1  0
 31 60  1  0
 32 61  1  0
M  END
>  <smiles>  (50) 
O=C(NCC(=O)N1CCC[C@H]1c1cnc(NC2CCCC2)nc1)c1ccc2cc(F)ccc2n1

>  <score_type>  (50) 
oracle

>  <origin>  (50) 
autodockgpu

>  <m_score__min__energy>  (50) 
-9.4299999999999997

>  <m_primary>  (50) 
energy

>  <rmsd>  (50) 
4.2389470199087755

>  <m_score__min__rmsd>  (50) 
4.2389470199087755

>  <meeko>  (50) 
{"free_energy": -8.35, "intermolecular_energy": -10.44, "internal_energy": -1.49, "cluster_size": 1, "cluster_id": 8, "rank_in_cluster": 1}

>  <energy>  (50) 
-6.49

>  <cluster_rmsd>  (50) 
1.08

>  <cluster>  (50) 
10

$$$$
