
     RDKit          3D

 48 50  0  0  0  0  0  0  0  0999 V2000
  139.4320   80.0980  223.8400 C   0  0  0  0  0  0  0  0  0  0  0  0
  140.5130   79.3600  223.1970 N   0  0  0  0  0  0  0  0  0  0  0  0
  141.8240   79.4770  223.7990 C   0  0  0  0  0  0  0  0  0  0  0  0
  140.2350   78.5900  222.0540 C   0  0  0  0  0  0  0  0  0  0  0  0
  139.0550   78.5710  221.6280 O   0  0  0  0  0  0  0  0  0  0  0  0
  141.3470   77.8380  221.4000 C   0  0  2  0  0  0  0  0  0  0  0  0
  141.8140   78.6160  220.1890 C   0  0  0  0  0  0  0  0  0  0  0  0
  141.3370   77.8610  218.9680 C   0  0  0  0  0  0  0  0  0  0  0  0
  141.2560   76.4530  219.4640 C   0  0  0  0  0  0  0  0  0  0  0  0
  140.8830   76.5770  220.8600 N   0  0  0  0  0  0  0  0  0  0  0  0
  140.1600   75.6060  221.6050 C   0  0  0  0  0  0  0  0  0  0  0  0
  139.5150   75.8720  222.6530 O   0  0  0  0  0  0  0  0  0  0  0  0
  140.1340   74.1770  221.1660 C   0  0  0  0  0  0  0  0  0  0  0  0
  139.9050   73.3810  222.3640 N   0  0  0  0  0  0  0  0  0  0  0  0
  140.4460   72.0850  222.4080 C   0  0  0  0  0  0  0  0  0  0  0  0
  141.1080   71.6840  221.3940 O   0  0  0  0  0  0  0  0  0  0  0  0
  140.2620   71.2230  223.5710 C   0  0  0  0  0  0  0  0  0  0  0  0
  139.5840   70.0160  223.4130 C   0  0  0  0  0  0  0  0  0  0  0  0
  139.3980   69.1770  224.5150 C   0  0  0  0  0  0  0  0  0  0  0  0
  139.8960   69.5690  225.7370 C   0  0  0  0  0  0  0  0  0  0  0  0
  139.6960   68.7110  226.8170 C   0  0  0  0  0  0  0  0  0  0  0  0
  140.1930   69.1000  228.0430 C   0  0  0  0  0  0  0  0  0  0  0  0
  139.9930   68.2560  229.0950 F   0  0  0  0  0  0  0  0  0  0  0  0
  140.8590   70.2930  228.1740 C   0  0  0  0  0  0  0  0  0  0  0  0
  141.0640   71.1600  227.1000 C   0  0  0  0  0  0  0  0  0  0  0  0
  140.5660   70.7700  225.8690 C   0  0  0  0  0  0  0  0  0  0  0  0
  140.7390   71.5720  224.7980 N   0  0  0  0  0  0  0  0  0  0  0  0
  139.5379   80.0257  224.9325 H   0  0  0  0  0  0  0  0  0  0  0  0
  139.4778   81.1542  223.5362 H   0  0  0  0  0  0  0  0  0  0  0  0
  138.4650   79.6707  223.5362 H   0  0  0  0  0  0  0  0  0  0  0  0
  141.7265   79.4683  224.8946 H   0  0  0  0  0  0  0  0  0  0  0  0
  142.4508   78.6312  223.4799 H   0  0  0  0  0  0  0  0  0  0  0  0
  142.2911   80.4204  223.4799 H   0  0  0  0  0  0  0  0  0  0  0  0
  142.1283   77.6862  222.1593 H   0  0  0  0  0  0  0  0  0  0  0  0
  141.3822   79.6277  220.2003 H   0  0  0  0  0  0  0  0  0  0  0  0
  142.9094   78.7168  220.1854 H   0  0  0  0  0  0  0  0  0  0  0  0
  140.3521   78.2226  218.6376 H   0  0  0  0  0  0  0  0  0  0  0  0
  141.9967   77.9796  218.0958 H   0  0  0  0  0  0  0  0  0  0  0  0
  140.4936   75.8885  218.9071 H   0  0  0  0  0  0  0  0  0  0  0  0
  142.2033   75.9095  219.3323 H   0  0  0  0  0  0  0  0  0  0  0  0
  139.3216   74.0165  220.4420 H   0  0  0  0  0  0  0  0  0  0  0  0
  141.0767   73.8944  220.6746 H   0  0  0  0  0  0  0  0  0  0  0  0
  139.3640   73.7180  223.1840 H   0  0  0  0  0  0  0  0  0  0  0  0
  139.1969   69.7249  222.4254 H   0  0  0  0  0  0  0  0  0  0  0  0
  138.8637   68.2214  224.4080 H   0  0  0  0  0  0  0  0  0  0  0  0
  139.1608   67.7576  226.6957 H   0  0  0  0  0  0  0  0  0  0  0  0
  141.2461   70.5766  229.1638 H   0  0  0  0  0  0  0  0  0  0  0  0
  141.5987   72.1130  227.2264 H   0  0  0  0  0  0  0  0  0  0  0  0
  1  2  1  0
  2  3  1  0
  2  4  1  0
  4  5  2  0
  4  6  1  0
  6  7  1  0
  7  8  1  0
  8  9  1  0
  9 10  1  0
 10 11  1  0
 11 12  2  0
 11 13  1  0
 13 14  1  0
 14 15  1  0
 15 16  2  0
 15 17  1  0
 17 18  2  0
 18 19  1  0
 19 20  2  0
 20 21  1  0
 21 22  2  0
 22 23  1  0
 22 24  1  0
 24 25  2  0
 25 26  1  0
 26 27  2  0
 10  6  1  0
 27 17  1  0
 26 20  1  0
  1 28  1  0
  1 29  1  0
  1 30  1  0
  3 31  1  0
  3 32  1  0
  3 33  1  0
  6 34  1  1
  7 35  1  0
  7 36  1  0
  8 37  1  0
  8 38  1  0
  9 39  1  0
  9 40  1  0
 13 41  1  0
 13 42  1  0
 14 43  1  0
 18 44  1  0
 19 45  1  0
 21 46  1  0
 24 47  1  0
 25 48  1  0
M  END
>  <smiles>  (1) 
CN(C)C(=O)[C@@H]1CCCN1C(=O)CNC(=O)c1ccc2cc(F)ccc2n1

>  <score_type>  (1) 
oracle

>  <origin>  (1) 
autodockgpu

>  <m_score__min__energy>  (1) 
-7.6299999999999999

>  <m_primary>  (1) 
energy

>  <rmsd>  (1) 
1.8642014851569328

>  <m_score__min__rmsd>  (1) 
1.8642014851569328

>  <meeko>  (1) 
{"free_energy": -7.37, "intermolecular_energy": -8.86, "internal_energy": -1.8, "cluster_size": 26, "cluster_id": 1, "rank_in_cluster": 4}

>  <energy>  (1) 
-7.63

>  <cluster_rmsd>  (1) 
0.0

>  <cluster>  (1) 
1

$$$$

     RDKit          3D

 48 50  0  0  0  0  0  0  0  0999 V2000
  144.9100   73.7930  220.4380 C   0  0  0  0  0  0  0  0  0  0  0  0
  143.6500   74.1800  219.8130 N   0  0  0  0  0  0  0  0  0  0  0  0
  142.7880   73.1030  219.3740 C   0  0  0  0  0  0  0  0  0  0  0  0
  143.3420   75.5440  219.6730 C   0  0  0  0  0  0  0  0  0  0  0  0
  144.1750   76.3830  220.0940 O   0  0  0  0  0  0  0  0  0  0  0  0
  142.0510   75.9320  219.0310 C   0  0  2  0  0  0  0  0  0  0  0  0
  142.2190   77.2900  218.3850 C   0  0  0  0  0  0  0  0  0  0  0  0
  141.4490   78.2800  219.2320 C   0  0  0  0  0  0  0  0  0  0  0  0
  140.3870   77.4280  219.8480 C   0  0  0  0  0  0  0  0  0  0  0  0
  141.0120   76.1310  220.0200 N   0  0  0  0  0  0  0  0  0  0  0  0
  140.6640   75.1770  221.0160 C   0  0  0  0  0  0  0  0  0  0  0  0
  141.2550   75.0810  222.1220 O   0  0  0  0  0  0  0  0  0  0  0  0
  139.5440   74.2130  220.7860 C   0  0  0  0  0  0  0  0  0  0  0  0
  139.3710   73.4770  222.0310 N   0  0  0  0  0  0  0  0  0  0  0  0
  140.0990   72.2890  222.2010 C   0  0  0  0  0  0  0  0  0  0  0  0
  140.8720   71.9260  221.2520 O   0  0  0  0  0  0  0  0  0  0  0  0
  139.9840   71.4920  223.4180 C   0  0  0  0  0  0  0  0  0  0  0  0
  139.2480   70.3100  223.3810 C   0  0  0  0  0  0  0  0  0  0  0  0
  139.1250   69.5330  224.5360 C   0  0  0  0  0  0  0  0  0  0  0  0
  139.7420   69.9620  225.6890 C   0  0  0  0  0  0  0  0  0  0  0  0
  139.6030   69.1660  226.8250 C   0  0  0  0  0  0  0  0  0  0  0  0
  140.2200   69.5910  227.9830 C   0  0  0  0  0  0  0  0  0  0  0  0
  140.0790   68.8090  229.0910 F   0  0  0  0  0  0  0  0  0  0  0  0
  140.9400   70.7590  227.9960 C   0  0  0  0  0  0  0  0  0  0  0  0
  141.0860   71.5640  226.8640 C   0  0  0  0  0  0  0  0  0  0  0  0
  140.4680   71.1380  225.7020 C   0  0  0  0  0  0  0  0  0  0  0  0
  140.5780   71.8780  224.5800 N   0  0  0  0  0  0  0  0  0  0  0  0
  144.8020   73.8262  221.5322 H   0  0  0  0  0  0  0  0  0  0  0  0
  145.1754   72.7719  220.1266 H   0  0  0  0  0  0  0  0  0  0  0  0
  145.7028   74.4891  220.1266 H   0  0  0  0  0  0  0  0  0  0  0  0
  142.3731   72.5847  220.2511 H   0  0  0  0  0  0  0  0  0  0  0  0
  141.9667   73.5142  218.7687 H   0  0  0  0  0  0  0  0  0  0  0  0
  143.3691   72.3918  218.7687 H   0  0  0  0  0  0  0  0  0  0  0  0
  141.7847   75.1328  218.3236 H   0  0  0  0  0  0  0  0  0  0  0  0
  143.2835   77.5654  218.3555 H   0  0  0  0  0  0  0  0  0  0  0  0
  141.8441   77.2824  217.3509 H   0  0  0  0  0  0  0  0  0  0  0  0
  142.0936   78.7292  220.0019 H   0  0  0  0  0  0  0  0  0  0  0  0
  141.0495   79.1287  218.6574 H   0  0  0  0  0  0  0  0  0  0  0  0
  140.0734   77.8397  220.8187 H   0  0  0  0  0  0  0  0  0  0  0  0
  139.4815   77.3753  219.2256 H   0  0  0  0  0  0  0  0  0  0  0  0
  138.6210   74.7557  220.5337 H   0  0  0  0  0  0  0  0  0  0  0  0
  139.7682   73.5342  219.9499 H   0  0  0  0  0  0  0  0  0  0  0  0
  138.7390   73.7820  222.7970 H   0  0  0  0  0  0  0  0  0  0  0  0
  138.7653   69.9893  222.4460 H   0  0  0  0  0  0  0  0  0  0  0  0
  138.5467   68.5974  224.5238 H   0  0  0  0  0  0  0  0  0  0  0  0
  139.0220   68.2323  226.7987 H   0  0  0  0  0  0  0  0  0  0  0  0
  141.4207   71.0735  228.9341 H   0  0  0  0  0  0  0  0  0  0  0  0
  141.6677   72.4971  226.8951 H   0  0  0  0  0  0  0  0  0  0  0  0
  1  2  1  0
  2  3  1  0
  2  4  1  0
  4  5  2  0
  4  6  1  0
  6  7  1  0
  7  8  1  0
  8  9  1  0
  9 10  1  0
 10 11  1  0
 11 12  2  0
 11 13  1  0
 13 14  1  0
 14 15  1  0
 15 16  2  0
 15 17  1  0
 17 18  2  0
 18 19  1  0
 19 20  2  0
 20 21  1  0
 21 22  2  0
 22 23  1  0
 22 24  1  0
 24 25  2  0
 25 26  1  0
 26 27  2  0
 10  6  1  0
 27 17  1  0
 26 20  1  0
  1 28  1  0
  1 29  1  0
  1 30  1  0
  3 31  1  0
  3 32  1  0
  3 33  1  0
  6 34  1  6
  7 35  1  0
  7 36  1  0
  8 37  1  0
  8 38  1  0
  9 39  1  0
  9 40  1  0
 13 41  1  0
 13 42  1  0
 14 43  1  0
 18 44  1  0
 19 45  1  0
 21 46  1  0
 24 47  1  0
 25 48  1  0
M  END
>  <smiles>  (2) 
CN(C)C(=O)[C@@H]1CCCN1C(=O)CNC(=O)c1ccc2cc(F)ccc2n1

>  <score_type>  (2) 
oracle

>  <origin>  (2) 
autodockgpu

>  <m_score__min__energy>  (2) 
-7.6299999999999999

>  <m_primary>  (2) 
energy

>  <rmsd>  (2) 
2.6706201512200423

>  <m_score__min__rmsd>  (2) 
2.6706201512200423

>  <meeko>  (2) 
{"free_energy": -7.07, "intermolecular_energy": -8.56, "internal_energy": -1.59, "cluster_size": 3, "cluster_id": 3, "rank_in_cluster": 1}

>  <energy>  (2) 
-7.45

>  <cluster_rmsd>  (2) 
1.32

>  <cluster>  (2) 
1

$$$$

     RDKit          3D

 48 50  0  0  0  0  0  0  0  0999 V2000
  139.5630   79.9770  223.7770 C   0  0  0  0  0  0  0  0  0  0  0  0
  140.6140   79.2230  223.1020 N   0  0  0  0  0  0  0  0  0  0  0  0
  141.8470   79.0340  223.8340 C   0  0  0  0  0  0  0  0  0  0  0  0
  140.3810   78.7300  221.8060 C   0  0  0  0  0  0  0  0  0  0  0  0
  139.2680   78.9630  221.2770 O   0  0  0  0  0  0  0  0  0  0  0  0
  141.4620   77.9600  221.1210 C   0  0  2  0  0  0  0  0  0  0  0  0
  141.8240   78.6710  219.8340 C   0  0  0  0  0  0  0  0  0  0  0  0
  141.2790   77.8330  218.6980 C   0  0  0  0  0  0  0  0  0  0  0  0
  141.2660   76.4570  219.2820 C   0  0  0  0  0  0  0  0  0  0  0  0
  140.9900   76.6600  220.6910 N   0  0  0  0  0  0  0  0  0  0  0  0
  140.3450   75.7230  221.5440 C   0  0  0  0  0  0  0  0  0  0  0  0
  139.8790   76.0180  222.6760 O   0  0  0  0  0  0  0  0  0  0  0  0
  140.1860   74.2970  221.1230 C   0  0  0  0  0  0  0  0  0  0  0  0
  139.9590   73.5290  222.3400 N   0  0  0  0  0  0  0  0  0  0  0  0
  140.4410   72.2110  222.3870 C   0  0  0  0  0  0  0  0  0  0  0  0
  141.0500   71.7650  221.3590 O   0  0  0  0  0  0  0  0  0  0  0  0
  140.2560   71.3740  223.5690 C   0  0  0  0  0  0  0  0  0  0  0  0
  139.6120   70.1480  223.4300 C   0  0  0  0  0  0  0  0  0  0  0  0
  139.4250   69.3320  224.5500 C   0  0  0  0  0  0  0  0  0  0  0  0
  139.8890   69.7690  225.7700 C   0  0  0  0  0  0  0  0  0  0  0  0
  139.6890   68.9340  226.8690 C   0  0  0  0  0  0  0  0  0  0  0  0
  140.1520   69.3680  228.0940 C   0  0  0  0  0  0  0  0  0  0  0  0
  139.9520   68.5470  229.1640 F   0  0  0  0  0  0  0  0  0  0  0  0
  140.7840   70.5800  228.2060 C   0  0  0  0  0  0  0  0  0  0  0  0
  140.9890   71.4240  227.1130 C   0  0  0  0  0  0  0  0  0  0  0  0
  140.5260   70.9900  225.8830 C   0  0  0  0  0  0  0  0  0  0  0  0
  140.7000   71.7670  224.7940 N   0  0  0  0  0  0  0  0  0  0  0  0
  139.6887   79.8868  224.8661 H   0  0  0  0  0  0  0  0  0  0  0  0
  139.6275   81.0361  223.4869 H   0  0  0  0  0  0  0  0  0  0  0  0
  138.5804   79.5766  223.4869 H   0  0  0  0  0  0  0  0  0  0  0  0
  141.6408   79.0656  224.9140 H   0  0  0  0  0  0  0  0  0  0  0  0
  142.2829   78.0585  223.5723 H   0  0  0  0  0  0  0  0  0  0  0  0
  142.5551   79.8341  223.5723 H   0  0  0  0  0  0  0  0  0  0  0  0
  142.2977   77.8698  221.8305 H   0  0  0  0  0  0  0  0  0  0  0  0
  141.3708   79.6731  219.8155 H   0  0  0  0  0  0  0  0  0  0  0  0
  142.9137   78.7920  219.7452 H   0  0  0  0  0  0  0  0  0  0  0  0
  140.2650   78.1550  218.4185 H   0  0  0  0  0  0  0  0  0  0  0  0
  141.8723   77.9100  217.7749 H   0  0  0  0  0  0  0  0  0  0  0  0
  140.4794   75.8450  218.8165 H   0  0  0  0  0  0  0  0  0  0  0  0
  142.2138   75.9242  219.1152 H   0  0  0  0  0  0  0  0  0  0  0  0
  139.3270   74.1949  220.4435 H   0  0  0  0  0  0  0  0  0  0  0  0
  141.0774   73.9388  220.5872 H   0  0  0  0  0  0  0  0  0  0  0  0
  139.4620   73.9030  223.1720 H   0  0  0  0  0  0  0  0  0  0  0  0
  139.2516   69.8223  222.4431 H   0  0  0  0  0  0  0  0  0  0  0  0
  138.9174   68.3605  224.4580 H   0  0  0  0  0  0  0  0  0  0  0  0
  139.1804   67.9644  226.7629 H   0  0  0  0  0  0  0  0  0  0  0  0
  141.1433   70.8995  229.1954 H   0  0  0  0  0  0  0  0  0  0  0  0
  141.4971   72.3932  227.2247 H   0  0  0  0  0  0  0  0  0  0  0  0
  1  2  1  0
  2  3  1  0
  2  4  1  0
  4  5  2  0
  4  6  1  0
  6  7  1  0
  7  8  1  0
  8  9  1  0
  9 10  1  0
 10 11  1  0
 11 12  2  0
 11 13  1  0
 13 14  1  0
 14 15  1  0
 15 16  2  0
 15 17  1  0
 17 18  2  0
 18 19  1  0
 19 20  2  0
 20 21  1  0
 21 22  2  0
 22 23  1  0
 22 24  1  0
 24 25  2  0
 25 26  1  0
 26 27  2  0
 10  6  1  0
 27 17  1  0
 26 20  1  0
  1 28  1  0
  1 29  1  0
  1 30  1  0
  3 31  1  0
  3 32  1  0
  3 33  1  0
  6 34  1  1
  7 35  1  0
  7 36  1  0
  8 37  1  0
  8 38  1  0
  9 39  1  0
  9 40  1  0
 13 41  1  0
 13 42  1  0
 14 43  1  0
 18 44  1  0
 19 45  1  0
 21 46  1  0
 24 47  1  0
 25 48  1  0
M  END
>  <smiles>  (3) 
CN(C)C(=O)[C@@H]1CCCN1C(=O)CNC(=O)c1ccc2cc(F)ccc2n1

>  <score_type>  (3) 
oracle

>  <origin>  (3) 
autodockgpu

>  <m_score__min__energy>  (3) 
-7.6299999999999999

>  <m_primary>  (3) 
energy

>  <rmsd>  (3) 
1.8289826317377447

>  <m_score__min__rmsd>  (3) 
1.8289826317377447

>  <meeko>  (3) 
{"free_energy": -7.33, "intermolecular_energy": -8.83, "internal_energy": -1.87, "cluster_size": 26, "cluster_id": 1, "rank_in_cluster": 7}

>  <energy>  (3) 
-7.43

>  <cluster_rmsd>  (3) 
1.38

>  <cluster>  (3) 
1

$$$$

     RDKit          3D

 48 50  0  0  0  0  0  0  0  0999 V2000
  139.5080   79.9130  223.7930 C   0  0  0  0  0  0  0  0  0  0  0  0
  140.5640   79.1500  223.1370 N   0  0  0  0  0  0  0  0  0  0  0  0
  141.8200   79.0420  223.8470 C   0  0  0  0  0  0  0  0  0  0  0  0
  140.3150   78.5720  221.8800 C   0  0  0  0  0  0  0  0  0  0  0  0
  139.1820   78.7380  221.3670 O   0  0  0  0  0  0  0  0  0  0  0  0
  141.4020   77.7930  221.2150 C   0  0  2  0  0  0  0  0  0  0  0  0
  141.8230   78.5230  219.9580 C   0  0  0  0  0  0  0  0  0  0  0  0
  141.2990   77.7220  218.7860 C   0  0  0  0  0  0  0  0  0  0  0  0
  141.2380   76.3340  219.3380 C   0  0  0  0  0  0  0  0  0  0  0  0
  140.9170   76.5130  220.7420 N   0  0  0  0  0  0  0  0  0  0  0  0
  140.2240   75.5720  221.5510 C   0  0  0  0  0  0  0  0  0  0  0  0
  139.6640   75.8700  222.6380 O   0  0  0  0  0  0  0  0  0  0  0  0
  140.1260   74.1390  221.1350 C   0  0  0  0  0  0  0  0  0  0  0  0
  139.9440   73.3660  222.3560 N   0  0  0  0  0  0  0  0  0  0  0  0
  140.3470   72.0210  222.3520 C   0  0  0  0  0  0  0  0  0  0  0  0
  140.8500   71.5570  221.2750 O   0  0  0  0  0  0  0  0  0  0  0  0
  140.1990   71.1770  223.5340 C   0  0  0  0  0  0  0  0  0  0  0  0
  139.5450   69.9540  223.4100 C   0  0  0  0  0  0  0  0  0  0  0  0
  139.3930   69.1320  224.5300 C   0  0  0  0  0  0  0  0  0  0  0  0
  139.9010   69.5590  225.7360 C   0  0  0  0  0  0  0  0  0  0  0  0
  139.7350   68.7180  226.8350 C   0  0  0  0  0  0  0  0  0  0  0  0
  140.2420   69.1410  228.0460 C   0  0  0  0  0  0  0  0  0  0  0  0
  140.0760   68.3140  229.1170 F   0  0  0  0  0  0  0  0  0  0  0  0
  140.8840   70.3500  228.1440 C   0  0  0  0  0  0  0  0  0  0  0  0
  141.0550   71.2000  227.0500 C   0  0  0  0  0  0  0  0  0  0  0  0
  140.5470   70.7770  225.8350 C   0  0  0  0  0  0  0  0  0  0  0  0
  140.6870   71.5600  224.7460 N   0  0  0  0  0  0  0  0  0  0  0  0
  139.6206   79.8316  224.8842 H   0  0  0  0  0  0  0  0  0  0  0  0
  139.5795   80.9694  223.4948 H   0  0  0  0  0  0  0  0  0  0  0  0
  138.5275   79.5134  223.4948 H   0  0  0  0  0  0  0  0  0  0  0  0
  141.6312   79.0582  224.9306 H   0  0  0  0  0  0  0  0  0  0  0  0
  142.3149   78.0980  223.5751 H   0  0  0  0  0  0  0  0  0  0  0  0
  142.4688   79.8877  223.5751 H   0  0  0  0  0  0  0  0  0  0  0  0
  142.2114   77.6691  221.9495 H   0  0  0  0  0  0  0  0  0  0  0  0
  141.3926   79.5352  219.9466 H   0  0  0  0  0  0  0  0  0  0  0  0
  142.9175   78.6216  219.9087 H   0  0  0  0  0  0  0  0  0  0  0  0
  140.3017   78.0717  218.4807 H   0  0  0  0  0  0  0  0  0  0  0  0
  141.9243   77.8065  217.8849 H   0  0  0  0  0  0  0  0  0  0  0  0
  140.4559   75.7488  218.8322 H   0  0  0  0  0  0  0  0  0  0  0  0
  142.1798   75.7848  219.1918 H   0  0  0  0  0  0  0  0  0  0  0  0
  139.2669   73.9962  220.4631 H   0  0  0  0  0  0  0  0  0  0  0  0
  141.0279   73.8195  220.5924 H   0  0  0  0  0  0  0  0  0  0  0  0
  139.5320   73.7550  223.2280 H   0  0  0  0  0  0  0  0  0  0  0  0
  139.1494   69.6360  222.4341 H   0  0  0  0  0  0  0  0  0  0  0  0
  138.8779   68.1634  224.4494 H   0  0  0  0  0  0  0  0  0  0  0  0
  139.2182   67.7516  226.7400 H   0  0  0  0  0  0  0  0  0  0  0  0
  141.2791   70.6612  229.1223 H   0  0  0  0  0  0  0  0  0  0  0  0
  141.5721   72.1657  227.1500 H   0  0  0  0  0  0  0  0  0  0  0  0
  1  2  1  0
  2  3  1  0
  2  4  1  0
  4  5  2  0
  4  6  1  0
  6  7  1  0
  7  8  1  0
  8  9  1  0
  9 10  1  0
 10 11  1  0
 11 12  2  0
 11 13  1  0
 13 14  1  0
 14 15  1  0
 15 16  2  0
 15 17  1  0
 17 18  2  0
 18 19  1  0
 19 20  2  0
 20 21  1  0
 21 22  2  0
 22 23  1  0
 22 24  1  0
 24 25  2  0
 25 26  1  0
 26 27  2  0
 10  6  1  0
 27 17  1  0
 26 20  1  0
  1 28  1  0
  1 29  1  0
  1 30  1  0
  3 31  1  0
  3 32  1  0
  3 33  1  0
  6 34  1  1
  7 35  1  0
  7 36  1  0
  8 37  1  0
  8 38  1  0
  9 39  1  0
  9 40  1  0
 13 41  1  0
 13 42  1  0
 14 43  1  0
 18 44  1  0
 19 45  1  0
 21 46  1  0
 24 47  1  0
 25 48  1  0
M  END
>  <smiles>  (4) 
CN(C)C(=O)[C@@H]1CCCN1C(=O)CNC(=O)c1ccc2cc(F)ccc2n1

>  <score_type>  (4) 
oracle

>  <origin>  (4) 
autodockgpu

>  <m_score__min__energy>  (4) 
-7.6299999999999999

>  <m_primary>  (4) 
energy

>  <rmsd>  (4) 
1.7617699499887551

>  <m_score__min__rmsd>  (4) 
1.7617699499887551

>  <meeko>  (4) 
{"free_energy": -7.31, "intermolecular_energy": -8.8, "internal_energy": -1.87, "cluster_size": 26, "cluster_id": 1, "rank_in_cluster": 13}

>  <energy>  (4) 
-7.37

>  <cluster_rmsd>  (4) 
1.37

>  <cluster>  (4) 
1

$$$$

     RDKit          3D

 48 50  0  0  0  0  0  0  0  0999 V2000
  139.5350   80.0570  223.5540 C   0  0  0  0  0  0  0  0  0  0  0  0
  140.5910   79.2810  222.9130 N   0  0  0  0  0  0  0  0  0  0  0  0
  141.7770   79.0260  223.7030 C   0  0  0  0  0  0  0  0  0  0  0  0
  140.4090   78.8290  221.5950 C   0  0  0  0  0  0  0  0  0  0  0  0
  139.3340   79.1160  221.0150 O   0  0  0  0  0  0  0  0  0  0  0  0
  141.4950   78.0360  220.9450 C   0  0  2  0  0  0  0  0  0  0  0  0
  141.8280   78.6690  219.6120 C   0  0  0  0  0  0  0  0  0  0  0  0
  141.2850   77.7510  218.5390 C   0  0  0  0  0  0  0  0  0  0  0  0
  141.3050   76.4150  219.2100 C   0  0  0  0  0  0  0  0  0  0  0  0
  141.0420   76.7030  220.6060 N   0  0  0  0  0  0  0  0  0  0  0  0
  140.4250   75.8110  221.5260 C   0  0  0  0  0  0  0  0  0  0  0  0
  140.1550   76.1170  222.7160 O   0  0  0  0  0  0  0  0  0  0  0  0
  140.0580   74.4230  221.1070 C   0  0  0  0  0  0  0  0  0  0  0  0
  139.9140   73.6470  222.3310 N   0  0  0  0  0  0  0  0  0  0  0  0
  140.2840   72.2920  222.3010 C   0  0  0  0  0  0  0  0  0  0  0  0
  140.7250   71.8230  221.1990 O   0  0  0  0  0  0  0  0  0  0  0  0
  140.1720   71.4450  223.4830 C   0  0  0  0  0  0  0  0  0  0  0  0
  139.6000   70.1810  223.3540 C   0  0  0  0  0  0  0  0  0  0  0  0
  139.4820   69.3550  224.4740 C   0  0  0  0  0  0  0  0  0  0  0  0
  139.9420   69.8170  225.6870 C   0  0  0  0  0  0  0  0  0  0  0  0
  139.8120   68.9710  226.7870 C   0  0  0  0  0  0  0  0  0  0  0  0
  140.2710   69.4300  228.0050 C   0  0  0  0  0  0  0  0  0  0  0  0
  140.1410   68.5970  229.0760 F   0  0  0  0  0  0  0  0  0  0  0  0
  140.8310   70.6780  228.1080 C   0  0  0  0  0  0  0  0  0  0  0  0
  140.9660   71.5340  227.0130 C   0  0  0  0  0  0  0  0  0  0  0  0
  140.5060   71.0740  225.7910 C   0  0  0  0  0  0  0  0  0  0  0  0
  140.6130   71.8620  224.7020 N   0  0  0  0  0  0  0  0  0  0  0  0
  139.6368   79.9822  224.6467 H   0  0  0  0  0  0  0  0  0  0  0  0
  139.6178   81.1107  223.2493 H   0  0  0  0  0  0  0  0  0  0  0  0
  138.5541   79.6632  223.2493 H   0  0  0  0  0  0  0  0  0  0  0  0
  141.5241   79.0804  224.7721 H   0  0  0  0  0  0  0  0  0  0  0  0
  142.1652   78.0239  223.4686 H   0  0  0  0  0  0  0  0  0  0  0  0
  142.5428   79.7800  223.4686 H   0  0  0  0  0  0  0  0  0  0  0  0
  142.3413   78.0062  221.6471 H   0  0  0  0  0  0  0  0  0  0  0  0
  141.3563   79.6598  219.5358 H   0  0  0  0  0  0  0  0  0  0  0  0
  142.9142   78.8032  219.5013 H   0  0  0  0  0  0  0  0  0  0  0  0
  140.2618   78.0363  218.2532 H   0  0  0  0  0  0  0  0  0  0  0  0
  141.8652   77.7795  217.6049 H   0  0  0  0  0  0  0  0  0  0  0  0
  140.5246   75.7602  218.7949 H   0  0  0  0  0  0  0  0  0  0  0  0
  142.2606   75.8898  219.0653 H   0  0  0  0  0  0  0  0  0  0  0  0
  139.1100   74.4324  220.5491 H   0  0  0  0  0  0  0  0  0  0  0  0
  140.8255   73.9897  220.4488 H   0  0  0  0  0  0  0  0  0  0  0  0
  139.5540   74.0390  223.2230 H   0  0  0  0  0  0  0  0  0  0  0  0
  139.2425   69.8348  222.3730 H   0  0  0  0  0  0  0  0  0  0  0  0
  139.0307   68.3555  224.3889 H   0  0  0  0  0  0  0  0  0  0  0  0
  139.3597   67.9732  226.6879 H   0  0  0  0  0  0  0  0  0  0  0  0
  141.1876   71.0177  229.0916 H   0  0  0  0  0  0  0  0  0  0  0  0
  141.4185   72.5312  227.1170 H   0  0  0  0  0  0  0  0  0  0  0  0
  1  2  1  0
  2  3  1  0
  2  4  1  0
  4  5  2  0
  4  6  1  0
  6  7  1  0
  7  8  1  0
  8  9  1  0
  9 10  1  0
 10 11  1  0
 11 12  2  0
 11 13  1  0
 13 14  1  0
 14 15  1  0
 15 16  2  0
 15 17  1  0
 17 18  2  0
 18 19  1  0
 19 20  2  0
 20 21  1  0
 21 22  2  0
 22 23  1  0
 22 24  1  0
 24 25  2  0
 25 26  1  0
 26 27  2  0
 10  6  1  0
 27 17  1  0
 26 20  1  0
  1 28  1  0
  1 29  1  0
  1 30  1  0
  3 31  1  0
  3 32  1  0
  3 33  1  0
  6 34  1  1
  7 35  1  0
  7 36  1  0
  8 37  1  0
  8 38  1  0
  9 39  1  0
  9 40  1  0
 13 41  1  0
 13 42  1  0
 14 43  1  0
 18 44  1  0
 19 45  1  0
 21 46  1  0
 24 47  1  0
 25 48  1  0
M  END
>  <smiles>  (5) 
CN(C)C(=O)[C@@H]1CCCN1C(=O)CNC(=O)c1ccc2cc(F)ccc2n1

>  <score_type>  (5) 
oracle

>  <origin>  (5) 
autodockgpu

>  <m_score__min__energy>  (5) 
-7.6299999999999999

>  <m_primary>  (5) 
energy

>  <rmsd>  (5) 
1.7720649325234121

>  <m_score__min__rmsd>  (5) 
1.7720649325234121

>  <meeko>  (5) 
{"free_energy": -7.21, "intermolecular_energy": -8.71, "internal_energy": -1.92, "cluster_size": 26, "cluster_id": 1, "rank_in_cluster": 21}

>  <energy>  (5) 
-7.36

>  <cluster_rmsd>  (5) 
1.34

>  <cluster>  (5) 
1

$$$$

     RDKit          3D

 48 50  0  0  0  0  0  0  0  0999 V2000
  139.8150   80.3880  223.6020 C   0  0  0  0  0  0  0  0  0  0  0  0
  140.8320   79.6250  222.8870 N   0  0  0  0  0  0  0  0  0  0  0  0
  142.1900   79.7420  223.3740 C   0  0  0  0  0  0  0  0  0  0  0  0
  140.4520   78.8330  221.7900 C   0  0  0  0  0  0  0  0  0  0  0  0
  139.2400   78.8160  221.4650 O   0  0  0  0  0  0  0  0  0  0  0  0
  141.4990   78.0550  221.0620 C   0  0  2  0  0  0  0  0  0  0  0  0
  141.8120   78.7610  219.7610 C   0  0  0  0  0  0  0  0  0  0  0  0
  141.2160   77.9230  218.6500 C   0  0  0  0  0  0  0  0  0  0  0  0
  141.2200   76.5490  219.2380 C   0  0  0  0  0  0  0  0  0  0  0  0
  141.0030   76.7570  220.6560 N   0  0  0  0  0  0  0  0  0  0  0  0
  140.3880   75.8250  221.5380 C   0  0  0  0  0  0  0  0  0  0  0  0
  140.0070   76.1160  222.7010 O   0  0  0  0  0  0  0  0  0  0  0  0
  140.1600   74.4100  221.1090 C   0  0  0  0  0  0  0  0  0  0  0  0
  139.9490   73.6390  222.3260 N   0  0  0  0  0  0  0  0  0  0  0  0
  140.4210   72.3170  222.3590 C   0  0  0  0  0  0  0  0  0  0  0  0
  141.0090   71.8710  221.3170 O   0  0  0  0  0  0  0  0  0  0  0  0
  140.2510   71.4760  223.5390 C   0  0  0  0  0  0  0  0  0  0  0  0
  139.6290   70.2370  223.3990 C   0  0  0  0  0  0  0  0  0  0  0  0
  139.4570   69.4180  224.5170 C   0  0  0  0  0  0  0  0  0  0  0  0
  139.9110   69.8620  225.7390 C   0  0  0  0  0  0  0  0  0  0  0  0
  139.7250   69.0230  226.8360 C   0  0  0  0  0  0  0  0  0  0  0  0
  140.1790   69.4630  228.0620 C   0  0  0  0  0  0  0  0  0  0  0  0
  139.9940   68.6380  229.1310 F   0  0  0  0  0  0  0  0  0  0  0  0
  140.7890   70.6870  228.1760 C   0  0  0  0  0  0  0  0  0  0  0  0
  140.9790   71.5350  227.0840 C   0  0  0  0  0  0  0  0  0  0  0  0
  140.5250   71.0940  225.8530 C   0  0  0  0  0  0  0  0  0  0  0  0
  140.6860   71.8760  224.7660 N   0  0  0  0  0  0  0  0  0  0  0  0
  139.9660   80.2747  224.6857 H   0  0  0  0  0  0  0  0  0  0  0  0
  139.8950   81.4508  223.3298 H   0  0  0  0  0  0  0  0  0  0  0  0
  138.8170   80.0139  223.3298 H   0  0  0  0  0  0  0  0  0  0  0  0
  142.1864   79.7417  224.4740 H   0  0  0  0  0  0  0  0  0  0  0  0
  142.7849   78.8918  223.0090 H   0  0  0  0  0  0  0  0  0  0  0  0
  142.6308   80.6814  223.0090 H   0  0  0  0  0  0  0  0  0  0  0  0
  142.3630   77.9612  221.7364 H   0  0  0  0  0  0  0  0  0  0  0  0
  141.3639   79.7656  219.7587 H   0  0  0  0  0  0  0  0  0  0  0  0
  142.8978   78.8762  219.6275 H   0  0  0  0  0  0  0  0  0  0  0  0
  140.1930   78.2497  218.4116 H   0  0  0  0  0  0  0  0  0  0  0  0
  141.7710   77.9946  217.7029 H   0  0  0  0  0  0  0  0  0  0  0  0
  140.4119   75.9398  218.8068 H   0  0  0  0  0  0  0  0  0  0  0  0
  142.1575   76.0110  219.0342 H   0  0  0  0  0  0  0  0  0  0  0  0
  139.2735   74.3474  220.4608 H   0  0  0  0  0  0  0  0  0  0  0  0
  141.0167   74.0244  220.5368 H   0  0  0  0  0  0  0  0  0  0  0  0
  139.4700   74.0120  223.1680 H   0  0  0  0  0  0  0  0  0  0  0  0
  139.2749   69.9053  222.4118 H   0  0  0  0  0  0  0  0  0  0  0  0
  138.9682   68.4370  224.4233 H   0  0  0  0  0  0  0  0  0  0  0  0
  139.2337   68.0448  226.7281 H   0  0  0  0  0  0  0  0  0  0  0  0
  141.1417   71.0121  229.1659 H   0  0  0  0  0  0  0  0  0  0  0  0
  141.4692   72.5132  227.1969 H   0  0  0  0  0  0  0  0  0  0  0  0
  1  2  1  0
  2  3  1  0
  2  4  1  0
  4  5  2  0
  4  6  1  0
  6  7  1  0
  7  8  1  0
  8  9  1  0
  9 10  1  0
 10 11  1  0
 11 12  2  0
 11 13  1  0
 13 14  1  0
 14 15  1  0
 15 16  2  0
 15 17  1  0
 17 18  2  0
 18 19  1  0
 19 20  2  0
 20 21  1  0
 21 22  2  0
 22 23  1  0
 22 24  1  0
 24 25  2  0
 25 26  1  0
 26 27  2  0
 10  6  1  0
 27 17  1  0
 26 20  1  0
  1 28  1  0
  1 29  1  0
  1 30  1  0
  3 31  1  0
  3 32  1  0
  3 33  1  0
  6 34  1  1
  7 35  1  0
  7 36  1  0
  8 37  1  0
  8 38  1  0
  9 39  1  0
  9 40  1  0
 13 41  1  0
 13 42  1  0
 14 43  1  0
 18 44  1  0
 19 45  1  0
 21 46  1  0
 24 47  1  0
 25 48  1  0
M  END
>  <smiles>  (6) 
CN(C)C(=O)[C@@H]1CCCN1C(=O)CNC(=O)c1ccc2cc(F)ccc2n1

>  <score_type>  (6) 
oracle

>  <origin>  (6) 
autodockgpu

>  <m_score__min__energy>  (6) 
-7.6299999999999999

>  <m_primary>  (6) 
energy

>  <rmsd>  (6) 
1.8419083292440501

>  <m_score__min__rmsd>  (6) 
1.8419083292440501

>  <meeko>  (6) 
{"free_energy": -7.33, "intermolecular_energy": -8.82, "internal_energy": -1.84, "cluster_size": 26, "cluster_id": 1, "rank_in_cluster": 8}

>  <energy>  (6) 
-7.35

>  <cluster_rmsd>  (6) 
1.36

>  <cluster>  (6) 
1

$$$$

     RDKit          3D

 48 50  0  0  0  0  0  0  0  0999 V2000
  140.6320   79.0640  223.7200 C   0  0  0  0  0  0  0  0  0  0  0  0
  140.8150   78.4980  222.3890 N   0  0  0  0  0  0  0  0  0  0  0  0
  141.8740   79.0670  221.5840 C   0  0  0  0  0  0  0  0  0  0  0  0
  139.9750   77.4540  221.9640 C   0  0  0  0  0  0  0  0  0  0  0  0
  139.0910   77.0480  222.7560 O   0  0  0  0  0  0  0  0  0  0  0  0
  140.1680   76.8810  220.5990 C   0  0  2  0  0  0  0  0  0  0  0  0
  139.4010   77.7250  219.6040 C   0  0  0  0  0  0  0  0  0  0  0  0
  138.2030   76.9120  219.1640 C   0  0  0  0  0  0  0  0  0  0  0  0
  138.6760   75.5060  219.3490 C   0  0  0  0  0  0  0  0  0  0  0  0
  139.5680   75.5670  220.4910 N   0  0  0  0  0  0  0  0  0  0  0  0
  139.8270   74.4940  221.3880 C   0  0  0  0  0  0  0  0  0  0  0  0
  140.8910   74.3850  222.0520 O   0  0  0  0  0  0  0  0  0  0  0  0
  138.8150   73.4110  221.5890 C   0  0  0  0  0  0  0  0  0  0  0  0
  139.2530   72.6480  222.7490 N   0  0  0  0  0  0  0  0  0  0  0  0
  138.7450   71.3490  222.9140 C   0  0  0  0  0  0  0  0  0  0  0  0
  137.9280   70.9160  222.0340 O   0  0  0  0  0  0  0  0  0  0  0  0
  139.1320   70.5170  224.0490 C   0  0  0  0  0  0  0  0  0  0  0  0
  138.8670   69.1510  224.0030 C   0  0  0  0  0  0  0  0  0  0  0  0
  139.2290   68.3370  225.0800 C   0  0  0  0  0  0  0  0  0  0  0  0
  139.8460   68.9160  226.1660 C   0  0  0  0  0  0  0  0  0  0  0  0
  140.1970   68.0800  227.2250 C   0  0  0  0  0  0  0  0  0  0  0  0
  140.8160   68.6550  228.3160 C   0  0  0  0  0  0  0  0  0  0  0  0
  141.1560   67.8320  229.3480 F   0  0  0  0  0  0  0  0  0  0  0  0
  141.0680   70.0040  228.3380 C   0  0  0  0  0  0  0  0  0  0  0  0
  140.7200   70.8500  227.2840 C   0  0  0  0  0  0  0  0  0  0  0  0
  140.1000   70.2740  226.1890 C   0  0  0  0  0  0  0  0  0  0  0  0
  139.7450   71.0480  225.1420 N   0  0  0  0  0  0  0  0  0  0  0  0
  140.8773   78.3054  224.4779 H   0  0  0  0  0  0  0  0  0  0  0  0
  141.2949   79.9331  223.8432 H   0  0  0  0  0  0  0  0  0  0  0  0
  139.5857   79.3805  223.8432 H   0  0  0  0  0  0  0  0  0  0  0  0
  142.6507   79.4843  222.2417 H   0  0  0  0  0  0  0  0  0  0  0  0
  142.3133   78.2835  220.9491 H   0  0  0  0  0  0  0  0  0  0  0  0
  141.4631   79.8658  220.9491 H   0  0  0  0  0  0  0  0  0  0  0  0
  141.2512   76.8456  220.4109 H   0  0  0  0  0  0  0  0  0  0  0  0
  139.0691   78.6602  220.0787 H   0  0  0  0  0  0  0  0  0  0  0  0
  140.0335   77.9889  218.7436 H   0  0  0  0  0  0  0  0  0  0  0  0
  137.3271   77.1224  219.7952 H   0  0  0  0  0  0  0  0  0  0  0  0
  137.8788   77.1324  218.1362 H   0  0  0  0  0  0  0  0  0  0  0  0
  137.8287   74.8350  219.5536 H   0  0  0  0  0  0  0  0  0  0  0  0
  139.1745   75.1122  218.4510 H   0  0  0  0  0  0  0  0  0  0  0  0
  137.8224   73.8476  221.7737 H   0  0  0  0  0  0  0  0  0  0  0  0
  138.7345   72.7707  220.6982 H   0  0  0  0  0  0  0  0  0  0  0  0
  139.9190   73.0100  223.4590 H   0  0  0  0  0  0  0  0  0  0  0  0
  138.3744   68.7138  223.1220 H   0  0  0  0  0  0  0  0  0  0  0  0
  139.0252   67.2562  225.0603 H   0  0  0  0  0  0  0  0  0  0  0  0
  139.9880   67.0005  227.1920 H   0  0  0  0  0  0  0  0  0  0  0  0
  141.5634   70.4350  229.2205 H   0  0  0  0  0  0  0  0  0  0  0  0
  140.9297   71.9292  227.3220 H   0  0  0  0  0  0  0  0  0  0  0  0
  1  2  1  0
  2  3  1  0
  2  4  1  0
  4  5  2  0
  4  6  1  0
  6  7  1  0
  7  8  1  0
  8  9  1  0
  9 10  1  0
 10 11  1  0
 11 12  2  0
 11 13  1  0
 13 14  1  0
 14 15  1  0
 15 16  2  0
 15 17  1  0
 17 18  2  0
 18 19  1  0
 19 20  2  0
 20 21  1  0
 21 22  2  0
 22 23  1  0
 22 24  1  0
 24 25  2  0
 25 26  1  0
 26 27  2  0
 10  6  1  0
 27 17  1  0
 26 20  1  0
  1 28  1  0
  1 29  1  0
  1 30  1  0
  3 31  1  0
  3 32  1  0
  3 33  1  0
  6 34  1  6
  7 35  1  0
  7 36  1  0
  8 37  1  0
  8 38  1  0
  9 39  1  0
  9 40  1  0
 13 41  1  0
 13 42  1  0
 14 43  1  0
 18 44  1  0
 19 45  1  0
 21 46  1  0
 24 47  1  0
 25 48  1  0
M  END
>  <smiles>  (7) 
CN(C)C(=O)[C@@H]1CCCN1C(=O)CNC(=O)c1ccc2cc(F)ccc2n1

>  <score_type>  (7) 
oracle

>  <origin>  (7) 
autodockgpu

>  <m_score__min__energy>  (7) 
-7.6299999999999999

>  <m_primary>  (7) 
energy

>  <rmsd>  (7) 
1.4162386590179554

>  <m_score__min__rmsd>  (7) 
1.4162386590179554

>  <meeko>  (7) 
{"free_energy": -6.55, "intermolecular_energy": -8.04, "internal_energy": -2.04, "cluster_size": 26, "cluster_id": 1, "rank_in_cluster": 26}

>  <energy>  (7) 
-7.33

>  <cluster_rmsd>  (7) 
1.43

>  <cluster>  (7) 
1

$$$$

     RDKit          3D

 48 50  0  0  0  0  0  0  0  0999 V2000
  140.5700   80.5220  223.5400 C   0  0  0  0  0  0  0  0  0  0  0  0
  141.4080   79.7190  222.6560 N   0  0  0  0  0  0  0  0  0  0  0  0
  142.8360   79.9330  222.7480 C   0  0  0  0  0  0  0  0  0  0  0  0
  140.8020   78.8000  221.7830 C   0  0  0  0  0  0  0  0  0  0  0  0
  139.5500   78.7080  221.7980 O   0  0  0  0  0  0  0  0  0  0  0  0
  141.6660   77.9820  220.8810 C   0  0  2  0  0  0  0  0  0  0  0  0
  141.8240   78.7130  219.5650 C   0  0  0  0  0  0  0  0  0  0  0  0
  141.0060   77.9590  218.5390 C   0  0  0  0  0  0  0  0  0  0  0  0
  141.0020   76.5670  219.0830 C   0  0  0  0  0  0  0  0  0  0  0  0
  141.0210   76.7350  220.5230 N   0  0  0  0  0  0  0  0  0  0  0  0
  140.4840   75.8140  221.4640 C   0  0  0  0  0  0  0  0  0  0  0  0
  140.2760   76.0980  222.6720 O   0  0  0  0  0  0  0  0  0  0  0  0
  140.1330   74.4210  221.0480 C   0  0  0  0  0  0  0  0  0  0  0  0
  139.9470   73.6590  222.2750 N   0  0  0  0  0  0  0  0  0  0  0  0
  140.3530   72.3150  222.2840 C   0  0  0  0  0  0  0  0  0  0  0  0
  140.8630   71.8420  221.2140 O   0  0  0  0  0  0  0  0  0  0  0  0
  140.2020   71.4810  223.4720 C   0  0  0  0  0  0  0  0  0  0  0  0
  139.5510   70.2550  223.3550 C   0  0  0  0  0  0  0  0  0  0  0  0
  139.3960   69.4420  224.4810 C   0  0  0  0  0  0  0  0  0  0  0  0
  139.8970   69.8800  225.6860 C   0  0  0  0  0  0  0  0  0  0  0  0
  139.7280   69.0480  226.7920 C   0  0  0  0  0  0  0  0  0  0  0  0
  140.2280   69.4830  228.0020 C   0  0  0  0  0  0  0  0  0  0  0  0
  140.0590   68.6650  229.0790 F   0  0  0  0  0  0  0  0  0  0  0  0
  140.8660   70.6940  228.0930 C   0  0  0  0  0  0  0  0  0  0  0  0
  141.0410   71.5350  226.9920 C   0  0  0  0  0  0  0  0  0  0  0  0
  140.5390   71.1000  225.7780 C   0  0  0  0  0  0  0  0  0  0  0  0
  140.6830   71.8750  224.6830 N   0  0  0  0  0  0  0  0  0  0  0  0
  140.8131   80.2891  224.5872 H   0  0  0  0  0  0  0  0  0  0  0  0
  140.7539   81.5897  223.3496 H   0  0  0  0  0  0  0  0  0  0  0  0
  139.5111   80.2927  223.3496 H   0  0  0  0  0  0  0  0  0  0  0  0
  143.1327   79.9775  223.8063 H   0  0  0  0  0  0  0  0  0  0  0  0
  143.3636   79.1039  222.2538 H   0  0  0  0  0  0  0  0  0  0  0  0
  143.0974   80.8803  222.2538 H   0  0  0  0  0  0  0  0  0  0  0  0
  142.6146   77.8065  221.4096 H   0  0  0  0  0  0  0  0  0  0  0  0
  141.4540   79.7446  219.6591 H   0  0  0  0  0  0  0  0  0  0  0  0
  142.8817   78.7597  219.2664 H   0  0  0  0  0  0  0  0  0  0  0  0
  139.9846   78.3618  218.4718 H   0  0  0  0  0  0  0  0  0  0  0  0
  141.4122   78.0286  217.5191 H   0  0  0  0  0  0  0  0  0  0  0  0
  140.0957   76.0295  218.7670 H   0  0  0  0  0  0  0  0  0  0  0  0
  141.8565   75.9762  218.7214 H   0  0  0  0  0  0  0  0  0  0  0  0
  139.2051   74.4230  220.4573 H   0  0  0  0  0  0  0  0  0  0  0  0
  140.9232   73.9812  220.4218 H   0  0  0  0  0  0  0  0  0  0  0  0
  139.5300   74.0540  223.1410 H   0  0  0  0  0  0  0  0  0  0  0  0
  139.1604   69.9281  222.3800 H   0  0  0  0  0  0  0  0  0  0  0  0
  138.8838   68.4714  224.4059 H   0  0  0  0  0  0  0  0  0  0  0  0
  139.2143   68.0794  226.7030 H   0  0  0  0  0  0  0  0  0  0  0  0
  141.2546   71.0149  229.0707 H   0  0  0  0  0  0  0  0  0  0  0  0
  141.5561   72.5024  227.0858 H   0  0  0  0  0  0  0  0  0  0  0  0
  1  2  1  0
  2  3  1  0
  2  4  1  0
  4  5  2  0
  4  6  1  0
  6  7  1  0
  7  8  1  0
  8  9  1  0
  9 10  1  0
 10 11  1  0
 11 12  2  0
 11 13  1  0
 13 14  1  0
 14 15  1  0
 15 16  2  0
 15 17  1  0
 17 18  2  0
 18 19  1  0
 19 20  2  0
 20 21  1  0
 21 22  2  0
 22 23  1  0
 22 24  1  0
 24 25  2  0
 25 26  1  0
 26 27  2  0
 10  6  1  0
 27 17  1  0
 26 20  1  0
  1 28  1  0
  1 29  1  0
  1 30  1  0
  3 31  1  0
  3 32  1  0
  3 33  1  0
  6 34  1  1
  7 35  1  0
  7 36  1  0
  8 37  1  0
  8 38  1  0
  9 39  1  0
  9 40  1  0
 13 41  1  0
 13 42  1  0
 14 43  1  0
 18 44  1  0
 19 45  1  0
 21 46  1  0
 24 47  1  0
 25 48  1  0
M  END
>  <smiles>  (8) 
CN(C)C(=O)[C@@H]1CCCN1C(=O)CNC(=O)c1ccc2cc(F)ccc2n1

>  <score_type>  (8) 
oracle

>  <origin>  (8) 
autodockgpu

>  <m_score__min__energy>  (8) 
-7.6299999999999999

>  <m_primary>  (8) 
energy

>  <rmsd>  (8) 
1.7649432646679082

>  <m_score__min__rmsd>  (8) 
1.7649432646679082

>  <meeko>  (8) 
{"free_energy": -7.35, "intermolecular_energy": -8.84, "internal_energy": -1.8, "cluster_size": 26, "cluster_id": 1, "rank_in_cluster": 6}

>  <energy>  (8) 
-7.33

>  <cluster_rmsd>  (8) 
1.39

>  <cluster>  (8) 
1

$$$$

     RDKit          3D

 48 50  0  0  0  0  0  0  0  0999 V2000
  142.3120   69.1970  219.2660 C   0  0  0  0  0  0  0  0  0  0  0  0
  142.8260   70.4780  218.7950 N   0  0  0  0  0  0  0  0  0  0  0  0
  142.5580   70.8130  217.4120 C   0  0  0  0  0  0  0  0  0  0  0  0
  143.5360   71.3030  219.6830 C   0  0  0  0  0  0  0  0  0  0  0  0
  143.7030   70.8990  220.8590 O   0  0  0  0  0  0  0  0  0  0  0  0
  144.0590   72.6130  219.1920 C   0  0  2  0  0  0  0  0  0  0  0  0
  145.5700   72.5970  219.2820 C   0  0  0  0  0  0  0  0  0  0  0  0
  145.9540   73.5100  220.4260 C   0  0  0  0  0  0  0  0  0  0  0  0
  144.8140   74.4750  220.4720 C   0  0  0  0  0  0  0  0  0  0  0  0
  143.6590   73.6990  220.0630 N   0  0  0  0  0  0  0  0  0  0  0  0
  142.3170   73.9540  220.4560 C   0  0  0  0  0  0  0  0  0  0  0  0
  141.9660   74.9720  221.1080 O   0  0  0  0  0  0  0  0  0  0  0  0
  141.2260   72.9950  220.1030 C   0  0  0  0  0  0  0  0  0  0  0  0
  141.1370   72.0460  221.2040 N   0  0  0  0  0  0  0  0  0  0  0  0
  140.4070   72.4240  222.3430 C   0  0  0  0  0  0  0  0  0  0  0  0
  139.8640   73.5790  222.3420 O   0  0  0  0  0  0  0  0  0  0  0  0
  140.2690   71.5330  223.4900 C   0  0  0  0  0  0  0  0  0  0  0  0
  139.6600   70.2940  223.3100 C   0  0  0  0  0  0  0  0  0  0  0  0
  139.5190   69.4260  224.3970 C   0  0  0  0  0  0  0  0  0  0  0  0
  139.9910   69.8250  225.6270 C   0  0  0  0  0  0  0  0  0  0  0  0
  139.8370   68.9390  226.6920 C   0  0  0  0  0  0  0  0  0  0  0  0
  140.3090   69.3340  227.9260 C   0  0  0  0  0  0  0  0  0  0  0  0
  140.1540   68.4630  228.9630 F   0  0  0  0  0  0  0  0  0  0  0  0
  140.9060   70.5600  228.0790 C   0  0  0  0  0  0  0  0  0  0  0  0
  141.0660   71.4550  227.0200 C   0  0  0  0  0  0  0  0  0  0  0  0
  140.5930   71.0600  225.7810 C   0  0  0  0  0  0  0  0  0  0  0  0
  140.7230   71.8870  224.7240 N   0  0  0  0  0  0  0  0  0  0  0  0
  142.3075   69.1858  220.3659 H   0  0  0  0  0  0  0  0  0  0  0  0
  141.2869   69.0540  218.8937 H   0  0  0  0  0  0  0  0  0  0  0  0
  142.9539   68.3851  218.8937 H   0  0  0  0  0  0  0  0  0  0  0  0
  141.8714   71.6713  217.3691 H   0  0  0  0  0  0  0  0  0  0  0  0
  143.5009   71.0722  216.9082 H   0  0  0  0  0  0  0  0  0  0  0  0
  142.0982   69.9500  216.9082 H   0  0  0  0  0  0  0  0  0  0  0  0
  143.6753   72.7553  218.1710 H   0  0  0  0  0  0  0  0  0  0  0  0
  145.9261   71.5749  219.4783 H   0  0  0  0  0  0  0  0  0  0  0  0
  146.0233   72.9367  218.3391 H   0  0  0  0  0  0  0  0  0  0  0  0
  146.0384   72.9503  221.3692 H   0  0  0  0  0  0  0  0  0  0  0  0
  146.9316   73.9951  220.2885 H   0  0  0  0  0  0  0  0  0  0  0  0
  144.6776   74.8662  221.4910 H   0  0  0  0  0  0  0  0  0  0  0  0
  144.9805   75.3476  219.8232 H   0  0  0  0  0  0  0  0  0  0  0  0
  140.2726   73.5308  219.9852 H   0  0  0  0  0  0  0  0  0  0  0  0
  141.4386   72.4830  219.1529 H   0  0  0  0  0  0  0  0  0  0  0  0
  141.5840   71.1080  221.1940 H   0  0  0  0  0  0  0  0  0  0  0  0
  139.2912   69.9991  222.3165 H   0  0  0  0  0  0  0  0  0  0  0  0
  139.0403   68.4436  224.2718 H   0  0  0  0  0  0  0  0  0  0  0  0
  139.3561   67.9595  226.5530 H   0  0  0  0  0  0  0  0  0  0  0  0
  141.2728   70.8487  229.0751 H   0  0  0  0  0  0  0  0  0  0  0  0
  141.5478   72.4333  227.1642 H   0  0  0  0  0  0  0  0  0  0  0  0
  1  2  1  0
  2  3  1  0
  2  4  1  0
  4  5  2  0
  4  6  1  0
  6  7  1  0
  7  8  1  0
  8  9  1  0
  9 10  1  0
 10 11  1  0
 11 12  2  0
 11 13  1  0
 13 14  1  0
 14 15  1  0
 15 16  2  0
 15 17  1  0
 17 18  2  0
 18 19  1  0
 19 20  2  0
 20 21  1  0
 21 22  2  0
 22 23  1  0
 22 24  1  0
 24 25  2  0
 25 26  1  0
 26 27  2  0
 10  6  1  0
 27 17  1  0
 26 20  1  0
  1 28  1  0
  1 29  1  0
  1 30  1  0
  3 31  1  0
  3 32  1  0
  3 33  1  0
  6 34  1  6
  7 35  1  0
  7 36  1  0
  8 37  1  0
  8 38  1  0
  9 39  1  0
  9 40  1  0
 13 41  1  0
 13 42  1  0
 14 43  1  0
 18 44  1  0
 19 45  1  0
 21 46  1  0
 24 47  1  0
 25 48  1  0
M  END
>  <smiles>  (9) 
CN(C)C(=O)[C@@H]1CCCN1C(=O)CNC(=O)c1ccc2cc(F)ccc2n1

>  <score_type>  (9) 
oracle

>  <origin>  (9) 
autodockgpu

>  <m_score__min__energy>  (9) 
-7.6299999999999999

>  <m_primary>  (9) 
energy

>  <rmsd>  (9) 
4.848266066956431

>  <m_score__min__rmsd>  (9) 
4.848266066956431

>  <meeko>  (9) 
{"free_energy": -6.76, "intermolecular_energy": -8.25, "internal_energy": -1.91, "cluster_size": 17, "cluster_id": 2, "rank_in_cluster": 16}

>  <energy>  (9) 
-7.33

>  <cluster_rmsd>  (9) 
1.43

>  <cluster>  (9) 
1

$$$$

     RDKit          3D

 48 50  0  0  0  0  0  0  0  0999 V2000
  143.2010   73.1330  220.7970 C   0  0  0  0  0  0  0  0  0  0  0  0
  142.4120   74.3100  220.4520 N   0  0  0  0  0  0  0  0  0  0  0  0
  142.9340   75.1530  219.3980 C   0  0  0  0  0  0  0  0  0  0  0  0
  141.2130   74.5610  221.1430 C   0  0  0  0  0  0  0  0  0  0  0  0
  140.8690   73.7530  222.0390 O   0  0  0  0  0  0  0  0  0  0  0  0
  140.4110   75.7680  220.7850 C   0  0  2  0  0  0  0  0  0  0  0  0
  140.6760   76.8490  221.8090 C   0  0  0  0  0  0  0  0  0  0  0  0
  139.4310   76.9660  222.6610 C   0  0  0  0  0  0  0  0  0  0  0  0
  138.3540   76.5090  221.7310 C   0  0  0  0  0  0  0  0  0  0  0  0
  138.9910   75.5080  220.8970 N   0  0  0  0  0  0  0  0  0  0  0  0
  138.3260   74.4170  220.2720 C   0  0  0  0  0  0  0  0  0  0  0  0
  138.4410   74.1420  219.0490 O   0  0  0  0  0  0  0  0  0  0  0  0
  137.4300   73.5190  221.0640 C   0  0  0  0  0  0  0  0  0  0  0  0
  138.2140   73.0490  222.1980 N   0  0  0  0  0  0  0  0  0  0  0  0
  138.1400   71.6870  222.5320 C   0  0  0  0  0  0  0  0  0  0  0  0
  137.3890   70.9420  221.8190 O   0  0  0  0  0  0  0  0  0  0  0  0
  138.8930   71.1360  223.6530 C   0  0  0  0  0  0  0  0  0  0  0  0
  139.9850   71.8470  224.1460 C   0  0  0  0  0  0  0  0  0  0  0  0
  140.7190   71.3350  225.2190 C   0  0  0  0  0  0  0  0  0  0  0  0
  140.3380   70.1300  225.7660 C   0  0  0  0  0  0  0  0  0  0  0  0
  141.0890   69.6450  226.8350 C   0  0  0  0  0  0  0  0  0  0  0  0
  140.7110   68.4380  227.3860 C   0  0  0  0  0  0  0  0  0  0  0  0
  141.4500   67.9690  228.4320 F   0  0  0  0  0  0  0  0  0  0  0  0
  139.6320   67.7560  226.8850 C   0  0  0  0  0  0  0  0  0  0  0  0
  138.8730   68.2320  225.8140 C   0  0  0  0  0  0  0  0  0  0  0  0
  139.2510   69.4430  225.2600 C   0  0  0  0  0  0  0  0  0  0  0  0
  138.5510   69.9480  224.2240 N   0  0  0  0  0  0  0  0  0  0  0  0
  143.2628   73.0409  221.8914 H   0  0  0  0  0  0  0  0  0  0  0  0
  142.7217   72.2351  220.3799 H   0  0  0  0  0  0  0  0  0  0  0  0
  144.2137   73.2353  220.3799 H   0  0  0  0  0  0  0  0  0  0  0  0
  143.4639   76.0088  219.8415 H   0  0  0  0  0  0  0  0  0  0  0  0
  143.6310   74.5727  218.7756 H   0  0  0  0  0  0  0  0  0  0  0  0
  142.1038   75.5183  218.7756 H   0  0  0  0  0  0  0  0  0  0  0  0
  140.6879   76.0503  219.7585 H   0  0  0  0  0  0  0  0  0  0  0  0
  141.5376   76.5734  222.4349 H   0  0  0  0  0  0  0  0  0  0  0  0
  140.9075   77.8060  221.3186 H   0  0  0  0  0  0  0  0  0  0  0  0
  139.4933   76.3159  223.5462 H   0  0  0  0  0  0  0  0  0  0  0  0
  139.2659   77.9790  223.0568 H   0  0  0  0  0  0  0  0  0  0  0  0
  137.5162   76.0703  222.2928 H   0  0  0  0  0  0  0  0  0  0  0  0
  137.9332   77.3368  221.1413 H   0  0  0  0  0  0  0  0  0  0  0  0
  136.5487   74.0755  221.4157 H   0  0  0  0  0  0  0  0  0  0  0  0
  137.0691   72.6780  220.4537 H   0  0  0  0  0  0  0  0  0  0  0  0
  138.8220   73.6650  222.7720 H   0  0  0  0  0  0  0  0  0  0  0  0
  140.2683   72.8081  223.6921 H   0  0  0  0  0  0  0  0  0  0  0  0
  141.5843   71.8838  225.6190 H   0  0  0  0  0  0  0  0  0  0  0  0
  141.9520   70.2043  227.2254 H   0  0  0  0  0  0  0  0  0  0  0  0
  139.3535   66.7963  227.3448 H   0  0  0  0  0  0  0  0  0  0  0  0
  138.0112   67.6686  225.4269 H   0  0  0  0  0  0  0  0  0  0  0  0
  1  2  1  0
  2  3  1  0
  2  4  1  0
  4  5  2  0
  4  6  1  0
  6  7  1  0
  7  8  1  0
  8  9  1  0
  9 10  1  0
 10 11  1  0
 11 12  2  0
 11 13  1  0
 13 14  1  0
 14 15  1  0
 15 16  2  0
 15 17  1  0
 17 18  2  0
 18 19  1  0
 19 20  2  0
 20 21  1  0
 21 22  2  0
 22 23  1  0
 22 24  1  0
 24 25  2  0
 25 26  1  0
 26 27  2  0
 10  6  1  0
 27 17  1  0
 26 20  1  0
  1 28  1  0
  1 29  1  0
  1 30  1  0
  3 31  1  0
  3 32  1  0
  3 33  1  0
  6 34  1  6
  7 35  1  0
  7 36  1  0
  8 37  1  0
  8 38  1  0
  9 39  1  0
  9 40  1  0
 13 41  1  0
 13 42  1  0
 14 43  1  0
 18 44  1  0
 19 45  1  0
 21 46  1  0
 24 47  1  0
 25 48  1  0
M  END
>  <smiles>  (10) 
CN(C)C(=O)[C@@H]1CCCN1C(=O)CNC(=O)c1ccc2cc(F)ccc2n1

>  <score_type>  (10) 
oracle

>  <origin>  (10) 
autodockgpu

>  <m_score__min__energy>  (10) 
-7.6299999999999999

>  <m_primary>  (10) 
energy

>  <rmsd>  (10) 
3.5334412229355334

>  <m_score__min__rmsd>  (10) 
3.5334412229355334

>  <meeko>  (10) 
{"free_energy": -6.42, "intermolecular_energy": -7.91, "internal_energy": -2.31, "cluster_size": 3, "cluster_id": 3, "rank_in_cluster": 3}

>  <energy>  (10) 
-7.32

>  <cluster_rmsd>  (10) 
1.38

>  <cluster>  (10) 
1

$$$$

     RDKit          3D

 48 50  0  0  0  0  0  0  0  0999 V2000
  139.4900   79.9330  223.7590 C   0  0  0  0  0  0  0  0  0  0  0  0
  140.5430   79.1510  223.1220 N   0  0  0  0  0  0  0  0  0  0  0  0
  141.7860   79.0240  223.8520 C   0  0  0  0  0  0  0  0  0  0  0  0
  140.3050   78.5750  221.8620 C   0  0  0  0  0  0  0  0  0  0  0  0
  139.1840   78.7600  221.3310 O   0  0  0  0  0  0  0  0  0  0  0  0
  141.3890   77.7770  221.2150 C   0  0  2  0  0  0  0  0  0  0  0  0
  141.8170   78.4790  219.9450 C   0  0  0  0  0  0  0  0  0  0  0  0
  141.2920   77.6570  218.7880 C   0  0  0  0  0  0  0  0  0  0  0  0
  141.2210   76.2820  219.3680 C   0  0  0  0  0  0  0  0  0  0  0  0
  140.8980   76.4900  220.7660 N   0  0  0  0  0  0  0  0  0  0  0  0
  140.1970   75.5700  221.5930 C   0  0  0  0  0  0  0  0  0  0  0  0
  139.6850   75.8810  222.7000 O   0  0  0  0  0  0  0  0  0  0  0  0
  140.0310   74.1450  221.1720 C   0  0  0  0  0  0  0  0  0  0  0  0
  139.9120   73.3640  222.3950 N   0  0  0  0  0  0  0  0  0  0  0  0
  140.2690   72.0070  222.3490 C   0  0  0  0  0  0  0  0  0  0  0  0
  140.6790   71.5390  221.2340 O   0  0  0  0  0  0  0  0  0  0  0  0
  140.1790   71.1540  223.5300 C   0  0  0  0  0  0  0  0  0  0  0  0
  139.5830   69.9010  223.4120 C   0  0  0  0  0  0  0  0  0  0  0  0
  139.4870   69.0700  224.5310 C   0  0  0  0  0  0  0  0  0  0  0  0
  139.9900   69.5180  225.7320 C   0  0  0  0  0  0  0  0  0  0  0  0
  139.8810   68.6670  226.8310 C   0  0  0  0  0  0  0  0  0  0  0  0
  140.3840   69.1120  228.0360 C   0  0  0  0  0  0  0  0  0  0  0  0
  140.2730   68.2760  229.1070 F   0  0  0  0  0  0  0  0  0  0  0  0
  140.9670   70.3500  228.1280 C   0  0  0  0  0  0  0  0  0  0  0  0
  141.0820   71.2100  227.0350 C   0  0  0  0  0  0  0  0  0  0  0  0
  140.5780   70.7650  225.8250 C   0  0  0  0  0  0  0  0  0  0  0  0
  140.6640   71.5570  224.7370 N   0  0  0  0  0  0  0  0  0  0  0  0
  139.5890   79.8595  224.8521 H   0  0  0  0  0  0  0  0  0  0  0  0
  139.5788   80.9858  223.4527 H   0  0  0  0  0  0  0  0  0  0  0  0
  138.5079   79.5437  223.4527 H   0  0  0  0  0  0  0  0  0  0  0  0
  141.5805   79.0450  224.9324 H   0  0  0  0  0  0  0  0  0  0  0  0
  142.2699   78.0717  223.5892 H   0  0  0  0  0  0  0  0  0  0  0  0
  142.4525   79.8587  223.5892 H   0  0  0  0  0  0  0  0  0  0  0  0
  142.1958   77.6635  221.9540 H   0  0  0  0  0  0  0  0  0  0  0  0
  141.3918   79.4929  219.9119 H   0  0  0  0  0  0  0  0  0  0  0  0
  142.9121   78.5710  219.8967 H   0  0  0  0  0  0  0  0  0  0  0  0
  140.2979   78.0062  218.4722 H   0  0  0  0  0  0  0  0  0  0  0  0
  141.9207   77.7191  217.8875 H   0  0  0  0  0  0  0  0  0  0  0  0
  140.4365   75.6916  218.8720 H   0  0  0  0  0  0  0  0  0  0  0  0
  142.1602   75.7248  219.2357 H   0  0  0  0  0  0  0  0  0  0  0  0
  139.1241   74.0328  220.5597 H   0  0  0  0  0  0  0  0  0  0  0  0
  140.8844   73.8073  220.5657 H   0  0  0  0  0  0  0  0  0  0  0  0
  139.5780   73.7550  223.2980 H   0  0  0  0  0  0  0  0  0  0  0  0
  139.1891   69.5666  222.4409 H   0  0  0  0  0  0  0  0  0  0  0  0
  139.0189   68.0775  224.4542 H   0  0  0  0  0  0  0  0  0  0  0  0
  139.4109   67.6766  226.7405 H   0  0  0  0  0  0  0  0  0  0  0  0
  141.3594   70.6780  229.1019 H   0  0  0  0  0  0  0  0  0  0  0  0
  141.5531   72.1994  227.1309 H   0  0  0  0  0  0  0  0  0  0  0  0
  1  2  1  0
  2  3  1  0
  2  4  1  0
  4  5  2  0
  4  6  1  0
  6  7  1  0
  7  8  1  0
  8  9  1  0
  9 10  1  0
 10 11  1  0
 11 12  2  0
 11 13  1  0
 13 14  1  0
 14 15  1  0
 15 16  2  0
 15 17  1  0
 17 18  2  0
 18 19  1  0
 19 20  2  0
 20 21  1  0
 21 22  2  0
 22 23  1  0
 22 24  1  0
 24 25  2  0
 25 26  1  0
 26 27  2  0
 10  6  1  0
 27 17  1  0
 26 20  1  0
  1 28  1  0
  1 29  1  0
  1 30  1  0
  3 31  1  0
  3 32  1  0
  3 33  1  0
  6 34  1  1
  7 35  1  0
  7 36  1  0
  8 37  1  0
  8 38  1  0
  9 39  1  0
  9 40  1  0
 13 41  1  0
 13 42  1  0
 14 43  1  0
 18 44  1  0
 19 45  1  0
 21 46  1  0
 24 47  1  0
 25 48  1  0
M  END
>  <smiles>  (11) 
CN(C)C(=O)[C@@H]1CCCN1C(=O)CNC(=O)c1ccc2cc(F)ccc2n1

>  <score_type>  (11) 
oracle

>  <origin>  (11) 
autodockgpu

>  <m_score__min__energy>  (11) 
-7.6299999999999999

>  <m_primary>  (11) 
energy

>  <rmsd>  (11) 
1.727830761567407

>  <m_score__min__rmsd>  (11) 
1.727830761567407

>  <meeko>  (11) 
{"free_energy": -7.28, "intermolecular_energy": -8.77, "internal_energy": -1.89, "cluster_size": 26, "cluster_id": 1, "rank_in_cluster": 19}

>  <energy>  (11) 
-7.32

>  <cluster_rmsd>  (11) 
1.42

>  <cluster>  (11) 
1

$$$$

     RDKit          3D

 48 50  0  0  0  0  0  0  0  0999 V2000
  146.0470   73.6790  220.9800 C   0  0  0  0  0  0  0  0  0  0  0  0
  145.0050   73.8660  219.9770 N   0  0  0  0  0  0  0  0  0  0  0  0
  144.0120   74.8810  220.2580 C   0  0  0  0  0  0  0  0  0  0  0  0
  145.0150   73.0710  218.8180 C   0  0  0  0  0  0  0  0  0  0  0  0
  145.9310   72.2230  218.6920 O   0  0  0  0  0  0  0  0  0  0  0  0
  143.9440   73.2680  217.7970 C   0  0  2  0  0  0  0  0  0  0  0  0
  144.1920   74.5760  217.0780 C   0  0  0  0  0  0  0  0  0  0  0  0
  143.1370   75.5500  217.5550 C   0  0  0  0  0  0  0  0  0  0  0  0
  142.0070   74.6480  217.9350 C   0  0  0  0  0  0  0  0  0  0  0  0
  142.6480   73.4410  218.4200 N   0  0  0  0  0  0  0  0  0  0  0  0
  142.0950   72.5460  219.3760 C   0  0  0  0  0  0  0  0  0  0  0  0
  142.5100   71.3700  219.5480 O   0  0  0  0  0  0  0  0  0  0  0  0
  140.9570   72.9720  220.2470 C   0  0  0  0  0  0  0  0  0  0  0  0
  140.8840   72.0050  221.3340 N   0  0  0  0  0  0  0  0  0  0  0  0
  140.3450   72.4290  222.5590 C   0  0  0  0  0  0  0  0  0  0  0  0
  139.9500   73.6400  222.6460 O   0  0  0  0  0  0  0  0  0  0  0  0
  140.2350   71.5230  223.6980 C   0  0  0  0  0  0  0  0  0  0  0  0
  139.6480   70.2740  223.5100 C   0  0  0  0  0  0  0  0  0  0  0  0
  139.5340   69.3930  224.5880 C   0  0  0  0  0  0  0  0  0  0  0  0
  140.0100   69.7870  225.8180 C   0  0  0  0  0  0  0  0  0  0  0  0
  139.8830   68.8870  226.8750 C   0  0  0  0  0  0  0  0  0  0  0  0
  140.3600   69.2780  228.1090 C   0  0  0  0  0  0  0  0  0  0  0  0
  140.2310   68.3930  229.1380 F   0  0  0  0  0  0  0  0  0  0  0  0
  140.9350   70.5130  228.2700 C   0  0  0  0  0  0  0  0  0  0  0  0
  141.0670   71.4230  227.2190 C   0  0  0  0  0  0  0  0  0  0  0  0
  140.5900   71.0320  225.9800 C   0  0  0  0  0  0  0  0  0  0  0  0
  140.6940   71.8730  224.9310 N   0  0  0  0  0  0  0  0  0  0  0  0
  145.6069   73.7580  221.9850 H   0  0  0  0  0  0  0  0  0  0  0  0
  146.5014   72.6850  220.8558 H   0  0  0  0  0  0  0  0  0  0  0  0
  146.8187   74.4530  220.8558 H   0  0  0  0  0  0  0  0  0  0  0  0
  143.9012   74.9942  221.3465 H   0  0  0  0  0  0  0  0  0  0  0  0
  144.3321   75.8382  219.8205 H   0  0  0  0  0  0  0  0  0  0  0  0
  143.0481   74.5820  219.8205 H   0  0  0  0  0  0  0  0  0  0  0  0
  143.9579   72.3880  217.1371 H   0  0  0  0  0  0  0  0  0  0  0  0
  145.1950   74.9565  217.3212 H   0  0  0  0  0  0  0  0  0  0  0  0
  144.1374   74.4411  215.9877 H   0  0  0  0  0  0  0  0  0  0  0  0
  143.4925   76.1274  218.4211 H   0  0  0  0  0  0  0  0  0  0  0  0
  142.8619   76.3009  216.7997 H   0  0  0  0  0  0  0  0  0  0  0  0
  141.3936   75.1060  218.7250 H   0  0  0  0  0  0  0  0  0  0  0  0
  141.3301   74.4499  217.0909 H   0  0  0  0  0  0  0  0  0  0  0  0
  141.1411   73.9801  220.6468 H   0  0  0  0  0  0  0  0  0  0  0  0
  140.0143   73.0067  219.6813 H   0  0  0  0  0  0  0  0  0  0  0  0
  141.2080   71.0220  221.2520 H   0  0  0  0  0  0  0  0  0  0  0  0
  139.2757   69.9826  222.5168 H   0  0  0  0  0  0  0  0  0  0  0  0
  139.0726   68.4031  224.4565 H   0  0  0  0  0  0  0  0  0  0  0  0
  139.4190   67.9002  226.7303 H   0  0  0  0  0  0  0  0  0  0  0  0
  141.3065   70.7975  229.2655 H   0  0  0  0  0  0  0  0  0  0  0  0
  141.5306   72.4091  227.3695 H   0  0  0  0  0  0  0  0  0  0  0  0
  1  2  1  0
  2  3  1  0
  2  4  1  0
  4  5  2  0
  4  6  1  0
  6  7  1  0
  7  8  1  0
  8  9  1  0
  9 10  1  0
 10 11  1  0
 11 12  2  0
 11 13  1  0
 13 14  1  0
 14 15  1  0
 15 16  2  0
 15 17  1  0
 17 18  2  0
 18 19  1  0
 19 20  2  0
 20 21  1  0
 21 22  2  0
 22 23  1  0
 22 24  1  0
 24 25  2  0
 25 26  1  0
 26 27  2  0
 10  6  1  0
 27 17  1  0
 26 20  1  0
  1 28  1  0
  1 29  1  0
  1 30  1  0
  3 31  1  0
  3 32  1  0
  3 33  1  0
  6 34  1  6
  7 35  1  0
  7 36  1  0
  8 37  1  0
  8 38  1  0
  9 39  1  0
  9 40  1  0
 13 41  1  0
 13 42  1  0
 14 43  1  0
 18 44  1  0
 19 45  1  0
 21 46  1  0
 24 47  1  0
 25 48  1  0
M  END
>  <smiles>  (12) 
CN(C)C(=O)[C@@H]1CCCN1C(=O)CNC(=O)c1ccc2cc(F)ccc2n1

>  <score_type>  (12) 
oracle

>  <origin>  (12) 
autodockgpu

>  <m_score__min__energy>  (12) 
-7.6299999999999999

>  <m_primary>  (12) 
energy

>  <rmsd>  (12) 
3.7621378751183574

>  <m_score__min__rmsd>  (12) 
3.7621378751183574

>  <meeko>  (12) 
{"free_energy": -7.26, "intermolecular_energy": -8.75, "internal_energy": -1.31, "cluster_size": 17, "cluster_id": 2, "rank_in_cluster": 2}

>  <energy>  (12) 
-7.31

>  <cluster_rmsd>  (12) 
1.43

>  <cluster>  (12) 
1

$$$$

     RDKit          3D

 48 50  0  0  0  0  0  0  0  0999 V2000
  139.5140   80.0030  223.7580 C   0  0  0  0  0  0  0  0  0  0  0  0
  140.5740   79.2530  223.0940 N   0  0  0  0  0  0  0  0  0  0  0  0
  141.7700   78.9980  223.8690 C   0  0  0  0  0  0  0  0  0  0  0  0
  140.3870   78.8250  221.7680 C   0  0  0  0  0  0  0  0  0  0  0  0
  139.3040   79.1100  221.2030 O   0  0  0  0  0  0  0  0  0  0  0  0
  141.4770   78.0580  221.0950 C   0  0  2  0  0  0  0  0  0  0  0  0
  141.8310   78.7530  219.7980 C   0  0  0  0  0  0  0  0  0  0  0  0
  141.2970   77.8910  218.6750 C   0  0  0  0  0  0  0  0  0  0  0  0
  141.3010   76.5250  219.2800 C   0  0  0  0  0  0  0  0  0  0  0  0
  141.0220   76.7450  220.6860 N   0  0  0  0  0  0  0  0  0  0  0  0
  140.3880   75.8130  221.5520 C   0  0  0  0  0  0  0  0  0  0  0  0
  139.9840   76.1030  222.7080 O   0  0  0  0  0  0  0  0  0  0  0  0
  140.1670   74.4000  221.1170 C   0  0  0  0  0  0  0  0  0  0  0  0
  139.9590   73.6220  222.3300 N   0  0  0  0  0  0  0  0  0  0  0  0
  140.4060   72.2900  222.3450 C   0  0  0  0  0  0  0  0  0  0  0  0
  140.9690   71.8430  221.2910 O   0  0  0  0  0  0  0  0  0  0  0  0
  140.2370   71.4420  223.5200 C   0  0  0  0  0  0  0  0  0  0  0  0
  139.6080   70.2080  223.3740 C   0  0  0  0  0  0  0  0  0  0  0  0
  139.4360   69.3820  224.4880 C   0  0  0  0  0  0  0  0  0  0  0  0
  139.8990   69.8150  225.7100 C   0  0  0  0  0  0  0  0  0  0  0  0
  139.7140   68.9690  226.8030 C   0  0  0  0  0  0  0  0  0  0  0  0
  140.1760   69.3990  228.0290 C   0  0  0  0  0  0  0  0  0  0  0  0
  139.9910   68.5680  229.0940 F   0  0  0  0  0  0  0  0  0  0  0  0
  140.7930   70.6190  228.1490 C   0  0  0  0  0  0  0  0  0  0  0  0
  140.9830   71.4740  227.0610 C   0  0  0  0  0  0  0  0  0  0  0  0
  140.5200   71.0440  225.8300 C   0  0  0  0  0  0  0  0  0  0  0  0
  140.6800   71.8310  224.7470 N   0  0  0  0  0  0  0  0  0  0  0  0
  139.6330   79.9188  224.8483 H   0  0  0  0  0  0  0  0  0  0  0  0
  139.5735   81.0611  223.4633 H   0  0  0  0  0  0  0  0  0  0  0  0
  138.5360   79.5947  223.4633 H   0  0  0  0  0  0  0  0  0  0  0  0
  141.5299   79.0492  224.9413 H   0  0  0  0  0  0  0  0  0  0  0  0
  142.1571   77.9971  223.6273 H   0  0  0  0  0  0  0  0  0  0  0  0
  142.5317   79.7539  223.6273 H   0  0  0  0  0  0  0  0  0  0  0  0
  142.3136   77.9894  221.8060 H   0  0  0  0  0  0  0  0  0  0  0  0
  141.3656   79.7491  219.7638 H   0  0  0  0  0  0  0  0  0  0  0  0
  142.9192   78.8859  219.7078 H   0  0  0  0  0  0  0  0  0  0  0  0
  140.2791   78.1959  218.3904 H   0  0  0  0  0  0  0  0  0  0  0  0
  141.8896   77.9611  217.7509 H   0  0  0  0  0  0  0  0  0  0  0  0
  140.5223   75.8962  218.8236 H   0  0  0  0  0  0  0  0  0  0  0  0
  142.2558   76.0022  219.1217 H   0  0  0  0  0  0  0  0  0  0  0  0
  139.2811   74.3363  220.4680 H   0  0  0  0  0  0  0  0  0  0  0  0
  141.0260   74.0212  220.5438 H   0  0  0  0  0  0  0  0  0  0  0  0
  139.5000   73.9960  223.1830 H   0  0  0  0  0  0  0  0  0  0  0  0
  139.2481   69.8849  222.3860 H   0  0  0  0  0  0  0  0  0  0  0  0
  138.9403   68.4049  224.3904 H   0  0  0  0  0  0  0  0  0  0  0  0
  139.2175   67.9938  226.6912 H   0  0  0  0  0  0  0  0  0  0  0  0
  141.1515   70.9355  229.1396 H   0  0  0  0  0  0  0  0  0  0  0  0
  141.4799   72.4484  227.1779 H   0  0  0  0  0  0  0  0  0  0  0  0
  1  2  1  0
  2  3  1  0
  2  4  1  0
  4  5  2  0
  4  6  1  0
  6  7  1  0
  7  8  1  0
  8  9  1  0
  9 10  1  0
 10 11  1  0
 11 12  2  0
 11 13  1  0
 13 14  1  0
 14 15  1  0
 15 16  2  0
 15 17  1  0
 17 18  2  0
 18 19  1  0
 19 20  2  0
 20 21  1  0
 21 22  2  0
 22 23  1  0
 22 24  1  0
 24 25  2  0
 25 26  1  0
 26 27  2  0
 10  6  1  0
 27 17  1  0
 26 20  1  0
  1 28  1  0
  1 29  1  0
  1 30  1  0
  3 31  1  0
  3 32  1  0
  3 33  1  0
  6 34  1  1
  7 35  1  0
  7 36  1  0
  8 37  1  0
  8 38  1  0
  9 39  1  0
  9 40  1  0
 13 41  1  0
 13 42  1  0
 14 43  1  0
 18 44  1  0
 19 45  1  0
 21 46  1  0
 24 47  1  0
 25 48  1  0
M  END
>  <smiles>  (13) 
CN(C)C(=O)[C@@H]1CCCN1C(=O)CNC(=O)c1ccc2cc(F)ccc2n1

>  <score_type>  (13) 
oracle

>  <origin>  (13) 
autodockgpu

>  <m_score__min__energy>  (13) 
-7.6299999999999999

>  <m_primary>  (13) 
energy

>  <rmsd>  (13) 
1.8566561619529949

>  <m_score__min__rmsd>  (13) 
1.8566561619529949

>  <meeko>  (13) 
{"free_energy": -7.31, "intermolecular_energy": -8.8, "internal_energy": -1.89, "cluster_size": 26, "cluster_id": 1, "rank_in_cluster": 14}

>  <energy>  (13) 
-7.31

>  <cluster_rmsd>  (13) 
1.43

>  <cluster>  (13) 
1

$$$$

     RDKit          3D

 48 50  0  0  0  0  0  0  0  0999 V2000
  139.5700   80.0500  223.2380 C   0  0  0  0  0  0  0  0  0  0  0  0
  140.6560   79.2470  222.6880 N   0  0  0  0  0  0  0  0  0  0  0  0
  141.7740   78.9790  223.5680 C   0  0  0  0  0  0  0  0  0  0  0  0
  140.5660   78.7830  221.3640 C   0  0  0  0  0  0  0  0  0  0  0  0
  139.5430   79.0840  220.7010 O   0  0  0  0  0  0  0  0  0  0  0  0
  141.6820   77.9620  220.8070 C   0  0  2  0  0  0  0  0  0  0  0  0
  142.0550   78.5080  219.4460 C   0  0  0  0  0  0  0  0  0  0  0  0
  141.5590   77.5130  218.4200 C   0  0  0  0  0  0  0  0  0  0  0  0
  141.5700   76.2260  219.1800 C   0  0  0  0  0  0  0  0  0  0  0  0
  141.2550   76.6030  220.5440 N   0  0  0  0  0  0  0  0  0  0  0  0
  140.6160   75.7670  221.5000 C   0  0  0  0  0  0  0  0  0  0  0  0
  140.4730   76.0800  222.7110 O   0  0  0  0  0  0  0  0  0  0  0  0
  140.0670   74.4350  221.0990 C   0  0  0  0  0  0  0  0  0  0  0  0
  139.9230   73.6620  222.3240 N   0  0  0  0  0  0  0  0  0  0  0  0
  140.3030   72.3100  222.3000 C   0  0  0  0  0  0  0  0  0  0  0  0
  140.7540   71.8410  221.2020 O   0  0  0  0  0  0  0  0  0  0  0  0
  140.1900   71.4650  223.4840 C   0  0  0  0  0  0  0  0  0  0  0  0
  139.5830   70.2170  223.3650 C   0  0  0  0  0  0  0  0  0  0  0  0
  139.4650   69.3940  224.4880 C   0  0  0  0  0  0  0  0  0  0  0  0
  139.9590   69.8430  225.6920 C   0  0  0  0  0  0  0  0  0  0  0  0
  139.8280   68.9990  226.7940 C   0  0  0  0  0  0  0  0  0  0  0  0
  140.3210   69.4450  228.0020 C   0  0  0  0  0  0  0  0  0  0  0  0
  140.1890   68.6160  229.0760 F   0  0  0  0  0  0  0  0  0  0  0  0
  140.9160   70.6780  228.0950 C   0  0  0  0  0  0  0  0  0  0  0  0
  141.0520   71.5310  226.9980 C   0  0  0  0  0  0  0  0  0  0  0  0
  140.5580   71.0850  225.7850 C   0  0  0  0  0  0  0  0  0  0  0  0
  140.6650   71.8700  224.6940 N   0  0  0  0  0  0  0  0  0  0  0  0
  139.6115   80.0194  224.3368 H   0  0  0  0  0  0  0  0  0  0  0  0
  139.6737   81.0903  222.8960 H   0  0  0  0  0  0  0  0  0  0  0  0
  138.6057   79.6460  222.8960 H   0  0  0  0  0  0  0  0  0  0  0  0
  141.4442   79.0581  224.6144 H   0  0  0  0  0  0  0  0  0  0  0  0
  142.1543   77.9642  223.3791 H   0  0  0  0  0  0  0  0  0  0  0  0
  142.5730   79.7110  223.3791 H   0  0  0  0  0  0  0  0  0  0  0  0
  142.5035   77.9904  221.5380 H   0  0  0  0  0  0  0  0  0  0  0  0
  141.5762   79.4854  219.2868 H   0  0  0  0  0  0  0  0  0  0  0  0
  143.1429   78.6480  219.3635 H   0  0  0  0  0  0  0  0  0  0  0  0
  140.5433   77.7652  218.0813 H   0  0  0  0  0  0  0  0  0  0  0  0
  142.1707   77.4861  217.5061 H   0  0  0  0  0  0  0  0  0  0  0  0
  140.8119   75.5346  218.7835 H   0  0  0  0  0  0  0  0  0  0  0  0
  142.5360   75.7054  219.1040 H   0  0  0  0  0  0  0  0  0  0  0  0
  139.0893   74.5584  220.6103 H   0  0  0  0  0  0  0  0  0  0  0  0
  140.7331   73.9286  220.3849 H   0  0  0  0  0  0  0  0  0  0  0  0
  139.5550   74.0540  223.2130 H   0  0  0  0  0  0  0  0  0  0  0  0
  139.1981   69.8807  222.3910 H   0  0  0  0  0  0  0  0  0  0  0  0
  138.9866   68.4064  224.4115 H   0  0  0  0  0  0  0  0  0  0  0  0
  139.3487   68.0131  226.7030 H   0  0  0  0  0  0  0  0  0  0  0  0
  141.3007   71.0071  229.0716 H   0  0  0  0  0  0  0  0  0  0  0  0
  141.5317   72.5162  227.0941 H   0  0  0  0  0  0  0  0  0  0  0  0
  1  2  1  0
  2  3  1  0
  2  4  1  0
  4  5  2  0
  4  6  1  0
  6  7  1  0
  7  8  1  0
  8  9  1  0
  9 10  1  0
 10 11  1  0
 11 12  2  0
 11 13  1  0
 13 14  1  0
 14 15  1  0
 15 16  2  0
 15 17  1  0
 17 18  2  0
 18 19  1  0
 19 20  2  0
 20 21  1  0
 21 22  2  0
 22 23  1  0
 22 24  1  0
 24 25  2  0
 25 26  1  0
 26 27  2  0
 10  6  1  0
 27 17  1  0
 26 20  1  0
  1 28  1  0
  1 29  1  0
  1 30  1  0
  3 31  1  0
  3 32  1  0
  3 33  1  0
  6 34  1  1
  7 35  1  0
  7 36  1  0
  8 37  1  0
  8 38  1  0
  9 39  1  0
  9 40  1  0
 13 41  1  0
 13 42  1  0
 14 43  1  0
 18 44  1  0
 19 45  1  0
 21 46  1  0
 24 47  1  0
 25 48  1  0
M  END
>  <smiles>  (14) 
CN(C)C(=O)[C@@H]1CCCN1C(=O)CNC(=O)c1ccc2cc(F)ccc2n1

>  <score_type>  (14) 
oracle

>  <origin>  (14) 
autodockgpu

>  <m_score__min__energy>  (14) 
-7.6299999999999999

>  <m_primary>  (14) 
energy

>  <rmsd>  (14) 
1.758976314365863

>  <m_score__min__rmsd>  (14) 
1.758976314365863

>  <meeko>  (14) 
{"free_energy": -7.15, "intermolecular_energy": -8.64, "internal_energy": -1.87, "cluster_size": 26, "cluster_id": 1, "rank_in_cluster": 23}

>  <energy>  (14) 
-7.31

>  <cluster_rmsd>  (14) 
1.44

>  <cluster>  (14) 
1

$$$$

     RDKit          3D

 48 50  0  0  0  0  0  0  0  0999 V2000
  144.1760   72.2160  220.5640 C   0  0  0  0  0  0  0  0  0  0  0  0
  143.1630   72.9910  219.8560 N   0  0  0  0  0  0  0  0  0  0  0  0
  142.1340   72.2380  219.1720 C   0  0  0  0  0  0  0  0  0  0  0  0
  143.2340   74.3950  219.8740 C   0  0  0  0  0  0  0  0  0  0  0  0
  144.1770   74.9300  220.5040 O   0  0  0  0  0  0  0  0  0  0  0  0
  142.1930   75.1810  219.1470 C   0  0  2  0  0  0  0  0  0  0  0  0
  142.8740   76.2850  218.3680 C   0  0  0  0  0  0  0  0  0  0  0  0
  142.5580   77.5850  219.0760 C   0  0  0  0  0  0  0  0  0  0  0  0
  141.2510   77.2880  219.7380 C   0  0  0  0  0  0  0  0  0  0  0  0
  141.3200   75.8770  220.0690 N   0  0  0  0  0  0  0  0  0  0  0  0
  140.6330   75.2520  221.1460 C   0  0  0  0  0  0  0  0  0  0  0  0
  140.6550   75.6840  222.3280 O   0  0  0  0  0  0  0  0  0  0  0  0
  139.8290   74.0120  220.9160 C   0  0  0  0  0  0  0  0  0  0  0  0
  139.8030   73.2960  222.1840 N   0  0  0  0  0  0  0  0  0  0  0  0
  139.8950   71.8950  222.1520 C   0  0  0  0  0  0  0  0  0  0  0  0
  139.9960   71.3340  221.0100 O   0  0  0  0  0  0  0  0  0  0  0  0
  139.8770   71.1020  223.3770 C   0  0  0  0  0  0  0  0  0  0  0  0
  139.3210   69.8260  223.3440 C   0  0  0  0  0  0  0  0  0  0  0  0
  139.2940   69.0510  224.5060 C   0  0  0  0  0  0  0  0  0  0  0  0
  139.8240   69.5760  225.6630 C   0  0  0  0  0  0  0  0  0  0  0  0
  139.7830   68.7800  226.8070 C   0  0  0  0  0  0  0  0  0  0  0  0
  140.3130   69.3020  227.9680 C   0  0  0  0  0  0  0  0  0  0  0  0
  140.2700   68.5190  229.0830 F   0  0  0  0  0  0  0  0  0  0  0  0
  140.8560   70.5620  227.9770 C   0  0  0  0  0  0  0  0  0  0  0  0
  140.9020   71.3680  226.8370 C   0  0  0  0  0  0  0  0  0  0  0  0
  140.3710   70.8450  225.6710 C   0  0  0  0  0  0  0  0  0  0  0  0
  140.3910   71.5830  224.5420 N   0  0  0  0  0  0  0  0  0  0  0  0
  144.0309   72.3270  221.6487 H   0  0  0  0  0  0  0  0  0  0  0  0
  144.0848   71.1550  220.2886 H   0  0  0  0  0  0  0  0  0  0  0  0
  145.1762   72.5816  220.2886 H   0  0  0  0  0  0  0  0  0  0  0  0
  141.4776   71.7577  219.9126 H   0  0  0  0  0  0  0  0  0  0  0  0
  141.5407   72.9167  218.5417 H   0  0  0  0  0  0  0  0  0  0  0  0
  142.6015   71.4671  218.5417 H   0  0  0  0  0  0  0  0  0  0  0  0
  141.6309   74.4747  218.5184 H   0  0  0  0  0  0  0  0  0  0  0  0
  143.9613   76.1193  218.3496 H   0  0  0  0  0  0  0  0  0  0  0  0
  142.5188   76.3081  217.3272 H   0  0  0  0  0  0  0  0  0  0  0  0
  143.3318   77.8310  219.8180 H   0  0  0  0  0  0  0  0  0  0  0  0
  142.5185   78.4522  218.4004 H   0  0  0  0  0  0  0  0  0  0  0  0
  141.1298   77.8947  220.6476 H   0  0  0  0  0  0  0  0  0  0  0  0
  140.3930   77.5230  219.0910 H   0  0  0  0  0  0  0  0  0  0  0  0
  138.8065   74.2739  220.6062 H   0  0  0  0  0  0  0  0  0  0  0  0
  140.2687   73.3945  220.1190 H   0  0  0  0  0  0  0  0  0  0  0  0
  139.7210   73.7640  223.1080 H   0  0  0  0  0  0  0  0  0  0  0  0
  138.9045   69.4295  222.4063 H   0  0  0  0  0  0  0  0  0  0  0  0
  138.8579   68.0412  224.4967 H   0  0  0  0  0  0  0  0  0  0  0  0
  139.3436   67.7718  226.7842 H   0  0  0  0  0  0  0  0  0  0  0  0
  141.2710   70.9524  228.9179 H   0  0  0  0  0  0  0  0  0  0  0  0
  141.3417   72.3759  226.8650 H   0  0  0  0  0  0  0  0  0  0  0  0
  1  2  1  0
  2  3  1  0
  2  4  1  0
  4  5  2  0
  4  6  1  0
  6  7  1  0
  7  8  1  0
  8  9  1  0
  9 10  1  0
 10 11  1  0
 11 12  2  0
 11 13  1  0
 13 14  1  0
 14 15  1  0
 15 16  2  0
 15 17  1  0
 17 18  2  0
 18 19  1  0
 19 20  2  0
 20 21  1  0
 21 22  2  0
 22 23  1  0
 22 24  1  0
 24 25  2  0
 25 26  1  0
 26 27  2  0
 10  6  1  0
 27 17  1  0
 26 20  1  0
  1 28  1  0
  1 29  1  0
  1 30  1  0
  3 31  1  0
  3 32  1  0
  3 33  1  0
  6 34  1  6
  7 35  1  0
  7 36  1  0
  8 37  1  0
  8 38  1  0
  9 39  1  0
  9 40  1  0
 13 41  1  0
 13 42  1  0
 14 43  1  0
 18 44  1  0
 19 45  1  0
 21 46  1  0
 24 47  1  0
 25 48  1  0
M  END
>  <smiles>  (15) 
CN(C)C(=O)[C@@H]1CCCN1C(=O)CNC(=O)c1ccc2cc(F)ccc2n1

>  <score_type>  (15) 
oracle

>  <origin>  (15) 
autodockgpu

>  <m_score__min__energy>  (15) 
-7.6299999999999999

>  <m_primary>  (15) 
energy

>  <rmsd>  (15) 
2.940766850428235

>  <m_score__min__rmsd>  (15) 
2.940766850428235

>  <meeko>  (15) 
{"free_energy": -6.81, "intermolecular_energy": -8.3, "internal_energy": -2.22, "cluster_size": 17, "cluster_id": 2, "rank_in_cluster": 14}

>  <energy>  (15) 
-7.29

>  <cluster_rmsd>  (15) 
1.43

>  <cluster>  (15) 
1

$$$$

     RDKit          3D

 48 50  0  0  0  0  0  0  0  0999 V2000
  141.8050   72.6190  227.5270 C   0  0  0  0  0  0  0  0  0  0  0  0
  140.7560   71.6060  227.5520 N   0  0  0  0  0  0  0  0  0  0  0  0
  139.8590   71.6310  228.6880 C   0  0  0  0  0  0  0  0  0  0  0  0
  140.6700   70.6780  226.5000 C   0  0  0  0  0  0  0  0  0  0  0  0
  141.5090   70.7600  225.5710 O   0  0  0  0  0  0  0  0  0  0  0  0
  139.5940   69.6430  226.5340 C   0  0  2  0  0  0  0  0  0  0  0  0
  140.1730   68.3600  227.0900 C   0  0  0  0  0  0  0  0  0  0  0  0
  140.2910   67.3920  225.9330 C   0  0  0  0  0  0  0  0  0  0  0  0
  139.2150   67.8560  225.0050 C   0  0  0  0  0  0  0  0  0  0  0  0
  139.1600   69.2920  225.1980 N   0  0  0  0  0  0  0  0  0  0  0  0
  138.7410   70.2360  224.2200 C   0  0  0  0  0  0  0  0  0  0  0  0
  137.7490   70.9950  224.3670 O   0  0  0  0  0  0  0  0  0  0  0  0
  139.4840   70.3720  222.9290 C   0  0  0  0  0  0  0  0  0  0  0  0
  139.6730   71.7990  222.7100 N   0  0  0  0  0  0  0  0  0  0  0  0
  140.6930   72.2030  221.8340 C   0  0  0  0  0  0  0  0  0  0  0  0
  141.3950   71.2920  221.2810 O   0  0  0  0  0  0  0  0  0  0  0  0
  140.9480   73.6140  221.5590 C   0  0  0  0  0  0  0  0  0  0  0  0
  141.9670   73.9530  220.6720 C   0  0  0  0  0  0  0  0  0  0  0  0
  142.2270   75.2980  220.3970 C   0  0  0  0  0  0  0  0  0  0  0  0
  141.4600   76.2600  221.0150 C   0  0  0  0  0  0  0  0  0  0  0  0
  141.7420   77.5930  220.7210 C   0  0  0  0  0  0  0  0  0  0  0  0
  140.9760   78.5600  221.3380 C   0  0  0  0  0  0  0  0  0  0  0  0
  141.2570   79.8610  221.0460 F   0  0  0  0  0  0  0  0  0  0  0  0
  139.9770   78.2010  222.2080 C   0  0  0  0  0  0  0  0  0  0  0  0
  139.6870   76.8700  222.5100 C   0  0  0  0  0  0  0  0  0  0  0  0
  140.4540   75.8990  221.8910 C   0  0  0  0  0  0  0  0  0  0  0  0
  140.2130   74.5970  222.1480 N   0  0  0  0  0  0  0  0  0  0  0  0
  142.0815   72.8860  228.5576 H   0  0  0  0  0  0  0  0  0  0  0  0
  142.6862   72.2214  227.0022 H   0  0  0  0  0  0  0  0  0  0  0  0
  141.4384   73.5136  227.0022 H   0  0  0  0  0  0  0  0  0  0  0  0
  140.4453   71.6147  229.6186 H   0  0  0  0  0  0  0  0  0  0  0  0
  139.2501   72.5465  228.6543 H   0  0  0  0  0  0  0  0  0  0  0  0
  139.2000   70.7509  228.6543 H   0  0  0  0  0  0  0  0  0  0  0  0
  138.7653   70.0526  227.1303 H   0  0  0  0  0  0  0  0  0  0  0  0
  141.1647   68.5506  227.5261 H   0  0  0  0  0  0  0  0  0  0  0  0
  139.5300   67.9493  227.8823 H   0  0  0  0  0  0  0  0  0  0  0  0
  141.2809   67.4602  225.4582 H   0  0  0  0  0  0  0  0  0  0  0  0
  140.1848   66.3389  226.2325 H   0  0  0  0  0  0  0  0  0  0  0  0
  139.4699   67.6137  223.9627 H   0  0  0  0  0  0  0  0  0  0  0  0
  138.2495   67.3702  225.2096 H   0  0  0  0  0  0  0  0  0  0  0  0
  140.4581   69.8654  222.9958 H   0  0  0  0  0  0  0  0  0  0  0  0
  138.9275   69.9121  222.0990 H   0  0  0  0  0  0  0  0  0  0  0  0
  139.0950   72.5330  223.1650 H   0  0  0  0  0  0  0  0  0  0  0  0
  142.5645   73.1652  220.1900 H   0  0  0  0  0  0  0  0  0  0  0  0
  143.0291   75.5828  219.7002 H   0  0  0  0  0  0  0  0  0  0  0  0
  142.5468   77.8641  220.0218 H   0  0  0  0  0  0  0  0  0  0  0  0
  139.3819   78.9933  222.6857 H   0  0  0  0  0  0  0  0  0  0  0  0
  138.8821   76.6038  223.2110 H   0  0  0  0  0  0  0  0  0  0  0  0
  1  2  1  0
  2  3  1  0
  2  4  1  0
  4  5  2  0
  4  6  1  0
  6  7  1  0
  7  8  1  0
  8  9  1  0
  9 10  1  0
 10 11  1  0
 11 12  2  0
 11 13  1  0
 13 14  1  0
 14 15  1  0
 15 16  2  0
 15 17  1  0
 17 18  2  0
 18 19  1  0
 19 20  2  0
 20 21  1  0
 21 22  2  0
 22 23  1  0
 22 24  1  0
 24 25  2  0
 25 26  1  0
 26 27  2  0
 10  6  1  0
 27 17  1  0
 26 20  1  0
  1 28  1  0
  1 29  1  0
  1 30  1  0
  3 31  1  0
  3 32  1  0
  3 33  1  0
  6 34  1  1
  7 35  1  0
  7 36  1  0
  8 37  1  0
  8 38  1  0
  9 39  1  0
  9 40  1  0
 13 41  1  0
 13 42  1  0
 14 43  1  0
 18 44  1  0
 19 45  1  0
 21 46  1  0
 24 47  1  0
 25 48  1  0
M  END
>  <smiles>  (16) 
CN(C)C(=O)[C@@H]1CCCN1C(=O)CNC(=O)c1ccc2cc(F)ccc2n1

>  <score_type>  (16) 
oracle

>  <origin>  (16) 
autodockgpu

>  <m_score__min__energy>  (16) 
-7.6299999999999999

>  <m_primary>  (16) 
energy

>  <rmsd>  (16) 
8.733452474559021

>  <m_score__min__rmsd>  (16) 
8.733452474559021

>  <meeko>  (16) 
{"free_energy": -6.92, "intermolecular_energy": -8.41, "internal_energy": -2.04, "cluster_size": 4, "cluster_id": 4, "rank_in_cluster": 1}

>  <energy>  (16) 
-7.29

>  <cluster_rmsd>  (16) 
1.44

>  <cluster>  (16) 
1

$$$$

     RDKit          3D

 48 50  0  0  0  0  0  0  0  0999 V2000
  139.5210   79.9260  223.7540 C   0  0  0  0  0  0  0  0  0  0  0  0
  140.5740   79.1520  223.1050 N   0  0  0  0  0  0  0  0  0  0  0  0
  141.8250   79.0320  223.8230 C   0  0  0  0  0  0  0  0  0  0  0  0
  140.3270   78.5760  221.8470 C   0  0  0  0  0  0  0  0  0  0  0  0
  139.1990   78.7530  221.3270 O   0  0  0  0  0  0  0  0  0  0  0  0
  141.4100   77.7860  221.1890 C   0  0  2  0  0  0  0  0  0  0  0  0
  141.8390   78.5050  219.9290 C   0  0  0  0  0  0  0  0  0  0  0  0
  141.3130   77.7010  218.7600 C   0  0  0  0  0  0  0  0  0  0  0  0
  141.2400   76.3170  219.3210 C   0  0  0  0  0  0  0  0  0  0  0  0
  140.9180   76.5060  220.7220 N   0  0  0  0  0  0  0  0  0  0  0  0
  140.2160   75.5750  221.5350 C   0  0  0  0  0  0  0  0  0  0  0  0
  139.6520   75.8840  222.6180 O   0  0  0  0  0  0  0  0  0  0  0  0
  140.1130   74.1390  221.1300 C   0  0  0  0  0  0  0  0  0  0  0  0
  139.9530   73.3740  222.3590 N   0  0  0  0  0  0  0  0  0  0  0  0
  140.3470   72.0260  222.3520 C   0  0  0  0  0  0  0  0  0  0  0  0
  140.8230   71.5530  221.2670 O   0  0  0  0  0  0  0  0  0  0  0  0
  140.2200   71.1890  223.5410 C   0  0  0  0  0  0  0  0  0  0  0  0
  139.5980   69.9480  223.4270 C   0  0  0  0  0  0  0  0  0  0  0  0
  139.4660   69.1330  224.5540 C   0  0  0  0  0  0  0  0  0  0  0  0
  139.9620   69.5820  225.7570 C   0  0  0  0  0  0  0  0  0  0  0  0
  139.8170   68.7470  226.8640 C   0  0  0  0  0  0  0  0  0  0  0  0
  140.3120   69.1940  228.0720 C   0  0  0  0  0  0  0  0  0  0  0  0
  140.1660   68.3720  229.1500 F   0  0  0  0  0  0  0  0  0  0  0  0
  140.9210   70.4200  228.1590 C   0  0  0  0  0  0  0  0  0  0  0  0
  141.0710   71.2640  227.0580 C   0  0  0  0  0  0  0  0  0  0  0  0
  140.5760   70.8170  225.8460 C   0  0  0  0  0  0  0  0  0  0  0  0
  140.6960   71.5950  224.7500 N   0  0  0  0  0  0  0  0  0  0  0  0
  139.6281   79.8473  224.8459 H   0  0  0  0  0  0  0  0  0  0  0  0
  139.6025   80.9808  223.4527 H   0  0  0  0  0  0  0  0  0  0  0  0
  138.5386   79.5334  223.4527 H   0  0  0  0  0  0  0  0  0  0  0  0
  141.6298   79.0507  224.9054 H   0  0  0  0  0  0  0  0  0  0  0  0
  142.3122   78.0830  223.5546 H   0  0  0  0  0  0  0  0  0  0  0  0
  142.4837   79.8711  223.5546 H   0  0  0  0  0  0  0  0  0  0  0  0
  142.2165   77.6614  221.9266 H   0  0  0  0  0  0  0  0  0  0  0  0
  141.4155   79.5200  219.9104 H   0  0  0  0  0  0  0  0  0  0  0  0
  142.9343   78.5954  219.8822 H   0  0  0  0  0  0  0  0  0  0  0  0
  140.3194   78.0561  218.4491 H   0  0  0  0  0  0  0  0  0  0  0  0
  141.9416   77.7753  217.8604 H   0  0  0  0  0  0  0  0  0  0  0  0
  140.4543   75.7348  218.8172 H   0  0  0  0  0  0  0  0  0  0  0  0
  142.1782   75.7602  219.1803 H   0  0  0  0  0  0  0  0  0  0  0  0
  139.2427   73.9906  220.4738 H   0  0  0  0  0  0  0  0  0  0  0  0
  141.0059   73.8171  220.5741 H   0  0  0  0  0  0  0  0  0  0  0  0
  139.5640   73.7690  223.2370 H   0  0  0  0  0  0  0  0  0  0  0  0
  139.2123   69.6110  222.4535 H   0  0  0  0  0  0  0  0  0  0  0  0
  138.9751   68.1513  224.4814 H   0  0  0  0  0  0  0  0  0  0  0  0
  139.3255   67.7667  226.7775 H   0  0  0  0  0  0  0  0  0  0  0  0
  141.3062   70.7507  229.1348 H   0  0  0  0  0  0  0  0  0  0  0  0
  141.5623   72.2439  227.1499 H   0  0  0  0  0  0  0  0  0  0  0  0
  1  2  1  0
  2  3  1  0
  2  4  1  0
  4  5  2  0
  4  6  1  0
  6  7  1  0
  7  8  1  0
  8  9  1  0
  9 10  1  0
 10 11  1  0
 11 12  2  0
 11 13  1  0
 13 14  1  0
 14 15  1  0
 15 16  2  0
 15 17  1  0
 17 18  2  0
 18 19  1  0
 19 20  2  0
 20 21  1  0
 21 22  2  0
 22 23  1  0
 22 24  1  0
 24 25  2  0
 25 26  1  0
 26 27  2  0
 10  6  1  0
 27 17  1  0
 26 20  1  0
  1 28  1  0
  1 29  1  0
  1 30  1  0
  3 31  1  0
  3 32  1  0
  3 33  1  0
  6 34  1  1
  7 35  1  0
  7 36  1  0
  8 37  1  0
  8 38  1  0
  9 39  1  0
  9 40  1  0
 13 41  1  0
 13 42  1  0
 14 43  1  0
 18 44  1  0
 19 45  1  0
 21 46  1  0
 24 47  1  0
 25 48  1  0
M  END
>  <smiles>  (17) 
CN(C)C(=O)[C@@H]1CCCN1C(=O)CNC(=O)c1ccc2cc(F)ccc2n1

>  <score_type>  (17) 
oracle

>  <origin>  (17) 
autodockgpu

>  <m_score__min__energy>  (17) 
-7.6299999999999999

>  <m_primary>  (17) 
energy

>  <rmsd>  (17) 
1.751029826874351

>  <m_score__min__rmsd>  (17) 
1.751029826874351

>  <meeko>  (17) 
{"free_energy": -7.29, "intermolecular_energy": -8.78, "internal_energy": -1.87, "cluster_size": 26, "cluster_id": 1, "rank_in_cluster": 15}

>  <energy>  (17) 
-7.29

>  <cluster_rmsd>  (17) 
1.43

>  <cluster>  (17) 
1

$$$$

     RDKit          3D

 48 50  0  0  0  0  0  0  0  0999 V2000
  139.5280   79.9290  223.7750 C   0  0  0  0  0  0  0  0  0  0  0  0
  140.5710   79.1410  223.1290 N   0  0  0  0  0  0  0  0  0  0  0  0
  141.8310   79.0340  223.8340 C   0  0  0  0  0  0  0  0  0  0  0  0
  140.3090   78.5380  221.8870 C   0  0  0  0  0  0  0  0  0  0  0  0
  139.1750   78.7060  221.3770 O   0  0  0  0  0  0  0  0  0  0  0  0
  141.3820   77.7330  221.2320 C   0  0  2  0  0  0  0  0  0  0  0  0
  141.8230   78.4450  219.9710 C   0  0  0  0  0  0  0  0  0  0  0  0
  141.2880   77.6450  218.8030 C   0  0  0  0  0  0  0  0  0  0  0  0
  141.1970   76.2630  219.3660 C   0  0  0  0  0  0  0  0  0  0  0  0
  140.8750   76.4590  220.7670 N   0  0  0  0  0  0  0  0  0  0  0  0
  140.1590   75.5380  221.5810 C   0  0  0  0  0  0  0  0  0  0  0  0
  139.6180   75.8510  222.6720 O   0  0  0  0  0  0  0  0  0  0  0  0
  140.0150   74.1090  221.1640 C   0  0  0  0  0  0  0  0  0  0  0  0
  139.8950   73.3320  222.3890 N   0  0  0  0  0  0  0  0  0  0  0  0
  140.2560   71.9750  222.3480 C   0  0  0  0  0  0  0  0  0  0  0  0
  140.6690   71.5060  221.2350 O   0  0  0  0  0  0  0  0  0  0  0  0
  140.1650   71.1260  223.5310 C   0  0  0  0  0  0  0  0  0  0  0  0
  139.5650   69.8750  223.4170 C   0  0  0  0  0  0  0  0  0  0  0  0
  139.4680   69.0470  224.5390 C   0  0  0  0  0  0  0  0  0  0  0  0
  139.9760   69.4960  225.7370 C   0  0  0  0  0  0  0  0  0  0  0  0
  139.8660   68.6490  226.8380 C   0  0  0  0  0  0  0  0  0  0  0  0
  140.3740   69.0940  228.0410 C   0  0  0  0  0  0  0  0  0  0  0  0
  140.2620   68.2610  229.1140 F   0  0  0  0  0  0  0  0  0  0  0  0
  140.9620   70.3310  228.1290 C   0  0  0  0  0  0  0  0  0  0  0  0
  141.0770   71.1870  227.0330 C   0  0  0  0  0  0  0  0  0  0  0  0
  140.5680   70.7420  225.8260 C   0  0  0  0  0  0  0  0  0  0  0  0
  140.6550   71.5310  224.7350 N   0  0  0  0  0  0  0  0  0  0  0  0
  139.6323   79.8502  224.8672 H   0  0  0  0  0  0  0  0  0  0  0  0
  139.6238   80.9823  223.4726 H   0  0  0  0  0  0  0  0  0  0  0  0
  138.5410   79.5490  223.4726 H   0  0  0  0  0  0  0  0  0  0  0  0
  141.6469   79.0496  224.9184 H   0  0  0  0  0  0  0  0  0  0  0  0
  142.3257   78.0906  223.5596 H   0  0  0  0  0  0  0  0  0  0  0  0
  142.4777   79.8805  223.5596 H   0  0  0  0  0  0  0  0  0  0  0  0
  142.1855   77.5990  221.9712 H   0  0  0  0  0  0  0  0  0  0  0  0
  141.4128   79.4654  219.9498 H   0  0  0  0  0  0  0  0  0  0  0  0
  142.9194   78.5218  219.9257 H   0  0  0  0  0  0  0  0  0  0  0  0
  140.2992   78.0120  218.4905 H   0  0  0  0  0  0  0  0  0  0  0  0
  141.9186   77.7097  217.9040 H   0  0  0  0  0  0  0  0  0  0  0  0
  140.4049   75.6897  218.8620 H   0  0  0  0  0  0  0  0  0  0  0  0
  142.1282   75.6941  219.2277 H   0  0  0  0  0  0  0  0  0  0  0  0
  139.1152   73.9827  220.5440 H   0  0  0  0  0  0  0  0  0  0  0  0
  140.8779   73.7797  220.5665 H   0  0  0  0  0  0  0  0  0  0  0  0
  139.5580   73.7250  223.2900 H   0  0  0  0  0  0  0  0  0  0  0  0
  139.1686   69.5393  222.4474 H   0  0  0  0  0  0  0  0  0  0  0  0
  138.9952   68.0565  224.4661 H   0  0  0  0  0  0  0  0  0  0  0  0
  139.3910   67.6607  226.7510 H   0  0  0  0  0  0  0  0  0  0  0  0
  141.3579   70.6603  229.1010 H   0  0  0  0  0  0  0  0  0  0  0  0
  141.5526   72.1746  227.1249 H   0  0  0  0  0  0  0  0  0  0  0  0
  1  2  1  0
  2  3  1  0
  2  4  1  0
  4  5  2  0
  4  6  1  0
  6  7  1  0
  7  8  1  0
  8  9  1  0
  9 10  1  0
 10 11  1  0
 11 12  2  0
 11 13  1  0
 13 14  1  0
 14 15  1  0
 15 16  2  0
 15 17  1  0
 17 18  2  0
 18 19  1  0
 19 20  2  0
 20 21  1  0
 21 22  2  0
 22 23  1  0
 22 24  1  0
 24 25  2  0
 25 26  1  0
 26 27  2  0
 10  6  1  0
 27 17  1  0
 26 20  1  0
  1 28  1  0
  1 29  1  0
  1 30  1  0
  3 31  1  0
  3 32  1  0
  3 33  1  0
  6 34  1  1
  7 35  1  0
  7 36  1  0
  8 37  1  0
  8 38  1  0
  9 39  1  0
  9 40  1  0
 13 41  1  0
 13 42  1  0
 14 43  1  0
 18 44  1  0
 19 45  1  0
 21 46  1  0
 24 47  1  0
 25 48  1  0
M  END
>  <smiles>  (18) 
CN(C)C(=O)[C@@H]1CCCN1C(=O)CNC(=O)c1ccc2cc(F)ccc2n1

>  <score_type>  (18) 
oracle

>  <origin>  (18) 
autodockgpu

>  <m_score__min__energy>  (18) 
-7.6299999999999999

>  <m_primary>  (18) 
energy

>  <rmsd>  (18) 
1.7147796308945502

>  <m_score__min__rmsd>  (18) 
1.7147796308945502

>  <meeko>  (18) 
{"free_energy": -7.29, "intermolecular_energy": -8.78, "internal_energy": -1.87, "cluster_size": 26, "cluster_id": 1, "rank_in_cluster": 17}

>  <energy>  (18) 
-7.29

>  <cluster_rmsd>  (18) 
1.44

>  <cluster>  (18) 
1

$$$$

     RDKit          3D

 48 50  0  0  0  0  0  0  0  0999 V2000
  140.2340   80.3850  223.7180 C   0  0  0  0  0  0  0  0  0  0  0  0
  141.1470   79.6000  222.8950 N   0  0  0  0  0  0  0  0  0  0  0  0
  142.5610   79.7820  223.1440 C   0  0  0  0  0  0  0  0  0  0  0  0
  140.6220   78.7280  221.9260 C   0  0  0  0  0  0  0  0  0  0  0  0
  139.3750   78.6610  221.8060 O   0  0  0  0  0  0  0  0  0  0  0  0
  141.5630   77.9290  221.0870 C   0  0  2  0  0  0  0  0  0  0  0  0
  141.8230   78.6790  219.7980 C   0  0  0  0  0  0  0  0  0  0  0  0
  141.0970   77.9350  218.6990 C   0  0  0  0  0  0  0  0  0  0  0  0
  141.0600   76.5350  219.2220 C   0  0  0  0  0  0  0  0  0  0  0  0
  140.9600   76.6830  220.6610 N   0  0  0  0  0  0  0  0  0  0  0  0
  140.3550   75.7460  221.5420 C   0  0  0  0  0  0  0  0  0  0  0  0
  139.9680   76.0350  222.7040 O   0  0  0  0  0  0  0  0  0  0  0  0
  140.1460   74.3270  221.1160 C   0  0  0  0  0  0  0  0  0  0  0  0
  139.9530   73.5540  222.3350 N   0  0  0  0  0  0  0  0  0  0  0  0
  140.4010   72.2230  222.3500 C   0  0  0  0  0  0  0  0  0  0  0  0
  140.9520   71.7710  221.2910 O   0  0  0  0  0  0  0  0  0  0  0  0
  140.2460   71.3800  223.5300 C   0  0  0  0  0  0  0  0  0  0  0  0
  139.6270   70.1400  223.3950 C   0  0  0  0  0  0  0  0  0  0  0  0
  139.4680   69.3180  224.5140 C   0  0  0  0  0  0  0  0  0  0  0  0
  139.9350   69.7610  225.7310 C   0  0  0  0  0  0  0  0  0  0  0  0
  139.7640   68.9200  226.8290 C   0  0  0  0  0  0  0  0  0  0  0  0
  140.2300   69.3600  228.0510 C   0  0  0  0  0  0  0  0  0  0  0  0
  140.0590   68.5320  229.1200 F   0  0  0  0  0  0  0  0  0  0  0  0
  140.8380   70.5850  228.1600 C   0  0  0  0  0  0  0  0  0  0  0  0
  141.0140   71.4360  227.0670 C   0  0  0  0  0  0  0  0  0  0  0  0
  140.5470   70.9960  225.8410 C   0  0  0  0  0  0  0  0  0  0  0  0
  140.6930   71.7790  224.7530 N   0  0  0  0  0  0  0  0  0  0  0  0
  140.4482   80.2008  224.7811 H   0  0  0  0  0  0  0  0  0  0  0  0
  140.3681   81.4542  223.4968 H   0  0  0  0  0  0  0  0  0  0  0  0
  139.1970   80.0921  223.4968 H   0  0  0  0  0  0  0  0  0  0  0  0
  142.7423   79.8053  224.2287 H   0  0  0  0  0  0  0  0  0  0  0  0
  143.1224   78.9487  222.6963 H   0  0  0  0  0  0  0  0  0  0  0  0
  142.8931   80.7303  222.6963 H   0  0  0  0  0  0  0  0  0  0  0  0
  142.4664   77.7530  221.6894 H   0  0  0  0  0  0  0  0  0  0  0  0
  141.4395   79.7071  219.8752 H   0  0  0  0  0  0  0  0  0  0  0  0
  142.9012   78.7357  219.5876 H   0  0  0  0  0  0  0  0  0  0  0  0
  140.0813   78.3319  218.5547 H   0  0  0  0  0  0  0  0  0  0  0  0
  141.5837   78.0221  217.7164 H   0  0  0  0  0  0  0  0  0  0  0  0
  140.1870   75.9957  218.8258 H   0  0  0  0  0  0  0  0  0  0  0  0
  141.9459   75.9553  218.9235 H   0  0  0  0  0  0  0  0  0  0  0  0
  139.2571   74.2503  220.4725 H   0  0  0  0  0  0  0  0  0  0  0  0
  141.0055   73.9537  220.5399 H   0  0  0  0  0  0  0  0  0  0  0  0
  139.5030   73.9320  223.1920 H   0  0  0  0  0  0  0  0  0  0  0  0
  139.2643   69.8085  222.4108 H   0  0  0  0  0  0  0  0  0  0  0  0
  138.9794   68.3366  224.4242 H   0  0  0  0  0  0  0  0  0  0  0  0
  139.2749   67.9402  226.7252 H   0  0  0  0  0  0  0  0  0  0  0  0
  141.2008   70.9093  229.1465 H   0  0  0  0  0  0  0  0  0  0  0  0
  141.5034   72.4151  227.1760 H   0  0  0  0  0  0  0  0  0  0  0  0
  1  2  1  0
  2  3  1  0
  2  4  1  0
  4  5  2  0
  4  6  1  0
  6  7  1  0
  7  8  1  0
  8  9  1  0
  9 10  1  0
 10 11  1  0
 11 12  2  0
 11 13  1  0
 13 14  1  0
 14 15  1  0
 15 16  2  0
 15 17  1  0
 17 18  2  0
 18 19  1  0
 19 20  2  0
 20 21  1  0
 21 22  2  0
 22 23  1  0
 22 24  1  0
 24 25  2  0
 25 26  1  0
 26 27  2  0
 10  6  1  0
 27 17  1  0
 26 20  1  0
  1 28  1  0
  1 29  1  0
  1 30  1  0
  3 31  1  0
  3 32  1  0
  3 33  1  0
  6 34  1  1
  7 35  1  0
  7 36  1  0
  8 37  1  0
  8 38  1  0
  9 39  1  0
  9 40  1  0
 13 41  1  0
 13 42  1  0
 14 43  1  0
 18 44  1  0
 19 45  1  0
 21 46  1  0
 24 47  1  0
 25 48  1  0
M  END
>  <smiles>  (19) 
CN(C)C(=O)[C@@H]1CCCN1C(=O)CNC(=O)c1ccc2cc(F)ccc2n1

>  <score_type>  (19) 
oracle

>  <origin>  (19) 
autodockgpu

>  <m_score__min__energy>  (19) 
-7.6299999999999999

>  <m_primary>  (19) 
energy

>  <rmsd>  (19) 
1.7889087338010197

>  <m_score__min__rmsd>  (19) 
1.7889087338010197

>  <meeko>  (19) 
{"free_energy": -7.36, "intermolecular_energy": -8.85, "internal_energy": -1.82, "cluster_size": 26, "cluster_id": 1, "rank_in_cluster": 5}

>  <energy>  (19) 
-7.28

>  <cluster_rmsd>  (19) 
1.43

>  <cluster>  (19) 
1

$$$$

     RDKit          3D

 48 50  0  0  0  0  0  0  0  0999 V2000
  139.5260   80.0100  223.7710 C   0  0  0  0  0  0  0  0  0  0  0  0
  140.5790   79.2550  223.1000 N   0  0  0  0  0  0  0  0  0  0  0  0
  141.7780   78.9960  223.8680 C   0  0  0  0  0  0  0  0  0  0  0  0
  140.3810   78.8280  221.7760 C   0  0  0  0  0  0  0  0  0  0  0  0
  139.2950   79.1180  221.2180 O   0  0  0  0  0  0  0  0  0  0  0  0
  141.4630   78.0570  221.0960 C   0  0  2  0  0  0  0  0  0  0  0  0
  141.8190   78.7570  219.8020 C   0  0  0  0  0  0  0  0  0  0  0  0
  141.2760   77.9070  218.6750 C   0  0  0  0  0  0  0  0  0  0  0  0
  141.2710   76.5360  219.2720 C   0  0  0  0  0  0  0  0  0  0  0  0
  140.9960   76.7500  220.6790 N   0  0  0  0  0  0  0  0  0  0  0  0
  140.3570   75.8180  221.5420 C   0  0  0  0  0  0  0  0  0  0  0  0
  139.9240   76.1140  222.6860 O   0  0  0  0  0  0  0  0  0  0  0  0
  140.1650   74.3980  221.1160 C   0  0  0  0  0  0  0  0  0  0  0  0
  139.9780   73.6230  222.3350 N   0  0  0  0  0  0  0  0  0  0  0  0
  140.4030   72.2840  222.3370 C   0  0  0  0  0  0  0  0  0  0  0  0
  140.9280   71.8270  221.2680 O   0  0  0  0  0  0  0  0  0  0  0  0
  140.2530   71.4390  223.5170 C   0  0  0  0  0  0  0  0  0  0  0  0
  139.6330   70.1990  223.3820 C   0  0  0  0  0  0  0  0  0  0  0  0
  139.4790   69.3750  224.5000 C   0  0  0  0  0  0  0  0  0  0  0  0
  139.9510   69.8160  225.7160 C   0  0  0  0  0  0  0  0  0  0  0  0
  139.7840   68.9730  226.8140 C   0  0  0  0  0  0  0  0  0  0  0  0
  140.2560   69.4110  228.0340 C   0  0  0  0  0  0  0  0  0  0  0  0
  140.0890   68.5820  229.1030 F   0  0  0  0  0  0  0  0  0  0  0  0
  140.8640   70.6360  228.1420 C   0  0  0  0  0  0  0  0  0  0  0  0
  141.0350   71.4890  227.0500 C   0  0  0  0  0  0  0  0  0  0  0  0
  140.5630   71.0510  225.8260 C   0  0  0  0  0  0  0  0  0  0  0  0
  140.7050   71.8360  224.7380 N   0  0  0  0  0  0  0  0  0  0  0  0
  139.6490   79.9218  224.8605 H   0  0  0  0  0  0  0  0  0  0  0  0
  139.5910   81.0686  223.4791 H   0  0  0  0  0  0  0  0  0  0  0  0
  138.5442   79.6088  223.4791 H   0  0  0  0  0  0  0  0  0  0  0  0
  141.5438   79.0466  224.9416 H   0  0  0  0  0  0  0  0  0  0  0  0
  142.1611   77.9944  223.6231 H   0  0  0  0  0  0  0  0  0  0  0  0
  142.5404   79.7502  223.6231 H   0  0  0  0  0  0  0  0  0  0  0  0
  142.3006   77.9774  221.8046 H   0  0  0  0  0  0  0  0  0  0  0  0
  141.3613   79.7569  219.7752 H   0  0  0  0  0  0  0  0  0  0  0  0
  142.9081   78.8815  219.7100 H   0  0  0  0  0  0  0  0  0  0  0  0
  140.2599   78.2215  218.3947 H   0  0  0  0  0  0  0  0  0  0  0  0
  141.8668   77.9786  217.7499 H   0  0  0  0  0  0  0  0  0  0  0  0
  140.4870   75.9157  218.8132 H   0  0  0  0  0  0  0  0  0  0  0  0
  142.2215   76.0069  219.1088 H   0  0  0  0  0  0  0  0  0  0  0  0
  139.2784   74.3113  220.4706 H   0  0  0  0  0  0  0  0  0  0  0  0
  141.0298   74.0343  220.5417 H   0  0  0  0  0  0  0  0  0  0  0  0
  139.5490   74.0050  223.2010 H   0  0  0  0  0  0  0  0  0  0  0  0
  139.2659   69.8696  222.3988 H   0  0  0  0  0  0  0  0  0  0  0  0
  138.9904   68.3935  224.4104 H   0  0  0  0  0  0  0  0  0  0  0  0
  139.2935   67.9938  226.7111 H   0  0  0  0  0  0  0  0  0  0  0  0
  141.2311   70.9588  229.1274 H   0  0  0  0  0  0  0  0  0  0  0  0
  141.5245   72.4681  227.1586 H   0  0  0  0  0  0  0  0  0  0  0  0
  1  2  1  0
  2  3  1  0
  2  4  1  0
  4  5  2  0
  4  6  1  0
  6  7  1  0
  7  8  1  0
  8  9  1  0
  9 10  1  0
 10 11  1  0
 11 12  2  0
 11 13  1  0
 13 14  1  0
 14 15  1  0
 15 16  2  0
 15 17  1  0
 17 18  2  0
 18 19  1  0
 19 20  2  0
 20 21  1  0
 21 22  2  0
 22 23  1  0
 22 24  1  0
 24 25  2  0
 25 26  1  0
 26 27  2  0
 10  6  1  0
 27 17  1  0
 26 20  1  0
  1 28  1  0
  1 29  1  0
  1 30  1  0
  3 31  1  0
  3 32  1  0
  3 33  1  0
  6 34  1  1
  7 35  1  0
  7 36  1  0
  8 37  1  0
  8 38  1  0
  9 39  1  0
  9 40  1  0
 13 41  1  0
 13 42  1  0
 14 43  1  0
 18 44  1  0
 19 45  1  0
 21 46  1  0
 24 47  1  0
 25 48  1  0
M  END
>  <smiles>  (20) 
CN(C)C(=O)[C@@H]1CCCN1C(=O)CNC(=O)c1ccc2cc(F)ccc2n1

>  <score_type>  (20) 
oracle

>  <origin>  (20) 
autodockgpu

>  <m_score__min__energy>  (20) 
-7.6299999999999999

>  <m_primary>  (20) 
energy

>  <rmsd>  (20) 
1.853484570765501

>  <m_score__min__rmsd>  (20) 
1.853484570765501

>  <meeko>  (20) 
{"free_energy": -7.29, "intermolecular_energy": -8.78, "internal_energy": -1.9, "cluster_size": 26, "cluster_id": 1, "rank_in_cluster": 16}

>  <energy>  (20) 
-7.25

>  <cluster_rmsd>  (20) 
1.42

>  <cluster>  (20) 
1

$$$$

     RDKit          3D

 48 50  0  0  0  0  0  0  0  0999 V2000
  144.9480   73.5410  220.5500 C   0  0  0  0  0  0  0  0  0  0  0  0
  143.7280   73.9910  219.8900 N   0  0  0  0  0  0  0  0  0  0  0  0
  142.8010   72.9620  219.4710 C   0  0  0  0  0  0  0  0  0  0  0  0
  143.5190   75.3680  219.6980 C   0  0  0  0  0  0  0  0  0  0  0  0
  144.4000   76.1620  220.1060 O   0  0  0  0  0  0  0  0  0  0  0  0
  142.2680   75.8210  219.0200 C   0  0  2  0  0  0  0  0  0  0  0  0
  142.5530   77.1160  218.2890 C   0  0  0  0  0  0  0  0  0  0  0  0
  141.8670   78.2200  219.0630 C   0  0  0  0  0  0  0  0  0  0  0  0
  140.7330   77.5030  219.7230 C   0  0  0  0  0  0  0  0  0  0  0  0
  141.2450   76.1720  219.9840 N   0  0  0  0  0  0  0  0  0  0  0  0
  140.8130   75.3180  221.0360 C   0  0  0  0  0  0  0  0  0  0  0  0
  141.1490   75.4740  222.2390 O   0  0  0  0  0  0  0  0  0  0  0  0
  139.9110   74.1590  220.7530 C   0  0  0  0  0  0  0  0  0  0  0  0
  139.7130   73.4710  222.0200 N   0  0  0  0  0  0  0  0  0  0  0  0
  140.2140   72.1650  222.1480 C   0  0  0  0  0  0  0  0  0  0  0  0
  140.8160   71.6610  221.1420 O   0  0  0  0  0  0  0  0  0  0  0  0
  140.0570   71.4060  223.3840 C   0  0  0  0  0  0  0  0  0  0  0  0
  139.3460   70.2090  223.3530 C   0  0  0  0  0  0  0  0  0  0  0  0
  139.1850   69.4670  224.5260 C   0  0  0  0  0  0  0  0  0  0  0  0
  139.7400   69.9450  225.6920 C   0  0  0  0  0  0  0  0  0  0  0  0
  139.5640   69.1840  226.8460 C   0  0  0  0  0  0  0  0  0  0  0  0
  140.1180   69.6600  228.0160 C   0  0  0  0  0  0  0  0  0  0  0  0
  139.9410   68.9110  229.1420 F   0  0  0  0  0  0  0  0  0  0  0  0
  140.8150   70.8420  228.0230 C   0  0  0  0  0  0  0  0  0  0  0  0
  140.9970   71.6120  226.8730 C   0  0  0  0  0  0  0  0  0  0  0  0
  140.4420   71.1360  225.6980 C   0  0  0  0  0  0  0  0  0  0  0  0
  140.5900   71.8420  224.5580 N   0  0  0  0  0  0  0  0  0  0  0  0
  144.8144   73.5903  221.6407 H   0  0  0  0  0  0  0  0  0  0  0  0
  145.1641   72.5040  220.2536 H   0  0  0  0  0  0  0  0  0  0  0  0
  145.7858   74.1893  220.2536 H   0  0  0  0  0  0  0  0  0  0  0  0
  142.3651   72.4781  220.3575 H   0  0  0  0  0  0  0  0  0  0  0  0
  141.9993   73.4140  218.8685 H   0  0  0  0  0  0  0  0  0  0  0  0
  143.3339   72.2117  218.8685 H   0  0  0  0  0  0  0  0  0  0  0  0
  141.9382   75.0022  218.3636 H   0  0  0  0  0  0  0  0  0  0  0  0
  143.6372   77.2981  218.2515 H   0  0  0  0  0  0  0  0  0  0  0  0
  142.1824   77.0728  217.2542 H   0  0  0  0  0  0  0  0  0  0  0  0
  142.5445   78.6619  219.8085 H   0  0  0  0  0  0  0  0  0  0  0  0
  141.5435   79.0602  218.4310 H   0  0  0  0  0  0  0  0  0  0  0  0
  140.4519   78.0021  220.6621 H   0  0  0  0  0  0  0  0  0  0  0  0
  139.8285   77.4870  219.0971 H   0  0  0  0  0  0  0  0  0  0  0  0
  138.9475   74.5146  220.3590 H   0  0  0  0  0  0  0  0  0  0  0  0
  140.3498   73.4878  220.0000 H   0  0  0  0  0  0  0  0  0  0  0  0
  139.2210   73.8910  222.8330 H   0  0  0  0  0  0  0  0  0  0  0  0
  138.9126   69.8489  222.4083 H   0  0  0  0  0  0  0  0  0  0  0  0
  138.6259   68.5197  224.5181 H   0  0  0  0  0  0  0  0  0  0  0  0
  139.0034   68.2378  226.8246 H   0  0  0  0  0  0  0  0  0  0  0  0
  141.2467   71.1962  228.9707 H   0  0  0  0  0  0  0  0  0  0  0  0
  141.5582   72.5577  226.8996 H   0  0  0  0  0  0  0  0  0  0  0  0
  1  2  1  0
  2  3  1  0
  2  4  1  0
  4  5  2  0
  4  6  1  0
  6  7  1  0
  7  8  1  0
  8  9  1  0
  9 10  1  0
 10 11  1  0
 11 12  2  0
 11 13  1  0
 13 14  1  0
 14 15  1  0
 15 16  2  0
 15 17  1  0
 17 18  2  0
 18 19  1  0
 19 20  2  0
 20 21  1  0
 21 22  2  0
 22 23  1  0
 22 24  1  0
 24 25  2  0
 25 26  1  0
 26 27  2  0
 10  6  1  0
 27 17  1  0
 26 20  1  0
  1 28  1  0
  1 29  1  0
  1 30  1  0
  3 31  1  0
  3 32  1  0
  3 33  1  0
  6 34  1  6
  7 35  1  0
  7 36  1  0
  8 37  1  0
  8 38  1  0
  9 39  1  0
  9 40  1  0
 13 41  1  0
 13 42  1  0
 14 43  1  0
 18 44  1  0
 19 45  1  0
 21 46  1  0
 24 47  1  0
 25 48  1  0
M  END
>  <smiles>  (21) 
CN(C)C(=O)[C@@H]1CCCN1C(=O)CNC(=O)c1ccc2cc(F)ccc2n1

>  <score_type>  (21) 
oracle

>  <origin>  (21) 
autodockgpu

>  <m_score__min__energy>  (21) 
-7.6299999999999999

>  <m_primary>  (21) 
energy

>  <rmsd>  (21) 
2.7848179593123494

>  <m_score__min__rmsd>  (21) 
2.7848179593123494

>  <meeko>  (21) 
{"free_energy": -7.11, "intermolecular_energy": -8.6, "internal_energy": -1.74, "cluster_size": 17, "cluster_id": 2, "rank_in_cluster": 5}

>  <energy>  (21) 
-7.21

>  <cluster_rmsd>  (21) 
1.47

>  <cluster>  (21) 
1

$$$$

     RDKit          3D

 48 50  0  0  0  0  0  0  0  0999 V2000
  139.5770   80.3880  223.8260 C   0  0  0  0  0  0  0  0  0  0  0  0
  140.6320   79.6520  223.1390 N   0  0  0  0  0  0  0  0  0  0  0  0
  141.9860   79.8840  223.5950 C   0  0  0  0  0  0  0  0  0  0  0  0
  140.2900   78.7750  222.0950 C   0  0  0  0  0  0  0  0  0  0  0  0
  139.0780   78.6610  221.7920 O   0  0  0  0  0  0  0  0  0  0  0  0
  141.3760   78.0250  221.3950 C   0  0  2  0  0  0  0  0  0  0  0  0
  141.8080   78.8170  220.1800 C   0  0  0  0  0  0  0  0  0  0  0  0
  141.2860   78.0800  218.9650 C   0  0  0  0  0  0  0  0  0  0  0  0
  141.2140   76.6660  219.4450 C   0  0  0  0  0  0  0  0  0  0  0  0
  140.8870   76.7740  220.8540 N   0  0  0  0  0  0  0  0  0  0  0  0
  140.1840   75.7970  221.6100 C   0  0  0  0  0  0  0  0  0  0  0  0
  139.5680   76.0550  222.6770 O   0  0  0  0  0  0  0  0  0  0  0  0
  140.1440   74.3710  221.1600 C   0  0  0  0  0  0  0  0  0  0  0  0
  139.8800   73.5700  222.3460 N   0  0  0  0  0  0  0  0  0  0  0  0
  140.5670   72.3530  222.4870 C   0  0  0  0  0  0  0  0  0  0  0  0
  141.3830   72.0230  221.5630 O   0  0  0  0  0  0  0  0  0  0  0  0
  140.3600   71.4910  223.6460 C   0  0  0  0  0  0  0  0  0  0  0  0
  139.6950   70.2790  223.4730 C   0  0  0  0  0  0  0  0  0  0  0  0
  139.4870   69.4390  224.5700 C   0  0  0  0  0  0  0  0  0  0  0  0
  139.9510   69.8370  225.8040 C   0  0  0  0  0  0  0  0  0  0  0  0
  139.7290   68.9790  226.8800 C   0  0  0  0  0  0  0  0  0  0  0  0
  140.1920   69.3740  228.1180 C   0  0  0  0  0  0  0  0  0  0  0  0
  139.9710   68.5300  229.1670 F   0  0  0  0  0  0  0  0  0  0  0  0
  140.8440   70.5720  228.2650 C   0  0  0  0  0  0  0  0  0  0  0  0
  141.0710   71.4390  227.1940 C   0  0  0  0  0  0  0  0  0  0  0  0
  140.6080   71.0440  225.9510 C   0  0  0  0  0  0  0  0  0  0  0  0
  140.8020   71.8450  224.8840 N   0  0  0  0  0  0  0  0  0  0  0  0
  139.7124   80.2935  224.9135 H   0  0  0  0  0  0  0  0  0  0  0  0
  139.6253   81.4494  223.5413 H   0  0  0  0  0  0  0  0  0  0  0  0
  138.5975   79.9762  223.5413 H   0  0  0  0  0  0  0  0  0  0  0  0
  142.0070   79.8876  224.6948 H   0  0  0  0  0  0  0  0  0  0  0  0
  142.6417   79.0851  223.2184 H   0  0  0  0  0  0  0  0  0  0  0  0
  142.3383   80.8556  223.2184 H   0  0  0  0  0  0  0  0  0  0  0  0
  142.1807   77.8583  222.1262 H   0  0  0  0  0  0  0  0  0  0  0  0
  141.3829   79.8308  220.2188 H   0  0  0  0  0  0  0  0  0  0  0  0
  142.9032   78.9124  220.1417 H   0  0  0  0  0  0  0  0  0  0  0  0
  140.2925   78.4508  218.6725 H   0  0  0  0  0  0  0  0  0  0  0  0
  141.9168   78.2068  218.0728 H   0  0  0  0  0  0  0  0  0  0  0  0
  140.4311   76.1123  218.9060 H   0  0  0  0  0  0  0  0  0  0  0  0
  142.1536   76.1197  219.2756 H   0  0  0  0  0  0  0  0  0  0  0  0
  139.3432   74.2287  220.4195 H   0  0  0  0  0  0  0  0  0  0  0  0
  141.0916   74.0774  220.6849 H   0  0  0  0  0  0  0  0  0  0  0  0
  139.2130   73.8490  223.0930 H   0  0  0  0  0  0  0  0  0  0  0  0
  139.3350   69.9844  222.4762 H   0  0  0  0  0  0  0  0  0  0  0  0
  138.9632   68.4792  224.4504 H   0  0  0  0  0  0  0  0  0  0  0  0
  139.2037   68.0218  226.7468 H   0  0  0  0  0  0  0  0  0  0  0  0
  141.2016   70.8607  229.2644 H   0  0  0  0  0  0  0  0  0  0  0  0
  141.5958   72.3958  227.3325 H   0  0  0  0  0  0  0  0  0  0  0  0
  1  2  1  0
  2  3  1  0
  2  4  1  0
  4  5  2  0
  4  6  1  0
  6  7  1  0
  7  8  1  0
  8  9  1  0
  9 10  1  0
 10 11  1  0
 11 12  2  0
 11 13  1  0
 13 14  1  0
 14 15  1  0
 15 16  2  0
 15 17  1  0
 17 18  2  0
 18 19  1  0
 19 20  2  0
 20 21  1  0
 21 22  2  0
 22 23  1  0
 22 24  1  0
 24 25  2  0
 25 26  1  0
 26 27  2  0
 10  6  1  0
 27 17  1  0
 26 20  1  0
  1 28  1  0
  1 29  1  0
  1 30  1  0
  3 31  1  0
  3 32  1  0
  3 33  1  0
  6 34  1  1
  7 35  1  0
  7 36  1  0
  8 37  1  0
  8 38  1  0
  9 39  1  0
  9 40  1  0
 13 41  1  0
 13 42  1  0
 14 43  1  0
 18 44  1  0
 19 45  1  0
 21 46  1  0
 24 47  1  0
 25 48  1  0
M  END
>  <smiles>  (22) 
CN(C)C(=O)[C@@H]1CCCN1C(=O)CNC(=O)c1ccc2cc(F)ccc2n1

>  <score_type>  (22) 
oracle

>  <origin>  (22) 
autodockgpu

>  <m_score__min__energy>  (22) 
-7.6299999999999999

>  <m_primary>  (22) 
energy

>  <rmsd>  (22) 
1.9746734745688146

>  <m_score__min__rmsd>  (22) 
1.9746734745688146

>  <meeko>  (22) 
{"free_energy": -7.45, "intermolecular_energy": -8.94, "internal_energy": -1.71, "cluster_size": 26, "cluster_id": 1, "rank_in_cluster": 2}

>  <energy>  (22) 
-7.21

>  <cluster_rmsd>  (22) 
1.38

>  <cluster>  (22) 
1

$$$$

     RDKit          3D

 48 50  0  0  0  0  0  0  0  0999 V2000
  139.8200   80.2940  223.4820 C   0  0  0  0  0  0  0  0  0  0  0  0
  140.8220   79.4790  222.8040 N   0  0  0  0  0  0  0  0  0  0  0  0
  142.1530   79.4840  223.3730 C   0  0  0  0  0  0  0  0  0  0  0  0
  140.4550   78.7470  221.6620 C   0  0  0  0  0  0  0  0  0  0  0  0
  139.2670   78.8270  221.2660 O   0  0  0  0  0  0  0  0  0  0  0  0
  141.4870   77.9160  220.9730 C   0  0  2  0  0  0  0  0  0  0  0  0
  141.8350   78.5690  219.6530 C   0  0  0  0  0  0  0  0  0  0  0  0
  141.2270   77.7130  218.5630 C   0  0  0  0  0  0  0  0  0  0  0  0
  141.1840   76.3590  219.1950 C   0  0  0  0  0  0  0  0  0  0  0  0
  140.9570   76.6200  220.6030 N   0  0  0  0  0  0  0  0  0  0  0  0
  140.3060   75.7360  221.5070 C   0  0  0  0  0  0  0  0  0  0  0  0
  139.9640   76.0620  222.6730 O   0  0  0  0  0  0  0  0  0  0  0  0
  139.9880   74.3320  221.1000 C   0  0  0  0  0  0  0  0  0  0  0  0
  139.8630   73.5640  222.3300 N   0  0  0  0  0  0  0  0  0  0  0  0
  140.2220   72.2060  222.2990 C   0  0  0  0  0  0  0  0  0  0  0  0
  140.6370   71.7280  221.1910 O   0  0  0  0  0  0  0  0  0  0  0  0
  140.1270   71.3650  223.4880 C   0  0  0  0  0  0  0  0  0  0  0  0
  139.5360   70.1090  223.3790 C   0  0  0  0  0  0  0  0  0  0  0  0
  139.4350   69.2890  224.5060 C   0  0  0  0  0  0  0  0  0  0  0  0
  139.9290   69.7510  225.7050 C   0  0  0  0  0  0  0  0  0  0  0  0
  139.8150   68.9110  226.8120 C   0  0  0  0  0  0  0  0  0  0  0  0
  140.3090   69.3700  228.0160 C   0  0  0  0  0  0  0  0  0  0  0  0
  140.1940   68.5440  229.0940 F   0  0  0  0  0  0  0  0  0  0  0  0
  140.8880   70.6110  228.0990 C   0  0  0  0  0  0  0  0  0  0  0  0
  141.0060   71.4600  226.9980 C   0  0  0  0  0  0  0  0  0  0  0  0
  140.5120   71.0010  225.7890 C   0  0  0  0  0  0  0  0  0  0  0  0
  140.6030   71.7820  224.6940 N   0  0  0  0  0  0  0  0  0  0  0  0
  139.9421   80.1947  224.5707 H   0  0  0  0  0  0  0  0  0  0  0  0
  139.9479   81.3477  223.1933 H   0  0  0  0  0  0  0  0  0  0  0  0
  138.8144   79.9542  223.1933 H   0  0  0  0  0  0  0  0  0  0  0  0
  142.0825   79.4837  224.4707 H   0  0  0  0  0  0  0  0  0  0  0  0
  142.6974   78.5879  223.0403 H   0  0  0  0  0  0  0  0  0  0  0  0
  142.6906   80.3842  223.0403 H   0  0  0  0  0  0  0  0  0  0  0  0
  142.3402   77.8200  221.6606 H   0  0  0  0  0  0  0  0  0  0  0  0
  141.4170   79.5857  219.6125 H   0  0  0  0  0  0  0  0  0  0  0  0
  142.9251   78.6475  219.5288 H   0  0  0  0  0  0  0  0  0  0  0  0
  140.2168   78.0613  218.3021 H   0  0  0  0  0  0  0  0  0  0  0  0
  141.7943   77.7375  217.6209 H   0  0  0  0  0  0  0  0  0  0  0  0
  140.3634   75.7597  218.7739 H   0  0  0  0  0  0  0  0  0  0  0  0
  142.1074   75.7874  219.0202 H   0  0  0  0  0  0  0  0  0  0  0  0
  139.0435   74.3042  220.5369 H   0  0  0  0  0  0  0  0  0  0  0  0
  140.7735   73.9183  220.4505 H   0  0  0  0  0  0  0  0  0  0  0  0
  139.5250   73.9630  223.2270 H   0  0  0  0  0  0  0  0  0  0  0  0
  139.1498   69.7633  222.4088 H   0  0  0  0  0  0  0  0  0  0  0  0
  138.9702   68.2945  224.4365 H   0  0  0  0  0  0  0  0  0  0  0  0
  139.3482   67.9184  226.7286 H   0  0  0  0  0  0  0  0  0  0  0  0
  141.2743   70.9500  229.0716 H   0  0  0  0  0  0  0  0  0  0  0  0
  141.4720   72.4524  227.0870 H   0  0  0  0  0  0  0  0  0  0  0  0
  1  2  1  0
  2  3  1  0
  2  4  1  0
  4  5  2  0
  4  6  1  0
  6  7  1  0
  7  8  1  0
  8  9  1  0
  9 10  1  0
 10 11  1  0
 11 12  2  0
 11 13  1  0
 13 14  1  0
 14 15  1  0
 15 16  2  0
 15 17  1  0
 17 18  2  0
 18 19  1  0
 19 20  2  0
 20 21  1  0
 21 22  2  0
 22 23  1  0
 22 24  1  0
 24 25  2  0
 25 26  1  0
 26 27  2  0
 10  6  1  0
 27 17  1  0
 26 20  1  0
  1 28  1  0
  1 29  1  0
  1 30  1  0
  3 31  1  0
  3 32  1  0
  3 33  1  0
  6 34  1  1
  7 35  1  0
  7 36  1  0
  8 37  1  0
  8 38  1  0
  9 39  1  0
  9 40  1  0
 13 41  1  0
 13 42  1  0
 14 43  1  0
 18 44  1  0
 19 45  1  0
 21 46  1  0
 24 47  1  0
 25 48  1  0
M  END
>  <smiles>  (23) 
CN(C)C(=O)[C@@H]1CCCN1C(=O)CNC(=O)c1ccc2cc(F)ccc2n1

>  <score_type>  (23) 
oracle

>  <origin>  (23) 
autodockgpu

>  <m_score__min__energy>  (23) 
-7.6299999999999999

>  <m_primary>  (23) 
energy

>  <rmsd>  (23) 
1.7004280819054396

>  <m_score__min__rmsd>  (23) 
1.7004280819054396

>  <meeko>  (23) 
{"free_energy": -7.25, "intermolecular_energy": -8.74, "internal_energy": -1.89, "cluster_size": 26, "cluster_id": 1, "rank_in_cluster": 20}

>  <energy>  (23) 
-7.15

>  <cluster_rmsd>  (23) 
1.52

>  <cluster>  (23) 
1

$$$$

     RDKit          3D

 48 50  0  0  0  0  0  0  0  0999 V2000
  139.3160   80.0800  223.5340 C   0  0  0  0  0  0  0  0  0  0  0  0
  140.3050   79.0830  223.1410 N   0  0  0  0  0  0  0  0  0  0  0  0
  141.5780   79.1280  223.8290 C   0  0  0  0  0  0  0  0  0  0  0  0
  139.9810   78.1510  222.1400 C   0  0  0  0  0  0  0  0  0  0  0  0
  138.8420   78.2160  221.6180 O   0  0  0  0  0  0  0  0  0  0  0  0
  141.0000   77.1340  221.7420 C   0  0  2  0  0  0  0  0  0  0  0  0
  141.8760   77.7210  220.6570 C   0  0  0  0  0  0  0  0  0  0  0  0
  141.5010   77.0310  219.3640 C   0  0  0  0  0  0  0  0  0  0  0  0
  140.9950   75.7050  219.8350 C   0  0  0  0  0  0  0  0  0  0  0  0
  140.3790   75.9840  221.1180 N   0  0  0  0  0  0  0  0  0  0  0  0
  139.3120   75.2410  221.6940 C   0  0  0  0  0  0  0  0  0  0  0  0
  138.6950   75.6010  222.7300 O   0  0  0  0  0  0  0  0  0  0  0  0
  138.8610   73.9550  221.0770 C   0  0  0  0  0  0  0  0  0  0  0  0
  138.7860   72.9820  222.1570 N   0  0  0  0  0  0  0  0  0  0  0  0
  139.9870   72.5730  222.7610 C   0  0  0  0  0  0  0  0  0  0  0  0
  141.0730   73.0820  222.3240 O   0  0  0  0  0  0  0  0  0  0  0  0
  140.0000   71.6020  223.8500 C   0  0  0  0  0  0  0  0  0  0  0  0
  139.4690   70.3340  223.6270 C   0  0  0  0  0  0  0  0  0  0  0  0
  139.4720   69.3890  224.6570 C   0  0  0  0  0  0  0  0  0  0  0  0
  140.0070   69.7430  225.8750 C   0  0  0  0  0  0  0  0  0  0  0  0
  139.9970   68.7800  226.8840 C   0  0  0  0  0  0  0  0  0  0  0  0
  140.5320   69.1300  228.1060 C   0  0  0  0  0  0  0  0  0  0  0  0
  140.5190   68.1840  229.0880 F   0  0  0  0  0  0  0  0  0  0  0  0
  141.0500   70.3850  228.3020 C   0  0  0  0  0  0  0  0  0  0  0  0
  141.0650   71.3560  227.3000 C   0  0  0  0  0  0  0  0  0  0  0  0
  140.5290   71.0070  226.0730 C   0  0  0  0  0  0  0  0  0  0  0  0
  140.5200   71.9090  225.0700 N   0  0  0  0  0  0  0  0  0  0  0  0
  139.2642   80.1323  224.6315 H   0  0  0  0  0  0  0  0  0  0  0  0
  139.6065   81.0624  223.1334 H   0  0  0  0  0  0  0  0  0  0  0  0
  138.3313   79.7974  223.1334 H   0  0  0  0  0  0  0  0  0  0  0  0
  141.4079   79.1220  224.9157 H   0  0  0  0  0  0  0  0  0  0  0  0
  142.1784   78.2505  223.5470 H   0  0  0  0  0  0  0  0  0  0  0  0
  142.1150   80.0457  223.5470 H   0  0  0  0  0  0  0  0  0  0  0  0
  141.5492   76.8503  222.6519 H   0  0  0  0  0  0  0  0  0  0  0  0
  141.6988   78.8034  220.5728 H   0  0  0  0  0  0  0  0  0  0  0  0
  142.9409   77.5702  220.8878 H   0  0  0  0  0  0  0  0  0  0  0  0
  140.7171   77.5879  218.8298 H   0  0  0  0  0  0  0  0  0  0  0  0
  142.3363   76.9523  218.6526 H   0  0  0  0  0  0  0  0  0  0  0  0
  140.2556   75.2984  219.1293 H   0  0  0  0  0  0  0  0  0  0  0  0
  141.7964   74.9554  219.9109 H   0  0  0  0  0  0  0  0  0  0  0  0
  137.8726   74.0830  220.6116 H   0  0  0  0  0  0  0  0  0  0  0  0
  139.5573   73.6249  220.2920 H   0  0  0  0  0  0  0  0  0  0  0  0
  137.8960   72.5740  222.5050 H   0  0  0  0  0  0  0  0  0  0  0  0
  139.0486   70.0770  222.6435 H   0  0  0  0  0  0  0  0  0  0  0  0
  139.0555   68.3834  224.4976 H   0  0  0  0  0  0  0  0  0  0  0  0
  139.5776   67.7778  226.7113 H   0  0  0  0  0  0  0  0  0  0  0  0
  141.4699   70.6356  229.2873 H   0  0  0  0  0  0  0  0  0  0  0  0
  141.4853   72.3568  227.4781 H   0  0  0  0  0  0  0  0  0  0  0  0
  1  2  1  0
  2  3  1  0
  2  4  1  0
  4  5  2  0
  4  6  1  0
  6  7  1  0
  7  8  1  0
  8  9  1  0
  9 10  1  0
 10 11  1  0
 11 12  2  0
 11 13  1  0
 13 14  1  0
 14 15  1  0
 15 16  2  0
 15 17  1  0
 17 18  2  0
 18 19  1  0
 19 20  2  0
 20 21  1  0
 21 22  2  0
 22 23  1  0
 22 24  1  0
 24 25  2  0
 25 26  1  0
 26 27  2  0
 10  6  1  0
 27 17  1  0
 26 20  1  0
  1 28  1  0
  1 29  1  0
  1 30  1  0
  3 31  1  0
  3 32  1  0
  3 33  1  0
  6 34  1  1
  7 35  1  0
  7 36  1  0
  8 37  1  0
  8 38  1  0
  9 39  1  0
  9 40  1  0
 13 41  1  0
 13 42  1  0
 14 43  1  0
 18 44  1  0
 19 45  1  0
 21 46  1  0
 24 47  1  0
 25 48  1  0
M  END
>  <smiles>  (24) 
CN(C)C(=O)[C@@H]1CCCN1C(=O)CNC(=O)c1ccc2cc(F)ccc2n1

>  <score_type>  (24) 
oracle

>  <origin>  (24) 
autodockgpu

>  <m_score__min__energy>  (24) 
-7.6299999999999999

>  <m_primary>  (24) 
energy

>  <rmsd>  (24) 
1.7866332868677435

>  <m_score__min__rmsd>  (24) 
1.7866332868677435

>  <meeko>  (24) 
{"free_energy": -7.21, "intermolecular_energy": -8.7, "internal_energy": -1.34, "cluster_size": 26, "cluster_id": 1, "rank_in_cluster": 22}

>  <energy>  (24) 
-7.05

>  <cluster_rmsd>  (24) 
1.94

>  <cluster>  (24) 
1

$$$$

     RDKit          3D

 48 50  0  0  0  0  0  0  0  0999 V2000
  144.3800   73.1560  219.8070 C   0  0  0  0  0  0  0  0  0  0  0  0
  143.4740   74.1180  219.1890 N   0  0  0  0  0  0  0  0  0  0  0  0
  143.5980   74.2960  217.7580 C   0  0  0  0  0  0  0  0  0  0  0  0
  142.5470   74.8050  219.9920 C   0  0  0  0  0  0  0  0  0  0  0  0
  142.5390   74.5620  221.2230 O   0  0  0  0  0  0  0  0  0  0  0  0
  141.6240   75.7880  219.3520 C   0  0  2  0  0  0  0  0  0  0  0  0
  142.4390   76.9500  218.8270 C   0  0  0  0  0  0  0  0  0  0  0  0
  142.1620   78.1290  219.7330 C   0  0  0  0  0  0  0  0  0  0  0  0
  140.7900   77.8320  220.2470 C   0  0  0  0  0  0  0  0  0  0  0  0
  140.7340   76.3850  220.3250 N   0  0  0  0  0  0  0  0  0  0  0  0
  139.9240   75.6430  221.2280 C   0  0  0  0  0  0  0  0  0  0  0  0
  139.4830   76.1100  222.3110 O   0  0  0  0  0  0  0  0  0  0  0  0
  139.5470   74.2280  220.9240 C   0  0  0  0  0  0  0  0  0  0  0  0
  139.6210   73.5010  222.1830 N   0  0  0  0  0  0  0  0  0  0  0  0
  139.8340   72.1140  222.1330 C   0  0  0  0  0  0  0  0  0  0  0  0
  139.9510   71.5740  220.9820 O   0  0  0  0  0  0  0  0  0  0  0  0
  139.9200   71.3110  223.3480 C   0  0  0  0  0  0  0  0  0  0  0  0
  139.4820   69.9900  223.3150 C   0  0  0  0  0  0  0  0  0  0  0  0
  139.5570   69.2050  224.4680 C   0  0  0  0  0  0  0  0  0  0  0  0
  140.0660   69.7660  225.6180 C   0  0  0  0  0  0  0  0  0  0  0  0
  140.1290   68.9590  226.7530 C   0  0  0  0  0  0  0  0  0  0  0  0
  140.6390   69.5170  227.9070 C   0  0  0  0  0  0  0  0  0  0  0  0
  140.6960   68.7230  229.0130 F   0  0  0  0  0  0  0  0  0  0  0  0
  141.0650   70.8220  227.9160 C   0  0  0  0  0  0  0  0  0  0  0  0
  141.0060   71.6380  226.7850 C   0  0  0  0  0  0  0  0  0  0  0  0
  140.4950   71.0800  225.6270 C   0  0  0  0  0  0  0  0  0  0  0  0
  140.4180   71.8260  224.5060 N   0  0  0  0  0  0  0  0  0  0  0  0
  144.3065   73.2340  220.9018 H   0  0  0  0  0  0  0  0  0  0  0  0
  144.1045   72.1385  219.4926 H   0  0  0  0  0  0  0  0  0  0  0  0
  145.4122   73.3701  219.4926 H   0  0  0  0  0  0  0  0  0  0  0  0
  144.2156   75.1824  217.5509 H   0  0  0  0  0  0  0  0  0  0  0  0
  144.0733   73.4070  217.3177 H   0  0  0  0  0  0  0  0  0  0  0  0
  142.5994   74.4338  217.3177 H   0  0  0  0  0  0  0  0  0  0  0  0
  141.0642   75.2492  218.5733 H   0  0  0  0  0  0  0  0  0  0  0  0
  143.5101   76.7005  218.8484 H   0  0  0  0  0  0  0  0  0  0  0  0
  142.1674   77.1819  217.7866 H   0  0  0  0  0  0  0  0  0  0  0  0
  142.8916   78.1780  220.5547 H   0  0  0  0  0  0  0  0  0  0  0  0
  142.2362   79.1000  219.2215 H   0  0  0  0  0  0  0  0  0  0  0  0
  140.6419   78.2805  221.2404 H   0  0  0  0  0  0  0  0  0  0  0  0
  140.0032   78.2456  219.5991 H   0  0  0  0  0  0  0  0  0  0  0  0
  138.5247   74.1855  220.5201 H   0  0  0  0  0  0  0  0  0  0  0  0
  140.2194   73.7900  220.1716 H   0  0  0  0  0  0  0  0  0  0  0  0
  139.5250   73.9510  223.1150 H   0  0  0  0  0  0  0  0  0  0  0  0
  139.0781   69.5657  222.3839 H   0  0  0  0  0  0  0  0  0  0  0  0
  139.2162   68.1592  224.4575 H   0  0  0  0  0  0  0  0  0  0  0  0
  139.7844   67.9146  226.7293 H   0  0  0  0  0  0  0  0  0  0  0  0
  141.4682   71.2405  228.8500 H   0  0  0  0  0  0  0  0  0  0  0  0
  141.3517   72.6819  226.8134 H   0  0  0  0  0  0  0  0  0  0  0  0
  1  2  1  0
  2  3  1  0
  2  4  1  0
  4  5  2  0
  4  6  1  0
  6  7  1  0
  7  8  1  0
  8  9  1  0
  9 10  1  0
 10 11  1  0
 11 12  2  0
 11 13  1  0
 13 14  1  0
 14 15  1  0
 15 16  2  0
 15 17  1  0
 17 18  2  0
 18 19  1  0
 19 20  2  0
 20 21  1  0
 21 22  2  0
 22 23  1  0
 22 24  1  0
 24 25  2  0
 25 26  1  0
 26 27  2  0
 10  6  1  0
 27 17  1  0
 26 20  1  0
  1 28  1  0
  1 29  1  0
  1 30  1  0
  3 31  1  0
  3 32  1  0
  3 33  1  0
  6 34  1  6
  7 35  1  0
  7 36  1  0
  8 37  1  0
  8 38  1  0
  9 39  1  0
  9 40  1  0
 13 41  1  0
 13 42  1  0
 14 43  1  0
 18 44  1  0
 19 45  1  0
 21 46  1  0
 24 47  1  0
 25 48  1  0
M  END
>  <smiles>  (25) 
CN(C)C(=O)[C@@H]1CCCN1C(=O)CNC(=O)c1ccc2cc(F)ccc2n1

>  <score_type>  (25) 
oracle

>  <origin>  (25) 
autodockgpu

>  <m_score__min__energy>  (25) 
-7.6299999999999999

>  <m_primary>  (25) 
energy

>  <rmsd>  (25) 
2.796986914489389

>  <m_score__min__rmsd>  (25) 
2.796986914489389

>  <meeko>  (25) 
{"free_energy": -6.53, "intermolecular_energy": -8.03, "internal_energy": -1.9, "cluster_size": 3, "cluster_id": 3, "rank_in_cluster": 2}

>  <energy>  (25) 
-6.69

>  <cluster_rmsd>  (25) 
1.38

>  <cluster>  (25) 
1

$$$$

     RDKit          3D

 48 50  0  0  0  0  0  0  0  0999 V2000
  144.7180   68.1830  219.5970 C   0  0  0  0  0  0  0  0  0  0  0  0
  145.1170   69.5360  219.2280 N   0  0  0  0  0  0  0  0  0  0  0  0
  146.2710   69.6580  218.3640 C   0  0  0  0  0  0  0  0  0  0  0  0
  144.3780   70.6280  219.7160 C   0  0  0  0  0  0  0  0  0  0  0  0
  143.3960   70.3910  220.4600 O   0  0  0  0  0  0  0  0  0  0  0  0
  144.7930   72.0110  219.3340 C   0  0  2  0  0  0  0  0  0  0  0  0
  145.9790   72.4140  220.1840 C   0  0  0  0  0  0  0  0  0  0  0  0
  145.4820   73.4420  221.1770 C   0  0  0  0  0  0  0  0  0  0  0  0
  144.3240   74.0580  220.4590 C   0  0  0  0  0  0  0  0  0  0  0  0
  143.7680   72.9780  219.6670 N   0  0  0  0  0  0  0  0  0  0  0  0
  142.4080   72.8710  219.2660 C   0  0  0  0  0  0  0  0  0  0  0  0
  142.0470   72.4180  218.1490 O   0  0  0  0  0  0  0  0  0  0  0  0
  141.3100   73.3070  220.1820 C   0  0  0  0  0  0  0  0  0  0  0  0
  141.2080   72.2900  221.2190 N   0  0  0  0  0  0  0  0  0  0  0  0
  140.4460   72.5850  222.3610 C   0  0  0  0  0  0  0  0  0  0  0  0
  139.8870   73.7310  222.4200 O   0  0  0  0  0  0  0  0  0  0  0  0
  140.2930   71.6210  223.4460 C   0  0  0  0  0  0  0  0  0  0  0  0
  139.6900   70.3950  223.1770 C   0  0  0  0  0  0  0  0  0  0  0  0
  139.5350   69.4590  224.2020 C   0  0  0  0  0  0  0  0  0  0  0  0
  139.9880   69.7780  225.4630 C   0  0  0  0  0  0  0  0  0  0  0  0
  139.8200   68.8240  226.4650 C   0  0  0  0  0  0  0  0  0  0  0  0
  140.2720   69.1390  227.7300 C   0  0  0  0  0  0  0  0  0  0  0  0
  140.1030   68.2030  228.7060 F   0  0  0  0  0  0  0  0  0  0  0  0
  140.8630   70.3540  227.9710 C   0  0  0  0  0  0  0  0  0  0  0  0
  141.0360   71.3160  226.9750 C   0  0  0  0  0  0  0  0  0  0  0  0
  140.5830   71.0010  225.7060 C   0  0  0  0  0  0  0  0  0  0  0  0
  140.7270   71.8960  224.7070 N   0  0  0  0  0  0  0  0  0  0  0  0
  144.6919   68.0945  220.6931 H   0  0  0  0  0  0  0  0  0  0  0  0
  143.7191   67.9709  219.1881 H   0  0  0  0  0  0  0  0  0  0  0  0
  145.4420   67.4628  219.1881 H   0  0  0  0  0  0  0  0  0  0  0  0
  147.1794   69.7540  218.9769 H   0  0  0  0  0  0  0  0  0  0  0  0
  146.3499   68.7632  217.7291 H   0  0  0  0  0  0  0  0  0  0  0  0
  146.1611   70.5495  217.7291 H   0  0  0  0  0  0  0  0  0  0  0  0
  145.0016   72.0026  218.2540 H   0  0  0  0  0  0  0  0  0  0  0  0
  146.3783   71.5375  220.7154 H   0  0  0  0  0  0  0  0  0  0  0  0
  146.7861   72.8275  219.5614 H   0  0  0  0  0  0  0  0  0  0  0  0
  145.1595   72.9649  222.1142 H   0  0  0  0  0  0  0  0  0  0  0  0
  146.2507   74.1711  221.4727 H   0  0  0  0  0  0  0  0  0  0  0  0
  143.5802   74.4371  221.1752 H   0  0  0  0  0  0  0  0  0  0  0  0
  144.6255   74.9163  219.8406 H   0  0  0  0  0  0  0  0  0  0  0  0
  141.5528   74.2823  220.6289 H   0  0  0  0  0  0  0  0  0  0  0  0
  140.3598   73.4181  219.6391 H   0  0  0  0  0  0  0  0  0  0  0  0
  141.6670   71.3600  221.1600 H   0  0  0  0  0  0  0  0  0  0  0  0
  139.3370   70.1645  222.1610 H   0  0  0  0  0  0  0  0  0  0  0  0
  139.0605   68.4862  224.0060 H   0  0  0  0  0  0  0  0  0  0  0  0
  139.3442   67.8547  226.2549 H   0  0  0  0  0  0  0  0  0  0  0  0
  141.2141   70.5783  228.9891 H   0  0  0  0  0  0  0  0  0  0  0  0
  141.5124   72.2840  227.1896 H   0  0  0  0  0  0  0  0  0  0  0  0
  1  2  1  0
  2  3  1  0
  2  4  1  0
  4  5  2  0
  4  6  1  0
  6  7  1  0
  7  8  1  0
  8  9  1  0
  9 10  1  0
 10 11  1  0
 11 12  2  0
 11 13  1  0
 13 14  1  0
 14 15  1  0
 15 16  2  0
 15 17  1  0
 17 18  2  0
 18 19  1  0
 19 20  2  0
 20 21  1  0
 21 22  2  0
 22 23  1  0
 22 24  1  0
 24 25  2  0
 25 26  1  0
 26 27  2  0
 10  6  1  0
 27 17  1  0
 26 20  1  0
  1 28  1  0
  1 29  1  0
  1 30  1  0
  3 31  1  0
  3 32  1  0
  3 33  1  0
  6 34  1  6
  7 35  1  0
  7 36  1  0
  8 37  1  0
  8 38  1  0
  9 39  1  0
  9 40  1  0
 13 41  1  0
 13 42  1  0
 14 43  1  0
 18 44  1  0
 19 45  1  0
 21 46  1  0
 24 47  1  0
 25 48  1  0
M  END
>  <smiles>  (26) 
CN(C)C(=O)[C@@H]1CCCN1C(=O)CNC(=O)c1ccc2cc(F)ccc2n1

>  <score_type>  (26) 
oracle

>  <origin>  (26) 
autodockgpu

>  <m_score__min__energy>  (26) 
-7.6299999999999999

>  <m_primary>  (26) 
energy

>  <rmsd>  (26) 
5.254732836370382

>  <m_score__min__rmsd>  (26) 
5.254732836370382

>  <meeko>  (26) 
{"free_energy": -6.88, "intermolecular_energy": -8.37, "internal_energy": -2.08, "cluster_size": 17, "cluster_id": 2, "rank_in_cluster": 12}

>  <energy>  (26) 
-6.55

>  <cluster_rmsd>  (26) 
1.59

>  <cluster>  (26) 
1

$$$$

     RDKit          3D

 48 50  0  0  0  0  0  0  0  0999 V2000
  139.4960   80.0100  223.7290 C   0  0  0  0  0  0  0  0  0  0  0  0
  140.5580   79.2730  223.0540 N   0  0  0  0  0  0  0  0  0  0  0  0
  141.7590   79.0190  223.8210 C   0  0  0  0  0  0  0  0  0  0  0  0
  140.3670   78.8550  221.7250 C   0  0  0  0  0  0  0  0  0  0  0  0
  139.2790   79.1380  221.1680 O   0  0  0  0  0  0  0  0  0  0  0  0
  141.4590   78.1010  221.0400 C   0  0  2  0  0  0  0  0  0  0  0  0
  141.7770   78.7890  219.7310 C   0  0  0  0  0  0  0  0  0  0  0  0
  141.2390   77.9060  218.6260 C   0  0  0  0  0  0  0  0  0  0  0  0
  141.2790   76.5460  219.2440 C   0  0  0  0  0  0  0  0  0  0  0  0
  141.0200   76.7760  220.6520 N   0  0  0  0  0  0  0  0  0  0  0  0
  140.4190   75.8420  221.5400 C   0  0  0  0  0  0  0  0  0  0  0  0
  140.0700   76.1250  222.7150 O   0  0  0  0  0  0  0  0  0  0  0  0
  140.1670   74.4340  221.1030 C   0  0  0  0  0  0  0  0  0  0  0  0
  139.9630   73.6550  222.3170 N   0  0  0  0  0  0  0  0  0  0  0  0
  140.4250   72.3290  222.3350 C   0  0  0  0  0  0  0  0  0  0  0  0
  140.9970   71.8860  221.2840 O   0  0  0  0  0  0  0  0  0  0  0  0
  140.2610   71.4810  223.5110 C   0  0  0  0  0  0  0  0  0  0  0  0
  139.6330   70.2460  223.3680 C   0  0  0  0  0  0  0  0  0  0  0  0
  139.4660   69.4200  224.4820 C   0  0  0  0  0  0  0  0  0  0  0  0
  139.9330   69.8540  225.7030 C   0  0  0  0  0  0  0  0  0  0  0  0
  139.7530   69.0080  226.7960 C   0  0  0  0  0  0  0  0  0  0  0  0
  140.2190   69.4390  228.0210 C   0  0  0  0  0  0  0  0  0  0  0  0
  140.0390   68.6070  229.0860 F   0  0  0  0  0  0  0  0  0  0  0  0
  140.8350   70.6590  228.1380 C   0  0  0  0  0  0  0  0  0  0  0  0
  141.0200   71.5140  227.0500 C   0  0  0  0  0  0  0  0  0  0  0  0
  140.5530   71.0830  225.8200 C   0  0  0  0  0  0  0  0  0  0  0  0
  140.7080   71.8710  224.7370 N   0  0  0  0  0  0  0  0  0  0  0  0
  139.6234   79.9216  224.8180 H   0  0  0  0  0  0  0  0  0  0  0  0
  139.5439   81.0700  223.4391 H   0  0  0  0  0  0  0  0  0  0  0  0
  138.5197   79.5943  223.4391 H   0  0  0  0  0  0  0  0  0  0  0  0
  141.5256   79.0684  224.8948 H   0  0  0  0  0  0  0  0  0  0  0  0
  142.1462   78.0191  223.5755 H   0  0  0  0  0  0  0  0  0  0  0  0
  142.5179   79.7765  223.5755 H   0  0  0  0  0  0  0  0  0  0  0  0
  142.3094   78.0544  221.7361 H   0  0  0  0  0  0  0  0  0  0  0  0
  141.2929   79.7761  219.6955 H   0  0  0  0  0  0  0  0  0  0  0  0
  142.8608   78.9409  219.6201 H   0  0  0  0  0  0  0  0  0  0  0  0
  140.2108   78.1894  218.3569 H   0  0  0  0  0  0  0  0  0  0  0  0
  141.8137   77.9778  217.6908 H   0  0  0  0  0  0  0  0  0  0  0  0
  140.5045   75.8982  218.8075 H   0  0  0  0  0  0  0  0  0  0  0  0
  142.2402   76.0389  219.0742 H   0  0  0  0  0  0  0  0  0  0  0  0
  139.2708   74.3881  220.4668 H   0  0  0  0  0  0  0  0  0  0  0  0
  141.0108   74.0424  220.5158 H   0  0  0  0  0  0  0  0  0  0  0  0
  139.4960   74.0260  223.1670 H   0  0  0  0  0  0  0  0  0  0  0  0
  139.2699   69.9223  222.3814 H   0  0  0  0  0  0  0  0  0  0  0  0
  138.9713   68.4422  224.3861 H   0  0  0  0  0  0  0  0  0  0  0  0
  139.2574   68.0322  226.6859 H   0  0  0  0  0  0  0  0  0  0  0  0
  141.1972   70.9759  229.1272 H   0  0  0  0  0  0  0  0  0  0  0  0
  141.5159   72.4891  227.1652 H   0  0  0  0  0  0  0  0  0  0  0  0
  1  2  1  0
  2  3  1  0
  2  4  1  0
  4  5  2  0
  4  6  1  0
  6  7  1  0
  7  8  1  0
  8  9  1  0
  9 10  1  0
 10 11  1  0
 11 12  2  0
 11 13  1  0
 13 14  1  0
 14 15  1  0
 15 16  2  0
 15 17  1  0
 17 18  2  0
 18 19  1  0
 19 20  2  0
 20 21  1  0
 21 22  2  0
 22 23  1  0
 22 24  1  0
 24 25  2  0
 25 26  1  0
 26 27  2  0
 10  6  1  0
 27 17  1  0
 26 20  1  0
  1 28  1  0
  1 29  1  0
  1 30  1  0
  3 31  1  0
  3 32  1  0
  3 33  1  0
  6 34  1  1
  7 35  1  0
  7 36  1  0
  8 37  1  0
  8 38  1  0
  9 39  1  0
  9 40  1  0
 13 41  1  0
 13 42  1  0
 14 43  1  0
 18 44  1  0
 19 45  1  0
 21 46  1  0
 24 47  1  0
 25 48  1  0
M  END
>  <smiles>  (27) 
CN(C)C(=O)[C@@H]1CCCN1C(=O)CNC(=O)c1ccc2cc(F)ccc2n1

>  <score_type>  (27) 
oracle

>  <origin>  (27) 
autodockgpu

>  <m_score__min__energy>  (27) 
-7.6299999999999999

>  <m_primary>  (27) 
energy

>  <rmsd>  (27) 
1.8563267845060925

>  <m_score__min__rmsd>  (27) 
1.8563267845060925

>  <meeko>  (27) 
{"free_energy": -7.29, "intermolecular_energy": -8.78, "internal_energy": -1.88, "cluster_size": 26, "cluster_id": 1, "rank_in_cluster": 18}

>  <energy>  (27) 
-7.28

>  <cluster_rmsd>  (27) 
0.0

>  <cluster>  (27) 
2

$$$$

     RDKit          3D

 48 50  0  0  0  0  0  0  0  0999 V2000
  146.0990   73.6310  220.9960 C   0  0  0  0  0  0  0  0  0  0  0  0
  145.0420   73.8580  220.0170 N   0  0  0  0  0  0  0  0  0  0  0  0
  144.0590   74.8680  220.3480 C   0  0  0  0  0  0  0  0  0  0  0  0
  145.0300   73.1050  218.8300 C   0  0  0  0  0  0  0  0  0  0  0  0
  145.9390   72.2570  218.6600 O   0  0  0  0  0  0  0  0  0  0  0  0
  143.9440   73.3430  217.8330 C   0  0  2  0  0  0  0  0  0  0  0  0
  144.1930   74.6710  217.1510 C   0  0  0  0  0  0  0  0  0  0  0  0
  143.1560   75.6390  217.6750 C   0  0  0  0  0  0  0  0  0  0  0  0
  142.0230   74.7370  218.0460 C   0  0  0  0  0  0  0  0  0  0  0  0
  142.6600   73.5100  218.4830 N   0  0  0  0  0  0  0  0  0  0  0  0
  142.1140   72.5900  219.4200 C   0  0  0  0  0  0  0  0  0  0  0  0
  142.5780   71.4360  219.6130 O   0  0  0  0  0  0  0  0  0  0  0  0
  140.9240   72.9630  220.2450 C   0  0  0  0  0  0  0  0  0  0  0  0
  140.8580   72.0000  221.3350 N   0  0  0  0  0  0  0  0  0  0  0  0
  140.3320   72.4290  222.5640 C   0  0  0  0  0  0  0  0  0  0  0  0
  139.9410   73.6400  222.6510 O   0  0  0  0  0  0  0  0  0  0  0  0
  140.2310   71.5260  223.7070 C   0  0  0  0  0  0  0  0  0  0  0  0
  139.6520   70.2730  223.5250 C   0  0  0  0  0  0  0  0  0  0  0  0
  139.5460   69.3940  224.6070 C   0  0  0  0  0  0  0  0  0  0  0  0
  140.0230   69.7970  225.8340 C   0  0  0  0  0  0  0  0  0  0  0  0
  139.9040   68.9000  226.8940 C   0  0  0  0  0  0  0  0  0  0  0  0
  140.3800   69.2990  228.1260 C   0  0  0  0  0  0  0  0  0  0  0  0
  140.2600   68.4170  229.1590 F   0  0  0  0  0  0  0  0  0  0  0  0
  140.9470   70.5390  228.2810 C   0  0  0  0  0  0  0  0  0  0  0  0
  141.0700   71.4450  227.2260 C   0  0  0  0  0  0  0  0  0  0  0  0
  140.5930   71.0460  225.9900 C   0  0  0  0  0  0  0  0  0  0  0  0
  140.6900   71.8840  224.9380 N   0  0  0  0  0  0  0  0  0  0  0  0
  145.6841   73.7201  222.0109 H   0  0  0  0  0  0  0  0  0  0  0  0
  146.5164   72.6227  220.8578 H   0  0  0  0  0  0  0  0  0  0  0  0
  146.8936   74.3790  220.8578 H   0  0  0  0  0  0  0  0  0  0  0  0
  143.9754   74.9539  221.4415 H   0  0  0  0  0  0  0  0  0  0  0  0
  144.3710   75.8352  219.9270 H   0  0  0  0  0  0  0  0  0  0  0  0
  143.0837   74.5823  219.9270 H   0  0  0  0  0  0  0  0  0  0  0  0
  143.9383   72.4836  217.1465 H   0  0  0  0  0  0  0  0  0  0  0  0
  145.2035   75.0344  217.3894 H   0  0  0  0  0  0  0  0  0  0  0  0
  144.1193   74.5707  216.0581 H   0  0  0  0  0  0  0  0  0  0  0  0
  143.5314   76.1860  218.5525 H   0  0  0  0  0  0  0  0  0  0  0  0
  142.8761   76.4152  216.9476 H   0  0  0  0  0  0  0  0  0  0  0  0
  141.4273   75.1764  218.8597 H   0  0  0  0  0  0  0  0  0  0  0  0
  141.3300   74.5716  217.2079 H   0  0  0  0  0  0  0  0  0  0  0  0
  141.0424   73.9812  220.6442 H   0  0  0  0  0  0  0  0  0  0  0  0
  140.0028   72.9472  219.6441 H   0  0  0  0  0  0  0  0  0  0  0  0
  141.1790   71.0150  221.2530 H   0  0  0  0  0  0  0  0  0  0  0  0
  139.2793   69.9758  222.5336 H   0  0  0  0  0  0  0  0  0  0  0  0
  139.0908   68.4006  224.4805 H   0  0  0  0  0  0  0  0  0  0  0  0
  139.4470   67.9094  226.7534 H   0  0  0  0  0  0  0  0  0  0  0  0
  141.3188   70.8302  229.2745 H   0  0  0  0  0  0  0  0  0  0  0  0
  141.5271   72.4349  227.3713 H   0  0  0  0  0  0  0  0  0  0  0  0
  1  2  1  0
  2  3  1  0
  2  4  1  0
  4  5  2  0
  4  6  1  0
  6  7  1  0
  7  8  1  0
  8  9  1  0
  9 10  1  0
 10 11  1  0
 11 12  2  0
 11 13  1  0
 13 14  1  0
 14 15  1  0
 15 16  2  0
 15 17  1  0
 17 18  2  0
 18 19  1  0
 19 20  2  0
 20 21  1  0
 21 22  2  0
 22 23  1  0
 22 24  1  0
 24 25  2  0
 25 26  1  0
 26 27  2  0
 10  6  1  0
 27 17  1  0
 26 20  1  0
  1 28  1  0
  1 29  1  0
  1 30  1  0
  3 31  1  0
  3 32  1  0
  3 33  1  0
  6 34  1  6
  7 35  1  0
  7 36  1  0
  8 37  1  0
  8 38  1  0
  9 39  1  0
  9 40  1  0
 13 41  1  0
 13 42  1  0
 14 43  1  0
 18 44  1  0
 19 45  1  0
 21 46  1  0
 24 47  1  0
 25 48  1  0
M  END
>  <smiles>  (28) 
CN(C)C(=O)[C@@H]1CCCN1C(=O)CNC(=O)c1ccc2cc(F)ccc2n1

>  <score_type>  (28) 
oracle

>  <origin>  (28) 
autodockgpu

>  <m_score__min__energy>  (28) 
-7.6299999999999999

>  <m_primary>  (28) 
energy

>  <rmsd>  (28) 
3.7532840874546296

>  <m_score__min__rmsd>  (28) 
3.7532840874546296

>  <meeko>  (28) 
{"free_energy": -7.28, "intermolecular_energy": -8.77, "internal_energy": -1.3, "cluster_size": 17, "cluster_id": 2, "rank_in_cluster": 1}

>  <energy>  (28) 
-7.26

>  <cluster_rmsd>  (28) 
0.07

>  <cluster>  (28) 
2

$$$$

     RDKit          3D

 48 50  0  0  0  0  0  0  0  0999 V2000
  142.7920   69.0980  219.5730 C   0  0  0  0  0  0  0  0  0  0  0  0
  143.2230   70.3780  219.0220 N   0  0  0  0  0  0  0  0  0  0  0  0
  143.1310   70.5280  217.5850 C   0  0  0  0  0  0  0  0  0  0  0  0
  143.6920   71.3780  219.8920 C   0  0  0  0  0  0  0  0  0  0  0  0
  143.7240   71.1240  221.1200 O   0  0  0  0  0  0  0  0  0  0  0  0
  144.1320   72.6850  219.3200 C   0  0  2  0  0  0  0  0  0  0  0  0
  145.6400   72.7750  219.4140 C   0  0  0  0  0  0  0  0  0  0  0  0
  145.9560   73.7810  220.4990 C   0  0  0  0  0  0  0  0  0  0  0  0
  144.7540   74.6700  220.4810 C   0  0  0  0  0  0  0  0  0  0  0  0
  143.6560   73.7950  220.1200 N   0  0  0  0  0  0  0  0  0  0  0  0
  142.2970   73.9870  220.4920 C   0  0  0  0  0  0  0  0  0  0  0  0
  141.8920   74.9750  221.1570 O   0  0  0  0  0  0  0  0  0  0  0  0
  141.2540   72.9890  220.1000 C   0  0  0  0  0  0  0  0  0  0  0  0
  141.1590   72.0380  221.1980 N   0  0  0  0  0  0  0  0  0  0  0  0
  140.4570   72.4280  222.3500 C   0  0  0  0  0  0  0  0  0  0  0  0
  139.9430   73.5960  222.3640 O   0  0  0  0  0  0  0  0  0  0  0  0
  140.3150   71.5340  223.4950 C   0  0  0  0  0  0  0  0  0  0  0  0
  139.7130   70.2920  223.3090 C   0  0  0  0  0  0  0  0  0  0  0  0
  139.5680   69.4230  224.3930 C   0  0  0  0  0  0  0  0  0  0  0  0
  140.0290   69.8220  225.6270 C   0  0  0  0  0  0  0  0  0  0  0  0
  139.8710   68.9340  226.6900 C   0  0  0  0  0  0  0  0  0  0  0  0
  140.3320   69.3300  227.9280 C   0  0  0  0  0  0  0  0  0  0  0  0
  140.1730   68.4560  228.9630 F   0  0  0  0  0  0  0  0  0  0  0  0
  140.9220   70.5580  228.0870 C   0  0  0  0  0  0  0  0  0  0  0  0
  141.0850   71.4550  227.0310 C   0  0  0  0  0  0  0  0  0  0  0  0
  140.6230   71.0590  225.7880 C   0  0  0  0  0  0  0  0  0  0  0  0
  140.7580   71.8890  224.7330 N   0  0  0  0  0  0  0  0  0  0  0  0
  142.8087   69.1475  220.6718 H   0  0  0  0  0  0  0  0  0  0  0  0
  141.7700   68.8772  219.2314 H   0  0  0  0  0  0  0  0  0  0  0  0
  143.4723   68.3040  219.2314 H   0  0  0  0  0  0  0  0  0  0  0  0
  142.5695   71.4435  217.3471 H   0  0  0  0  0  0  0  0  0  0  0  0
  144.1424   70.5969  217.1580 H   0  0  0  0  0  0  0  0  0  0  0  0
  142.6112   69.6576  217.1580 H   0  0  0  0  0  0  0  0  0  0  0  0
  143.7471   72.7363  218.2908 H   0  0  0  0  0  0  0  0  0  0  0  0
  146.0616   71.7930  219.6748 H   0  0  0  0  0  0  0  0  0  0  0  0
  146.0756   73.0846  218.4525 H   0  0  0  0  0  0  0  0  0  0  0  0
  146.0707   73.2884  221.4758 H   0  0  0  0  0  0  0  0  0  0  0  0
  146.9007   74.3198  220.3338 H   0  0  0  0  0  0  0  0  0  0  0  0
  144.5856   75.1152  221.4727 H   0  0  0  0  0  0  0  0  0  0  0  0
  144.8666   75.5089  219.7784 H   0  0  0  0  0  0  0  0  0  0  0  0
  140.2869   73.4903  219.9466 H   0  0  0  0  0  0  0  0  0  0  0  0
  141.5192   72.4850  219.1589 H   0  0  0  0  0  0  0  0  0  0  0  0
  141.5810   71.0890  221.1760 H   0  0  0  0  0  0  0  0  0  0  0  0
  139.3531   69.9965  222.3124 H   0  0  0  0  0  0  0  0  0  0  0  0
  139.0945   68.4387  224.2629 H   0  0  0  0  0  0  0  0  0  0  0  0
  139.3956   67.9525  226.5464 H   0  0  0  0  0  0  0  0  0  0  0  0
  141.2806   70.8468  229.0860 H   0  0  0  0  0  0  0  0  0  0  0  0
  141.5607   72.4356  227.1801 H   0  0  0  0  0  0  0  0  0  0  0  0
  1  2  1  0
  2  3  1  0
  2  4  1  0
  4  5  2  0
  4  6  1  0
  6  7  1  0
  7  8  1  0
  8  9  1  0
  9 10  1  0
 10 11  1  0
 11 12  2  0
 11 13  1  0
 13 14  1  0
 14 15  1  0
 15 16  2  0
 15 17  1  0
 17 18  2  0
 18 19  1  0
 19 20  2  0
 20 21  1  0
 21 22  2  0
 22 23  1  0
 22 24  1  0
 24 25  2  0
 25 26  1  0
 26 27  2  0
 10  6  1  0
 27 17  1  0
 26 20  1  0
  1 28  1  0
  1 29  1  0
  1 30  1  0
  3 31  1  0
  3 32  1  0
  3 33  1  0
  6 34  1  6
  7 35  1  0
  7 36  1  0
  8 37  1  0
  8 38  1  0
  9 39  1  0
  9 40  1  0
 13 41  1  0
 13 42  1  0
 14 43  1  0
 18 44  1  0
 19 45  1  0
 21 46  1  0
 24 47  1  0
 25 48  1  0
M  END
>  <smiles>  (29) 
CN(C)C(=O)[C@@H]1CCCN1C(=O)CNC(=O)c1ccc2cc(F)ccc2n1

>  <score_type>  (29) 
oracle

>  <origin>  (29) 
autodockgpu

>  <m_score__min__energy>  (29) 
-7.6299999999999999

>  <m_primary>  (29) 
energy

>  <rmsd>  (29) 
4.837983173249076

>  <m_score__min__rmsd>  (29) 
4.837983173249076

>  <meeko>  (29) 
{"free_energy": -6.74, "intermolecular_energy": -8.23, "internal_energy": -1.92, "cluster_size": 17, "cluster_id": 2, "rank_in_cluster": 17}

>  <energy>  (29) 
-7.25

>  <cluster_rmsd>  (29) 
0.13

>  <cluster>  (29) 
2

$$$$

     RDKit          3D

 48 50  0  0  0  0  0  0  0  0999 V2000
  144.4250   68.4450  219.7730 C   0  0  0  0  0  0  0  0  0  0  0  0
  144.8860   69.7540  219.3240 N   0  0  0  0  0  0  0  0  0  0  0  0
  145.9410   69.7620  218.3320 C   0  0  0  0  0  0  0  0  0  0  0  0
  144.2990   70.9120  219.8610 C   0  0  0  0  0  0  0  0  0  0  0  0
  143.3920   70.7710  220.7170 O   0  0  0  0  0  0  0  0  0  0  0  0
  144.7770   72.2480  219.3960 C   0  0  2  0  0  0  0  0  0  0  0  0
  146.0650   72.5810  220.1180 C   0  0  0  0  0  0  0  0  0  0  0  0
  145.7420   73.6690  221.1180 C   0  0  0  0  0  0  0  0  0  0  0  0
  144.5700   74.3540  220.4910 C   0  0  0  0  0  0  0  0  0  0  0  0
  143.8620   73.3000  219.7900 N   0  0  0  0  0  0  0  0  0  0  0  0
  142.4660   73.2870  219.5210 C   0  0  0  0  0  0  0  0  0  0  0  0
  141.9720   72.9030  218.4290 O   0  0  0  0  0  0  0  0  0  0  0  0
  141.4890   73.7450  220.5570 C   0  0  0  0  0  0  0  0  0  0  0  0
  141.4300   72.6930  221.5620 N   0  0  0  0  0  0  0  0  0  0  0  0
  140.3910   72.7400  222.5060 C   0  0  0  0  0  0  0  0  0  0  0  0
  139.5600   73.7050  222.4250 O   0  0  0  0  0  0  0  0  0  0  0  0
  140.2590   71.7250  223.5460 C   0  0  0  0  0  0  0  0  0  0  0  0
  139.6620   70.5090  223.2270 C   0  0  0  0  0  0  0  0  0  0  0  0
  139.5260   69.5240  224.2100 C   0  0  0  0  0  0  0  0  0  0  0  0
  139.9930   69.7870  225.4780 C   0  0  0  0  0  0  0  0  0  0  0  0
  139.8450   68.7860  226.4370 C   0  0  0  0  0  0  0  0  0  0  0  0
  140.3110   69.0450  227.7090 C   0  0  0  0  0  0  0  0  0  0  0  0
  140.1620   68.0630  228.6420 F   0  0  0  0  0  0  0  0  0  0  0  0
  140.8970   70.2520  228.0000 C   0  0  0  0  0  0  0  0  0  0  0  0
  141.0500   71.2610  227.0470 C   0  0  0  0  0  0  0  0  0  0  0  0
  140.5830   71.0020  225.7710 C   0  0  0  0  0  0  0  0  0  0  0  0
  140.7080   71.9440  224.8130 N   0  0  0  0  0  0  0  0  0  0  0  0
  144.4152   68.4171  220.8726 H   0  0  0  0  0  0  0  0  0  0  0  0
  143.4090   68.2637  219.3925 H   0  0  0  0  0  0  0  0  0  0  0  0
  145.1032   67.6670  219.3925 H   0  0  0  0  0  0  0  0  0  0  0  0
  146.9185   69.7694  218.8364 H   0  0  0  0  0  0  0  0  0  0  0  0
  145.8597   68.8632  217.7031 H   0  0  0  0  0  0  0  0  0  0  0  0
  145.8461   70.6595  217.7031 H   0  0  0  0  0  0  0  0  0  0  0  0
  144.8809   72.1950  218.3022 H   0  0  0  0  0  0  0  0  0  0  0  0
  146.4475   71.6907  220.6386 H   0  0  0  0  0  0  0  0  0  0  0  0
  146.8374   72.9152  219.4096 H   0  0  0  0  0  0  0  0  0  0  0  0
  145.4754   73.2423  222.0962 H   0  0  0  0  0  0  0  0  0  0  0  0
  146.5873   74.3442  221.3168 H   0  0  0  0  0  0  0  0  0  0  0  0
  143.9281   74.8077  221.2605 H   0  0  0  0  0  0  0  0  0  0  0  0
  144.8743   75.1703  219.8193 H   0  0  0  0  0  0  0  0  0  0  0  0
  141.8306   74.6865  221.0118 H   0  0  0  0  0  0  0  0  0  0  0  0
  140.4985   73.9303  220.1159 H   0  0  0  0  0  0  0  0  0  0  0  0
  142.1120   71.9110  221.6190 H   0  0  0  0  0  0  0  0  0  0  0  0
  139.2985   70.3235  222.2055 H   0  0  0  0  0  0  0  0  0  0  0  0
  139.0552   68.5581  223.9748 H   0  0  0  0  0  0  0  0  0  0  0  0
  139.3734   67.8239  226.1881 H   0  0  0  0  0  0  0  0  0  0  0  0
  141.2598   70.4310  229.0229 H   0  0  0  0  0  0  0  0  0  0  0  0
  141.5222   72.2217  227.3004 H   0  0  0  0  0  0  0  0  0  0  0  0
  1  2  1  0
  2  3  1  0
  2  4  1  0
  4  5  2  0
  4  6  1  0
  6  7  1  0
  7  8  1  0
  8  9  1  0
  9 10  1  0
 10 11  1  0
 11 12  2  0
 11 13  1  0
 13 14  1  0
 14 15  1  0
 15 16  2  0
 15 17  1  0
 17 18  2  0
 18 19  1  0
 19 20  2  0
 20 21  1  0
 21 22  2  0
 22 23  1  0
 22 24  1  0
 24 25  2  0
 25 26  1  0
 26 27  2  0
 10  6  1  0
 27 17  1  0
 26 20  1  0
  1 28  1  0
  1 29  1  0
  1 30  1  0
  3 31  1  0
  3 32  1  0
  3 33  1  0
  6 34  1  6
  7 35  1  0
  7 36  1  0
  8 37  1  0
  8 38  1  0
  9 39  1  0
  9 40  1  0
 13 41  1  0
 13 42  1  0
 14 43  1  0
 18 44  1  0
 19 45  1  0
 21 46  1  0
 24 47  1  0
 25 48  1  0
M  END
>  <smiles>  (30) 
CN(C)C(=O)[C@@H]1CCCN1C(=O)CNC(=O)c1ccc2cc(F)ccc2n1

>  <score_type>  (30) 
oracle

>  <origin>  (30) 
autodockgpu

>  <m_score__min__energy>  (30) 
-7.6299999999999999

>  <m_primary>  (30) 
energy

>  <rmsd>  (30) 
5.177621256242527

>  <m_score__min__rmsd>  (30) 
5.177621256242527

>  <meeko>  (30) 
{"free_energy": -6.8, "intermolecular_energy": -8.29, "internal_energy": -2.08, "cluster_size": 17, "cluster_id": 2, "rank_in_cluster": 15}

>  <energy>  (30) 
-7.24

>  <cluster_rmsd>  (30) 
0.16

>  <cluster>  (30) 
2

$$$$

     RDKit          3D

 48 50  0  0  0  0  0  0  0  0999 V2000
  142.9620   79.7480  222.7660 C   0  0  0  0  0  0  0  0  0  0  0  0
  141.7730   79.4500  221.9750 N   0  0  0  0  0  0  0  0  0  0  0  0
  141.5410   80.2860  220.8160 C   0  0  0  0  0  0  0  0  0  0  0  0
  140.9330   78.3930  222.3670 C   0  0  0  0  0  0  0  0  0  0  0  0
  141.2430   77.7430  223.3940 O   0  0  0  0  0  0  0  0  0  0  0  0
  139.7180   78.0950  221.5530 C   0  0  2  0  0  0  0  0  0  0  0  0
  138.5940   79.0020  222.0060 C   0  0  0  0  0  0  0  0  0  0  0  0
  137.6100   78.1400  222.7660 C   0  0  0  0  0  0  0  0  0  0  0  0
  137.8180   76.7910  222.1570 C   0  0  0  0  0  0  0  0  0  0  0  0
  139.2260   76.7580  221.8120 N   0  0  0  0  0  0  0  0  0  0  0  0
  140.0250   75.5840  221.7360 C   0  0  0  0  0  0  0  0  0  0  0  0
  141.2210   75.5320  222.1230 O   0  0  0  0  0  0  0  0  0  0  0  0
  139.4630   74.3180  221.1730 C   0  0  0  0  0  0  0  0  0  0  0  0
  139.2750   73.4130  222.2990 N   0  0  0  0  0  0  0  0  0  0  0  0
  140.3160   72.5250  222.6120 C   0  0  0  0  0  0  0  0  0  0  0  0
  141.3670   72.5650  221.8890 O   0  0  0  0  0  0  0  0  0  0  0  0
  140.2080   71.5860  223.7240 C   0  0  0  0  0  0  0  0  0  0  0  0
  139.5830   70.3600  223.5110 C   0  0  0  0  0  0  0  0  0  0  0  0
  139.4690   69.4470  224.5630 C   0  0  0  0  0  0  0  0  0  0  0  0
  139.9850   69.7890  225.7930 C   0  0  0  0  0  0  0  0  0  0  0  0
  139.8580   68.8590  226.8240 C   0  0  0  0  0  0  0  0  0  0  0  0
  140.3730   69.1970  228.0580 C   0  0  0  0  0  0  0  0  0  0  0  0
  140.2450   68.2830  229.0610 F   0  0  0  0  0  0  0  0  0  0  0  0
  140.9860   70.4110  228.2440 C   0  0  0  0  0  0  0  0  0  0  0  0
  141.1180   71.3500  227.2190 C   0  0  0  0  0  0  0  0  0  0  0  0
  140.6020   71.0120  225.9800 C   0  0  0  0  0  0  0  0  0  0  0  0
  140.7050   71.8830  224.9560 N   0  0  0  0  0  0  0  0  0  0  0  0
  142.7154   79.6862  223.8362 H   0  0  0  0  0  0  0  0  0  0  0  0
  143.7519   79.0201  222.5291 H   0  0  0  0  0  0  0  0  0  0  0  0
  143.3152   80.7625  222.5291 H   0  0  0  0  0  0  0  0  0  0  0  0
  141.2602   81.2977  221.1440 H   0  0  0  0  0  0  0  0  0  0  0  0
  142.4587   80.3379  220.2117 H   0  0  0  0  0  0  0  0  0  0  0  0
  140.7278   79.8576  220.2117 H   0  0  0  0  0  0  0  0  0  0  0  0
  139.9950   78.2235  220.4962 H   0  0  0  0  0  0  0  0  0  0  0  0
  138.9876   79.7933  222.6609 H   0  0  0  0  0  0  0  0  0  0  0  0
  138.1091   79.4864  221.1456 H   0  0  0  0  0  0  0  0  0  0  0  0
  137.8398   78.1295  223.8417 H   0  0  0  0  0  0  0  0  0  0  0  0
  136.5716   78.4960  222.6952 H   0  0  0  0  0  0  0  0  0  0  0  0
  137.5766   75.9975  222.8795 H   0  0  0  0  0  0  0  0  0  0  0  0
  137.1707   76.6236  221.2835 H   0  0  0  0  0  0  0  0  0  0  0  0
  138.5000   74.5160  220.6795 H   0  0  0  0  0  0  0  0  0  0  0  0
  140.1376   73.8829  220.4209 H   0  0  0  0  0  0  0  0  0  0  0  0
  138.4150   73.3890  222.8810 H   0  0  0  0  0  0  0  0  0  0  0  0
  139.1804   70.1110  222.5181 H   0  0  0  0  0  0  0  0  0  0  0  0
  138.9770   68.4749  224.4115 H   0  0  0  0  0  0  0  0  0  0  0  0
  139.3645   67.8899  226.6590 H   0  0  0  0  0  0  0  0  0  0  0  0
  141.3886   70.6534  229.2385 H   0  0  0  0  0  0  0  0  0  0  0  0
  141.6116   72.3182  227.3892 H   0  0  0  0  0  0  0  0  0  0  0  0
  1  2  1  0
  2  3  1  0
  2  4  1  0
  4  5  2  0
  4  6  1  0
  6  7  1  0
  7  8  1  0
  8  9  1  0
  9 10  1  0
 10 11  1  0
 11 12  2  0
 11 13  1  0
 13 14  1  0
 14 15  1  0
 15 16  2  0
 15 17  1  0
 17 18  2  0
 18 19  1  0
 19 20  2  0
 20 21  1  0
 21 22  2  0
 22 23  1  0
 22 24  1  0
 24 25  2  0
 25 26  1  0
 26 27  2  0
 10  6  1  0
 27 17  1  0
 26 20  1  0
  1 28  1  0
  1 29  1  0
  1 30  1  0
  3 31  1  0
  3 32  1  0
  3 33  1  0
  6 34  1  6
  7 35  1  0
  7 36  1  0
  8 37  1  0
  8 38  1  0
  9 39  1  0
  9 40  1  0
 13 41  1  0
 13 42  1  0
 14 43  1  0
 18 44  1  0
 19 45  1  0
 21 46  1  0
 24 47  1  0
 25 48  1  0
M  END
>  <smiles>  (31) 
CN(C)C(=O)[C@@H]1CCCN1C(=O)CNC(=O)c1ccc2cc(F)ccc2n1

>  <score_type>  (31) 
oracle

>  <origin>  (31) 
autodockgpu

>  <m_score__min__energy>  (31) 
-7.6299999999999999

>  <m_primary>  (31) 
energy

>  <rmsd>  (31) 
2.7715049483439134

>  <m_score__min__rmsd>  (31) 
2.7715049483439134

>  <meeko>  (31) 
{"free_energy": -7.63, "intermolecular_energy": -9.12, "internal_energy": -1.12, "cluster_size": 26, "cluster_id": 1, "rank_in_cluster": 1}

>  <energy>  (31) 
-7.11

>  <cluster_rmsd>  (31) 
1.92

>  <cluster>  (31) 
2

$$$$

     RDKit          3D

 48 50  0  0  0  0  0  0  0  0999 V2000
  144.7200   72.6830  220.8490 C   0  0  0  0  0  0  0  0  0  0  0  0
  143.6330   73.2950  220.0940 N   0  0  0  0  0  0  0  0  0  0  0  0
  142.6400   72.3960  219.5440 C   0  0  0  0  0  0  0  0  0  0  0  0
  143.6030   74.6920  219.9420 C   0  0  0  0  0  0  0  0  0  0  0  0
  144.5240   75.3630  220.4670 O   0  0  0  0  0  0  0  0  0  0  0  0
  142.4870   75.3120  219.1670 C   0  0  2  0  0  0  0  0  0  0  0  0
  143.0400   76.4600  218.3520 C   0  0  0  0  0  0  0  0  0  0  0  0
  142.5520   77.7370  218.9990 C   0  0  0  0  0  0  0  0  0  0  0  0
  141.2790   77.3070  219.6540 C   0  0  0  0  0  0  0  0  0  0  0  0
  141.5160   75.9310  220.0460 N   0  0  0  0  0  0  0  0  0  0  0  0
  140.8920   75.2690  221.1390 C   0  0  0  0  0  0  0  0  0  0  0  0
  141.0390   75.6190  222.3390 O   0  0  0  0  0  0  0  0  0  0  0  0
  140.0040   74.0880  220.9050 C   0  0  0  0  0  0  0  0  0  0  0  0
  139.9020   73.3900  222.1790 N   0  0  0  0  0  0  0  0  0  0  0  0
  140.0210   71.9910  222.1750 C   0  0  0  0  0  0  0  0  0  0  0  0
  140.2110   71.4150  221.0520 O   0  0  0  0  0  0  0  0  0  0  0  0
  139.9300   71.2150  223.4080 C   0  0  0  0  0  0  0  0  0  0  0  0
  139.3290   69.9590  223.3700 C   0  0  0  0  0  0  0  0  0  0  0  0
  139.2330   69.2010  224.5400 C   0  0  0  0  0  0  0  0  0  0  0  0
  139.7410   69.7220  225.7090 C   0  0  0  0  0  0  0  0  0  0  0  0
  139.6320   68.9430  226.8600 C   0  0  0  0  0  0  0  0  0  0  0  0
  140.1390   69.4610  228.0330 C   0  0  0  0  0  0  0  0  0  0  0  0
  140.0280   68.6940  229.1550 F   0  0  0  0  0  0  0  0  0  0  0  0
  140.7280   70.7000  228.0460 C   0  0  0  0  0  0  0  0  0  0  0  0
  140.8420   71.4890  226.9000 C   0  0  0  0  0  0  0  0  0  0  0  0
  140.3340   70.9700  225.7220 C   0  0  0  0  0  0  0  0  0  0  0  0
  140.4200   71.6920  224.5850 N   0  0  0  0  0  0  0  0  0  0  0  0
  144.5254   72.7926  221.9261 H   0  0  0  0  0  0  0  0  0  0  0  0
  144.7867   71.6147  220.5952 H   0  0  0  0  0  0  0  0  0  0  0  0
  145.6679   73.1800  220.5952 H   0  0  0  0  0  0  0  0  0  0  0  0
  142.0965   71.9040  220.3641 H   0  0  0  0  0  0  0  0  0  0  0  0
  141.9318   72.9664  218.9251 H   0  0  0  0  0  0  0  0  0  0  0  0
  143.1373   71.6347  218.9251 H   0  0  0  0  0  0  0  0  0  0  0  0
  142.0300   74.5158  218.5610 H   0  0  0  0  0  0  0  0  0  0  0  0
  144.1396   76.4308  218.3559 H   0  0  0  0  0  0  0  0  0  0  0  0
  142.7044   76.3966  217.3064 H   0  0  0  0  0  0  0  0  0  0  0  0
  143.2747   78.1071  219.7411 H   0  0  0  0  0  0  0  0  0  0  0  0
  142.4188   78.5644  218.2865 H   0  0  0  0  0  0  0  0  0  0  0  0
  141.0656   77.9305  220.5348 H   0  0  0  0  0  0  0  0  0  0  0  0
  140.4113   77.4067  218.9853 H   0  0  0  0  0  0  0  0  0  0  0  0
  139.0094   74.4201  220.5727 H   0  0  0  0  0  0  0  0  0  0  0  0
  140.4124   73.4314  220.1227 H   0  0  0  0  0  0  0  0  0  0  0  0
  139.7470   73.8690  223.0880 H   0  0  0  0  0  0  0  0  0  0  0  0
  138.9316   69.5654  222.4228 H   0  0  0  0  0  0  0  0  0  0  0  0
  138.7609   68.2076  224.5274 H   0  0  0  0  0  0  0  0  0  0  0  0
  139.1584   67.9505  226.8334 H   0  0  0  0  0  0  0  0  0  0  0  0
  141.1257   71.0866  228.9959 H   0  0  0  0  0  0  0  0  0  0  0  0
  141.3156   72.4813  226.9320 H   0  0  0  0  0  0  0  0  0  0  0  0
  1  2  1  0
  2  3  1  0
  2  4  1  0
  4  5  2  0
  4  6  1  0
  6  7  1  0
  7  8  1  0
  8  9  1  0
  9 10  1  0
 10 11  1  0
 11 12  2  0
 11 13  1  0
 13 14  1  0
 14 15  1  0
 15 16  2  0
 15 17  1  0
 17 18  2  0
 18 19  1  0
 19 20  2  0
 20 21  1  0
 21 22  2  0
 22 23  1  0
 22 24  1  0
 24 25  2  0
 25 26  1  0
 26 27  2  0
 10  6  1  0
 27 17  1  0
 26 20  1  0
  1 28  1  0
  1 29  1  0
  1 30  1  0
  3 31  1  0
  3 32  1  0
  3 33  1  0
  6 34  1  6
  7 35  1  0
  7 36  1  0
  8 37  1  0
  8 38  1  0
  9 39  1  0
  9 40  1  0
 13 41  1  0
 13 42  1  0
 14 43  1  0
 18 44  1  0
 19 45  1  0
 21 46  1  0
 24 47  1  0
 25 48  1  0
M  END
>  <smiles>  (32) 
CN(C)C(=O)[C@@H]1CCCN1C(=O)CNC(=O)c1ccc2cc(F)ccc2n1

>  <score_type>  (32) 
oracle

>  <origin>  (32) 
autodockgpu

>  <m_score__min__energy>  (32) 
-7.6299999999999999

>  <m_primary>  (32) 
energy

>  <rmsd>  (32) 
2.946627398460546

>  <m_score__min__rmsd>  (32) 
2.946627398460546

>  <meeko>  (32) 
{"free_energy": -6.99, "intermolecular_energy": -8.48, "internal_energy": -2.14, "cluster_size": 17, "cluster_id": 2, "rank_in_cluster": 9}

>  <energy>  (32) 
-7.03

>  <cluster_rmsd>  (32) 
1.81

>  <cluster>  (32) 
2

$$$$

     RDKit          3D

 48 50  0  0  0  0  0  0  0  0999 V2000
  144.6740   72.6340  220.8480 C   0  0  0  0  0  0  0  0  0  0  0  0
  143.5910   73.2520  220.0910 N   0  0  0  0  0  0  0  0  0  0  0  0
  142.5920   72.3590  219.5430 C   0  0  0  0  0  0  0  0  0  0  0  0
  143.5720   74.6490  219.9340 C   0  0  0  0  0  0  0  0  0  0  0  0
  144.4980   75.3150  220.4570 O   0  0  0  0  0  0  0  0  0  0  0  0
  142.4610   75.2740  219.1560 C   0  0  2  0  0  0  0  0  0  0  0  0
  143.0250   76.4120  218.3320 C   0  0  0  0  0  0  0  0  0  0  0  0
  142.5500   77.6980  218.9710 C   0  0  0  0  0  0  0  0  0  0  0  0
  141.2740   77.2840  219.6310 C   0  0  0  0  0  0  0  0  0  0  0  0
  141.4980   75.9090  220.0320 N   0  0  0  0  0  0  0  0  0  0  0  0
  140.8680   75.2610  221.1300 C   0  0  0  0  0  0  0  0  0  0  0  0
  140.9960   75.6370  222.3240 O   0  0  0  0  0  0  0  0  0  0  0  0
  139.9990   74.0640  220.9090 C   0  0  0  0  0  0  0  0  0  0  0  0
  139.9210   73.3690  222.1860 N   0  0  0  0  0  0  0  0  0  0  0  0
  139.9950   71.9670  222.1800 C   0  0  0  0  0  0  0  0  0  0  0  0
  140.1280   71.3850  221.0520 O   0  0  0  0  0  0  0  0  0  0  0  0
  139.9240   71.1940  223.4160 C   0  0  0  0  0  0  0  0  0  0  0  0
  139.3650   69.9200  223.3820 C   0  0  0  0  0  0  0  0  0  0  0  0
  139.2880   69.1640  224.5550 C   0  0  0  0  0  0  0  0  0  0  0  0
  139.7730   69.7070  225.7240 C   0  0  0  0  0  0  0  0  0  0  0  0
  139.6830   68.9300  226.8780 C   0  0  0  0  0  0  0  0  0  0  0  0
  140.1680   69.4700  228.0510 C   0  0  0  0  0  0  0  0  0  0  0  0
  140.0770   68.7060  229.1760 F   0  0  0  0  0  0  0  0  0  0  0  0
  140.7160   70.7280  228.0600 C   0  0  0  0  0  0  0  0  0  0  0  0
  140.8100   71.5150  226.9110 C   0  0  0  0  0  0  0  0  0  0  0  0
  140.3240   70.9740  225.7330 C   0  0  0  0  0  0  0  0  0  0  0  0
  140.3930   71.6930  224.5930 N   0  0  0  0  0  0  0  0  0  0  0  0
  144.4788   72.7454  221.9248 H   0  0  0  0  0  0  0  0  0  0  0  0
  144.7348   71.5652  220.5950 H   0  0  0  0  0  0  0  0  0  0  0  0
  145.6251   73.1254  220.5950 H   0  0  0  0  0  0  0  0  0  0  0  0
  142.0463   71.8712  220.3641 H   0  0  0  0  0  0  0  0  0  0  0  0
  141.8868   72.9333  218.9242 H   0  0  0  0  0  0  0  0  0  0  0  0
  143.0839   71.5940  218.9242 H   0  0  0  0  0  0  0  0  0  0  0  0
  141.9952   74.4782  218.5562 H   0  0  0  0  0  0  0  0  0  0  0  0
  144.1243   76.3721  218.3351 H   0  0  0  0  0  0  0  0  0  0  0  0
  142.6879   76.3449  217.2871 H   0  0  0  0  0  0  0  0  0  0  0  0
  143.2773   78.0665  219.7094 H   0  0  0  0  0  0  0  0  0  0  0  0
  142.4234   78.5218  218.2532 H   0  0  0  0  0  0  0  0  0  0  0  0
  141.0679   77.9154  220.5078 H   0  0  0  0  0  0  0  0  0  0  0  0
  140.4065   77.3871  218.9626 H   0  0  0  0  0  0  0  0  0  0  0  0
  138.9956   74.3774  220.5849 H   0  0  0  0  0  0  0  0  0  0  0  0
  140.4118   73.4117  220.1254 H   0  0  0  0  0  0  0  0  0  0  0  0
  139.8130   73.8530  223.0990 H   0  0  0  0  0  0  0  0  0  0  0  0
  138.9850   69.5093  222.4349 H   0  0  0  0  0  0  0  0  0  0  0  0
  138.8488   68.1555  224.5447 H   0  0  0  0  0  0  0  0  0  0  0  0
  139.2413   67.9229  226.8540 H   0  0  0  0  0  0  0  0  0  0  0  0
  141.0961   71.1321  229.0099 H   0  0  0  0  0  0  0  0  0  0  0  0
  141.2514   72.5221  226.9403 H   0  0  0  0  0  0  0  0  0  0  0  0
  1  2  1  0
  2  3  1  0
  2  4  1  0
  4  5  2  0
  4  6  1  0
  6  7  1  0
  7  8  1  0
  8  9  1  0
  9 10  1  0
 10 11  1  0
 11 12  2  0
 11 13  1  0
 13 14  1  0
 14 15  1  0
 15 16  2  0
 15 17  1  0
 17 18  2  0
 18 19  1  0
 19 20  2  0
 20 21  1  0
 21 22  2  0
 22 23  1  0
 22 24  1  0
 24 25  2  0
 25 26  1  0
 26 27  2  0
 10  6  1  0
 27 17  1  0
 26 20  1  0
  1 28  1  0
  1 29  1  0
  1 30  1  0
  3 31  1  0
  3 32  1  0
  3 33  1  0
  6 34  1  6
  7 35  1  0
  7 36  1  0
  8 37  1  0
  8 38  1  0
  9 39  1  0
  9 40  1  0
 13 41  1  0
 13 42  1  0
 14 43  1  0
 18 44  1  0
 19 45  1  0
 21 46  1  0
 24 47  1  0
 25 48  1  0
M  END
>  <smiles>  (33) 
CN(C)C(=O)[C@@H]1CCCN1C(=O)CNC(=O)c1ccc2cc(F)ccc2n1

>  <score_type>  (33) 
oracle

>  <origin>  (33) 
autodockgpu

>  <m_score__min__energy>  (33) 
-7.6299999999999999

>  <m_primary>  (33) 
energy

>  <rmsd>  (33) 
2.943344508473527

>  <m_score__min__rmsd>  (33) 
2.943344508473527

>  <meeko>  (33) 
{"free_energy": -6.94, "intermolecular_energy": -8.43, "internal_energy": -2.18, "cluster_size": 17, "cluster_id": 2, "rank_in_cluster": 10}

>  <energy>  (33) 
-7.02

>  <cluster_rmsd>  (33) 
1.88

>  <cluster>  (33) 
2

$$$$

     RDKit          3D

 48 50  0  0  0  0  0  0  0  0999 V2000
  139.5460   79.9150  223.8010 C   0  0  0  0  0  0  0  0  0  0  0  0
  140.5990   79.1690  223.1220 N   0  0  0  0  0  0  0  0  0  0  0  0
  141.8460   79.0120  223.8400 C   0  0  0  0  0  0  0  0  0  0  0  0
  140.3580   78.6530  221.8370 C   0  0  0  0  0  0  0  0  0  0  0  0
  139.2330   78.8580  221.3200 O   0  0  0  0  0  0  0  0  0  0  0  0
  141.4410   77.8910  221.1480 C   0  0  2  0  0  0  0  0  0  0  0  0
  141.8140   78.6190  219.8750 C   0  0  0  0  0  0  0  0  0  0  0  0
  141.2760   77.7990  218.7230 C   0  0  0  0  0  0  0  0  0  0  0  0
  141.2570   76.4150  219.2880 C   0  0  0  0  0  0  0  0  0  0  0  0
  140.9710   76.5980  220.6970 N   0  0  0  0  0  0  0  0  0  0  0  0
  140.3180   75.6490  221.5320 C   0  0  0  0  0  0  0  0  0  0  0  0
  139.7820   75.9440  222.6320 O   0  0  0  0  0  0  0  0  0  0  0  0
  140.2370   74.2110  221.1290 C   0  0  0  0  0  0  0  0  0  0  0  0
  139.9980   73.4530  222.3490 N   0  0  0  0  0  0  0  0  0  0  0  0
  140.5020   72.1440  222.4220 C   0  0  0  0  0  0  0  0  0  0  0  0
  141.1400   71.6980  221.4110 O   0  0  0  0  0  0  0  0  0  0  0  0
  140.3060   71.3170  223.6090 C   0  0  0  0  0  0  0  0  0  0  0  0
  139.6470   70.0980  223.4770 C   0  0  0  0  0  0  0  0  0  0  0  0
  139.4490   69.2920  224.6020 C   0  0  0  0  0  0  0  0  0  0  0  0
  139.9180   69.7300  225.8200 C   0  0  0  0  0  0  0  0  0  0  0  0
  139.7080   68.9050  226.9230 C   0  0  0  0  0  0  0  0  0  0  0  0
  140.1750   69.3400  228.1460 C   0  0  0  0  0  0  0  0  0  0  0  0
  139.9650   68.5290  229.2210 F   0  0  0  0  0  0  0  0  0  0  0  0
  140.8230   70.5450  228.2510 C   0  0  0  0  0  0  0  0  0  0  0  0
  141.0390   71.3800  227.1520 C   0  0  0  0  0  0  0  0  0  0  0  0
  140.5700   70.9440  225.9250 C   0  0  0  0  0  0  0  0  0  0  0  0
  140.7540   71.7120  224.8320 N   0  0  0  0  0  0  0  0  0  0  0  0
  139.6753   79.8234  224.8895 H   0  0  0  0  0  0  0  0  0  0  0  0
  139.6034   80.9750  223.5128 H   0  0  0  0  0  0  0  0  0  0  0  0
  138.5650   79.5093  223.5128 H   0  0  0  0  0  0  0  0  0  0  0  0
  141.6515   79.0365  224.9224 H   0  0  0  0  0  0  0  0  0  0  0  0
  142.3049   78.0490  223.5716 H   0  0  0  0  0  0  0  0  0  0  0  0
  142.5293   79.8312  223.5716 H   0  0  0  0  0  0  0  0  0  0  0  0
  142.2714   77.7892  221.8622 H   0  0  0  0  0  0  0  0  0  0  0  0
  141.3631   79.6223  219.8676 H   0  0  0  0  0  0  0  0  0  0  0  0
  142.9046   78.7386  219.7962 H   0  0  0  0  0  0  0  0  0  0  0  0
  140.2645   78.1265  218.4409 H   0  0  0  0  0  0  0  0  0  0  0  0
  141.8755   77.8884  217.8051 H   0  0  0  0  0  0  0  0  0  0  0  0
  140.4731   75.8106  218.8081 H   0  0  0  0  0  0  0  0  0  0  0  0
  142.2056   75.8837  219.1209 H   0  0  0  0  0  0  0  0  0  0  0  0
  139.4094   74.0610  220.4200 H   0  0  0  0  0  0  0  0  0  0  0  0
  141.1625   73.8842  220.6323 H   0  0  0  0  0  0  0  0  0  0  0  0
  139.4770   73.8270  223.1670 H   0  0  0  0  0  0  0  0  0  0  0  0
  139.2836   69.7703  222.4918 H   0  0  0  0  0  0  0  0  0  0  0  0
  138.9287   68.3267  224.5157 H   0  0  0  0  0  0  0  0  0  0  0  0
  139.1882   67.9408  226.8222 H   0  0  0  0  0  0  0  0  0  0  0  0
  141.1863   70.8658  229.2385 H   0  0  0  0  0  0  0  0  0  0  0  0
  141.5598   72.3432  227.2574 H   0  0  0  0  0  0  0  0  0  0  0  0
  1  2  1  0
  2  3  1  0
  2  4  1  0
  4  5  2  0
  4  6  1  0
  6  7  1  0
  7  8  1  0
  8  9  1  0
  9 10  1  0
 10 11  1  0
 11 12  2  0
 11 13  1  0
 13 14  1  0
 14 15  1  0
 15 16  2  0
 15 17  1  0
 17 18  2  0
 18 19  1  0
 19 20  2  0
 20 21  1  0
 21 22  2  0
 22 23  1  0
 22 24  1  0
 24 25  2  0
 25 26  1  0
 26 27  2  0
 10  6  1  0
 27 17  1  0
 26 20  1  0
  1 28  1  0
  1 29  1  0
  1 30  1  0
  3 31  1  0
  3 32  1  0
  3 33  1  0
  6 34  1  1
  7 35  1  0
  7 36  1  0
  8 37  1  0
  8 38  1  0
  9 39  1  0
  9 40  1  0
 13 41  1  0
 13 42  1  0
 14 43  1  0
 18 44  1  0
 19 45  1  0
 21 46  1  0
 24 47  1  0
 25 48  1  0
M  END
>  <smiles>  (34) 
CN(C)C(=O)[C@@H]1CCCN1C(=O)CNC(=O)c1ccc2cc(F)ccc2n1

>  <score_type>  (34) 
oracle

>  <origin>  (34) 
autodockgpu

>  <m_score__min__energy>  (34) 
-7.6299999999999999

>  <m_primary>  (34) 
energy

>  <rmsd>  (34) 
1.8249648792927675

>  <m_score__min__rmsd>  (34) 
1.8249648792927675

>  <meeko>  (34) 
{"free_energy": -7.32, "intermolecular_energy": -8.81, "internal_energy": -1.86, "cluster_size": 26, "cluster_id": 1, "rank_in_cluster": 11}

>  <energy>  (34) 
-7.01

>  <cluster_rmsd>  (34) 
1.84

>  <cluster>  (34) 
2

$$$$

     RDKit          3D

 48 50  0  0  0  0  0  0  0  0999 V2000
  141.8210   72.6400  227.4500 C   0  0  0  0  0  0  0  0  0  0  0  0
  140.7880   71.6160  227.5460 N   0  0  0  0  0  0  0  0  0  0  0  0
  139.9110   71.6870  228.6960 C   0  0  0  0  0  0  0  0  0  0  0  0
  140.6950   70.6360  226.5430 C   0  0  0  0  0  0  0  0  0  0  0  0
  141.5170   70.6820  225.5950 O   0  0  0  0  0  0  0  0  0  0  0  0
  139.6350   69.5900  226.6480 C   0  0  2  0  0  0  0  0  0  0  0  0
  140.2530   68.3260  227.2040 C   0  0  0  0  0  0  0  0  0  0  0  0
  140.3310   67.3340  226.0650 C   0  0  0  0  0  0  0  0  0  0  0  0
  139.2080   67.7650  225.1770 C   0  0  0  0  0  0  0  0  0  0  0  0
  139.1440   69.2050  225.3410 N   0  0  0  0  0  0  0  0  0  0  0  0
  138.6700   70.1220  224.3640 C   0  0  0  0  0  0  0  0  0  0  0  0
  137.6110   70.7890  224.4930 O   0  0  0  0  0  0  0  0  0  0  0  0
  139.4320   70.3420  223.0960 C   0  0  0  0  0  0  0  0  0  0  0  0
  139.4670   71.7810  222.8790 N   0  0  0  0  0  0  0  0  0  0  0  0
  140.5170   72.3070  222.1080 C   0  0  0  0  0  0  0  0  0  0  0  0
  141.3780   71.4880  221.6430 O   0  0  0  0  0  0  0  0  0  0  0  0
  140.6260   73.7380  221.8440 C   0  0  0  0  0  0  0  0  0  0  0  0
  141.6890   74.2010  221.0720 C   0  0  0  0  0  0  0  0  0  0  0  0
  141.8100   75.5680  220.8080 C   0  0  0  0  0  0  0  0  0  0  0  0
  140.8660   76.4270  221.3230 C   0  0  0  0  0  0  0  0  0  0  0  0
  141.0130   77.7840  221.0430 C   0  0  0  0  0  0  0  0  0  0  0  0
  140.0690   78.6490  221.5570 C   0  0  0  0  0  0  0  0  0  0  0  0
  140.2200   79.9760  221.2800 F   0  0  0  0  0  0  0  0  0  0  0  0
  139.0300   78.1700  222.3150 C   0  0  0  0  0  0  0  0  0  0  0  0
  138.8740   76.8130  222.6010 C   0  0  0  0  0  0  0  0  0  0  0  0
  139.8200   75.9440  222.0860 C   0  0  0  0  0  0  0  0  0  0  0  0
  139.7140   74.6230  222.3340 N   0  0  0  0  0  0  0  0  0  0  0  0
  142.1293   72.9457  228.4607 H   0  0  0  0  0  0  0  0  0  0  0  0
  142.6889   72.2357  226.9084 H   0  0  0  0  0  0  0  0  0  0  0  0
  141.4243   73.5114  226.9084 H   0  0  0  0  0  0  0  0  0  0  0  0
  140.5099   71.6385  229.6174 H   0  0  0  0  0  0  0  0  0  0  0  0
  139.3509   72.6334  228.6721 H   0  0  0  0  0  0  0  0  0  0  0  0
  139.2060   70.8430  228.6721 H   0  0  0  0  0  0  0  0  0  0  0  0
  138.8300   70.0038  227.2731 H   0  0  0  0  0  0  0  0  0  0  0  0
  141.2609   68.5368  227.5910 H   0  0  0  0  0  0  0  0  0  0  0  0
  139.6502   67.9258  228.0326 H   0  0  0  0  0  0  0  0  0  0  0  0
  141.2975   67.4030  225.5443 H   0  0  0  0  0  0  0  0  0  0  0  0
  140.2520   66.2867  226.3919 H   0  0  0  0  0  0  0  0  0  0  0  0
  139.4183   67.5024  224.1297 H   0  0  0  0  0  0  0  0  0  0  0  0
  138.2589   67.2730  225.4360 H   0  0  0  0  0  0  0  0  0  0  0  0
  140.4542   69.9475  223.1936 H   0  0  0  0  0  0  0  0  0  0  0  0
  138.9556   69.8238  222.2507 H   0  0  0  0  0  0  0  0  0  0  0  0
  138.7600   72.4390  223.2630 H   0  0  0  0  0  0  0  0  0  0  0  0
  142.4302   73.4935  220.6718 H   0  0  0  0  0  0  0  0  0  0  0  0
  142.6436   75.9500  220.2004 H   0  0  0  0  0  0  0  0  0  0  0  0
  141.8516   78.1524  220.4340 H   0  0  0  0  0  0  0  0  0  0  0  0
  138.2922   78.8827  222.7122 H   0  0  0  0  0  0  0  0  0  0  0  0
  138.0338   76.4491  223.2106 H   0  0  0  0  0  0  0  0  0  0  0  0
  1  2  1  0
  2  3  1  0
  2  4  1  0
  4  5  2  0
  4  6  1  0
  6  7  1  0
  7  8  1  0
  8  9  1  0
  9 10  1  0
 10 11  1  0
 11 12  2  0
 11 13  1  0
 13 14  1  0
 14 15  1  0
 15 16  2  0
 15 17  1  0
 17 18  2  0
 18 19  1  0
 19 20  2  0
 20 21  1  0
 21 22  2  0
 22 23  1  0
 22 24  1  0
 24 25  2  0
 25 26  1  0
 26 27  2  0
 10  6  1  0
 27 17  1  0
 26 20  1  0
  1 28  1  0
  1 29  1  0
  1 30  1  0
  3 31  1  0
  3 32  1  0
  3 33  1  0
  6 34  1  1
  7 35  1  0
  7 36  1  0
  8 37  1  0
  8 38  1  0
  9 39  1  0
  9 40  1  0
 13 41  1  0
 13 42  1  0
 14 43  1  0
 18 44  1  0
 19 45  1  0
 21 46  1  0
 24 47  1  0
 25 48  1  0
M  END
>  <smiles>  (35) 
CN(C)C(=O)[C@@H]1CCCN1C(=O)CNC(=O)c1ccc2cc(F)ccc2n1

>  <score_type>  (35) 
oracle

>  <origin>  (35) 
autodockgpu

>  <m_score__min__energy>  (35) 
-7.6299999999999999

>  <m_primary>  (35) 
energy

>  <rmsd>  (35) 
8.775587627644718

>  <m_score__min__rmsd>  (35) 
8.775587627644718

>  <meeko>  (35) 
{"free_energy": -6.88, "intermolecular_energy": -8.37, "internal_energy": -2.08, "cluster_size": 4, "cluster_id": 4, "rank_in_cluster": 2}

>  <energy>  (35) 
-6.99

>  <cluster_rmsd>  (35) 
1.8

>  <cluster>  (35) 
2

$$$$

     RDKit          3D

 48 50  0  0  0  0  0  0  0  0999 V2000
  144.7690   73.0290  220.8440 C   0  0  0  0  0  0  0  0  0  0  0  0
  143.6190   73.5330  220.1010 N   0  0  0  0  0  0  0  0  0  0  0  0
  142.6530   72.5500  219.6590 C   0  0  0  0  0  0  0  0  0  0  0  0
  143.5090   74.9130  219.8580 C   0  0  0  0  0  0  0  0  0  0  0  0
  144.4150   75.6640  220.2940 O   0  0  0  0  0  0  0  0  0  0  0  0
  142.3290   75.4210  219.0970 C   0  0  2  0  0  0  0  0  0  0  0  0
  142.7720   76.5830  218.2340 C   0  0  0  0  0  0  0  0  0  0  0  0
  142.2020   77.8380  218.8570 C   0  0  0  0  0  0  0  0  0  0  0  0
  140.9830   77.3320  219.5590 C   0  0  0  0  0  0  0  0  0  0  0  0
  141.3360   75.9910  219.9840 N   0  0  0  0  0  0  0  0  0  0  0  0
  140.7920   75.3170  221.1120 C   0  0  0  0  0  0  0  0  0  0  0  0
  141.1060   75.5870  222.3000 O   0  0  0  0  0  0  0  0  0  0  0  0
  139.7900   74.2210  220.9320 C   0  0  0  0  0  0  0  0  0  0  0  0
  139.7300   73.5050  222.1990 N   0  0  0  0  0  0  0  0  0  0  0  0
  139.9150   72.1130  222.1780 C   0  0  0  0  0  0  0  0  0  0  0  0
  140.1260   71.5590  221.0480 O   0  0  0  0  0  0  0  0  0  0  0  0
  139.8700   71.3210  223.4030 C   0  0  0  0  0  0  0  0  0  0  0  0
  139.3160   70.0440  223.3580 C   0  0  0  0  0  0  0  0  0  0  0  0
  139.2640   69.2690  224.5200 C   0  0  0  0  0  0  0  0  0  0  0  0
  139.7670   69.7960  225.6890 C   0  0  0  0  0  0  0  0  0  0  0  0
  139.7020   69.0000  226.8310 C   0  0  0  0  0  0  0  0  0  0  0  0
  140.2050   69.5240  228.0040 C   0  0  0  0  0  0  0  0  0  0  0  0
  140.1370   68.7410  229.1180 F   0  0  0  0  0  0  0  0  0  0  0  0
  140.7470   70.7840  228.0240 C   0  0  0  0  0  0  0  0  0  0  0  0
  140.8170   71.5890  226.8860 C   0  0  0  0  0  0  0  0  0  0  0  0
  140.3130   71.0650  225.7090 C   0  0  0  0  0  0  0  0  0  0  0  0
  140.3570   71.8020  224.5800 N   0  0  0  0  0  0  0  0  0  0  0  0
  144.5743   73.1143  221.9233 H   0  0  0  0  0  0  0  0  0  0  0  0
  144.9394   71.9737  220.5845 H   0  0  0  0  0  0  0  0  0  0  0  0
  145.6604   73.6189  220.5845 H   0  0  0  0  0  0  0  0  0  0  0  0
  142.1863   72.0751  220.5346 H   0  0  0  0  0  0  0  0  0  0  0  0
  141.8787   73.0434  219.0532 H   0  0  0  0  0  0  0  0  0  0  0  0
  143.1599   71.7844  219.0532 H   0  0  0  0  0  0  0  0  0  0  0  0
  141.9190   74.5739  218.5275 H   0  0  0  0  0  0  0  0  0  0  0  0
  143.8703   76.6385  218.2096 H   0  0  0  0  0  0  0  0  0  0  0  0
  142.4175   76.4618  217.1998 H   0  0  0  0  0  0  0  0  0  0  0  0
  142.9120   78.2856  219.5679 H   0  0  0  0  0  0  0  0  0  0  0  0
  141.9867   78.6299  218.1245 H   0  0  0  0  0  0  0  0  0  0  0  0
  140.7441   77.9642  220.4269 H   0  0  0  0  0  0  0  0  0  0  0  0
  140.0936   77.3440  218.9118 H   0  0  0  0  0  0  0  0  0  0  0  0
  138.8043   74.6434  220.6869 H   0  0  0  0  0  0  0  0  0  0  0  0
  140.0769   73.5503  220.1087 H   0  0  0  0  0  0  0  0  0  0  0  0
  139.5590   73.9660  223.1130 H   0  0  0  0  0  0  0  0  0  0  0  0
  138.9208   69.6468  222.4114 H   0  0  0  0  0  0  0  0  0  0  0  0
  138.8301   68.2584  224.5013 H   0  0  0  0  0  0  0  0  0  0  0  0
  139.2656   67.9908  226.7984 H   0  0  0  0  0  0  0  0  0  0  0  0
  141.1416   71.1749  228.9734 H   0  0  0  0  0  0  0  0  0  0  0  0
  141.2545   72.5976  226.9234 H   0  0  0  0  0  0  0  0  0  0  0  0
  1  2  1  0
  2  3  1  0
  2  4  1  0
  4  5  2  0
  4  6  1  0
  6  7  1  0
  7  8  1  0
  8  9  1  0
  9 10  1  0
 10 11  1  0
 11 12  2  0
 11 13  1  0
 13 14  1  0
 14 15  1  0
 15 16  2  0
 15 17  1  0
 17 18  2  0
 18 19  1  0
 19 20  2  0
 20 21  1  0
 21 22  2  0
 22 23  1  0
 22 24  1  0
 24 25  2  0
 25 26  1  0
 26 27  2  0
 10  6  1  0
 27 17  1  0
 26 20  1  0
  1 28  1  0
  1 29  1  0
  1 30  1  0
  3 31  1  0
  3 32  1  0
  3 33  1  0
  6 34  1  6
  7 35  1  0
  7 36  1  0
  8 37  1  0
  8 38  1  0
  9 39  1  0
  9 40  1  0
 13 41  1  0
 13 42  1  0
 14 43  1  0
 18 44  1  0
 19 45  1  0
 21 46  1  0
 24 47  1  0
 25 48  1  0
M  END
>  <smiles>  (36) 
CN(C)C(=O)[C@@H]1CCCN1C(=O)CNC(=O)c1ccc2cc(F)ccc2n1

>  <score_type>  (36) 
oracle

>  <origin>  (36) 
autodockgpu

>  <m_score__min__energy>  (36) 
-7.6299999999999999

>  <m_primary>  (36) 
energy

>  <rmsd>  (36) 
2.8209283559654157

>  <m_score__min__rmsd>  (36) 
2.8209283559654157

>  <meeko>  (36) 
{"free_energy": -7.01, "intermolecular_energy": -8.51, "internal_energy": -2.05, "cluster_size": 17, "cluster_id": 2, "rank_in_cluster": 8}

>  <energy>  (36) 
-6.94

>  <cluster_rmsd>  (36) 
1.79

>  <cluster>  (36) 
2

$$$$

     RDKit          3D

 48 50  0  0  0  0  0  0  0  0999 V2000
  145.9600   73.5630  221.1980 C   0  0  0  0  0  0  0  0  0  0  0  0
  144.9980   73.7690  220.1210 N   0  0  0  0  0  0  0  0  0  0  0  0
  144.0260   74.8240  220.3150 C   0  0  0  0  0  0  0  0  0  0  0  0
  145.0600   72.9530  218.9780 C   0  0  0  0  0  0  0  0  0  0  0  0
  145.9500   72.0710  218.9300 O   0  0  0  0  0  0  0  0  0  0  0  0
  144.0700   73.1690  217.8810 C   0  0  2  0  0  0  0  0  0  0  0  0
  144.3890   74.4770  217.1900 C   0  0  0  0  0  0  0  0  0  0  0  0
  143.3130   75.4630  217.5930 C   0  0  0  0  0  0  0  0  0  0  0  0
  142.1470   74.5740  217.8820 C   0  0  0  0  0  0  0  0  0  0  0  0
  142.7340   73.3570  218.4070 N   0  0  0  0  0  0  0  0  0  0  0  0
  142.1000   72.4640  219.3140 C   0  0  0  0  0  0  0  0  0  0  0  0
  142.4000   71.2460  219.4140 O   0  0  0  0  0  0  0  0  0  0  0  0
  141.0100   72.9460  220.2170 C   0  0  0  0  0  0  0  0  0  0  0  0
  140.9310   71.9920  221.3140 N   0  0  0  0  0  0  0  0  0  0  0  0
  140.3510   72.4200  222.5200 C   0  0  0  0  0  0  0  0  0  0  0  0
  139.9260   73.6220  222.5800 O   0  0  0  0  0  0  0  0  0  0  0  0
  140.2330   71.5270  223.6680 C   0  0  0  0  0  0  0  0  0  0  0  0
  139.6290   70.2840  223.4940 C   0  0  0  0  0  0  0  0  0  0  0  0
  139.5060   69.4140  224.5810 C   0  0  0  0  0  0  0  0  0  0  0  0
  139.9920   69.8150  225.8060 C   0  0  0  0  0  0  0  0  0  0  0  0
  139.8560   68.9270  226.8720 C   0  0  0  0  0  0  0  0  0  0  0  0
  140.3410   69.3240  228.1010 C   0  0  0  0  0  0  0  0  0  0  0  0
  140.2040   68.4510  229.1390 F   0  0  0  0  0  0  0  0  0  0  0  0
  140.9320   70.5530  228.2480 C   0  0  0  0  0  0  0  0  0  0  0  0
  141.0730   71.4500  227.1870 C   0  0  0  0  0  0  0  0  0  0  0  0
  140.5870   71.0530  225.9540 C   0  0  0  0  0  0  0  0  0  0  0  0
  140.6990   71.8830  224.8960 N   0  0  0  0  0  0  0  0  0  0  0  0
  145.4531   73.6716  222.1682 H   0  0  0  0  0  0  0  0  0  0  0  0
  146.3881   72.5528  221.1190 H   0  0  0  0  0  0  0  0  0  0  0  0
  146.7642   74.3093  221.1190 H   0  0  0  0  0  0  0  0  0  0  0  0
  143.8740   74.9890  221.3919 H   0  0  0  0  0  0  0  0  0  0  0  0
  144.3932   75.7509  219.8503 H   0  0  0  0  0  0  0  0  0  0  0  0
  143.0722   74.5338  219.8503 H   0  0  0  0  0  0  0  0  0  0  0  0
  144.1205   72.2919  217.2190 H   0  0  0  0  0  0  0  0  0  0  0  0
  145.3758   74.8427  217.5100 H   0  0  0  0  0  0  0  0  0  0  0  0
  144.4152   74.3484  216.0979 H   0  0  0  0  0  0  0  0  0  0  0  0
  143.6100   76.0314  218.4867 H   0  0  0  0  0  0  0  0  0  0  0  0
  143.1046   76.2214  216.8239 H   0  0  0  0  0  0  0  0  0  0  0  0
  141.4817   75.0363  218.6261 H   0  0  0  0  0  0  0  0  0  0  0  0
  141.5333   74.3884  216.9882 H   0  0  0  0  0  0  0  0  0  0  0  0
  141.2501   73.9483  220.6014 H   0  0  0  0  0  0  0  0  0  0  0  0
  140.0518   73.0173  219.6816 H   0  0  0  0  0  0  0  0  0  0  0  0
  141.2790   71.0150  221.2540 H   0  0  0  0  0  0  0  0  0  0  0  0
  139.2501   69.9881  222.5046 H   0  0  0  0  0  0  0  0  0  0  0  0
  139.0308   68.4292  224.4607 H   0  0  0  0  0  0  0  0  0  0  0  0
  139.3790   67.9449  226.7380 H   0  0  0  0  0  0  0  0  0  0  0  0
  141.3094   70.8432  229.2396 H   0  0  0  0  0  0  0  0  0  0  0  0
  141.5505   72.4312  227.3258 H   0  0  0  0  0  0  0  0  0  0  0  0
  1  2  1  0
  2  3  1  0
  2  4  1  0
  4  5  2  0
  4  6  1  0
  6  7  1  0
  7  8  1  0
  8  9  1  0
  9 10  1  0
 10 11  1  0
 11 12  2  0
 11 13  1  0
 13 14  1  0
 14 15  1  0
 15 16  2  0
 15 17  1  0
 17 18  2  0
 18 19  1  0
 19 20  2  0
 20 21  1  0
 21 22  2  0
 22 23  1  0
 22 24  1  0
 24 25  2  0
 25 26  1  0
 26 27  2  0
 10  6  1  0
 27 17  1  0
 26 20  1  0
  1 28  1  0
  1 29  1  0
  1 30  1  0
  3 31  1  0
  3 32  1  0
  3 33  1  0
  6 34  1  6
  7 35  1  0
  7 36  1  0
  8 37  1  0
  8 38  1  0
  9 39  1  0
  9 40  1  0
 13 41  1  0
 13 42  1  0
 14 43  1  0
 18 44  1  0
 19 45  1  0
 21 46  1  0
 24 47  1  0
 25 48  1  0
M  END
>  <smiles>  (37) 
CN(C)C(=O)[C@@H]1CCCN1C(=O)CNC(=O)c1ccc2cc(F)ccc2n1

>  <score_type>  (37) 
oracle

>  <origin>  (37) 
autodockgpu

>  <m_score__min__energy>  (37) 
-7.6299999999999999

>  <m_primary>  (37) 
energy

>  <rmsd>  (37) 
3.8177259393438767

>  <m_score__min__rmsd>  (37) 
3.8177259393438767

>  <meeko>  (37) 
{"free_energy": -7.24, "intermolecular_energy": -8.73, "internal_energy": -1.33, "cluster_size": 17, "cluster_id": 2, "rank_in_cluster": 4}

>  <energy>  (37) 
-6.9

>  <cluster_rmsd>  (37) 
1.79

>  <cluster>  (37) 
2

$$$$

     RDKit          3D

 48 50  0  0  0  0  0  0  0  0999 V2000
  139.5600   79.9860  223.8000 C   0  0  0  0  0  0  0  0  0  0  0  0
  140.6090   79.2300  223.1250 N   0  0  0  0  0  0  0  0  0  0  0  0
  141.8280   79.0070  223.8720 C   0  0  0  0  0  0  0  0  0  0  0  0
  140.3890   78.7680  221.8150 C   0  0  0  0  0  0  0  0  0  0  0  0
  139.2880   79.0290  221.2740 O   0  0  0  0  0  0  0  0  0  0  0  0
  141.4690   77.9970  221.1300 C   0  0  2  0  0  0  0  0  0  0  0  0
  141.8270   78.7030  219.8400 C   0  0  0  0  0  0  0  0  0  0  0  0
  141.2800   77.8600  218.7090 C   0  0  0  0  0  0  0  0  0  0  0  0
  141.2700   76.4860  219.2990 C   0  0  0  0  0  0  0  0  0  0  0  0
  140.9970   76.6940  220.7080 N   0  0  0  0  0  0  0  0  0  0  0  0
  140.3550   75.7600  221.5660 C   0  0  0  0  0  0  0  0  0  0  0  0
  139.9280   76.0500  222.7130 O   0  0  0  0  0  0  0  0  0  0  0  0
  140.1530   74.3430  221.1310 C   0  0  0  0  0  0  0  0  0  0  0  0
  139.9440   73.5650  222.3430 N   0  0  0  0  0  0  0  0  0  0  0  0
  140.4030   72.2380  222.3630 C   0  0  0  0  0  0  0  0  0  0  0  0
  140.9780   71.7940  221.3140 O   0  0  0  0  0  0  0  0  0  0  0  0
  140.2320   71.3900  223.5380 C   0  0  0  0  0  0  0  0  0  0  0  0
  139.6020   70.1560  223.3920 C   0  0  0  0  0  0  0  0  0  0  0  0
  139.4290   69.3300  224.5060 C   0  0  0  0  0  0  0  0  0  0  0  0
  139.8930   69.7620  225.7280 C   0  0  0  0  0  0  0  0  0  0  0  0
  139.7070   68.9160  226.8200 C   0  0  0  0  0  0  0  0  0  0  0  0
  140.1690   69.3460  228.0470 C   0  0  0  0  0  0  0  0  0  0  0  0
  139.9840   68.5140  229.1110 F   0  0  0  0  0  0  0  0  0  0  0  0
  140.7880   70.5640  228.1660 C   0  0  0  0  0  0  0  0  0  0  0  0
  140.9790   71.4190  227.0790 C   0  0  0  0  0  0  0  0  0  0  0  0
  140.5150   70.9900  225.8480 C   0  0  0  0  0  0  0  0  0  0  0  0
  140.6760   71.7780  224.7650 N   0  0  0  0  0  0  0  0  0  0  0  0
  139.6857   79.8954  224.8890 H   0  0  0  0  0  0  0  0  0  0  0  0
  139.6267   81.0450  223.5100 H   0  0  0  0  0  0  0  0  0  0  0  0
  138.5765   79.5877  223.5100 H   0  0  0  0  0  0  0  0  0  0  0  0
  141.6102   79.0468  224.9495 H   0  0  0  0  0  0  0  0  0  0  0  0
  142.2386   78.0188  223.6172 H   0  0  0  0  0  0  0  0  0  0  0  0
  142.5619   79.7858  223.6172 H   0  0  0  0  0  0  0  0  0  0  0  0
  142.3074   77.9110  221.8368 H   0  0  0  0  0  0  0  0  0  0  0  0
  141.3728   79.7046  219.8187 H   0  0  0  0  0  0  0  0  0  0  0  0
  142.9163   78.8249  219.7480 H   0  0  0  0  0  0  0  0  0  0  0  0
  140.2649   78.1797  218.4309 H   0  0  0  0  0  0  0  0  0  0  0  0
  141.8708   77.9338  217.7840 H   0  0  0  0  0  0  0  0  0  0  0  0
  140.4831   75.8712  218.8377 H   0  0  0  0  0  0  0  0  0  0  0  0
  142.2182   75.9539  219.1323 H   0  0  0  0  0  0  0  0  0  0  0  0
  139.2731   74.2685  220.4751 H   0  0  0  0  0  0  0  0  0  0  0  0
  141.0206   73.9729  220.5651 H   0  0  0  0  0  0  0  0  0  0  0  0
  139.4740   73.9360  223.1920 H   0  0  0  0  0  0  0  0  0  0  0  0
  139.2422   69.8331  222.4039 H   0  0  0  0  0  0  0  0  0  0  0  0
  138.9318   68.3537  224.4083 H   0  0  0  0  0  0  0  0  0  0  0  0
  139.2100   67.9411  226.7077 H   0  0  0  0  0  0  0  0  0  0  0  0
  141.1480   70.8795  229.1564 H   0  0  0  0  0  0  0  0  0  0  0  0
  141.4773   72.3926  227.1962 H   0  0  0  0  0  0  0  0  0  0  0  0
  1  2  1  0
  2  3  1  0
  2  4  1  0
  4  5  2  0
  4  6  1  0
  6  7  1  0
  7  8  1  0
  8  9  1  0
  9 10  1  0
 10 11  1  0
 11 12  2  0
 11 13  1  0
 13 14  1  0
 14 15  1  0
 15 16  2  0
 15 17  1  0
 17 18  2  0
 18 19  1  0
 19 20  2  0
 20 21  1  0
 21 22  2  0
 22 23  1  0
 22 24  1  0
 24 25  2  0
 25 26  1  0
 26 27  2  0
 10  6  1  0
 27 17  1  0
 26 20  1  0
  1 28  1  0
  1 29  1  0
  1 30  1  0
  3 31  1  0
  3 32  1  0
  3 33  1  0
  6 34  1  1
  7 35  1  0
  7 36  1  0
  8 37  1  0
  8 38  1  0
  9 39  1  0
  9 40  1  0
 13 41  1  0
 13 42  1  0
 14 43  1  0
 18 44  1  0
 19 45  1  0
 21 46  1  0
 24 47  1  0
 25 48  1  0
M  END
>  <smiles>  (38) 
CN(C)C(=O)[C@@H]1CCCN1C(=O)CNC(=O)c1ccc2cc(F)ccc2n1

>  <score_type>  (38) 
oracle

>  <origin>  (38) 
autodockgpu

>  <m_score__min__energy>  (38) 
-7.6299999999999999

>  <m_primary>  (38) 
energy

>  <rmsd>  (38) 
1.8352189653743023

>  <m_score__min__rmsd>  (38) 
1.8352189653743023

>  <meeko>  (38) 
{"free_energy": -7.33, "intermolecular_energy": -8.82, "internal_energy": -1.88, "cluster_size": 26, "cluster_id": 1, "rank_in_cluster": 9}

>  <energy>  (38) 
-6.88

>  <cluster_rmsd>  (38) 
1.7

>  <cluster>  (38) 
2

$$$$

     RDKit          3D

 48 50  0  0  0  0  0  0  0  0999 V2000
  141.6590   78.6390  223.1560 C   0  0  0  0  0  0  0  0  0  0  0  0
  140.8190   78.0780  222.1030 N   0  0  0  0  0  0  0  0  0  0  0  0
  141.4830   77.7230  220.8670 C   0  0  0  0  0  0  0  0  0  0  0  0
  139.4430   77.9120  222.3360 C   0  0  0  0  0  0  0  0  0  0  0  0
  138.9870   78.2590  223.4520 O   0  0  0  0  0  0  0  0  0  0  0  0
  138.5910   77.3370  221.2540 C   0  0  2  0  0  0  0  0  0  0  0  0
  137.2570   78.0510  221.2550 C   0  0  0  0  0  0  0  0  0  0  0  0
  136.2350   77.0790  221.8040 C   0  0  0  0  0  0  0  0  0  0  0  0
  136.8230   75.7510  221.4500 C   0  0  0  0  0  0  0  0  0  0  0  0
  138.2570   75.9540  221.5250 N   0  0  0  0  0  0  0  0  0  0  0  0
  139.2140   74.9450  221.8240 C   0  0  0  0  0  0  0  0  0  0  0  0
  140.3380   75.1840  222.3360 O   0  0  0  0  0  0  0  0  0  0  0  0
  138.9190   73.5080  221.5330 C   0  0  0  0  0  0  0  0  0  0  0  0
  139.3200   72.7570  222.7140 N   0  0  0  0  0  0  0  0  0  0  0  0
  138.9150   71.4160  222.8120 C   0  0  0  0  0  0  0  0  0  0  0  0
  138.2190   70.9360  221.8570 O   0  0  0  0  0  0  0  0  0  0  0  0
  139.2750   70.5930  223.9630 C   0  0  0  0  0  0  0  0  0  0  0  0
  139.0240   69.2240  223.9150 C   0  0  0  0  0  0  0  0  0  0  0  0
  139.3610   68.4200  225.0070 C   0  0  0  0  0  0  0  0  0  0  0  0
  139.9380   69.0090  226.1090 C   0  0  0  0  0  0  0  0  0  0  0  0
  140.2640   68.1810  227.1830 C   0  0  0  0  0  0  0  0  0  0  0  0
  140.8430   68.7670  228.2890 C   0  0  0  0  0  0  0  0  0  0  0  0
  141.1580   67.9520  229.3360 F   0  0  0  0  0  0  0  0  0  0  0  0
  141.0810   70.1180  228.3130 C   0  0  0  0  0  0  0  0  0  0  0  0
  140.7590   70.9560  227.2440 C   0  0  0  0  0  0  0  0  0  0  0  0
  140.1780   70.3700  226.1330 C   0  0  0  0  0  0  0  0  0  0  0  0
  139.8480   71.1350  225.0720 N   0  0  0  0  0  0  0  0  0  0  0  0
  141.2477   78.3643  224.1385 H   0  0  0  0  0  0  0  0  0  0  0  0
  142.6801   78.2409  223.0617 H   0  0  0  0  0  0  0  0  0  0  0  0
  141.6825   79.7347  223.0617 H   0  0  0  0  0  0  0  0  0  0  0  0
  142.4323   77.2155  221.0934 H   0  0  0  0  0  0  0  0  0  0  0  0
  140.8372   77.0498  220.2841 H   0  0  0  0  0  0  0  0  0  0  0  0
  141.6842   78.6339  220.2841 H   0  0  0  0  0  0  0  0  0  0  0  0
  139.1498   77.4378  220.3119 H   0  0  0  0  0  0  0  0  0  0  0  0
  137.3080   78.9458  221.8928 H   0  0  0  0  0  0  0  0  0  0  0  0
  136.9846   78.3751  220.2398 H   0  0  0  0  0  0  0  0  0  0  0  0
  136.1286   77.1882  222.8934 H   0  0  0  0  0  0  0  0  0  0  0  0
  135.2243   77.2317  221.3976 H   0  0  0  0  0  0  0  0  0  0  0  0
  136.5019   74.9807  222.1666 H   0  0  0  0  0  0  0  0  0  0  0  0
  136.5022   75.4043  220.4566 H   0  0  0  0  0  0  0  0  0  0  0  0
  137.8442   73.3716  221.3426 H   0  0  0  0  0  0  0  0  0  0  0  0
  139.4603   73.1635  220.6395 H   0  0  0  0  0  0  0  0  0  0  0  0
  139.8880   73.1580  223.4860 H   0  0  0  0  0  0  0  0  0  0  0  0
  138.5627   68.7777  223.0217 H   0  0  0  0  0  0  0  0  0  0  0  0
  139.1688   67.3371  224.9863 H   0  0  0  0  0  0  0  0  0  0  0  0
  140.0664   67.0994  227.1491 H   0  0  0  0  0  0  0  0  0  0  0  0
  141.5433   70.5577  229.2091 H   0  0  0  0  0  0  0  0  0  0  0  0
  140.9587   72.0370  227.2831 H   0  0  0  0  0  0  0  0  0  0  0  0
  1  2  1  0
  2  3  1  0
  2  4  1  0
  4  5  2  0
  4  6  1  0
  6  7  1  0
  7  8  1  0
  8  9  1  0
  9 10  1  0
 10 11  1  0
 11 12  2  0
 11 13  1  0
 13 14  1  0
 14 15  1  0
 15 16  2  0
 15 17  1  0
 17 18  2  0
 18 19  1  0
 19 20  2  0
 20 21  1  0
 21 22  2  0
 22 23  1  0
 22 24  1  0
 24 25  2  0
 25 26  1  0
 26 27  2  0
 10  6  1  0
 27 17  1  0
 26 20  1  0
  1 28  1  0
  1 29  1  0
  1 30  1  0
  3 31  1  0
  3 32  1  0
  3 33  1  0
  6 34  1  6
  7 35  1  0
  7 36  1  0
  8 37  1  0
  8 38  1  0
  9 39  1  0
  9 40  1  0
 13 41  1  0
 13 42  1  0
 14 43  1  0
 18 44  1  0
 19 45  1  0
 21 46  1  0
 24 47  1  0
 25 48  1  0
M  END
>  <smiles>  (39) 
CN(C)C(=O)[C@@H]1CCCN1C(=O)CNC(=O)c1ccc2cc(F)ccc2n1

>  <score_type>  (39) 
oracle

>  <origin>  (39) 
autodockgpu

>  <m_score__min__energy>  (39) 
-7.6299999999999999

>  <m_primary>  (39) 
energy

>  <rmsd>  (39) 
2.5386215545565305

>  <m_score__min__rmsd>  (39) 
2.5386215545565305

>  <meeko>  (39) 
{"free_energy": -6.69, "intermolecular_energy": -8.19, "internal_energy": -1.86, "cluster_size": 26, "cluster_id": 1, "rank_in_cluster": 25}

>  <energy>  (39) 
-6.85

>  <cluster_rmsd>  (39) 
1.86

>  <cluster>  (39) 
2

$$$$

     RDKit          3D

 48 50  0  0  0  0  0  0  0  0999 V2000
  141.8010   72.6690  227.5810 C   0  0  0  0  0  0  0  0  0  0  0  0
  140.7460   71.6610  227.5650 N   0  0  0  0  0  0  0  0  0  0  0  0
  139.7800   71.7190  228.6410 C   0  0  0  0  0  0  0  0  0  0  0  0
  140.7200   70.7090  226.5310 C   0  0  0  0  0  0  0  0  0  0  0  0
  141.6170   70.7650  225.6550 O   0  0  0  0  0  0  0  0  0  0  0  0
  139.6380   69.6800  226.5230 C   0  0  2  0  0  0  0  0  0  0  0  0
  140.2230   68.3570  226.9660 C   0  0  0  0  0  0  0  0  0  0  0  0
  140.3000   67.4750  225.7390 C   0  0  0  0  0  0  0  0  0  0  0  0
  139.2000   68.0110  224.8800 C   0  0  0  0  0  0  0  0  0  0  0  0
  139.1610   69.4300  225.1780 N   0  0  0  0  0  0  0  0  0  0  0  0
  138.7210   70.4450  224.2850 C   0  0  0  0  0  0  0  0  0  0  0  0
  137.8870   71.3330  224.5990 O   0  0  0  0  0  0  0  0  0  0  0  0
  139.2450   70.5040  222.8850 C   0  0  0  0  0  0  0  0  0  0  0  0
  139.5420   71.9040  222.6150 N   0  0  0  0  0  0  0  0  0  0  0  0
  140.5970   72.1960  221.7340 C   0  0  0  0  0  0  0  0  0  0  0  0
  141.2320   71.2140  221.2230 O   0  0  0  0  0  0  0  0  0  0  0  0
  140.9590   73.5720  221.4100 C   0  0  0  0  0  0  0  0  0  0  0  0
  141.9400   73.8000  220.4470 C   0  0  0  0  0  0  0  0  0  0  0  0
  142.3010   75.1100  220.1230 C   0  0  0  0  0  0  0  0  0  0  0  0
  141.6710   76.1490  220.7690 C   0  0  0  0  0  0  0  0  0  0  0  0
  142.0510   77.4450  220.4250 C   0  0  0  0  0  0  0  0  0  0  0  0
  141.4220   78.4900  221.0700 C   0  0  0  0  0  0  0  0  0  0  0  0
  141.8000   79.7540  220.7290 F   0  0  0  0  0  0  0  0  0  0  0  0
  140.4590   78.2400  222.0150 C   0  0  0  0  0  0  0  0  0  0  0  0
  140.0700   76.9470  222.3680 C   0  0  0  0  0  0  0  0  0  0  0  0
  140.7000   75.8980  221.7210 C   0  0  0  0  0  0  0  0  0  0  0  0
  140.3610   74.6290  222.0250 N   0  0  0  0  0  0  0  0  0  0  0  0
  142.0579   72.9144  228.6220 H   0  0  0  0  0  0  0  0  0  0  0  0
  142.6907   72.2768  227.0665 H   0  0  0  0  0  0  0  0  0  0  0  0
  141.4497   73.5756  227.0665 H   0  0  0  0  0  0  0  0  0  0  0  0
  140.3050   71.6875  229.6071 H   0  0  0  0  0  0  0  0  0  0  0  0
  139.2042   72.6533  228.5669 H   0  0  0  0  0  0  0  0  0  0  0  0
  139.0966   70.8603  228.5669 H   0  0  0  0  0  0  0  0  0  0  0  0
  138.8312   70.0493  227.1731 H   0  0  0  0  0  0  0  0  0  0  0  0
  141.2285   68.5099  227.3852 H   0  0  0  0  0  0  0  0  0  0  0  0
  139.5999   67.8931  227.7448 H   0  0  0  0  0  0  0  0  0  0  0  0
  141.2758   67.5726  225.2408 H   0  0  0  0  0  0  0  0  0  0  0  0
  140.1955   66.4034  225.9642 H   0  0  0  0  0  0  0  0  0  0  0  0
  139.4219   67.8437  223.8157 H   0  0  0  0  0  0  0  0  0  0  0  0
  138.2375   67.5167  225.0782 H   0  0  0  0  0  0  0  0  0  0  0  0
  140.1581   69.8973  222.7948 H   0  0  0  0  0  0  0  0  0  0  0  0
  138.5115   70.1068  222.1679 H   0  0  0  0  0  0  0  0  0  0  0  0
  139.0180   72.6960  223.0360 H   0  0  0  0  0  0  0  0  0  0  0  0
  142.4280   72.9521  219.9441 H   0  0  0  0  0  0  0  0  0  0  0  0
  143.0742   75.3073  219.3659 H   0  0  0  0  0  0  0  0  0  0  0  0
  142.8254   77.6284  219.6657 H   0  0  0  0  0  0  0  0  0  0  0  0
  139.9745   79.0922  222.5140 H   0  0  0  0  0  0  0  0  0  0  0  0
  139.2953   76.7690  223.1284 H   0  0  0  0  0  0  0  0  0  0  0  0
  1  2  1  0
  2  3  1  0
  2  4  1  0
  4  5  2  0
  4  6  1  0
  6  7  1  0
  7  8  1  0
  8  9  1  0
  9 10  1  0
 10 11  1  0
 11 12  2  0
 11 13  1  0
 13 14  1  0
 14 15  1  0
 15 16  2  0
 15 17  1  0
 17 18  2  0
 18 19  1  0
 19 20  2  0
 20 21  1  0
 21 22  2  0
 22 23  1  0
 22 24  1  0
 24 25  2  0
 25 26  1  0
 26 27  2  0
 10  6  1  0
 27 17  1  0
 26 20  1  0
  1 28  1  0
  1 29  1  0
  1 30  1  0
  3 31  1  0
  3 32  1  0
  3 33  1  0
  6 34  1  1
  7 35  1  0
  7 36  1  0
  8 37  1  0
  8 38  1  0
  9 39  1  0
  9 40  1  0
 13 41  1  0
 13 42  1  0
 14 43  1  0
 18 44  1  0
 19 45  1  0
 21 46  1  0
 24 47  1  0
 25 48  1  0
M  END
>  <smiles>  (40) 
CN(C)C(=O)[C@@H]1CCCN1C(=O)CNC(=O)c1ccc2cc(F)ccc2n1

>  <score_type>  (40) 
oracle

>  <origin>  (40) 
autodockgpu

>  <m_score__min__energy>  (40) 
-7.6299999999999999

>  <m_primary>  (40) 
energy

>  <rmsd>  (40) 
8.69942995948375

>  <m_score__min__rmsd>  (40) 
8.69942995948375

>  <meeko>  (40) 
{"free_energy": -6.7, "intermolecular_energy": -8.19, "internal_energy": -2.05, "cluster_size": 4, "cluster_id": 4, "rank_in_cluster": 3}

>  <energy>  (40) 
-6.81

>  <cluster_rmsd>  (40) 
1.81

>  <cluster>  (40) 
2

$$$$

     RDKit          3D

 48 50  0  0  0  0  0  0  0  0999 V2000
  144.7840   73.1970  220.8070 C   0  0  0  0  0  0  0  0  0  0  0  0
  143.6170   73.6890  220.0850 N   0  0  0  0  0  0  0  0  0  0  0  0
  142.6270   72.7030  219.7050 C   0  0  0  0  0  0  0  0  0  0  0  0
  143.5120   75.0620  219.8020 C   0  0  0  0  0  0  0  0  0  0  0  0
  144.4390   75.8160  220.1850 O   0  0  0  0  0  0  0  0  0  0  0  0
  142.3140   75.5590  219.0620 C   0  0  2  0  0  0  0  0  0  0  0  0
  142.7240   76.7430  218.2130 C   0  0  0  0  0  0  0  0  0  0  0  0
  142.1360   77.9770  218.8630 C   0  0  0  0  0  0  0  0  0  0  0  0
  140.9360   77.4350  219.5700 C   0  0  0  0  0  0  0  0  0  0  0  0
  141.3200   76.0940  219.9690 N   0  0  0  0  0  0  0  0  0  0  0  0
  140.8020   75.3920  221.0920 C   0  0  0  0  0  0  0  0  0  0  0  0
  141.1170   75.6570  222.2820 O   0  0  0  0  0  0  0  0  0  0  0  0
  139.8310   74.2710  220.9050 C   0  0  0  0  0  0  0  0  0  0  0  0
  139.7760   73.5560  222.1720 N   0  0  0  0  0  0  0  0  0  0  0  0
  139.9440   72.1620  222.1510 C   0  0  0  0  0  0  0  0  0  0  0  0
  140.1360   71.6050  221.0180 O   0  0  0  0  0  0  0  0  0  0  0  0
  139.9040   71.3700  223.3760 C   0  0  0  0  0  0  0  0  0  0  0  0
  139.3480   70.0940  223.3340 C   0  0  0  0  0  0  0  0  0  0  0  0
  139.3000   69.3210  224.4970 C   0  0  0  0  0  0  0  0  0  0  0  0
  139.8090   69.8470  225.6630 C   0  0  0  0  0  0  0  0  0  0  0  0
  139.7470   69.0530  226.8070 C   0  0  0  0  0  0  0  0  0  0  0  0
  140.2560   69.5760  227.9770 C   0  0  0  0  0  0  0  0  0  0  0  0
  140.1920   68.7940  229.0920 F   0  0  0  0  0  0  0  0  0  0  0  0
  140.8000   70.8360  227.9940 C   0  0  0  0  0  0  0  0  0  0  0  0
  140.8660   71.6400  226.8540 C   0  0  0  0  0  0  0  0  0  0  0  0
  140.3560   71.1160  225.6800 C   0  0  0  0  0  0  0  0  0  0  0  0
  140.3970   71.8520  224.5500 N   0  0  0  0  0  0  0  0  0  0  0  0
  144.6042   73.2728  221.8896 H   0  0  0  0  0  0  0  0  0  0  0  0
  144.9652   72.1459  220.5381 H   0  0  0  0  0  0  0  0  0  0  0  0
  145.6631   73.8011  220.5381 H   0  0  0  0  0  0  0  0  0  0  0  0
  142.1835   72.2613  220.6095 H   0  0  0  0  0  0  0  0  0  0  0  0
  141.8389   73.1857  219.1084 H   0  0  0  0  0  0  0  0  0  0  0  0
  143.1065   71.9130  219.1084 H   0  0  0  0  0  0  0  0  0  0  0  0
  141.9147   74.7134  218.4828 H   0  0  0  0  0  0  0  0  0  0  0  0
  143.8207   76.8208  218.1773 H   0  0  0  0  0  0  0  0  0  0  0  0
  142.3603   76.6313  217.1809 H   0  0  0  0  0  0  0  0  0  0  0  0
  142.8451   78.4275  219.5731 H   0  0  0  0  0  0  0  0  0  0  0  0
  141.8966   78.7762  218.1461 H   0  0  0  0  0  0  0  0  0  0  0  0
  140.6947   78.0480  220.4509 H   0  0  0  0  0  0  0  0  0  0  0  0
  140.0394   77.4396  218.9328 H   0  0  0  0  0  0  0  0  0  0  0  0
  138.8374   74.6676  220.6491 H   0  0  0  0  0  0  0  0  0  0  0  0
  140.1438   73.6062  220.0864 H   0  0  0  0  0  0  0  0  0  0  0  0
  139.6200   74.0200  223.0890 H   0  0  0  0  0  0  0  0  0  0  0  0
  138.9484   69.6963  222.3895 H   0  0  0  0  0  0  0  0  0  0  0  0
  138.8638   68.3113  224.4812 H   0  0  0  0  0  0  0  0  0  0  0  0
  139.3076   68.0450  226.7775 H   0  0  0  0  0  0  0  0  0  0  0  0
  141.1991   71.2274  228.9414 H   0  0  0  0  0  0  0  0  0  0  0  0
  141.3052   72.6479  226.8884 H   0  0  0  0  0  0  0  0  0  0  0  0
  1  2  1  0
  2  3  1  0
  2  4  1  0
  4  5  2  0
  4  6  1  0
  6  7  1  0
  7  8  1  0
  8  9  1  0
  9 10  1  0
 10 11  1  0
 11 12  2  0
 11 13  1  0
 13 14  1  0
 14 15  1  0
 15 16  2  0
 15 17  1  0
 17 18  2  0
 18 19  1  0
 19 20  2  0
 20 21  1  0
 21 22  2  0
 22 23  1  0
 22 24  1  0
 24 25  2  0
 25 26  1  0
 26 27  2  0
 10  6  1  0
 27 17  1  0
 26 20  1  0
  1 28  1  0
  1 29  1  0
  1 30  1  0
  3 31  1  0
  3 32  1  0
  3 33  1  0
  6 34  1  6
  7 35  1  0
  7 36  1  0
  8 37  1  0
  8 38  1  0
  9 39  1  0
  9 40  1  0
 13 41  1  0
 13 42  1  0
 14 43  1  0
 18 44  1  0
 19 45  1  0
 21 46  1  0
 24 47  1  0
 25 48  1  0
M  END
>  <smiles>  (41) 
CN(C)C(=O)[C@@H]1CCCN1C(=O)CNC(=O)c1ccc2cc(F)ccc2n1

>  <score_type>  (41) 
oracle

>  <origin>  (41) 
autodockgpu

>  <m_score__min__energy>  (41) 
-7.6299999999999999

>  <m_primary>  (41) 
energy

>  <rmsd>  (41) 
2.805553165009022

>  <m_score__min__rmsd>  (41) 
2.805553165009022

>  <meeko>  (41) 
{"free_energy": -7.02, "intermolecular_energy": -8.51, "internal_energy": -2.06, "cluster_size": 17, "cluster_id": 2, "rank_in_cluster": 7}

>  <energy>  (41) 
-6.8

>  <cluster_rmsd>  (41) 
1.65

>  <cluster>  (41) 
2

$$$$

     RDKit          3D

 48 50  0  0  0  0  0  0  0  0999 V2000
  136.3420   68.8550  223.1320 C   0  0  0  0  0  0  0  0  0  0  0  0
  137.7130   68.5350  223.5130 N   0  0  0  0  0  0  0  0  0  0  0  0
  138.5370   67.9110  222.5000 C   0  0  0  0  0  0  0  0  0  0  0  0
  138.1550   68.8400  224.8120 C   0  0  0  0  0  0  0  0  0  0  0  0
  137.3420   69.3800  225.6000 O   0  0  0  0  0  0  0  0  0  0  0  0
  139.5590   68.5070  225.1950 C   0  0  2  0  0  0  0  0  0  0  0  0
  139.5300   67.5590  226.3740 C   0  0  0  0  0  0  0  0  0  0  0  0
  139.9800   68.3460  227.5850 C   0  0  0  0  0  0  0  0  0  0  0  0
  140.8530   69.4010  226.9850 C   0  0  0  0  0  0  0  0  0  0  0  0
  140.2590   69.6740  225.6910 N   0  0  0  0  0  0  0  0  0  0  0  0
  140.3430   70.9110  224.9940 C   0  0  0  0  0  0  0  0  0  0  0  0
  140.7310   71.9840  225.5270 O   0  0  0  0  0  0  0  0  0  0  0  0
  139.9610   70.9980  223.5510 C   0  0  0  0  0  0  0  0  0  0  0  0
  140.2210   72.3700  223.1370 N   0  0  0  0  0  0  0  0  0  0  0  0
  140.8680   72.5760  221.9070 C   0  0  0  0  0  0  0  0  0  0  0  0
  141.1880   71.5450  221.2260 O   0  0  0  0  0  0  0  0  0  0  0  0
  141.1660   73.9180  221.4190 C   0  0  0  0  0  0  0  0  0  0  0  0
  141.9640   74.0600  220.2860 C   0  0  0  0  0  0  0  0  0  0  0  0
  142.2610   75.3370  219.8030 C   0  0  0  0  0  0  0  0  0  0  0  0
  141.7500   76.4300  220.4660 C   0  0  0  0  0  0  0  0  0  0  0  0
  142.0630   77.6910  219.9610 C   0  0  0  0  0  0  0  0  0  0  0  0
  141.5530   78.7890  220.6220 C   0  0  0  0  0  0  0  0  0  0  0  0
  141.8640   80.0190  220.1230 F   0  0  0  0  0  0  0  0  0  0  0  0
  140.7690   78.6250  221.7360 C   0  0  0  0  0  0  0  0  0  0  0  0
  140.4500   77.3670  222.2510 C   0  0  0  0  0  0  0  0  0  0  0  0
  140.9600   76.2640  221.5880 C   0  0  0  0  0  0  0  0  0  0  0  0
  140.6810   75.0260  222.0440 N   0  0  0  0  0  0  0  0  0  0  0  0
  135.7335   68.9970  224.0373 H   0  0  0  0  0  0  0  0  0  0  0  0
  136.3334   69.7793  222.5357 H   0  0  0  0  0  0  0  0  0  0  0  0
  135.9251   68.0300  222.5357 H   0  0  0  0  0  0  0  0  0  0  0  0
  139.3245   67.3147  222.9840 H   0  0  0  0  0  0  0  0  0  0  0  0
  137.9142   67.2560  221.8730 H   0  0  0  0  0  0  0  0  0  0  0  0
  138.9986   68.6880  221.8730 H   0  0  0  0  0  0  0  0  0  0  0  0
  140.0504   68.0921  224.3026 H   0  0  0  0  0  0  0  0  0  0  0  0
  138.5093   67.1790  226.5282 H   0  0  0  0  0  0  0  0  0  0  0  0
  140.1887   66.6954  226.1998 H   0  0  0  0  0  0  0  0  0  0  0  0
  139.1221   68.7920  228.1095 H   0  0  0  0  0  0  0  0  0  0  0  0
  140.4933   67.7314  228.3392 H   0  0  0  0  0  0  0  0  0  0  0  0
  140.8545   70.3059  227.6104 H   0  0  0  0  0  0  0  0  0  0  0  0
  141.9015   69.0784  226.9033 H   0  0  0  0  0  0  0  0  0  0  0  0
  140.5667   70.2998  222.9547 H   0  0  0  0  0  0  0  0  0  0  0  0
  138.9044   70.7308  223.4021 H   0  0  0  0  0  0  0  0  0  0  0  0
  139.9550   73.2010  223.6990 H   0  0  0  0  0  0  0  0  0  0  0  0
  142.3588   73.1703  219.7736 H   0  0  0  0  0  0  0  0  0  0  0  0
  142.8908   75.4665  218.9105 H   0  0  0  0  0  0  0  0  0  0  0  0
  142.6941   77.8063  219.0674 H   0  0  0  0  0  0  0  0  0  0  0  0
  140.3767   79.5190  222.2429 H   0  0  0  0  0  0  0  0  0  0  0  0
  139.8199   77.2570  223.1459 H   0  0  0  0  0  0  0  0  0  0  0  0
  1  2  1  0
  2  3  1  0
  2  4  1  0
  4  5  2  0
  4  6  1  0
  6  7  1  0
  7  8  1  0
  8  9  1  0
  9 10  1  0
 10 11  1  0
 11 12  2  0
 11 13  1  0
 13 14  1  0
 14 15  1  0
 15 16  2  0
 15 17  1  0
 17 18  2  0
 18 19  1  0
 19 20  2  0
 20 21  1  0
 21 22  2  0
 22 23  1  0
 22 24  1  0
 24 25  2  0
 25 26  1  0
 26 27  2  0
 10  6  1  0
 27 17  1  0
 26 20  1  0
  1 28  1  0
  1 29  1  0
  1 30  1  0
  3 31  1  0
  3 32  1  0
  3 33  1  0
  6 34  1  6
  7 35  1  0
  7 36  1  0
  8 37  1  0
  8 38  1  0
  9 39  1  0
  9 40  1  0
 13 41  1  0
 13 42  1  0
 14 43  1  0
 18 44  1  0
 19 45  1  0
 21 46  1  0
 24 47  1  0
 25 48  1  0
M  END
>  <smiles>  (42) 
CN(C)C(=O)[C@@H]1CCCN1C(=O)CNC(=O)c1ccc2cc(F)ccc2n1

>  <score_type>  (42) 
oracle

>  <origin>  (42) 
autodockgpu

>  <m_score__min__energy>  (42) 
-7.6299999999999999

>  <m_primary>  (42) 
energy

>  <rmsd>  (42) 
9.286209986721033

>  <m_score__min__rmsd>  (42) 
9.286209986721033

>  <meeko>  (42) 
{"free_energy": -6.52, "intermolecular_energy": -8.01, "internal_energy": -1.94, "cluster_size": 4, "cluster_id": 4, "rank_in_cluster": 4}

>  <energy>  (42) 
-6.76

>  <cluster_rmsd>  (42) 
1.37

>  <cluster>  (42) 
2

$$$$

     RDKit          3D

 48 50  0  0  0  0  0  0  0  0999 V2000
  140.5600   80.4990  223.5100 C   0  0  0  0  0  0  0  0  0  0  0  0
  141.4120   79.7060  222.6310 N   0  0  0  0  0  0  0  0  0  0  0  0
  142.8400   79.9110  222.7570 C   0  0  0  0  0  0  0  0  0  0  0  0
  140.8200   78.8050  221.7280 C   0  0  0  0  0  0  0  0  0  0  0  0
  139.5690   78.7200  221.7150 O   0  0  0  0  0  0  0  0  0  0  0  0
  141.6990   77.9980  220.8310 C   0  0  2  0  0  0  0  0  0  0  0  0
  141.8250   78.7130  219.5030 C   0  0  0  0  0  0  0  0  0  0  0  0
  141.0200   77.9190  218.4970 C   0  0  0  0  0  0  0  0  0  0  0  0
  141.0600   76.5360  219.0620 C   0  0  0  0  0  0  0  0  0  0  0  0
  141.0880   76.7280  220.4990 N   0  0  0  0  0  0  0  0  0  0  0  0
  140.5860   75.8080  221.4600 C   0  0  0  0  0  0  0  0  0  0  0  0
  140.4670   76.0760  222.6830 O   0  0  0  0  0  0  0  0  0  0  0  0
  140.1650   74.4330  221.0470 C   0  0  0  0  0  0  0  0  0  0  0  0
  139.9680   73.6760  222.2750 N   0  0  0  0  0  0  0  0  0  0  0  0
  140.3730   72.3310  222.2930 C   0  0  0  0  0  0  0  0  0  0  0  0
  140.8920   71.8540  221.2290 O   0  0  0  0  0  0  0  0  0  0  0  0
  140.2110   71.5020  223.4830 C   0  0  0  0  0  0  0  0  0  0  0  0
  139.5440   70.2850  223.3690 C   0  0  0  0  0  0  0  0  0  0  0  0
  139.3780   69.4770  224.4970 C   0  0  0  0  0  0  0  0  0  0  0  0
  139.8840   69.9110  225.7010 C   0  0  0  0  0  0  0  0  0  0  0  0
  139.7050   69.0840  226.8090 C   0  0  0  0  0  0  0  0  0  0  0  0
  140.2100   69.5150  228.0180 C   0  0  0  0  0  0  0  0  0  0  0  0
  140.0300   68.7010  229.0970 F   0  0  0  0  0  0  0  0  0  0  0  0
  140.8650   70.7180  228.1050 C   0  0  0  0  0  0  0  0  0  0  0  0
  141.0500   71.5540  227.0030 C   0  0  0  0  0  0  0  0  0  0  0  0
  140.5430   71.1230  225.7900 C   0  0  0  0  0  0  0  0  0  0  0  0
  140.6970   71.8930  224.6930 N   0  0  0  0  0  0  0  0  0  0  0  0
  140.8033   80.2725  224.5586 H   0  0  0  0  0  0  0  0  0  0  0  0
  140.7290   81.5687  223.3172 H   0  0  0  0  0  0  0  0  0  0  0  0
  139.5052   80.2538  223.3172 H   0  0  0  0  0  0  0  0  0  0  0  0
  143.1122   79.9501  223.8221 H   0  0  0  0  0  0  0  0  0  0  0  0
  143.3739   79.0803  222.2723 H   0  0  0  0  0  0  0  0  0  0  0  0
  143.1186   80.8584  222.2723 H   0  0  0  0  0  0  0  0  0  0  0  0
  142.6568   77.8577  221.3534 H   0  0  0  0  0  0  0  0  0  0  0  0
  141.4261   79.7349  219.5844 H   0  0  0  0  0  0  0  0  0  0  0  0
  142.8782   78.7863  219.1941 H   0  0  0  0  0  0  0  0  0  0  0  0
  139.9870   78.2915  218.4329 H   0  0  0  0  0  0  0  0  0  0  0  0
  141.4158   77.9836  217.4727 H   0  0  0  0  0  0  0  0  0  0  0  0
  140.1661   75.9687  218.7635 H   0  0  0  0  0  0  0  0  0  0  0  0
  141.9268   75.9631  218.7010 H   0  0  0  0  0  0  0  0  0  0  0  0
  139.2272   74.4786  220.4738 H   0  0  0  0  0  0  0  0  0  0  0  0
  140.9229   73.9604  220.4050 H   0  0  0  0  0  0  0  0  0  0  0  0
  139.5440   74.0740  223.1360 H   0  0  0  0  0  0  0  0  0  0  0  0
  139.1493   69.9609  222.3948 H   0  0  0  0  0  0  0  0  0  0  0  0
  138.8532   68.5130  224.4240 H   0  0  0  0  0  0  0  0  0  0  0  0
  139.1795   68.1216  226.7221 H   0  0  0  0  0  0  0  0  0  0  0  0
  141.2595   71.0356  229.0815 H   0  0  0  0  0  0  0  0  0  0  0  0
  141.5768   72.5153  227.0949 H   0  0  0  0  0  0  0  0  0  0  0  0
  1  2  1  0
  2  3  1  0
  2  4  1  0
  4  5  2  0
  4  6  1  0
  6  7  1  0
  7  8  1  0
  8  9  1  0
  9 10  1  0
 10 11  1  0
 11 12  2  0
 11 13  1  0
 13 14  1  0
 14 15  1  0
 15 16  2  0
 15 17  1  0
 17 18  2  0
 18 19  1  0
 19 20  2  0
 20 21  1  0
 21 22  2  0
 22 23  1  0
 22 24  1  0
 24 25  2  0
 25 26  1  0
 26 27  2  0
 10  6  1  0
 27 17  1  0
 26 20  1  0
  1 28  1  0
  1 29  1  0
  1 30  1  0
  3 31  1  0
  3 32  1  0
  3 33  1  0
  6 34  1  1
  7 35  1  0
  7 36  1  0
  8 37  1  0
  8 38  1  0
  9 39  1  0
  9 40  1  0
 13 41  1  0
 13 42  1  0
 14 43  1  0
 18 44  1  0
 19 45  1  0
 21 46  1  0
 24 47  1  0
 25 48  1  0
M  END
>  <smiles>  (43) 
CN(C)C(=O)[C@@H]1CCCN1C(=O)CNC(=O)c1ccc2cc(F)ccc2n1

>  <score_type>  (43) 
oracle

>  <origin>  (43) 
autodockgpu

>  <m_score__min__energy>  (43) 
-7.6299999999999999

>  <m_primary>  (43) 
energy

>  <rmsd>  (43) 
1.769199264713472

>  <m_score__min__rmsd>  (43) 
1.769199264713472

>  <meeko>  (43) 
{"free_energy": -7.32, "intermolecular_energy": -8.82, "internal_energy": -1.8, "cluster_size": 26, "cluster_id": 1, "rank_in_cluster": 10}

>  <energy>  (43) 
-6.74

>  <cluster_rmsd>  (43) 
1.42

>  <cluster>  (43) 
2

$$$$

     RDKit          3D

 48 50  0  0  0  0  0  0  0  0999 V2000
  145.0760   73.7780  220.8400 C   0  0  0  0  0  0  0  0  0  0  0  0
  143.8440   73.9400  220.0750 N   0  0  0  0  0  0  0  0  0  0  0  0
  143.1280   72.7280  219.7380 C   0  0  0  0  0  0  0  0  0  0  0  0
  143.4250   75.2320  219.7130 C   0  0  0  0  0  0  0  0  0  0  0  0
  144.1360   76.2040  220.0650 O   0  0  0  0  0  0  0  0  0  0  0  0
  142.1640   75.3890  218.9290 C   0  0  2  0  0  0  0  0  0  0  0  0
  142.3300   76.5480  217.9690 C   0  0  0  0  0  0  0  0  0  0  0  0
  141.4810   77.6840  218.4980 C   0  0  0  0  0  0  0  0  0  0  0  0
  140.4090   76.9670  219.2540 C   0  0  0  0  0  0  0  0  0  0  0  0
  141.0610   75.7830  219.7800 N   0  0  0  0  0  0  0  0  0  0  0  0
  140.6820   75.0960  220.9660 C   0  0  0  0  0  0  0  0  0  0  0  0
  141.2610   75.2480  222.0730 O   0  0  0  0  0  0  0  0  0  0  0  0
  139.5410   74.1280  220.9510 C   0  0  0  0  0  0  0  0  0  0  0  0
  139.5900   73.4140  222.2190 N   0  0  0  0  0  0  0  0  0  0  0  0
  139.6600   72.0110  222.1830 C   0  0  0  0  0  0  0  0  0  0  0  0
  139.6770   71.4480  221.0380 O   0  0  0  0  0  0  0  0  0  0  0  0
  139.7120   71.2190  223.4080 C   0  0  0  0  0  0  0  0  0  0  0  0
  139.1890   69.9290  223.3970 C   0  0  0  0  0  0  0  0  0  0  0  0
  139.2290   69.1550  224.5600 C   0  0  0  0  0  0  0  0  0  0  0  0
  139.7910   69.6950  225.6940 C   0  0  0  0  0  0  0  0  0  0  0  0
  139.8180   68.8990  226.8390 C   0  0  0  0  0  0  0  0  0  0  0  0
  140.3800   69.4370  227.9780 C   0  0  0  0  0  0  0  0  0  0  0  0
  140.4020   68.6540  229.0940 F   0  0  0  0  0  0  0  0  0  0  0  0
  140.8900   70.7110  227.9650 C   0  0  0  0  0  0  0  0  0  0  0  0
  140.8680   71.5160  226.8240 C   0  0  0  0  0  0  0  0  0  0  0  0
  140.3040   70.9780  225.6810 C   0  0  0  0  0  0  0  0  0  0  0  0
  140.2590   71.7150  224.5520 N   0  0  0  0  0  0  0  0  0  0  0  0
  144.8465   73.8082  221.9154 H   0  0  0  0  0  0  0  0  0  0  0  0
  145.5380   72.8114  220.5906 H   0  0  0  0  0  0  0  0  0  0  0  0
  145.7722   74.5923  220.5906 H   0  0  0  0  0  0  0  0  0  0  0  0
  142.8238   72.2131  220.6612 H   0  0  0  0  0  0  0  0  0  0  0  0
  142.2347   72.9817  219.1483 H   0  0  0  0  0  0  0  0  0  0  0  0
  143.7813   72.0681  219.1483 H   0  0  0  0  0  0  0  0  0  0  0  0
  141.9655   74.4265  218.4348 H   0  0  0  0  0  0  0  0  0  0  0  0
  143.3857   76.8539  217.9247 H   0  0  0  0  0  0  0  0  0  0  0  0
  142.0185   76.2645  216.9528 H   0  0  0  0  0  0  0  0  0  0  0  0
  142.0640   78.3395  219.1616 H   0  0  0  0  0  0  0  0  0  0  0  0
  141.0923   78.3435  217.7081 H   0  0  0  0  0  0  0  0  0  0  0  0
  140.0247   77.5943  220.0718 H   0  0  0  0  0  0  0  0  0  0  0  0
  139.5451   76.7201  218.6194 H   0  0  0  0  0  0  0  0  0  0  0  0
  138.5867   74.6665  220.8544 H   0  0  0  0  0  0  0  0  0  0  0  0
  139.6176   73.4349  220.1002 H   0  0  0  0  0  0  0  0  0  0  0  0
  139.5760   73.8830  223.1460 H   0  0  0  0  0  0  0  0  0  0  0  0
  138.7460   69.5205  222.4767 H   0  0  0  0  0  0  0  0  0  0  0  0
  138.8193   68.1342  224.5687 H   0  0  0  0  0  0  0  0  0  0  0  0
  139.4060   67.8791  226.8339 H   0  0  0  0  0  0  0  0  0  0  0  0
  141.3328   71.1133  228.8881 H   0  0  0  0  0  0  0  0  0  0  0  0
  141.2818   72.5352  226.8337 H   0  0  0  0  0  0  0  0  0  0  0  0
  1  2  1  0
  2  3  1  0
  2  4  1  0
  4  5  2  0
  4  6  1  0
  6  7  1  0
  7  8  1  0
  8  9  1  0
  9 10  1  0
 10 11  1  0
 11 12  2  0
 11 13  1  0
 13 14  1  0
 14 15  1  0
 15 16  2  0
 15 17  1  0
 17 18  2  0
 18 19  1  0
 19 20  2  0
 20 21  1  0
 21 22  2  0
 22 23  1  0
 22 24  1  0
 24 25  2  0
 25 26  1  0
 26 27  2  0
 10  6  1  0
 27 17  1  0
 26 20  1  0
  1 28  1  0
  1 29  1  0
  1 30  1  0
  3 31  1  0
  3 32  1  0
  3 33  1  0
  6 34  1  6
  7 35  1  0
  7 36  1  0
  8 37  1  0
  8 38  1  0
  9 39  1  0
  9 40  1  0
 13 41  1  0
 13 42  1  0
 14 43  1  0
 18 44  1  0
 19 45  1  0
 21 46  1  0
 24 47  1  0
 25 48  1  0
M  END
>  <smiles>  (44) 
CN(C)C(=O)[C@@H]1CCCN1C(=O)CNC(=O)c1ccc2cc(F)ccc2n1

>  <score_type>  (44) 
oracle

>  <origin>  (44) 
autodockgpu

>  <m_score__min__energy>  (44) 
-7.6299999999999999

>  <m_primary>  (44) 
energy

>  <rmsd>  (44) 
2.562236614719023

>  <m_score__min__rmsd>  (44) 
2.562236614719023

>  <meeko>  (44) 
{"free_energy": -6.85, "intermolecular_energy": -8.34, "internal_energy": -1.97, "cluster_size": 17, "cluster_id": 2, "rank_in_cluster": 13}

>  <energy>  (44) 
-7.07

>  <cluster_rmsd>  (44) 
0.0

>  <cluster>  (44) 
3

$$$$

     RDKit          3D

 48 50  0  0  0  0  0  0  0  0999 V2000
  144.6460   72.6420  220.8380 C   0  0  0  0  0  0  0  0  0  0  0  0
  143.5620   73.2630  220.0860 N   0  0  0  0  0  0  0  0  0  0  0  0
  142.5560   72.3740  219.5440 C   0  0  0  0  0  0  0  0  0  0  0  0
  143.5470   74.6600  219.9290 C   0  0  0  0  0  0  0  0  0  0  0  0
  144.4780   75.3220  220.4470 O   0  0  0  0  0  0  0  0  0  0  0  0
  142.4340   75.2890  219.1570 C   0  0  2  0  0  0  0  0  0  0  0  0
  142.9940   76.4380  218.3460 C   0  0  0  0  0  0  0  0  0  0  0  0
  142.5130   77.7150  219.0000 C   0  0  0  0  0  0  0  0  0  0  0  0
  141.2380   77.2890  219.6530 C   0  0  0  0  0  0  0  0  0  0  0  0
  141.4670   75.9100  220.0380 N   0  0  0  0  0  0  0  0  0  0  0  0
  140.8390   75.2470  221.1280 C   0  0  0  0  0  0  0  0  0  0  0  0
  140.9320   75.6320  222.3230 O   0  0  0  0  0  0  0  0  0  0  0  0
  140.0150   74.0200  220.8980 C   0  0  0  0  0  0  0  0  0  0  0  0
  139.9530   73.3190  222.1730 N   0  0  0  0  0  0  0  0  0  0  0  0
  139.9870   71.9150  222.1550 C   0  0  0  0  0  0  0  0  0  0  0  0
  140.0710   71.3380  221.0200 O   0  0  0  0  0  0  0  0  0  0  0  0
  139.9290   71.1360  223.3880 C   0  0  0  0  0  0  0  0  0  0  0  0
  139.3780   69.8580  223.3510 C   0  0  0  0  0  0  0  0  0  0  0  0
  139.3140   69.0960  224.5210 C   0  0  0  0  0  0  0  0  0  0  0  0
  139.8030   69.6370  225.6890 C   0  0  0  0  0  0  0  0  0  0  0  0
  139.7260   68.8540  226.8400 C   0  0  0  0  0  0  0  0  0  0  0  0
  140.2140   69.3910  228.0130 C   0  0  0  0  0  0  0  0  0  0  0  0
  140.1350   68.6210  229.1350 F   0  0  0  0  0  0  0  0  0  0  0  0
  140.7530   70.6530  228.0250 C   0  0  0  0  0  0  0  0  0  0  0  0
  140.8350   71.4460  226.8790 C   0  0  0  0  0  0  0  0  0  0  0  0
  140.3450   70.9080  225.7010 C   0  0  0  0  0  0  0  0  0  0  0  0
  140.4020   71.6320  224.5650 N   0  0  0  0  0  0  0  0  0  0  0  0
  144.4545   72.7517  221.9156 H   0  0  0  0  0  0  0  0  0  0  0  0
  144.7042   71.5736  220.5828 H   0  0  0  0  0  0  0  0  0  0  0  0
  145.5971   73.1322  220.5828 H   0  0  0  0  0  0  0  0  0  0  0  0
  142.0103   71.8918  220.3684 H   0  0  0  0  0  0  0  0  0  0  0  0
  141.8519   72.9504  218.9259 H   0  0  0  0  0  0  0  0  0  0  0  0
  143.0414   71.6044  218.9259 H   0  0  0  0  0  0  0  0  0  0  0  0
  141.9722   74.4976  218.5484 H   0  0  0  0  0  0  0  0  0  0  0  0
  144.0934   76.4025  218.3492 H   0  0  0  0  0  0  0  0  0  0  0  0
  142.6582   76.3813  217.3000 H   0  0  0  0  0  0  0  0  0  0  0  0
  143.2379   78.0773  219.7438 H   0  0  0  0  0  0  0  0  0  0  0  0
  142.3843   78.5467  218.2917 H   0  0  0  0  0  0  0  0  0  0  0  0
  141.0284   77.9092  220.5369 H   0  0  0  0  0  0  0  0  0  0  0  0
  140.3709   77.3970  218.9849 H   0  0  0  0  0  0  0  0  0  0  0  0
  139.0033   74.2980  220.5675 H   0  0  0  0  0  0  0  0  0  0  0  0
  140.4565   73.3850  220.1158 H   0  0  0  0  0  0  0  0  0  0  0  0
  139.8840   73.7990  223.0910 H   0  0  0  0  0  0  0  0  0  0  0  0
  138.9944   69.4494  222.4045 H   0  0  0  0  0  0  0  0  0  0  0  0
  138.8817   68.0846  224.5090 H   0  0  0  0  0  0  0  0  0  0  0  0
  139.2915   67.8438  226.8136 H   0  0  0  0  0  0  0  0  0  0  0  0
  141.1354   71.0554  228.9747 H   0  0  0  0  0  0  0  0  0  0  0  0
  141.2705   72.4556  226.9105 H   0  0  0  0  0  0  0  0  0  0  0  0
  1  2  1  0
  2  3  1  0
  2  4  1  0
  4  5  2  0
  4  6  1  0
  6  7  1  0
  7  8  1  0
  8  9  1  0
  9 10  1  0
 10 11  1  0
 11 12  2  0
 11 13  1  0
 13 14  1  0
 14 15  1  0
 15 16  2  0
 15 17  1  0
 17 18  2  0
 18 19  1  0
 19 20  2  0
 20 21  1  0
 21 22  2  0
 22 23  1  0
 22 24  1  0
 24 25  2  0
 25 26  1  0
 26 27  2  0
 10  6  1  0
 27 17  1  0
 26 20  1  0
  1 28  1  0
  1 29  1  0
  1 30  1  0
  3 31  1  0
  3 32  1  0
  3 33  1  0
  6 34  1  6
  7 35  1  0
  7 36  1  0
  8 37  1  0
  8 38  1  0
  9 39  1  0
  9 40  1  0
 13 41  1  0
 13 42  1  0
 14 43  1  0
 18 44  1  0
 19 45  1  0
 21 46  1  0
 24 47  1  0
 25 48  1  0
M  END
>  <smiles>  (45) 
CN(C)C(=O)[C@@H]1CCCN1C(=O)CNC(=O)c1ccc2cc(F)ccc2n1

>  <score_type>  (45) 
oracle

>  <origin>  (45) 
autodockgpu

>  <m_score__min__energy>  (45) 
-7.6299999999999999

>  <m_primary>  (45) 
energy

>  <rmsd>  (45) 
2.927417898585749

>  <m_score__min__rmsd>  (45) 
2.927417898585749

>  <meeko>  (45) 
{"free_energy": -6.9, "intermolecular_energy": -8.39, "internal_energy": -2.22, "cluster_size": 17, "cluster_id": 2, "rank_in_cluster": 11}

>  <energy>  (45) 
-6.53

>  <cluster_rmsd>  (45) 
0.87

>  <cluster>  (45) 
3

$$$$

     RDKit          3D

 48 50  0  0  0  0  0  0  0  0999 V2000
  140.0940   79.8100  219.9120 C   0  0  0  0  0  0  0  0  0  0  0  0
  141.1040   78.8620  220.3690 N   0  0  0  0  0  0  0  0  0  0  0  0
  141.7850   79.1890  221.6040 C   0  0  0  0  0  0  0  0  0  0  0  0
  141.3590   77.7090  219.6080 C   0  0  0  0  0  0  0  0  0  0  0  0
  140.7010   77.5400  218.5530 O   0  0  0  0  0  0  0  0  0  0  0  0
  142.3960   76.7440  220.0820 C   0  0  2  0  0  0  0  0  0  0  0  0
  143.3280   76.4280  218.9320 C   0  0  0  0  0  0  0  0  0  0  0  0
  143.0200   75.0140  218.4900 C   0  0  0  0  0  0  0  0  0  0  0  0
  142.4890   74.3880  219.7390 C   0  0  0  0  0  0  0  0  0  0  0  0
  141.8070   75.4670  220.4280 N   0  0  0  0  0  0  0  0  0  0  0  0
  140.7110   75.3080  221.3190 C   0  0  0  0  0  0  0  0  0  0  0  0
  140.5770   75.9710  222.3810 O   0  0  0  0  0  0  0  0  0  0  0  0
  139.6330   74.3130  221.0280 C   0  0  0  0  0  0  0  0  0  0  0  0
  139.4790   73.5070  222.2310 N   0  0  0  0  0  0  0  0  0  0  0  0
  140.2850   72.3650  222.3670 C   0  0  0  0  0  0  0  0  0  0  0  0
  141.1060   72.1030  221.4260 O   0  0  0  0  0  0  0  0  0  0  0  0
  140.1930   71.5030  223.5410 C   0  0  0  0  0  0  0  0  0  0  0  0
  139.5850   70.2560  223.4150 C   0  0  0  0  0  0  0  0  0  0  0  0
  139.4870   69.4170  224.5270 C   0  0  0  0  0  0  0  0  0  0  0  0
  140.0010   69.8490  225.7290 C   0  0  0  0  0  0  0  0  0  0  0  0
  139.8900   68.9900  226.8210 C   0  0  0  0  0  0  0  0  0  0  0  0
  140.4030   69.4200  228.0270 C   0  0  0  0  0  0  0  0  0  0  0  0
  140.2900   68.5750  229.0920 F   0  0  0  0  0  0  0  0  0  0  0  0
  140.9980   70.6520  228.1280 C   0  0  0  0  0  0  0  0  0  0  0  0
  141.1150   71.5200  227.0410 C   0  0  0  0  0  0  0  0  0  0  0  0
  140.6000   71.0910  225.8300 C   0  0  0  0  0  0  0  0  0  0  0  0
  140.6880   71.8910  224.7480 N   0  0  0  0  0  0  0  0  0  0  0  0
  139.6032   80.2707  220.7820 H   0  0  0  0  0  0  0  0  0  0  0  0
  140.5732   80.5920  219.3047 H   0  0  0  0  0  0  0  0  0  0  0  0
  139.3439   79.2822  219.3047 H   0  0  0  0  0  0  0  0  0  0  0  0
  141.1600   78.8889  222.4580 H   0  0  0  0  0  0  0  0  0  0  0  0
  142.7450   78.6537  221.6462 H   0  0  0  0  0  0  0  0  0  0  0  0
  141.9675   80.2729  221.6462 H   0  0  0  0  0  0  0  0  0  0  0  0
  142.8968   77.2029  220.9472 H   0  0  0  0  0  0  0  0  0  0  0  0
  143.1558   77.1293  218.1023 H   0  0  0  0  0  0  0  0  0  0  0  0
  144.3795   76.5230  219.2409 H   0  0  0  0  0  0  0  0  0  0  0  0
  142.2656   75.0040  217.6895 H   0  0  0  0  0  0  0  0  0  0  0  0
  143.8913   74.4871  218.0738 H   0  0  0  0  0  0  0  0  0  0  0  0
  141.7870   73.5761  219.4982 H   0  0  0  0  0  0  0  0  0  0  0  0
  143.2849   73.9393  220.3515 H   0  0  0  0  0  0  0  0  0  0  0  0
  138.6910   74.8307  220.7942 H   0  0  0  0  0  0  0  0  0  0  0  0
  139.8920   73.6879  220.1607 H   0  0  0  0  0  0  0  0  0  0  0  0
  138.8070   73.7300  222.9910 H   0  0  0  0  0  0  0  0  0  0  0  0
  139.1835   69.9333  222.4430 H   0  0  0  0  0  0  0  0  0  0  0  0
  139.0084   68.4300  224.4442 H   0  0  0  0  0  0  0  0  0  0  0  0
  139.4106   68.0047  226.7245 H   0  0  0  0  0  0  0  0  0  0  0  0
  141.3981   70.9679  229.1027 H   0  0  0  0  0  0  0  0  0  0  0  0
  141.5964   72.5038  227.1426 H   0  0  0  0  0  0  0  0  0  0  0  0
  1  2  1  0
  2  3  1  0
  2  4  1  0
  4  5  2  0
  4  6  1  0
  6  7  1  0
  7  8  1  0
  8  9  1  0
  9 10  1  0
 10 11  1  0
 11 12  2  0
 11 13  1  0
 13 14  1  0
 14 15  1  0
 15 16  2  0
 15 17  1  0
 17 18  2  0
 18 19  1  0
 19 20  2  0
 20 21  1  0
 21 22  2  0
 22 23  1  0
 22 24  1  0
 24 25  2  0
 25 26  1  0
 26 27  2  0
 10  6  1  0
 27 17  1  0
 26 20  1  0
  1 28  1  0
  1 29  1  0
  1 30  1  0
  3 31  1  0
  3 32  1  0
  3 33  1  0
  6 34  1  1
  7 35  1  0
  7 36  1  0
  8 37  1  0
  8 38  1  0
  9 39  1  0
  9 40  1  0
 13 41  1  0
 13 42  1  0
 14 43  1  0
 18 44  1  0
 19 45  1  0
 21 46  1  0
 24 47  1  0
 25 48  1  0
M  END
>  <smiles>  (46) 
CN(C)C(=O)[C@@H]1CCCN1C(=O)CNC(=O)c1ccc2cc(F)ccc2n1

>  <score_type>  (46) 
oracle

>  <origin>  (46) 
autodockgpu

>  <m_score__min__energy>  (46) 
-7.6299999999999999

>  <m_primary>  (46) 
energy

>  <rmsd>  (46) 
2.0171244322613178

>  <m_score__min__rmsd>  (46) 
2.0171244322613178

>  <meeko>  (46) 
{"free_energy": -7.05, "intermolecular_energy": -8.54, "internal_energy": -1.54, "cluster_size": 26, "cluster_id": 1, "rank_in_cluster": 24}

>  <energy>  (46) 
-6.42

>  <cluster_rmsd>  (46) 
1.84

>  <cluster>  (46) 
3

$$$$

     RDKit          3D

 48 50  0  0  0  0  0  0  0  0999 V2000
  145.9910   73.4760  221.1690 C   0  0  0  0  0  0  0  0  0  0  0  0
  145.0030   73.7310  220.1270 N   0  0  0  0  0  0  0  0  0  0  0  0
  144.0250   74.7620  220.4000 C   0  0  0  0  0  0  0  0  0  0  0  0
  145.0480   72.9810  218.9380 C   0  0  0  0  0  0  0  0  0  0  0  0
  145.9460   72.1120  218.8220 O   0  0  0  0  0  0  0  0  0  0  0  0
  144.0320   73.2460  217.8770 C   0  0  2  0  0  0  0  0  0  0  0  0
  144.3400   74.5800  217.2310 C   0  0  0  0  0  0  0  0  0  0  0  0
  143.2820   75.5530  217.7010 C   0  0  0  0  0  0  0  0  0  0  0  0
  142.1170   74.6600  217.9850 C   0  0  0  0  0  0  0  0  0  0  0  0
  142.7110   73.4200  218.4450 N   0  0  0  0  0  0  0  0  0  0  0  0
  142.0940   72.4940  219.3310 C   0  0  0  0  0  0  0  0  0  0  0  0
  142.4740   71.3020  219.4650 O   0  0  0  0  0  0  0  0  0  0  0  0
  140.9270   72.9080  220.1700 C   0  0  0  0  0  0  0  0  0  0  0  0
  140.8540   71.9590  221.2720 N   0  0  0  0  0  0  0  0  0  0  0  0
  140.3250   72.4070  222.4930 C   0  0  0  0  0  0  0  0  0  0  0  0
  139.9390   73.6210  222.5630 O   0  0  0  0  0  0  0  0  0  0  0  0
  140.2160   71.5200  223.6480 C   0  0  0  0  0  0  0  0  0  0  0  0
  139.6150   70.2740  223.4850 C   0  0  0  0  0  0  0  0  0  0  0  0
  139.5010   69.4110  224.5780 C   0  0  0  0  0  0  0  0  0  0  0  0
  139.9930   69.8200  225.7970 C   0  0  0  0  0  0  0  0  0  0  0  0
  139.8660   68.9380  226.8690 C   0  0  0  0  0  0  0  0  0  0  0  0
  140.3570   69.3440  228.0930 C   0  0  0  0  0  0  0  0  0  0  0  0
  140.2290   68.4770  229.1370 F   0  0  0  0  0  0  0  0  0  0  0  0
  140.9460   70.5760  228.2290 C   0  0  0  0  0  0  0  0  0  0  0  0
  141.0780   71.4670  227.1620 C   0  0  0  0  0  0  0  0  0  0  0  0
  140.5860   71.0610  225.9340 C   0  0  0  0  0  0  0  0  0  0  0  0
  140.6890   71.8850  224.8710 N   0  0  0  0  0  0  0  0  0  0  0  0
  145.5219   73.5971  222.1566 H   0  0  0  0  0  0  0  0  0  0  0  0
  146.3737   72.4496  221.0682 H   0  0  0  0  0  0  0  0  0  0  0  0
  146.8226   74.1889  221.0682 H   0  0  0  0  0  0  0  0  0  0  0  0
  143.9118   74.8813  221.4876 H   0  0  0  0  0  0  0  0  0  0  0  0
  144.3615   75.7123  219.9599 H   0  0  0  0  0  0  0  0  0  0  0  0
  143.0582   74.4761  219.9599 H   0  0  0  0  0  0  0  0  0  0  0  0
  144.0608   72.3961  217.1793 H   0  0  0  0  0  0  0  0  0  0  0  0
  145.3370   74.9279  217.5392 H   0  0  0  0  0  0  0  0  0  0  0  0
  144.3365   74.4955  216.1343 H   0  0  0  0  0  0  0  0  0  0  0  0
  143.6059   76.0832  218.6087 H   0  0  0  0  0  0  0  0  0  0  0  0
  143.0585   76.3423  216.9682 H   0  0  0  0  0  0  0  0  0  0  0  0
  141.4746   75.0956  218.7645 H   0  0  0  0  0  0  0  0  0  0  0  0
  141.4778   74.5142  217.1017 H   0  0  0  0  0  0  0  0  0  0  0  0
  141.0783   73.9271  220.5553 H   0  0  0  0  0  0  0  0  0  0  0  0
  139.9961   72.9102  219.5840 H   0  0  0  0  0  0  0  0  0  0  0  0
  141.1710   70.9720  221.2040 H   0  0  0  0  0  0  0  0  0  0  0  0
  139.2316   69.9706  222.4996 H   0  0  0  0  0  0  0  0  0  0  0  0
  139.0275   68.4244  224.4667 H   0  0  0  0  0  0  0  0  0  0  0  0
  139.3914   67.9536  226.7437 H   0  0  0  0  0  0  0  0  0  0  0  0
  141.3289   70.8730  229.2165 H   0  0  0  0  0  0  0  0  0  0  0  0
  141.5532   72.4505  227.2922 H   0  0  0  0  0  0  0  0  0  0  0  0
  1  2  1  0
  2  3  1  0
  2  4  1  0
  4  5  2  0
  4  6  1  0
  6  7  1  0
  7  8  1  0
  8  9  1  0
  9 10  1  0
 10 11  1  0
 11 12  2  0
 11 13  1  0
 13 14  1  0
 14 15  1  0
 15 16  2  0
 15 17  1  0
 17 18  2  0
 18 19  1  0
 19 20  2  0
 20 21  1  0
 21 22  2  0
 22 23  1  0
 22 24  1  0
 24 25  2  0
 25 26  1  0
 26 27  2  0
 10  6  1  0
 27 17  1  0
 26 20  1  0
  1 28  1  0
  1 29  1  0
  1 30  1  0
  3 31  1  0
  3 32  1  0
  3 33  1  0
  6 34  1  6
  7 35  1  0
  7 36  1  0
  8 37  1  0
  8 38  1  0
  9 39  1  0
  9 40  1  0
 13 41  1  0
 13 42  1  0
 14 43  1  0
 18 44  1  0
 19 45  1  0
 21 46  1  0
 24 47  1  0
 25 48  1  0
M  END
>  <smiles>  (47) 
CN(C)C(=O)[C@@H]1CCCN1C(=O)CNC(=O)c1ccc2cc(F)ccc2n1

>  <score_type>  (47) 
oracle

>  <origin>  (47) 
autodockgpu

>  <m_score__min__energy>  (47) 
-7.6299999999999999

>  <m_primary>  (47) 
energy

>  <rmsd>  (47) 
3.7987621543516554

>  <m_score__min__rmsd>  (47) 
3.7987621543516554

>  <meeko>  (47) 
{"free_energy": -7.25, "intermolecular_energy": -8.75, "internal_energy": -1.31, "cluster_size": 17, "cluster_id": 2, "rank_in_cluster": 3}

>  <energy>  (47) 
-6.92

>  <cluster_rmsd>  (47) 
0.0

>  <cluster>  (47) 
4

$$$$

     RDKit          3D

 48 50  0  0  0  0  0  0  0  0999 V2000
  144.6870   72.7060  220.8620 C   0  0  0  0  0  0  0  0  0  0  0  0
  143.5980   73.3040  220.0980 N   0  0  0  0  0  0  0  0  0  0  0  0
  142.6130   72.3920  219.5540 C   0  0  0  0  0  0  0  0  0  0  0  0
  143.5580   74.6990  219.9340 C   0  0  0  0  0  0  0  0  0  0  0  0
  144.4730   75.3810  220.4550 O   0  0  0  0  0  0  0  0  0  0  0  0
  142.4400   75.3030  219.1500 C   0  0  2  0  0  0  0  0  0  0  0  0
  142.9920   76.4320  218.3070 C   0  0  0  0  0  0  0  0  0  0  0  0
  142.5080   77.7240  218.9280 C   0  0  0  0  0  0  0  0  0  0  0  0
  141.2370   77.3100  219.5980 C   0  0  0  0  0  0  0  0  0  0  0  0
  141.4740   75.9430  220.0190 N   0  0  0  0  0  0  0  0  0  0  0  0
  140.8530   75.3060  221.1290 C   0  0  0  0  0  0  0  0  0  0  0  0
  141.0680   75.6310  222.3250 O   0  0  0  0  0  0  0  0  0  0  0  0
  139.8860   74.1850  220.9180 C   0  0  0  0  0  0  0  0  0  0  0  0
  139.8030   73.4680  222.1820 N   0  0  0  0  0  0  0  0  0  0  0  0
  139.9630   72.0730  222.1610 C   0  0  0  0  0  0  0  0  0  0  0  0
  140.1720   71.5180  221.0310 O   0  0  0  0  0  0  0  0  0  0  0  0
  139.8940   71.2790  223.3840 C   0  0  0  0  0  0  0  0  0  0  0  0
  139.3310   70.0060  223.3290 C   0  0  0  0  0  0  0  0  0  0  0  0
  139.2560   69.2310  224.4890 C   0  0  0  0  0  0  0  0  0  0  0  0
  139.7460   69.7520  225.6650 C   0  0  0  0  0  0  0  0  0  0  0  0
  139.6580   68.9560  226.8060 C   0  0  0  0  0  0  0  0  0  0  0  0
  140.1480   69.4740  227.9870 C   0  0  0  0  0  0  0  0  0  0  0  0
  140.0580   68.6900  229.0980 F   0  0  0  0  0  0  0  0  0  0  0  0
  140.6980   70.7300  228.0160 C   0  0  0  0  0  0  0  0  0  0  0  0
  140.7910   71.5360  226.8800 C   0  0  0  0  0  0  0  0  0  0  0  0
  140.3000   71.0180  225.6950 C   0  0  0  0  0  0  0  0  0  0  0  0
  140.3670   71.7560  224.5680 N   0  0  0  0  0  0  0  0  0  0  0  0
  144.4846   72.8172  221.9375 H   0  0  0  0  0  0  0  0  0  0  0  0
  144.7666   71.6377  220.6124 H   0  0  0  0  0  0  0  0  0  0  0  0
  145.6312   73.2122  220.6124 H   0  0  0  0  0  0  0  0  0  0  0  0
  142.0778   71.8965  220.3775 H   0  0  0  0  0  0  0  0  0  0  0  0
  141.8964   72.9525  218.9357 H   0  0  0  0  0  0  0  0  0  0  0  0
  143.1168   71.6344  218.9357 H   0  0  0  0  0  0  0  0  0  0  0  0
  141.9790   74.4944  218.5637 H   0  0  0  0  0  0  0  0  0  0  0  0
  144.0916   76.4012  218.3073 H   0  0  0  0  0  0  0  0  0  0  0  0
  142.6527   76.3460  217.2642 H   0  0  0  0  0  0  0  0  0  0  0  0
  143.2343   78.1096  219.6586 H   0  0  0  0  0  0  0  0  0  0  0  0
  142.3726   78.5356  218.1980 H   0  0  0  0  0  0  0  0  0  0  0  0
  141.0282   77.9529  220.4658 H   0  0  0  0  0  0  0  0  0  0  0  0
  140.3666   77.3961  218.9310 H   0  0  0  0  0  0  0  0  0  0  0  0
  138.8984   74.5821  220.6407 H   0  0  0  0  0  0  0  0  0  0  0  0
  140.2168   73.5217  220.1052 H   0  0  0  0  0  0  0  0  0  0  0  0
  139.6320   73.9310  223.0970 H   0  0  0  0  0  0  0  0  0  0  0  0
  138.9471   69.6126  222.3762 H   0  0  0  0  0  0  0  0  0  0  0  0
  138.8140   68.2241  224.4630 H   0  0  0  0  0  0  0  0  0  0  0  0
  139.2136   67.9505  226.7661 H   0  0  0  0  0  0  0  0  0  0  0  0
  141.0808   71.1174  228.9717 H   0  0  0  0  0  0  0  0  0  0  0  0
  141.2361   72.5409  226.9253 H   0  0  0  0  0  0  0  0  0  0  0  0
  1  2  1  0
  2  3  1  0
  2  4  1  0
  4  5  2  0
  4  6  1  0
  6  7  1  0
  7  8  1  0
  8  9  1  0
  9 10  1  0
 10 11  1  0
 11 12  2  0
 11 13  1  0
 13 14  1  0
 14 15  1  0
 15 16  2  0
 15 17  1  0
 17 18  2  0
 18 19  1  0
 19 20  2  0
 20 21  1  0
 21 22  2  0
 22 23  1  0
 22 24  1  0
 24 25  2  0
 25 26  1  0
 26 27  2  0
 10  6  1  0
 27 17  1  0
 26 20  1  0
  1 28  1  0
  1 29  1  0
  1 30  1  0
  3 31  1  0
  3 32  1  0
  3 33  1  0
  6 34  1  6
  7 35  1  0
  7 36  1  0
  8 37  1  0
  8 38  1  0
  9 39  1  0
  9 40  1  0
 13 41  1  0
 13 42  1  0
 14 43  1  0
 18 44  1  0
 19 45  1  0
 21 46  1  0
 24 47  1  0
 25 48  1  0
M  END
>  <smiles>  (48) 
CN(C)C(=O)[C@@H]1CCCN1C(=O)CNC(=O)c1ccc2cc(F)ccc2n1

>  <score_type>  (48) 
oracle

>  <origin>  (48) 
autodockgpu

>  <m_score__min__energy>  (48) 
-7.6299999999999999

>  <m_primary>  (48) 
energy

>  <rmsd>  (48) 
2.920311076855278

>  <m_score__min__rmsd>  (48) 
2.920311076855278

>  <meeko>  (48) 
{"free_energy": -7.03, "intermolecular_energy": -8.52, "internal_energy": -2.08, "cluster_size": 17, "cluster_id": 2, "rank_in_cluster": 6}

>  <energy>  (48) 
-6.88

>  <cluster_rmsd>  (48) 
0.5

>  <cluster>  (48) 
4

$$$$

     RDKit          3D

 48 50  0  0  0  0  0  0  0  0999 V2000
  139.5380   79.9940  223.7840 C   0  0  0  0  0  0  0  0  0  0  0  0
  140.5890   79.2430  223.1070 N   0  0  0  0  0  0  0  0  0  0  0  0
  141.8000   79.0010  223.8610 C   0  0  0  0  0  0  0  0  0  0  0  0
  140.3780   78.8030  221.7880 C   0  0  0  0  0  0  0  0  0  0  0  0
  139.2830   79.0780  221.2420 O   0  0  0  0  0  0  0  0  0  0  0  0
  141.4590   78.0350  221.1010 C   0  0  2  0  0  0  0  0  0  0  0  0
  141.8090   78.7400  219.8090 C   0  0  0  0  0  0  0  0  0  0  0  0
  141.2620   77.8930  218.6810 C   0  0  0  0  0  0  0  0  0  0  0  0
  141.2610   76.5200  219.2730 C   0  0  0  0  0  0  0  0  0  0  0  0
  140.9920   76.7300  220.6820 N   0  0  0  0  0  0  0  0  0  0  0  0
  140.3580   75.7940  221.5450 C   0  0  0  0  0  0  0  0  0  0  0  0
  139.9270   76.0860  222.6910 O   0  0  0  0  0  0  0  0  0  0  0  0
  140.1680   74.3730  221.1160 C   0  0  0  0  0  0  0  0  0  0  0  0
  139.9560   73.6000  222.3320 N   0  0  0  0  0  0  0  0  0  0  0  0
  140.3970   72.2670  222.3510 C   0  0  0  0  0  0  0  0  0  0  0  0
  140.9590   71.8130  221.2990 O   0  0  0  0  0  0  0  0  0  0  0  0
  140.2230   71.4230  223.5290 C   0  0  0  0  0  0  0  0  0  0  0  0
  139.5890   70.1910  223.3860 C   0  0  0  0  0  0  0  0  0  0  0  0
  139.4130   69.3690  224.5030 C   0  0  0  0  0  0  0  0  0  0  0  0
  139.8760   69.8050  225.7240 C   0  0  0  0  0  0  0  0  0  0  0  0
  139.6860   68.9630  226.8190 C   0  0  0  0  0  0  0  0  0  0  0  0
  140.1490   69.3950  228.0450 C   0  0  0  0  0  0  0  0  0  0  0  0
  139.9590   68.5680  229.1120 F   0  0  0  0  0  0  0  0  0  0  0  0
  140.7700   70.6130  228.1610 C   0  0  0  0  0  0  0  0  0  0  0  0
  140.9650   71.4640  227.0710 C   0  0  0  0  0  0  0  0  0  0  0  0
  140.5020   71.0310  225.8400 C   0  0  0  0  0  0  0  0  0  0  0  0
  140.6660   71.8150  224.7550 N   0  0  0  0  0  0  0  0  0  0  0  0
  139.6655   79.9029  224.8728 H   0  0  0  0  0  0  0  0  0  0  0  0
  139.6001   81.0535  223.4949 H   0  0  0  0  0  0  0  0  0  0  0  0
  138.5557   79.5920  223.4949 H   0  0  0  0  0  0  0  0  0  0  0  0
  141.5769   79.0456  224.9372 H   0  0  0  0  0  0  0  0  0  0  0  0
  142.1959   78.0060  223.6095 H   0  0  0  0  0  0  0  0  0  0  0  0
  142.5479   79.7675  223.6095 H   0  0  0  0  0  0  0  0  0  0  0  0
  142.2996   77.9535  221.8058 H   0  0  0  0  0  0  0  0  0  0  0  0
  141.3502   79.7395  219.7877 H   0  0  0  0  0  0  0  0  0  0  0  0
  142.8975   78.8663  219.7130 H   0  0  0  0  0  0  0  0  0  0  0  0
  140.2443   78.2074  218.4062 H   0  0  0  0  0  0  0  0  0  0  0  0
  141.8488   77.9685  217.7537 H   0  0  0  0  0  0  0  0  0  0  0  0
  140.4755   75.9004  218.8157 H   0  0  0  0  0  0  0  0  0  0  0  0
  142.2109   75.9918  219.1036 H   0  0  0  0  0  0  0  0  0  0  0  0
  139.2929   74.2892  220.4548 H   0  0  0  0  0  0  0  0  0  0  0  0
  141.0415   74.0054  220.5576 H   0  0  0  0  0  0  0  0  0  0  0  0
  139.4970   73.9800  223.1830 H   0  0  0  0  0  0  0  0  0  0  0  0
  139.2285   69.8664  222.3988 H   0  0  0  0  0  0  0  0  0  0  0  0
  138.9144   68.3931  224.4082 H   0  0  0  0  0  0  0  0  0  0  0  0
  139.1852   67.9897  226.7095 H   0  0  0  0  0  0  0  0  0  0  0  0
  141.1282   70.9316  229.1511 H   0  0  0  0  0  0  0  0  0  0  0  0
  141.4652   72.4370  227.1855 H   0  0  0  0  0  0  0  0  0  0  0  0
  1  2  1  0
  2  3  1  0
  2  4  1  0
  4  5  2  0
  4  6  1  0
  6  7  1  0
  7  8  1  0
  8  9  1  0
  9 10  1  0
 10 11  1  0
 11 12  2  0
 11 13  1  0
 13 14  1  0
 14 15  1  0
 15 16  2  0
 15 17  1  0
 17 18  2  0
 18 19  1  0
 19 20  2  0
 20 21  1  0
 21 22  2  0
 22 23  1  0
 22 24  1  0
 24 25  2  0
 25 26  1  0
 26 27  2  0
 10  6  1  0
 27 17  1  0
 26 20  1  0
  1 28  1  0
  1 29  1  0
  1 30  1  0
  3 31  1  0
  3 32  1  0
  3 33  1  0
  6 34  1  1
  7 35  1  0
  7 36  1  0
  8 37  1  0
  8 38  1  0
  9 39  1  0
  9 40  1  0
 13 41  1  0
 13 42  1  0
 14 43  1  0
 18 44  1  0
 19 45  1  0
 21 46  1  0
 24 47  1  0
 25 48  1  0
M  END
>  <smiles>  (49) 
CN(C)C(=O)[C@@H]1CCCN1C(=O)CNC(=O)c1ccc2cc(F)ccc2n1

>  <score_type>  (49) 
oracle

>  <origin>  (49) 
autodockgpu

>  <m_score__min__energy>  (49) 
-7.6299999999999999

>  <m_primary>  (49) 
energy

>  <rmsd>  (49) 
1.8449931515708162

>  <m_score__min__rmsd>  (49) 
1.8449931515708162

>  <meeko>  (49) 
{"free_energy": -7.31, "intermolecular_energy": -8.8, "internal_energy": -1.89, "cluster_size": 26, "cluster_id": 1, "rank_in_cluster": 12}

>  <energy>  (49) 
-6.7

>  <cluster_rmsd>  (49) 
0.29

>  <cluster>  (49) 
4

$$$$

     RDKit          3D

 48 50  0  0  0  0  0  0  0  0999 V2000
  139.5870   80.0620  223.4610 C   0  0  0  0  0  0  0  0  0  0  0  0
  140.6010   79.1510  222.9440 N   0  0  0  0  0  0  0  0  0  0  0  0
  141.8130   79.0200  223.7250 C   0  0  0  0  0  0  0  0  0  0  0  0
  140.3580   78.4620  221.7430 C   0  0  0  0  0  0  0  0  0  0  0  0
  139.2660   78.6620  221.1580 O   0  0  0  0  0  0  0  0  0  0  0  0
  141.4020   77.5310  221.2190 C   0  0  2  0  0  0  0  0  0  0  0  0
  142.0050   78.1320  219.9680 C   0  0  0  0  0  0  0  0  0  0  0  0
  141.4940   77.3210  218.7980 C   0  0  0  0  0  0  0  0  0  0  0  0
  141.2310   75.9850  219.4150 C   0  0  0  0  0  0  0  0  0  0  0  0
  140.8170   76.2830  220.7720 N   0  0  0  0  0  0  0  0  0  0  0  0
  139.9570   75.4750  221.5650 C   0  0  0  0  0  0  0  0  0  0  0  0
  139.5680   75.7960  222.7180 O   0  0  0  0  0  0  0  0  0  0  0  0
  139.4610   74.1610  221.0490 C   0  0  0  0  0  0  0  0  0  0  0  0
  139.2820   73.3030  222.2110 N   0  0  0  0  0  0  0  0  0  0  0  0
  140.3090   72.3990  222.5290 C   0  0  0  0  0  0  0  0  0  0  0  0
  141.3410   72.3870  221.7780 O   0  0  0  0  0  0  0  0  0  0  0  0
  140.2080   71.5030  223.6760 C   0  0  0  0  0  0  0  0  0  0  0  0
  139.6080   70.2580  223.5070 C   0  0  0  0  0  0  0  0  0  0  0  0
  139.5010   69.3860  224.5940 C   0  0  0  0  0  0  0  0  0  0  0  0
  140.0000   69.7860  225.8140 C   0  0  0  0  0  0  0  0  0  0  0  0
  139.8800   68.8960  226.8790 C   0  0  0  0  0  0  0  0  0  0  0  0
  140.3780   69.2920  228.1030 C   0  0  0  0  0  0  0  0  0  0  0  0
  140.2570   68.4170  229.1410 F   0  0  0  0  0  0  0  0  0  0  0  0
  140.9660   70.5240  228.2460 C   0  0  0  0  0  0  0  0  0  0  0  0
  141.0910   71.4230  227.1850 C   0  0  0  0  0  0  0  0  0  0  0  0
  140.5920   71.0270  225.9570 C   0  0  0  0  0  0  0  0  0  0  0  0
  140.6880   71.8590  224.9000 N   0  0  0  0  0  0  0  0  0  0  0  0
  139.6056   80.0453  224.5607 H   0  0  0  0  0  0  0  0  0  0  0  0
  139.7954   81.0821  223.1062 H   0  0  0  0  0  0  0  0  0  0  0  0
  138.5949   79.7459  223.1062 H   0  0  0  0  0  0  0  0  0  0  0  0
  141.5637   79.0469  224.7961 H   0  0  0  0  0  0  0  0  0  0  0  0
  142.3015   78.0638  223.4862 H   0  0  0  0  0  0  0  0  0  0  0  0
  142.4946   79.8497  223.4862 H   0  0  0  0  0  0  0  0  0  0  0  0
  142.1286   77.3668  222.0284 H   0  0  0  0  0  0  0  0  0  0  0  0
  141.6932   79.1818  219.8650 H   0  0  0  0  0  0  0  0  0  0  0  0
  143.1039   78.1093  220.0116 H   0  0  0  0  0  0  0  0  0  0  0  0
  140.5716   77.7564  218.3862 H   0  0  0  0  0  0  0  0  0  0  0  0
  142.1978   77.2812  217.9536 H   0  0  0  0  0  0  0  0  0  0  0  0
  140.4326   75.4574  218.8726 H   0  0  0  0  0  0  0  0  0  0  0  0
  142.1142   75.3300  219.3830 H   0  0  0  0  0  0  0  0  0  0  0  0
  138.5035   74.2954  220.5245 H   0  0  0  0  0  0  0  0  0  0  0  0
  140.1712   73.7201  220.3340 H   0  0  0  0  0  0  0  0  0  0  0  0
  138.4370   73.3210  222.8160 H   0  0  0  0  0  0  0  0  0  0  0  0
  139.2196   69.9617  222.5214 H   0  0  0  0  0  0  0  0  0  0  0  0
  139.0277   68.3999  224.4776 H   0  0  0  0  0  0  0  0  0  0  0  0
  139.4050   67.9124  226.7486 H   0  0  0  0  0  0  0  0  0  0  0  0
  141.3534   70.8141  229.2338 H   0  0  0  0  0  0  0  0  0  0  0  0
  141.5667   72.4056  227.3200 H   0  0  0  0  0  0  0  0  0  0  0  0
  1  2  1  0
  2  3  1  0
  2  4  1  0
  4  5  2  0
  4  6  1  0
  6  7  1  0
  7  8  1  0
  8  9  1  0
  9 10  1  0
 10 11  1  0
 11 12  2  0
 11 13  1  0
 13 14  1  0
 14 15  1  0
 15 16  2  0
 15 17  1  0
 17 18  2  0
 18 19  1  0
 19 20  2  0
 20 21  1  0
 21 22  2  0
 22 23  1  0
 22 24  1  0
 24 25  2  0
 25 26  1  0
 26 27  2  0
 10  6  1  0
 27 17  1  0
 26 20  1  0
  1 28  1  0
  1 29  1  0
  1 30  1  0
  3 31  1  0
  3 32  1  0
  3 33  1  0
  6 34  1  1
  7 35  1  0
  7 36  1  0
  8 37  1  0
  8 38  1  0
  9 39  1  0
  9 40  1  0
 13 41  1  0
 13 42  1  0
 14 43  1  0
 18 44  1  0
 19 45  1  0
 21 46  1  0
 24 47  1  0
 25 48  1  0
M  END
>  <smiles>  (50) 
CN(C)C(=O)[C@@H]1CCCN1C(=O)CNC(=O)c1ccc2cc(F)ccc2n1

>  <score_type>  (50) 
oracle

>  <origin>  (50) 
autodockgpu

>  <m_score__min__energy>  (50) 
-7.6299999999999999

>  <m_primary>  (50) 
energy

>  <rmsd>  (50) 
1.6889482073274393

>  <m_score__min__rmsd>  (50) 
1.6889482073274393

>  <meeko>  (50) 
{"free_energy": -7.43, "intermolecular_energy": -8.92, "internal_energy": -1.46, "cluster_size": 26, "cluster_id": 1, "rank_in_cluster": 3}

>  <energy>  (50) 
-6.52

>  <cluster_rmsd>  (50) 
1.29

>  <cluster>  (50) 
4

$$$$
