
     RDKit          3D

 68 72  0  0  0  0  0  0  0  0999 V2000
  136.4400   70.3170  223.8890 C   0  0  0  0  0  0  0  0  0  0  0  0
  137.0720   71.5870  223.3780 C   0  0  0  0  0  0  0  0  0  0  0  0
  138.3380   71.2440  222.6640 C   0  0  0  0  0  0  0  0  0  0  0  0
  138.2330   70.7220  221.5320 O   0  0  0  0  0  0  0  0  0  0  0  0
  139.6040   71.5130  223.2790 N   0  0  0  0  0  0  0  0  0  0  0  0
  139.9180   70.8560  224.5000 C   0  0  0  0  0  0  0  0  0  0  0  0
  139.5900   69.4990  224.5850 C   0  0  0  0  0  0  0  0  0  0  0  0
  139.8530   68.7790  225.7380 C   0  0  0  0  0  0  0  0  0  0  0  0
  140.4460   69.4710  226.7690 C   0  0  0  0  0  0  0  0  0  0  0  0
  140.7800   70.7990  226.7180 C   0  0  0  0  0  0  0  0  0  0  0  0
  140.5140   71.5000  225.5720 C   0  0  0  0  0  0  0  0  0  0  0  0
  140.5200   72.4400  222.6180 C   0  0  0  0  0  0  0  0  0  0  0  0
  139.6940   73.5980  222.0670 C   0  0  0  0  0  0  0  0  0  0  0  0
  140.6930   74.6410  221.5930 C   0  0  0  0  0  0  0  0  0  0  0  0
  141.5810   74.0240  220.6400 N   0  0  0  0  0  0  0  0  0  0  0  0
  142.4760   74.8310  219.8380 C   0  0  0  0  0  0  0  0  0  0  0  0
  143.2400   74.2720  218.9750 O   0  0  0  0  0  0  0  0  0  0  0  0
  142.5900   76.2990  219.9280 C   0  0  1  0  0  0  0  0  0  0  0  0
  143.7070   76.7420  219.1060 N   0  0  0  0  0  0  0  0  0  0  0  0
  141.3660   77.0020  219.4620 C   0  0  2  0  0  0  0  0  0  0  0  0
  141.6030   78.0060  218.3860 C   0  0  0  0  0  0  0  0  0  0  0  0
  142.1100   78.3940  217.1660 C   0  0  0  0  0  0  0  0  0  0  0  0
  141.9320   79.6690  216.6680 C   0  0  0  0  0  0  0  0  0  0  0  0
  141.2160   80.6080  217.4120 C   0  0  0  0  0  0  0  0  0  0  0  0
  140.6940   80.2280  218.6560 C   0  0  0  0  0  0  0  0  0  0  0  0
  140.8990   78.9270  219.1240 C   0  0  0  0  0  0  0  0  0  0  0  0
  140.6530   77.9780  220.2770 C   0  0  2  0  0  0  0  0  0  0  0  0
  141.2200   78.5860  221.4880 C   0  0  0  0  0  0  0  0  0  0  0  0
  141.9890   79.7560  221.3840 C   0  0  0  0  0  0  0  0  0  0  0  0
  142.5530   80.3410  222.4920 C   0  0  0  0  0  0  0  0  0  0  0  0
  142.4060   79.8250  223.7570 C   0  0  0  0  0  0  0  0  0  0  0  0
  141.6450   78.6580  223.8850 C   0  0  0  0  0  0  0  0  0  0  0  0
  141.0840   78.0840  222.7620 C   0  0  0  0  0  0  0  0  0  0  0  0
  141.6750   72.6020  220.3810 C   0  0  0  0  0  0  0  0  0  0  0  0
  141.1770   71.7200  221.4760 C   0  0  0  0  0  0  0  0  0  0  0  0
  136.4429   70.3228  224.9890 H   0  0  0  0  0  0  0  0  0  0  0  0
  135.4039   70.2510  223.5254 H   0  0  0  0  0  0  0  0  0  0  0  0
  137.0121   69.4507  223.5254 H   0  0  0  0  0  0  0  0  0  0  0  0
  136.3817   72.0900  222.6848 H   0  0  0  0  0  0  0  0  0  0  0  0
  137.2898   72.2600  224.2204 H   0  0  0  0  0  0  0  0  0  0  0  0
  139.1181   68.9985  223.7267 H   0  0  0  0  0  0  0  0  0  0  0  0
  139.6015   67.7117  225.8251 H   0  0  0  0  0  0  0  0  0  0  0  0
  140.6667   68.9215  227.6960 H   0  0  0  0  0  0  0  0  0  0  0  0
  141.2524   71.2922  227.5804 H   0  0  0  0  0  0  0  0  0  0  0  0
  140.7718   72.5671  225.5032 H   0  0  0  0  0  0  0  0  0  0  0  0
  141.2836   72.8107  223.3176 H   0  0  0  0  0  0  0  0  0  0  0  0
  139.0710   73.2568  221.2271 H   0  0  0  0  0  0  0  0  0  0  0  0
  139.0173   74.0080  222.8312 H   0  0  0  0  0  0  0  0  0  0  0  0
  140.1592   75.4762  221.1160 H   0  0  0  0  0  0  0  0  0  0  0  0
  141.2674   75.0283  222.4474 H   0  0  0  0  0  0  0  0  0  0  0  0
  142.7409   76.5453  220.9894 H   0  0  0  0  0  0  0  0  0  0  0  0
  144.2590   75.9230  218.7650 H   0  0  0  0  0  0  0  0  0  0  0  0
  144.3550   77.2920  219.7200 H   0  0  0  0  0  0  0  0  0  0  0  0
  140.8295   76.0558  219.2981 H   0  0  0  0  0  0  0  0  0  0  0  0
  142.6755   77.6638  216.5685 H   0  0  0  0  0  0  0  0  0  0  0  0
  142.3525   79.9437  215.6894 H   0  0  0  0  0  0  0  0  0  0  0  0
  141.0641   81.6279  217.0290 H   0  0  0  0  0  0  0  0  0  0  0  0
  140.1259   80.9500  219.2610 H   0  0  0  0  0  0  0  0  0  0  0  0
  139.7087   77.6400  220.7288 H   0  0  0  0  0  0  0  0  0  0  0  0
  142.1431   80.2136  220.3956 H   0  0  0  0  0  0  0  0  0  0  0  0
  143.1455   81.2585  222.3612 H   0  0  0  0  0  0  0  0  0  0  0  0
  142.8667   80.3085  224.6311 H   0  0  0  0  0  0  0  0  0  0  0  0
  141.4947   78.2008  224.8741 H   0  0  0  0  0  0  0  0  0  0  0  0
  140.4906   77.1672  222.8938 H   0  0  0  0  0  0  0  0  0  0  0  0
  141.0906   72.3822  219.4754 H   0  0  0  0  0  0  0  0  0  0  0  0
  142.7478   72.3821  220.2776 H   0  0  0  0  0  0  0  0  0  0  0  0
  140.4443   71.0214  221.0456 H   0  0  0  0  0  0  0  0  0  0  0  0
  142.0620   71.2190  221.8953 H   0  0  0  0  0  0  0  0  0  0  0  0
  1  2  1  0
  2  3  1  0
  3  4  2  0
  3  5  1  0
  5  6  1  0
  6  7  2  0
  7  8  1  0
  8  9  2  0
  9 10  1  0
 10 11  2  0
  5 12  1  0
 12 13  1  0
 13 14  1  0
 14 15  1  0
 15 16  1  0
 16 17  2  0
 16 18  1  0
 18 19  1  0
 18 20  1  0
 20 21  1  0
 21 22  2  0
 22 23  1  0
 23 24  2  0
 24 25  1  0
 25 26  2  0
 26 27  1  0
 27 28  1  0
 28 29  2  0
 29 30  1  0
 30 31  2  0
 31 32  1  0
 32 33  2  0
 15 34  1  0
 34 35  1  0
 11  6  1  0
 35 12  1  0
 27 20  1  0
 33 28  1  0
 26 21  1  0
  1 36  1  0
  1 37  1  0
  1 38  1  0
  2 39  1  0
  2 40  1  0
  7 41  1  0
  8 42  1  0
  9 43  1  0
 10 44  1  0
 11 45  1  0
 12 46  1  0
 13 47  1  0
 13 48  1  0
 14 49  1  0
 14 50  1  0
 18 51  1  1
 19 52  1  0
 19 53  1  0
 20 54  1  6
 22 55  1  0
 23 56  1  0
 24 57  1  0
 25 58  1  0
 27 59  1  1
 29 60  1  0
 30 61  1  0
 31 62  1  0
 32 63  1  0
 33 64  1  0
 34 65  1  0
 34 66  1  0
 35 67  1  0
 35 68  1  0
M  END
>  <smiles>  (1) 
CCC(=O)N(c1ccccc1)C1CCN(C(=O)[C@@H](N)C2c3ccccc3C2c2ccccc2)CC1

>  <score_type>  (1) 
oracle

>  <origin>  (1) 
autodockgpu

>  <m_score__min__energy>  (1) 
-8.5999999999999996

>  <m_primary>  (1) 
energy

>  <rmsd>  (1) 
10.137467772147838

>  <m_score__min__rmsd>  (1) 
10.137467772147838

>  <meeko>  (1) 
{"free_energy": -8.54, "intermolecular_energy": -10.92, "internal_energy": -3.01, "cluster_size": 34, "cluster_id": 1, "rank_in_cluster": 20}

>  <energy>  (1) 
-8.6

>  <cluster_rmsd>  (1) 
0.0

>  <cluster>  (1) 
1

$$$$

     RDKit          3D

 68 72  0  0  0  0  0  0  0  0999 V2000
  136.3700   72.6900  222.7420 C   0  0  0  0  0  0  0  0  0  0  0  0
  137.0440   71.4910  223.3580 C   0  0  0  0  0  0  0  0  0  0  0  0
  138.3240   71.2300  222.6340 C   0  0  0  0  0  0  0  0  0  0  0  0
  138.2420   70.7720  221.4730 O   0  0  0  0  0  0  0  0  0  0  0  0
  139.5780   71.5040  223.2720 N   0  0  0  0  0  0  0  0  0  0  0  0
  139.8730   70.8460  224.4970 C   0  0  0  0  0  0  0  0  0  0  0  0
  140.6990   71.5310  225.3950 C   0  0  0  0  0  0  0  0  0  0  0  0
  141.0450   70.9650  226.6100 C   0  0  0  0  0  0  0  0  0  0  0  0
  140.5320   69.7150  226.8710 C   0  0  0  0  0  0  0  0  0  0  0  0
  139.7210   69.0180  226.0150 C   0  0  0  0  0  0  0  0  0  0  0  0
  139.3870   69.5890  224.8150 C   0  0  0  0  0  0  0  0  0  0  0  0
  140.5010   72.4370  222.6300 C   0  0  0  0  0  0  0  0  0  0  0  0
  139.6770   73.5830  222.0500 C   0  0  0  0  0  0  0  0  0  0  0  0
  140.6780   74.6330  221.5970 C   0  0  0  0  0  0  0  0  0  0  0  0
  141.5970   74.0200  220.6710 N   0  0  0  0  0  0  0  0  0  0  0  0
  142.5050   74.8320  219.8870 C   0  0  0  0  0  0  0  0  0  0  0  0
  143.2980   74.2750  219.0490 O   0  0  0  0  0  0  0  0  0  0  0  0
  142.6020   76.3010  219.9710 C   0  0  1  0  0  0  0  0  0  0  0  0
  143.6990   76.7560  219.1310 N   0  0  0  0  0  0  0  0  0  0  0  0
  141.3610   76.9870  219.5230 C   0  0  2  0  0  0  0  0  0  0  0  0
  141.5680   77.9890  218.4400 C   0  0  0  0  0  0  0  0  0  0  0  0
  142.0490   78.3780  217.2090 C   0  0  0  0  0  0  0  0  0  0  0  0
  141.8470   79.6490  216.7090 C   0  0  0  0  0  0  0  0  0  0  0  0
  141.1310   80.5820  217.4610 C   0  0  0  0  0  0  0  0  0  0  0  0
  140.6350   80.2010  218.7150 C   0  0  0  0  0  0  0  0  0  0  0  0
  140.8640   78.9040  219.1850 C   0  0  0  0  0  0  0  0  0  0  0  0
  140.6490   77.9570  220.3460 C   0  0  2  0  0  0  0  0  0  0  0  0
  141.2280   78.5770  221.5450 C   0  0  0  0  0  0  0  0  0  0  0  0
  141.9860   79.7540  221.4230 C   0  0  0  0  0  0  0  0  0  0  0  0
  142.5610   80.3490  222.5190 C   0  0  0  0  0  0  0  0  0  0  0  0
  142.4360   79.8400  223.7890 C   0  0  0  0  0  0  0  0  0  0  0  0
  141.6870   78.6680  223.9350 C   0  0  0  0  0  0  0  0  0  0  0  0
  141.1160   78.0820  222.8240 C   0  0  0  0  0  0  0  0  0  0  0  0
  141.7140   72.5970  220.4230 C   0  0  0  0  0  0  0  0  0  0  0  0
  141.1960   71.7170  221.5110 C   0  0  0  0  0  0  0  0  0  0  0  0
  135.9983   73.3512  223.5386 H   0  0  0  0  0  0  0  0  0  0  0  0
  137.0928   73.2371  222.1189 H   0  0  0  0  0  0  0  0  0  0  0  0
  135.5269   72.3568  222.1189 H   0  0  0  0  0  0  0  0  0  0  0  0
  137.2541   71.6903  224.4192 H   0  0  0  0  0  0  0  0  0  0  0  0
  136.3861   70.6129  223.2800 H   0  0  0  0  0  0  0  0  0  0  0  0
  141.0775   72.5300  225.1327 H   0  0  0  0  0  0  0  0  0  0  0  0
  141.6950   71.4863  227.3282 H   0  0  0  0  0  0  0  0  0  0  0  0
  140.7904   69.2442  227.8310 H   0  0  0  0  0  0  0  0  0  0  0  0
  139.3454   68.0201  226.2854 H   0  0  0  0  0  0  0  0  0  0  0  0
  138.7368   69.0521  224.1086 H   0  0  0  0  0  0  0  0  0  0  0  0
  141.2417   72.8208  223.3470 H   0  0  0  0  0  0  0  0  0  0  0  0
  139.0804   73.2303  221.1958 H   0  0  0  0  0  0  0  0  0  0  0  0
  138.9752   73.9901  222.7928 H   0  0  0  0  0  0  0  0  0  0  0  0
  140.1490   75.4605  221.1017 H   0  0  0  0  0  0  0  0  0  0  0  0
  141.2259   75.0301  222.4643 H   0  0  0  0  0  0  0  0  0  0  0  0
  142.7673   76.5522  221.0291 H   0  0  0  0  0  0  0  0  0  0  0  0
  144.3140   75.9550  218.8650 H   0  0  0  0  0  0  0  0  0  0  0  0
  144.2950   77.3990  219.7060 H   0  0  0  0  0  0  0  0  0  0  0  0
  140.8335   76.0336  219.3719 H   0  0  0  0  0  0  0  0  0  0  0  0
  142.6126   77.6520  216.6046 H   0  0  0  0  0  0  0  0  0  0  0  0
  142.2484   79.9251  215.7228 H   0  0  0  0  0  0  0  0  0  0  0  0
  140.9592   81.5981  217.0761 H   0  0  0  0  0  0  0  0  0  0  0  0
  140.0684   80.9185  219.3266 H   0  0  0  0  0  0  0  0  0  0  0  0
  139.7167   77.6091  220.8148 H   0  0  0  0  0  0  0  0  0  0  0  0
  142.1214   80.2076  220.4301 H   0  0  0  0  0  0  0  0  0  0  0  0
  143.1450   81.2699  222.3743 H   0  0  0  0  0  0  0  0  0  0  0  0
  142.9047   80.3329  224.6535 H   0  0  0  0  0  0  0  0  0  0  0  0
  141.5540   78.2163  224.9291 H   0  0  0  0  0  0  0  0  0  0  0  0
  140.5340   77.1601  222.9701 H   0  0  0  0  0  0  0  0  0  0  0  0
  141.1566   72.3650  219.5035 H   0  0  0  0  0  0  0  0  0  0  0  0
  142.7914   72.3880  220.3488 H   0  0  0  0  0  0  0  0  0  0  0  0
  140.4826   71.0076  221.0661 H   0  0  0  0  0  0  0  0  0  0  0  0
  142.0749   71.2289  221.9574 H   0  0  0  0  0  0  0  0  0  0  0  0
  1  2  1  0
  2  3  1  0
  3  4  2  0
  3  5  1  0
  5  6  1  0
  6  7  2  0
  7  8  1  0
  8  9  2  0
  9 10  1  0
 10 11  2  0
  5 12  1  0
 12 13  1  0
 13 14  1  0
 14 15  1  0
 15 16  1  0
 16 17  2  0
 16 18  1  0
 18 19  1  0
 18 20  1  0
 20 21  1  0
 21 22  2  0
 22 23  1  0
 23 24  2  0
 24 25  1  0
 25 26  2  0
 26 27  1  0
 27 28  1  0
 28 29  2  0
 29 30  1  0
 30 31  2  0
 31 32  1  0
 32 33  2  0
 15 34  1  0
 34 35  1  0
 11  6  1  0
 35 12  1  0
 27 20  1  0
 33 28  1  0
 26 21  1  0
  1 36  1  0
  1 37  1  0
  1 38  1  0
  2 39  1  0
  2 40  1  0
  7 41  1  0
  8 42  1  0
  9 43  1  0
 10 44  1  0
 11 45  1  0
 12 46  1  0
 13 47  1  0
 13 48  1  0
 14 49  1  0
 14 50  1  0
 18 51  1  1
 19 52  1  0
 19 53  1  0
 20 54  1  6
 22 55  1  0
 23 56  1  0
 24 57  1  0
 25 58  1  0
 27 59  1  1
 29 60  1  0
 30 61  1  0
 31 62  1  0
 32 63  1  0
 33 64  1  0
 34 65  1  0
 34 66  1  0
 35 67  1  0
 35 68  1  0
M  END
>  <smiles>  (2) 
CCC(=O)N(c1ccccc1)C1CCN(C(=O)[C@@H](N)C2c3ccccc3C2c2ccccc2)CC1

>  <score_type>  (2) 
oracle

>  <origin>  (2) 
autodockgpu

>  <m_score__min__energy>  (2) 
-8.5999999999999996

>  <m_primary>  (2) 
energy

>  <rmsd>  (2) 
10.099142527595687

>  <m_score__min__rmsd>  (2) 
10.099142527595687

>  <meeko>  (2) 
{"free_energy": -8.56, "intermolecular_energy": -10.94, "internal_energy": -3.01, "cluster_size": 34, "cluster_id": 1, "rank_in_cluster": 16}

>  <energy>  (2) 
-8.58

>  <cluster_rmsd>  (2) 
0.22

>  <cluster>  (2) 
1

$$$$

     RDKit          3D

 68 72  0  0  0  0  0  0  0  0999 V2000
  136.4030   72.6390  222.7260 C   0  0  0  0  0  0  0  0  0  0  0  0
  137.1140   71.4980  223.4090 C   0  0  0  0  0  0  0  0  0  0  0  0
  138.3910   71.2220  222.6840 C   0  0  0  0  0  0  0  0  0  0  0  0
  138.3030   70.7320  221.5370 O   0  0  0  0  0  0  0  0  0  0  0  0
  139.6470   71.5150  223.3090 N   0  0  0  0  0  0  0  0  0  0  0  0
  139.9550   70.8820  224.5440 C   0  0  0  0  0  0  0  0  0  0  0  0
  139.4990   69.5700  224.7070 C   0  0  0  0  0  0  0  0  0  0  0  0
  139.7470   68.8760  225.8800 C   0  0  0  0  0  0  0  0  0  0  0  0
  140.4550   69.5480  226.8500 C   0  0  0  0  0  0  0  0  0  0  0  0
  140.9160   70.8320  226.7220 C   0  0  0  0  0  0  0  0  0  0  0  0
  140.6630   71.5080  225.5560 C   0  0  0  0  0  0  0  0  0  0  0  0
  140.5600   72.4420  222.6430 C   0  0  0  0  0  0  0  0  0  0  0  0
  139.7320   73.6070  222.1080 C   0  0  0  0  0  0  0  0  0  0  0  0
  140.7310   74.6470  221.6280 C   0  0  0  0  0  0  0  0  0  0  0  0
  141.6050   74.0320  220.6610 N   0  0  0  0  0  0  0  0  0  0  0  0
  142.4950   74.8390  219.8530 C   0  0  0  0  0  0  0  0  0  0  0  0
  143.2460   74.2810  218.9790 O   0  0  0  0  0  0  0  0  0  0  0  0
  142.6170   76.3050  219.9490 C   0  0  1  0  0  0  0  0  0  0  0  0
  143.7390   76.7460  219.1340 N   0  0  0  0  0  0  0  0  0  0  0  0
  141.3990   77.0170  219.4830 C   0  0  2  0  0  0  0  0  0  0  0  0
  141.6380   77.9910  218.3790 C   0  0  0  0  0  0  0  0  0  0  0  0
  142.1340   78.3400  217.1430 C   0  0  0  0  0  0  0  0  0  0  0  0
  141.9710   79.6050  216.6160 C   0  0  0  0  0  0  0  0  0  0  0  0
  141.2800   80.5740  217.3460 C   0  0  0  0  0  0  0  0  0  0  0  0
  140.7690   80.2340  218.6050 C   0  0  0  0  0  0  0  0  0  0  0  0
  140.9590   78.9410  219.1030 C   0  0  0  0  0  0  0  0  0  0  0  0
  140.7130   78.0250  220.2830 C   0  0  2  0  0  0  0  0  0  0  0  0
  141.3050   78.6530  221.4700 C   0  0  0  0  0  0  0  0  0  0  0  0
  141.1160   78.0690  222.7340 C   0  0  0  0  0  0  0  0  0  0  0  0
  141.6360   78.6400  223.8690 C   0  0  0  0  0  0  0  0  0  0  0  0
  142.3660   79.8040  223.8450 C   0  0  0  0  0  0  0  0  0  0  0  0
  142.5670   80.4040  222.5980 C   0  0  0  0  0  0  0  0  0  0  0  0
  142.0380   79.8180  221.4670 C   0  0  0  0  0  0  0  0  0  0  0  0
  141.6900   72.6100  220.3930 C   0  0  0  0  0  0  0  0  0  0  0  0
  141.2000   71.7250  221.4900 C   0  0  0  0  0  0  0  0  0  0  0  0
  135.9817   73.3151  223.4845 H   0  0  0  0  0  0  0  0  0  0  0  0
  137.1166   73.1921  222.0976 H   0  0  0  0  0  0  0  0  0  0  0  0
  135.5921   72.2421  222.0976 H   0  0  0  0  0  0  0  0  0  0  0  0
  137.3327   71.7703  224.4521 H   0  0  0  0  0  0  0  0  0  0  0  0
  136.4771   70.6012  223.3979 H   0  0  0  0  0  0  0  0  0  0  0  0
  138.9376   69.0841  223.8954 H   0  0  0  0  0  0  0  0  0  0  0  0
  139.3970   67.8437  226.0280 H   0  0  0  0  0  0  0  0  0  0  0  0
  140.6649   69.0189  227.7913 H   0  0  0  0  0  0  0  0  0  0  0  0
  141.4775   71.3107  227.5378 H   0  0  0  0  0  0  0  0  0  0  0  0
  141.0200   72.5403  225.4256 H   0  0  0  0  0  0  0  0  0  0  0  0
  141.3335   72.8059  223.3353 H   0  0  0  0  0  0  0  0  0  0  0  0
  139.0974   73.2733  221.2738 H   0  0  0  0  0  0  0  0  0  0  0  0
  139.0658   74.0160  222.8819 H   0  0  0  0  0  0  0  0  0  0  0  0
  140.1960   75.4878  221.1623 H   0  0  0  0  0  0  0  0  0  0  0  0
  141.3176   75.0255  222.4781 H   0  0  0  0  0  0  0  0  0  0  0  0
  142.7659   76.5453  221.0121 H   0  0  0  0  0  0  0  0  0  0  0  0
  144.3860   75.9490  218.9400 H   0  0  0  0  0  0  0  0  0  0  0  0
  144.2920   77.4360  219.6980 H   0  0  0  0  0  0  0  0  0  0  0  0
  140.8448   76.0761  219.3503 H   0  0  0  0  0  0  0  0  0  0  0  0
  142.6783   77.5855  216.5561 H   0  0  0  0  0  0  0  0  0  0  0  0
  142.3834   79.8486  215.6258 H   0  0  0  0  0  0  0  0  0  0  0  0
  141.1394   81.5865  216.9396 H   0  0  0  0  0  0  0  0  0  0  0  0
  140.2210   80.9802  219.1991 H   0  0  0  0  0  0  0  0  0  0  0  0
  139.7697   77.7139  220.7556 H   0  0  0  0  0  0  0  0  0  0  0  0
  140.5398   77.1355  222.8157 H   0  0  0  0  0  0  0  0  0  0  0  0
  141.4613   78.1461  224.8362 H   0  0  0  0  0  0  0  0  0  0  0  0
  142.7744   80.2445  224.7665 H   0  0  0  0  0  0  0  0  0  0  0  0
  143.1435   81.3376  222.5196 H   0  0  0  0  0  0  0  0  0  0  0  0
  142.2131   80.3135  220.5006 H   0  0  0  0  0  0  0  0  0  0  0  0
  141.0945   72.3974  219.4929 H   0  0  0  0  0  0  0  0  0  0  0  0
  142.7604   72.3856  220.2757 H   0  0  0  0  0  0  0  0  0  0  0  0
  140.4589   71.0322  221.0647 H   0  0  0  0  0  0  0  0  0  0  0  0
  142.0874   71.2179  221.8966 H   0  0  0  0  0  0  0  0  0  0  0  0
  1  2  1  0
  2  3  1  0
  3  4  2  0
  3  5  1  0
  5  6  1  0
  6  7  2  0
  7  8  1  0
  8  9  2  0
  9 10  1  0
 10 11  2  0
  5 12  1  0
 12 13  1  0
 13 14  1  0
 14 15  1  0
 15 16  1  0
 16 17  2  0
 16 18  1  0
 18 19  1  0
 18 20  1  0
 20 21  1  0
 21 22  2  0
 22 23  1  0
 23 24  2  0
 24 25  1  0
 25 26  2  0
 26 27  1  0
 27 28  1  0
 28 29  2  0
 29 30  1  0
 30 31  2  0
 31 32  1  0
 32 33  2  0
 15 34  1  0
 34 35  1  0
 11  6  1  0
 35 12  1  0
 27 20  1  0
 33 28  1  0
 26 21  1  0
  1 36  1  0
  1 37  1  0
  1 38  1  0
  2 39  1  0
  2 40  1  0
  7 41  1  0
  8 42  1  0
  9 43  1  0
 10 44  1  0
 11 45  1  0
 12 46  1  0
 13 47  1  0
 13 48  1  0
 14 49  1  0
 14 50  1  0
 18 51  1  1
 19 52  1  0
 19 53  1  0
 20 54  1  6
 22 55  1  0
 23 56  1  0
 24 57  1  0
 25 58  1  0
 27 59  1  1
 29 60  1  0
 30 61  1  0
 31 62  1  0
 32 63  1  0
 33 64  1  0
 34 65  1  0
 34 66  1  0
 35 67  1  0
 35 68  1  0
M  END
>  <smiles>  (3) 
CCC(=O)N(c1ccccc1)C1CCN(C(=O)[C@@H](N)C2c3ccccc3C2c2ccccc2)CC1

>  <score_type>  (3) 
oracle

>  <origin>  (3) 
autodockgpu

>  <m_score__min__energy>  (3) 
-8.5999999999999996

>  <m_primary>  (3) 
energy

>  <rmsd>  (3) 
10.154657101633232

>  <m_score__min__rmsd>  (3) 
10.154657101633232

>  <meeko>  (3) 
{"free_energy": -8.52, "intermolecular_energy": -10.9, "internal_energy": -3.04, "cluster_size": 34, "cluster_id": 1, "rank_in_cluster": 26}

>  <energy>  (3) 
-8.58

>  <cluster_rmsd>  (3) 
0.25

>  <cluster>  (3) 
1

$$$$

     RDKit          3D

 68 72  0  0  0  0  0  0  0  0999 V2000
  135.6300   82.7090  221.6900 C   0  0  0  0  0  0  0  0  0  0  0  0
  135.1870   83.0130  223.0980 C   0  0  0  0  0  0  0  0  0  0  0  0
  136.3740   82.9510  224.0030 C   0  0  0  0  0  0  0  0  0  0  0  0
  137.2580   83.8220  223.8480 O   0  0  0  0  0  0  0  0  0  0  0  0
  136.4660   81.9210  224.9960 N   0  0  0  0  0  0  0  0  0  0  0  0
  136.0810   82.2290  226.3290 C   0  0  0  0  0  0  0  0  0  0  0  0
  135.6870   83.5480  226.5810 C   0  0  0  0  0  0  0  0  0  0  0  0
  135.3010   83.9410  227.8510 C   0  0  0  0  0  0  0  0  0  0  0  0
  135.3290   82.9700  228.8260 C   0  0  0  0  0  0  0  0  0  0  0  0
  135.7080   81.6710  228.6140 C   0  0  0  0  0  0  0  0  0  0  0  0
  136.0890   81.2950  227.3520 C   0  0  0  0  0  0  0  0  0  0  0  0
  136.9380   80.5990  224.5910 C   0  0  0  0  0  0  0  0  0  0  0  0
  138.0940   80.7970  223.6150 C   0  0  0  0  0  0  0  0  0  0  0  0
  138.7000   79.4200  223.3960 C   0  0  0  0  0  0  0  0  0  0  0  0
  137.6640   78.5310  222.9350 N   0  0  0  0  0  0  0  0  0  0  0  0
  137.9940   77.2230  222.4100 C   0  0  0  0  0  0  0  0  0  0  0  0
  137.0650   76.4540  221.9790 O   0  0  0  0  0  0  0  0  0  0  0  0
  139.3610   76.6750  222.3230 C   0  0  1  0  0  0  0  0  0  0  0  0
  139.3340   75.2650  222.6830 N   0  0  0  0  0  0  0  0  0  0  0  0
  139.9440   76.7930  220.9610 C   0  0  2  0  0  0  0  0  0  0  0  0
  141.0760   75.8620  220.6910 C   0  0  0  0  0  0  0  0  0  0  0  0
  141.6510   74.6110  220.6670 C   0  0  0  0  0  0  0  0  0  0  0  0
  142.9370   74.4010  220.2100 C   0  0  0  0  0  0  0  0  0  0  0  0
  143.6920   75.4820  219.7540 C   0  0  0  0  0  0  0  0  0  0  0  0
  143.1220   76.7610  219.7730 C   0  0  0  0  0  0  0  0  0  0  0  0
  141.8170   76.9300  220.2450 C   0  0  0  0  0  0  0  0  0  0  0  0
  140.7290   77.9440  220.5310 C   0  0  2  0  0  0  0  0  0  0  0  0
  141.2770   78.9390  221.4610 C   0  0  0  0  0  0  0  0  0  0  0  0
  141.2900   80.2960  221.0990 C   0  0  0  0  0  0  0  0  0  0  0  0
  141.8130   81.2530  221.9330 C   0  0  0  0  0  0  0  0  0  0  0  0
  142.3540   80.9500  223.1600 C   0  0  0  0  0  0  0  0  0  0  0  0
  142.3530   79.6040  223.5420 C   0  0  0  0  0  0  0  0  0  0  0  0
  141.8220   78.6560  222.6920 C   0  0  0  0  0  0  0  0  0  0  0  0
  136.2450   78.8260  222.9370 C   0  0  0  0  0  0  0  0  0  0  0  0
  135.8170   79.8930  223.8870 C   0  0  0  0  0  0  0  0  0  0  0  0
  136.5367   82.0868  221.7172 H   0  0  0  0  0  0  0  0  0  0  0  0
  134.8301   82.1686  221.1626 H   0  0  0  0  0  0  0  0  0  0  0  0
  135.8465   83.6497  221.1626 H   0  0  0  0  0  0  0  0  0  0  0  0
  134.7453   84.0197  223.1369 H   0  0  0  0  0  0  0  0  0  0  0  0
  134.4349   82.2773  223.4190 H   0  0  0  0  0  0  0  0  0  0  0  0
  135.6840   84.2808  225.7606 H   0  0  0  0  0  0  0  0  0  0  0  0
  134.9889   84.9730  228.0690 H   0  0  0  0  0  0  0  0  0  0  0  0
  135.0266   83.2565  229.8441 H   0  0  0  0  0  0  0  0  0  0  0  0
  135.7067   80.9442  229.4397 H   0  0  0  0  0  0  0  0  0  0  0  0
  136.3990   80.2585  227.1530 H   0  0  0  0  0  0  0  0  0  0  0  0
  137.2648   80.0095  225.4603 H   0  0  0  0  0  0  0  0  0  0  0  0
  137.7246   81.2074  222.6636 H   0  0  0  0  0  0  0  0  0  0  0  0
  138.8371   81.5054  224.0099 H   0  0  0  0  0  0  0  0  0  0  0  0
  139.4982   79.4819  222.6417 H   0  0  0  0  0  0  0  0  0  0  0  0
  139.1279   79.0433  224.3367 H   0  0  0  0  0  0  0  0  0  0  0  0
  139.9862   77.2607  223.0130 H   0  0  0  0  0  0  0  0  0  0  0  0
  138.3690   74.8780  222.5780 H   0  0  0  0  0  0  0  0  0  0  0  0
  139.5650   75.1920  223.7030 H   0  0  0  0  0  0  0  0  0  0  0  0
  138.9583   76.7001  220.4817 H   0  0  0  0  0  0  0  0  0  0  0  0
  141.0664   73.7502  221.0238 H   0  0  0  0  0  0  0  0  0  0  0  0
  143.3638   73.3872  220.2055 H   0  0  0  0  0  0  0  0  0  0  0  0
  144.7177   75.3322  219.3858 H   0  0  0  0  0  0  0  0  0  0  0  0
  143.6982   77.6283  219.4183 H   0  0  0  0  0  0  0  0  0  0  0  0
  140.2259   78.6544  219.8585 H   0  0  0  0  0  0  0  0  0  0  0  0
  140.8725   80.5983  220.1272 H   0  0  0  0  0  0  0  0  0  0  0  0
  141.7986   82.3034  221.6066 H   0  0  0  0  0  0  0  0  0  0  0  0
  142.7695   81.7317  223.8129 H   0  0  0  0  0  0  0  0  0  0  0  0
  142.7727   79.3037  224.5134 H   0  0  0  0  0  0  0  0  0  0  0  0
  141.8353   77.6060  223.0197 H   0  0  0  0  0  0  0  0  0  0  0  0
  135.9621   79.1414  221.9219 H   0  0  0  0  0  0  0  0  0  0  0  0
  135.7434   77.9048  223.2683 H   0  0  0  0  0  0  0  0  0  0  0  0
  135.2422   80.6422  223.3229 H   0  0  0  0  0  0  0  0  0  0  0  0
  135.2287   79.3914  224.6695 H   0  0  0  0  0  0  0  0  0  0  0  0
  1  2  1  0
  2  3  1  0
  3  4  2  0
  3  5  1  0
  5  6  1  0
  6  7  2  0
  7  8  1  0
  8  9  2  0
  9 10  1  0
 10 11  2  0
  5 12  1  0
 12 13  1  0
 13 14  1  0
 14 15  1  0
 15 16  1  0
 16 17  2  0
 16 18  1  0
 18 19  1  0
 18 20  1  0
 20 21  1  0
 21 22  2  0
 22 23  1  0
 23 24  2  0
 24 25  1  0
 25 26  2  0
 26 27  1  0
 27 28  1  0
 28 29  2  0
 29 30  1  0
 30 31  2  0
 31 32  1  0
 32 33  2  0
 15 34  1  0
 34 35  1  0
 11  6  1  0
 35 12  1  0
 27 20  1  0
 33 28  1  0
 26 21  1  0
  1 36  1  0
  1 37  1  0
  1 38  1  0
  2 39  1  0
  2 40  1  0
  7 41  1  0
  8 42  1  0
  9 43  1  0
 10 44  1  0
 11 45  1  0
 12 46  1  0
 13 47  1  0
 13 48  1  0
 14 49  1  0
 14 50  1  0
 18 51  1  1
 19 52  1  0
 19 53  1  0
 20 54  1  6
 22 55  1  0
 23 56  1  0
 24 57  1  0
 25 58  1  0
 27 59  1  6
 29 60  1  0
 30 61  1  0
 31 62  1  0
 32 63  1  0
 33 64  1  0
 34 65  1  0
 34 66  1  0
 35 67  1  0
 35 68  1  0
M  END
>  <smiles>  (4) 
CCC(=O)N(c1ccccc1)C1CCN(C(=O)[C@@H](N)C2c3ccccc3C2c2ccccc2)CC1

>  <score_type>  (4) 
oracle

>  <origin>  (4) 
autodockgpu

>  <m_score__min__energy>  (4) 
-8.5999999999999996

>  <m_primary>  (4) 
energy

>  <rmsd>  (4) 
8.279517317504736

>  <m_score__min__rmsd>  (4) 
8.279517317504736

>  <meeko>  (4) 
{"free_energy": -8.09, "intermolecular_energy": -10.48, "internal_energy": -3.38, "cluster_size": 15, "cluster_id": 2, "rank_in_cluster": 7}

>  <energy>  (4) 
-8.58

>  <cluster_rmsd>  (4) 
0.24

>  <cluster>  (4) 
1

$$$$

     RDKit          3D

 68 72  0  0  0  0  0  0  0  0999 V2000
  137.5850   83.5520  221.8040 C   0  0  0  0  0  0  0  0  0  0  0  0
  137.0690   83.7510  223.2070 C   0  0  0  0  0  0  0  0  0  0  0  0
  136.0770   82.6770  223.5140 C   0  0  0  0  0  0  0  0  0  0  0  0
  135.0530   82.6220  222.7990 O   0  0  0  0  0  0  0  0  0  0  0  0
  136.3200   81.7640  224.5920 N   0  0  0  0  0  0  0  0  0  0  0  0
  135.9970   82.1750  225.9140 C   0  0  0  0  0  0  0  0  0  0  0  0
  136.1030   83.5430  226.1900 C   0  0  0  0  0  0  0  0  0  0  0  0
  135.8150   84.0350  227.4520 C   0  0  0  0  0  0  0  0  0  0  0  0
  135.4250   83.1100  228.3940 C   0  0  0  0  0  0  0  0  0  0  0  0
  135.3110   81.7650  228.1570 C   0  0  0  0  0  0  0  0  0  0  0  0
  135.6000   81.2920  226.9040 C   0  0  0  0  0  0  0  0  0  0  0  0
  136.8750   80.4480  224.2840 C   0  0  0  0  0  0  0  0  0  0  0  0
  138.0000   80.6440  223.2710 C   0  0  0  0  0  0  0  0  0  0  0  0
  138.6950   79.2980  223.1490 C   0  0  0  0  0  0  0  0  0  0  0  0
  137.7150   78.3080  222.7810 N   0  0  0  0  0  0  0  0  0  0  0  0
  138.1260   76.9860  222.3540 C   0  0  0  0  0  0  0  0  0  0  0  0
  137.2440   76.1260  222.0030 O   0  0  0  0  0  0  0  0  0  0  0  0
  139.5250   76.5250  222.2830 C   0  0  1  0  0  0  0  0  0  0  0  0
  139.5810   75.1150  222.6370 N   0  0  0  0  0  0  0  0  0  0  0  0
  140.1170   76.6860  220.9290 C   0  0  2  0  0  0  0  0  0  0  0  0
  141.2880   75.8040  220.6590 C   0  0  0  0  0  0  0  0  0  0  0  0
  141.9120   74.5770  220.6240 C   0  0  0  0  0  0  0  0  0  0  0  0
  143.2100   74.4260  220.1790 C   0  0  0  0  0  0  0  0  0  0  0  0
  143.9270   75.5420  219.7450 C   0  0  0  0  0  0  0  0  0  0  0  0
  143.3050   76.7970  219.7750 C   0  0  0  0  0  0  0  0  0  0  0  0
  141.9900   76.9070  220.2350 C   0  0  0  0  0  0  0  0  0  0  0  0
  140.8600   77.8730  220.5230 C   0  0  2  0  0  0  0  0  0  0  0  0
  141.3580   78.8760  221.4720 C   0  0  0  0  0  0  0  0  0  0  0  0
  141.4150   80.2270  221.0900 C   0  0  0  0  0  0  0  0  0  0  0  0
  141.8950   81.1900  221.9430 C   0  0  0  0  0  0  0  0  0  0  0  0
  142.3460   80.9010  223.2090 C   0  0  0  0  0  0  0  0  0  0  0  0
  142.2990   79.5610  223.6110 C   0  0  0  0  0  0  0  0  0  0  0  0
  141.8140   78.6060  222.7420 C   0  0  0  0  0  0  0  0  0  0  0  0
  136.2790   78.5060  222.7880 C   0  0  0  0  0  0  0  0  0  0  0  0
  135.7940   79.6150  223.6600 C   0  0  0  0  0  0  0  0  0  0  0  0
  138.6107   83.1565  221.8432 H   0  0  0  0  0  0  0  0  0  0  0  0
  136.9372   82.8392  221.2727 H   0  0  0  0  0  0  0  0  0  0  0  0
  137.5835   84.5152  221.2727 H   0  0  0  0  0  0  0  0  0  0  0  0
  137.9053   83.6959  223.9194 H   0  0  0  0  0  0  0  0  0  0  0  0
  136.5891   84.7372  223.2915 H   0  0  0  0  0  0  0  0  0  0  0  0
  136.4186   84.2352  225.3955 H   0  0  0  0  0  0  0  0  0  0  0  0
  135.8936   85.1063  227.6888 H   0  0  0  0  0  0  0  0  0  0  0  0
  135.1891   83.4748  229.4046 H   0  0  0  0  0  0  0  0  0  0  0  0
  134.9939   81.0792  228.9564 H   0  0  0  0  0  0  0  0  0  0  0  0
  135.5171   80.2171  226.6858 H   0  0  0  0  0  0  0  0  0  0  0  0
  137.2541   79.9534  225.1904 H   0  0  0  0  0  0  0  0  0  0  0  0
  137.5887   80.9511  222.2981 H   0  0  0  0  0  0  0  0  0  0  0  0
  138.6990   81.4300  223.5930 H   0  0  0  0  0  0  0  0  0  0  0  0
  139.4756   79.3524  222.3759 H   0  0  0  0  0  0  0  0  0  0  0  0
  139.1621   79.0273  224.1074 H   0  0  0  0  0  0  0  0  0  0  0  0
  140.1039   77.1450  222.9834 H   0  0  0  0  0  0  0  0  0  0  0  0
  139.6700   74.5250  221.7800 H   0  0  0  0  0  0  0  0  0  0  0  0
  138.6620   74.8580  223.0710 H   0  0  0  0  0  0  0  0  0  0  0  0
  139.1407   76.5618  220.4378 H   0  0  0  0  0  0  0  0  0  0  0  0
  141.3583   73.6885  220.9615 H   0  0  0  0  0  0  0  0  0  0  0  0
  143.6773   73.4303  220.1665 H   0  0  0  0  0  0  0  0  0  0  0  0
  144.9616   75.4381  219.3859 H   0  0  0  0  0  0  0  0  0  0  0  0
  143.8492   77.6916  219.4380 H   0  0  0  0  0  0  0  0  0  0  0  0
  140.3362   78.5722  219.8546 H   0  0  0  0  0  0  0  0  0  0  0  0
  141.0682   80.5189  220.0877 H   0  0  0  0  0  0  0  0  0  0  0  0
  141.9197   82.2347  221.5995 H   0  0  0  0  0  0  0  0  0  0  0  0
  142.7269   81.6879  223.8766 H   0  0  0  0  0  0  0  0  0  0  0  0
  142.6467   79.2714  224.6136 H   0  0  0  0  0  0  0  0  0  0  0  0
  141.7902   77.5615  223.0862 H   0  0  0  0  0  0  0  0  0  0  0  0
  135.9601   78.7196  221.7571 H   0  0  0  0  0  0  0  0  0  0  0  0
  135.8460   77.5826  223.2001 H   0  0  0  0  0  0  0  0  0  0  0  0
  135.1615   80.2771  223.0505 H   0  0  0  0  0  0  0  0  0  0  0  0
  135.2530   79.1393  224.4913 H   0  0  0  0  0  0  0  0  0  0  0  0
  1  2  1  0
  2  3  1  0
  3  4  2  0
  3  5  1  0
  5  6  1  0
  6  7  2  0
  7  8  1  0
  8  9  2  0
  9 10  1  0
 10 11  2  0
  5 12  1  0
 12 13  1  0
 13 14  1  0
 14 15  1  0
 15 16  1  0
 16 17  2  0
 16 18  1  0
 18 19  1  0
 18 20  1  0
 20 21  1  0
 21 22  2  0
 22 23  1  0
 23 24  2  0
 24 25  1  0
 25 26  2  0
 26 27  1  0
 27 28  1  0
 28 29  2  0
 29 30  1  0
 30 31  2  0
 31 32  1  0
 32 33  2  0
 15 34  1  0
 34 35  1  0
 11  6  1  0
 35 12  1  0
 27 20  1  0
 33 28  1  0
 26 21  1  0
  1 36  1  0
  1 37  1  0
  1 38  1  0
  2 39  1  0
  2 40  1  0
  7 41  1  0
  8 42  1  0
  9 43  1  0
 10 44  1  0
 11 45  1  0
 12 46  1  0
 13 47  1  0
 13 48  1  0
 14 49  1  0
 14 50  1  0
 18 51  1  1
 19 52  1  0
 19 53  1  0
 20 54  1  6
 22 55  1  0
 23 56  1  0
 24 57  1  0
 25 58  1  0
 27 59  1  6
 29 60  1  0
 30 61  1  0
 31 62  1  0
 32 63  1  0
 33 64  1  0
 34 65  1  0
 34 66  1  0
 35 67  1  0
 35 68  1  0
M  END
>  <smiles>  (5) 
CCC(=O)N(c1ccccc1)C1CCN(C(=O)[C@@H](N)C2c3ccccc3C2c2ccccc2)CC1

>  <score_type>  (5) 
oracle

>  <origin>  (5) 
autodockgpu

>  <m_score__min__energy>  (5) 
-8.5999999999999996

>  <m_primary>  (5) 
energy

>  <rmsd>  (5) 
8.237264797789221

>  <m_score__min__rmsd>  (5) 
8.237264797789221

>  <meeko>  (5) 
{"free_energy": -7.9, "intermolecular_energy": -10.29, "internal_energy": -3.3, "cluster_size": 15, "cluster_id": 2, "rank_in_cluster": 14}

>  <energy>  (5) 
-8.58

>  <cluster_rmsd>  (5) 
0.43

>  <cluster>  (5) 
1

$$$$

     RDKit          3D

 68 72  0  0  0  0  0  0  0  0999 V2000
  136.1970   70.2520  223.3840 C   0  0  0  0  0  0  0  0  0  0  0  0
  137.0550   71.4870  223.4930 C   0  0  0  0  0  0  0  0  0  0  0  0
  138.3100   71.2740  222.7110 C   0  0  0  0  0  0  0  0  0  0  0  0
  138.1890   70.8790  221.5310 O   0  0  0  0  0  0  0  0  0  0  0  0
  139.5840   71.5190  223.3200 N   0  0  0  0  0  0  0  0  0  0  0  0
  139.9000   70.8420  224.5300 C   0  0  0  0  0  0  0  0  0  0  0  0
  139.5680   69.4850  224.5940 C   0  0  0  0  0  0  0  0  0  0  0  0
  139.8320   68.7460  225.7350 C   0  0  0  0  0  0  0  0  0  0  0  0
  140.4300   69.4200  226.7750 C   0  0  0  0  0  0  0  0  0  0  0  0
  140.7690   70.7470  226.7440 C   0  0  0  0  0  0  0  0  0  0  0  0
  140.5010   71.4670  225.6090 C   0  0  0  0  0  0  0  0  0  0  0  0
  140.5070   72.4440  222.6640 C   0  0  0  0  0  0  0  0  0  0  0  0
  139.6860   73.6050  222.1100 C   0  0  0  0  0  0  0  0  0  0  0  0
  140.6900   74.6450  221.6420 C   0  0  0  0  0  0  0  0  0  0  0  0
  141.5810   74.0260  220.6930 N   0  0  0  0  0  0  0  0  0  0  0  0
  142.4830   74.8310  219.8950 C   0  0  0  0  0  0  0  0  0  0  0  0
  143.2490   74.2700  219.0360 O   0  0  0  0  0  0  0  0  0  0  0  0
  142.6010   76.2990  219.9870 C   0  0  1  0  0  0  0  0  0  0  0  0
  143.7200   76.7400  219.1680 N   0  0  0  0  0  0  0  0  0  0  0  0
  141.3800   77.0060  219.5200 C   0  0  2  0  0  0  0  0  0  0  0  0
  141.6220   78.0100  218.4450 C   0  0  0  0  0  0  0  0  0  0  0  0
  142.1320   78.3990  217.2270 C   0  0  0  0  0  0  0  0  0  0  0  0
  141.9580   79.6750  216.7300 C   0  0  0  0  0  0  0  0  0  0  0  0
  141.2430   80.6140  217.4740 C   0  0  0  0  0  0  0  0  0  0  0  0
  140.7180   80.2350  218.7160 C   0  0  0  0  0  0  0  0  0  0  0  0
  140.9180   78.9320  219.1820 C   0  0  0  0  0  0  0  0  0  0  0  0
  140.6670   77.9830  220.3340 C   0  0  2  0  0  0  0  0  0  0  0  0
  141.2330   78.5870  221.5470 C   0  0  0  0  0  0  0  0  0  0  0  0
  142.0010   79.7590  221.4470 C   0  0  0  0  0  0  0  0  0  0  0  0
  142.5640   80.3410  222.5560 C   0  0  0  0  0  0  0  0  0  0  0  0
  142.4170   79.8210  223.8200 C   0  0  0  0  0  0  0  0  0  0  0  0
  141.6570   78.6530  223.9440 C   0  0  0  0  0  0  0  0  0  0  0  0
  141.0980   78.0820  222.8190 C   0  0  0  0  0  0  0  0  0  0  0  0
  141.6730   72.6040  220.4330 C   0  0  0  0  0  0  0  0  0  0  0  0
  141.1670   71.7230  221.5250 C   0  0  0  0  0  0  0  0  0  0  0  0
  135.9456   69.8901  224.3919 H   0  0  0  0  0  0  0  0  0  0  0  0
  135.2721   70.4949  222.8403 H   0  0  0  0  0  0  0  0  0  0  0  0
  136.7473   69.4700  222.8403 H   0  0  0  0  0  0  0  0  0  0  0  0
  136.5099   72.3524  223.0881 H   0  0  0  0  0  0  0  0  0  0  0  0
  137.3008   71.6785  224.5479 H   0  0  0  0  0  0  0  0  0  0  0  0
  139.0922   68.9996  223.7291 H   0  0  0  0  0  0  0  0  0  0  0  0
  139.5775   67.6782  225.8061 H   0  0  0  0  0  0  0  0  0  0  0  0
  140.6506   68.8554  227.6929 H   0  0  0  0  0  0  0  0  0  0  0  0
  141.2465   71.2248  227.6122 H   0  0  0  0  0  0  0  0  0  0  0  0
  140.7618   72.5343  225.5559 H   0  0  0  0  0  0  0  0  0  0  0  0
  141.2688   72.8118  223.3671 H   0  0  0  0  0  0  0  0  0  0  0  0
  139.0661   73.2662  221.2668 H   0  0  0  0  0  0  0  0  0  0  0  0
  139.0065   74.0161  222.8711 H   0  0  0  0  0  0  0  0  0  0  0  0
  140.1611   75.4821  221.1630 H   0  0  0  0  0  0  0  0  0  0  0  0
  141.2612   75.0301  222.4996 H   0  0  0  0  0  0  0  0  0  0  0  0
  142.7508   76.5433  221.0490 H   0  0  0  0  0  0  0  0  0  0  0  0
  144.4150   75.9680  219.0500 H   0  0  0  0  0  0  0  0  0  0  0  0
  144.2180   77.4990  219.6910 H   0  0  0  0  0  0  0  0  0  0  0  0
  140.8413   76.0612  219.3552 H   0  0  0  0  0  0  0  0  0  0  0  0
  142.6972   77.6684  216.6297 H   0  0  0  0  0  0  0  0  0  0  0  0
  142.3808   79.9500  215.7525 H   0  0  0  0  0  0  0  0  0  0  0  0
  141.0941   81.6346  217.0917 H   0  0  0  0  0  0  0  0  0  0  0  0
  140.1517   80.9582  219.3212 H   0  0  0  0  0  0  0  0  0  0  0  0
  139.7204   77.6480  220.7830 H   0  0  0  0  0  0  0  0  0  0  0  0
  142.1545   80.2199  220.4601 H   0  0  0  0  0  0  0  0  0  0  0  0
  143.1558   81.2593  222.4279 H   0  0  0  0  0  0  0  0  0  0  0  0
  142.8769   80.3023  224.6957 H   0  0  0  0  0  0  0  0  0  0  0  0
  141.5060   78.1929  224.9317 H   0  0  0  0  0  0  0  0  0  0  0  0
  140.5063   77.1637  222.9479 H   0  0  0  0  0  0  0  0  0  0  0  0
  141.0928   72.3863  219.5242 H   0  0  0  0  0  0  0  0  0  0  0  0
  142.7457   72.3813  220.3345 H   0  0  0  0  0  0  0  0  0  0  0  0
  140.4342   71.0270  221.0907 H   0  0  0  0  0  0  0  0  0  0  0  0
  142.0484   71.2190  221.9482 H   0  0  0  0  0  0  0  0  0  0  0  0
  1  2  1  0
  2  3  1  0
  3  4  2  0
  3  5  1  0
  5  6  1  0
  6  7  2  0
  7  8  1  0
  8  9  2  0
  9 10  1  0
 10 11  2  0
  5 12  1  0
 12 13  1  0
 13 14  1  0
 14 15  1  0
 15 16  1  0
 16 17  2  0
 16 18  1  0
 18 19  1  0
 18 20  1  0
 20 21  1  0
 21 22  2  0
 22 23  1  0
 23 24  2  0
 24 25  1  0
 25 26  2  0
 26 27  1  0
 27 28  1  0
 28 29  2  0
 29 30  1  0
 30 31  2  0
 31 32  1  0
 32 33  2  0
 15 34  1  0
 34 35  1  0
 11  6  1  0
 35 12  1  0
 27 20  1  0
 33 28  1  0
 26 21  1  0
  1 36  1  0
  1 37  1  0
  1 38  1  0
  2 39  1  0
  2 40  1  0
  7 41  1  0
  8 42  1  0
  9 43  1  0
 10 44  1  0
 11 45  1  0
 12 46  1  0
 13 47  1  0
 13 48  1  0
 14 49  1  0
 14 50  1  0
 18 51  1  1
 19 52  1  0
 19 53  1  0
 20 54  1  6
 22 55  1  0
 23 56  1  0
 24 57  1  0
 25 58  1  0
 27 59  1  1
 29 60  1  0
 30 61  1  0
 31 62  1  0
 32 63  1  0
 33 64  1  0
 34 65  1  0
 34 66  1  0
 35 67  1  0
 35 68  1  0
M  END
>  <smiles>  (6) 
CCC(=O)N(c1ccccc1)C1CCN(C(=O)[C@@H](N)C2c3ccccc3C2c2ccccc2)CC1

>  <score_type>  (6) 
oracle

>  <origin>  (6) 
autodockgpu

>  <m_score__min__energy>  (6) 
-8.5999999999999996

>  <m_primary>  (6) 
energy

>  <rmsd>  (6) 
10.113615361121695

>  <m_score__min__rmsd>  (6) 
10.113615361121695

>  <meeko>  (6) 
{"free_energy": -8.49, "intermolecular_energy": -10.87, "internal_energy": -2.99, "cluster_size": 34, "cluster_id": 1, "rank_in_cluster": 32}

>  <energy>  (6) 
-8.58

>  <cluster_rmsd>  (6) 
0.72

>  <cluster>  (6) 
1

$$$$

     RDKit          3D

 68 72  0  0  0  0  0  0  0  0999 V2000
  136.5420   70.3540  223.8940 C   0  0  0  0  0  0  0  0  0  0  0  0
  137.2150   71.5300  223.2330 C   0  0  0  0  0  0  0  0  0  0  0  0
  138.5180   71.0810  222.6580 C   0  0  0  0  0  0  0  0  0  0  0  0
  138.4760   70.3940  221.6130 O   0  0  0  0  0  0  0  0  0  0  0  0
  139.7480   71.4390  223.3010 N   0  0  0  0  0  0  0  0  0  0  0  0
  140.0530   70.8470  224.5580 C   0  0  0  0  0  0  0  0  0  0  0  0
  139.6550   69.5180  224.7390 C   0  0  0  0  0  0  0  0  0  0  0  0
  139.9040   68.8620  225.9320 C   0  0  0  0  0  0  0  0  0  0  0  0
  140.5550   69.5870  226.9040 C   0  0  0  0  0  0  0  0  0  0  0  0
  140.9590   70.8880  226.7590 C   0  0  0  0  0  0  0  0  0  0  0  0
  140.7050   71.5260  225.5730 C   0  0  0  0  0  0  0  0  0  0  0  0
  140.6380   72.3850  222.6330 C   0  0  0  0  0  0  0  0  0  0  0  0
  139.7820   73.5240  222.0870 C   0  0  0  0  0  0  0  0  0  0  0  0
  140.7540   74.5880  221.6050 C   0  0  0  0  0  0  0  0  0  0  0  0
  141.6480   73.9900  220.6450 N   0  0  0  0  0  0  0  0  0  0  0  0
  142.5190   74.8160  219.8350 C   0  0  0  0  0  0  0  0  0  0  0  0
  143.2890   74.2720  218.9680 O   0  0  0  0  0  0  0  0  0  0  0  0
  142.6020   76.2850  219.9230 C   0  0  1  0  0  0  0  0  0  0  0  0
  143.7030   76.7520  219.0930 N   0  0  0  0  0  0  0  0  0  0  0  0
  141.3600   76.9610  219.4650 C   0  0  2  0  0  0  0  0  0  0  0  0
  141.5660   77.9620  218.3800 C   0  0  0  0  0  0  0  0  0  0  0  0
  142.0520   78.3510  217.1520 C   0  0  0  0  0  0  0  0  0  0  0  0
  141.8440   79.6180  216.6470 C   0  0  0  0  0  0  0  0  0  0  0  0
  141.1180   80.5480  217.3910 C   0  0  0  0  0  0  0  0  0  0  0  0
  140.6160   80.1670  218.6430 C   0  0  0  0  0  0  0  0  0  0  0  0
  140.8510   78.8740  219.1180 C   0  0  0  0  0  0  0  0  0  0  0  0
  140.6360   77.9290  220.2810 C   0  0  2  0  0  0  0  0  0  0  0  0
  141.2030   78.5560  221.4810 C   0  0  0  0  0  0  0  0  0  0  0  0
  141.9480   79.7410  221.3610 C   0  0  0  0  0  0  0  0  0  0  0  0
  142.5120   80.3440  222.4590 C   0  0  0  0  0  0  0  0  0  0  0  0
  142.3870   79.8350  223.7300 C   0  0  0  0  0  0  0  0  0  0  0  0
  141.6500   78.6540  223.8730 C   0  0  0  0  0  0  0  0  0  0  0  0
  141.0900   78.0610  222.7600 C   0  0  0  0  0  0  0  0  0  0  0  0
  141.7720   72.5690  220.3860 C   0  0  0  0  0  0  0  0  0  0  0  0
  141.3020   71.6780  221.4870 C   0  0  0  0  0  0  0  0  0  0  0  0
  136.6042   70.4626  224.9869 H   0  0  0  0  0  0  0  0  0  0  0  0
  135.4859   70.3167  223.5887 H   0  0  0  0  0  0  0  0  0  0  0  0
  137.0449   69.4245  223.5887 H   0  0  0  0  0  0  0  0  0  0  0  0
  136.5720   71.9202  222.4303 H   0  0  0  0  0  0  0  0  0  0  0  0
  137.3884   72.3248  223.9734 H   0  0  0  0  0  0  0  0  0  0  0  0
  139.1387   68.9888  223.9245 H   0  0  0  0  0  0  0  0  0  0  0  0
  139.5982   67.8179  226.0945 H   0  0  0  0  0  0  0  0  0  0  0  0
  140.7650   69.0883  227.8617 H   0  0  0  0  0  0  0  0  0  0  0  0
  141.4765   71.4097  227.5775 H   0  0  0  0  0  0  0  0  0  0  0  0
  141.0172   72.5708  225.4285 H   0  0  0  0  0  0  0  0  0  0  0  0
  141.3985   72.7737  223.3263 H   0  0  0  0  0  0  0  0  0  0  0  0
  139.1606   73.1681  221.2520 H   0  0  0  0  0  0  0  0  0  0  0  0
  139.1018   73.9196  222.8557 H   0  0  0  0  0  0  0  0  0  0  0  0
  140.1984   75.4112  221.1320 H   0  0  0  0  0  0  0  0  0  0  0  0
  141.3265   74.9881  222.4548 H   0  0  0  0  0  0  0  0  0  0  0  0
  142.7553   76.5348  220.9832 H   0  0  0  0  0  0  0  0  0  0  0  0
  144.2580   75.9440  218.7320 H   0  0  0  0  0  0  0  0  0  0  0  0
  144.3550   77.2980  219.7070 H   0  0  0  0  0  0  0  0  0  0  0  0
  140.8407   76.0033  219.3130 H   0  0  0  0  0  0  0  0  0  0  0  0
  142.6252   77.6276  216.5536 H   0  0  0  0  0  0  0  0  0  0  0  0
  142.2489   79.8935  215.6620 H   0  0  0  0  0  0  0  0  0  0  0  0
  140.9426   81.5620  217.0023 H   0  0  0  0  0  0  0  0  0  0  0  0
  140.0400   80.8822  219.2486 H   0  0  0  0  0  0  0  0  0  0  0  0
  139.7033   77.5762  220.7454 H   0  0  0  0  0  0  0  0  0  0  0  0
  142.0824   80.1950  220.3681 H   0  0  0  0  0  0  0  0  0  0  0  0
  143.0865   81.2710  222.3155 H   0  0  0  0  0  0  0  0  0  0  0  0
  142.8460   80.3340  224.5962 H   0  0  0  0  0  0  0  0  0  0  0  0
  141.5179   78.2011  224.8667 H   0  0  0  0  0  0  0  0  0  0  0  0
  140.5167   77.1334  222.9043 H   0  0  0  0  0  0  0  0  0  0  0  0
  141.1855   72.3350  219.4853 H   0  0  0  0  0  0  0  0  0  0  0  0
  142.8484   72.3725  220.2734 H   0  0  0  0  0  0  0  0  0  0  0  0
  140.5818   70.9625  221.0635 H   0  0  0  0  0  0  0  0  0  0  0  0
  142.2013   71.1979  221.9003 H   0  0  0  0  0  0  0  0  0  0  0  0
  1  2  1  0
  2  3  1  0
  3  4  2  0
  3  5  1  0
  5  6  1  0
  6  7  2  0
  7  8  1  0
  8  9  2  0
  9 10  1  0
 10 11  2  0
  5 12  1  0
 12 13  1  0
 13 14  1  0
 14 15  1  0
 15 16  1  0
 16 17  2  0
 16 18  1  0
 18 19  1  0
 18 20  1  0
 20 21  1  0
 21 22  2  0
 22 23  1  0
 23 24  2  0
 24 25  1  0
 25 26  2  0
 26 27  1  0
 27 28  1  0
 28 29  2  0
 29 30  1  0
 30 31  2  0
 31 32  1  0
 32 33  2  0
 15 34  1  0
 34 35  1  0
 11  6  1  0
 35 12  1  0
 27 20  1  0
 33 28  1  0
 26 21  1  0
  1 36  1  0
  1 37  1  0
  1 38  1  0
  2 39  1  0
  2 40  1  0
  7 41  1  0
  8 42  1  0
  9 43  1  0
 10 44  1  0
 11 45  1  0
 12 46  1  0
 13 47  1  0
 13 48  1  0
 14 49  1  0
 14 50  1  0
 18 51  1  1
 19 52  1  0
 19 53  1  0
 20 54  1  6
 22 55  1  0
 23 56  1  0
 24 57  1  0
 25 58  1  0
 27 59  1  1
 29 60  1  0
 30 61  1  0
 31 62  1  0
 32 63  1  0
 33 64  1  0
 34 65  1  0
 34 66  1  0
 35 67  1  0
 35 68  1  0
M  END
>  <smiles>  (7) 
CCC(=O)N(c1ccccc1)C1CCN(C(=O)[C@@H](N)C2c3ccccc3C2c2ccccc2)CC1

>  <score_type>  (7) 
oracle

>  <origin>  (7) 
autodockgpu

>  <m_score__min__energy>  (7) 
-8.5999999999999996

>  <m_primary>  (7) 
energy

>  <rmsd>  (7) 
10.115487259881148

>  <m_score__min__rmsd>  (7) 
10.115487259881148

>  <meeko>  (7) 
{"free_energy": -8.56, "intermolecular_energy": -10.94, "internal_energy": -3.01, "cluster_size": 34, "cluster_id": 1, "rank_in_cluster": 13}

>  <energy>  (7) 
-8.58

>  <cluster_rmsd>  (7) 
0.39

>  <cluster>  (7) 
1

$$$$

     RDKit          3D

 68 72  0  0  0  0  0  0  0  0999 V2000
  143.2180   80.5100  223.3730 C   0  0  0  0  0  0  0  0  0  0  0  0
  142.0130   81.2580  223.8830 C   0  0  0  0  0  0  0  0  0  0  0  0
  140.8990   81.1060  222.8990 C   0  0  0  0  0  0  0  0  0  0  0  0
  141.0470   81.6420  221.7790 O   0  0  0  0  0  0  0  0  0  0  0  0
  139.7210   80.3720  223.2580 N   0  0  0  0  0  0  0  0  0  0  0  0
  138.5880   81.0930  223.7230 C   0  0  0  0  0  0  0  0  0  0  0  0
  138.0340   82.0300  222.8420 C   0  0  0  0  0  0  0  0  0  0  0  0
  136.9330   82.7830  223.2110 C   0  0  0  0  0  0  0  0  0  0  0  0
  136.4300   82.5530  224.4720 C   0  0  0  0  0  0  0  0  0  0  0  0
  136.9470   81.6450  225.3570 C   0  0  0  0  0  0  0  0  0  0  0  0
  138.0380   80.9060  224.9800 C   0  0  0  0  0  0  0  0  0  0  0  0
  139.7330   78.9180  223.1170 C   0  0  0  0  0  0  0  0  0  0  0  0
  140.9300   78.5440  222.2470 C   0  0  0  0  0  0  0  0  0  0  0  0
  141.0410   77.0300  222.3120 C   0  0  0  0  0  0  0  0  0  0  0  0
  139.7850   76.4610  221.8900 N   0  0  0  0  0  0  0  0  0  0  0  0
  139.6740   75.0430  221.6150 C   0  0  0  0  0  0  0  0  0  0  0  0
  138.5590   74.5560  221.2150 O   0  0  0  0  0  0  0  0  0  0  0  0
  140.7750   74.0720  221.7580 C   0  0  1  0  0  0  0  0  0  0  0  0
  140.3770   73.0340  222.6970 N   0  0  0  0  0  0  0  0  0  0  0  0
  141.1370   73.4180  220.4730 C   0  0  2  0  0  0  0  0  0  0  0  0
  142.5590   72.9790  220.3840 C   0  0  0  0  0  0  0  0  0  0  0  0
  143.6650   72.3130  220.8630 C   0  0  0  0  0  0  0  0  0  0  0  0
  144.8590   72.2770  220.1710 C   0  0  0  0  0  0  0  0  0  0  0  0
  144.9650   72.9300  218.9420 C   0  0  0  0  0  0  0  0  0  0  0  0
  143.8480   73.6120  218.4410 C   0  0  0  0  0  0  0  0  0  0  0  0
  142.6590   73.6250  219.1760 C   0  0  0  0  0  0  0  0  0  0  0  0
  141.2370   74.1450  219.2130 C   0  0  2  0  0  0  0  0  0  0  0  0
  141.2920   75.6100  219.1290 C   0  0  0  0  0  0  0  0  0  0  0  0
  142.4740   76.2830  219.4810 C   0  0  0  0  0  0  0  0  0  0  0  0
  142.5550   77.6530  219.4360 C   0  0  0  0  0  0  0  0  0  0  0  0
  141.5000   78.4460  219.0510 C   0  0  0  0  0  0  0  0  0  0  0  0
  140.3120   77.7980  218.6970 C   0  0  0  0  0  0  0  0  0  0  0  0
  140.2480   76.4200  218.7470 C   0  0  0  0  0  0  0  0  0  0  0  0
  138.5530   77.1980  221.6980 C   0  0  0  0  0  0  0  0  0  0  0  0
  138.4710   78.5010  222.4200 C   0  0  0  0  0  0  0  0  0  0  0  0
  143.8093   80.1430  224.2248 H   0  0  0  0  0  0  0  0  0  0  0  0
  142.8884   79.6575  222.7610 H   0  0  0  0  0  0  0  0  0  0  0  0
  143.8358   81.1836  222.7610 H   0  0  0  0  0  0  0  0  0  0  0  0
  141.7061   80.8453  224.8553 H   0  0  0  0  0  0  0  0  0  0  0  0
  142.2593   82.3229  224.0066 H   0  0  0  0  0  0  0  0  0  0  0  0
  138.4789   82.1691  221.8456 H   0  0  0  0  0  0  0  0  0  0  0  0
  136.4842   83.5247  222.5339 H   0  0  0  0  0  0  0  0  0  0  0  0
  135.5542   83.1379  224.7897 H   0  0  0  0  0  0  0  0  0  0  0  0
  136.4955   81.5113  226.3511 H   0  0  0  0  0  0  0  0  0  0  0  0
  138.4737   80.1695  225.6711 H   0  0  0  0  0  0  0  0  0  0  0  0
  139.8008   78.4241  224.0976 H   0  0  0  0  0  0  0  0  0  0  0  0
  140.7649   78.8706  221.2096 H   0  0  0  0  0  0  0  0  0  0  0  0
  141.8513   79.0302  222.6003 H   0  0  0  0  0  0  0  0  0  0  0  0
  141.8461   76.6879  221.6451 H   0  0  0  0  0  0  0  0  0  0  0  0
  141.2725   76.7127  223.3395 H   0  0  0  0  0  0  0  0  0  0  0  0
  141.6523   74.6312  222.1151 H   0  0  0  0  0  0  0  0  0  0  0  0
  140.2590   72.1200  222.2050 H   0  0  0  0  0  0  0  0  0  0  0  0
  139.4290   73.2870  223.0680 H   0  0  0  0  0  0  0  0  0  0  0  0
  140.2907   72.7182  220.5376 H   0  0  0  0  0  0  0  0  0  0  0  0
  143.5947   71.7923  221.8294 H   0  0  0  0  0  0  0  0  0  0  0  0
  145.7224   71.7364  220.5861 H   0  0  0  0  0  0  0  0  0  0  0  0
  145.9085   72.9097  218.3768 H   0  0  0  0  0  0  0  0  0  0  0  0
  143.9065   74.1343  217.4746 H   0  0  0  0  0  0  0  0  0  0  0  0
  140.4108   74.0032  218.5008 H   0  0  0  0  0  0  0  0  0  0  0  0
  143.3517   75.7011  219.7989 H   0  0  0  0  0  0  0  0  0  0  0  0
  143.5021   78.1354  219.7194 H   0  0  0  0  0  0  0  0  0  0  0  0
  141.5864   79.5422  219.0226 H   0  0  0  0  0  0  0  0  0  0  0  0
  139.4351   78.3822  218.3811 H   0  0  0  0  0  0  0  0  0  0  0  0
  139.3007   75.9385  218.4629 H   0  0  0  0  0  0  0  0  0  0  0  0
  138.4406   77.3978  220.6222 H   0  0  0  0  0  0  0  0  0  0  0  0
  137.7533   76.5681  222.1149 H   0  0  0  0  0  0  0  0  0  0  0  0
  138.2107   79.2808  221.6891 H   0  0  0  0  0  0  0  0  0  0  0  0
  137.7130   78.3706  223.2064 H   0  0  0  0  0  0  0  0  0  0  0  0
  1  2  1  0
  2  3  1  0
  3  4  2  0
  3  5  1  0
  5  6  1  0
  6  7  2  0
  7  8  1  0
  8  9  2  0
  9 10  1  0
 10 11  2  0
  5 12  1  0
 12 13  1  0
 13 14  1  0
 14 15  1  0
 15 16  1  0
 16 17  2  0
 16 18  1  0
 18 19  1  0
 18 20  1  0
 20 21  1  0
 21 22  2  0
 22 23  1  0
 23 24  2  0
 24 25  1  0
 25 26  2  0
 26 27  1  0
 27 28  1  0
 28 29  2  0
 29 30  1  0
 30 31  2  0
 31 32  1  0
 32 33  2  0
 15 34  1  0
 34 35  1  0
 11  6  1  0
 35 12  1  0
 27 20  1  0
 33 28  1  0
 26 21  1  0
  1 36  1  0
  1 37  1  0
  1 38  1  0
  2 39  1  0
  2 40  1  0
  7 41  1  0
  8 42  1  0
  9 43  1  0
 10 44  1  0
 11 45  1  0
 12 46  1  0
 13 47  1  0
 13 48  1  0
 14 49  1  0
 14 50  1  0
 18 51  1  1
 19 52  1  0
 19 53  1  0
 20 54  1  6
 22 55  1  0
 23 56  1  0
 24 57  1  0
 25 58  1  0
 27 59  1  6
 29 60  1  0
 30 61  1  0
 31 62  1  0
 32 63  1  0
 33 64  1  0
 34 65  1  0
 34 66  1  0
 35 67  1  0
 35 68  1  0
M  END
>  <smiles>  (8) 
CCC(=O)N(c1ccccc1)C1CCN(C(=O)[C@@H](N)C2c3ccccc3C2c2ccccc2)CC1

>  <score_type>  (8) 
oracle

>  <origin>  (8) 
autodockgpu

>  <m_score__min__energy>  (8) 
-8.5999999999999996

>  <m_primary>  (8) 
energy

>  <rmsd>  (8) 
6.933608182347056

>  <m_score__min__rmsd>  (8) 
6.933608182347056

>  <meeko>  (8) 
{"free_energy": -7.17, "intermolecular_energy": -9.56, "internal_energy": -3.44, "cluster_size": 1, "cluster_id": 3, "rank_in_cluster": 1}

>  <energy>  (8) 
-8.58

>  <cluster_rmsd>  (8) 
0.3

>  <cluster>  (8) 
1

$$$$

     RDKit          3D

 68 72  0  0  0  0  0  0  0  0999 V2000
  136.5190   72.6920  222.7090 C   0  0  0  0  0  0  0  0  0  0  0  0
  137.0880   71.4280  223.3010 C   0  0  0  0  0  0  0  0  0  0  0  0
  138.4180   71.1570  222.6760 C   0  0  0  0  0  0  0  0  0  0  0  0
  138.4210   70.5870  221.5620 O   0  0  0  0  0  0  0  0  0  0  0  0
  139.6200   71.5470  223.3510 N   0  0  0  0  0  0  0  0  0  0  0  0
  139.8780   71.0100  224.6420 C   0  0  0  0  0  0  0  0  0  0  0  0
  140.7230   71.7520  225.4740 C   0  0  0  0  0  0  0  0  0  0  0  0
  141.0350   71.3040  226.7460 C   0  0  0  0  0  0  0  0  0  0  0  0
  140.4700   70.1090  227.1290 C   0  0  0  0  0  0  0  0  0  0  0  0
  139.6380   69.3590  226.3400 C   0  0  0  0  0  0  0  0  0  0  0  0
  139.3380   69.8130  225.0830 C   0  0  0  0  0  0  0  0  0  0  0  0
  140.5340   72.4680  222.6790 C   0  0  0  0  0  0  0  0  0  0  0  0
  139.7070   73.6310  222.1370 C   0  0  0  0  0  0  0  0  0  0  0  0
  140.7060   74.6680  221.6510 C   0  0  0  0  0  0  0  0  0  0  0  0
  141.5780   74.0460  220.6870 N   0  0  0  0  0  0  0  0  0  0  0  0
  142.4690   74.8470  219.8730 C   0  0  0  0  0  0  0  0  0  0  0  0
  143.2190   74.2830  219.0020 O   0  0  0  0  0  0  0  0  0  0  0  0
  142.5930   76.3140  219.9610 C   0  0  1  0  0  0  0  0  0  0  0  0
  143.7020   76.7500  219.1270 N   0  0  0  0  0  0  0  0  0  0  0  0
  141.3670   77.0240  219.5080 C   0  0  2  0  0  0  0  0  0  0  0  0
  141.5920   77.9990  218.4040 C   0  0  0  0  0  0  0  0  0  0  0  0
  142.0740   78.3510  217.1620 C   0  0  0  0  0  0  0  0  0  0  0  0
  141.9020   79.6170  216.6390 C   0  0  0  0  0  0  0  0  0  0  0  0
  141.2180   80.5830  217.3770 C   0  0  0  0  0  0  0  0  0  0  0  0
  140.7220   80.2400  218.6420 C   0  0  0  0  0  0  0  0  0  0  0  0
  140.9190   78.9470  219.1360 C   0  0  0  0  0  0  0  0  0  0  0  0
  140.6880   78.0290  220.3170 C   0  0  2  0  0  0  0  0  0  0  0  0
  141.2930   78.6570  221.4990 C   0  0  0  0  0  0  0  0  0  0  0  0
  141.1150   78.0740  222.7640 C   0  0  0  0  0  0  0  0  0  0  0  0
  141.6470   78.6440  223.8940 C   0  0  0  0  0  0  0  0  0  0  0  0
  142.3780   79.8080  223.8630 C   0  0  0  0  0  0  0  0  0  0  0  0
  142.5670   80.4070  222.6140 C   0  0  0  0  0  0  0  0  0  0  0  0
  142.0260   79.8210  221.4880 C   0  0  0  0  0  0  0  0  0  0  0  0
  141.6620   72.6220  220.4270 C   0  0  0  0  0  0  0  0  0  0  0  0
  141.1720   71.7440  221.5290 C   0  0  0  0  0  0  0  0  0  0  0  0
  136.2134   73.3709  223.5187 H   0  0  0  0  0  0  0  0  0  0  0  0
  137.2832   73.1824  222.0881 H   0  0  0  0  0  0  0  0  0  0  0  0
  135.6452   72.4451  222.0881 H   0  0  0  0  0  0  0  0  0  0  0  0
  137.2087   71.5508  224.3874 H   0  0  0  0  0  0  0  0  0  0  0  0
  136.4068   70.5863  223.1076 H   0  0  0  0  0  0  0  0  0  0  0  0
  141.1442   72.7020  225.1134 H   0  0  0  0  0  0  0  0  0  0  0  0
  141.6985   71.8723  227.4144 H   0  0  0  0  0  0  0  0  0  0  0  0
  140.7018   69.7308  228.1356 H   0  0  0  0  0  0  0  0  0  0  0  0
  139.2192   68.4110  226.7087 H   0  0  0  0  0  0  0  0  0  0  0  0
  138.6728   69.2310  224.4282 H   0  0  0  0  0  0  0  0  0  0  0  0
  141.3086   72.8340  223.3690 H   0  0  0  0  0  0  0  0  0  0  0  0
  139.0723   73.2929  221.3046 H   0  0  0  0  0  0  0  0  0  0  0  0
  139.0414   74.0449  222.9088 H   0  0  0  0  0  0  0  0  0  0  0  0
  140.1713   75.5066  221.1810 H   0  0  0  0  0  0  0  0  0  0  0  0
  141.2933   75.0517  222.4982 H   0  0  0  0  0  0  0  0  0  0  0  0
  142.7578   76.5598  221.0204 H   0  0  0  0  0  0  0  0  0  0  0  0
  144.2160   75.9270  218.7390 H   0  0  0  0  0  0  0  0  0  0  0  0
  144.3860   77.2520  219.7430 H   0  0  0  0  0  0  0  0  0  0  0  0
  140.8132   76.0823  219.3792 H   0  0  0  0  0  0  0  0  0  0  0  0
  142.6135   77.5987  216.5679 H   0  0  0  0  0  0  0  0  0  0  0  0
  142.3026   79.8629  215.6445 H   0  0  0  0  0  0  0  0  0  0  0  0
  141.0706   81.5956  216.9734 H   0  0  0  0  0  0  0  0  0  0  0  0
  140.1801   80.9847  219.2435 H   0  0  0  0  0  0  0  0  0  0  0  0
  139.7506   77.7153  220.7997 H   0  0  0  0  0  0  0  0  0  0  0  0
  140.5377   77.1418  222.8513 H   0  0  0  0  0  0  0  0  0  0  0  0
  141.4818   78.1497  224.8627 H   0  0  0  0  0  0  0  0  0  0  0  0
  142.7957   80.2485  224.7803 H   0  0  0  0  0  0  0  0  0  0  0  0
  143.1436   81.3399  222.5294 H   0  0  0  0  0  0  0  0  0  0  0  0
  142.1914   80.3162  220.5198 H   0  0  0  0  0  0  0  0  0  0  0  0
  141.0659   72.4046  219.5284 H   0  0  0  0  0  0  0  0  0  0  0  0
  142.7322   72.3961  220.3104 H   0  0  0  0  0  0  0  0  0  0  0  0
  140.4295   71.0500  221.1082 H   0  0  0  0  0  0  0  0  0  0  0  0
  142.0592   71.2381  221.9375 H   0  0  0  0  0  0  0  0  0  0  0  0
  1  2  1  0
  2  3  1  0
  3  4  2  0
  3  5  1  0
  5  6  1  0
  6  7  2  0
  7  8  1  0
  8  9  2  0
  9 10  1  0
 10 11  2  0
  5 12  1  0
 12 13  1  0
 13 14  1  0
 14 15  1  0
 15 16  1  0
 16 17  2  0
 16 18  1  0
 18 19  1  0
 18 20  1  0
 20 21  1  0
 21 22  2  0
 22 23  1  0
 23 24  2  0
 24 25  1  0
 25 26  2  0
 26 27  1  0
 27 28  1  0
 28 29  2  0
 29 30  1  0
 30 31  2  0
 31 32  1  0
 32 33  2  0
 15 34  1  0
 34 35  1  0
 11  6  1  0
 35 12  1  0
 27 20  1  0
 33 28  1  0
 26 21  1  0
  1 36  1  0
  1 37  1  0
  1 38  1  0
  2 39  1  0
  2 40  1  0
  7 41  1  0
  8 42  1  0
  9 43  1  0
 10 44  1  0
 11 45  1  0
 12 46  1  0
 13 47  1  0
 13 48  1  0
 14 49  1  0
 14 50  1  0
 18 51  1  1
 19 52  1  0
 19 53  1  0
 20 54  1  6
 22 55  1  0
 23 56  1  0
 24 57  1  0
 25 58  1  0
 27 59  1  1
 29 60  1  0
 30 61  1  0
 31 62  1  0
 32 63  1  0
 33 64  1  0
 34 65  1  0
 34 66  1  0
 35 67  1  0
 35 68  1  0
M  END
>  <smiles>  (9) 
CCC(=O)N(c1ccccc1)C1CCN(C(=O)[C@@H](N)C2c3ccccc3C2c2ccccc2)CC1

>  <score_type>  (9) 
oracle

>  <origin>  (9) 
autodockgpu

>  <m_score__min__energy>  (9) 
-8.5999999999999996

>  <m_primary>  (9) 
energy

>  <rmsd>  (9) 
10.140910624770482

>  <m_score__min__rmsd>  (9) 
10.140910624770482

>  <meeko>  (9) 
{"free_energy": -8.52, "intermolecular_energy": -10.91, "internal_energy": -3.04, "cluster_size": 34, "cluster_id": 1, "rank_in_cluster": 23}

>  <energy>  (9) 
-8.57

>  <cluster_rmsd>  (9) 
0.28

>  <cluster>  (9) 
1

$$$$

     RDKit          3D

 68 72  0  0  0  0  0  0  0  0999 V2000
  136.6010   72.6130  222.7240 C   0  0  0  0  0  0  0  0  0  0  0  0
  137.2010   71.3460  223.2790 C   0  0  0  0  0  0  0  0  0  0  0  0
  138.5160   71.1030  222.6140 C   0  0  0  0  0  0  0  0  0  0  0  0
  138.4980   70.5440  221.4950 O   0  0  0  0  0  0  0  0  0  0  0  0
  139.7310   71.5060  223.2590 N   0  0  0  0  0  0  0  0  0  0  0  0
  140.0280   70.9690  224.5420 C   0  0  0  0  0  0  0  0  0  0  0  0
  140.7240   71.8010  225.4250 C   0  0  0  0  0  0  0  0  0  0  0  0
  141.0620   71.3610  226.6930 C   0  0  0  0  0  0  0  0  0  0  0  0
  140.6740   70.0820  227.0200 C   0  0  0  0  0  0  0  0  0  0  0  0
  139.9920   69.2420  226.1800 C   0  0  0  0  0  0  0  0  0  0  0  0
  139.6640   69.6890  224.9270 C   0  0  0  0  0  0  0  0  0  0  0  0
  140.6160   72.4390  222.5650 C   0  0  0  0  0  0  0  0  0  0  0  0
  139.7780   73.6360  222.1260 C   0  0  0  0  0  0  0  0  0  0  0  0
  140.7630   74.6760  221.6170 C   0  0  0  0  0  0  0  0  0  0  0  0
  141.5590   74.0800  220.5740 N   0  0  0  0  0  0  0  0  0  0  0  0
  142.4100   74.8990  219.7360 C   0  0  0  0  0  0  0  0  0  0  0  0
  143.0910   74.3590  218.7960 O   0  0  0  0  0  0  0  0  0  0  0  0
  142.5670   76.3590  219.8740 C   0  0  1  0  0  0  0  0  0  0  0  0
  143.7100   76.7930  219.0870 N   0  0  0  0  0  0  0  0  0  0  0  0
  141.3730   77.1140  219.4100 C   0  0  2  0  0  0  0  0  0  0  0  0
  141.6590   78.1390  218.3660 C   0  0  0  0  0  0  0  0  0  0  0  0
  142.1970   78.5440  217.1650 C   0  0  0  0  0  0  0  0  0  0  0  0
  142.0670   79.8370  216.7010 C   0  0  0  0  0  0  0  0  0  0  0  0
  141.3690   80.7770  217.4590 C   0  0  0  0  0  0  0  0  0  0  0  0
  140.8150   80.3800  218.6840 C   0  0  0  0  0  0  0  0  0  0  0  0
  140.9720   79.0610  219.1180 C   0  0  0  0  0  0  0  0  0  0  0  0
  140.6770   78.0890  220.2410 C   0  0  2  0  0  0  0  0  0  0  0  0
  141.2430   78.6450  221.4770 C   0  0  0  0  0  0  0  0  0  0  0  0
  142.0350   79.8030  221.4200 C   0  0  0  0  0  0  0  0  0  0  0  0
  142.5980   80.3390  222.5520 C   0  0  0  0  0  0  0  0  0  0  0  0
  142.4280   79.7840  223.7980 C   0  0  0  0  0  0  0  0  0  0  0  0
  141.6440   78.6280  223.8790 C   0  0  0  0  0  0  0  0  0  0  0  0
  141.0850   78.1030  222.7320 C   0  0  0  0  0  0  0  0  0  0  0  0
  141.5990   72.6670  220.2530 C   0  0  0  0  0  0  0  0  0  0  0  0
  141.1650   71.7520  221.3490 C   0  0  0  0  0  0  0  0  0  0  0  0
  136.2917   73.2661  223.5533 H   0  0  0  0  0  0  0  0  0  0  0  0
  137.3485   73.1330  222.1069 H   0  0  0  0  0  0  0  0  0  0  0  0
  135.7251   72.3642  222.1069 H   0  0  0  0  0  0  0  0  0  0  0  0
  137.3496   71.4519  224.3638 H   0  0  0  0  0  0  0  0  0  0  0  0
  136.5251   70.4990  223.0899 H   0  0  0  0  0  0  0  0  0  0  0  0
  141.0058   72.8160  225.1083 H   0  0  0  0  0  0  0  0  0  0  0  0
  141.6111   71.9992  227.4010 H   0  0  0  0  0  0  0  0  0  0  0  0
  140.9285   69.7091  228.0231 H   0  0  0  0  0  0  0  0  0  0  0  0
  139.7132   68.2287  226.5049 H   0  0  0  0  0  0  0  0  0  0  0  0
  139.1156   69.0363  224.2319 H   0  0  0  0  0  0  0  0  0  0  0  0
  141.4406   72.7648  223.2162 H   0  0  0  0  0  0  0  0  0  0  0  0
  139.0841   73.3429  221.3244 H   0  0  0  0  0  0  0  0  0  0  0  0
  139.1721   74.0285  222.9560 H   0  0  0  0  0  0  0  0  0  0  0  0
  140.2148   75.5416  221.2167 H   0  0  0  0  0  0  0  0  0  0  0  0
  141.4111   75.0152  222.4386 H   0  0  0  0  0  0  0  0  0  0  0  0
  142.7065   76.5668  220.9451 H   0  0  0  0  0  0  0  0  0  0  0  0
  144.2150   75.9700  218.6870 H   0  0  0  0  0  0  0  0  0  0  0  0
  144.3880   77.2580  219.7380 H   0  0  0  0  0  0  0  0  0  0  0  0
  140.8096   76.1902  219.2122 H   0  0  0  0  0  0  0  0  0  0  0  0
  142.7484   77.8129  216.5555 H   0  0  0  0  0  0  0  0  0  0  0  0
  142.5120   80.1252  215.7372 H   0  0  0  0  0  0  0  0  0  0  0  0
  141.2553   81.8112  217.1020 H   0  0  0  0  0  0  0  0  0  0  0  0
  140.2599   81.1026  219.3001 H   0  0  0  0  0  0  0  0  0  0  0  0
  139.7153   77.7692  220.6685 H   0  0  0  0  0  0  0  0  0  0  0  0
  142.2079   80.2906  220.4492 H   0  0  0  0  0  0  0  0  0  0  0  0
  143.2093   81.2486  222.4579 H   0  0  0  0  0  0  0  0  0  0  0  0
  142.8882   80.2293  224.6924 H   0  0  0  0  0  0  0  0  0  0  0  0
  141.4744   78.1410  224.8506 H   0  0  0  0  0  0  0  0  0  0  0  0
  140.4741   77.1932  222.8268 H   0  0  0  0  0  0  0  0  0  0  0  0
  140.9419   72.4963  219.3875 H   0  0  0  0  0  0  0  0  0  0  0  0
  142.6551   72.4289  220.0580 H   0  0  0  0  0  0  0  0  0  0  0  0
  140.3844   71.0873  220.9503 H   0  0  0  0  0  0  0  0  0  0  0  0
  142.0670   71.2154  221.6785 H   0  0  0  0  0  0  0  0  0  0  0  0
  1  2  1  0
  2  3  1  0
  3  4  2  0
  3  5  1  0
  5  6  1  0
  6  7  2  0
  7  8  1  0
  8  9  2  0
  9 10  1  0
 10 11  2  0
  5 12  1  0
 12 13  1  0
 13 14  1  0
 14 15  1  0
 15 16  1  0
 16 17  2  0
 16 18  1  0
 18 19  1  0
 18 20  1  0
 20 21  1  0
 21 22  2  0
 22 23  1  0
 23 24  2  0
 24 25  1  0
 25 26  2  0
 26 27  1  0
 27 28  1  0
 28 29  2  0
 29 30  1  0
 30 31  2  0
 31 32  1  0
 32 33  2  0
 15 34  1  0
 34 35  1  0
 11  6  1  0
 35 12  1  0
 27 20  1  0
 33 28  1  0
 26 21  1  0
  1 36  1  0
  1 37  1  0
  1 38  1  0
  2 39  1  0
  2 40  1  0
  7 41  1  0
  8 42  1  0
  9 43  1  0
 10 44  1  0
 11 45  1  0
 12 46  1  0
 13 47  1  0
 13 48  1  0
 14 49  1  0
 14 50  1  0
 18 51  1  1
 19 52  1  0
 19 53  1  0
 20 54  1  6
 22 55  1  0
 23 56  1  0
 24 57  1  0
 25 58  1  0
 27 59  1  1
 29 60  1  0
 30 61  1  0
 31 62  1  0
 32 63  1  0
 33 64  1  0
 34 65  1  0
 34 66  1  0
 35 67  1  0
 35 68  1  0
M  END
>  <smiles>  (10) 
CCC(=O)N(c1ccccc1)C1CCN(C(=O)[C@@H](N)C2c3ccccc3C2c2ccccc2)CC1

>  <score_type>  (10) 
oracle

>  <origin>  (10) 
autodockgpu

>  <m_score__min__energy>  (10) 
-8.5999999999999996

>  <m_primary>  (10) 
energy

>  <rmsd>  (10) 
10.22705107920919

>  <m_score__min__rmsd>  (10) 
10.22705107920919

>  <meeko>  (10) 
{"free_energy": -8.5, "intermolecular_energy": -10.89, "internal_energy": -3.02, "cluster_size": 34, "cluster_id": 1, "rank_in_cluster": 31}

>  <energy>  (10) 
-8.57

>  <cluster_rmsd>  (10) 
0.33

>  <cluster>  (10) 
1

$$$$

     RDKit          3D

 68 72  0  0  0  0  0  0  0  0999 V2000
  134.0530   83.3130  223.3630 C   0  0  0  0  0  0  0  0  0  0  0  0
  135.1610   82.5720  222.6600 C   0  0  0  0  0  0  0  0  0  0  0  0
  136.3330   82.4680  223.5800 C   0  0  0  0  0  0  0  0  0  0  0  0
  137.2560   83.2970  223.4260 O   0  0  0  0  0  0  0  0  0  0  0  0
  136.3670   81.4470  224.5850 N   0  0  0  0  0  0  0  0  0  0  0  0
  135.8560   81.7500  225.8770 C   0  0  0  0  0  0  0  0  0  0  0  0
  134.7610   80.9950  226.3130 C   0  0  0  0  0  0  0  0  0  0  0  0
  134.1940   81.2240  227.5540 C   0  0  0  0  0  0  0  0  0  0  0  0
  134.7650   82.2190  228.3140 C   0  0  0  0  0  0  0  0  0  0  0  0
  135.8370   82.9760  227.9180 C   0  0  0  0  0  0  0  0  0  0  0  0
  136.3890   82.7400  226.6860 C   0  0  0  0  0  0  0  0  0  0  0  0
  136.9120   80.1370  224.2350 C   0  0  0  0  0  0  0  0  0  0  0  0
  138.0590   80.3590  223.2520 C   0  0  0  0  0  0  0  0  0  0  0  0
  138.7400   79.0100  223.0900 C   0  0  0  0  0  0  0  0  0  0  0  0
  137.7550   78.0470  222.6640 N   0  0  0  0  0  0  0  0  0  0  0  0
  138.1590   76.7390  222.1930 C   0  0  0  0  0  0  0  0  0  0  0  0
  137.2740   75.9040  221.7920 O   0  0  0  0  0  0  0  0  0  0  0  0
  139.5530   76.2640  222.1290 C   0  0  1  0  0  0  0  0  0  0  0  0
  139.5820   74.8320  222.3880 N   0  0  0  0  0  0  0  0  0  0  0  0
  140.1860   76.5070  220.8060 C   0  0  2  0  0  0  0  0  0  0  0  0
  141.3510   75.6260  220.5080 C   0  0  0  0  0  0  0  0  0  0  0  0
  141.9570   74.3940  220.4050 C   0  0  0  0  0  0  0  0  0  0  0  0
  143.2640   74.2510  219.9860 C   0  0  0  0  0  0  0  0  0  0  0  0
  144.0100   75.3820  219.6510 C   0  0  0  0  0  0  0  0  0  0  0  0
  143.4070   76.6420  219.7510 C   0  0  0  0  0  0  0  0  0  0  0  0
  142.0810   76.7430  220.1810 C   0  0  0  0  0  0  0  0  0  0  0  0
  140.9590   77.7060  220.5040 C   0  0  2  0  0  0  0  0  0  0  0  0
  141.4440   78.6330  221.5340 C   0  0  0  0  0  0  0  0  0  0  0  0
  141.6850   79.9760  221.2030 C   0  0  0  0  0  0  0  0  0  0  0  0
  142.1600   80.8670  222.1350 C   0  0  0  0  0  0  0  0  0  0  0  0
  142.4290   80.5070  223.4340 C   0  0  0  0  0  0  0  0  0  0  0  0
  142.1990   79.1740  223.7860 C   0  0  0  0  0  0  0  0  0  0  0  0
  141.7210   78.2920  222.8380 C   0  0  0  0  0  0  0  0  0  0  0  0
  136.3220   78.2630  222.6520 C   0  0  0  0  0  0  0  0  0  0  0  0
  135.8330   79.3430  223.5590 C   0  0  0  0  0  0  0  0  0  0  0  0
  134.1856   83.2243  224.4514 H   0  0  0  0  0  0  0  0  0  0  0  0
  134.0816   84.3744  223.0754 H   0  0  0  0  0  0  0  0  0  0  0  0
  133.0830   82.8812  223.0754 H   0  0  0  0  0  0  0  0  0  0  0  0
  134.8156   81.5641  222.3865 H   0  0  0  0  0  0  0  0  0  0  0  0
  135.4506   83.1131  221.7471 H   0  0  0  0  0  0  0  0  0  0  0  0
  134.3468   80.2111  225.6619 H   0  0  0  0  0  0  0  0  0  0  0  0
  133.3329   80.6419  227.9139 H   0  0  0  0  0  0  0  0  0  0  0  0
  134.3324   82.4203  229.3051 H   0  0  0  0  0  0  0  0  0  0  0  0
  136.2459   83.7571  228.5758 H   0  0  0  0  0  0  0  0  0  0  0  0
  137.2494   83.3327  226.3420 H   0  0  0  0  0  0  0  0  0  0  0  0
  137.2678   79.6016  225.1276 H   0  0  0  0  0  0  0  0  0  0  0  0
  137.6705   80.7095  222.2844 H   0  0  0  0  0  0  0  0  0  0  0  0
  138.7608   81.1228  223.6181 H   0  0  0  0  0  0  0  0  0  0  0  0
  139.5362   79.0849  222.3347 H   0  0  0  0  0  0  0  0  0  0  0  0
  139.1847   78.6958  224.0457 H   0  0  0  0  0  0  0  0  0  0  0  0
  140.1187   76.8277  222.8855 H   0  0  0  0  0  0  0  0  0  0  0  0
  139.6360   74.2980  221.4920 H   0  0  0  0  0  0  0  0  0  0  0  0
  138.6660   74.5690  222.8260 H   0  0  0  0  0  0  0  0  0  0  0  0
  139.2224   76.4333  220.2807 H   0  0  0  0  0  0  0  0  0  0  0  0
  141.3804   73.4941  220.6653 H   0  0  0  0  0  0  0  0  0  0  0  0
  143.7157   73.2504  219.9164 H   0  0  0  0  0  0  0  0  0  0  0  0
  145.0528   75.2855  219.3145 H   0  0  0  0  0  0  0  0  0  0  0  0
  143.9744   77.5481  219.4923 H   0  0  0  0  0  0  0  0  0  0  0  0
  140.4661   78.4588  219.8712 H   0  0  0  0  0  0  0  0  0  0  0  0
  141.4897   80.3218  220.1772 H   0  0  0  0  0  0  0  0  0  0  0  0
  142.3318   81.9096  221.8294 H   0  0  0  0  0  0  0  0  0  0  0  0
  142.8088   81.2362  224.1648 H   0  0  0  0  0  0  0  0  0  0  0  0
  142.3977   78.8301  224.8118 H   0  0  0  0  0  0  0  0  0  0  0  0
  141.5505   77.2495  223.1446 H   0  0  0  0  0  0  0  0  0  0  0  0
  136.0257   78.5216  221.6247 H   0  0  0  0  0  0  0  0  0  0  0  0
  135.8702   77.3295  223.0186 H   0  0  0  0  0  0  0  0  0  0  0  0
  135.2197   80.0365  222.9650 H   0  0  0  0  0  0  0  0  0  0  0  0
  135.2707   78.8417  224.3605 H   0  0  0  0  0  0  0  0  0  0  0  0
  1  2  1  0
  2  3  1  0
  3  4  2  0
  3  5  1  0
  5  6  1  0
  6  7  2  0
  7  8  1  0
  8  9  2  0
  9 10  1  0
 10 11  2  0
  5 12  1  0
 12 13  1  0
 13 14  1  0
 14 15  1  0
 15 16  1  0
 16 17  2  0
 16 18  1  0
 18 19  1  0
 18 20  1  0
 20 21  1  0
 21 22  2  0
 22 23  1  0
 23 24  2  0
 24 25  1  0
 25 26  2  0
 26 27  1  0
 27 28  1  0
 28 29  2  0
 29 30  1  0
 30 31  2  0
 31 32  1  0
 32 33  2  0
 15 34  1  0
 34 35  1  0
 11  6  1  0
 35 12  1  0
 27 20  1  0
 33 28  1  0
 26 21  1  0
  1 36  1  0
  1 37  1  0
  1 38  1  0
  2 39  1  0
  2 40  1  0
  7 41  1  0
  8 42  1  0
  9 43  1  0
 10 44  1  0
 11 45  1  0
 12 46  1  0
 13 47  1  0
 13 48  1  0
 14 49  1  0
 14 50  1  0
 18 51  1  1
 19 52  1  0
 19 53  1  0
 20 54  1  6
 22 55  1  0
 23 56  1  0
 24 57  1  0
 25 58  1  0
 27 59  1  6
 29 60  1  0
 30 61  1  0
 31 62  1  0
 32 63  1  0
 33 64  1  0
 34 65  1  0
 34 66  1  0
 35 67  1  0
 35 68  1  0
M  END
>  <smiles>  (11) 
CCC(=O)N(c1ccccc1)C1CCN(C(=O)[C@@H](N)C2c3ccccc3C2c2ccccc2)CC1

>  <score_type>  (11) 
oracle

>  <origin>  (11) 
autodockgpu

>  <m_score__min__energy>  (11) 
-8.5999999999999996

>  <m_primary>  (11) 
energy

>  <rmsd>  (11) 
8.153078505585743

>  <m_score__min__rmsd>  (11) 
8.153078505585743

>  <meeko>  (11) 
{"free_energy": -7.79, "intermolecular_energy": -10.18, "internal_energy": -3.26, "cluster_size": 15, "cluster_id": 2, "rank_in_cluster": 15}

>  <energy>  (11) 
-8.57

>  <cluster_rmsd>  (11) 
0.38

>  <cluster>  (11) 
1

$$$$

     RDKit          3D

 68 72  0  0  0  0  0  0  0  0999 V2000
  136.5000   70.5350  223.8490 C   0  0  0  0  0  0  0  0  0  0  0  0
  137.2250   71.5840  223.0450 C   0  0  0  0  0  0  0  0  0  0  0  0
  138.5390   71.0290  222.5990 C   0  0  0  0  0  0  0  0  0  0  0  0
  138.5260   70.2290  221.6380 O   0  0  0  0  0  0  0  0  0  0  0  0
  139.7450   71.4180  223.2680 N   0  0  0  0  0  0  0  0  0  0  0  0
  140.0280   70.8490  224.5400 C   0  0  0  0  0  0  0  0  0  0  0  0
  139.5980   69.5350  224.7500 C   0  0  0  0  0  0  0  0  0  0  0  0
  139.8240   68.9010  225.9600 C   0  0  0  0  0  0  0  0  0  0  0  0
  140.4870   69.6340  226.9190 C   0  0  0  0  0  0  0  0  0  0  0  0
  140.9220   70.9210  226.7450 C   0  0  0  0  0  0  0  0  0  0  0  0
  140.6910   71.5370  225.5430 C   0  0  0  0  0  0  0  0  0  0  0  0
  140.6360   72.3710  222.6090 C   0  0  0  0  0  0  0  0  0  0  0  0
  139.7780   73.5120  222.0690 C   0  0  0  0  0  0  0  0  0  0  0  0
  140.7500   74.5810  221.5960 C   0  0  0  0  0  0  0  0  0  0  0  0
  141.6480   73.9910  220.6350 N   0  0  0  0  0  0  0  0  0  0  0  0
  142.5200   74.8240  219.8330 C   0  0  0  0  0  0  0  0  0  0  0  0
  143.2930   74.2890  218.9640 O   0  0  0  0  0  0  0  0  0  0  0  0
  142.5990   76.2940  219.9310 C   0  0  1  0  0  0  0  0  0  0  0  0
  143.7040   76.7680  219.1120 N   0  0  0  0  0  0  0  0  0  0  0  0
  141.3580   76.9700  219.4710 C   0  0  2  0  0  0  0  0  0  0  0  0
  141.5610   77.9350  218.3530 C   0  0  0  0  0  0  0  0  0  0  0  0
  142.0350   78.2810  217.1070 C   0  0  0  0  0  0  0  0  0  0  0  0
  141.8340   79.5350  216.5660 C   0  0  0  0  0  0  0  0  0  0  0  0
  141.1290   80.4960  217.2920 C   0  0  0  0  0  0  0  0  0  0  0  0
  140.6410   80.1590  218.5610 C   0  0  0  0  0  0  0  0  0  0  0  0
  140.8670   78.8780  219.0720 C   0  0  0  0  0  0  0  0  0  0  0  0
  140.6570   77.9710  220.2660 C   0  0  2  0  0  0  0  0  0  0  0  0
  141.2480   78.6270  221.4390 C   0  0  0  0  0  0  0  0  0  0  0  0
  141.0770   78.0610  222.7130 C   0  0  0  0  0  0  0  0  0  0  0  0
  141.5960   78.6590  223.8350 C   0  0  0  0  0  0  0  0  0  0  0  0
  142.3070   79.8340  223.7870 C   0  0  0  0  0  0  0  0  0  0  0  0
  142.4890   80.4170  222.5290 C   0  0  0  0  0  0  0  0  0  0  0  0
  141.9610   79.8040  221.4110 C   0  0  0  0  0  0  0  0  0  0  0  0
  141.7760   72.5730  220.3670 C   0  0  0  0  0  0  0  0  0  0  0  0
  141.3040   71.6730  221.4600 C   0  0  0  0  0  0  0  0  0  0  0  0
  136.6381   70.7349  224.9218 H   0  0  0  0  0  0  0  0  0  0  0  0
  135.4276   70.5630  223.6059 H   0  0  0  0  0  0  0  0  0  0  0  0
  136.9053   69.5417  223.6059 H   0  0  0  0  0  0  0  0  0  0  0  0
  136.6224   71.8579  222.1664 H   0  0  0  0  0  0  0  0  0  0  0  0
  137.3887   72.4797  223.6621 H   0  0  0  0  0  0  0  0  0  0  0  0
  139.0743   68.9990  223.9448 H   0  0  0  0  0  0  0  0  0  0  0  0
  139.4922   67.8687  226.1451 H   0  0  0  0  0  0  0  0  0  0  0  0
  140.6801   69.1538  227.8896 H   0  0  0  0  0  0  0  0  0  0  0  0
  141.4466   71.4498  227.5544 H   0  0  0  0  0  0  0  0  0  0  0  0
  141.0295   72.5702  225.3758 H   0  0  0  0  0  0  0  0  0  0  0  0
  141.3944   72.7565  223.3063 H   0  0  0  0  0  0  0  0  0  0  0  0
  139.1589   73.1606  221.2304 H   0  0  0  0  0  0  0  0  0  0  0  0
  139.0951   73.9011  222.8386 H   0  0  0  0  0  0  0  0  0  0  0  0
  140.1942   75.4060  221.1265 H   0  0  0  0  0  0  0  0  0  0  0  0
  141.3194   74.9766  222.4500 H   0  0  0  0  0  0  0  0  0  0  0  0
  142.7450   76.5381  220.9936 H   0  0  0  0  0  0  0  0  0  0  0  0
  144.2060   75.9640  218.6730 H   0  0  0  0  0  0  0  0  0  0  0  0
  144.3980   77.2280  219.7490 H   0  0  0  0  0  0  0  0  0  0  0  0
  140.8250   76.0145  219.3570 H   0  0  0  0  0  0  0  0  0  0  0  0
  142.5922   77.5333  216.5236 H   0  0  0  0  0  0  0  0  0  0  0  0
  142.2276   79.7756  215.5674 H   0  0  0  0  0  0  0  0  0  0  0  0
  140.9596   81.4998  216.8753 H   0  0  0  0  0  0  0  0  0  0  0  0
  140.0824   80.8992  219.1527 H   0  0  0  0  0  0  0  0  0  0  0  0
  139.7265   77.6439  220.7530 H   0  0  0  0  0  0  0  0  0  0  0  0
  140.5162   77.1201  222.8140 H   0  0  0  0  0  0  0  0  0  0  0  0
  141.4362   78.1782  224.8114 H   0  0  0  0  0  0  0  0  0  0  0  0
  142.7151   80.2957  224.6982 H   0  0  0  0  0  0  0  0  0  0  0  0
  143.0496   81.3584  222.4312 H   0  0  0  0  0  0  0  0  0  0  0  0
  142.1201   80.2867  220.4355 H   0  0  0  0  0  0  0  0  0  0  0  0
  141.1933   72.3440  219.4625 H   0  0  0  0  0  0  0  0  0  0  0  0
  142.8533   72.3798  220.2574 H   0  0  0  0  0  0  0  0  0  0  0  0
  140.5858   70.9598  221.0292 H   0  0  0  0  0  0  0  0  0  0  0  0
  142.2025   71.1906  221.8722 H   0  0  0  0  0  0  0  0  0  0  0  0
  1  2  1  0
  2  3  1  0
  3  4  2  0
  3  5  1  0
  5  6  1  0
  6  7  2  0
  7  8  1  0
  8  9  2  0
  9 10  1  0
 10 11  2  0
  5 12  1  0
 12 13  1  0
 13 14  1  0
 14 15  1  0
 15 16  1  0
 16 17  2  0
 16 18  1  0
 18 19  1  0
 18 20  1  0
 20 21  1  0
 21 22  2  0
 22 23  1  0
 23 24  2  0
 24 25  1  0
 25 26  2  0
 26 27  1  0
 27 28  1  0
 28 29  2  0
 29 30  1  0
 30 31  2  0
 31 32  1  0
 32 33  2  0
 15 34  1  0
 34 35  1  0
 11  6  1  0
 35 12  1  0
 27 20  1  0
 33 28  1  0
 26 21  1  0
  1 36  1  0
  1 37  1  0
  1 38  1  0
  2 39  1  0
  2 40  1  0
  7 41  1  0
  8 42  1  0
  9 43  1  0
 10 44  1  0
 11 45  1  0
 12 46  1  0
 13 47  1  0
 13 48  1  0
 14 49  1  0
 14 50  1  0
 18 51  1  1
 19 52  1  0
 19 53  1  0
 20 54  1  6
 22 55  1  0
 23 56  1  0
 24 57  1  0
 25 58  1  0
 27 59  1  1
 29 60  1  0
 30 61  1  0
 31 62  1  0
 32 63  1  0
 33 64  1  0
 34 65  1  0
 34 66  1  0
 35 67  1  0
 35 68  1  0
M  END
>  <smiles>  (12) 
CCC(=O)N(c1ccccc1)C1CCN(C(=O)[C@@H](N)C2c3ccccc3C2c2ccccc2)CC1

>  <score_type>  (12) 
oracle

>  <origin>  (12) 
autodockgpu

>  <m_score__min__energy>  (12) 
-8.5999999999999996

>  <m_primary>  (12) 
energy

>  <rmsd>  (12) 
10.130886306302767

>  <m_score__min__rmsd>  (12) 
10.130886306302767

>  <meeko>  (12) 
{"free_energy": -8.55, "intermolecular_energy": -10.94, "internal_energy": -3.05, "cluster_size": 34, "cluster_id": 1, "rank_in_cluster": 17}

>  <energy>  (12) 
-8.56

>  <cluster_rmsd>  (12) 
0.26

>  <cluster>  (12) 
1

$$$$

     RDKit          3D

 68 72  0  0  0  0  0  0  0  0999 V2000
  136.5620   72.4530  222.7320 C   0  0  0  0  0  0  0  0  0  0  0  0
  137.1770   71.2030  223.3100 C   0  0  0  0  0  0  0  0  0  0  0  0
  138.4920   70.9590  222.6450 C   0  0  0  0  0  0  0  0  0  0  0  0
  138.4710   70.4220  221.5150 O   0  0  0  0  0  0  0  0  0  0  0  0
  139.7090   71.3350  223.3020 N   0  0  0  0  0  0  0  0  0  0  0  0
  140.0010   70.7590  224.5690 C   0  0  0  0  0  0  0  0  0  0  0  0
  140.7040   71.5610  225.4760 C   0  0  0  0  0  0  0  0  0  0  0  0
  141.0380   71.0820  226.7310 C   0  0  0  0  0  0  0  0  0  0  0  0
  140.6400   69.7960  227.0210 C   0  0  0  0  0  0  0  0  0  0  0  0
  139.9520   68.9860  226.1570 C   0  0  0  0  0  0  0  0  0  0  0  0
  139.6280   69.4720  224.9170 C   0  0  0  0  0  0  0  0  0  0  0  0
  140.6000   72.2820  222.6360 C   0  0  0  0  0  0  0  0  0  0  0  0
  139.7620   73.4770  222.1930 C   0  0  0  0  0  0  0  0  0  0  0  0
  140.7490   74.5300  221.7150 C   0  0  0  0  0  0  0  0  0  0  0  0
  141.5700   73.9510  220.6820 N   0  0  0  0  0  0  0  0  0  0  0  0
  142.4310   74.7860  219.8700 C   0  0  0  0  0  0  0  0  0  0  0  0
  143.1350   74.2610  218.9380 O   0  0  0  0  0  0  0  0  0  0  0  0
  142.5740   76.2450  220.0260 C   0  0  1  0  0  0  0  0  0  0  0  0
  143.7580   76.6890  219.3060 N   0  0  0  0  0  0  0  0  0  0  0  0
  141.4040   76.9980  219.5020 C   0  0  2  0  0  0  0  0  0  0  0  0
  141.7230   77.9300  218.3820 C   0  0  0  0  0  0  0  0  0  0  0  0
  142.2740   78.2230  217.1550 C   0  0  0  0  0  0  0  0  0  0  0  0
  142.1850   79.4800  216.5900 C   0  0  0  0  0  0  0  0  0  0  0  0
  141.5170   80.4970  217.2720 C   0  0  0  0  0  0  0  0  0  0  0  0
  140.9510   80.2150  218.5220 C   0  0  0  0  0  0  0  0  0  0  0  0
  141.0650   78.9290  219.0580 C   0  0  0  0  0  0  0  0  0  0  0  0
  140.7400   78.0570  220.2530 C   0  0  2  0  0  0  0  0  0  0  0  0
  141.3230   78.6890  221.4430 C   0  0  0  0  0  0  0  0  0  0  0  0
  141.1350   78.1020  222.7050 C   0  0  0  0  0  0  0  0  0  0  0  0
  141.6470   78.6770  223.8420 C   0  0  0  0  0  0  0  0  0  0  0  0
  142.3660   79.8480  223.8220 C   0  0  0  0  0  0  0  0  0  0  0  0
  142.5650   80.4520  222.5760 C   0  0  0  0  0  0  0  0  0  0  0  0
  142.0440   79.8610  221.4420 C   0  0  0  0  0  0  0  0  0  0  0  0
  141.6270   72.5420  220.3460 C   0  0  0  0  0  0  0  0  0  0  0  0
  141.1790   71.6120  221.4240 C   0  0  0  0  0  0  0  0  0  0  0  0
  136.2370   73.1135  223.5494 H   0  0  0  0  0  0  0  0  0  0  0  0
  137.3061   72.9751  222.1125 H   0  0  0  0  0  0  0  0  0  0  0  0
  135.6943   72.1821  222.1125 H   0  0  0  0  0  0  0  0  0  0  0  0
  137.3286   71.3322  224.3918 H   0  0  0  0  0  0  0  0  0  0  0  0
  136.5087   70.3459  223.1403 H   0  0  0  0  0  0  0  0  0  0  0  0
  140.9939   72.5824  225.1883 H   0  0  0  0  0  0  0  0  0  0  0  0
  141.5914   71.6954  227.4573 H   0  0  0  0  0  0  0  0  0  0  0  0
  140.8914   69.3923  228.0129 H   0  0  0  0  0  0  0  0  0  0  0  0
  139.6652   67.9659  226.4523 H   0  0  0  0  0  0  0  0  0  0  0  0
  139.0753   68.8436  224.2031 H   0  0  0  0  0  0  0  0  0  0  0  0
  141.4086   72.6072  223.3071 H   0  0  0  0  0  0  0  0  0  0  0  0
  139.0866   73.1873  221.3745 H   0  0  0  0  0  0  0  0  0  0  0  0
  139.1365   73.8560  223.0147 H   0  0  0  0  0  0  0  0  0  0  0  0
  140.2023   75.3958  221.3130 H   0  0  0  0  0  0  0  0  0  0  0  0
  141.3779   74.8654  222.5529 H   0  0  0  0  0  0  0  0  0  0  0  0
  142.6535   76.4465  221.1045 H   0  0  0  0  0  0  0  0  0  0  0  0
  144.3090   75.8690  218.9660 H   0  0  0  0  0  0  0  0  0  0  0  0
  144.3770   77.1890  219.9890 H   0  0  0  0  0  0  0  0  0  0  0  0
  140.8112   76.0801  219.3753 H   0  0  0  0  0  0  0  0  0  0  0  0
  142.8027   77.4296  216.6064 H   0  0  0  0  0  0  0  0  0  0  0  0
  142.6384   79.6781  215.6076 H   0  0  0  0  0  0  0  0  0  0  0  0
  141.4360   81.5035  216.8356 H   0  0  0  0  0  0  0  0  0  0  0  0
  140.4198   81.0011  219.0787 H   0  0  0  0  0  0  0  0  0  0  0  0
  139.7688   77.8022  220.7022 H   0  0  0  0  0  0  0  0  0  0  0  0
  140.5666   77.1635  222.7841 H   0  0  0  0  0  0  0  0  0  0  0  0
  141.4746   78.1801  224.8081 H   0  0  0  0  0  0  0  0  0  0  0  0
  142.7675   80.2910  224.7454 H   0  0  0  0  0  0  0  0  0  0  0  0
  143.1326   81.3912  222.5001 H   0  0  0  0  0  0  0  0  0  0  0  0
  142.2163   80.3588  220.4763 H   0  0  0  0  0  0  0  0  0  0  0  0
  140.9878   72.3760  219.4663 H   0  0  0  0  0  0  0  0  0  0  0  0
  142.6883   72.3138  220.1681 H   0  0  0  0  0  0  0  0  0  0  0  0
  140.4122   70.9450  221.0031 H   0  0  0  0  0  0  0  0  0  0  0  0
  142.0788   71.0796  221.7659 H   0  0  0  0  0  0  0  0  0  0  0  0
  1  2  1  0
  2  3  1  0
  3  4  2  0
  3  5  1  0
  5  6  1  0
  6  7  2  0
  7  8  1  0
  8  9  2  0
  9 10  1  0
 10 11  2  0
  5 12  1  0
 12 13  1  0
 13 14  1  0
 14 15  1  0
 15 16  1  0
 16 17  2  0
 16 18  1  0
 18 19  1  0
 18 20  1  0
 20 21  1  0
 21 22  2  0
 22 23  1  0
 23 24  2  0
 24 25  1  0
 25 26  2  0
 26 27  1  0
 27 28  1  0
 28 29  2  0
 29 30  1  0
 30 31  2  0
 31 32  1  0
 32 33  2  0
 15 34  1  0
 34 35  1  0
 11  6  1  0
 35 12  1  0
 27 20  1  0
 33 28  1  0
 26 21  1  0
  1 36  1  0
  1 37  1  0
  1 38  1  0
  2 39  1  0
  2 40  1  0
  7 41  1  0
  8 42  1  0
  9 43  1  0
 10 44  1  0
 11 45  1  0
 12 46  1  0
 13 47  1  0
 13 48  1  0
 14 49  1  0
 14 50  1  0
 18 51  1  1
 19 52  1  0
 19 53  1  0
 20 54  1  6
 22 55  1  0
 23 56  1  0
 24 57  1  0
 25 58  1  0
 27 59  1  1
 29 60  1  0
 30 61  1  0
 31 62  1  0
 32 63  1  0
 33 64  1  0
 34 65  1  0
 34 66  1  0
 35 67  1  0
 35 68  1  0
M  END
>  <smiles>  (13) 
CCC(=O)N(c1ccccc1)C1CCN(C(=O)[C@@H](N)C2c3ccccc3C2c2ccccc2)CC1

>  <score_type>  (13) 
oracle

>  <origin>  (13) 
autodockgpu

>  <m_score__min__energy>  (13) 
-8.5999999999999996

>  <m_primary>  (13) 
energy

>  <rmsd>  (13) 
10.1428360304483

>  <m_score__min__rmsd>  (13) 
10.1428360304483

>  <meeko>  (13) 
{"free_energy": -8.53, "intermolecular_energy": -10.91, "internal_energy": -3.03, "cluster_size": 34, "cluster_id": 1, "rank_in_cluster": 22}

>  <energy>  (13) 
-8.56

>  <cluster_rmsd>  (13) 
0.2

>  <cluster>  (13) 
1

$$$$

     RDKit          3D

 68 72  0  0  0  0  0  0  0  0999 V2000
  136.2280   72.9780  222.7720 C   0  0  0  0  0  0  0  0  0  0  0  0
  136.8830   71.7970  223.4430 C   0  0  0  0  0  0  0  0  0  0  0  0
  138.1380   71.4590  222.7070 C   0  0  0  0  0  0  0  0  0  0  0  0
  138.0170   71.0030  221.5490 O   0  0  0  0  0  0  0  0  0  0  0  0
  139.4120   71.6590  223.3330 N   0  0  0  0  0  0  0  0  0  0  0  0
  139.6930   70.9590  224.5380 C   0  0  0  0  0  0  0  0  0  0  0  0
  140.6650   71.5180  225.3760 C   0  0  0  0  0  0  0  0  0  0  0  0
  141.0080   70.9030  226.5680 C   0  0  0  0  0  0  0  0  0  0  0  0
  140.3440   69.7350  226.8670 C   0  0  0  0  0  0  0  0  0  0  0  0
  139.3880   69.1630  226.0700 C   0  0  0  0  0  0  0  0  0  0  0  0
  139.0580   69.7810  224.8920 C   0  0  0  0  0  0  0  0  0  0  0  0
  140.3700   72.5610  222.6970 C   0  0  0  0  0  0  0  0  0  0  0  0
  139.5830   73.7140  222.0800 C   0  0  0  0  0  0  0  0  0  0  0  0
  140.6150   74.7360  221.6330 C   0  0  0  0  0  0  0  0  0  0  0  0
  141.5430   74.0890  220.7390 N   0  0  0  0  0  0  0  0  0  0  0  0
  142.4850   74.8690  219.9640 C   0  0  0  0  0  0  0  0  0  0  0  0
  143.2850   74.2830  219.1540 O   0  0  0  0  0  0  0  0  0  0  0  0
  142.6110   76.3370  220.0260 C   0  0  1  0  0  0  0  0  0  0  0  0
  143.7030   76.7610  219.1630 N   0  0  0  0  0  0  0  0  0  0  0  0
  141.3760   77.0400  219.5880 C   0  0  2  0  0  0  0  0  0  0  0  0
  141.5870   78.0370  218.5000 C   0  0  0  0  0  0  0  0  0  0  0  0
  142.0620   78.4150  217.2640 C   0  0  0  0  0  0  0  0  0  0  0  0
  141.8740   79.6870  216.7620 C   0  0  0  0  0  0  0  0  0  0  0  0
  141.1800   80.6330  217.5190 C   0  0  0  0  0  0  0  0  0  0  0  0
  140.6900   80.2620  218.7780 C   0  0  0  0  0  0  0  0  0  0  0  0
  140.9040   78.9640  219.2490 C   0  0  0  0  0  0  0  0  0  0  0  0
  140.6860   78.0230  220.4150 C   0  0  2  0  0  0  0  0  0  0  0  0
  141.2860   78.6380  221.6070 C   0  0  0  0  0  0  0  0  0  0  0  0
  142.0270   79.8240  221.4800 C   0  0  0  0  0  0  0  0  0  0  0  0
  142.6200   80.4150  222.5680 C   0  0  0  0  0  0  0  0  0  0  0  0
  142.5300   79.8920  223.8360 C   0  0  0  0  0  0  0  0  0  0  0  0
  141.7980   78.7100  223.9860 C   0  0  0  0  0  0  0  0  0  0  0  0
  141.2080   78.1290  222.8820 C   0  0  0  0  0  0  0  0  0  0  0  0
  141.6360   72.6600  220.5170 C   0  0  0  0  0  0  0  0  0  0  0  0
  141.0740   71.8090  221.6070 C   0  0  0  0  0  0  0  0  0  0  0  0
  135.8449   73.6687  223.5376 H   0  0  0  0  0  0  0  0  0  0  0  0
  136.9661   73.4990  222.1445 H   0  0  0  0  0  0  0  0  0  0  0  0
  135.3952   72.6278  222.1445 H   0  0  0  0  0  0  0  0  0  0  0  0
  137.1233   72.0510  224.4860 H   0  0  0  0  0  0  0  0  0  0  0  0
  136.1998   70.9349  223.4316 H   0  0  0  0  0  0  0  0  0  0  0  0
  141.1613   72.4554  225.0845 H   0  0  0  0  0  0  0  0  0  0  0  0
  141.7700   71.3250  227.2398 H   0  0  0  0  0  0  0  0  0  0  0  0
  140.5980   69.2269  227.8090 H   0  0  0  0  0  0  0  0  0  0  0  0
  138.8950   68.2264  226.3694 H   0  0  0  0  0  0  0  0  0  0  0  0
  138.2938   69.3439  224.2324 H   0  0  0  0  0  0  0  0  0  0  0  0
  141.1031   72.9404  223.4240 H   0  0  0  0  0  0  0  0  0  0  0  0
  138.9985   73.3594  221.2182 H   0  0  0  0  0  0  0  0  0  0  0  0
  138.8734   74.1475  222.8002 H   0  0  0  0  0  0  0  0  0  0  0  0
  140.1143   75.5651  221.1115 H   0  0  0  0  0  0  0  0  0  0  0  0
  141.1506   75.1371  222.5061 H   0  0  0  0  0  0  0  0  0  0  0  0
  142.7982   76.5987  221.0779 H   0  0  0  0  0  0  0  0  0  0  0  0
  144.3060   75.9470  218.9090 H   0  0  0  0  0  0  0  0  0  0  0  0
  144.3120   77.4110  219.7160 H   0  0  0  0  0  0  0  0  0  0  0  0
  140.8336   76.0938  219.4446 H   0  0  0  0  0  0  0  0  0  0  0  0
  142.6093   77.6790  216.6567 H   0  0  0  0  0  0  0  0  0  0  0  0
  142.2689   79.9540  215.7707 H   0  0  0  0  0  0  0  0  0  0  0  0
  141.0209   81.6510  217.1339 H   0  0  0  0  0  0  0  0  0  0  0  0
  140.1394   80.9892  219.3929 H   0  0  0  0  0  0  0  0  0  0  0  0
  139.7531   77.6902  220.8935 H   0  0  0  0  0  0  0  0  0  0  0  0
  142.1345   80.2888  220.4888 H   0  0  0  0  0  0  0  0  0  0  0  0
  143.1898   81.3440  222.4191 H   0  0  0  0  0  0  0  0  0  0  0  0
  143.0125   80.3816  224.6948 H   0  0  0  0  0  0  0  0  0  0  0  0
  141.6931   78.2462  224.9779 H   0  0  0  0  0  0  0  0  0  0  0  0
  140.6391   77.1995  223.0315 H   0  0  0  0  0  0  0  0  0  0  0  0
  141.0956   72.4241  219.5884 H   0  0  0  0  0  0  0  0  0  0  0  0
  142.7102   72.4277  220.4718 H   0  0  0  0  0  0  0  0  0  0  0  0
  140.3558   71.1078  221.1570 H   0  0  0  0  0  0  0  0  0  0  0  0
  141.9317   71.3098  222.0814 H   0  0  0  0  0  0  0  0  0  0  0  0
  1  2  1  0
  2  3  1  0
  3  4  2  0
  3  5  1  0
  5  6  1  0
  6  7  2  0
  7  8  1  0
  8  9  2  0
  9 10  1  0
 10 11  2  0
  5 12  1  0
 12 13  1  0
 13 14  1  0
 14 15  1  0
 15 16  1  0
 16 17  2  0
 16 18  1  0
 18 19  1  0
 18 20  1  0
 20 21  1  0
 21 22  2  0
 22 23  1  0
 23 24  2  0
 24 25  1  0
 25 26  2  0
 26 27  1  0
 27 28  1  0
 28 29  2  0
 29 30  1  0
 30 31  2  0
 31 32  1  0
 32 33  2  0
 15 34  1  0
 34 35  1  0
 11  6  1  0
 35 12  1  0
 27 20  1  0
 33 28  1  0
 26 21  1  0
  1 36  1  0
  1 37  1  0
  1 38  1  0
  2 39  1  0
  2 40  1  0
  7 41  1  0
  8 42  1  0
  9 43  1  0
 10 44  1  0
 11 45  1  0
 12 46  1  0
 13 47  1  0
 13 48  1  0
 14 49  1  0
 14 50  1  0
 18 51  1  1
 19 52  1  0
 19 53  1  0
 20 54  1  6
 22 55  1  0
 23 56  1  0
 24 57  1  0
 25 58  1  0
 27 59  1  1
 29 60  1  0
 30 61  1  0
 31 62  1  0
 32 63  1  0
 33 64  1  0
 34 65  1  0
 34 66  1  0
 35 67  1  0
 35 68  1  0
M  END
>  <smiles>  (14) 
CCC(=O)N(c1ccccc1)C1CCN(C(=O)[C@@H](N)C2c3ccccc3C2c2ccccc2)CC1

>  <score_type>  (14) 
oracle

>  <origin>  (14) 
autodockgpu

>  <m_score__min__energy>  (14) 
-8.5999999999999996

>  <m_primary>  (14) 
energy

>  <rmsd>  (14) 
10.102076087763079

>  <m_score__min__rmsd>  (14) 
10.102076087763079

>  <meeko>  (14) 
{"free_energy": -8.57, "intermolecular_energy": -10.96, "internal_energy": -2.99, "cluster_size": 34, "cluster_id": 1, "rank_in_cluster": 9}

>  <energy>  (14) 
-8.56

>  <cluster_rmsd>  (14) 
0.21

>  <cluster>  (14) 
1

$$$$

     RDKit          3D

 68 72  0  0  0  0  0  0  0  0999 V2000
  137.3270   83.9630  222.4080 C   0  0  0  0  0  0  0  0  0  0  0  0
  136.9020   83.9210  223.8540 C   0  0  0  0  0  0  0  0  0  0  0  0
  135.9260   82.8060  224.0380 C   0  0  0  0  0  0  0  0  0  0  0  0
  134.9240   82.7910  223.2900 O   0  0  0  0  0  0  0  0  0  0  0  0
  136.1570   81.8100  225.0420 N   0  0  0  0  0  0  0  0  0  0  0  0
  135.8580   82.1280  226.3950 C   0  0  0  0  0  0  0  0  0  0  0  0
  135.2750   83.3780  226.6320 C   0  0  0  0  0  0  0  0  0  0  0  0
  134.9550   83.7770  227.9180 C   0  0  0  0  0  0  0  0  0  0  0  0
  135.2410   82.8830  228.9250 C   0  0  0  0  0  0  0  0  0  0  0  0
  135.8110   81.6520  228.7280 C   0  0  0  0  0  0  0  0  0  0  0  0
  136.1230   81.2700  227.4490 C   0  0  0  0  0  0  0  0  0  0  0  0
  136.6780   80.5080  224.6300 C   0  0  0  0  0  0  0  0  0  0  0  0
  137.8430   80.7530  223.6750 C   0  0  0  0  0  0  0  0  0  0  0  0
  138.4950   79.3990  223.4500 C   0  0  0  0  0  0  0  0  0  0  0  0
  137.4940   78.4840  222.9620 N   0  0  0  0  0  0  0  0  0  0  0  0
  137.8740   77.1930  222.4270 C   0  0  0  0  0  0  0  0  0  0  0  0
  136.9770   76.4020  221.9710 O   0  0  0  0  0  0  0  0  0  0  0  0
  139.2590   76.6890  222.3560 C   0  0  1  0  0  0  0  0  0  0  0  0
  139.2730   75.2810  222.7200 N   0  0  0  0  0  0  0  0  0  0  0  0
  139.8520   76.8220  221.0000 C   0  0  2  0  0  0  0  0  0  0  0  0
  140.9700   75.8770  220.7200 C   0  0  0  0  0  0  0  0  0  0  0  0
  141.5240   74.6170  220.6760 C   0  0  0  0  0  0  0  0  0  0  0  0
  142.8090   74.3940  220.2240 C   0  0  0  0  0  0  0  0  0  0  0  0
  143.5850   75.4690  219.7920 C   0  0  0  0  0  0  0  0  0  0  0  0
  143.0360   76.7580  219.8310 C   0  0  0  0  0  0  0  0  0  0  0  0
  141.7310   76.9400  220.2970 C   0  0  0  0  0  0  0  0  0  0  0  0
  140.6600   77.9670  220.5950 C   0  0  2  0  0  0  0  0  0  0  0  0
  141.2180   78.9360  221.5460 C   0  0  0  0  0  0  0  0  0  0  0  0
  141.6970   78.4940  222.7900 C   0  0  0  0  0  0  0  0  0  0  0  0
  142.2050   79.3740  223.7130 C   0  0  0  0  0  0  0  0  0  0  0  0
  142.2770   80.7280  223.4850 C   0  0  0  0  0  0  0  0  0  0  0  0
  141.8050   81.1920  222.2530 C   0  0  0  0  0  0  0  0  0  0  0  0
  141.2970   80.2940  221.3360 C   0  0  0  0  0  0  0  0  0  0  0  0
  136.0670   78.7340  222.9430 C   0  0  0  0  0  0  0  0  0  0  0  0
  135.5900   79.7760  223.8990 C   0  0  0  0  0  0  0  0  0  0  0  0
  138.4201   84.0710  222.3501 H   0  0  0  0  0  0  0  0  0  0  0  0
  137.0238   83.0305  221.9095 H   0  0  0  0  0  0  0  0  0  0  0  0
  136.8471   84.8181  221.9095 H   0  0  0  0  0  0  0  0  0  0  0  0
  137.7813   83.7514  224.4927 H   0  0  0  0  0  0  0  0  0  0  0  0
  136.4339   84.8765  224.1333 H   0  0  0  0  0  0  0  0  0  0  0  0
  135.0688   84.0509  225.7867 H   0  0  0  0  0  0  0  0  0  0  0  0
  134.4969   84.7556  228.1243 H   0  0  0  0  0  0  0  0  0  0  0  0
  134.9958   83.1760  229.9565 H   0  0  0  0  0  0  0  0  0  0  0  0
  136.0138   80.9846  229.5785 H   0  0  0  0  0  0  0  0  0  0  0  0
  136.5811   80.2877  227.2611 H   0  0  0  0  0  0  0  0  0  0  0  0
  137.0100   79.9192  225.4978 H   0  0  0  0  0  0  0  0  0  0  0  0
  137.4762   81.1631  222.7225 H   0  0  0  0  0  0  0  0  0  0  0  0
  138.5574   81.4791  224.0903 H   0  0  0  0  0  0  0  0  0  0  0  0
  139.3026   79.4947  222.7093 H   0  0  0  0  0  0  0  0  0  0  0  0
  138.9200   79.0244  224.3929 H   0  0  0  0  0  0  0  0  0  0  0  0
  139.8582   77.2963  223.0504 H   0  0  0  0  0  0  0  0  0  0  0  0
  138.3080   74.8820  222.6830 H   0  0  0  0  0  0  0  0  0  0  0  0
  139.5740   75.2130  223.7220 H   0  0  0  0  0  0  0  0  0  0  0  0
  138.8676   76.7552  220.5137 H   0  0  0  0  0  0  0  0  0  0  0  0
  140.9224   73.7597  221.0123 H   0  0  0  0  0  0  0  0  0  0  0  0
  143.2188   73.3734  220.2047 H   0  0  0  0  0  0  0  0  0  0  0  0
  144.6101   75.3082  219.4270 H   0  0  0  0  0  0  0  0  0  0  0  0
  143.6291   77.6219  219.4966 H   0  0  0  0  0  0  0  0  0  0  0  0
  140.1742   78.6980  219.9320 H   0  0  0  0  0  0  0  0  0  0  0  0
  141.6645   77.4209  223.0296 H   0  0  0  0  0  0  0  0  0  0  0  0
  142.5690   78.9802  224.6734 H   0  0  0  0  0  0  0  0  0  0  0  0
  142.6878   81.4161  224.2385 H   0  0  0  0  0  0  0  0  0  0  0  0
  141.8384   82.2657  222.0163 H   0  0  0  0  0  0  0  0  0  0  0  0
  140.9321   80.6888  220.3763 H   0  0  0  0  0  0  0  0  0  0  0  0
  135.7912   79.0530  221.9270 H   0  0  0  0  0  0  0  0  0  0  0  0
  135.5889   77.7935  223.2542 H   0  0  0  0  0  0  0  0  0  0  0  0
  135.0012   80.5140  223.3344 H   0  0  0  0  0  0  0  0  0  0  0  0
  135.0049   79.2470  224.6656 H   0  0  0  0  0  0  0  0  0  0  0  0
  1  2  1  0
  2  3  1  0
  3  4  2  0
  3  5  1  0
  5  6  1  0
  6  7  2  0
  7  8  1  0
  8  9  2  0
  9 10  1  0
 10 11  2  0
  5 12  1  0
 12 13  1  0
 13 14  1  0
 14 15  1  0
 15 16  1  0
 16 17  2  0
 16 18  1  0
 18 19  1  0
 18 20  1  0
 20 21  1  0
 21 22  2  0
 22 23  1  0
 23 24  2  0
 24 25  1  0
 25 26  2  0
 26 27  1  0
 27 28  1  0
 28 29  2  0
 29 30  1  0
 30 31  2  0
 31 32  1  0
 32 33  2  0
 15 34  1  0
 34 35  1  0
 11  6  1  0
 35 12  1  0
 27 20  1  0
 33 28  1  0
 26 21  1  0
  1 36  1  0
  1 37  1  0
  1 38  1  0
  2 39  1  0
  2 40  1  0
  7 41  1  0
  8 42  1  0
  9 43  1  0
 10 44  1  0
 11 45  1  0
 12 46  1  0
 13 47  1  0
 13 48  1  0
 14 49  1  0
 14 50  1  0
 18 51  1  1
 19 52  1  0
 19 53  1  0
 20 54  1  6
 22 55  1  0
 23 56  1  0
 24 57  1  0
 25 58  1  0
 27 59  1  6
 29 60  1  0
 30 61  1  0
 31 62  1  0
 32 63  1  0
 33 64  1  0
 34 65  1  0
 34 66  1  0
 35 67  1  0
 35 68  1  0
M  END
>  <smiles>  (15) 
CCC(=O)N(c1ccccc1)C1CCN(C(=O)[C@@H](N)C2c3ccccc3C2c2ccccc2)CC1

>  <score_type>  (15) 
oracle

>  <origin>  (15) 
autodockgpu

>  <m_score__min__energy>  (15) 
-8.5999999999999996

>  <m_primary>  (15) 
energy

>  <rmsd>  (15) 
8.26104438913073

>  <m_score__min__rmsd>  (15) 
8.26104438913073

>  <meeko>  (15) 
{"free_energy": -8.04, "intermolecular_energy": -10.43, "internal_energy": -3.3, "cluster_size": 15, "cluster_id": 2, "rank_in_cluster": 11}

>  <energy>  (15) 
-8.56

>  <cluster_rmsd>  (15) 
0.24

>  <cluster>  (15) 
1

$$$$

     RDKit          3D

 68 72  0  0  0  0  0  0  0  0999 V2000
  133.7220   82.8050  223.8910 C   0  0  0  0  0  0  0  0  0  0  0  0
  135.0310   82.9810  223.1630 C   0  0  0  0  0  0  0  0  0  0  0  0
  136.1400   83.0120  224.1630 C   0  0  0  0  0  0  0  0  0  0  0  0
  136.9470   83.9650  224.0930 O   0  0  0  0  0  0  0  0  0  0  0  0
  136.2470   81.9760  225.1470 N   0  0  0  0  0  0  0  0  0  0  0  0
  135.8540   82.2660  226.4830 C   0  0  0  0  0  0  0  0  0  0  0  0
  135.5240   83.5970  226.7650 C   0  0  0  0  0  0  0  0  0  0  0  0
  135.1360   83.9740  228.0390 C   0  0  0  0  0  0  0  0  0  0  0  0
  135.0950   82.9760  228.9860 C   0  0  0  0  0  0  0  0  0  0  0  0
  135.4100   81.6650  228.7430 C   0  0  0  0  0  0  0  0  0  0  0  0
  135.7940   81.3050  227.4780 C   0  0  0  0  0  0  0  0  0  0  0  0
  136.7430   80.6660  224.7340 C   0  0  0  0  0  0  0  0  0  0  0  0
  137.8680   80.8900  223.7280 C   0  0  0  0  0  0  0  0  0  0  0  0
  138.5040   79.5290  223.4960 C   0  0  0  0  0  0  0  0  0  0  0  0
  137.4790   78.6130  223.0630 N   0  0  0  0  0  0  0  0  0  0  0  0
  137.8290   77.3120  222.5320 C   0  0  0  0  0  0  0  0  0  0  0  0
  136.9090   76.5190  222.1260 O   0  0  0  0  0  0  0  0  0  0  0  0
  139.2070   76.7990  222.4110 C   0  0  1  0  0  0  0  0  0  0  0  0
  139.2150   75.3770  222.7200 N   0  0  0  0  0  0  0  0  0  0  0  0
  139.7720   76.9790  221.0480 C   0  0  2  0  0  0  0  0  0  0  0  0
  140.8870   76.0480  220.7150 C   0  0  0  0  0  0  0  0  0  0  0  0
  141.4430   74.7920  220.6180 C   0  0  0  0  0  0  0  0  0  0  0  0
  142.7190   74.5890  220.1320 C   0  0  0  0  0  0  0  0  0  0  0  0
  143.4840   75.6810  219.7200 C   0  0  0  0  0  0  0  0  0  0  0  0
  142.9320   76.9650  219.8130 C   0  0  0  0  0  0  0  0  0  0  0  0
  141.6360   77.1270  220.3120 C   0  0  0  0  0  0  0  0  0  0  0  0
  140.5680   78.1390  220.6660 C   0  0  2  0  0  0  0  0  0  0  0  0
  141.1420   79.0790  221.6370 C   0  0  0  0  0  0  0  0  0  0  0  0
  141.6580   78.5960  222.8510 C   0  0  0  0  0  0  0  0  0  0  0  0
  142.1830   79.4460  223.7920 C   0  0  0  0  0  0  0  0  0  0  0  0
  142.2370   80.8080  223.6130 C   0  0  0  0  0  0  0  0  0  0  0  0
  141.7280   81.3120  222.4110 C   0  0  0  0  0  0  0  0  0  0  0  0
  141.2040   80.4440  221.4750 C   0  0  0  0  0  0  0  0  0  0  0  0
  136.0530   78.8710  223.1000 C   0  0  0  0  0  0  0  0  0  0  0  0
  135.6220   79.9290  224.0590 C   0  0  0  0  0  0  0  0  0  0  0  0
  133.8999   82.8289  224.9763 H   0  0  0  0  0  0  0  0  0  0  0  0
  133.0360   83.6190  223.6139 H   0  0  0  0  0  0  0  0  0  0  0  0
  133.2753   81.8387  223.6139 H   0  0  0  0  0  0  0  0  0  0  0  0
  135.1832   82.1415  222.4686 H   0  0  0  0  0  0  0  0  0  0  0  0
  135.0169   83.9215  222.5926 H   0  0  0  0  0  0  0  0  0  0  0  0
  135.5736   84.3511  225.9657 H   0  0  0  0  0  0  0  0  0  0  0  0
  134.8746   85.0146  228.2815 H   0  0  0  0  0  0  0  0  0  0  0  0
  134.7887   83.2494  230.0065 H   0  0  0  0  0  0  0  0  0  0  0  0
  135.3557   80.9165  229.5473 H   0  0  0  0  0  0  0  0  0  0  0  0
  136.0529   80.2595  227.2544 H   0  0  0  0  0  0  0  0  0  0  0  0
  137.1071   80.0885  225.5965 H   0  0  0  0  0  0  0  0  0  0  0  0
  137.4637   81.2880  222.7856 H   0  0  0  0  0  0  0  0  0  0  0  0
  138.6026   81.6180  224.1025 H   0  0  0  0  0  0  0  0  0  0  0  0
  139.2809   79.6097  222.7214 H   0  0  0  0  0  0  0  0  0  0  0  0
  138.9660   79.1655  224.4257 H   0  0  0  0  0  0  0  0  0  0  0  0
  139.8269   77.3737  223.1148 H   0  0  0  0  0  0  0  0  0  0  0  0
  138.2430   74.9930  222.7090 H   0  0  0  0  0  0  0  0  0  0  0  0
  139.5570   75.2670  223.7050 H   0  0  0  0  0  0  0  0  0  0  0  0
  138.7785   76.9247  220.5790 H   0  0  0  0  0  0  0  0  0  0  0  0
  140.8510   73.9220  220.9382 H   0  0  0  0  0  0  0  0  0  0  0  0
  143.1310   73.5710  220.0698 H   0  0  0  0  0  0  0  0  0  0  0  0
  144.5020   75.5361  219.3293 H   0  0  0  0  0  0  0  0  0  0  0  0
  143.5154   77.8417  219.4950 H   0  0  0  0  0  0  0  0  0  0  0  0
  140.0663   78.8899  220.0379 H   0  0  0  0  0  0  0  0  0  0  0  0
  141.6409   77.5146  223.0515 H   0  0  0  0  0  0  0  0  0  0  0  0
  142.5764   79.0204  224.7270 H   0  0  0  0  0  0  0  0  0  0  0  0
  142.6614   81.4720  224.3805 H   0  0  0  0  0  0  0  0  0  0  0  0
  141.7455   82.3940  222.2133 H   0  0  0  0  0  0  0  0  0  0  0  0
  140.8110   80.8703  220.5402 H   0  0  0  0  0  0  0  0  0  0  0  0
  135.7365   79.1766  222.0918 H   0  0  0  0  0  0  0  0  0  0  0  0
  135.5836   77.9379  223.4449 H   0  0  0  0  0  0  0  0  0  0  0  0
  135.0140   80.6619  223.5084 H   0  0  0  0  0  0  0  0  0  0  0  0
  135.0670   79.4141  224.8570 H   0  0  0  0  0  0  0  0  0  0  0  0
  1  2  1  0
  2  3  1  0
  3  4  2  0
  3  5  1  0
  5  6  1  0
  6  7  2  0
  7  8  1  0
  8  9  2  0
  9 10  1  0
 10 11  2  0
  5 12  1  0
 12 13  1  0
 13 14  1  0
 14 15  1  0
 15 16  1  0
 16 17  2  0
 16 18  1  0
 18 19  1  0
 18 20  1  0
 20 21  1  0
 21 22  2  0
 22 23  1  0
 23 24  2  0
 24 25  1  0
 25 26  2  0
 26 27  1  0
 27 28  1  0
 28 29  2  0
 29 30  1  0
 30 31  2  0
 31 32  1  0
 32 33  2  0
 15 34  1  0
 34 35  1  0
 11  6  1  0
 35 12  1  0
 27 20  1  0
 33 28  1  0
 26 21  1  0
  1 36  1  0
  1 37  1  0
  1 38  1  0
  2 39  1  0
  2 40  1  0
  7 41  1  0
  8 42  1  0
  9 43  1  0
 10 44  1  0
 11 45  1  0
 12 46  1  0
 13 47  1  0
 13 48  1  0
 14 49  1  0
 14 50  1  0
 18 51  1  1
 19 52  1  0
 19 53  1  0
 20 54  1  6
 22 55  1  0
 23 56  1  0
 24 57  1  0
 25 58  1  0
 27 59  1  6
 29 60  1  0
 30 61  1  0
 31 62  1  0
 32 63  1  0
 33 64  1  0
 34 65  1  0
 34 66  1  0
 35 67  1  0
 35 68  1  0
M  END
>  <smiles>  (16) 
CCC(=O)N(c1ccccc1)C1CCN(C(=O)[C@@H](N)C2c3ccccc3C2c2ccccc2)CC1

>  <score_type>  (16) 
oracle

>  <origin>  (16) 
autodockgpu

>  <m_score__min__energy>  (16) 
-8.5999999999999996

>  <m_primary>  (16) 
energy

>  <rmsd>  (16) 
8.389728164193997

>  <m_score__min__rmsd>  (16) 
8.389728164193997

>  <meeko>  (16) 
{"free_energy": -8.13, "intermolecular_energy": -10.51, "internal_energy": -3.31, "cluster_size": 15, "cluster_id": 2, "rank_in_cluster": 5}

>  <energy>  (16) 
-8.56

>  <cluster_rmsd>  (16) 
0.21

>  <cluster>  (16) 
1

$$$$

     RDKit          3D

 68 72  0  0  0  0  0  0  0  0999 V2000
  138.7660   69.0540  221.8030 C   0  0  0  0  0  0  0  0  0  0  0  0
  138.2050   70.3930  221.3960 C   0  0  0  0  0  0  0  0  0  0  0  0
  138.2080   71.2990  222.5830 C   0  0  0  0  0  0  0  0  0  0  0  0
  137.1080   71.7690  222.9480 O   0  0  0  0  0  0  0  0  0  0  0  0
  139.4400   71.5990  223.2520 N   0  0  0  0  0  0  0  0  0  0  0  0
  139.6930   70.9900  224.5110 C   0  0  0  0  0  0  0  0  0  0  0  0
  140.6880   71.5740  225.3030 C   0  0  0  0  0  0  0  0  0  0  0  0
  141.0080   71.0450  226.5420 C   0  0  0  0  0  0  0  0  0  0  0  0
  140.2960   69.9340  226.9340 C   0  0  0  0  0  0  0  0  0  0  0  0
  139.3160   69.3390  226.1850 C   0  0  0  0  0  0  0  0  0  0  0  0
  139.0100   69.8710  224.9600 C   0  0  0  0  0  0  0  0  0  0  0  0
  140.3850   72.5070  222.6050 C   0  0  0  0  0  0  0  0  0  0  0  0
  139.5920   73.6870  222.0520 C   0  0  0  0  0  0  0  0  0  0  0  0
  140.6210   74.7080  221.5940 C   0  0  0  0  0  0  0  0  0  0  0  0
  141.5030   74.0740  220.6460 N   0  0  0  0  0  0  0  0  0  0  0  0
  142.4260   74.8630  219.8570 C   0  0  0  0  0  0  0  0  0  0  0  0
  143.1860   74.2900  219.0000 O   0  0  0  0  0  0  0  0  0  0  0  0
  142.5750   76.3270  219.9560 C   0  0  1  0  0  0  0  0  0  0  0  0
  143.7060   76.7480  219.1430 N   0  0  0  0  0  0  0  0  0  0  0  0
  141.3710   77.0620  219.4870 C   0  0  2  0  0  0  0  0  0  0  0  0
  141.6410   78.0770  218.4300 C   0  0  0  0  0  0  0  0  0  0  0  0
  142.1700   78.4740  217.2210 C   0  0  0  0  0  0  0  0  0  0  0  0
  142.0230   79.7600  216.7410 C   0  0  0  0  0  0  0  0  0  0  0  0
  141.3170   80.7010  217.4910 C   0  0  0  0  0  0  0  0  0  0  0  0
  140.7730   80.3130  218.7220 C   0  0  0  0  0  0  0  0  0  0  0  0
  140.9460   79.0010  219.1730 C   0  0  0  0  0  0  0  0  0  0  0  0
  140.6670   78.0400  220.3080 C   0  0  2  0  0  0  0  0  0  0  0  0
  141.2310   78.6170  221.5350 C   0  0  0  0  0  0  0  0  0  0  0  0
  142.0110   79.7830  221.4600 C   0  0  0  0  0  0  0  0  0  0  0  0
  142.5730   80.3390  222.5830 C   0  0  0  0  0  0  0  0  0  0  0  0
  142.4120   79.7990  223.8370 C   0  0  0  0  0  0  0  0  0  0  0  0
  141.6400   78.6370  223.9360 C   0  0  0  0  0  0  0  0  0  0  0  0
  141.0820   78.0910  222.7980 C   0  0  0  0  0  0  0  0  0  0  0  0
  141.5670   72.6510  220.3810 C   0  0  0  0  0  0  0  0  0  0  0  0
  141.0360   71.7770  221.4670 C   0  0  0  0  0  0  0  0  0  0  0  0
  138.7943   68.9866  222.9006 H   0  0  0  0  0  0  0  0  0  0  0  0
  138.1282   68.2522  221.4027 H   0  0  0  0  0  0  0  0  0  0  0  0
  139.7849   68.9463  221.4027 H   0  0  0  0  0  0  0  0  0  0  0  0
  138.8263   70.8268  220.5986 H   0  0  0  0  0  0  0  0  0  0  0  0
  137.1773   70.2692  221.0239 H   0  0  0  0  0  0  0  0  0  0  0  0
  141.2220   72.4634  224.9371 H   0  0  0  0  0  0  0  0  0  0  0  0
  141.7883   71.4882  227.1781 H   0  0  0  0  0  0  0  0  0  0  0  0
  140.5300   69.4945  227.9149 H   0  0  0  0  0  0  0  0  0  0  0  0
  138.7849   68.4514  226.5595 H   0  0  0  0  0  0  0  0  0  0  0  0
  138.2275   69.4130  224.3372 H   0  0  0  0  0  0  0  0  0  0  0  0
  141.1504   72.8562  223.3136 H   0  0  0  0  0  0  0  0  0  0  0  0
  138.9698   73.3651  221.2039 H   0  0  0  0  0  0  0  0  0  0  0  0
  138.9170   74.1090  222.8111 H   0  0  0  0  0  0  0  0  0  0  0  0
  140.1127   75.5588  221.1166 H   0  0  0  0  0  0  0  0  0  0  0  0
  141.1961   75.0767  222.4561 H   0  0  0  0  0  0  0  0  0  0  0  0
  142.7261   76.5630  221.0197 H   0  0  0  0  0  0  0  0  0  0  0  0
  144.2930   75.9260  218.8770 H   0  0  0  0  0  0  0  0  0  0  0  0
  144.3180   77.3570  219.7390 H   0  0  0  0  0  0  0  0  0  0  0  0
  140.8180   76.1291  219.3029 H   0  0  0  0  0  0  0  0  0  0  0  0
  142.7278   77.7420  216.6185 H   0  0  0  0  0  0  0  0  0  0  0  0
  142.4604   80.0414  215.7718 H   0  0  0  0  0  0  0  0  0  0  0  0
  141.1898   81.7295  217.1221 H   0  0  0  0  0  0  0  0  0  0  0  0
  140.2122   81.0372  219.3311 H   0  0  0  0  0  0  0  0  0  0  0  0
  139.7103   77.7148  220.7427 H   0  0  0  0  0  0  0  0  0  0  0  0
  142.1748   80.2601  220.4825 H   0  0  0  0  0  0  0  0  0  0  0  0
  143.1759   81.2527  222.4748 H   0  0  0  0  0  0  0  0  0  0  0  0
  142.8704   80.2608  224.7239 H   0  0  0  0  0  0  0  0  0  0  0  0
  141.4786   78.1613  224.9146 H   0  0  0  0  0  0  0  0  0  0  0  0
  140.4797   77.1771  222.9074 H   0  0  0  0  0  0  0  0  0  0  0  0
  140.9879   72.4487  219.4679 H   0  0  0  0  0  0  0  0  0  0  0  0
  142.6353   72.4062  220.2878 H   0  0  0  0  0  0  0  0  0  0  0  0
  140.2911   71.0984  221.0258 H   0  0  0  0  0  0  0  0  0  0  0  0
  141.9043   71.2532  221.8933 H   0  0  0  0  0  0  0  0  0  0  0  0
  1  2  1  0
  2  3  1  0
  3  4  2  0
  3  5  1  0
  5  6  1  0
  6  7  2  0
  7  8  1  0
  8  9  2  0
  9 10  1  0
 10 11  2  0
  5 12  1  0
 12 13  1  0
 13 14  1  0
 14 15  1  0
 15 16  1  0
 16 17  2  0
 16 18  1  0
 18 19  1  0
 18 20  1  0
 20 21  1  0
 21 22  2  0
 22 23  1  0
 23 24  2  0
 24 25  1  0
 25 26  2  0
 26 27  1  0
 27 28  1  0
 28 29  2  0
 29 30  1  0
 30 31  2  0
 31 32  1  0
 32 33  2  0
 15 34  1  0
 34 35  1  0
 11  6  1  0
 35 12  1  0
 27 20  1  0
 33 28  1  0
 26 21  1  0
  1 36  1  0
  1 37  1  0
  1 38  1  0
  2 39  1  0
  2 40  1  0
  7 41  1  0
  8 42  1  0
  9 43  1  0
 10 44  1  0
 11 45  1  0
 12 46  1  0
 13 47  1  0
 13 48  1  0
 14 49  1  0
 14 50  1  0
 18 51  1  1
 19 52  1  0
 19 53  1  0
 20 54  1  6
 22 55  1  0
 23 56  1  0
 24 57  1  0
 25 58  1  0
 27 59  1  1
 29 60  1  0
 30 61  1  0
 31 62  1  0
 32 63  1  0
 33 64  1  0
 34 65  1  0
 34 66  1  0
 35 67  1  0
 35 68  1  0
M  END
>  <smiles>  (17) 
CCC(=O)N(c1ccccc1)C1CCN(C(=O)[C@@H](N)C2c3ccccc3C2c2ccccc2)CC1

>  <score_type>  (17) 
oracle

>  <origin>  (17) 
autodockgpu

>  <m_score__min__energy>  (17) 
-8.5999999999999996

>  <m_primary>  (17) 
energy

>  <rmsd>  (17) 
10.154183610554131

>  <m_score__min__rmsd>  (17) 
10.154183610554131

>  <meeko>  (17) 
{"free_energy": -8.52, "intermolecular_energy": -10.9, "internal_energy": -2.97, "cluster_size": 34, "cluster_id": 1, "rank_in_cluster": 27}

>  <energy>  (17) 
-8.55

>  <cluster_rmsd>  (17) 
0.2

>  <cluster>  (17) 
1

$$$$

     RDKit          3D

 68 72  0  0  0  0  0  0  0  0999 V2000
  136.2330   70.7840  223.8470 C   0  0  0  0  0  0  0  0  0  0  0  0
  137.0230   71.8530  223.1350 C   0  0  0  0  0  0  0  0  0  0  0  0
  138.2870   71.2540  222.6130 C   0  0  0  0  0  0  0  0  0  0  0  0
  138.1990   70.5170  221.6060 O   0  0  0  0  0  0  0  0  0  0  0  0
  139.5340   71.5290  223.2650 N   0  0  0  0  0  0  0  0  0  0  0  0
  139.8140   70.8780  224.4970 C   0  0  0  0  0  0  0  0  0  0  0  0
  140.6880   71.5350  225.3700 C   0  0  0  0  0  0  0  0  0  0  0  0
  141.0240   70.9730  226.5900 C   0  0  0  0  0  0  0  0  0  0  0  0
  140.4520   69.7550  226.8800 C   0  0  0  0  0  0  0  0  0  0  0  0
  139.5930   69.0860  226.0490 C   0  0  0  0  0  0  0  0  0  0  0  0
  139.2690   69.6530  224.8440 C   0  0  0  0  0  0  0  0  0  0  0  0
  140.4660   72.4570  222.6280 C   0  0  0  0  0  0  0  0  0  0  0  0
  139.6520   73.6120  222.0510 C   0  0  0  0  0  0  0  0  0  0  0  0
  140.6610   74.6560  221.6030 C   0  0  0  0  0  0  0  0  0  0  0  0
  141.5780   74.0400  220.6770 N   0  0  0  0  0  0  0  0  0  0  0  0
  142.4930   74.8480  219.8980 C   0  0  0  0  0  0  0  0  0  0  0  0
  143.2830   74.2880  219.0600 O   0  0  0  0  0  0  0  0  0  0  0  0
  142.6010   76.3160  219.9880 C   0  0  1  0  0  0  0  0  0  0  0  0
  143.7080   76.7650  219.1570 N   0  0  0  0  0  0  0  0  0  0  0  0
  141.3690   77.0130  219.5340 C   0  0  2  0  0  0  0  0  0  0  0  0
  141.5900   78.0100  218.4480 C   0  0  0  0  0  0  0  0  0  0  0  0
  142.0800   78.3910  217.2190 C   0  0  0  0  0  0  0  0  0  0  0  0
  141.8930   79.6630  216.7150 C   0  0  0  0  0  0  0  0  0  0  0  0
  141.1840   80.6050  217.4610 C   0  0  0  0  0  0  0  0  0  0  0  0
  140.6790   80.2320  218.7140 C   0  0  0  0  0  0  0  0  0  0  0  0
  140.8930   78.9350  219.1880 C   0  0  0  0  0  0  0  0  0  0  0  0
  140.6640   77.9930  220.3510 C   0  0  2  0  0  0  0  0  0  0  0  0
  141.2450   78.6100  221.5500 C   0  0  0  0  0  0  0  0  0  0  0  0
  141.9770   79.8030  221.4340 C   0  0  0  0  0  0  0  0  0  0  0  0
  142.5530   80.3970  222.5300 C   0  0  0  0  0  0  0  0  0  0  0  0
  142.4540   79.8700  223.7960 C   0  0  0  0  0  0  0  0  0  0  0  0
  141.7300   78.6810  223.9360 C   0  0  0  0  0  0  0  0  0  0  0  0
  141.1570   78.0980  222.8240 C   0  0  0  0  0  0  0  0  0  0  0  0
  141.6830   72.6170  220.4240 C   0  0  0  0  0  0  0  0  0  0  0  0
  141.1570   71.7360  221.5070 C   0  0  0  0  0  0  0  0  0  0  0  0
  136.3319   70.9179  224.9343 H   0  0  0  0  0  0  0  0  0  0  0  0
  135.1731   70.8609  223.5630 H   0  0  0  0  0  0  0  0  0  0  0  0
  136.6177   69.7934  223.5630 H   0  0  0  0  0  0  0  0  0  0  0  0
  136.4315   72.2538  222.2986 H   0  0  0  0  0  0  0  0  0  0  0  0
  137.2584   72.6696  223.8334 H   0  0  0  0  0  0  0  0  0  0  0  0
  141.1128   72.5085  225.0840 H   0  0  0  0  0  0  0  0  0  0  0  0
  141.7106   71.4726  227.2893 H   0  0  0  0  0  0  0  0  0  0  0  0
  140.7015   69.2875  227.8440 H   0  0  0  0  0  0  0  0  0  0  0  0
  139.1717   68.1133  226.3428 H   0  0  0  0  0  0  0  0  0  0  0  0
  138.5808   69.1386  224.1572 H   0  0  0  0  0  0  0  0  0  0  0  0
  141.2087   72.8316  223.3477 H   0  0  0  0  0  0  0  0  0  0  0  0
  139.0537   73.2671  221.1947 H   0  0  0  0  0  0  0  0  0  0  0  0
  138.9528   74.0219  222.7947 H   0  0  0  0  0  0  0  0  0  0  0  0
  140.1386   75.4886  221.1091 H   0  0  0  0  0  0  0  0  0  0  0  0
  141.2099   75.0464  222.4727 H   0  0  0  0  0  0  0  0  0  0  0  0
  142.7608   76.5625  221.0481 H   0  0  0  0  0  0  0  0  0  0  0  0
  144.3350   75.9640  218.9180 H   0  0  0  0  0  0  0  0  0  0  0  0
  144.2880   77.4250  219.7290 H   0  0  0  0  0  0  0  0  0  0  0  0
  140.8324   76.0644  219.3846 H   0  0  0  0  0  0  0  0  0  0  0  0
  142.6389   77.6579  216.6188 H   0  0  0  0  0  0  0  0  0  0  0  0
  142.3012   79.9324  215.7297 H   0  0  0  0  0  0  0  0  0  0  0  0
  141.0243   81.6218  217.0728 H   0  0  0  0  0  0  0  0  0  0  0  0
  140.1169   80.9567  219.3214 H   0  0  0  0  0  0  0  0  0  0  0  0
  139.7262   77.6562  220.8169 H   0  0  0  0  0  0  0  0  0  0  0  0
  142.0913   80.2711  220.4451 H   0  0  0  0  0  0  0  0  0  0  0  0
  143.1159   81.3315  222.3894 H   0  0  0  0  0  0  0  0  0  0  0  0
  142.9234   80.3616  224.6609 H   0  0  0  0  0  0  0  0  0  0  0  0
  141.6182   78.2140  224.9257 H   0  0  0  0  0  0  0  0  0  0  0  0
  140.5937   77.1638  222.9654 H   0  0  0  0  0  0  0  0  0  0  0  0
  141.1246   72.3936  219.5030 H   0  0  0  0  0  0  0  0  0  0  0  0
  142.7589   72.3998  220.3510 H   0  0  0  0  0  0  0  0  0  0  0  0
  140.4389   71.0341  221.0580 H   0  0  0  0  0  0  0  0  0  0  0  0
  142.0313   71.2387  221.9523 H   0  0  0  0  0  0  0  0  0  0  0  0
  1  2  1  0
  2  3  1  0
  3  4  2  0
  3  5  1  0
  5  6  1  0
  6  7  2  0
  7  8  1  0
  8  9  2  0
  9 10  1  0
 10 11  2  0
  5 12  1  0
 12 13  1  0
 13 14  1  0
 14 15  1  0
 15 16  1  0
 16 17  2  0
 16 18  1  0
 18 19  1  0
 18 20  1  0
 20 21  1  0
 21 22  2  0
 22 23  1  0
 23 24  2  0
 24 25  1  0
 25 26  2  0
 26 27  1  0
 27 28  1  0
 28 29  2  0
 29 30  1  0
 30 31  2  0
 31 32  1  0
 32 33  2  0
 15 34  1  0
 34 35  1  0
 11  6  1  0
 35 12  1  0
 27 20  1  0
 33 28  1  0
 26 21  1  0
  1 36  1  0
  1 37  1  0
  1 38  1  0
  2 39  1  0
  2 40  1  0
  7 41  1  0
  8 42  1  0
  9 43  1  0
 10 44  1  0
 11 45  1  0
 12 46  1  0
 13 47  1  0
 13 48  1  0
 14 49  1  0
 14 50  1  0
 18 51  1  1
 19 52  1  0
 19 53  1  0
 20 54  1  6
 22 55  1  0
 23 56  1  0
 24 57  1  0
 25 58  1  0
 27 59  1  1
 29 60  1  0
 30 61  1  0
 31 62  1  0
 32 63  1  0
 33 64  1  0
 34 65  1  0
 34 66  1  0
 35 67  1  0
 35 68  1  0
M  END
>  <smiles>  (18) 
CCC(=O)N(c1ccccc1)C1CCN(C(=O)[C@@H](N)C2c3ccccc3C2c2ccccc2)CC1

>  <score_type>  (18) 
oracle

>  <origin>  (18) 
autodockgpu

>  <m_score__min__energy>  (18) 
-8.5999999999999996

>  <m_primary>  (18) 
energy

>  <rmsd>  (18) 
10.112154776458924

>  <m_score__min__rmsd>  (18) 
10.112154776458924

>  <meeko>  (18) 
{"free_energy": -8.6, "intermolecular_energy": -10.98, "internal_energy": -2.98, "cluster_size": 34, "cluster_id": 1, "rank_in_cluster": 1}

>  <energy>  (18) 
-8.55

>  <cluster_rmsd>  (18) 
0.76

>  <cluster>  (18) 
1

$$$$

     RDKit          3D

 68 72  0  0  0  0  0  0  0  0999 V2000
  138.7980   69.1840  220.7080 C   0  0  0  0  0  0  0  0  0  0  0  0
  138.8430   69.2150  222.2140 C   0  0  0  0  0  0  0  0  0  0  0  0
  138.7190   70.6320  222.6730 C   0  0  0  0  0  0  0  0  0  0  0  0
  137.6640   71.2380  222.3820 O   0  0  0  0  0  0  0  0  0  0  0  0
  139.7850   71.2420  223.4120 N   0  0  0  0  0  0  0  0  0  0  0  0
  139.9550   70.8840  224.7770 C   0  0  0  0  0  0  0  0  0  0  0  0
  140.7810   71.7120  225.5450 C   0  0  0  0  0  0  0  0  0  0  0  0
  141.0090   71.4390  226.8830 C   0  0  0  0  0  0  0  0  0  0  0  0
  140.3830   70.3250  227.3950 C   0  0  0  0  0  0  0  0  0  0  0  0
  139.5690   69.4940  226.6710 C   0  0  0  0  0  0  0  0  0  0  0  0
  139.3510   69.7760  225.3480 C   0  0  0  0  0  0  0  0  0  0  0  0
  140.6560   72.1940  222.7270 C   0  0  0  0  0  0  0  0  0  0  0  0
  139.8030   73.3890  222.3090 C   0  0  0  0  0  0  0  0  0  0  0  0
  140.7750   74.4450  221.8100 C   0  0  0  0  0  0  0  0  0  0  0  0
  141.5710   73.8720  220.7540 N   0  0  0  0  0  0  0  0  0  0  0  0
  142.4080   74.7120  219.9230 C   0  0  0  0  0  0  0  0  0  0  0  0
  143.0900   74.1930  218.9710 O   0  0  0  0  0  0  0  0  0  0  0  0
  142.5510   76.1720  220.0810 C   0  0  1  0  0  0  0  0  0  0  0  0
  143.7390   76.6150  219.3660 N   0  0  0  0  0  0  0  0  0  0  0  0
  141.3850   76.9260  219.5510 C   0  0  2  0  0  0  0  0  0  0  0  0
  141.7060   77.8450  218.4230 C   0  0  0  0  0  0  0  0  0  0  0  0
  142.2560   78.1250  217.1920 C   0  0  0  0  0  0  0  0  0  0  0  0
  142.1720   79.3770  216.6160 C   0  0  0  0  0  0  0  0  0  0  0  0
  141.5100   80.4040  217.2900 C   0  0  0  0  0  0  0  0  0  0  0  0
  140.9450   80.1350  218.5430 C   0  0  0  0  0  0  0  0  0  0  0  0
  141.0540   78.8540  219.0910 C   0  0  0  0  0  0  0  0  0  0  0  0
  140.7270   77.9940  220.2940 C   0  0  2  0  0  0  0  0  0  0  0  0
  141.3150   78.6340  221.4770 C   0  0  0  0  0  0  0  0  0  0  0  0
  141.1420   78.0500  222.7430 C   0  0  0  0  0  0  0  0  0  0  0  0
  141.6590   78.6320  223.8740 C   0  0  0  0  0  0  0  0  0  0  0  0
  142.3680   79.8090  223.8440 C   0  0  0  0  0  0  0  0  0  0  0  0
  142.5530   80.4100  222.5950 C   0  0  0  0  0  0  0  0  0  0  0  0
  142.0270   79.8120  221.4670 C   0  0  0  0  0  0  0  0  0  0  0  0
  141.6230   72.4650  220.4120 C   0  0  0  0  0  0  0  0  0  0  0  0
  141.2050   71.5300  221.4970 C   0  0  0  0  0  0  0  0  0  0  0  0
  137.9336   68.5885  220.3792 H   0  0  0  0  0  0  0  0  0  0  0  0
  138.7043   70.2101  220.3228 H   0  0  0  0  0  0  0  0  0  0  0  0
  139.7233   68.7308  220.3228 H   0  0  0  0  0  0  0  0  0  0  0  0
  138.0112   68.6210  222.6206 H   0  0  0  0  0  0  0  0  0  0  0  0
  139.7944   68.7907  222.5672 H   0  0  0  0  0  0  0  0  0  0  0  0
  141.2545   72.5896  225.0806 H   0  0  0  0  0  0  0  0  0  0  0  0
  141.6552   72.0775  227.5032 H   0  0  0  0  0  0  0  0  0  0  0  0
  140.5472   70.0861  228.4561 H   0  0  0  0  0  0  0  0  0  0  0  0
  139.0998   68.6179  227.1425 H   0  0  0  0  0  0  0  0  0  0  0  0
  138.7006   69.1268  224.7434 H   0  0  0  0  0  0  0  0  0  0  0  0
  141.4805   72.5188  223.3787 H   0  0  0  0  0  0  0  0  0  0  0  0
  139.1078   73.1002  221.5069 H   0  0  0  0  0  0  0  0  0  0  0  0
  139.1972   73.7637  223.1472 H   0  0  0  0  0  0  0  0  0  0  0  0
  140.2165   75.3111  221.4253 H   0  0  0  0  0  0  0  0  0  0  0  0
  141.4245   74.7781  222.6329 H   0  0  0  0  0  0  0  0  0  0  0  0
  142.6248   76.3730  221.1600 H   0  0  0  0  0  0  0  0  0  0  0  0
  144.3000   75.7950  219.0420 H   0  0  0  0  0  0  0  0  0  0  0  0
  144.3470   77.1300  220.0480 H   0  0  0  0  0  0  0  0  0  0  0  0
  140.7880   76.0098  219.4322 H   0  0  0  0  0  0  0  0  0  0  0  0
  142.7799   77.3243  216.6493 H   0  0  0  0  0  0  0  0  0  0  0  0
  142.6245   79.5639  215.6310 H   0  0  0  0  0  0  0  0  0  0  0  0
  141.4332   81.4071  216.8451 H   0  0  0  0  0  0  0  0  0  0  0  0
  140.4179   80.9283  219.0932 H   0  0  0  0  0  0  0  0  0  0  0  0
  139.7555   77.7472  220.7471 H   0  0  0  0  0  0  0  0  0  0  0  0
  140.5812   77.1077  222.8299 H   0  0  0  0  0  0  0  0  0  0  0  0
  141.4993   78.1364  224.8429 H   0  0  0  0  0  0  0  0  0  0  0  0
  142.7724   80.2588  224.7627 H   0  0  0  0  0  0  0  0  0  0  0  0
  143.1137   81.3527  222.5117 H   0  0  0  0  0  0  0  0  0  0  0  0
  142.1872   80.3087  220.4987 H   0  0  0  0  0  0  0  0  0  0  0  0
  140.9622   72.3005  219.5481 H   0  0  0  0  0  0  0  0  0  0  0  0
  142.6801   72.2403  220.2069 H   0  0  0  0  0  0  0  0  0  0  0  0
  140.4288   70.8632  221.0933 H   0  0  0  0  0  0  0  0  0  0  0  0
  142.1144   70.9981  221.8133 H   0  0  0  0  0  0  0  0  0  0  0  0
  1  2  1  0
  2  3  1  0
  3  4  2  0
  3  5  1  0
  5  6  1  0
  6  7  2  0
  7  8  1  0
  8  9  2  0
  9 10  1  0
 10 11  2  0
  5 12  1  0
 12 13  1  0
 13 14  1  0
 14 15  1  0
 15 16  1  0
 16 17  2  0
 16 18  1  0
 18 19  1  0
 18 20  1  0
 20 21  1  0
 21 22  2  0
 22 23  1  0
 23 24  2  0
 24 25  1  0
 25 26  2  0
 26 27  1  0
 27 28  1  0
 28 29  2  0
 29 30  1  0
 30 31  2  0
 31 32  1  0
 32 33  2  0
 15 34  1  0
 34 35  1  0
 11  6  1  0
 35 12  1  0
 27 20  1  0
 33 28  1  0
 26 21  1  0
  1 36  1  0
  1 37  1  0
  1 38  1  0
  2 39  1  0
  2 40  1  0
  7 41  1  0
  8 42  1  0
  9 43  1  0
 10 44  1  0
 11 45  1  0
 12 46  1  0
 13 47  1  0
 13 48  1  0
 14 49  1  0
 14 50  1  0
 18 51  1  1
 19 52  1  0
 19 53  1  0
 20 54  1  6
 22 55  1  0
 23 56  1  0
 24 57  1  0
 25 58  1  0
 27 59  1  1
 29 60  1  0
 30 61  1  0
 31 62  1  0
 32 63  1  0
 33 64  1  0
 34 65  1  0
 34 66  1  0
 35 67  1  0
 35 68  1  0
M  END
>  <smiles>  (19) 
CCC(=O)N(c1ccccc1)C1CCN(C(=O)[C@@H](N)C2c3ccccc3C2c2ccccc2)CC1

>  <score_type>  (19) 
oracle

>  <origin>  (19) 
autodockgpu

>  <m_score__min__energy>  (19) 
-8.5999999999999996

>  <m_primary>  (19) 
energy

>  <rmsd>  (19) 
10.07540774103661

>  <m_score__min__rmsd>  (19) 
10.07540774103661

>  <meeko>  (19) 
{"free_energy": -8.46, "intermolecular_energy": -10.84, "internal_energy": -2.98, "cluster_size": 34, "cluster_id": 1, "rank_in_cluster": 33}

>  <energy>  (19) 
-8.55

>  <cluster_rmsd>  (19) 
0.21

>  <cluster>  (19) 
1

$$$$

     RDKit          3D

 68 72  0  0  0  0  0  0  0  0999 V2000
  134.9010   84.8690  223.0090 C   0  0  0  0  0  0  0  0  0  0  0  0
  134.9980   83.3820  223.2360 C   0  0  0  0  0  0  0  0  0  0  0  0
  136.3270   83.0710  223.8430 C   0  0  0  0  0  0  0  0  0  0  0  0
  137.3120   83.7180  223.4250 O   0  0  0  0  0  0  0  0  0  0  0  0
  136.4340   82.0650  224.8580 N   0  0  0  0  0  0  0  0  0  0  0  0
  136.0810   82.4080  226.1920 C   0  0  0  0  0  0  0  0  0  0  0  0
  136.1960   81.3960  227.1520 C   0  0  0  0  0  0  0  0  0  0  0  0
  135.8680   81.6360  228.4750 C   0  0  0  0  0  0  0  0  0  0  0  0
  135.4340   82.9070  228.7770 C   0  0  0  0  0  0  0  0  0  0  0  0
  135.3100   83.9200  227.8620 C   0  0  0  0  0  0  0  0  0  0  0  0
  135.6370   83.6680  226.5550 C   0  0  0  0  0  0  0  0  0  0  0  0
  136.8890   80.7300  224.4760 C   0  0  0  0  0  0  0  0  0  0  0  0
  138.0840   80.8950  223.5410 C   0  0  0  0  0  0  0  0  0  0  0  0
  138.6640   79.5040  223.3490 C   0  0  0  0  0  0  0  0  0  0  0  0
  137.6230   78.6380  222.8540 N   0  0  0  0  0  0  0  0  0  0  0  0
  137.9410   77.3200  222.3460 C   0  0  0  0  0  0  0  0  0  0  0  0
  137.0090   76.5720  221.8840 O   0  0  0  0  0  0  0  0  0  0  0  0
  139.2960   76.7380  222.3110 C   0  0  1  0  0  0  0  0  0  0  0  0
  139.2260   75.3400  222.7070 N   0  0  0  0  0  0  0  0  0  0  0  0
  139.9170   76.8060  220.9620 C   0  0  2  0  0  0  0  0  0  0  0  0
  141.0550   75.8650  220.7600 C   0  0  0  0  0  0  0  0  0  0  0  0
  141.6290   74.6140  220.7980 C   0  0  0  0  0  0  0  0  0  0  0  0
  142.9280   74.3880  220.3860 C   0  0  0  0  0  0  0  0  0  0  0  0
  143.6970   75.4510  219.9110 C   0  0  0  0  0  0  0  0  0  0  0  0
  143.1270   76.7300  219.8660 C   0  0  0  0  0  0  0  0  0  0  0  0
  141.8090   76.9160  220.2940 C   0  0  0  0  0  0  0  0  0  0  0  0
  140.7150   77.9390  220.5110 C   0  0  2  0  0  0  0  0  0  0  0  0
  141.2370   78.9700  221.4180 C   0  0  0  0  0  0  0  0  0  0  0  0
  141.8000   78.5930  222.6480 C   0  0  0  0  0  0  0  0  0  0  0  0
  142.2780   79.5300  223.5310 C   0  0  0  0  0  0  0  0  0  0  0  0
  142.2360   80.8800  223.2740 C   0  0  0  0  0  0  0  0  0  0  0  0
  141.6790   81.2790  222.0550 C   0  0  0  0  0  0  0  0  0  0  0  0
  141.2030   80.3240  221.1790 C   0  0  0  0  0  0  0  0  0  0  0  0
  136.2130   78.9670  222.8030 C   0  0  0  0  0  0  0  0  0  0  0  0
  135.7760   80.0480  223.7340 C   0  0  0  0  0  0  0  0  0  0  0  0
  134.8672   85.3866  223.9791 H   0  0  0  0  0  0  0  0  0  0  0  0
  135.7787   85.2113  222.4412 H   0  0  0  0  0  0  0  0  0  0  0  0
  133.9862   85.0943  222.4412 H   0  0  0  0  0  0  0  0  0  0  0  0
  134.1965   83.0593  223.9168 H   0  0  0  0  0  0  0  0  0  0  0  0
  134.8922   82.8511  222.2784 H   0  0  0  0  0  0  0  0  0  0  0  0
  136.5509   80.3991  226.8517 H   0  0  0  0  0  0  0  0  0  0  0  0
  135.9497   80.8534  229.2437 H   0  0  0  0  0  0  0  0  0  0  0  0
  135.1691   83.1241  229.8223 H   0  0  0  0  0  0  0  0  0  0  0  0
  134.9554   84.9146  228.1702 H   0  0  0  0  0  0  0  0  0  0  0  0
  135.5472   84.4621  225.7991 H   0  0  0  0  0  0  0  0  0  0  0  0
  137.1707   80.1373  225.3588 H   0  0  0  0  0  0  0  0  0  0  0  0
  137.7588   81.3096  222.5754 H   0  0  0  0  0  0  0  0  0  0  0  0
  138.8295   81.5869  223.9599 H   0  0  0  0  0  0  0  0  0  0  0  0
  139.4899   79.5434  222.6236 H   0  0  0  0  0  0  0  0  0  0  0  0
  139.0492   79.1212  224.3056 H   0  0  0  0  0  0  0  0  0  0  0  0
  139.9167   77.3268  223.0024 H   0  0  0  0  0  0  0  0  0  0  0  0
  138.2340   75.0120  222.7210 H   0  0  0  0  0  0  0  0  0  0  0  0
  139.5660   75.2730  223.6970 H   0  0  0  0  0  0  0  0  0  0  0  0
  138.9449   76.6968  220.4589 H   0  0  0  0  0  0  0  0  0  0  0  0
  141.0335   73.7666  221.1687 H   0  0  0  0  0  0  0  0  0  0  0  0
  143.3541   73.3749  220.4322 H   0  0  0  0  0  0  0  0  0  0  0  0
  144.7325   75.2877  219.5777 H   0  0  0  0  0  0  0  0  0  0  0  0
  143.7135   77.5838  219.4957 H   0  0  0  0  0  0  0  0  0  0  0  0
  140.2320   78.6231  219.7978 H   0  0  0  0  0  0  0  0  0  0  0  0
  141.8593   77.5262  222.9094 H   0  0  0  0  0  0  0  0  0  0  0  0
  142.7118   79.1867  224.4818 H   0  0  0  0  0  0  0  0  0  0  0  0
  142.6236   81.6141  223.9957 H   0  0  0  0  0  0  0  0  0  0  0  0
  141.6205   82.3464  221.7958 H   0  0  0  0  0  0  0  0  0  0  0  0
  140.7686   80.6681  220.2288 H   0  0  0  0  0  0  0  0  0  0  0  0
  135.9753   79.2854  221.7773 H   0  0  0  0  0  0  0  0  0  0  0  0
  135.6775   78.0594  223.1183 H   0  0  0  0  0  0  0  0  0  0  0  0
  135.2399   80.8085  223.1473 H   0  0  0  0  0  0  0  0  0  0  0  0
  135.1476   79.5640  224.4962 H   0  0  0  0  0  0  0  0  0  0  0  0
  1  2  1  0
  2  3  1  0
  3  4  2  0
  3  5  1  0
  5  6  1  0
  6  7  2  0
  7  8  1  0
  8  9  2  0
  9 10  1  0
 10 11  2  0
  5 12  1  0
 12 13  1  0
 13 14  1  0
 14 15  1  0
 15 16  1  0
 16 17  2  0
 16 18  1  0
 18 19  1  0
 18 20  1  0
 20 21  1  0
 21 22  2  0
 22 23  1  0
 23 24  2  0
 24 25  1  0
 25 26  2  0
 26 27  1  0
 27 28  1  0
 28 29  2  0
 29 30  1  0
 30 31  2  0
 31 32  1  0
 32 33  2  0
 15 34  1  0
 34 35  1  0
 11  6  1  0
 35 12  1  0
 27 20  1  0
 33 28  1  0
 26 21  1  0
  1 36  1  0
  1 37  1  0
  1 38  1  0
  2 39  1  0
  2 40  1  0
  7 41  1  0
  8 42  1  0
  9 43  1  0
 10 44  1  0
 11 45  1  0
 12 46  1  0
 13 47  1  0
 13 48  1  0
 14 49  1  0
 14 50  1  0
 18 51  1  1
 19 52  1  0
 19 53  1  0
 20 54  1  6
 22 55  1  0
 23 56  1  0
 24 57  1  0
 25 58  1  0
 27 59  1  6
 29 60  1  0
 30 61  1  0
 31 62  1  0
 32 63  1  0
 33 64  1  0
 34 65  1  0
 34 66  1  0
 35 67  1  0
 35 68  1  0
M  END
>  <smiles>  (20) 
CCC(=O)N(c1ccccc1)C1CCN(C(=O)[C@@H](N)C2c3ccccc3C2c2ccccc2)CC1

>  <score_type>  (20) 
oracle

>  <origin>  (20) 
autodockgpu

>  <m_score__min__energy>  (20) 
-8.5999999999999996

>  <m_primary>  (20) 
energy

>  <rmsd>  (20) 
8.252713871580264

>  <m_score__min__rmsd>  (20) 
8.252713871580264

>  <meeko>  (20) 
{"free_energy": -8.07, "intermolecular_energy": -10.46, "internal_energy": -3.31, "cluster_size": 15, "cluster_id": 2, "rank_in_cluster": 10}

>  <energy>  (20) 
-8.54

>  <cluster_rmsd>  (20) 
0.19

>  <cluster>  (20) 
1

$$$$

     RDKit          3D

 68 72  0  0  0  0  0  0  0  0999 V2000
  136.4400   72.6530  222.7370 C   0  0  0  0  0  0  0  0  0  0  0  0
  137.1190   71.4710  223.3820 C   0  0  0  0  0  0  0  0  0  0  0  0
  138.4030   71.2030  222.6680 C   0  0  0  0  0  0  0  0  0  0  0  0
  138.3290   70.7100  221.5210 O   0  0  0  0  0  0  0  0  0  0  0  0
  139.6520   71.5100  223.3000 N   0  0  0  0  0  0  0  0  0  0  0  0
  139.9580   70.8820  224.5380 C   0  0  0  0  0  0  0  0  0  0  0  0
  139.4980   69.5710  224.7080 C   0  0  0  0  0  0  0  0  0  0  0  0
  139.7430   68.8820  225.8830 C   0  0  0  0  0  0  0  0  0  0  0  0
  140.4530   69.5570  226.8500 C   0  0  0  0  0  0  0  0  0  0  0  0
  140.9180   70.8390  226.7170 C   0  0  0  0  0  0  0  0  0  0  0  0
  140.6680   71.5100  225.5480 C   0  0  0  0  0  0  0  0  0  0  0  0
  140.5610   72.4440  222.6380 C   0  0  0  0  0  0  0  0  0  0  0  0
  139.7230   73.5880  222.0760 C   0  0  0  0  0  0  0  0  0  0  0  0
  140.7130   74.6400  221.6010 C   0  0  0  0  0  0  0  0  0  0  0  0
  141.6130   74.0280  220.6560 N   0  0  0  0  0  0  0  0  0  0  0  0
  142.5040   74.8410  219.8540 C   0  0  0  0  0  0  0  0  0  0  0  0
  143.2790   74.2850  219.0000 O   0  0  0  0  0  0  0  0  0  0  0  0
  142.6000   76.3100  219.9350 C   0  0  1  0  0  0  0  0  0  0  0  0
  143.7010   76.7640  219.0990 N   0  0  0  0  0  0  0  0  0  0  0  0
  141.3610   76.9950  219.4800 C   0  0  2  0  0  0  0  0  0  0  0  0
  141.5750   78.0040  218.4040 C   0  0  0  0  0  0  0  0  0  0  0  0
  142.0670   78.4020  217.1800 C   0  0  0  0  0  0  0  0  0  0  0  0
  141.8650   79.6750  216.6850 C   0  0  0  0  0  0  0  0  0  0  0  0
  141.1400   80.6010  217.4360 C   0  0  0  0  0  0  0  0  0  0  0  0
  140.6330   80.2110  218.6830 C   0  0  0  0  0  0  0  0  0  0  0  0
  140.8620   78.9130  219.1470 C   0  0  0  0  0  0  0  0  0  0  0  0
  140.6390   77.9580  220.3010 C   0  0  2  0  0  0  0  0  0  0  0  0
  141.2050   78.5730  221.5090 C   0  0  0  0  0  0  0  0  0  0  0  0
  141.9700   79.7460  221.3990 C   0  0  0  0  0  0  0  0  0  0  0  0
  142.5330   80.3370  222.5040 C   0  0  0  0  0  0  0  0  0  0  0  0
  142.3890   79.8260  223.7720 C   0  0  0  0  0  0  0  0  0  0  0  0
  141.6320   78.6570  223.9050 C   0  0  0  0  0  0  0  0  0  0  0  0
  141.0730   78.0760  222.7850 C   0  0  0  0  0  0  0  0  0  0  0  0
  141.7270   72.6050  220.4070 C   0  0  0  0  0  0  0  0  0  0  0  0
  141.2330   71.7240  221.5050 C   0  0  0  0  0  0  0  0  0  0  0  0
  136.0540   73.3250  223.5176 H   0  0  0  0  0  0  0  0  0  0  0  0
  137.1642   73.1955  222.1114 H   0  0  0  0  0  0  0  0  0  0  0  0
  135.6066   72.3007  222.1114 H   0  0  0  0  0  0  0  0  0  0  0  0
  137.3240   71.6944  224.4394 H   0  0  0  0  0  0  0  0  0  0  0  0
  136.4669   70.5872  223.3213 H   0  0  0  0  0  0  0  0  0  0  0  0
  138.9354   69.0828  223.8985 H   0  0  0  0  0  0  0  0  0  0  0  0
  139.3897   67.8515  226.0358 H   0  0  0  0  0  0  0  0  0  0  0  0
  140.6612   69.0315  227.7937 H   0  0  0  0  0  0  0  0  0  0  0  0
  141.4801   71.3197  227.5312 H   0  0  0  0  0  0  0  0  0  0  0  0
  141.0289   72.5403  225.4130 H   0  0  0  0  0  0  0  0  0  0  0  0
  141.3169   72.8290  223.3382 H   0  0  0  0  0  0  0  0  0  0  0  0
  139.1086   73.2342  221.2350 H   0  0  0  0  0  0  0  0  0  0  0  0
  139.0367   73.9941  222.8336 H   0  0  0  0  0  0  0  0  0  0  0  0
  140.1722   75.4664  221.1166 H   0  0  0  0  0  0  0  0  0  0  0  0
  141.2786   75.0385  222.4562 H   0  0  0  0  0  0  0  0  0  0  0  0
  142.7603   76.5631  220.9934 H   0  0  0  0  0  0  0  0  0  0  0  0
  144.3070   75.9590  218.8220 H   0  0  0  0  0  0  0  0  0  0  0  0
  144.3050   77.3920  219.6810 H   0  0  0  0  0  0  0  0  0  0  0  0
  140.8376   76.0409  219.3195 H   0  0  0  0  0  0  0  0  0  0  0  0
  142.6396   77.6817  216.5773 H   0  0  0  0  0  0  0  0  0  0  0  0
  142.2735   79.9578  215.7036 H   0  0  0  0  0  0  0  0  0  0  0  0
  140.9694   81.6191  217.0560 H   0  0  0  0  0  0  0  0  0  0  0  0
  140.0578   80.9229  219.2932 H   0  0  0  0  0  0  0  0  0  0  0  0
  139.7034   77.6046  220.7589 H   0  0  0  0  0  0  0  0  0  0  0  0
  142.1212   80.2002  220.4086 H   0  0  0  0  0  0  0  0  0  0  0  0
  143.1226   81.2558  222.3687 H   0  0  0  0  0  0  0  0  0  0  0  0
  142.8487   80.3147  224.6437 H   0  0  0  0  0  0  0  0  0  0  0  0
  141.4833   78.2038  224.8962 H   0  0  0  0  0  0  0  0  0  0  0  0
  140.4843   77.1568  222.9212 H   0  0  0  0  0  0  0  0  0  0  0  0
  141.1514   72.3717  219.4991 H   0  0  0  0  0  0  0  0  0  0  0  0
  142.8032   72.3981  220.3119 H   0  0  0  0  0  0  0  0  0  0  0  0
  140.5112   71.0140  221.0751 H   0  0  0  0  0  0  0  0  0  0  0  0
  142.1212   71.2359  221.9327 H   0  0  0  0  0  0  0  0  0  0  0  0
  1  2  1  0
  2  3  1  0
  3  4  2  0
  3  5  1  0
  5  6  1  0
  6  7  2  0
  7  8  1  0
  8  9  2  0
  9 10  1  0
 10 11  2  0
  5 12  1  0
 12 13  1  0
 13 14  1  0
 14 15  1  0
 15 16  1  0
 16 17  2  0
 16 18  1  0
 18 19  1  0
 18 20  1  0
 20 21  1  0
 21 22  2  0
 22 23  1  0
 23 24  2  0
 24 25  1  0
 25 26  2  0
 26 27  1  0
 27 28  1  0
 28 29  2  0
 29 30  1  0
 30 31  2  0
 31 32  1  0
 32 33  2  0
 15 34  1  0
 34 35  1  0
 11  6  1  0
 35 12  1  0
 27 20  1  0
 33 28  1  0
 26 21  1  0
  1 36  1  0
  1 37  1  0
  1 38  1  0
  2 39  1  0
  2 40  1  0
  7 41  1  0
  8 42  1  0
  9 43  1  0
 10 44  1  0
 11 45  1  0
 12 46  1  0
 13 47  1  0
 13 48  1  0
 14 49  1  0
 14 50  1  0
 18 51  1  1
 19 52  1  0
 19 53  1  0
 20 54  1  6
 22 55  1  0
 23 56  1  0
 24 57  1  0
 25 58  1  0
 27 59  1  1
 29 60  1  0
 30 61  1  0
 31 62  1  0
 32 63  1  0
 33 64  1  0
 34 65  1  0
 34 66  1  0
 35 67  1  0
 35 68  1  0
M  END
>  <smiles>  (21) 
CCC(=O)N(c1ccccc1)C1CCN(C(=O)[C@@H](N)C2c3ccccc3C2c2ccccc2)CC1

>  <score_type>  (21) 
oracle

>  <origin>  (21) 
autodockgpu

>  <m_score__min__energy>  (21) 
-8.5999999999999996

>  <m_primary>  (21) 
energy

>  <rmsd>  (21) 
10.124466079939408

>  <m_score__min__rmsd>  (21) 
10.124466079939408

>  <meeko>  (21) 
{"free_energy": -8.52, "intermolecular_energy": -10.91, "internal_energy": -3.01, "cluster_size": 34, "cluster_id": 1, "rank_in_cluster": 24}

>  <energy>  (21) 
-8.53

>  <cluster_rmsd>  (21) 
0.33

>  <cluster>  (21) 
1

$$$$

     RDKit          3D

 68 72  0  0  0  0  0  0  0  0999 V2000
  136.2180   72.7040  222.9440 C   0  0  0  0  0  0  0  0  0  0  0  0
  136.9840   71.5190  223.4770 C   0  0  0  0  0  0  0  0  0  0  0  0
  138.2410   71.3610  222.6860 C   0  0  0  0  0  0  0  0  0  0  0  0
  138.1250   71.0220  221.4880 O   0  0  0  0  0  0  0  0  0  0  0  0
  139.5120   71.5960  223.3060 N   0  0  0  0  0  0  0  0  0  0  0  0
  139.8110   70.9160  224.5190 C   0  0  0  0  0  0  0  0  0  0  0  0
  139.3870   69.5860  224.6140 C   0  0  0  0  0  0  0  0  0  0  0  0
  139.6280   68.8470  225.7590 C   0  0  0  0  0  0  0  0  0  0  0  0
  140.2990   69.4920  226.7730 C   0  0  0  0  0  0  0  0  0  0  0  0
  140.7280   70.7910  226.7120 C   0  0  0  0  0  0  0  0  0  0  0  0
  140.4820   71.5120  225.5730 C   0  0  0  0  0  0  0  0  0  0  0  0
  140.4480   72.5120  222.6590 C   0  0  0  0  0  0  0  0  0  0  0  0
  139.6380   73.6580  222.0590 C   0  0  0  0  0  0  0  0  0  0  0  0
  140.6510   74.6940  221.6000 C   0  0  0  0  0  0  0  0  0  0  0  0
  141.5710   74.0610  220.6880 N   0  0  0  0  0  0  0  0  0  0  0  0
  142.4910   74.8550  219.9010 C   0  0  0  0  0  0  0  0  0  0  0  0
  143.2850   74.2820  219.0750 O   0  0  0  0  0  0  0  0  0  0  0  0
  142.6000   76.3250  219.9670 C   0  0  1  0  0  0  0  0  0  0  0  0
  143.7030   76.7600  219.1230 N   0  0  0  0  0  0  0  0  0  0  0  0
  141.3660   77.0150  219.5080 C   0  0  2  0  0  0  0  0  0  0  0  0
  141.5750   77.9650  218.3790 C   0  0  0  0  0  0  0  0  0  0  0  0
  142.0440   78.2910  217.1250 C   0  0  0  0  0  0  0  0  0  0  0  0
  141.8590   79.5420  216.5730 C   0  0  0  0  0  0  0  0  0  0  0  0
  141.1740   80.5210  217.2940 C   0  0  0  0  0  0  0  0  0  0  0  0
  140.6910   80.2050  218.5710 C   0  0  0  0  0  0  0  0  0  0  0  0
  140.9020   78.9260  219.0940 C   0  0  0  0  0  0  0  0  0  0  0  0
  140.6870   78.0350  220.2980 C   0  0  2  0  0  0  0  0  0  0  0  0
  141.2970   78.6940  221.4600 C   0  0  0  0  0  0  0  0  0  0  0  0
  141.1250   78.1460  222.7410 C   0  0  0  0  0  0  0  0  0  0  0  0
  141.6620   78.7470  223.8530 C   0  0  0  0  0  0  0  0  0  0  0  0
  142.3930   79.9100  223.7870 C   0  0  0  0  0  0  0  0  0  0  0  0
  142.5760   80.4750  222.5200 C   0  0  0  0  0  0  0  0  0  0  0  0
  142.0300   79.8580  221.4130 C   0  0  0  0  0  0  0  0  0  0  0  0
  141.6770   72.6340  220.4590 C   0  0  0  0  0  0  0  0  0  0  0  0
  141.1440   71.7720  221.5540 C   0  0  0  0  0  0  0  0  0  0  0  0
  135.8328   73.2998  223.7846 H   0  0  0  0  0  0  0  0  0  0  0  0
  136.8855   73.3258  222.3293 H   0  0  0  0  0  0  0  0  0  0  0  0
  135.3770   72.3506  222.3293 H   0  0  0  0  0  0  0  0  0  0  0  0
  137.2322   71.6854  224.5356 H   0  0  0  0  0  0  0  0  0  0  0  0
  136.3717   70.6093  223.3901 H   0  0  0  0  0  0  0  0  0  0  0  0
  138.8562   69.1227  223.7693 H   0  0  0  0  0  0  0  0  0  0  0  0
  139.3011   67.8010  225.8536 H   0  0  0  0  0  0  0  0  0  0  0  0
  140.5043   68.9263  227.6938 H   0  0  0  0  0  0  0  0  0  0  0  0
  141.2595   71.2466  227.5605 H   0  0  0  0  0  0  0  0  0  0  0  0
  140.8155   72.5574  225.4967 H   0  0  0  0  0  0  0  0  0  0  0  0
  141.1875   72.8978  223.3761 H   0  0  0  0  0  0  0  0  0  0  0  0
  139.0443   73.2999  221.2050 H   0  0  0  0  0  0  0  0  0  0  0  0
  138.9348   74.0803  222.7919 H   0  0  0  0  0  0  0  0  0  0  0  0
  140.1326   75.5197  221.0907 H   0  0  0  0  0  0  0  0  0  0  0  0
  141.1962   75.0977  222.4659 H   0  0  0  0  0  0  0  0  0  0  0  0
  142.7652   76.5886  221.0221 H   0  0  0  0  0  0  0  0  0  0  0  0
  144.1950   75.9370  218.7090 H   0  0  0  0  0  0  0  0  0  0  0  0
  144.4050   77.2380  219.7380 H   0  0  0  0  0  0  0  0  0  0  0  0
  140.8177   76.0667  219.4069 H   0  0  0  0  0  0  0  0  0  0  0  0
  142.5840   77.5284  216.5446 H   0  0  0  0  0  0  0  0  0  0  0  0
  142.2495   79.7665  215.5695 H   0  0  0  0  0  0  0  0  0  0  0  0
  141.0160   81.5226  216.8677 H   0  0  0  0  0  0  0  0  0  0  0  0
  140.1484   80.9599  219.1590 H   0  0  0  0  0  0  0  0  0  0  0  0
  139.7554   77.7273  220.7954 H   0  0  0  0  0  0  0  0  0  0  0  0
  140.5484   77.2164  222.8564 H   0  0  0  0  0  0  0  0  0  0  0  0
  141.5010   78.2795  224.8356 H   0  0  0  0  0  0  0  0  0  0  0  0
  142.8150   80.3753  224.6900 H   0  0  0  0  0  0  0  0  0  0  0  0
  143.1517   81.4055  222.4071 H   0  0  0  0  0  0  0  0  0  0  0  0
  142.1908   80.3262  220.4307 H   0  0  0  0  0  0  0  0  0  0  0  0
  141.1239   72.3953  219.5386 H   0  0  0  0  0  0  0  0  0  0  0  0
  142.7531   72.4149  220.3953 H   0  0  0  0  0  0  0  0  0  0  0  0
  140.4274   71.0635  221.1130 H   0  0  0  0  0  0  0  0  0  0  0  0
  142.0154   71.2815  222.0123 H   0  0  0  0  0  0  0  0  0  0  0  0
  1  2  1  0
  2  3  1  0
  3  4  2  0
  3  5  1  0
  5  6  1  0
  6  7  2  0
  7  8  1  0
  8  9  2  0
  9 10  1  0
 10 11  2  0
  5 12  1  0
 12 13  1  0
 13 14  1  0
 14 15  1  0
 15 16  1  0
 16 17  2  0
 16 18  1  0
 18 19  1  0
 18 20  1  0
 20 21  1  0
 21 22  2  0
 22 23  1  0
 23 24  2  0
 24 25  1  0
 25 26  2  0
 26 27  1  0
 27 28  1  0
 28 29  2  0
 29 30  1  0
 30 31  2  0
 31 32  1  0
 32 33  2  0
 15 34  1  0
 34 35  1  0
 11  6  1  0
 35 12  1  0
 27 20  1  0
 33 28  1  0
 26 21  1  0
  1 36  1  0
  1 37  1  0
  1 38  1  0
  2 39  1  0
  2 40  1  0
  7 41  1  0
  8 42  1  0
  9 43  1  0
 10 44  1  0
 11 45  1  0
 12 46  1  0
 13 47  1  0
 13 48  1  0
 14 49  1  0
 14 50  1  0
 18 51  1  1
 19 52  1  0
 19 53  1  0
 20 54  1  6
 22 55  1  0
 23 56  1  0
 24 57  1  0
 25 58  1  0
 27 59  1  1
 29 60  1  0
 30 61  1  0
 31 62  1  0
 32 63  1  0
 33 64  1  0
 34 65  1  0
 34 66  1  0
 35 67  1  0
 35 68  1  0
M  END
>  <smiles>  (22) 
CCC(=O)N(c1ccccc1)C1CCN(C(=O)[C@@H](N)C2c3ccccc3C2c2ccccc2)CC1

>  <score_type>  (22) 
oracle

>  <origin>  (22) 
autodockgpu

>  <m_score__min__energy>  (22) 
-8.5999999999999996

>  <m_primary>  (22) 
energy

>  <rmsd>  (22) 
10.140330496970119

>  <m_score__min__rmsd>  (22) 
10.140330496970119

>  <meeko>  (22) 
{"free_energy": -8.51, "intermolecular_energy": -10.9, "internal_energy": -3.03, "cluster_size": 34, "cluster_id": 1, "rank_in_cluster": 30}

>  <energy>  (22) 
-8.53

>  <cluster_rmsd>  (22) 
0.29

>  <cluster>  (22) 
1

$$$$

     RDKit          3D

 68 72  0  0  0  0  0  0  0  0999 V2000
  136.4190   72.6520  222.6750 C   0  0  0  0  0  0  0  0  0  0  0  0
  137.0950   71.4840  223.3460 C   0  0  0  0  0  0  0  0  0  0  0  0
  138.3810   71.1980  222.6410 C   0  0  0  0  0  0  0  0  0  0  0  0
  138.3070   70.6900  221.5010 O   0  0  0  0  0  0  0  0  0  0  0  0
  139.6290   71.5060  223.2740 N   0  0  0  0  0  0  0  0  0  0  0  0
  139.9320   70.8800  224.5150 C   0  0  0  0  0  0  0  0  0  0  0  0
  139.4770   69.5680  224.6840 C   0  0  0  0  0  0  0  0  0  0  0  0
  139.7200   68.8810  225.8610 C   0  0  0  0  0  0  0  0  0  0  0  0
  140.4240   69.5600  226.8300 C   0  0  0  0  0  0  0  0  0  0  0  0
  140.8840   70.8440  226.6970 C   0  0  0  0  0  0  0  0  0  0  0  0
  140.6360   71.5120  225.5270 C   0  0  0  0  0  0  0  0  0  0  0  0
  140.5390   72.4370  222.6120 C   0  0  0  0  0  0  0  0  0  0  0  0
  139.7070   73.5980  222.0740 C   0  0  0  0  0  0  0  0  0  0  0  0
  140.7020   74.6440  221.5980 C   0  0  0  0  0  0  0  0  0  0  0  0
  141.5830   74.0330  220.6350 N   0  0  0  0  0  0  0  0  0  0  0  0
  142.4720   74.8460  219.8310 C   0  0  0  0  0  0  0  0  0  0  0  0
  143.2300   74.2920  218.9600 O   0  0  0  0  0  0  0  0  0  0  0  0
  142.5860   76.3130  219.9280 C   0  0  1  0  0  0  0  0  0  0  0  0
  143.7020   76.7610  219.1090 N   0  0  0  0  0  0  0  0  0  0  0  0
  141.3610   77.0180  219.4650 C   0  0  2  0  0  0  0  0  0  0  0  0
  141.5990   78.0290  218.3960 C   0  0  0  0  0  0  0  0  0  0  0  0
  142.1060   78.4260  217.1790 C   0  0  0  0  0  0  0  0  0  0  0  0
  141.9280   79.7040  216.6890 C   0  0  0  0  0  0  0  0  0  0  0  0
  141.2100   80.6370  217.4390 C   0  0  0  0  0  0  0  0  0  0  0  0
  140.6870   80.2480  218.6790 C   0  0  0  0  0  0  0  0  0  0  0  0
  140.8920   78.9440  219.1390 C   0  0  0  0  0  0  0  0  0  0  0  0
  140.6460   77.9880  220.2860 C   0  0  2  0  0  0  0  0  0  0  0  0
  141.2100   78.5880  221.5010 C   0  0  0  0  0  0  0  0  0  0  0  0
  141.9750   79.7620  221.4070 C   0  0  0  0  0  0  0  0  0  0  0  0
  142.5370   80.3400  222.5190 C   0  0  0  0  0  0  0  0  0  0  0  0
  142.3910   79.8140  223.7800 C   0  0  0  0  0  0  0  0  0  0  0  0
  141.6350   78.6430  223.8990 C   0  0  0  0  0  0  0  0  0  0  0  0
  141.0770   78.0760  222.7710 C   0  0  0  0  0  0  0  0  0  0  0  0
  141.6780   72.6120  220.3670 C   0  0  0  0  0  0  0  0  0  0  0  0
  141.1880   71.7240  221.4620 C   0  0  0  0  0  0  0  0  0  0  0  0
  136.0233   73.3358  223.4404 H   0  0  0  0  0  0  0  0  0  0  0  0
  137.1475   73.1862  222.0474 H   0  0  0  0  0  0  0  0  0  0  0  0
  135.5928   72.2865  222.0474 H   0  0  0  0  0  0  0  0  0  0  0  0
  137.2979   71.7299  224.3988 H   0  0  0  0  0  0  0  0  0  0  0  0
  136.4417   70.6001  223.3022 H   0  0  0  0  0  0  0  0  0  0  0  0
  138.9199   69.0768  223.8726 H   0  0  0  0  0  0  0  0  0  0  0  0
  139.3699   67.8494  226.0137 H   0  0  0  0  0  0  0  0  0  0  0  0
  140.6312   69.0364  227.7749 H   0  0  0  0  0  0  0  0  0  0  0  0
  141.4408   71.3282  227.5128 H   0  0  0  0  0  0  0  0  0  0  0  0
  140.9935   72.5435  225.3919 H   0  0  0  0  0  0  0  0  0  0  0  0
  141.3078   72.8047  223.3075 H   0  0  0  0  0  0  0  0  0  0  0  0
  139.0775   73.2611  221.2372 H   0  0  0  0  0  0  0  0  0  0  0  0
  139.0359   74.0032  222.8456 H   0  0  0  0  0  0  0  0  0  0  0  0
  140.1642   75.4816  221.1297 H   0  0  0  0  0  0  0  0  0  0  0  0
  141.2828   75.0267  222.4502 H   0  0  0  0  0  0  0  0  0  0  0  0
  142.7374   76.5537  220.9906 H   0  0  0  0  0  0  0  0  0  0  0  0
  144.2510   75.9440  218.7590 H   0  0  0  0  0  0  0  0  0  0  0  0
  144.3530   77.3020  219.7270 H   0  0  0  0  0  0  0  0  0  0  0  0
  140.8250   76.0727  219.2942 H   0  0  0  0  0  0  0  0  0  0  0  0
  142.6721   77.7001  216.5768 H   0  0  0  0  0  0  0  0  0  0  0  0
  142.3496   79.9857  215.7128 H   0  0  0  0  0  0  0  0  0  0  0  0
  141.0576   81.6595  217.0630 H   0  0  0  0  0  0  0  0  0  0  0  0
  140.1175   80.9655  219.2880 H   0  0  0  0  0  0  0  0  0  0  0  0
  139.7017   77.6463  220.7350 H   0  0  0  0  0  0  0  0  0  0  0  0
  142.1272   80.2283  220.4224 H   0  0  0  0  0  0  0  0  0  0  0  0
  143.1271   81.2600  222.3953 H   0  0  0  0  0  0  0  0  0  0  0  0
  142.8488   80.2930  224.6580 H   0  0  0  0  0  0  0  0  0  0  0  0
  141.4863   78.1774  224.8844 H   0  0  0  0  0  0  0  0  0  0  0  0
  140.4880   77.1554  222.8955 H   0  0  0  0  0  0  0  0  0  0  0  0
  141.0880   72.3959  219.4641 H   0  0  0  0  0  0  0  0  0  0  0  0
  142.7503   72.3939  220.2543 H   0  0  0  0  0  0  0  0  0  0  0  0
  140.4527   71.0271  221.0334 H   0  0  0  0  0  0  0  0  0  0  0  0
  142.0765   71.2220  221.8725 H   0  0  0  0  0  0  0  0  0  0  0  0
  1  2  1  0
  2  3  1  0
  3  4  2  0
  3  5  1  0
  5  6  1  0
  6  7  2  0
  7  8  1  0
  8  9  2  0
  9 10  1  0
 10 11  2  0
  5 12  1  0
 12 13  1  0
 13 14  1  0
 14 15  1  0
 15 16  1  0
 16 17  2  0
 16 18  1  0
 18 19  1  0
 18 20  1  0
 20 21  1  0
 21 22  2  0
 22 23  1  0
 23 24  2  0
 24 25  1  0
 25 26  2  0
 26 27  1  0
 27 28  1  0
 28 29  2  0
 29 30  1  0
 30 31  2  0
 31 32  1  0
 32 33  2  0
 15 34  1  0
 34 35  1  0
 11  6  1  0
 35 12  1  0
 27 20  1  0
 33 28  1  0
 26 21  1  0
  1 36  1  0
  1 37  1  0
  1 38  1  0
  2 39  1  0
  2 40  1  0
  7 41  1  0
  8 42  1  0
  9 43  1  0
 10 44  1  0
 11 45  1  0
 12 46  1  0
 13 47  1  0
 13 48  1  0
 14 49  1  0
 14 50  1  0
 18 51  1  1
 19 52  1  0
 19 53  1  0
 20 54  1  6
 22 55  1  0
 23 56  1  0
 24 57  1  0
 25 58  1  0
 27 59  1  1
 29 60  1  0
 30 61  1  0
 31 62  1  0
 32 63  1  0
 33 64  1  0
 34 65  1  0
 34 66  1  0
 35 67  1  0
 35 68  1  0
M  END
>  <smiles>  (23) 
CCC(=O)N(c1ccccc1)C1CCN(C(=O)[C@@H](N)C2c3ccccc3C2c2ccccc2)CC1

>  <score_type>  (23) 
oracle

>  <origin>  (23) 
autodockgpu

>  <m_score__min__energy>  (23) 
-8.5999999999999996

>  <m_primary>  (23) 
energy

>  <rmsd>  (23) 
10.14345096690049

>  <m_score__min__rmsd>  (23) 
10.14345096690049

>  <meeko>  (23) 
{"free_energy": -8.52, "intermolecular_energy": -10.9, "internal_energy": -3.02, "cluster_size": 34, "cluster_id": 1, "rank_in_cluster": 25}

>  <energy>  (23) 
-8.52

>  <cluster_rmsd>  (23) 
0.25

>  <cluster>  (23) 
1

$$$$

     RDKit          3D

 68 72  0  0  0  0  0  0  0  0999 V2000
  136.5810   70.7800  223.8430 C   0  0  0  0  0  0  0  0  0  0  0  0
  137.2970   71.5220  222.7440 C   0  0  0  0  0  0  0  0  0  0  0  0
  138.6440   70.9080  222.5430 C   0  0  0  0  0  0  0  0  0  0  0  0
  138.7210   69.9440  221.7510 O   0  0  0  0  0  0  0  0  0  0  0  0
  139.7800   71.4260  223.2470 N   0  0  0  0  0  0  0  0  0  0  0  0
  140.0090   70.9880  224.5810 C   0  0  0  0  0  0  0  0  0  0  0  0
  140.7300   71.8540  225.4110 C   0  0  0  0  0  0  0  0  0  0  0  0
  141.0060   71.5090  226.7230 C   0  0  0  0  0  0  0  0  0  0  0  0
  140.5340   70.2870  227.1460 C   0  0  0  0  0  0  0  0  0  0  0  0
  139.8250   69.4170  226.3600 C   0  0  0  0  0  0  0  0  0  0  0  0
  139.5600   69.7700  225.0630 C   0  0  0  0  0  0  0  0  0  0  0  0
  140.6580   72.3700  222.5600 C   0  0  0  0  0  0  0  0  0  0  0  0
  139.8040   73.5460  222.0940 C   0  0  0  0  0  0  0  0  0  0  0  0
  140.7770   74.6000  221.5920 C   0  0  0  0  0  0  0  0  0  0  0  0
  141.6040   74.0100  220.5700 N   0  0  0  0  0  0  0  0  0  0  0  0
  142.4530   74.8390  219.7390 C   0  0  0  0  0  0  0  0  0  0  0  0
  143.1620   74.3040  218.8170 O   0  0  0  0  0  0  0  0  0  0  0  0
  142.5770   76.3030  219.8650 C   0  0  1  0  0  0  0  0  0  0  0  0
  143.7060   76.7570  219.0670 N   0  0  0  0  0  0  0  0  0  0  0  0
  141.3640   77.0270  219.4030 C   0  0  2  0  0  0  0  0  0  0  0  0
  141.6170   78.0370  218.3360 C   0  0  0  0  0  0  0  0  0  0  0  0
  142.1320   78.4280  217.1210 C   0  0  0  0  0  0  0  0  0  0  0  0
  141.9720   79.7100  216.6330 C   0  0  0  0  0  0  0  0  0  0  0  0
  141.2670   80.6520  217.3840 C   0  0  0  0  0  0  0  0  0  0  0  0
  140.7370   80.2680  218.6230 C   0  0  0  0  0  0  0  0  0  0  0  0
  140.9230   78.9610  219.0800 C   0  0  0  0  0  0  0  0  0  0  0  0
  140.6620   78.0050  220.2250 C   0  0  2  0  0  0  0  0  0  0  0  0
  141.2330   78.5940  221.4420 C   0  0  0  0  0  0  0  0  0  0  0  0
  142.0160   79.7570  221.3510 C   0  0  0  0  0  0  0  0  0  0  0  0
  142.5840   80.3240  222.4650 C   0  0  0  0  0  0  0  0  0  0  0  0
  142.4300   79.7980  223.7250 C   0  0  0  0  0  0  0  0  0  0  0  0
  141.6560   78.6390  223.8400 C   0  0  0  0  0  0  0  0  0  0  0  0
  141.0910   78.0820  222.7110 C   0  0  0  0  0  0  0  0  0  0  0  0
  141.6780   72.5960  220.2640 C   0  0  0  0  0  0  0  0  0  0  0  0
  141.2430   71.6830  221.3610 C   0  0  0  0  0  0  0  0  0  0  0  0
  136.9320   71.1437  224.8200 H   0  0  0  0  0  0  0  0  0  0  0  0
  135.4979   70.9510  223.7556 H   0  0  0  0  0  0  0  0  0  0  0  0
  136.7905   69.7037  223.7556 H   0  0  0  0  0  0  0  0  0  0  0  0
  136.7165   71.4519  221.8123 H   0  0  0  0  0  0  0  0  0  0  0  0
  137.4078   72.5810  223.0203 H   0  0  0  0  0  0  0  0  0  0  0  0
  141.0811   72.8190  225.0167 H   0  0  0  0  0  0  0  0  0  0  0  0
  141.5717   72.1751  227.3911 H   0  0  0  0  0  0  0  0  0  0  0  0
  140.7398   69.9890  228.1847 H   0  0  0  0  0  0  0  0  0  0  0  0
  139.4756   68.4546  226.7622 H   0  0  0  0  0  0  0  0  0  0  0  0
  138.9942   69.0903  224.4088 H   0  0  0  0  0  0  0  0  0  0  0  0
  141.4637   72.7186  223.2228 H   0  0  0  0  0  0  0  0  0  0  0  0
  139.1304   73.2312  221.2834 H   0  0  0  0  0  0  0  0  0  0  0  0
  139.1757   73.9345  222.9090 H   0  0  0  0  0  0  0  0  0  0  0  0
  140.2190   75.4502  221.1727 H   0  0  0  0  0  0  0  0  0  0  0  0
  141.4030   74.9603  222.4216 H   0  0  0  0  0  0  0  0  0  0  0  0
  142.7177   76.5221  220.9337 H   0  0  0  0  0  0  0  0  0  0  0  0
  144.2200   75.9420  218.6620 H   0  0  0  0  0  0  0  0  0  0  0  0
  144.3820   77.2330  219.7120 H   0  0  0  0  0  0  0  0  0  0  0  0
  140.8151   76.0896  219.2299 H   0  0  0  0  0  0  0  0  0  0  0  0
  142.6893   77.6953  216.5189 H   0  0  0  0  0  0  0  0  0  0  0  0
  142.3979   79.9873  215.6575 H   0  0  0  0  0  0  0  0  0  0  0  0
  141.1300   81.6773  217.0099 H   0  0  0  0  0  0  0  0  0  0  0  0
  140.1771   80.9922  219.2329 H   0  0  0  0  0  0  0  0  0  0  0  0
  139.7124   77.6756  220.6719 H   0  0  0  0  0  0  0  0  0  0  0  0
  142.1772   80.2226  220.3675 H   0  0  0  0  0  0  0  0  0  0  0  0
  143.1867   81.2362  222.3439 H   0  0  0  0  0  0  0  0  0  0  0  0
  142.8949   80.2678  224.6043 H   0  0  0  0  0  0  0  0  0  0  0  0
  141.4985   78.1742  224.8244 H   0  0  0  0  0  0  0  0  0  0  0  0
  140.4883   77.1700  222.8335 H   0  0  0  0  0  0  0  0  0  0  0  0
  141.0400   72.4038  219.3888 H   0  0  0  0  0  0  0  0  0  0  0  0
  142.7420   72.3775  220.0901 H   0  0  0  0  0  0  0  0  0  0  0  0
  140.4836   70.9985  220.9550 H   0  0  0  0  0  0  0  0  0  0  0  0
  142.1497   71.1685  221.7120 H   0  0  0  0  0  0  0  0  0  0  0  0
  1  2  1  0
  2  3  1  0
  3  4  2  0
  3  5  1  0
  5  6  1  0
  6  7  2  0
  7  8  1  0
  8  9  2  0
  9 10  1  0
 10 11  2  0
  5 12  1  0
 12 13  1  0
 13 14  1  0
 14 15  1  0
 15 16  1  0
 16 17  2  0
 16 18  1  0
 18 19  1  0
 18 20  1  0
 20 21  1  0
 21 22  2  0
 22 23  1  0
 23 24  2  0
 24 25  1  0
 25 26  2  0
 26 27  1  0
 27 28  1  0
 28 29  2  0
 29 30  1  0
 30 31  2  0
 31 32  1  0
 32 33  2  0
 15 34  1  0
 34 35  1  0
 11  6  1  0
 35 12  1  0
 27 20  1  0
 33 28  1  0
 26 21  1  0
  1 36  1  0
  1 37  1  0
  1 38  1  0
  2 39  1  0
  2 40  1  0
  7 41  1  0
  8 42  1  0
  9 43  1  0
 10 44  1  0
 11 45  1  0
 12 46  1  0
 13 47  1  0
 13 48  1  0
 14 49  1  0
 14 50  1  0
 18 51  1  1
 19 52  1  0
 19 53  1  0
 20 54  1  6
 22 55  1  0
 23 56  1  0
 24 57  1  0
 25 58  1  0
 27 59  1  1
 29 60  1  0
 30 61  1  0
 31 62  1  0
 32 63  1  0
 33 64  1  0
 34 65  1  0
 34 66  1  0
 35 67  1  0
 35 68  1  0
M  END
>  <smiles>  (24) 
CCC(=O)N(c1ccccc1)C1CCN(C(=O)[C@@H](N)C2c3ccccc3C2c2ccccc2)CC1

>  <score_type>  (24) 
oracle

>  <origin>  (24) 
autodockgpu

>  <m_score__min__energy>  (24) 
-8.5999999999999996

>  <m_primary>  (24) 
energy

>  <rmsd>  (24) 
10.183411506372362

>  <m_score__min__rmsd>  (24) 
10.183411506372362

>  <meeko>  (24) 
{"free_energy": -8.58, "intermolecular_energy": -10.96, "internal_energy": -3.01, "cluster_size": 34, "cluster_id": 1, "rank_in_cluster": 8}

>  <energy>  (24) 
-8.52

>  <cluster_rmsd>  (24) 
0.23

>  <cluster>  (24) 
1

$$$$

     RDKit          3D

 68 72  0  0  0  0  0  0  0  0999 V2000
  136.5220   70.4740  223.8650 C   0  0  0  0  0  0  0  0  0  0  0  0
  137.2140   71.5250  223.0350 C   0  0  0  0  0  0  0  0  0  0  0  0
  138.5510   71.0080  222.6160 C   0  0  0  0  0  0  0  0  0  0  0  0
  138.5780   70.1980  221.6640 O   0  0  0  0  0  0  0  0  0  0  0  0
  139.7340   71.4410  223.2990 N   0  0  0  0  0  0  0  0  0  0  0  0
  139.9950   70.9240  224.5980 C   0  0  0  0  0  0  0  0  0  0  0  0
  140.6900   71.7600  225.4780 C   0  0  0  0  0  0  0  0  0  0  0  0
  140.9940   71.3390  226.7620 C   0  0  0  0  0  0  0  0  0  0  0  0
  140.5750   70.0740  227.1050 C   0  0  0  0  0  0  0  0  0  0  0  0
  139.8920   69.2310  226.2680 C   0  0  0  0  0  0  0  0  0  0  0  0
  139.5990   69.6600  225.0000 C   0  0  0  0  0  0  0  0  0  0  0  0
  140.6250   72.3850  222.6270 C   0  0  0  0  0  0  0  0  0  0  0  0
  139.7730   73.5410  222.1090 C   0  0  0  0  0  0  0  0  0  0  0  0
  140.7500   74.5980  221.6230 C   0  0  0  0  0  0  0  0  0  0  0  0
  141.6210   74.0010  220.6420 N   0  0  0  0  0  0  0  0  0  0  0  0
  142.4890   74.8260  219.8270 C   0  0  0  0  0  0  0  0  0  0  0  0
  143.2380   74.2840  218.9410 O   0  0  0  0  0  0  0  0  0  0  0  0
  142.5910   76.2930  219.9310 C   0  0  1  0  0  0  0  0  0  0  0  0
  143.7060   76.7530  219.1170 N   0  0  0  0  0  0  0  0  0  0  0  0
  141.3620   76.9910  219.4680 C   0  0  2  0  0  0  0  0  0  0  0  0
  141.5850   77.9610  218.3590 C   0  0  0  0  0  0  0  0  0  0  0  0
  142.0700   78.3090  217.1180 C   0  0  0  0  0  0  0  0  0  0  0  0
  141.8900   79.5700  216.5850 C   0  0  0  0  0  0  0  0  0  0  0  0
  141.1940   80.5350  217.3140 C   0  0  0  0  0  0  0  0  0  0  0  0
  140.6950   80.1960  218.5790 C   0  0  0  0  0  0  0  0  0  0  0  0
  140.9000   78.9080  219.0810 C   0  0  0  0  0  0  0  0  0  0  0  0
  140.6710   77.9950  220.2670 C   0  0  2  0  0  0  0  0  0  0  0  0
  141.2650   78.6350  221.4480 C   0  0  0  0  0  0  0  0  0  0  0  0
  141.0840   78.0590  222.7160 C   0  0  0  0  0  0  0  0  0  0  0  0
  141.6060   78.6400  223.8460 C   0  0  0  0  0  0  0  0  0  0  0  0
  142.3280   79.8090  223.8110 C   0  0  0  0  0  0  0  0  0  0  0  0
  142.5200   80.4020  222.5580 C   0  0  0  0  0  0  0  0  0  0  0  0
  141.9890   79.8050  221.4330 C   0  0  0  0  0  0  0  0  0  0  0  0
  141.7240   72.5820  220.3650 C   0  0  0  0  0  0  0  0  0  0  0  0
  141.2610   71.6840  221.4620 C   0  0  0  0  0  0  0  0  0  0  0  0
  136.6677   70.6953  224.9326 H   0  0  0  0  0  0  0  0  0  0  0  0
  135.4465   70.4738  223.6340 H   0  0  0  0  0  0  0  0  0  0  0  0
  136.9468   69.4860  223.6340 H   0  0  0  0  0  0  0  0  0  0  0  0
  136.6091   71.7492  222.1441 H   0  0  0  0  0  0  0  0  0  0  0  0
  137.3386   72.4442  223.6262 H   0  0  0  0  0  0  0  0  0  0  0  0
  140.9985   72.7626  225.1468 H   0  0  0  0  0  0  0  0  0  0  0  0
  141.5405   71.9807  227.4688 H   0  0  0  0  0  0  0  0  0  0  0  0
  140.8037   69.7153  228.1194 H   0  0  0  0  0  0  0  0  0  0  0  0
  139.5852   68.2305  226.6070 H   0  0  0  0  0  0  0  0  0  0  0  0
  139.0527   69.0042  224.3061 H   0  0  0  0  0  0  0  0  0  0  0  0
  141.4018   72.7563  223.3116 H   0  0  0  0  0  0  0  0  0  0  0  0
  139.1331   73.2027  221.2807 H   0  0  0  0  0  0  0  0  0  0  0  0
  139.1105   73.9357  222.8935 H   0  0  0  0  0  0  0  0  0  0  0  0
  140.1969   75.4332  221.1685 H   0  0  0  0  0  0  0  0  0  0  0  0
  141.3413   74.9809  222.4679 H   0  0  0  0  0  0  0  0  0  0  0  0
  142.7372   76.5301  220.9952 H   0  0  0  0  0  0  0  0  0  0  0  0
  144.3060   75.9480  218.8290 H   0  0  0  0  0  0  0  0  0  0  0  0
  144.3100   77.3630  219.7190 H   0  0  0  0  0  0  0  0  0  0  0  0
  140.8162   76.0442  219.3426 H   0  0  0  0  0  0  0  0  0  0  0  0
  142.6191   77.5574  216.5318 H   0  0  0  0  0  0  0  0  0  0  0  0
  142.2932   79.8126  215.5908 H   0  0  0  0  0  0  0  0  0  0  0  0
  141.0398   81.5437  216.9032 H   0  0  0  0  0  0  0  0  0  0  0  0
  140.1448   80.9400  219.1737 H   0  0  0  0  0  0  0  0  0  0  0  0
  139.7338   77.6767  220.7470 H   0  0  0  0  0  0  0  0  0  0  0  0
  140.5125   77.1234  222.8061 H   0  0  0  0  0  0  0  0  0  0  0  0
  141.4397   78.1505  224.8169 H   0  0  0  0  0  0  0  0  0  0  0  0
  142.7370   80.2588  224.7277 H   0  0  0  0  0  0  0  0  0  0  0  0
  143.0907   81.3383  222.4705 H   0  0  0  0  0  0  0  0  0  0  0  0
  142.1550   80.2956  220.4625 H   0  0  0  0  0  0  0  0  0  0  0  0
  141.1208   72.3655  219.4710 H   0  0  0  0  0  0  0  0  0  0  0  0
  142.7962   72.3744  220.2337 H   0  0  0  0  0  0  0  0  0  0  0  0
  140.5249   70.9829  221.0418 H   0  0  0  0  0  0  0  0  0  0  0  0
  142.1607   71.1876  221.8546 H   0  0  0  0  0  0  0  0  0  0  0  0
  1  2  1  0
  2  3  1  0
  3  4  2  0
  3  5  1  0
  5  6  1  0
  6  7  2  0
  7  8  1  0
  8  9  2  0
  9 10  1  0
 10 11  2  0
  5 12  1  0
 12 13  1  0
 13 14  1  0
 14 15  1  0
 15 16  1  0
 16 17  2  0
 16 18  1  0
 18 19  1  0
 18 20  1  0
 20 21  1  0
 21 22  2  0
 22 23  1  0
 23 24  2  0
 24 25  1  0
 25 26  2  0
 26 27  1  0
 27 28  1  0
 28 29  2  0
 29 30  1  0
 30 31  2  0
 31 32  1  0
 32 33  2  0
 15 34  1  0
 34 35  1  0
 11  6  1  0
 35 12  1  0
 27 20  1  0
 33 28  1  0
 26 21  1  0
  1 36  1  0
  1 37  1  0
  1 38  1  0
  2 39  1  0
  2 40  1  0
  7 41  1  0
  8 42  1  0
  9 43  1  0
 10 44  1  0
 11 45  1  0
 12 46  1  0
 13 47  1  0
 13 48  1  0
 14 49  1  0
 14 50  1  0
 18 51  1  1
 19 52  1  0
 19 53  1  0
 20 54  1  6
 22 55  1  0
 23 56  1  0
 24 57  1  0
 25 58  1  0
 27 59  1  1
 29 60  1  0
 30 61  1  0
 31 62  1  0
 32 63  1  0
 33 64  1  0
 34 65  1  0
 34 66  1  0
 35 67  1  0
 35 68  1  0
M  END
>  <smiles>  (25) 
CCC(=O)N(c1ccccc1)C1CCN(C(=O)[C@@H](N)C2c3ccccc3C2c2ccccc2)CC1

>  <score_type>  (25) 
oracle

>  <origin>  (25) 
autodockgpu

>  <m_score__min__energy>  (25) 
-8.5999999999999996

>  <m_primary>  (25) 
energy

>  <rmsd>  (25) 
10.143069373068197

>  <m_score__min__rmsd>  (25) 
10.143069373068197

>  <meeko>  (25) 
{"free_energy": -8.58, "intermolecular_energy": -10.97, "internal_energy": -3.05, "cluster_size": 34, "cluster_id": 1, "rank_in_cluster": 2}

>  <energy>  (25) 
-8.52

>  <cluster_rmsd>  (25) 
0.23

>  <cluster>  (25) 
1

$$$$

     RDKit          3D

 68 72  0  0  0  0  0  0  0  0999 V2000
  134.1380   83.0890  223.3200 C   0  0  0  0  0  0  0  0  0  0  0  0
  135.5210   82.9760  222.7310 C   0  0  0  0  0  0  0  0  0  0  0  0
  136.5250   83.0760  223.8330 C   0  0  0  0  0  0  0  0  0  0  0  0
  137.3010   84.0570  223.8130 O   0  0  0  0  0  0  0  0  0  0  0  0
  136.5720   82.0710  224.8540 N   0  0  0  0  0  0  0  0  0  0  0  0
  136.1650   82.4220  226.1700 C   0  0  0  0  0  0  0  0  0  0  0  0
  136.1880   81.4020  227.1270 C   0  0  0  0  0  0  0  0  0  0  0  0
  135.8030   81.6500  228.4340 C   0  0  0  0  0  0  0  0  0  0  0  0
  135.4080   82.9360  228.7210 C   0  0  0  0  0  0  0  0  0  0  0  0
  135.3740   83.9580  227.8080 C   0  0  0  0  0  0  0  0  0  0  0  0
  135.7570   83.6990  226.5180 C   0  0  0  0  0  0  0  0  0  0  0  0
  137.0230   80.7280  224.4940 C   0  0  0  0  0  0  0  0  0  0  0  0
  138.1580   80.8740  223.4840 C   0  0  0  0  0  0  0  0  0  0  0  0
  138.7460   79.4830  223.3090 C   0  0  0  0  0  0  0  0  0  0  0  0
  137.6910   78.5860  222.9090 N   0  0  0  0  0  0  0  0  0  0  0  0
  137.9970   77.2540  222.4320 C   0  0  0  0  0  0  0  0  0  0  0  0
  137.0510   76.4770  222.0550 O   0  0  0  0  0  0  0  0  0  0  0  0
  139.3560   76.6890  222.3370 C   0  0  1  0  0  0  0  0  0  0  0  0
  139.3160   75.2830  222.7100 N   0  0  0  0  0  0  0  0  0  0  0  0
  139.9270   76.7880  220.9680 C   0  0  2  0  0  0  0  0  0  0  0  0
  141.0520   75.8470  220.7000 C   0  0  0  0  0  0  0  0  0  0  0  0
  141.6200   74.5930  220.6850 C   0  0  0  0  0  0  0  0  0  0  0  0
  142.9000   74.3710  220.2190 C   0  0  0  0  0  0  0  0  0  0  0  0
  143.6570   75.4420  219.7430 C   0  0  0  0  0  0  0  0  0  0  0  0
  143.0930   76.7240  219.7520 C   0  0  0  0  0  0  0  0  0  0  0  0
  141.7940   76.9050  220.2330 C   0  0  0  0  0  0  0  0  0  0  0  0
  140.7150   77.9290  220.5170 C   0  0  2  0  0  0  0  0  0  0  0  0
  141.2760   78.9320  221.4300 C   0  0  0  0  0  0  0  0  0  0  0  0
  141.8090   78.5290  222.6650 C   0  0  0  0  0  0  0  0  0  0  0  0
  142.3220   79.4420  223.5530 C   0  0  0  0  0  0  0  0  0  0  0  0
  142.3470   80.7920  223.2970 C   0  0  0  0  0  0  0  0  0  0  0  0
  141.8210   81.2180  222.0730 C   0  0  0  0  0  0  0  0  0  0  0  0
  141.3090   80.2870  221.1910 C   0  0  0  0  0  0  0  0  0  0  0  0
  136.2750   78.8950  222.9310 C   0  0  0  0  0  0  0  0  0  0  0  0
  135.8790   80.0050  223.8460 C   0  0  0  0  0  0  0  0  0  0  0  0
  134.2055   83.0835  224.4179 H   0  0  0  0  0  0  0  0  0  0  0  0
  133.6728   84.0281  222.9860 H   0  0  0  0  0  0  0  0  0  0  0  0
  133.5265   82.2378  222.9860 H   0  0  0  0  0  0  0  0  0  0  0  0
  135.6274   82.0071  222.2212 H   0  0  0  0  0  0  0  0  0  0  0  0
  135.6839   83.7847  222.0034 H   0  0  0  0  0  0  0  0  0  0  0  0
  136.5154   80.3923  226.8384 H   0  0  0  0  0  0  0  0  0  0  0  0
  135.8125   80.8615  229.2009 H   0  0  0  0  0  0  0  0  0  0  0  0
  135.0986   83.1594  229.7527 H   0  0  0  0  0  0  0  0  0  0  0  0
  135.0460   84.9652  228.1047 H   0  0  0  0  0  0  0  0  0  0  0  0
  135.7405   84.4998  225.7641 H   0  0  0  0  0  0  0  0  0  0  0  0
  137.3650   80.1716  225.3792 H   0  0  0  0  0  0  0  0  0  0  0  0
  137.7703   81.2483  222.5250 H   0  0  0  0  0  0  0  0  0  0  0  0
  138.9165   81.5908  223.8317 H   0  0  0  0  0  0  0  0  0  0  0  0
  139.5271   79.5053  222.5348 H   0  0  0  0  0  0  0  0  0  0  0  0
  139.1921   79.1413  224.2547 H   0  0  0  0  0  0  0  0  0  0  0  0
  139.9948   77.2732  223.0157 H   0  0  0  0  0  0  0  0  0  0  0  0
  138.3420   74.9120  222.6380 H   0  0  0  0  0  0  0  0  0  0  0  0
  139.5770   75.2150  223.7240 H   0  0  0  0  0  0  0  0  0  0  0  0
  138.9365   76.6958  220.4984 H   0  0  0  0  0  0  0  0  0  0  0  0
  141.0341   73.7395  221.0568 H   0  0  0  0  0  0  0  0  0  0  0  0
  143.3212   73.3548  220.2228 H   0  0  0  0  0  0  0  0  0  0  0  0
  144.6785   75.2824  219.3674 H   0  0  0  0  0  0  0  0  0  0  0  0
  143.6702   77.5842  219.3821 H   0  0  0  0  0  0  0  0  0  0  0  0
  140.2107   78.6344  219.8402 H   0  0  0  0  0  0  0  0  0  0  0  0
  141.8157   77.4605  222.9263 H   0  0  0  0  0  0  0  0  0  0  0  0
  142.7294   79.0782  224.5078 H   0  0  0  0  0  0  0  0  0  0  0  0
  142.7625   81.5063  224.0230 H   0  0  0  0  0  0  0  0  0  0  0  0
  141.8152   82.2872  221.8148 H   0  0  0  0  0  0  0  0  0  0  0  0
  140.9015   80.6516  220.2365 H   0  0  0  0  0  0  0  0  0  0  0  0
  135.9715   79.1712  221.9104 H   0  0  0  0  0  0  0  0  0  0  0  0
  135.7727   77.9933  223.3113 H   0  0  0  0  0  0  0  0  0  0  0  0
  135.2980   80.7361  223.2648 H   0  0  0  0  0  0  0  0  0  0  0  0
  135.3046   79.5422  224.6620 H   0  0  0  0  0  0  0  0  0  0  0  0
  1  2  1  0
  2  3  1  0
  3  4  2  0
  3  5  1  0
  5  6  1  0
  6  7  2  0
  7  8  1  0
  8  9  2  0
  9 10  1  0
 10 11  2  0
  5 12  1  0
 12 13  1  0
 13 14  1  0
 14 15  1  0
 15 16  1  0
 16 17  2  0
 16 18  1  0
 18 19  1  0
 18 20  1  0
 20 21  1  0
 21 22  2  0
 22 23  1  0
 23 24  2  0
 24 25  1  0
 25 26  2  0
 26 27  1  0
 27 28  1  0
 28 29  2  0
 29 30  1  0
 30 31  2  0
 31 32  1  0
 32 33  2  0
 15 34  1  0
 34 35  1  0
 11  6  1  0
 35 12  1  0
 27 20  1  0
 33 28  1  0
 26 21  1  0
  1 36  1  0
  1 37  1  0
  1 38  1  0
  2 39  1  0
  2 40  1  0
  7 41  1  0
  8 42  1  0
  9 43  1  0
 10 44  1  0
 11 45  1  0
 12 46  1  0
 13 47  1  0
 13 48  1  0
 14 49  1  0
 14 50  1  0
 18 51  1  1
 19 52  1  0
 19 53  1  0
 20 54  1  6
 22 55  1  0
 23 56  1  0
 24 57  1  0
 25 58  1  0
 27 59  1  6
 29 60  1  0
 30 61  1  0
 31 62  1  0
 32 63  1  0
 33 64  1  0
 34 65  1  0
 34 66  1  0
 35 67  1  0
 35 68  1  0
M  END
>  <smiles>  (26) 
CCC(=O)N(c1ccccc1)C1CCN(C(=O)[C@@H](N)C2c3ccccc3C2c2ccccc2)CC1

>  <score_type>  (26) 
oracle

>  <origin>  (26) 
autodockgpu

>  <m_score__min__energy>  (26) 
-8.5999999999999996

>  <m_primary>  (26) 
energy

>  <rmsd>  (26) 
8.272728378781947

>  <m_score__min__rmsd>  (26) 
8.272728378781947

>  <meeko>  (26) 
{"free_energy": -8.13, "intermolecular_energy": -10.52, "internal_energy": -3.33, "cluster_size": 15, "cluster_id": 2, "rank_in_cluster": 4}

>  <energy>  (26) 
-8.52

>  <cluster_rmsd>  (26) 
0.23

>  <cluster>  (26) 
1

$$$$

     RDKit          3D

 68 72  0  0  0  0  0  0  0  0999 V2000
  138.2430   68.1330  222.6980 C   0  0  0  0  0  0  0  0  0  0  0  0
  139.1830   69.1180  222.0500 C   0  0  0  0  0  0  0  0  0  0  0  0
  138.9000   70.4830  222.5880 C   0  0  0  0  0  0  0  0  0  0  0  0
  137.7720   70.9690  222.3520 O   0  0  0  0  0  0  0  0  0  0  0  0
  139.9030   71.1790  223.3390 N   0  0  0  0  0  0  0  0  0  0  0  0
  140.0470   70.8780  224.7210 C   0  0  0  0  0  0  0  0  0  0  0  0
  140.8610   71.7360  225.4690 C   0  0  0  0  0  0  0  0  0  0  0  0
  141.0640   71.5180  226.8210 C   0  0  0  0  0  0  0  0  0  0  0  0
  140.4250   70.4280  227.3670 C   0  0  0  0  0  0  0  0  0  0  0  0
  139.6220   69.5690  226.6630 C   0  0  0  0  0  0  0  0  0  0  0  0
  139.4300   69.7960  225.3260 C   0  0  0  0  0  0  0  0  0  0  0  0
  140.7410   72.1570  222.6480 C   0  0  0  0  0  0  0  0  0  0  0  0
  139.8710   73.3700  222.3270 C   0  0  0  0  0  0  0  0  0  0  0  0
  140.8190   74.4450  221.8200 C   0  0  0  0  0  0  0  0  0  0  0  0
  141.5570   73.9140  220.7010 N   0  0  0  0  0  0  0  0  0  0  0  0
  142.3520   74.7870  219.8620 C   0  0  0  0  0  0  0  0  0  0  0  0
  142.9800   74.3060  218.8550 O   0  0  0  0  0  0  0  0  0  0  0  0
  142.5090   76.2380  220.0720 C   0  0  1  0  0  0  0  0  0  0  0  0
  143.7070   76.6940  219.3850 N   0  0  0  0  0  0  0  0  0  0  0  0
  141.3550   77.0230  219.5590 C   0  0  2  0  0  0  0  0  0  0  0  0
  141.6990   77.9880  218.4770 C   0  0  0  0  0  0  0  0  0  0  0  0
  142.2690   78.3170  217.2670 C   0  0  0  0  0  0  0  0  0  0  0  0
  142.2020   79.5930  216.7450 C   0  0  0  0  0  0  0  0  0  0  0  0
  141.5370   80.5950  217.4530 C   0  0  0  0  0  0  0  0  0  0  0  0
  140.9510   80.2760  218.6850 C   0  0  0  0  0  0  0  0  0  0  0  0
  141.0440   78.9710  219.1780 C   0  0  0  0  0  0  0  0  0  0  0  0
  140.6930   78.0630  220.3380 C   0  0  2  0  0  0  0  0  0  0  0  0
  141.2680   78.6470  221.5560 C   0  0  0  0  0  0  0  0  0  0  0  0
  142.0160   79.8330  221.4730 C   0  0  0  0  0  0  0  0  0  0  0  0
  142.5860   80.3960  222.5880 C   0  0  0  0  0  0  0  0  0  0  0  0
  142.4660   79.8440  223.8410 C   0  0  0  0  0  0  0  0  0  0  0  0
  141.7260   78.6610  223.9480 C   0  0  0  0  0  0  0  0  0  0  0  0
  141.1590   78.1090  222.8180 C   0  0  0  0  0  0  0  0  0  0  0  0
  141.5850   72.5220  220.2990 C   0  0  0  0  0  0  0  0  0  0  0  0
  141.2210   71.5440  221.3650 C   0  0  0  0  0  0  0  0  0  0  0  0
  138.3221   68.2159  223.7920 H   0  0  0  0  0  0  0  0  0  0  0  0
  137.2108   68.3523  222.3873 H   0  0  0  0  0  0  0  0  0  0  0  0
  138.5103   67.1122  222.3873 H   0  0  0  0  0  0  0  0  0  0  0  0
  140.2229   68.8400  222.2767 H   0  0  0  0  0  0  0  0  0  0  0  0
  139.0379   69.1097  220.9596 H   0  0  0  0  0  0  0  0  0  0  0  0
  141.3448   72.5929  224.9774 H   0  0  0  0  0  0  0  0  0  0  0  0
  141.7012   72.1798  227.4259 H   0  0  0  0  0  0  0  0  0  0  0  0
  140.5684   70.2333  228.4401 H   0  0  0  0  0  0  0  0  0  0  0  0
  139.1414   68.7144  227.1617 H   0  0  0  0  0  0  0  0  0  0  0  0
  138.7898   69.1231  224.7366 H   0  0  0  0  0  0  0  0  0  0  0  0
  141.6010   72.4528  223.2668 H   0  0  0  0  0  0  0  0  0  0  0  0
  139.1323   73.1160  221.5525 H   0  0  0  0  0  0  0  0  0  0  0  0
  139.3130   73.7104  223.2117 H   0  0  0  0  0  0  0  0  0  0  0  0
  140.2436   75.3263  221.5003 H   0  0  0  0  0  0  0  0  0  0  0  0
  141.5118   74.7443  222.6203 H   0  0  0  0  0  0  0  0  0  0  0  0
  142.5755   76.3994  221.1581 H   0  0  0  0  0  0  0  0  0  0  0  0
  144.2470   75.8810  219.0110 H   0  0  0  0  0  0  0  0  0  0  0  0
  144.3280   77.1500  220.0960 H   0  0  0  0  0  0  0  0  0  0  0  0
  140.7535   76.1172  219.3926 H   0  0  0  0  0  0  0  0  0  0  0  0
  142.7952   77.5367  216.6976 H   0  0  0  0  0  0  0  0  0  0  0  0
  142.6704   79.8190  215.7757 H   0  0  0  0  0  0  0  0  0  0  0  0
  141.4740   81.6170  217.0510 H   0  0  0  0  0  0  0  0  0  0  0  0
  140.4205   81.0483  219.2614 H   0  0  0  0  0  0  0  0  0  0  0  0
  139.7132   77.8045  220.7659 H   0  0  0  0  0  0  0  0  0  0  0  0
  142.1477   80.3202  220.4956 H   0  0  0  0  0  0  0  0  0  0  0  0
  143.1619   81.3263  222.4739 H   0  0  0  0  0  0  0  0  0  0  0  0
  142.9313   80.3116  224.7212 H   0  0  0  0  0  0  0  0  0  0  0  0
  141.5974   78.1747  224.9263 H   0  0  0  0  0  0  0  0  0  0  0  0
  140.5827   77.1791  222.9331 H   0  0  0  0  0  0  0  0  0  0  0  0
  140.8789   72.3946  219.4652 H   0  0  0  0  0  0  0  0  0  0  0  0
  142.6288   72.3039  220.0291 H   0  0  0  0  0  0  0  0  0  0  0  0
  140.4217   70.8962  220.9758 H   0  0  0  0  0  0  0  0  0  0  0  0
  142.1437   70.9977  221.6105 H   0  0  0  0  0  0  0  0  0  0  0  0
  1  2  1  0
  2  3  1  0
  3  4  2  0
  3  5  1  0
  5  6  1  0
  6  7  2  0
  7  8  1  0
  8  9  2  0
  9 10  1  0
 10 11  2  0
  5 12  1  0
 12 13  1  0
 13 14  1  0
 14 15  1  0
 15 16  1  0
 16 17  2  0
 16 18  1  0
 18 19  1  0
 18 20  1  0
 20 21  1  0
 21 22  2  0
 22 23  1  0
 23 24  2  0
 24 25  1  0
 25 26  2  0
 26 27  1  0
 27 28  1  0
 28 29  2  0
 29 30  1  0
 30 31  2  0
 31 32  1  0
 32 33  2  0
 15 34  1  0
 34 35  1  0
 11  6  1  0
 35 12  1  0
 27 20  1  0
 33 28  1  0
 26 21  1  0
  1 36  1  0
  1 37  1  0
  1 38  1  0
  2 39  1  0
  2 40  1  0
  7 41  1  0
  8 42  1  0
  9 43  1  0
 10 44  1  0
 11 45  1  0
 12 46  1  0
 13 47  1  0
 13 48  1  0
 14 49  1  0
 14 50  1  0
 18 51  1  1
 19 52  1  0
 19 53  1  0
 20 54  1  6
 22 55  1  0
 23 56  1  0
 24 57  1  0
 25 58  1  0
 27 59  1  1
 29 60  1  0
 30 61  1  0
 31 62  1  0
 32 63  1  0
 33 64  1  0
 34 65  1  0
 34 66  1  0
 35 67  1  0
 35 68  1  0
M  END
>  <smiles>  (27) 
CCC(=O)N(c1ccccc1)C1CCN(C(=O)[C@@H](N)C2c3ccccc3C2c2ccccc2)CC1

>  <score_type>  (27) 
oracle

>  <origin>  (27) 
autodockgpu

>  <m_score__min__energy>  (27) 
-8.5999999999999996

>  <m_primary>  (27) 
energy

>  <rmsd>  (27) 
10.11533326425944

>  <m_score__min__rmsd>  (27) 
10.11533326425944

>  <meeko>  (27) 
{"free_energy": -8.55, "intermolecular_energy": -10.94, "internal_energy": -2.9, "cluster_size": 34, "cluster_id": 1, "rank_in_cluster": 18}

>  <energy>  (27) 
-8.52

>  <cluster_rmsd>  (27) 
0.6

>  <cluster>  (27) 
1

$$$$

     RDKit          3D

 68 72  0  0  0  0  0  0  0  0999 V2000
  136.3610   82.9770  221.7660 C   0  0  0  0  0  0  0  0  0  0  0  0
  135.4760   82.8350  222.9790 C   0  0  0  0  0  0  0  0  0  0  0  0
  136.3130   82.9810  224.2070 C   0  0  0  0  0  0  0  0  0  0  0  0
  136.9460   84.0510  224.3450 O   0  0  0  0  0  0  0  0  0  0  0  0
  136.3680   81.9190  225.1670 N   0  0  0  0  0  0  0  0  0  0  0  0
  135.9490   82.1860  226.4990 C   0  0  0  0  0  0  0  0  0  0  0  0
  135.2990   83.4050  226.7200 C   0  0  0  0  0  0  0  0  0  0  0  0
  134.8610   83.7540  227.9860 C   0  0  0  0  0  0  0  0  0  0  0  0
  135.1010   82.8420  228.9890 C   0  0  0  0  0  0  0  0  0  0  0  0
  135.7340   81.6400  228.8070 C   0  0  0  0  0  0  0  0  0  0  0  0
  136.1630   81.3080  227.5490 C   0  0  0  0  0  0  0  0  0  0  0  0
  136.8410   80.6060  224.7330 C   0  0  0  0  0  0  0  0  0  0  0  0
  137.9900   80.8260  223.7530 C   0  0  0  0  0  0  0  0  0  0  0  0
  138.5970   79.4550  223.5010 C   0  0  0  0  0  0  0  0  0  0  0  0
  137.5580   78.5740  223.0290 N   0  0  0  0  0  0  0  0  0  0  0  0
  137.8870   77.2780  222.4750 C   0  0  0  0  0  0  0  0  0  0  0  0
  136.9560   76.5170  222.0340 O   0  0  0  0  0  0  0  0  0  0  0  0
  139.2540   76.7340  222.3670 C   0  0  1  0  0  0  0  0  0  0  0  0
  139.2300   75.3150  222.6920 N   0  0  0  0  0  0  0  0  0  0  0  0
  139.8300   76.8870  221.0060 C   0  0  2  0  0  0  0  0  0  0  0  0
  140.9480   75.9490  220.7000 C   0  0  0  0  0  0  0  0  0  0  0  0
  141.5050   74.6920  220.6320 C   0  0  0  0  0  0  0  0  0  0  0  0
  142.7850   74.4790  220.1610 C   0  0  0  0  0  0  0  0  0  0  0  0
  143.5530   75.5630  219.7340 C   0  0  0  0  0  0  0  0  0  0  0  0
  143.0000   76.8490  219.7970 C   0  0  0  0  0  0  0  0  0  0  0  0
  141.7000   77.0200  220.2820 C   0  0  0  0  0  0  0  0  0  0  0  0
  140.6290   78.0390  220.6070 C   0  0  2  0  0  0  0  0  0  0  0  0
  141.1960   78.9980  221.5640 C   0  0  0  0  0  0  0  0  0  0  0  0
  141.2240   80.3650  221.2450 C   0  0  0  0  0  0  0  0  0  0  0  0
  141.7660   81.2880  222.1060 C   0  0  0  0  0  0  0  0  0  0  0  0
  142.3110   80.9390  223.3190 C   0  0  0  0  0  0  0  0  0  0  0  0
  142.2950   79.5820  223.6570 C   0  0  0  0  0  0  0  0  0  0  0  0
  141.7460   78.6680  222.7810 C   0  0  0  0  0  0  0  0  0  0  0  0
  136.1390   78.8660  223.0460 C   0  0  0  0  0  0  0  0  0  0  0  0
  135.7150   79.9120  224.0210 C   0  0  0  0  0  0  0  0  0  0  0  0
  137.3997   83.1437  222.0874 H   0  0  0  0  0  0  0  0  0  0  0  0
  136.3067   82.0586  221.1629 H   0  0  0  0  0  0  0  0  0  0  0  0
  136.0221   83.8323  221.1629 H   0  0  0  0  0  0  0  0  0  0  0  0
  134.7016   83.6161  222.9648 H   0  0  0  0  0  0  0  0  0  0  0  0
  134.9908   81.8478  222.9734 H   0  0  0  0  0  0  0  0  0  0  0  0
  135.1341   84.0938  225.8784 H   0  0  0  0  0  0  0  0  0  0  0  0
  134.3490   84.7081  228.1800 H   0  0  0  0  0  0  0  0  0  0  0  0
  134.7621   83.0949  230.0045 H   0  0  0  0  0  0  0  0  0  0  0  0
  135.8942   80.9561  229.6535 H   0  0  0  0  0  0  0  0  0  0  0  0
  136.6743   80.3500  227.3737 H   0  0  0  0  0  0  0  0  0  0  0  0
  137.1754   80.0001  225.5880 H   0  0  0  0  0  0  0  0  0  0  0  0
  137.6132   81.2554  222.8130 H   0  0  0  0  0  0  0  0  0  0  0  0
  138.7348   81.5272  224.1575 H   0  0  0  0  0  0  0  0  0  0  0  0
  139.3895   79.5339  222.7423 H   0  0  0  0  0  0  0  0  0  0  0  0
  139.0330   79.0595  224.4302 H   0  0  0  0  0  0  0  0  0  0  0  0
  139.8824   77.3030  223.0680 H   0  0  0  0  0  0  0  0  0  0  0  0
  138.2510   74.9520  222.6790 H   0  0  0  0  0  0  0  0  0  0  0  0
  139.5640   75.2090  223.6800 H   0  0  0  0  0  0  0  0  0  0  0  0
  138.8400   76.8236  220.5306 H   0  0  0  0  0  0  0  0  0  0  0  0
  140.9102   73.8283  220.9641 H   0  0  0  0  0  0  0  0  0  0  0  0
  143.1975   73.4600  220.1225 H   0  0  0  0  0  0  0  0  0  0  0  0
  144.5742   75.4107  219.3547 H   0  0  0  0  0  0  0  0  0  0  0  0
  143.5857   77.7195  219.4666 H   0  0  0  0  0  0  0  0  0  0  0  0
  140.1323   78.7770  219.9600 H   0  0  0  0  0  0  0  0  0  0  0  0
  140.8036   80.7036  220.2866 H   0  0  0  0  0  0  0  0  0  0  0  0
  141.7639   82.3484  221.8134 H   0  0  0  0  0  0  0  0  0  0  0  0
  142.7407   81.6938  223.9939 H   0  0  0  0  0  0  0  0  0  0  0  0
  142.7174   79.2454  224.6152 H   0  0  0  0  0  0  0  0  0  0  0  0
  141.7483   77.6079  223.0746 H   0  0  0  0  0  0  0  0  0  0  0  0
  135.8492   79.2021  222.0395 H   0  0  0  0  0  0  0  0  0  0  0  0
  135.6411   77.9370  223.3609 H   0  0  0  0  0  0  0  0  0  0  0  0
  135.1351   80.6718  223.4765 H   0  0  0  0  0  0  0  0  0  0  0  0
  135.1326   79.3931  224.7966 H   0  0  0  0  0  0  0  0  0  0  0  0
  1  2  1  0
  2  3  1  0
  3  4  2  0
  3  5  1  0
  5  6  1  0
  6  7  2  0
  7  8  1  0
  8  9  2  0
  9 10  1  0
 10 11  2  0
  5 12  1  0
 12 13  1  0
 13 14  1  0
 14 15  1  0
 15 16  1  0
 16 17  2  0
 16 18  1  0
 18 19  1  0
 18 20  1  0
 20 21  1  0
 21 22  2  0
 22 23  1  0
 23 24  2  0
 24 25  1  0
 25 26  2  0
 26 27  1  0
 27 28  1  0
 28 29  2  0
 29 30  1  0
 30 31  2  0
 31 32  1  0
 32 33  2  0
 15 34  1  0
 34 35  1  0
 11  6  1  0
 35 12  1  0
 27 20  1  0
 33 28  1  0
 26 21  1  0
  1 36  1  0
  1 37  1  0
  1 38  1  0
  2 39  1  0
  2 40  1  0
  7 41  1  0
  8 42  1  0
  9 43  1  0
 10 44  1  0
 11 45  1  0
 12 46  1  0
 13 47  1  0
 13 48  1  0
 14 49  1  0
 14 50  1  0
 18 51  1  1
 19 52  1  0
 19 53  1  0
 20 54  1  6
 22 55  1  0
 23 56  1  0
 24 57  1  0
 25 58  1  0
 27 59  1  6
 29 60  1  0
 30 61  1  0
 31 62  1  0
 32 63  1  0
 33 64  1  0
 34 65  1  0
 34 66  1  0
 35 67  1  0
 35 68  1  0
M  END
>  <smiles>  (28) 
CCC(=O)N(c1ccccc1)C1CCN(C(=O)[C@@H](N)C2c3ccccc3C2c2ccccc2)CC1

>  <score_type>  (28) 
oracle

>  <origin>  (28) 
autodockgpu

>  <m_score__min__energy>  (28) 
-8.5999999999999996

>  <m_primary>  (28) 
energy

>  <rmsd>  (28) 
8.330845154181242

>  <m_score__min__rmsd>  (28) 
8.330845154181242

>  <meeko>  (28) 
{"free_energy": -8.22, "intermolecular_energy": -10.61, "internal_energy": -3.29, "cluster_size": 15, "cluster_id": 2, "rank_in_cluster": 1}

>  <energy>  (28) 
-8.52

>  <cluster_rmsd>  (28) 
0.23

>  <cluster>  (28) 
1

$$$$

     RDKit          3D

 68 72  0  0  0  0  0  0  0  0999 V2000
  136.5020   70.4940  223.8460 C   0  0  0  0  0  0  0  0  0  0  0  0
  137.2280   71.5600  223.0640 C   0  0  0  0  0  0  0  0  0  0  0  0
  138.5400   71.0140  222.6050 C   0  0  0  0  0  0  0  0  0  0  0  0
  138.5230   70.2240  221.6350 O   0  0  0  0  0  0  0  0  0  0  0  0
  139.7490   71.3980  223.2710 N   0  0  0  0  0  0  0  0  0  0  0  0
  140.0360   70.8250  224.5400 C   0  0  0  0  0  0  0  0  0  0  0  0
  139.6110   69.5080  224.7450 C   0  0  0  0  0  0  0  0  0  0  0  0
  139.8410   68.8700  225.9520 C   0  0  0  0  0  0  0  0  0  0  0  0
  140.5020   69.6000  226.9130 C   0  0  0  0  0  0  0  0  0  0  0  0
  140.9320   70.8900  226.7450 C   0  0  0  0  0  0  0  0  0  0  0  0
  140.6970   71.5100  225.5460 C   0  0  0  0  0  0  0  0  0  0  0  0
  140.6390   72.3520  222.6120 C   0  0  0  0  0  0  0  0  0  0  0  0
  139.7800   73.4890  222.0660 C   0  0  0  0  0  0  0  0  0  0  0  0
  140.7500   74.5600  221.5940 C   0  0  0  0  0  0  0  0  0  0  0  0
  141.6520   73.9700  220.6370 N   0  0  0  0  0  0  0  0  0  0  0  0
  142.5240   74.8040  219.8350 C   0  0  0  0  0  0  0  0  0  0  0  0
  143.3010   74.2680  218.9700 O   0  0  0  0  0  0  0  0  0  0  0  0
  142.5990   76.2740  219.9300 C   0  0  1  0  0  0  0  0  0  0  0  0
  143.6990   76.7500  219.1050 N   0  0  0  0  0  0  0  0  0  0  0  0
  141.3530   76.9450  219.4720 C   0  0  2  0  0  0  0  0  0  0  0  0
  141.5500   77.9150  218.3570 C   0  0  0  0  0  0  0  0  0  0  0  0
  142.0200   78.2670  217.1120 C   0  0  0  0  0  0  0  0  0  0  0  0
  141.8120   79.5220  216.5760 C   0  0  0  0  0  0  0  0  0  0  0  0
  141.1020   80.4760  217.3060 C   0  0  0  0  0  0  0  0  0  0  0  0
  140.6170   80.1330  218.5740 C   0  0  0  0  0  0  0  0  0  0  0  0
  140.8510   78.8510  219.0810 C   0  0  0  0  0  0  0  0  0  0  0  0
  140.6480   77.9390  220.2720 C   0  0  2  0  0  0  0  0  0  0  0  0
  141.2360   78.5950  221.4460 C   0  0  0  0  0  0  0  0  0  0  0  0
  141.0580   78.0310  222.7200 C   0  0  0  0  0  0  0  0  0  0  0  0
  141.5760   78.6280  223.8440 C   0  0  0  0  0  0  0  0  0  0  0  0
  142.2900   79.8010  223.7970 C   0  0  0  0  0  0  0  0  0  0  0  0
  142.4790   80.3820  222.5390 C   0  0  0  0  0  0  0  0  0  0  0  0
  141.9530   79.7690  221.4200 C   0  0  0  0  0  0  0  0  0  0  0  0
  141.7850   72.5520  220.3730 C   0  0  0  0  0  0  0  0  0  0  0  0
  141.3130   71.6530  221.4670 C   0  0  0  0  0  0  0  0  0  0  0  0
  136.6282   70.6793  224.9229 H   0  0  0  0  0  0  0  0  0  0  0  0
  135.4318   70.5182  223.5927 H   0  0  0  0  0  0  0  0  0  0  0  0
  136.9165   69.5071  223.5927 H   0  0  0  0  0  0  0  0  0  0  0  0
  136.6249   71.8537  222.1922 H   0  0  0  0  0  0  0  0  0  0  0  0
  137.3934   72.4417  223.7005 H   0  0  0  0  0  0  0  0  0  0  0  0
  139.0882   68.9734  223.9382 H   0  0  0  0  0  0  0  0  0  0  0  0
  139.5131   67.8357  226.1329 H   0  0  0  0  0  0  0  0  0  0  0  0
  140.6983   69.1155  227.8808 H   0  0  0  0  0  0  0  0  0  0  0  0
  141.4553   71.4172  227.5563 H   0  0  0  0  0  0  0  0  0  0  0  0
  141.0312   72.5453  225.3834 H   0  0  0  0  0  0  0  0  0  0  0  0
  141.3937   72.7416  223.3111 H   0  0  0  0  0  0  0  0  0  0  0  0
  139.1651   73.1336  221.2260 H   0  0  0  0  0  0  0  0  0  0  0  0
  139.0932   73.8779  222.8322 H   0  0  0  0  0  0  0  0  0  0  0  0
  140.1933   75.3825  221.1212 H   0  0  0  0  0  0  0  0  0  0  0  0
  141.3156   74.9595  222.4487 H   0  0  0  0  0  0  0  0  0  0  0  0
  142.7488   76.5208  220.9914 H   0  0  0  0  0  0  0  0  0  0  0  0
  144.2590   75.9470  218.7410 H   0  0  0  0  0  0  0  0  0  0  0  0
  144.3460   77.2970  219.7220 H   0  0  0  0  0  0  0  0  0  0  0  0
  140.8248   75.9874  219.3537 H   0  0  0  0  0  0  0  0  0  0  0  0
  142.5797   77.5239  216.5250 H   0  0  0  0  0  0  0  0  0  0  0  0
  142.2040   79.7688  215.5783 H   0  0  0  0  0  0  0  0  0  0  0  0
  140.9264   81.4801  216.8925 H   0  0  0  0  0  0  0  0  0  0  0  0
  140.0548   80.8683  219.1683 H   0  0  0  0  0  0  0  0  0  0  0  0
  139.7207   77.6043  220.7599 H   0  0  0  0  0  0  0  0  0  0  0  0
  140.4927   77.0927  222.8199 H   0  0  0  0  0  0  0  0  0  0  0  0
  141.4126   78.1478  224.8201 H   0  0  0  0  0  0  0  0  0  0  0  0
  142.6953   80.2630  224.7093 H   0  0  0  0  0  0  0  0  0  0  0  0
  143.0432   81.3213  222.4421 H   0  0  0  0  0  0  0  0  0  0  0  0
  142.1176   80.2500  220.4445 H   0  0  0  0  0  0  0  0  0  0  0  0
  141.2054   72.3189  219.4676 H   0  0  0  0  0  0  0  0  0  0  0  0
  142.8632   72.3620  220.2668 H   0  0  0  0  0  0  0  0  0  0  0  0
  140.5987   70.9360  221.0360 H   0  0  0  0  0  0  0  0  0  0  0  0
  142.2119   71.1747  221.8832 H   0  0  0  0  0  0  0  0  0  0  0  0
  1  2  1  0
  2  3  1  0
  3  4  2  0
  3  5  1  0
  5  6  1  0
  6  7  2  0
  7  8  1  0
  8  9  2  0
  9 10  1  0
 10 11  2  0
  5 12  1  0
 12 13  1  0
 13 14  1  0
 14 15  1  0
 15 16  1  0
 16 17  2  0
 16 18  1  0
 18 19  1  0
 18 20  1  0
 20 21  1  0
 21 22  2  0
 22 23  1  0
 23 24  2  0
 24 25  1  0
 25 26  2  0
 26 27  1  0
 27 28  1  0
 28 29  2  0
 29 30  1  0
 30 31  2  0
 31 32  1  0
 32 33  2  0
 15 34  1  0
 34 35  1  0
 11  6  1  0
 35 12  1  0
 27 20  1  0
 33 28  1  0
 26 21  1  0
  1 36  1  0
  1 37  1  0
  1 38  1  0
  2 39  1  0
  2 40  1  0
  7 41  1  0
  8 42  1  0
  9 43  1  0
 10 44  1  0
 11 45  1  0
 12 46  1  0
 13 47  1  0
 13 48  1  0
 14 49  1  0
 14 50  1  0
 18 51  1  1
 19 52  1  0
 19 53  1  0
 20 54  1  6
 22 55  1  0
 23 56  1  0
 24 57  1  0
 25 58  1  0
 27 59  1  1
 29 60  1  0
 30 61  1  0
 31 62  1  0
 32 63  1  0
 33 64  1  0
 34 65  1  0
 34 66  1  0
 35 67  1  0
 35 68  1  0
M  END
>  <smiles>  (29) 
CCC(=O)N(c1ccccc1)C1CCN(C(=O)[C@@H](N)C2c3ccccc3C2c2ccccc2)CC1

>  <score_type>  (29) 
oracle

>  <origin>  (29) 
autodockgpu

>  <m_score__min__energy>  (29) 
-8.5999999999999996

>  <m_primary>  (29) 
energy

>  <rmsd>  (29) 
10.112113534318997

>  <m_score__min__rmsd>  (29) 
10.112113534318997

>  <meeko>  (29) 
{"free_energy": -8.56, "intermolecular_energy": -10.94, "internal_energy": -3.04, "cluster_size": 34, "cluster_id": 1, "rank_in_cluster": 14}

>  <energy>  (29) 
-8.51

>  <cluster_rmsd>  (29) 
0.24

>  <cluster>  (29) 
1

$$$$

     RDKit          3D

 68 72  0  0  0  0  0  0  0  0999 V2000
  136.4680   70.2790  224.0020 C   0  0  0  0  0  0  0  0  0  0  0  0
  137.1060   71.5040  223.3990 C   0  0  0  0  0  0  0  0  0  0  0  0
  138.3850   71.1060  222.7370 C   0  0  0  0  0  0  0  0  0  0  0  0
  138.3010   70.5230  221.6340 O   0  0  0  0  0  0  0  0  0  0  0  0
  139.6390   71.3950  223.3680 N   0  0  0  0  0  0  0  0  0  0  0  0
  139.9410   70.7550  224.6010 C   0  0  0  0  0  0  0  0  0  0  0  0
  140.6350   71.5150  225.5490 C   0  0  0  0  0  0  0  0  0  0  0  0
  140.9780   70.9730  226.7760 C   0  0  0  0  0  0  0  0  0  0  0  0
  140.5970   69.6690  226.9960 C   0  0  0  0  0  0  0  0  0  0  0  0
  139.9170   68.8980  226.0900 C   0  0  0  0  0  0  0  0  0  0  0  0
  139.5850   69.4460  224.8790 C   0  0  0  0  0  0  0  0  0  0  0  0
  140.5560   72.3230  222.7100 C   0  0  0  0  0  0  0  0  0  0  0  0
  139.7340   73.5000  222.1920 C   0  0  0  0  0  0  0  0  0  0  0  0
  140.7390   74.5400  221.7220 C   0  0  0  0  0  0  0  0  0  0  0  0
  141.6050   73.9310  220.7450 N   0  0  0  0  0  0  0  0  0  0  0  0
  142.4980   74.7420  219.9440 C   0  0  0  0  0  0  0  0  0  0  0  0
  143.2430   74.1890  219.0610 O   0  0  0  0  0  0  0  0  0  0  0  0
  142.6310   76.2060  220.0580 C   0  0  1  0  0  0  0  0  0  0  0  0
  143.7990   76.6400  219.3070 N   0  0  0  0  0  0  0  0  0  0  0  0
  141.4460   76.9350  219.5330 C   0  0  2  0  0  0  0  0  0  0  0  0
  141.7460   77.8730  218.4140 C   0  0  0  0  0  0  0  0  0  0  0  0
  142.2910   78.1780  217.1870 C   0  0  0  0  0  0  0  0  0  0  0  0
  142.1770   79.4330  216.6230 C   0  0  0  0  0  0  0  0  0  0  0  0
  141.4870   80.4360  217.3050 C   0  0  0  0  0  0  0  0  0  0  0  0
  140.9260   80.1410  218.5540 C   0  0  0  0  0  0  0  0  0  0  0  0
  141.0670   78.8580  219.0900 C   0  0  0  0  0  0  0  0  0  0  0  0
  140.7590   77.9790  220.2830 C   0  0  2  0  0  0  0  0  0  0  0  0
  141.3270   78.6230  221.4740 C   0  0  0  0  0  0  0  0  0  0  0  0
  141.1140   78.0550  222.7410 C   0  0  0  0  0  0  0  0  0  0  0  0
  141.6120   78.6400  223.8790 C   0  0  0  0  0  0  0  0  0  0  0  0
  142.3390   79.8060  223.8550 C   0  0  0  0  0  0  0  0  0  0  0  0
  142.5630   80.3910  222.6040 C   0  0  0  0  0  0  0  0  0  0  0  0
  142.0570   79.7890  221.4700 C   0  0  0  0  0  0  0  0  0  0  0  0
  141.6800   72.5120  220.4590 C   0  0  0  0  0  0  0  0  0  0  0  0
  141.1880   71.6160  221.5470 C   0  0  0  0  0  0  0  0  0  0  0  0
  136.5045   70.3490  225.0992 H   0  0  0  0  0  0  0  0  0  0  0  0
  135.4204   70.2118  223.6735 H   0  0  0  0  0  0  0  0  0  0  0  0
  137.0135   69.3821  223.6735 H   0  0  0  0  0  0  0  0  0  0  0  0
  136.4269   71.9460  222.6551 H   0  0  0  0  0  0  0  0  0  0  0  0
  137.3081   72.2453  224.1862 H   0  0  0  0  0  0  0  0  0  0  0  0
  140.9110   72.5542  225.3169 H   0  0  0  0  0  0  0  0  0  0  0  0
  141.5252   71.5530  227.5337 H   0  0  0  0  0  0  0  0  0  0  0  0
  140.8557   69.2152  227.9641 H   0  0  0  0  0  0  0  0  0  0  0  0
  139.6432   67.8600  226.3301 H   0  0  0  0  0  0  0  0  0  0  0  0
  139.0393   68.8501  224.1325 H   0  0  0  0  0  0  0  0  0  0  0  0
  141.3344   72.6731  223.4039 H   0  0  0  0  0  0  0  0  0  0  0  0
  139.0950   73.1809  221.3555 H   0  0  0  0  0  0  0  0  0  0  0  0
  139.0726   73.9036  222.9728 H   0  0  0  0  0  0  0  0  0  0  0  0
  140.2084   75.3902  221.2686 H   0  0  0  0  0  0  0  0  0  0  0  0
  141.3307   74.9042  222.5748 H   0  0  0  0  0  0  0  0  0  0  0  0
  142.7263   76.4373  221.1292 H   0  0  0  0  0  0  0  0  0  0  0  0
  144.3400   75.8160  218.9620 H   0  0  0  0  0  0  0  0  0  0  0  0
  144.4340   77.1450  219.9700 H   0  0  0  0  0  0  0  0  0  0  0  0
  140.8730   76.0047  219.4058 H   0  0  0  0  0  0  0  0  0  0  0  0
  142.8354   77.3957  216.6377 H   0  0  0  0  0  0  0  0  0  0  0  0
  142.6276   79.6411  215.6414 H   0  0  0  0  0  0  0  0  0  0  0  0
  141.3854   81.4409  216.8692 H   0  0  0  0  0  0  0  0  0  0  0  0
  140.3772   80.9152  219.1102 H   0  0  0  0  0  0  0  0  0  0  0  0
  139.7927   77.7031  220.7305 H   0  0  0  0  0  0  0  0  0  0  0  0
  140.5364   77.1225  222.8231 H   0  0  0  0  0  0  0  0  0  0  0  0
  141.4215   78.1562  224.8483 H   0  0  0  0  0  0  0  0  0  0  0  0
  142.7277   80.2594  224.7788 H   0  0  0  0  0  0  0  0  0  0  0  0
  143.1388   81.3249  222.5248 H   0  0  0  0  0  0  0  0  0  0  0  0
  142.2497   80.2724  220.5009 H   0  0  0  0  0  0  0  0  0  0  0  0
  141.0800   72.3145  219.5585 H   0  0  0  0  0  0  0  0  0  0  0  0
  142.7486   72.2823  220.3351 H   0  0  0  0  0  0  0  0  0  0  0  0
  140.4415   70.9328  221.1157 H   0  0  0  0  0  0  0  0  0  0  0  0
  142.0734   71.0984  221.9446 H   0  0  0  0  0  0  0  0  0  0  0  0
  1  2  1  0
  2  3  1  0
  3  4  2  0
  3  5  1  0
  5  6  1  0
  6  7  2  0
  7  8  1  0
  8  9  2  0
  9 10  1  0
 10 11  2  0
  5 12  1  0
 12 13  1  0
 13 14  1  0
 14 15  1  0
 15 16  1  0
 16 17  2  0
 16 18  1  0
 18 19  1  0
 18 20  1  0
 20 21  1  0
 21 22  2  0
 22 23  1  0
 23 24  2  0
 24 25  1  0
 25 26  2  0
 26 27  1  0
 27 28  1  0
 28 29  2  0
 29 30  1  0
 30 31  2  0
 31 32  1  0
 32 33  2  0
 15 34  1  0
 34 35  1  0
 11  6  1  0
 35 12  1  0
 27 20  1  0
 33 28  1  0
 26 21  1  0
  1 36  1  0
  1 37  1  0
  1 38  1  0
  2 39  1  0
  2 40  1  0
  7 41  1  0
  8 42  1  0
  9 43  1  0
 10 44  1  0
 11 45  1  0
 12 46  1  0
 13 47  1  0
 13 48  1  0
 14 49  1  0
 14 50  1  0
 18 51  1  1
 19 52  1  0
 19 53  1  0
 20 54  1  6
 22 55  1  0
 23 56  1  0
 24 57  1  0
 25 58  1  0
 27 59  1  1
 29 60  1  0
 30 61  1  0
 31 62  1  0
 32 63  1  0
 33 64  1  0
 34 65  1  0
 34 66  1  0
 35 67  1  0
 35 68  1  0
M  END
>  <smiles>  (30) 
CCC(=O)N(c1ccccc1)C1CCN(C(=O)[C@@H](N)C2c3ccccc3C2c2ccccc2)CC1

>  <score_type>  (30) 
oracle

>  <origin>  (30) 
autodockgpu

>  <m_score__min__energy>  (30) 
-8.5999999999999996

>  <m_primary>  (30) 
energy

>  <rmsd>  (30) 
10.092545044557351

>  <m_score__min__rmsd>  (30) 
10.092545044557351

>  <meeko>  (30) 
{"free_energy": -8.58, "intermolecular_energy": -10.97, "internal_energy": -3.04, "cluster_size": 34, "cluster_id": 1, "rank_in_cluster": 4}

>  <energy>  (30) 
-8.51

>  <cluster_rmsd>  (30) 
0.28

>  <cluster>  (30) 
1

$$$$

     RDKit          3D

 68 72  0  0  0  0  0  0  0  0999 V2000
  138.0610   68.3160  222.7040 C   0  0  0  0  0  0  0  0  0  0  0  0
  138.9260   69.3470  222.0230 C   0  0  0  0  0  0  0  0  0  0  0  0
  138.7210   70.6670  222.6900 C   0  0  0  0  0  0  0  0  0  0  0  0
  137.5970   71.2020  222.5690 O   0  0  0  0  0  0  0  0  0  0  0  0
  139.7900   71.2700  223.4300 N   0  0  0  0  0  0  0  0  0  0  0  0
  139.9570   70.9100  224.7960 C   0  0  0  0  0  0  0  0  0  0  0  0
  140.7770   71.7410  225.5680 C   0  0  0  0  0  0  0  0  0  0  0  0
  141.0020   71.4660  226.9060 C   0  0  0  0  0  0  0  0  0  0  0  0
  140.3790   70.3480  227.4140 C   0  0  0  0  0  0  0  0  0  0  0  0
  139.5700   69.5160  226.6860 C   0  0  0  0  0  0  0  0  0  0  0  0
  139.3560   69.7990  225.3620 C   0  0  0  0  0  0  0  0  0  0  0  0
  140.6690   72.2160  222.7460 C   0  0  0  0  0  0  0  0  0  0  0  0
  139.8180   73.4020  222.3000 C   0  0  0  0  0  0  0  0  0  0  0  0
  140.7930   74.4560  221.8010 C   0  0  0  0  0  0  0  0  0  0  0  0
  141.6070   73.8720  220.7650 N   0  0  0  0  0  0  0  0  0  0  0  0
  142.4540   74.7040  219.9360 C   0  0  0  0  0  0  0  0  0  0  0  0
  143.1510   74.1750  219.0020 O   0  0  0  0  0  0  0  0  0  0  0  0
  142.5890   76.1660  220.0770 C   0  0  1  0  0  0  0  0  0  0  0  0
  143.7720   76.6080  219.3550 N   0  0  0  0  0  0  0  0  0  0  0  0
  141.4160   76.9080  219.5420 C   0  0  2  0  0  0  0  0  0  0  0  0
  141.7330   77.8300  218.4150 C   0  0  0  0  0  0  0  0  0  0  0  0
  142.2850   78.1150  217.1860 C   0  0  0  0  0  0  0  0  0  0  0  0
  142.1910   79.3660  216.6100 C   0  0  0  0  0  0  0  0  0  0  0  0
  141.5150   80.3860  217.2800 C   0  0  0  0  0  0  0  0  0  0  0  0
  140.9470   80.1120  218.5310 C   0  0  0  0  0  0  0  0  0  0  0  0
  141.0680   78.8320  219.0800 C   0  0  0  0  0  0  0  0  0  0  0  0
  140.7440   77.9700  220.2810 C   0  0  2  0  0  0  0  0  0  0  0  0
  141.3200   78.6160  221.4670 C   0  0  0  0  0  0  0  0  0  0  0  0
  141.1120   78.0530  222.7370 C   0  0  0  0  0  0  0  0  0  0  0  0
  141.6170   78.6420  223.8700 C   0  0  0  0  0  0  0  0  0  0  0  0
  142.3470   79.8060  223.8380 C   0  0  0  0  0  0  0  0  0  0  0  0
  142.5660   80.3860  222.5840 C   0  0  0  0  0  0  0  0  0  0  0  0
  142.0530   79.7810  221.4550 C   0  0  0  0  0  0  0  0  0  0  0  0
  141.6690   72.4600  220.4430 C   0  0  0  0  0  0  0  0  0  0  0  0
  141.2380   71.5380  221.5340 C   0  0  0  0  0  0  0  0  0  0  0  0
  138.1517   68.4241  223.7949 H   0  0  0  0  0  0  0  0  0  0  0  0
  137.0122   68.4633  222.4069 H   0  0  0  0  0  0  0  0  0  0  0  0
  138.3883   67.3087  222.4069 H   0  0  0  0  0  0  0  0  0  0  0  0
  139.9830   69.0531  222.1028 H   0  0  0  0  0  0  0  0  0  0  0  0
  138.6522   69.4200  220.9601 H   0  0  0  0  0  0  0  0  0  0  0  0
  141.2476   72.6218  225.1068 H   0  0  0  0  0  0  0  0  0  0  0  0
  141.6437   72.1059  227.5295 H   0  0  0  0  0  0  0  0  0  0  0  0
  140.5417   70.1069  228.4749 H   0  0  0  0  0  0  0  0  0  0  0  0
  139.1014   68.6381  227.1547 H   0  0  0  0  0  0  0  0  0  0  0  0
  138.7112   69.1478  224.7536 H   0  0  0  0  0  0  0  0  0  0  0  0
  141.4829   72.5521  223.4052 H   0  0  0  0  0  0  0  0  0  0  0  0
  139.1357   73.0999  221.4918 H   0  0  0  0  0  0  0  0  0  0  0  0
  139.1989   73.7853  223.1246 H   0  0  0  0  0  0  0  0  0  0  0  0
  140.2366   75.3142  221.3962 H   0  0  0  0  0  0  0  0  0  0  0  0
  141.4286   74.8035  222.6288 H   0  0  0  0  0  0  0  0  0  0  0  0
  142.6647   76.3793  221.1535 H   0  0  0  0  0  0  0  0  0  0  0  0
  144.3370   75.7880  219.0400 H   0  0  0  0  0  0  0  0  0  0  0  0
  144.3780   77.1350  220.0280 H   0  0  0  0  0  0  0  0  0  0  0  0
  140.8286   75.9858  219.4221 H   0  0  0  0  0  0  0  0  0  0  0  0
  142.8186   77.3194  216.6453 H   0  0  0  0  0  0  0  0  0  0  0  0
  142.6469   79.5577  215.6275 H   0  0  0  0  0  0  0  0  0  0  0  0
  141.4295   81.3878  216.8339 H   0  0  0  0  0  0  0  0  0  0  0  0
  140.4087   80.8998  219.0784 H   0  0  0  0  0  0  0  0  0  0  0  0
  139.7727   77.7142  220.7294 H   0  0  0  0  0  0  0  0  0  0  0  0
  140.5331   77.1219  222.8257 H   0  0  0  0  0  0  0  0  0  0  0  0
  141.4297   78.1629  224.8423 H   0  0  0  0  0  0  0  0  0  0  0  0
  142.7418   80.2616  224.7581 H   0  0  0  0  0  0  0  0  0  0  0  0
  143.1434   81.3183  222.4985 H   0  0  0  0  0  0  0  0  0  0  0  0
  142.2419   80.2604  220.4831 H   0  0  0  0  0  0  0  0  0  0  0  0
  141.0219   72.2814  219.5716 H   0  0  0  0  0  0  0  0  0  0  0  0
  142.7299   72.2366  220.2571 H   0  0  0  0  0  0  0  0  0  0  0  0
  140.4701   70.8632  221.1278 H   0  0  0  0  0  0  0  0  0  0  0  0
  142.1443   71.0134  221.8708 H   0  0  0  0  0  0  0  0  0  0  0  0
  1  2  1  0
  2  3  1  0
  3  4  2  0
  3  5  1  0
  5  6  1  0
  6  7  2  0
  7  8  1  0
  8  9  2  0
  9 10  1  0
 10 11  2  0
  5 12  1  0
 12 13  1  0
 13 14  1  0
 14 15  1  0
 15 16  1  0
 16 17  2  0
 16 18  1  0
 18 19  1  0
 18 20  1  0
 20 21  1  0
 21 22  2  0
 22 23  1  0
 23 24  2  0
 24 25  1  0
 25 26  2  0
 26 27  1  0
 27 28  1  0
 28 29  2  0
 29 30  1  0
 30 31  2  0
 31 32  1  0
 32 33  2  0
 15 34  1  0
 34 35  1  0
 11  6  1  0
 35 12  1  0
 27 20  1  0
 33 28  1  0
 26 21  1  0
  1 36  1  0
  1 37  1  0
  1 38  1  0
  2 39  1  0
  2 40  1  0
  7 41  1  0
  8 42  1  0
  9 43  1  0
 10 44  1  0
 11 45  1  0
 12 46  1  0
 13 47  1  0
 13 48  1  0
 14 49  1  0
 14 50  1  0
 18 51  1  1
 19 52  1  0
 19 53  1  0
 20 54  1  6
 22 55  1  0
 23 56  1  0
 24 57  1  0
 25 58  1  0
 27 59  1  1
 29 60  1  0
 30 61  1  0
 31 62  1  0
 32 63  1  0
 33 64  1  0
 34 65  1  0
 34 66  1  0
 35 67  1  0
 35 68  1  0
M  END
>  <smiles>  (31) 
CCC(=O)N(c1ccccc1)C1CCN(C(=O)[C@@H](N)C2c3ccccc3C2c2ccccc2)CC1

>  <score_type>  (31) 
oracle

>  <origin>  (31) 
autodockgpu

>  <m_score__min__energy>  (31) 
-8.5999999999999996

>  <m_primary>  (31) 
energy

>  <rmsd>  (31) 
10.073704845011395

>  <m_score__min__rmsd>  (31) 
10.073704845011395

>  <meeko>  (31) 
{"free_energy": -8.58, "intermolecular_energy": -10.97, "internal_energy": -2.96, "cluster_size": 34, "cluster_id": 1, "rank_in_cluster": 6}

>  <energy>  (31) 
-8.5

>  <cluster_rmsd>  (31) 
0.29

>  <cluster>  (31) 
1

$$$$

     RDKit          3D

 68 72  0  0  0  0  0  0  0  0999 V2000
  136.6980   70.4510  224.1510 C   0  0  0  0  0  0  0  0  0  0  0  0
  137.2980   71.3490  223.0990 C   0  0  0  0  0  0  0  0  0  0  0  0
  138.6370   70.8130  222.7120 C   0  0  0  0  0  0  0  0  0  0  0  0
  138.6720   69.9660  221.7920 O   0  0  0  0  0  0  0  0  0  0  0  0
  139.8150   71.2690  223.3900 N   0  0  0  0  0  0  0  0  0  0  0  0
  140.0890   70.7630  224.6900 C   0  0  0  0  0  0  0  0  0  0  0  0
  139.7430   69.4290  224.9300 C   0  0  0  0  0  0  0  0  0  0  0  0
  139.9660   68.8520  226.1690 C   0  0  0  0  0  0  0  0  0  0  0  0
  140.5400   69.6600  227.1240 C   0  0  0  0  0  0  0  0  0  0  0  0
  140.8910   70.9690  226.9220 C   0  0  0  0  0  0  0  0  0  0  0  0
  140.6630   71.5280  225.6920 C   0  0  0  0  0  0  0  0  0  0  0  0
  140.6870   72.2250  222.7100 C   0  0  0  0  0  0  0  0  0  0  0  0
  139.8320   73.4130  222.2810 C   0  0  0  0  0  0  0  0  0  0  0  0
  140.8020   74.4740  221.7880 C   0  0  0  0  0  0  0  0  0  0  0  0
  141.6110   73.9020  220.7410 N   0  0  0  0  0  0  0  0  0  0  0  0
  142.4510   74.7450  219.9160 C   0  0  0  0  0  0  0  0  0  0  0  0
  143.1450   74.2260  218.9720 O   0  0  0  0  0  0  0  0  0  0  0  0
  142.5850   76.2050  220.0700 C   0  0  1  0  0  0  0  0  0  0  0  0
  143.7680   76.6560  219.3540 N   0  0  0  0  0  0  0  0  0  0  0  0
  141.4120   76.9500  219.5410 C   0  0  2  0  0  0  0  0  0  0  0  0
  141.7280   77.8780  218.4170 C   0  0  0  0  0  0  0  0  0  0  0  0
  142.2790   78.1680  217.1890 C   0  0  0  0  0  0  0  0  0  0  0  0
  142.1850   79.4210  216.6180 C   0  0  0  0  0  0  0  0  0  0  0  0
  141.5110   80.4390  217.2940 C   0  0  0  0  0  0  0  0  0  0  0  0
  140.9450   80.1600  218.5440 C   0  0  0  0  0  0  0  0  0  0  0  0
  141.0650   78.8770  219.0870 C   0  0  0  0  0  0  0  0  0  0  0  0
  140.7420   78.0100  220.2850 C   0  0  2  0  0  0  0  0  0  0  0  0
  141.3200   78.6500  221.4730 C   0  0  0  0  0  0  0  0  0  0  0  0
  141.1300   78.0710  222.7380 C   0  0  0  0  0  0  0  0  0  0  0  0
  141.6380   78.6530  223.8740 C   0  0  0  0  0  0  0  0  0  0  0  0
  142.3530   79.8270  223.8480 C   0  0  0  0  0  0  0  0  0  0  0  0
  142.5540   80.4230  222.5990 C   0  0  0  0  0  0  0  0  0  0  0  0
  142.0380   79.8240  221.4680 C   0  0  0  0  0  0  0  0  0  0  0  0
  141.6750   72.4940  220.4040 C   0  0  0  0  0  0  0  0  0  0  0  0
  141.2510   71.5600  221.4880 C   0  0  0  0  0  0  0  0  0  0  0  0
  136.9541   70.8343  225.1497 H   0  0  0  0  0  0  0  0  0  0  0  0
  135.6043   70.4307  224.0354 H   0  0  0  0  0  0  0  0  0  0  0  0
  137.0979   69.4328  224.0354 H   0  0  0  0  0  0  0  0  0  0  0  0
  136.6414   71.3743  222.2169 H   0  0  0  0  0  0  0  0  0  0  0  0
  137.4056   72.3689  223.4968 H   0  0  0  0  0  0  0  0  0  0  0  0
  139.2888   68.8317  224.1257 H   0  0  0  0  0  0  0  0  0  0  0  0
  139.6991   67.8056  226.3784 H   0  0  0  0  0  0  0  0  0  0  0  0
  140.7298   69.2255  228.1166 H   0  0  0  0  0  0  0  0  0  0  0  0
  141.3466   71.5591  227.7309 H   0  0  0  0  0  0  0  0  0  0  0  0
  140.9339   72.5770  225.5016 H   0  0  0  0  0  0  0  0  0  0  0  0
  141.5033   72.5573  223.3682 H   0  0  0  0  0  0  0  0  0  0  0  0
  139.1461   73.1179  221.4733 H   0  0  0  0  0  0  0  0  0  0  0  0
  139.2166   73.7864  223.1127 H   0  0  0  0  0  0  0  0  0  0  0  0
  140.2418   75.3355  221.3955 H   0  0  0  0  0  0  0  0  0  0  0  0
  141.4416   74.8141  222.6157 H   0  0  0  0  0  0  0  0  0  0  0  0
  142.6603   76.4080  221.1485 H   0  0  0  0  0  0  0  0  0  0  0  0
  144.3130   75.8390  218.9960 H   0  0  0  0  0  0  0  0  0  0  0  0
  144.3930   77.1400  220.0440 H   0  0  0  0  0  0  0  0  0  0  0  0
  140.8239   76.0285  219.4189 H   0  0  0  0  0  0  0  0  0  0  0  0
  142.8120   77.3745  216.6448 H   0  0  0  0  0  0  0  0  0  0  0  0
  142.6389   79.6162  215.6352 H   0  0  0  0  0  0  0  0  0  0  0  0
  141.4259   81.4430  216.8526 H   0  0  0  0  0  0  0  0  0  0  0  0
  140.4088   80.9460  219.0960 H   0  0  0  0  0  0  0  0  0  0  0  0
  139.7708   77.7535  220.7334 H   0  0  0  0  0  0  0  0  0  0  0  0
  140.5628   77.1322  222.8211 H   0  0  0  0  0  0  0  0  0  0  0  0
  141.4659   78.1604  224.8424 H   0  0  0  0  0  0  0  0  0  0  0  0
  142.7497   80.2779  224.7696 H   0  0  0  0  0  0  0  0  0  0  0  0
  143.1196   81.3630  222.5186 H   0  0  0  0  0  0  0  0  0  0  0  0
  142.2118   80.3167  220.5000 H   0  0  0  0  0  0  0  0  0  0  0  0
  141.0244   72.3227  219.5338 H   0  0  0  0  0  0  0  0  0  0  0  0
  142.7355   72.2749  220.2106 H   0  0  0  0  0  0  0  0  0  0  0  0
  140.4821   70.8881  221.0789 H   0  0  0  0  0  0  0  0  0  0  0  0
  142.1598   71.0335  221.8148 H   0  0  0  0  0  0  0  0  0  0  0  0
  1  2  1  0
  2  3  1  0
  3  4  2  0
  3  5  1  0
  5  6  1  0
  6  7  2  0
  7  8  1  0
  8  9  2  0
  9 10  1  0
 10 11  2  0
  5 12  1  0
 12 13  1  0
 13 14  1  0
 14 15  1  0
 15 16  1  0
 16 17  2  0
 16 18  1  0
 18 19  1  0
 18 20  1  0
 20 21  1  0
 21 22  2  0
 22 23  1  0
 23 24  2  0
 24 25  1  0
 25 26  2  0
 26 27  1  0
 27 28  1  0
 28 29  2  0
 29 30  1  0
 30 31  2  0
 31 32  1  0
 32 33  2  0
 15 34  1  0
 34 35  1  0
 11  6  1  0
 35 12  1  0
 27 20  1  0
 33 28  1  0
 26 21  1  0
  1 36  1  0
  1 37  1  0
  1 38  1  0
  2 39  1  0
  2 40  1  0
  7 41  1  0
  8 42  1  0
  9 43  1  0
 10 44  1  0
 11 45  1  0
 12 46  1  0
 13 47  1  0
 13 48  1  0
 14 49  1  0
 14 50  1  0
 18 51  1  1
 19 52  1  0
 19 53  1  0
 20 54  1  6
 22 55  1  0
 23 56  1  0
 24 57  1  0
 25 58  1  0
 27 59  1  1
 29 60  1  0
 30 61  1  0
 31 62  1  0
 32 63  1  0
 33 64  1  0
 34 65  1  0
 34 66  1  0
 35 67  1  0
 35 68  1  0
M  END
>  <smiles>  (32) 
CCC(=O)N(c1ccccc1)C1CCN(C(=O)[C@@H](N)C2c3ccccc3C2c2ccccc2)CC1

>  <score_type>  (32) 
oracle

>  <origin>  (32) 
autodockgpu

>  <m_score__min__energy>  (32) 
-8.5999999999999996

>  <m_primary>  (32) 
energy

>  <rmsd>  (32) 
10.100125840662319

>  <m_score__min__rmsd>  (32) 
10.100125840662319

>  <meeko>  (32) 
{"free_energy": -8.57, "intermolecular_energy": -10.96, "internal_energy": -3.01, "cluster_size": 34, "cluster_id": 1, "rank_in_cluster": 10}

>  <energy>  (32) 
-8.49

>  <cluster_rmsd>  (32) 
0.22

>  <cluster>  (32) 
1

$$$$

     RDKit          3D

 68 72  0  0  0  0  0  0  0  0999 V2000
  136.5680   70.6490  223.8810 C   0  0  0  0  0  0  0  0  0  0  0  0
  137.3440   71.3220  222.7770 C   0  0  0  0  0  0  0  0  0  0  0  0
  138.7020   70.7050  222.6950 C   0  0  0  0  0  0  0  0  0  0  0  0
  138.8240   69.6820  221.9860 O   0  0  0  0  0  0  0  0  0  0  0  0
  139.7980   71.2860  223.4130 N   0  0  0  0  0  0  0  0  0  0  0  0
  140.0010   70.9020  224.7660 C   0  0  0  0  0  0  0  0  0  0  0  0
  140.7110   71.7980  225.5730 C   0  0  0  0  0  0  0  0  0  0  0  0
  140.9630   71.5060  226.9030 C   0  0  0  0  0  0  0  0  0  0  0  0
  140.4780   70.3040  227.3670 C   0  0  0  0  0  0  0  0  0  0  0  0
  139.7790   69.4050  226.6040 C   0  0  0  0  0  0  0  0  0  0  0  0
  139.5380   69.7070  225.2890 C   0  0  0  0  0  0  0  0  0  0  0  0
  140.6640   72.2370  222.7190 C   0  0  0  0  0  0  0  0  0  0  0  0
  139.8080   73.4330  222.3100 C   0  0  0  0  0  0  0  0  0  0  0  0
  140.7760   74.4880  221.8000 C   0  0  0  0  0  0  0  0  0  0  0  0
  141.5610   73.9140  220.7370 N   0  0  0  0  0  0  0  0  0  0  0  0
  142.3910   74.7530  219.8980 C   0  0  0  0  0  0  0  0  0  0  0  0
  143.0630   74.2320  218.9390 O   0  0  0  0  0  0  0  0  0  0  0  0
  142.5380   76.2120  220.0540 C   0  0  1  0  0  0  0  0  0  0  0  0
  143.7230   76.6530  219.3340 N   0  0  0  0  0  0  0  0  0  0  0  0
  141.3700   76.9680  219.5290 C   0  0  2  0  0  0  0  0  0  0  0  0
  141.6890   77.8920  218.4030 C   0  0  0  0  0  0  0  0  0  0  0  0
  142.2380   78.1760  217.1730 C   0  0  0  0  0  0  0  0  0  0  0  0
  142.1530   79.4300  216.6020 C   0  0  0  0  0  0  0  0  0  0  0  0
  141.4920   80.4550  217.2800 C   0  0  0  0  0  0  0  0  0  0  0  0
  140.9280   80.1810  218.5330 C   0  0  0  0  0  0  0  0  0  0  0  0
  141.0380   78.8980  219.0760 C   0  0  0  0  0  0  0  0  0  0  0  0
  140.7130   78.0330  220.2760 C   0  0  2  0  0  0  0  0  0  0  0  0
  141.3020   78.6690  221.4610 C   0  0  0  0  0  0  0  0  0  0  0  0
  141.1400   78.0740  222.7230 C   0  0  0  0  0  0  0  0  0  0  0  0
  141.6580   78.6510  223.8560 C   0  0  0  0  0  0  0  0  0  0  0  0
  142.3580   79.8340  223.8310 C   0  0  0  0  0  0  0  0  0  0  0  0
  142.5310   80.4460  222.5850 C   0  0  0  0  0  0  0  0  0  0  0  0
  142.0040   79.8520  221.4560 C   0  0  0  0  0  0  0  0  0  0  0  0
  141.6080   72.5060  220.3950 C   0  0  0  0  0  0  0  0  0  0  0  0
  141.2000   71.5720  221.4850 C   0  0  0  0  0  0  0  0  0  0  0  0
  136.9529   70.9828  224.8559 H   0  0  0  0  0  0  0  0  0  0  0  0
  135.5040   70.9151  223.7962 H   0  0  0  0  0  0  0  0  0  0  0  0
  136.6810   69.5581  223.7962 H   0  0  0  0  0  0  0  0  0  0  0  0
  136.8183   71.1863  221.8203 H   0  0  0  0  0  0  0  0  0  0  0  0
  137.4353   72.3978  222.9877 H   0  0  0  0  0  0  0  0  0  0  0  0
  141.0730   72.7449  225.1461 H   0  0  0  0  0  0  0  0  0  0  0  0
  141.5202   72.1966  227.5531 H   0  0  0  0  0  0  0  0  0  0  0  0
  140.6638   70.0479  228.4205 H   0  0  0  0  0  0  0  0  0  0  0  0
  139.4189   68.4606  227.0382 H   0  0  0  0  0  0  0  0  0  0  0  0
  138.9800   69.0040  224.6531 H   0  0  0  0  0  0  0  0  0  0  0  0
  141.4957   72.5612  223.3618 H   0  0  0  0  0  0  0  0  0  0  0  0
  139.1038   73.1448  221.5156 H   0  0  0  0  0  0  0  0  0  0  0  0
  139.2119   73.8087  223.1547 H   0  0  0  0  0  0  0  0  0  0  0  0
  140.2142   75.3541  221.4201 H   0  0  0  0  0  0  0  0  0  0  0  0
  141.4339   74.8211  222.6162 H   0  0  0  0  0  0  0  0  0  0  0  0
  142.6179   76.4132  221.1325 H   0  0  0  0  0  0  0  0  0  0  0  0
  144.2750   75.8320  218.9980 H   0  0  0  0  0  0  0  0  0  0  0  0
  144.3400   77.1570  220.0160 H   0  0  0  0  0  0  0  0  0  0  0  0
  140.7732   76.0518  219.4088 H   0  0  0  0  0  0  0  0  0  0  0  0
  142.7617   77.3774  216.6271 H   0  0  0  0  0  0  0  0  0  0  0  0
  142.6043   79.6203  215.6171 H   0  0  0  0  0  0  0  0  0  0  0  0
  141.4151   81.4597  216.8388 H   0  0  0  0  0  0  0  0  0  0  0  0
  140.4011   80.9721  219.0867 H   0  0  0  0  0  0  0  0  0  0  0  0
  139.7421   77.7840  220.7291 H   0  0  0  0  0  0  0  0  0  0  0  0
  140.5870   77.1267  222.8052 H   0  0  0  0  0  0  0  0  0  0  0  0
  141.5070   78.1469  224.8219 H   0  0  0  0  0  0  0  0  0  0  0  0
  142.7644   80.2799  224.7508 H   0  0  0  0  0  0  0  0  0  0  0  0
  143.0832   81.3940  222.5055 H   0  0  0  0  0  0  0  0  0  0  0  0
  142.1550   80.3569  220.4905 H   0  0  0  0  0  0  0  0  0  0  0  0
  140.9382   72.3417  219.5380 H   0  0  0  0  0  0  0  0  0  0  0  0
  142.6627   72.2800  220.1791 H   0  0  0  0  0  0  0  0  0  0  0  0
  140.4194   70.9055  221.0895 H   0  0  0  0  0  0  0  0  0  0  0  0
  142.1121   71.0397  221.7927 H   0  0  0  0  0  0  0  0  0  0  0  0
  1  2  1  0
  2  3  1  0
  3  4  2  0
  3  5  1  0
  5  6  1  0
  6  7  2  0
  7  8  1  0
  8  9  2  0
  9 10  1  0
 10 11  2  0
  5 12  1  0
 12 13  1  0
 13 14  1  0
 14 15  1  0
 15 16  1  0
 16 17  2  0
 16 18  1  0
 18 19  1  0
 18 20  1  0
 20 21  1  0
 21 22  2  0
 22 23  1  0
 23 24  2  0
 24 25  1  0
 25 26  2  0
 26 27  1  0
 27 28  1  0
 28 29  2  0
 29 30  1  0
 30 31  2  0
 31 32  1  0
 32 33  2  0
 15 34  1  0
 34 35  1  0
 11  6  1  0
 35 12  1  0
 27 20  1  0
 33 28  1  0
 26 21  1  0
  1 36  1  0
  1 37  1  0
  1 38  1  0
  2 39  1  0
  2 40  1  0
  7 41  1  0
  8 42  1  0
  9 43  1  0
 10 44  1  0
 11 45  1  0
 12 46  1  0
 13 47  1  0
 13 48  1  0
 14 49  1  0
 14 50  1  0
 18 51  1  1
 19 52  1  0
 19 53  1  0
 20 54  1  6
 22 55  1  0
 23 56  1  0
 24 57  1  0
 25 58  1  0
 27 59  1  1
 29 60  1  0
 30 61  1  0
 31 62  1  0
 32 63  1  0
 33 64  1  0
 34 65  1  0
 34 66  1  0
 35 67  1  0
 35 68  1  0
M  END
>  <smiles>  (33) 
CCC(=O)N(c1ccccc1)C1CCN(C(=O)[C@@H](N)C2c3ccccc3C2c2ccccc2)CC1

>  <score_type>  (33) 
oracle

>  <origin>  (33) 
autodockgpu

>  <m_score__min__energy>  (33) 
-8.5999999999999996

>  <m_primary>  (33) 
energy

>  <rmsd>  (33) 
10.109331339600388

>  <m_score__min__rmsd>  (33) 
10.109331339600388

>  <meeko>  (33) 
{"free_energy": -8.58, "intermolecular_energy": -10.96, "internal_energy": -3.02, "cluster_size": 34, "cluster_id": 1, "rank_in_cluster": 7}

>  <energy>  (33) 
-8.46

>  <cluster_rmsd>  (33) 
0.71

>  <cluster>  (33) 
1

$$$$

     RDKit          3D

 68 72  0  0  0  0  0  0  0  0999 V2000
  136.6210   70.8110  223.8550 C   0  0  0  0  0  0  0  0  0  0  0  0
  137.3960   71.2660  222.6440 C   0  0  0  0  0  0  0  0  0  0  0  0
  138.7460   70.6270  222.6660 C   0  0  0  0  0  0  0  0  0  0  0  0
  138.8840   69.5580  222.0320 O   0  0  0  0  0  0  0  0  0  0  0  0
  139.8170   71.2390  223.3950 N   0  0  0  0  0  0  0  0  0  0  0  0
  140.0010   70.8800  224.7590 C   0  0  0  0  0  0  0  0  0  0  0  0
  140.7070   71.7870  225.5570 C   0  0  0  0  0  0  0  0  0  0  0  0
  140.9400   71.5200  226.8950 C   0  0  0  0  0  0  0  0  0  0  0  0
  140.4410   70.3310  227.3760 C   0  0  0  0  0  0  0  0  0  0  0  0
  139.7460   69.4220  226.6230 C   0  0  0  0  0  0  0  0  0  0  0  0
  139.5230   69.6980  225.3000 C   0  0  0  0  0  0  0  0  0  0  0  0
  140.6800   72.1940  222.7030 C   0  0  0  0  0  0  0  0  0  0  0  0
  139.8240   73.3960  222.3130 C   0  0  0  0  0  0  0  0  0  0  0  0
  140.7910   74.4530  221.8040 C   0  0  0  0  0  0  0  0  0  0  0  0
  141.5640   73.8860  220.7280 N   0  0  0  0  0  0  0  0  0  0  0  0
  142.3890   74.7310  219.8890 C   0  0  0  0  0  0  0  0  0  0  0  0
  143.0500   74.2180  218.9200 O   0  0  0  0  0  0  0  0  0  0  0  0
  142.5410   76.1880  220.0580 C   0  0  1  0  0  0  0  0  0  0  0  0
  143.7360   76.6280  219.3540 N   0  0  0  0  0  0  0  0  0  0  0  0
  141.3830   76.9540  219.5280 C   0  0  2  0  0  0  0  0  0  0  0  0
  141.7160   77.8760  218.4040 C   0  0  0  0  0  0  0  0  0  0  0  0
  142.2730   78.1560  217.1770 C   0  0  0  0  0  0  0  0  0  0  0  0
  142.2010   79.4110  216.6060 C   0  0  0  0  0  0  0  0  0  0  0  0
  141.5450   80.4410  217.2820 C   0  0  0  0  0  0  0  0  0  0  0  0
  140.9730   80.1710  218.5320 C   0  0  0  0  0  0  0  0  0  0  0  0
  141.0700   78.8870  219.0740 C   0  0  0  0  0  0  0  0  0  0  0  0
  140.7310   78.0250  220.2720 C   0  0  2  0  0  0  0  0  0  0  0  0
  141.3200   78.6550  221.4600 C   0  0  0  0  0  0  0  0  0  0  0  0
  141.1490   78.0590  222.7210 C   0  0  0  0  0  0  0  0  0  0  0  0
  141.6670   78.6310  223.8570 C   0  0  0  0  0  0  0  0  0  0  0  0
  142.3740   79.8090  223.8370 C   0  0  0  0  0  0  0  0  0  0  0  0
  142.5560   80.4220  222.5920 C   0  0  0  0  0  0  0  0  0  0  0  0
  142.0300   79.8340  221.4600 C   0  0  0  0  0  0  0  0  0  0  0  0
  141.6030   72.4820  220.3730 C   0  0  0  0  0  0  0  0  0  0  0  0
  141.2020   71.5390  221.4570 C   0  0  0  0  0  0  0  0  0  0  0  0
  137.1508   71.1220  224.7675 H   0  0  0  0  0  0  0  0  0  0  0  0
  135.6187   71.2641  223.8404 H   0  0  0  0  0  0  0  0  0  0  0  0
  136.5282   69.7150  223.8404 H   0  0  0  0  0  0  0  0  0  0  0  0
  136.8613   70.9682  221.7300 H   0  0  0  0  0  0  0  0  0  0  0  0
  137.5014   72.3608  222.6584 H   0  0  0  0  0  0  0  0  0  0  0  0
  141.0810   72.7228  225.1160 H   0  0  0  0  0  0  0  0  0  0  0  0
  141.4936   72.2196  227.5385 H   0  0  0  0  0  0  0  0  0  0  0  0
  140.6118   70.0947  228.4367 H   0  0  0  0  0  0  0  0  0  0  0  0
  139.3744   68.4890  227.0718 H   0  0  0  0  0  0  0  0  0  0  0  0
  138.9681   68.9858  224.6716 H   0  0  0  0  0  0  0  0  0  0  0  0
  141.5184   72.5093  223.3414 H   0  0  0  0  0  0  0  0  0  0  0  0
  139.1118   73.1174  221.5224 H   0  0  0  0  0  0  0  0  0  0  0  0
  139.2365   73.7656  223.1664 H   0  0  0  0  0  0  0  0  0  0  0  0
  140.2287   75.3246  221.4376 H   0  0  0  0  0  0  0  0  0  0  0  0
  141.4576   74.7765  222.6170 H   0  0  0  0  0  0  0  0  0  0  0  0
  142.6100   76.3807  221.1388 H   0  0  0  0  0  0  0  0  0  0  0  0
  144.2900   75.8070  219.0230 H   0  0  0  0  0  0  0  0  0  0  0  0
  144.3460   77.1300  220.0430 H   0  0  0  0  0  0  0  0  0  0  0  0
  140.7789   76.0430  219.4048 H   0  0  0  0  0  0  0  0  0  0  0  0
  142.7927   77.3534  216.6333 H   0  0  0  0  0  0  0  0  0  0  0  0
  142.6583   79.5982  215.6233 H   0  0  0  0  0  0  0  0  0  0  0  0
  141.4783   81.4466  216.8412 H   0  0  0  0  0  0  0  0  0  0  0  0
  140.4501   80.9659  219.0840 H   0  0  0  0  0  0  0  0  0  0  0  0
  139.7554   77.7850  220.7198 H   0  0  0  0  0  0  0  0  0  0  0  0
  140.5891   77.1155  222.7998 H   0  0  0  0  0  0  0  0  0  0  0  0
  141.5096   78.1259  224.8214 H   0  0  0  0  0  0  0  0  0  0  0  0
  142.7792   80.2510  224.7592 H   0  0  0  0  0  0  0  0  0  0  0  0
  143.1148   81.3665  222.5164 H   0  0  0  0  0  0  0  0  0  0  0  0
  142.1882   80.3398  220.4961 H   0  0  0  0  0  0  0  0  0  0  0  0
  140.9250   72.3280  219.5206 H   0  0  0  0  0  0  0  0  0  0  0  0
  142.6551   72.2548  220.1460 H   0  0  0  0  0  0  0  0  0  0  0  0
  140.4152   70.8793  221.0624 H   0  0  0  0  0  0  0  0  0  0  0  0
  142.1149   71.0002  221.7508 H   0  0  0  0  0  0  0  0  0  0  0  0
  1  2  1  0
  2  3  1  0
  3  4  2  0
  3  5  1  0
  5  6  1  0
  6  7  2  0
  7  8  1  0
  8  9  2  0
  9 10  1  0
 10 11  2  0
  5 12  1  0
 12 13  1  0
 13 14  1  0
 14 15  1  0
 15 16  1  0
 16 17  2  0
 16 18  1  0
 18 19  1  0
 18 20  1  0
 20 21  1  0
 21 22  2  0
 22 23  1  0
 23 24  2  0
 24 25  1  0
 25 26  2  0
 26 27  1  0
 27 28  1  0
 28 29  2  0
 29 30  1  0
 30 31  2  0
 31 32  1  0
 32 33  2  0
 15 34  1  0
 34 35  1  0
 11  6  1  0
 35 12  1  0
 27 20  1  0
 33 28  1  0
 26 21  1  0
  1 36  1  0
  1 37  1  0
  1 38  1  0
  2 39  1  0
  2 40  1  0
  7 41  1  0
  8 42  1  0
  9 43  1  0
 10 44  1  0
 11 45  1  0
 12 46  1  0
 13 47  1  0
 13 48  1  0
 14 49  1  0
 14 50  1  0
 18 51  1  1
 19 52  1  0
 19 53  1  0
 20 54  1  6
 22 55  1  0
 23 56  1  0
 24 57  1  0
 25 58  1  0
 27 59  1  1
 29 60  1  0
 30 61  1  0
 31 62  1  0
 32 63  1  0
 33 64  1  0
 34 65  1  0
 34 66  1  0
 35 67  1  0
 35 68  1  0
M  END
>  <smiles>  (34) 
CCC(=O)N(c1ccccc1)C1CCN(C(=O)[C@@H](N)C2c3ccccc3C2c2ccccc2)CC1

>  <score_type>  (34) 
oracle

>  <origin>  (34) 
autodockgpu

>  <m_score__min__energy>  (34) 
-8.5999999999999996

>  <m_primary>  (34) 
energy

>  <rmsd>  (34) 
10.10315819792038

>  <m_score__min__rmsd>  (34) 
10.10315819792038

>  <meeko>  (34) 
{"free_energy": -8.58, "intermolecular_energy": -10.97, "internal_energy": -3.02, "cluster_size": 34, "cluster_id": 1, "rank_in_cluster": 5}

>  <energy>  (34) 
-8.32

>  <cluster_rmsd>  (34) 
0.35

>  <cluster>  (34) 
1

$$$$

     RDKit          3D

 68 72  0  0  0  0  0  0  0  0999 V2000
  135.2600   82.7900  221.6830 C   0  0  0  0  0  0  0  0  0  0  0  0
  135.0880   83.2590  223.1060 C   0  0  0  0  0  0  0  0  0  0  0  0
  136.3750   83.0600  223.8390 C   0  0  0  0  0  0  0  0  0  0  0  0
  137.3370   83.7910  223.5140 O   0  0  0  0  0  0  0  0  0  0  0  0
  136.4690   82.0640  224.8650 N   0  0  0  0  0  0  0  0  0  0  0  0
  136.1100   82.4220  226.1930 C   0  0  0  0  0  0  0  0  0  0  0  0
  136.1130   81.3940  227.1430 C   0  0  0  0  0  0  0  0  0  0  0  0
  135.7700   81.6480  228.4600 C   0  0  0  0  0  0  0  0  0  0  0  0
  135.4360   82.9480  228.7650 C   0  0  0  0  0  0  0  0  0  0  0  0
  135.4240   83.9760  227.8600 C   0  0  0  0  0  0  0  0  0  0  0  0
  135.7640   83.7110  226.5590 C   0  0  0  0  0  0  0  0  0  0  0  0
  136.9190   80.7220  224.4980 C   0  0  0  0  0  0  0  0  0  0  0  0
  138.0920   80.8720  223.5340 C   0  0  0  0  0  0  0  0  0  0  0  0
  138.6710   79.4780  223.3560 C   0  0  0  0  0  0  0  0  0  0  0  0
  137.6210   78.6010  222.9010 N   0  0  0  0  0  0  0  0  0  0  0  0
  137.9310   77.2730  222.4120 C   0  0  0  0  0  0  0  0  0  0  0  0
  136.9910   76.5150  221.9860 O   0  0  0  0  0  0  0  0  0  0  0  0
  139.2860   76.6940  222.3580 C   0  0  1  0  0  0  0  0  0  0  0  0
  139.2180   75.2860  222.7200 N   0  0  0  0  0  0  0  0  0  0  0  0
  139.9020   76.7950  221.0090 C   0  0  2  0  0  0  0  0  0  0  0  0
  141.0180   75.8360  220.7670 C   0  0  0  0  0  0  0  0  0  0  0  0
  141.5620   74.5710  220.7580 C   0  0  0  0  0  0  0  0  0  0  0  0
  142.8520   74.3290  220.3310 C   0  0  0  0  0  0  0  0  0  0  0  0
  143.6450   75.3900  219.8910 C   0  0  0  0  0  0  0  0  0  0  0  0
  143.1050   76.6830  219.8940 C   0  0  0  0  0  0  0  0  0  0  0  0
  141.7940   76.8840  220.3360 C   0  0  0  0  0  0  0  0  0  0  0  0
  140.7260   77.9250  220.5950 C   0  0  2  0  0  0  0  0  0  0  0  0
  141.2760   78.9090  221.5350 C   0  0  0  0  0  0  0  0  0  0  0  0
  141.3070   80.2680  221.1810 C   0  0  0  0  0  0  0  0  0  0  0  0
  141.8340   81.2140  222.0260 C   0  0  0  0  0  0  0  0  0  0  0  0
  142.3600   80.8980  223.2560 C   0  0  0  0  0  0  0  0  0  0  0  0
  142.3400   79.5500  223.6300 C   0  0  0  0  0  0  0  0  0  0  0  0
  141.8070   78.6130  222.7690 C   0  0  0  0  0  0  0  0  0  0  0  0
  136.2090   78.9250  222.8750 C   0  0  0  0  0  0  0  0  0  0  0  0
  135.7920   80.0240  223.7950 C   0  0  0  0  0  0  0  0  0  0  0  0
  135.6387   81.7573  221.6806 H   0  0  0  0  0  0  0  0  0  0  0  0
  134.2901   82.8261  221.1653 H   0  0  0  0  0  0  0  0  0  0  0  0
  135.9766   83.4446  221.1653 H   0  0  0  0  0  0  0  0  0  0  0  0
  134.8197   84.3257  223.1135 H   0  0  0  0  0  0  0  0  0  0  0  0
  134.2876   82.6837  223.5943 H   0  0  0  0  0  0  0  0  0  0  0  0
  136.3908   80.3737  226.8400 H   0  0  0  0  0  0  0  0  0  0  0  0
  135.7647   80.8540  229.2213 H   0  0  0  0  0  0  0  0  0  0  0  0
  135.1603   83.1766  229.8051 H   0  0  0  0  0  0  0  0  0  0  0  0
  135.1470   84.9941  228.1712 H   0  0  0  0  0  0  0  0  0  0  0  0
  135.7619   84.5174  225.8109 H   0  0  0  0  0  0  0  0  0  0  0  0
  137.2219   80.1466  225.3852 H   0  0  0  0  0  0  0  0  0  0  0  0
  137.7444   81.2674  222.5681 H   0  0  0  0  0  0  0  0  0  0  0  0
  138.8448   81.5736  223.9226 H   0  0  0  0  0  0  0  0  0  0  0  0
  139.4806   79.5048  222.6118 H   0  0  0  0  0  0  0  0  0  0  0  0
  139.0783   79.1144  224.3109 H   0  0  0  0  0  0  0  0  0  0  0  0
  139.9088   77.2666  223.0610 H   0  0  0  0  0  0  0  0  0  0  0  0
  138.2280   74.9530  222.7150 H   0  0  0  0  0  0  0  0  0  0  0  0
  139.5480   75.1970  223.7120 H   0  0  0  0  0  0  0  0  0  0  0  0
  138.9253   76.7258  220.5077 H   0  0  0  0  0  0  0  0  0  0  0  0
  140.9483   73.7256  221.1024 H   0  0  0  0  0  0  0  0  0  0  0  0
  143.2532   73.3048  220.3374 H   0  0  0  0  0  0  0  0  0  0  0  0
  144.6753   75.2143  219.5481 H   0  0  0  0  0  0  0  0  0  0  0  0
  143.7094   77.5354  219.5504 H   0  0  0  0  0  0  0  0  0  0  0  0
  140.2569   78.6460  219.9094 H   0  0  0  0  0  0  0  0  0  0  0  0
  140.9012   80.5809  220.2077 H   0  0  0  0  0  0  0  0  0  0  0  0
  141.8351   82.2663  221.7057 H   0  0  0  0  0  0  0  0  0  0  0  0
  142.7783   81.6711  223.9173 H   0  0  0  0  0  0  0  0  0  0  0  0
  142.7464   79.2394  224.6038 H   0  0  0  0  0  0  0  0  0  0  0  0
  141.8066   77.5609  223.0901 H   0  0  0  0  0  0  0  0  0  0  0  0
  135.9469   79.2224  221.8489 H   0  0  0  0  0  0  0  0  0  0  0  0
  135.6824   78.0226  223.2191 H   0  0  0  0  0  0  0  0  0  0  0  0
  135.2413   80.7721  223.2059 H   0  0  0  0  0  0  0  0  0  0  0  0
  135.1827   79.5536  224.5808 H   0  0  0  0  0  0  0  0  0  0  0  0
  1  2  1  0
  2  3  1  0
  3  4  2  0
  3  5  1  0
  5  6  1  0
  6  7  2  0
  7  8  1  0
  8  9  2  0
  9 10  1  0
 10 11  2  0
  5 12  1  0
 12 13  1  0
 13 14  1  0
 14 15  1  0
 15 16  1  0
 16 17  2  0
 16 18  1  0
 18 19  1  0
 18 20  1  0
 20 21  1  0
 21 22  2  0
 22 23  1  0
 23 24  2  0
 24 25  1  0
 25 26  2  0
 26 27  1  0
 27 28  1  0
 28 29  2  0
 29 30  1  0
 30 31  2  0
 31 32  1  0
 32 33  2  0
 15 34  1  0
 34 35  1  0
 11  6  1  0
 35 12  1  0
 27 20  1  0
 33 28  1  0
 26 21  1  0
  1 36  1  0
  1 37  1  0
  1 38  1  0
  2 39  1  0
  2 40  1  0
  7 41  1  0
  8 42  1  0
  9 43  1  0
 10 44  1  0
 11 45  1  0
 12 46  1  0
 13 47  1  0
 13 48  1  0
 14 49  1  0
 14 50  1  0
 18 51  1  1
 19 52  1  0
 19 53  1  0
 20 54  1  6
 22 55  1  0
 23 56  1  0
 24 57  1  0
 25 58  1  0
 27 59  1  6
 29 60  1  0
 30 61  1  0
 31 62  1  0
 32 63  1  0
 33 64  1  0
 34 65  1  0
 34 66  1  0
 35 67  1  0
 35 68  1  0
M  END
>  <smiles>  (35) 
CCC(=O)N(c1ccccc1)C1CCN(C(=O)[C@@H](N)C2c3ccccc3C2c2ccccc2)CC1

>  <score_type>  (35) 
oracle

>  <origin>  (35) 
autodockgpu

>  <m_score__min__energy>  (35) 
-8.5999999999999996

>  <m_primary>  (35) 
energy

>  <rmsd>  (35) 
8.22857026302577

>  <m_score__min__rmsd>  (35) 
8.22857026302577

>  <meeko>  (35) 
{"free_energy": -8.09, "intermolecular_energy": -10.48, "internal_energy": -3.38, "cluster_size": 15, "cluster_id": 2, "rank_in_cluster": 8}

>  <energy>  (35) 
-8.22

>  <cluster_rmsd>  (35) 
0.0

>  <cluster>  (35) 
2

$$$$

     RDKit          3D

 68 72  0  0  0  0  0  0  0  0999 V2000
  136.2010   72.4350  223.1680 C   0  0  0  0  0  0  0  0  0  0  0  0
  136.9980   71.2270  223.5900 C   0  0  0  0  0  0  0  0  0  0  0  0
  138.2450   71.1610  222.7710 C   0  0  0  0  0  0  0  0  0  0  0  0
  138.1180   70.8960  221.5550 O   0  0  0  0  0  0  0  0  0  0  0  0
  139.5190   71.3950  223.3840 N   0  0  0  0  0  0  0  0  0  0  0  0
  139.8240   70.7160  224.5960 C   0  0  0  0  0  0  0  0  0  0  0  0
  140.4070   71.4780  225.6140 C   0  0  0  0  0  0  0  0  0  0  0  0
  140.7440   70.9000  226.8260 C   0  0  0  0  0  0  0  0  0  0  0  0
  140.4700   69.5580  226.9600 C   0  0  0  0  0  0  0  0  0  0  0  0
  139.9000   68.7830  225.9850 C   0  0  0  0  0  0  0  0  0  0  0  0
  139.5720   69.3680  224.7890 C   0  0  0  0  0  0  0  0  0  0  0  0
  140.4530   72.3100  222.7320 C   0  0  0  0  0  0  0  0  0  0  0  0
  139.6500   73.4960  222.2050 C   0  0  0  0  0  0  0  0  0  0  0  0
  140.6700   74.5220  221.7400 C   0  0  0  0  0  0  0  0  0  0  0  0
  141.5380   73.9000  220.7720 N   0  0  0  0  0  0  0  0  0  0  0  0
  142.4460   74.6980  219.9760 C   0  0  0  0  0  0  0  0  0  0  0  0
  143.1920   74.1340  219.1000 O   0  0  0  0  0  0  0  0  0  0  0  0
  142.5960   76.1610  220.0870 C   0  0  1  0  0  0  0  0  0  0  0  0
  143.7740   76.5790  219.3430 N   0  0  0  0  0  0  0  0  0  0  0  0
  141.4240   76.9030  219.5520 C   0  0  2  0  0  0  0  0  0  0  0  0
  141.7390   77.8180  218.4180 C   0  0  0  0  0  0  0  0  0  0  0  0
  142.2890   78.0940  217.1860 C   0  0  0  0  0  0  0  0  0  0  0  0
  142.1960   79.3410  216.6030 C   0  0  0  0  0  0  0  0  0  0  0  0
  141.5250   80.3680  217.2690 C   0  0  0  0  0  0  0  0  0  0  0  0
  140.9610   80.1020  218.5230 C   0  0  0  0  0  0  0  0  0  0  0  0
  141.0790   78.8250  219.0790 C   0  0  0  0  0  0  0  0  0  0  0  0
  140.7570   77.9710  220.2870 C   0  0  2  0  0  0  0  0  0  0  0  0
  141.3380   78.6230  221.4670 C   0  0  0  0  0  0  0  0  0  0  0  0
  141.1640   78.0470  222.7360 C   0  0  0  0  0  0  0  0  0  0  0  0
  141.6750   78.6400  223.8650 C   0  0  0  0  0  0  0  0  0  0  0  0
  142.3790   79.8200  223.8280 C   0  0  0  0  0  0  0  0  0  0  0  0
  142.5640   80.4120  222.5740 C   0  0  0  0  0  0  0  0  0  0  0  0
  142.0450   79.8030  221.4500 C   0  0  0  0  0  0  0  0  0  0  0  0
  141.5970   72.4790  220.4900 C   0  0  0  0  0  0  0  0  0  0  0  0
  141.0850   71.5930  221.5750 C   0  0  0  0  0  0  0  0  0  0  0  0
  135.8473   72.9711  224.0610 H   0  0  0  0  0  0  0  0  0  0  0  0
  136.8368   73.1023  222.5675 H   0  0  0  0  0  0  0  0  0  0  0  0
  135.3374   72.1130  222.5675 H   0  0  0  0  0  0  0  0  0  0  0  0
  137.2596   71.3107  224.6551 H   0  0  0  0  0  0  0  0  0  0  0  0
  136.4024   70.3150  223.4368 H   0  0  0  0  0  0  0  0  0  0  0  0
  140.5998   72.5484  225.4497 H   0  0  0  0  0  0  0  0  0  0  0  0
  141.2056   71.4816  227.6376 H   0  0  0  0  0  0  0  0  0  0  0  0
  140.7261   69.0751  227.9146 H   0  0  0  0  0  0  0  0  0  0  0  0
  139.7093   67.7135  226.1579 H   0  0  0  0  0  0  0  0  0  0  0  0
  139.1118   68.7706  223.9882 H   0  0  0  0  0  0  0  0  0  0  0  0
  141.2302   72.6513  223.4316 H   0  0  0  0  0  0  0  0  0  0  0  0
  139.0132   73.1827  221.3646 H   0  0  0  0  0  0  0  0  0  0  0  0
  138.9884   73.9098  222.9803 H   0  0  0  0  0  0  0  0  0  0  0  0
  140.1528   75.3765  221.2792 H   0  0  0  0  0  0  0  0  0  0  0  0
  141.2587   74.8822  222.5966 H   0  0  0  0  0  0  0  0  0  0  0  0
  142.6867   76.3936  221.1583 H   0  0  0  0  0  0  0  0  0  0  0  0
  144.3630   75.7530  219.0950 H   0  0  0  0  0  0  0  0  0  0  0  0
  144.3610   77.1700  219.9810 H   0  0  0  0  0  0  0  0  0  0  0  0
  140.8342   75.9813  219.4396 H   0  0  0  0  0  0  0  0  0  0  0  0
  142.8199   77.2940  216.6492 H   0  0  0  0  0  0  0  0  0  0  0  0
  142.6487   79.5251  215.6175 H   0  0  0  0  0  0  0  0  0  0  0  0
  141.4408   81.3675  216.8174 H   0  0  0  0  0  0  0  0  0  0  0  0
  140.4274   80.8946  219.0680 H   0  0  0  0  0  0  0  0  0  0  0  0
  139.7868   77.7201  220.7405 H   0  0  0  0  0  0  0  0  0  0  0  0
  140.6077   77.1025  222.8278 H   0  0  0  0  0  0  0  0  0  0  0  0
  141.5144   78.1511  224.8372 H   0  0  0  0  0  0  0  0  0  0  0  0
  142.7793   80.2787  224.7442 H   0  0  0  0  0  0  0  0  0  0  0  0
  143.1197   81.3571  222.4847 H   0  0  0  0  0  0  0  0  0  0  0  0
  142.2069   80.2923  220.4782 H   0  0  0  0  0  0  0  0  0  0  0  0
  141.0019   72.2870  219.5850 H   0  0  0  0  0  0  0  0  0  0  0  0
  142.6635   72.2352  220.3756 H   0  0  0  0  0  0  0  0  0  0  0  0
  140.3331   70.9188  221.1391 H   0  0  0  0  0  0  0  0  0  0  0  0
  141.9607   71.0652  221.9808 H   0  0  0  0  0  0  0  0  0  0  0  0
  1  2  1  0
  2  3  1  0
  3  4  2  0
  3  5  1  0
  5  6  1  0
  6  7  2  0
  7  8  1  0
  8  9  2  0
  9 10  1  0
 10 11  2  0
  5 12  1  0
 12 13  1  0
 13 14  1  0
 14 15  1  0
 15 16  1  0
 16 17  2  0
 16 18  1  0
 18 19  1  0
 18 20  1  0
 20 21  1  0
 21 22  2  0
 22 23  1  0
 23 24  2  0
 24 25  1  0
 25 26  2  0
 26 27  1  0
 27 28  1  0
 28 29  2  0
 29 30  1  0
 30 31  2  0
 31 32  1  0
 32 33  2  0
 15 34  1  0
 34 35  1  0
 11  6  1  0
 35 12  1  0
 27 20  1  0
 33 28  1  0
 26 21  1  0
  1 36  1  0
  1 37  1  0
  1 38  1  0
  2 39  1  0
  2 40  1  0
  7 41  1  0
  8 42  1  0
  9 43  1  0
 10 44  1  0
 11 45  1  0
 12 46  1  0
 13 47  1  0
 13 48  1  0
 14 49  1  0
 14 50  1  0
 18 51  1  1
 19 52  1  0
 19 53  1  0
 20 54  1  6
 22 55  1  0
 23 56  1  0
 24 57  1  0
 25 58  1  0
 27 59  1  1
 29 60  1  0
 30 61  1  0
 31 62  1  0
 32 63  1  0
 33 64  1  0
 34 65  1  0
 34 66  1  0
 35 67  1  0
 35 68  1  0
M  END
>  <smiles>  (36) 
CCC(=O)N(c1ccccc1)C1CCN(C(=O)[C@@H](N)C2c3ccccc3C2c2ccccc2)CC1

>  <score_type>  (36) 
oracle

>  <origin>  (36) 
autodockgpu

>  <m_score__min__energy>  (36) 
-8.5999999999999996

>  <m_primary>  (36) 
energy

>  <rmsd>  (36) 
10.061014435232005

>  <m_score__min__rmsd>  (36) 
10.061014435232005

>  <meeko>  (36) 
{"free_energy": -8.53, "intermolecular_energy": -10.92, "internal_energy": -3.03, "cluster_size": 34, "cluster_id": 1, "rank_in_cluster": 21}

>  <energy>  (36) 
-8.19

>  <cluster_rmsd>  (36) 
0.16

>  <cluster>  (36) 
2

$$$$

     RDKit          3D

 68 72  0  0  0  0  0  0  0  0999 V2000
  136.2280   72.6550  222.9450 C   0  0  0  0  0  0  0  0  0  0  0  0
  137.0140   71.4850  223.4830 C   0  0  0  0  0  0  0  0  0  0  0  0
  138.2540   71.3200  222.6660 C   0  0  0  0  0  0  0  0  0  0  0  0
  138.1110   70.9850  221.4700 O   0  0  0  0  0  0  0  0  0  0  0  0
  139.5390   71.5440  223.2600 N   0  0  0  0  0  0  0  0  0  0  0  0
  139.8610   70.8510  224.4590 C   0  0  0  0  0  0  0  0  0  0  0  0
  140.6740   71.5270  225.3750 C   0  0  0  0  0  0  0  0  0  0  0  0
  141.0450   70.9290  226.5680 C   0  0  0  0  0  0  0  0  0  0  0  0
  140.5690   69.6560  226.7870 C   0  0  0  0  0  0  0  0  0  0  0  0
  139.7710   68.9670  225.9120 C   0  0  0  0  0  0  0  0  0  0  0  0
  139.4120   69.5700  224.7350 C   0  0  0  0  0  0  0  0  0  0  0  0
  140.4640   72.4620  222.6010 C   0  0  0  0  0  0  0  0  0  0  0  0
  139.6510   73.6350  222.0620 C   0  0  0  0  0  0  0  0  0  0  0  0
  140.6620   74.6670  221.5900 C   0  0  0  0  0  0  0  0  0  0  0  0
  141.5370   74.0450  220.6290 N   0  0  0  0  0  0  0  0  0  0  0  0
  142.4400   74.8450  219.8270 C   0  0  0  0  0  0  0  0  0  0  0  0
  143.1930   74.2810  218.9580 O   0  0  0  0  0  0  0  0  0  0  0  0
  142.5750   76.3100  219.9260 C   0  0  1  0  0  0  0  0  0  0  0  0
  143.7030   76.7420  219.1150 N   0  0  0  0  0  0  0  0  0  0  0  0
  141.3640   77.0330  219.4570 C   0  0  2  0  0  0  0  0  0  0  0  0
  141.6220   78.0360  218.3850 C   0  0  0  0  0  0  0  0  0  0  0  0
  142.1400   78.4200  217.1680 C   0  0  0  0  0  0  0  0  0  0  0  0
  141.9840   79.6990  216.6720 C   0  0  0  0  0  0  0  0  0  0  0  0
  141.2790   80.6460  217.4150 C   0  0  0  0  0  0  0  0  0  0  0  0
  140.7450   80.2710  218.6550 C   0  0  0  0  0  0  0  0  0  0  0  0
  140.9280   78.9660  219.1210 C   0  0  0  0  0  0  0  0  0  0  0  0
  140.6620   78.0180  220.2710 C   0  0  2  0  0  0  0  0  0  0  0  0
  141.2310   78.6140  221.4860 C   0  0  0  0  0  0  0  0  0  0  0  0
  142.0040   79.7830  221.3910 C   0  0  0  0  0  0  0  0  0  0  0  0
  142.5710   80.3560  222.5030 C   0  0  0  0  0  0  0  0  0  0  0  0
  142.4240   79.8300  223.7640 C   0  0  0  0  0  0  0  0  0  0  0  0
  141.6590   78.6650  223.8830 C   0  0  0  0  0  0  0  0  0  0  0  0
  141.0950   78.1020  222.7560 C   0  0  0  0  0  0  0  0  0  0  0  0
  141.6120   72.6230  220.3600 C   0  0  0  0  0  0  0  0  0  0  0  0
  141.1060   71.7410  221.4520 C   0  0  0  0  0  0  0  0  0  0  0  0
  135.8307   73.2463  223.7832 H   0  0  0  0  0  0  0  0  0  0  0  0
  136.8856   73.2867  222.3298 H   0  0  0  0  0  0  0  0  0  0  0  0
  135.3946   72.2850  222.3298 H   0  0  0  0  0  0  0  0  0  0  0  0
  137.2852   71.6732  224.5323 H   0  0  0  0  0  0  0  0  0  0  0  0
  136.4061   70.5699  223.4278 H   0  0  0  0  0  0  0  0  0  0  0  0
  141.0225   72.5447  225.1453 H   0  0  0  0  0  0  0  0  0  0  0  0
  141.6849   71.4431  227.3003 H   0  0  0  0  0  0  0  0  0  0  0  0
  140.8481   69.1586  227.7276 H   0  0  0  0  0  0  0  0  0  0  0  0
  139.4254   67.9501  226.1496 H   0  0  0  0  0  0  0  0  0  0  0  0
  138.7716   69.0404  224.0143 H   0  0  0  0  0  0  0  0  0  0  0  0
  141.2362   72.8176  223.2991 H   0  0  0  0  0  0  0  0  0  0  0  0
  139.0191   73.3081  221.2230 H   0  0  0  0  0  0  0  0  0  0  0  0
  138.9837   74.0491  222.8322 H   0  0  0  0  0  0  0  0  0  0  0  0
  140.1375   75.5126  221.1211 H   0  0  0  0  0  0  0  0  0  0  0  0
  141.2457   75.0403  222.4443 H   0  0  0  0  0  0  0  0  0  0  0  0
  142.7232   76.5478  220.9897 H   0  0  0  0  0  0  0  0  0  0  0  0
  144.2930   75.9240  218.8430 H   0  0  0  0  0  0  0  0  0  0  0  0
  144.3110   77.3510  219.7130 H   0  0  0  0  0  0  0  0  0  0  0  0
  140.8134   76.0957  219.2888 H   0  0  0  0  0  0  0  0  0  0  0  0
  142.6968   77.6828  216.5710 H   0  0  0  0  0  0  0  0  0  0  0  0
  142.4133   79.9698  215.6961 H   0  0  0  0  0  0  0  0  0  0  0  0
  141.1447   81.6692  217.0341 H   0  0  0  0  0  0  0  0  0  0  0  0
  140.1845   81.0000  219.2587 H   0  0  0  0  0  0  0  0  0  0  0  0
  139.7106   77.6933  220.7175 H   0  0  0  0  0  0  0  0  0  0  0  0
  142.1583   80.2488  220.4065 H   0  0  0  0  0  0  0  0  0  0  0  0
  143.1665   81.2725  222.3793 H   0  0  0  0  0  0  0  0  0  0  0  0
  142.8877   80.3044  224.6415 H   0  0  0  0  0  0  0  0  0  0  0  0
  141.5078   78.2004  224.8686 H   0  0  0  0  0  0  0  0  0  0  0  0
  140.4990   77.1859  222.8810 H   0  0  0  0  0  0  0  0  0  0  0  0
  141.0217   72.4165  219.4551 H   0  0  0  0  0  0  0  0  0  0  0  0
  142.6814   72.3896  220.2507 H   0  0  0  0  0  0  0  0  0  0  0  0
  140.3619   71.0555  221.0203 H   0  0  0  0  0  0  0  0  0  0  0  0
  141.9858   71.2255  221.8645 H   0  0  0  0  0  0  0  0  0  0  0  0
  1  2  1  0
  2  3  1  0
  3  4  2  0
  3  5  1  0
  5  6  1  0
  6  7  2  0
  7  8  1  0
  8  9  2  0
  9 10  1  0
 10 11  2  0
  5 12  1  0
 12 13  1  0
 13 14  1  0
 14 15  1  0
 15 16  1  0
 16 17  2  0
 16 18  1  0
 18 19  1  0
 18 20  1  0
 20 21  1  0
 21 22  2  0
 22 23  1  0
 23 24  2  0
 24 25  1  0
 25 26  2  0
 26 27  1  0
 27 28  1  0
 28 29  2  0
 29 30  1  0
 30 31  2  0
 31 32  1  0
 32 33  2  0
 15 34  1  0
 34 35  1  0
 11  6  1  0
 35 12  1  0
 27 20  1  0
 33 28  1  0
 26 21  1  0
  1 36  1  0
  1 37  1  0
  1 38  1  0
  2 39  1  0
  2 40  1  0
  7 41  1  0
  8 42  1  0
  9 43  1  0
 10 44  1  0
 11 45  1  0
 12 46  1  0
 13 47  1  0
 13 48  1  0
 14 49  1  0
 14 50  1  0
 18 51  1  1
 19 52  1  0
 19 53  1  0
 20 54  1  6
 22 55  1  0
 23 56  1  0
 24 57  1  0
 25 58  1  0
 27 59  1  1
 29 60  1  0
 30 61  1  0
 31 62  1  0
 32 63  1  0
 33 64  1  0
 34 65  1  0
 34 66  1  0
 35 67  1  0
 35 68  1  0
M  END
>  <smiles>  (37) 
CCC(=O)N(c1ccccc1)C1CCN(C(=O)[C@@H](N)C2c3ccccc3C2c2ccccc2)CC1

>  <score_type>  (37) 
oracle

>  <origin>  (37) 
autodockgpu

>  <m_score__min__energy>  (37) 
-8.5999999999999996

>  <m_primary>  (37) 
energy

>  <rmsd>  (37) 
10.1570037755868

>  <m_score__min__rmsd>  (37) 
10.1570037755868

>  <meeko>  (37) 
{"free_energy": -8.56, "intermolecular_energy": -10.94, "internal_energy": -3.0, "cluster_size": 34, "cluster_id": 1, "rank_in_cluster": 15}

>  <energy>  (37) 
-8.14

>  <cluster_rmsd>  (37) 
0.26

>  <cluster>  (37) 
2

$$$$

     RDKit          3D

 68 72  0  0  0  0  0  0  0  0999 V2000
  134.1690   82.9890  223.0860 C   0  0  0  0  0  0  0  0  0  0  0  0
  135.6470   82.9100  222.7960 C   0  0  0  0  0  0  0  0  0  0  0  0
  136.4000   83.0890  224.0740 C   0  0  0  0  0  0  0  0  0  0  0  0
  136.9950   84.1760  224.2390 O   0  0  0  0  0  0  0  0  0  0  0  0
  136.4190   82.0380  225.0480 N   0  0  0  0  0  0  0  0  0  0  0  0
  135.9830   82.3300  226.3690 C   0  0  0  0  0  0  0  0  0  0  0  0
  136.3850   81.4430  227.3740 C   0  0  0  0  0  0  0  0  0  0  0  0
  136.0030   81.6430  228.6890 C   0  0  0  0  0  0  0  0  0  0  0  0
  135.2210   82.7480  228.9370 C   0  0  0  0  0  0  0  0  0  0  0  0
  134.8100   83.6360  227.9770 C   0  0  0  0  0  0  0  0  0  0  0  0
  135.1950   83.4250  226.6790 C   0  0  0  0  0  0  0  0  0  0  0  0
  136.8750   80.7120  224.6370 C   0  0  0  0  0  0  0  0  0  0  0  0
  138.0520   80.8990  223.6840 C   0  0  0  0  0  0  0  0  0  0  0  0
  138.6370   79.5130  223.4610 C   0  0  0  0  0  0  0  0  0  0  0  0
  137.5920   78.6490  222.9710 N   0  0  0  0  0  0  0  0  0  0  0  0
  137.9090   77.3410  222.4380 C   0  0  0  0  0  0  0  0  0  0  0  0
  136.9730   76.5940  221.9810 O   0  0  0  0  0  0  0  0  0  0  0  0
  139.2660   76.7680  222.3700 C   0  0  1  0  0  0  0  0  0  0  0  0
  139.2070   75.3560  222.7180 N   0  0  0  0  0  0  0  0  0  0  0  0
  139.8740   76.8860  221.0180 C   0  0  2  0  0  0  0  0  0  0  0  0
  140.9870   75.9290  220.7570 C   0  0  0  0  0  0  0  0  0  0  0  0
  141.5290   74.6630  220.7280 C   0  0  0  0  0  0  0  0  0  0  0  0
  142.8170   74.4260  220.2900 C   0  0  0  0  0  0  0  0  0  0  0  0
  143.6070   75.4920  219.8580 C   0  0  0  0  0  0  0  0  0  0  0  0
  143.0690   76.7850  219.8820 C   0  0  0  0  0  0  0  0  0  0  0  0
  141.7610   76.9820  220.3340 C   0  0  0  0  0  0  0  0  0  0  0  0
  140.6960   78.0200  220.6140 C   0  0  2  0  0  0  0  0  0  0  0  0
  141.2530   78.9920  221.5630 C   0  0  0  0  0  0  0  0  0  0  0  0
  141.3130   80.3510  221.2130 C   0  0  0  0  0  0  0  0  0  0  0  0
  141.8470   81.2840  222.0670 C   0  0  0  0  0  0  0  0  0  0  0  0
  142.3530   80.9560  223.3020 C   0  0  0  0  0  0  0  0  0  0  0  0
  142.3050   79.6080  223.6710 C   0  0  0  0  0  0  0  0  0  0  0  0
  141.7650   78.6820  222.8020 C   0  0  0  0  0  0  0  0  0  0  0  0
  136.1790   78.9700  222.9500 C   0  0  0  0  0  0  0  0  0  0  0  0
  135.7540   80.0340  223.9050 C   0  0  0  0  0  0  0  0  0  0  0  0
  134.0088   82.9976  224.1742 H   0  0  0  0  0  0  0  0  0  0  0  0
  133.7581   83.9104  222.6476 H   0  0  0  0  0  0  0  0  0  0  0  0
  133.6622   82.1167  222.6476 H   0  0  0  0  0  0  0  0  0  0  0  0
  135.8861   81.9285  222.3606 H   0  0  0  0  0  0  0  0  0  0  0  0
  135.9300   83.6980  222.0826 H   0  0  0  0  0  0  0  0  0  0  0  0
  137.0119   80.5768  227.1157 H   0  0  0  0  0  0  0  0  0  0  0  0
  136.3078   80.9561  229.4923 H   0  0  0  0  0  0  0  0  0  0  0  0
  134.9047   82.9308  229.9746 H   0  0  0  0  0  0  0  0  0  0  0  0
  134.1839   84.5004  228.2432 H   0  0  0  0  0  0  0  0  0  0  0  0
  134.8798   84.1216  225.8881 H   0  0  0  0  0  0  0  0  0  0  0  0
  137.1757   80.1077  225.5055 H   0  0  0  0  0  0  0  0  0  0  0  0
  137.7074   81.3261  222.7307 H   0  0  0  0  0  0  0  0  0  0  0  0
  138.8005   81.5895  224.0998 H   0  0  0  0  0  0  0  0  0  0  0  0
  139.4501   79.5679  222.7221 H   0  0  0  0  0  0  0  0  0  0  0  0
  139.0411   79.1181  224.4048 H   0  0  0  0  0  0  0  0  0  0  0  0
  139.8902   77.3359  223.0756 H   0  0  0  0  0  0  0  0  0  0  0  0
  138.2160   75.0270  222.7480 H   0  0  0  0  0  0  0  0  0  0  0  0
  139.5750   75.2530  223.6940 H   0  0  0  0  0  0  0  0  0  0  0  0
  138.8943   76.8244  220.5215 H   0  0  0  0  0  0  0  0  0  0  0  0
  140.9163   73.8137  221.0645 H   0  0  0  0  0  0  0  0  0  0  0  0
  143.2183   73.4018  220.2817 H   0  0  0  0  0  0  0  0  0  0  0  0
  144.6344   75.3199  219.5047 H   0  0  0  0  0  0  0  0  0  0  0  0
  143.6728   77.6412  219.5468 H   0  0  0  0  0  0  0  0  0  0  0  0
  140.2230   78.7505  219.9412 H   0  0  0  0  0  0  0  0  0  0  0  0
  140.9247   80.6740  220.2358 H   0  0  0  0  0  0  0  0  0  0  0  0
  141.8708   82.3370  221.7498 H   0  0  0  0  0  0  0  0  0  0  0  0
  142.7769   81.7198  223.9705 H   0  0  0  0  0  0  0  0  0  0  0  0
  142.6954   79.2877  224.6482 H   0  0  0  0  0  0  0  0  0  0  0  0
  141.7424   77.6292  223.1200 H   0  0  0  0  0  0  0  0  0  0  0  0
  135.9208   79.3024  221.9337 H   0  0  0  0  0  0  0  0  0  0  0  0
  135.6539   78.0546  223.2603 H   0  0  0  0  0  0  0  0  0  0  0  0
  135.2027   80.7999  223.3397 H   0  0  0  0  0  0  0  0  0  0  0  0
  135.1436   79.5340  224.6714 H   0  0  0  0  0  0  0  0  0  0  0  0
  1  2  1  0
  2  3  1  0
  3  4  2  0
  3  5  1  0
  5  6  1  0
  6  7  2  0
  7  8  1  0
  8  9  2  0
  9 10  1  0
 10 11  2  0
  5 12  1  0
 12 13  1  0
 13 14  1  0
 14 15  1  0
 15 16  1  0
 16 17  2  0
 16 18  1  0
 18 19  1  0
 18 20  1  0
 20 21  1  0
 21 22  2  0
 22 23  1  0
 23 24  2  0
 24 25  1  0
 25 26  2  0
 26 27  1  0
 27 28  1  0
 28 29  2  0
 29 30  1  0
 30 31  2  0
 31 32  1  0
 32 33  2  0
 15 34  1  0
 34 35  1  0
 11  6  1  0
 35 12  1  0
 27 20  1  0
 33 28  1  0
 26 21  1  0
  1 36  1  0
  1 37  1  0
  1 38  1  0
  2 39  1  0
  2 40  1  0
  7 41  1  0
  8 42  1  0
  9 43  1  0
 10 44  1  0
 11 45  1  0
 12 46  1  0
 13 47  1  0
 13 48  1  0
 14 49  1  0
 14 50  1  0
 18 51  1  1
 19 52  1  0
 19 53  1  0
 20 54  1  6
 22 55  1  0
 23 56  1  0
 24 57  1  0
 25 58  1  0
 27 59  1  6
 29 60  1  0
 30 61  1  0
 31 62  1  0
 32 63  1  0
 33 64  1  0
 34 65  1  0
 34 66  1  0
 35 67  1  0
 35 68  1  0
M  END
>  <smiles>  (38) 
CCC(=O)N(c1ccccc1)C1CCN(C(=O)[C@@H](N)C2c3ccccc3C2c2ccccc2)CC1

>  <score_type>  (38) 
oracle

>  <origin>  (38) 
autodockgpu

>  <m_score__min__energy>  (38) 
-8.5999999999999996

>  <m_primary>  (38) 
energy

>  <rmsd>  (38) 
8.299762067941233

>  <m_score__min__rmsd>  (38) 
8.299762067941233

>  <meeko>  (38) 
{"free_energy": -8.14, "intermolecular_energy": -10.52, "internal_energy": -3.27, "cluster_size": 15, "cluster_id": 2, "rank_in_cluster": 3}

>  <energy>  (38) 
-8.13

>  <cluster_rmsd>  (38) 
0.37

>  <cluster>  (38) 
2

$$$$

     RDKit          3D

 68 72  0  0  0  0  0  0  0  0999 V2000
  136.4040   70.2810  224.0030 C   0  0  0  0  0  0  0  0  0  0  0  0
  137.0160   71.5530  223.4730 C   0  0  0  0  0  0  0  0  0  0  0  0
  138.2760   71.2160  222.7450 C   0  0  0  0  0  0  0  0  0  0  0  0
  138.1620   70.7390  221.5940 O   0  0  0  0  0  0  0  0  0  0  0  0
  139.5470   71.4420  223.3680 N   0  0  0  0  0  0  0  0  0  0  0  0
  139.8400   70.7560  224.5780 C   0  0  0  0  0  0  0  0  0  0  0  0
  140.4630   71.5000  225.5870 C   0  0  0  0  0  0  0  0  0  0  0  0
  140.7920   70.9130  226.7970 C   0  0  0  0  0  0  0  0  0  0  0  0
  140.4710   69.5820  226.9390 C   0  0  0  0  0  0  0  0  0  0  0  0
  139.8620   68.8260  225.9730 C   0  0  0  0  0  0  0  0  0  0  0  0
  139.5420   69.4180  224.7790 C   0  0  0  0  0  0  0  0  0  0  0  0
  140.4890   72.3560  222.7260 C   0  0  0  0  0  0  0  0  0  0  0  0
  139.6870   73.5190  222.1470 C   0  0  0  0  0  0  0  0  0  0  0  0
  140.7080   74.5500  221.6940 C   0  0  0  0  0  0  0  0  0  0  0  0
  141.6150   73.9190  220.7680 N   0  0  0  0  0  0  0  0  0  0  0  0
  142.5390   74.7130  219.9840 C   0  0  0  0  0  0  0  0  0  0  0  0
  143.3200   74.1410  219.1460 O   0  0  0  0  0  0  0  0  0  0  0  0
  142.6640   76.1800  220.0690 C   0  0  1  0  0  0  0  0  0  0  0  0
  143.8260   76.6050  219.3020 N   0  0  0  0  0  0  0  0  0  0  0  0
  141.4730   76.8920  219.5370 C   0  0  2  0  0  0  0  0  0  0  0  0
  141.7650   77.8280  218.4140 C   0  0  0  0  0  0  0  0  0  0  0  0
  142.3110   78.1330  217.1870 C   0  0  0  0  0  0  0  0  0  0  0  0
  142.1830   79.3840  216.6160 C   0  0  0  0  0  0  0  0  0  0  0  0
  141.4790   80.3820  217.2900 C   0  0  0  0  0  0  0  0  0  0  0  0
  140.9190   80.0870  218.5400 C   0  0  0  0  0  0  0  0  0  0  0  0
  141.0730   78.8090  219.0830 C   0  0  0  0  0  0  0  0  0  0  0  0
  140.7720   77.9320  220.2800 C   0  0  2  0  0  0  0  0  0  0  0  0
  141.3300   78.5890  221.4690 C   0  0  0  0  0  0  0  0  0  0  0  0
  141.1000   78.0380  222.7400 C   0  0  0  0  0  0  0  0  0  0  0  0
  141.5880   78.6360  223.8760 C   0  0  0  0  0  0  0  0  0  0  0  0
  142.3200   79.7980  223.8460 C   0  0  0  0  0  0  0  0  0  0  0  0
  142.5610   80.3660  222.5900 C   0  0  0  0  0  0  0  0  0  0  0  0
  142.0640   79.7520  221.4580 C   0  0  0  0  0  0  0  0  0  0  0  0
  141.7040   72.4940  220.5190 C   0  0  0  0  0  0  0  0  0  0  0  0
  141.1680   71.6240  221.6060 C   0  0  0  0  0  0  0  0  0  0  0  0
  136.4132   70.3002  225.1028 H   0  0  0  0  0  0  0  0  0  0  0  0
  135.3668   70.1968  223.6464 H   0  0  0  0  0  0  0  0  0  0  0  0
  136.9855   69.4180  223.6464 H   0  0  0  0  0  0  0  0  0  0  0  0
  136.3116   72.0431  222.7848 H   0  0  0  0  0  0  0  0  0  0  0  0
  137.2379   72.2357  224.3065 H   0  0  0  0  0  0  0  0  0  0  0  0
  140.6935   72.5620  225.4167 H   0  0  0  0  0  0  0  0  0  0  0  0
  141.2835   71.4797  227.6015 H   0  0  0  0  0  0  0  0  0  0  0  0
  140.7203   69.0928  227.8922 H   0  0  0  0  0  0  0  0  0  0  0  0
  139.6342   67.7648  226.1518 H   0  0  0  0  0  0  0  0  0  0  0  0
  139.0519   68.8347  223.9856 H   0  0  0  0  0  0  0  0  0  0  0  0
  141.2383   72.7233  223.4427 H   0  0  0  0  0  0  0  0  0  0  0  0
  139.0831   73.1787  221.2929 H   0  0  0  0  0  0  0  0  0  0  0  0
  138.9939   73.9392  222.8907 H   0  0  0  0  0  0  0  0  0  0  0  0
  140.1950   75.3875  221.1986 H   0  0  0  0  0  0  0  0  0  0  0  0
  141.2633   74.9370  222.5611 H   0  0  0  0  0  0  0  0  0  0  0  0
  142.7635   76.4330  221.1349 H   0  0  0  0  0  0  0  0  0  0  0  0
  144.3740   75.7770  218.9770 H   0  0  0  0  0  0  0  0  0  0  0  0
  144.4590   77.1340  219.9490 H   0  0  0  0  0  0  0  0  0  0  0  0
  140.9114   75.9544  219.4126 H   0  0  0  0  0  0  0  0  0  0  0  0
  142.8673   77.3547  216.6440 H   0  0  0  0  0  0  0  0  0  0  0  0
  142.6340   79.5924  215.6346 H   0  0  0  0  0  0  0  0  0  0  0  0
  141.3655   81.3829  216.8479 H   0  0  0  0  0  0  0  0  0  0  0  0
  140.3607   80.8580  219.0912 H   0  0  0  0  0  0  0  0  0  0  0  0
  139.8079   77.6471  220.7264 H   0  0  0  0  0  0  0  0  0  0  0  0
  140.5175   77.1090  222.8275 H   0  0  0  0  0  0  0  0  0  0  0  0
  141.3844   78.1654  224.8492 H   0  0  0  0  0  0  0  0  0  0  0  0
  142.6999   80.2615  224.7684 H   0  0  0  0  0  0  0  0  0  0  0  0
  143.1427   81.2957  222.5053 H   0  0  0  0  0  0  0  0  0  0  0  0
  142.2680   80.2230  220.4851 H   0  0  0  0  0  0  0  0  0  0  0  0
  141.1427   72.2737  219.5990 H   0  0  0  0  0  0  0  0  0  0  0  0
  142.7771   72.2637  220.4452 H   0  0  0  0  0  0  0  0  0  0  0  0
  140.4397   70.9304  221.1604 H   0  0  0  0  0  0  0  0  0  0  0  0
  142.0368   71.1173  222.0514 H   0  0  0  0  0  0  0  0  0  0  0  0
  1  2  1  0
  2  3  1  0
  3  4  2  0
  3  5  1  0
  5  6  1  0
  6  7  2  0
  7  8  1  0
  8  9  2  0
  9 10  1  0
 10 11  2  0
  5 12  1  0
 12 13  1  0
 13 14  1  0
 14 15  1  0
 15 16  1  0
 16 17  2  0
 16 18  1  0
 18 19  1  0
 18 20  1  0
 20 21  1  0
 21 22  2  0
 22 23  1  0
 23 24  2  0
 24 25  1  0
 25 26  2  0
 26 27  1  0
 27 28  1  0
 28 29  2  0
 29 30  1  0
 30 31  2  0
 31 32  1  0
 32 33  2  0
 15 34  1  0
 34 35  1  0
 11  6  1  0
 35 12  1  0
 27 20  1  0
 33 28  1  0
 26 21  1  0
  1 36  1  0
  1 37  1  0
  1 38  1  0
  2 39  1  0
  2 40  1  0
  7 41  1  0
  8 42  1  0
  9 43  1  0
 10 44  1  0
 11 45  1  0
 12 46  1  0
 13 47  1  0
 13 48  1  0
 14 49  1  0
 14 50  1  0
 18 51  1  1
 19 52  1  0
 19 53  1  0
 20 54  1  6
 22 55  1  0
 23 56  1  0
 24 57  1  0
 25 58  1  0
 27 59  1  1
 29 60  1  0
 30 61  1  0
 31 62  1  0
 32 63  1  0
 33 64  1  0
 34 65  1  0
 34 66  1  0
 35 67  1  0
 35 68  1  0
M  END
>  <smiles>  (39) 
CCC(=O)N(c1ccccc1)C1CCN(C(=O)[C@@H](N)C2c3ccccc3C2c2ccccc2)CC1

>  <score_type>  (39) 
oracle

>  <origin>  (39) 
autodockgpu

>  <m_score__min__energy>  (39) 
-8.5999999999999996

>  <m_primary>  (39) 
energy

>  <rmsd>  (39) 
10.066951131563084

>  <m_score__min__rmsd>  (39) 
10.066951131563084

>  <meeko>  (39) 
{"free_energy": -8.56, "intermolecular_energy": -10.95, "internal_energy": -3.05, "cluster_size": 34, "cluster_id": 1, "rank_in_cluster": 12}

>  <energy>  (39) 
-8.13

>  <cluster_rmsd>  (39) 
0.38

>  <cluster>  (39) 
2

$$$$

     RDKit          3D

 68 72  0  0  0  0  0  0  0  0999 V2000
  137.3740   83.8900  222.3760 C   0  0  0  0  0  0  0  0  0  0  0  0
  136.9270   83.9140  223.8160 C   0  0  0  0  0  0  0  0  0  0  0  0
  135.9270   82.8250  224.0290 C   0  0  0  0  0  0  0  0  0  0  0  0
  134.9050   82.8380  223.3080 O   0  0  0  0  0  0  0  0  0  0  0  0
  136.1580   81.8240  225.0280 N   0  0  0  0  0  0  0  0  0  0  0  0
  135.8740   82.1420  226.3840 C   0  0  0  0  0  0  0  0  0  0  0  0
  135.3390   83.4100  226.6340 C   0  0  0  0  0  0  0  0  0  0  0  0
  135.0360   83.8090  227.9240 C   0  0  0  0  0  0  0  0  0  0  0  0
  135.2900   82.8950  228.9220 C   0  0  0  0  0  0  0  0  0  0  0  0
  135.8120   81.6460  228.7120 C   0  0  0  0  0  0  0  0  0  0  0  0
  136.1080   81.2640  227.4300 C   0  0  0  0  0  0  0  0  0  0  0  0
  136.6640   80.5200  224.6080 C   0  0  0  0  0  0  0  0  0  0  0  0
  137.8690   80.7570  223.7020 C   0  0  0  0  0  0  0  0  0  0  0  0
  138.4990   79.3930  223.4720 C   0  0  0  0  0  0  0  0  0  0  0  0
  137.4960   78.5120  222.9270 N   0  0  0  0  0  0  0  0  0  0  0  0
  137.8670   77.2240  222.3790 C   0  0  0  0  0  0  0  0  0  0  0  0
  136.9690   76.4630  221.8740 O   0  0  0  0  0  0  0  0  0  0  0  0
  139.2410   76.6890  222.3490 C   0  0  1  0  0  0  0  0  0  0  0  0
  139.2090   75.2740  222.6840 N   0  0  0  0  0  0  0  0  0  0  0  0
  139.8870   76.8350  221.0180 C   0  0  2  0  0  0  0  0  0  0  0  0
  141.0090   75.8850  220.7700 C   0  0  0  0  0  0  0  0  0  0  0  0
  141.5560   74.6220  220.7320 C   0  0  0  0  0  0  0  0  0  0  0  0
  142.8560   74.3960  220.3270 C   0  0  0  0  0  0  0  0  0  0  0  0
  143.6560   75.4720  219.9380 C   0  0  0  0  0  0  0  0  0  0  0  0
  143.1130   76.7630  219.9720 C   0  0  0  0  0  0  0  0  0  0  0  0
  141.7930   76.9480  220.3900 C   0  0  0  0  0  0  0  0  0  0  0  0
  140.7170   77.9780  220.6590 C   0  0  2  0  0  0  0  0  0  0  0  0
  141.2440   78.9330  221.6430 C   0  0  0  0  0  0  0  0  0  0  0  0
  141.3370   80.2940  221.3110 C   0  0  0  0  0  0  0  0  0  0  0  0
  141.8450   81.2120  222.1970 C   0  0  0  0  0  0  0  0  0  0  0  0
  142.2910   80.8640  223.4500 C   0  0  0  0  0  0  0  0  0  0  0  0
  142.2090   79.5130  223.8020 C   0  0  0  0  0  0  0  0  0  0  0  0
  141.6950   78.6030  222.9000 C   0  0  0  0  0  0  0  0  0  0  0  0
  136.0770   78.7960  222.8610 C   0  0  0  0  0  0  0  0  0  0  0  0
  135.5880   79.8280  223.8210 C   0  0  0  0  0  0  0  0  0  0  0  0
  138.4716   83.8311  222.3337 H   0  0  0  0  0  0  0  0  0  0  0  0
  136.9401   83.0139  221.8719 H   0  0  0  0  0  0  0  0  0  0  0  0
  137.0364   84.8076  221.8719 H   0  0  0  0  0  0  0  0  0  0  0  0
  137.7934   83.7540  224.4746 H   0  0  0  0  0  0  0  0  0  0  0  0
  136.4732   84.8884  224.0498 H   0  0  0  0  0  0  0  0  0  0  0  0
  135.1570   84.0981  225.7953 H   0  0  0  0  0  0  0  0  0  0  0  0
  134.6152   84.8021  228.1403 H   0  0  0  0  0  0  0  0  0  0  0  0
  135.0583   83.1872  229.9569 H   0  0  0  0  0  0  0  0  0  0  0  0
  135.9900   80.9633  229.5560 H   0  0  0  0  0  0  0  0  0  0  0  0
  136.5286   80.2670  227.2325 H   0  0  0  0  0  0  0  0  0  0  0  0
  136.9495   79.9063  225.4751 H   0  0  0  0  0  0  0  0  0  0  0  0
  137.5472   81.1949  222.7456 H   0  0  0  0  0  0  0  0  0  0  0  0
  138.5835   81.4575  224.1590 H   0  0  0  0  0  0  0  0  0  0  0  0
  139.3359   79.4854  222.7642 H   0  0  0  0  0  0  0  0  0  0  0  0
  138.8800   78.9888  224.4214 H   0  0  0  0  0  0  0  0  0  0  0  0
  139.8278   77.2676  223.0776 H   0  0  0  0  0  0  0  0  0  0  0  0
  138.2250   74.9250  222.7120 H   0  0  0  0  0  0  0  0  0  0  0  0
  139.5810   75.1690  223.6590 H   0  0  0  0  0  0  0  0  0  0  0  0
  138.9218   76.7819  220.4931 H   0  0  0  0  0  0  0  0  0  0  0  0
  140.9365   73.7648  221.0344 H   0  0  0  0  0  0  0  0  0  0  0  0
  143.2598   73.3729  220.3108 H   0  0  0  0  0  0  0  0  0  0  0  0
  144.6935   75.3091  219.6109 H   0  0  0  0  0  0  0  0  0  0  0  0
  143.7234   77.6272  219.6709 H   0  0  0  0  0  0  0  0  0  0  0  0
  140.2615   78.7198  219.9865 H   0  0  0  0  0  0  0  0  0  0  0  0
  140.9961   80.6318  220.3212 H   0  0  0  0  0  0  0  0  0  0  0  0
  141.8971   82.2676  221.8921 H   0  0  0  0  0  0  0  0  0  0  0  0
  142.6946   81.6151  224.1450 H   0  0  0  0  0  0  0  0  0  0  0  0
  142.5520   79.1774  224.7918 H   0  0  0  0  0  0  0  0  0  0  0  0
  141.6428   77.5476  223.2057 H   0  0  0  0  0  0  0  0  0  0  0  0
  135.8468   79.1428  221.8428 H   0  0  0  0  0  0  0  0  0  0  0  0
  135.5666   77.8606  223.1339 H   0  0  0  0  0  0  0  0  0  0  0  0
  135.0371   80.5909  223.2513 H   0  0  0  0  0  0  0  0  0  0  0  0
  134.9633   79.2963  224.5538 H   0  0  0  0  0  0  0  0  0  0  0  0
  1  2  1  0
  2  3  1  0
  3  4  2  0
  3  5  1  0
  5  6  1  0
  6  7  2  0
  7  8  1  0
  8  9  2  0
  9 10  1  0
 10 11  2  0
  5 12  1  0
 12 13  1  0
 13 14  1  0
 14 15  1  0
 15 16  1  0
 16 17  2  0
 16 18  1  0
 18 19  1  0
 18 20  1  0
 20 21  1  0
 21 22  2  0
 22 23  1  0
 23 24  2  0
 24 25  1  0
 25 26  2  0
 26 27  1  0
 27 28  1  0
 28 29  2  0
 29 30  1  0
 30 31  2  0
 31 32  1  0
 32 33  2  0
 15 34  1  0
 34 35  1  0
 11  6  1  0
 35 12  1  0
 27 20  1  0
 33 28  1  0
 26 21  1  0
  1 36  1  0
  1 37  1  0
  1 38  1  0
  2 39  1  0
  2 40  1  0
  7 41  1  0
  8 42  1  0
  9 43  1  0
 10 44  1  0
 11 45  1  0
 12 46  1  0
 13 47  1  0
 13 48  1  0
 14 49  1  0
 14 50  1  0
 18 51  1  1
 19 52  1  0
 19 53  1  0
 20 54  1  6
 22 55  1  0
 23 56  1  0
 24 57  1  0
 25 58  1  0
 27 59  1  6
 29 60  1  0
 30 61  1  0
 31 62  1  0
 32 63  1  0
 33 64  1  0
 34 65  1  0
 34 66  1  0
 35 67  1  0
 35 68  1  0
M  END
>  <smiles>  (40) 
CCC(=O)N(c1ccccc1)C1CCN(C(=O)[C@@H](N)C2c3ccccc3C2c2ccccc2)CC1

>  <score_type>  (40) 
oracle

>  <origin>  (40) 
autodockgpu

>  <m_score__min__energy>  (40) 
-8.5999999999999996

>  <m_primary>  (40) 
energy

>  <rmsd>  (40) 
8.241118625526546

>  <m_score__min__rmsd>  (40) 
8.241118625526546

>  <meeko>  (40) 
{"free_energy": -8.04, "intermolecular_energy": -10.43, "internal_energy": -3.33, "cluster_size": 15, "cluster_id": 2, "rank_in_cluster": 12}

>  <energy>  (40) 
-8.11

>  <cluster_rmsd>  (40) 
0.37

>  <cluster>  (40) 
2

$$$$

     RDKit          3D

 68 72  0  0  0  0  0  0  0  0999 V2000
  135.3530   82.8610  221.8170 C   0  0  0  0  0  0  0  0  0  0  0  0
  135.0870   83.1740  223.2680 C   0  0  0  0  0  0  0  0  0  0  0  0
  136.3510   82.9860  224.0420 C   0  0  0  0  0  0  0  0  0  0  0  0
  137.2990   83.7620  223.7880 O   0  0  0  0  0  0  0  0  0  0  0  0
  136.4410   81.9490  225.0270 N   0  0  0  0  0  0  0  0  0  0  0  0
  136.0610   82.2480  226.3640 C   0  0  0  0  0  0  0  0  0  0  0  0
  135.7770   83.5880  226.6510 C   0  0  0  0  0  0  0  0  0  0  0  0
  135.4040   83.9740  227.9270 C   0  0  0  0  0  0  0  0  0  0  0  0
  135.3320   82.9750  228.8710 C   0  0  0  0  0  0  0  0  0  0  0  0
  135.6020   81.6550  228.6230 C   0  0  0  0  0  0  0  0  0  0  0  0
  135.9710   81.2860  227.3560 C   0  0  0  0  0  0  0  0  0  0  0  0
  136.9080   80.6280  224.6110 C   0  0  0  0  0  0  0  0  0  0  0  0
  138.0830   80.8280  223.6590 C   0  0  0  0  0  0  0  0  0  0  0  0
  138.6790   79.4480  223.4300 C   0  0  0  0  0  0  0  0  0  0  0  0
  137.6420   78.5770  222.9380 N   0  0  0  0  0  0  0  0  0  0  0  0
  137.9690   77.2730  222.3990 C   0  0  0  0  0  0  0  0  0  0  0  0
  137.0400   76.5210  221.9400 O   0  0  0  0  0  0  0  0  0  0  0  0
  139.3310   76.7120  222.3290 C   0  0  1  0  0  0  0  0  0  0  0  0
  139.2910   75.3120  222.7210 N   0  0  0  0  0  0  0  0  0  0  0  0
  139.9180   76.7940  220.9660 C   0  0  2  0  0  0  0  0  0  0  0  0
  141.0650   75.8710  220.7320 C   0  0  0  0  0  0  0  0  0  0  0  0
  141.6580   74.6290  220.7510 C   0  0  0  0  0  0  0  0  0  0  0  0
  142.9490   74.4230  220.3070 C   0  0  0  0  0  0  0  0  0  0  0  0
  143.6910   75.4990  219.8180 C   0  0  0  0  0  0  0  0  0  0  0  0
  143.1020   76.7700  219.7930 C   0  0  0  0  0  0  0  0  0  0  0  0
  141.7920   76.9350  220.2530 C   0  0  0  0  0  0  0  0  0  0  0  0
  140.6890   77.9410  220.5010 C   0  0  2  0  0  0  0  0  0  0  0  0
  141.2180   78.9750  221.4000 C   0  0  0  0  0  0  0  0  0  0  0  0
  141.7870   78.6040  222.6290 C   0  0  0  0  0  0  0  0  0  0  0  0
  142.2710   79.5440  223.5050 C   0  0  0  0  0  0  0  0  0  0  0  0
  142.2300   80.8930  223.2410 C   0  0  0  0  0  0  0  0  0  0  0  0
  141.6670   81.2870  222.0230 C   0  0  0  0  0  0  0  0  0  0  0  0
  141.1850   80.3290  221.1540 C   0  0  0  0  0  0  0  0  0  0  0  0
  136.2260   78.8860  222.9180 C   0  0  0  0  0  0  0  0  0  0  0  0
  135.7920   79.9440  223.8770 C   0  0  0  0  0  0  0  0  0  0  0  0
  136.0639   82.0245  221.7467 H   0  0  0  0  0  0  0  0  0  0  0  0
  134.4102   82.5835  221.3230 H   0  0  0  0  0  0  0  0  0  0  0  0
  135.7790   83.7467  221.3230 H   0  0  0  0  0  0  0  0  0  0  0  0
  134.7459   84.2153  223.3648 H   0  0  0  0  0  0  0  0  0  0  0  0
  134.3074   82.5029  223.6577 H   0  0  0  0  0  0  0  0  0  0  0  0
  135.8509   84.3426  225.8541 H   0  0  0  0  0  0  0  0  0  0  0  0
  135.1775   85.0219  228.1730 H   0  0  0  0  0  0  0  0  0  0  0  0
  135.0379   83.2553  229.8932 H   0  0  0  0  0  0  0  0  0  0  0  0
  135.5241   80.9062  229.4250 H   0  0  0  0  0  0  0  0  0  0  0  0
  136.1941   80.2332  227.1285 H   0  0  0  0  0  0  0  0  0  0  0  0
  137.2141   80.0227  225.4770 H   0  0  0  0  0  0  0  0  0  0  0  0
  137.7349   81.2563  222.7075 H   0  0  0  0  0  0  0  0  0  0  0  0
  138.8261   81.5225  224.0778 H   0  0  0  0  0  0  0  0  0  0  0  0
  139.4908   79.5127  222.6905 H   0  0  0  0  0  0  0  0  0  0  0  0
  139.0869   79.0530  224.3721 H   0  0  0  0  0  0  0  0  0  0  0  0
  139.9596   77.3077  223.0072 H   0  0  0  0  0  0  0  0  0  0  0  0
  138.3150   74.9430  222.6650 H   0  0  0  0  0  0  0  0  0  0  0  0
  139.5640   75.2560  223.7320 H   0  0  0  0  0  0  0  0  0  0  0  0
  138.9357   76.6719  220.4862 H   0  0  0  0  0  0  0  0  0  0  0  0
  141.0841   73.7718  221.1328 H   0  0  0  0  0  0  0  0  0  0  0  0
  143.3904   73.4159  220.3386 H   0  0  0  0  0  0  0  0  0  0  0  0
  144.7201   75.3519  219.4585 H   0  0  0  0  0  0  0  0  0  0  0  0
  143.6674   77.6338  219.4133 H   0  0  0  0  0  0  0  0  0  0  0  0
  140.1791   78.6212  219.8029 H   0  0  0  0  0  0  0  0  0  0  0  0
  141.8462   77.5384  222.8954 H   0  0  0  0  0  0  0  0  0  0  0  0
  142.7088   79.2047  224.4554 H   0  0  0  0  0  0  0  0  0  0  0  0
  142.6229   81.6301  223.9567 H   0  0  0  0  0  0  0  0  0  0  0  0
  141.6087   82.3533  221.7592 H   0  0  0  0  0  0  0  0  0  0  0  0
  140.7465   80.6692  220.2043 H   0  0  0  0  0  0  0  0  0  0  0  0
  135.9649   79.2193  221.9028 H   0  0  0  0  0  0  0  0  0  0  0  0
  135.7086   77.9652  223.2253 H   0  0  0  0  0  0  0  0  0  0  0  0
  135.2348   80.7074  223.3143 H   0  0  0  0  0  0  0  0  0  0  0  0
  135.1851   79.4370  224.6416 H   0  0  0  0  0  0  0  0  0  0  0  0
  1  2  1  0
  2  3  1  0
  3  4  2  0
  3  5  1  0
  5  6  1  0
  6  7  2  0
  7  8  1  0
  8  9  2  0
  9 10  1  0
 10 11  2  0
  5 12  1  0
 12 13  1  0
 13 14  1  0
 14 15  1  0
 15 16  1  0
 16 17  2  0
 16 18  1  0
 18 19  1  0
 18 20  1  0
 20 21  1  0
 21 22  2  0
 22 23  1  0
 23 24  2  0
 24 25  1  0
 25 26  2  0
 26 27  1  0
 27 28  1  0
 28 29  2  0
 29 30  1  0
 30 31  2  0
 31 32  1  0
 32 33  2  0
 15 34  1  0
 34 35  1  0
 11  6  1  0
 35 12  1  0
 27 20  1  0
 33 28  1  0
 26 21  1  0
  1 36  1  0
  1 37  1  0
  1 38  1  0
  2 39  1  0
  2 40  1  0
  7 41  1  0
  8 42  1  0
  9 43  1  0
 10 44  1  0
 11 45  1  0
 12 46  1  0
 13 47  1  0
 13 48  1  0
 14 49  1  0
 14 50  1  0
 18 51  1  1
 19 52  1  0
 19 53  1  0
 20 54  1  6
 22 55  1  0
 23 56  1  0
 24 57  1  0
 25 58  1  0
 27 59  1  6
 29 60  1  0
 30 61  1  0
 31 62  1  0
 32 63  1  0
 33 64  1  0
 34 65  1  0
 34 66  1  0
 35 67  1  0
 35 68  1  0
M  END
>  <smiles>  (41) 
CCC(=O)N(c1ccccc1)C1CCN(C(=O)[C@@H](N)C2c3ccccc3C2c2ccccc2)CC1

>  <score_type>  (41) 
oracle

>  <origin>  (41) 
autodockgpu

>  <m_score__min__energy>  (41) 
-8.5999999999999996

>  <m_primary>  (41) 
energy

>  <rmsd>  (41) 
8.271690770210155

>  <m_score__min__rmsd>  (41) 
8.271690770210155

>  <meeko>  (41) 
{"free_energy": -8.08, "intermolecular_energy": -10.46, "internal_energy": -3.38, "cluster_size": 15, "cluster_id": 2, "rank_in_cluster": 9}

>  <energy>  (41) 
-8.09

>  <cluster_rmsd>  (41) 
0.26

>  <cluster>  (41) 
2

$$$$

     RDKit          3D

 68 72  0  0  0  0  0  0  0  0999 V2000
  136.4920   72.6440  222.7280 C   0  0  0  0  0  0  0  0  0  0  0  0
  137.1320   71.4420  223.3740 C   0  0  0  0  0  0  0  0  0  0  0  0
  138.4180   71.1450  222.6740 C   0  0  0  0  0  0  0  0  0  0  0  0
  138.3450   70.6040  221.5480 O   0  0  0  0  0  0  0  0  0  0  0  0
  139.6660   71.4760  223.2960 N   0  0  0  0  0  0  0  0  0  0  0  0
  139.9820   70.8750  224.5450 C   0  0  0  0  0  0  0  0  0  0  0  0
  139.5300   69.5660  224.7440 C   0  0  0  0  0  0  0  0  0  0  0  0
  139.7860   68.9030  225.9320 C   0  0  0  0  0  0  0  0  0  0  0  0
  140.4990   69.6000  226.8800 C   0  0  0  0  0  0  0  0  0  0  0  0
  140.9560   70.8810  226.7170 C   0  0  0  0  0  0  0  0  0  0  0  0
  140.6950   71.5270  225.5370 C   0  0  0  0  0  0  0  0  0  0  0  0
  140.5620   72.4070  222.6130 C   0  0  0  0  0  0  0  0  0  0  0  0
  139.7290   73.5960  222.1430 C   0  0  0  0  0  0  0  0  0  0  0  0
  140.7200   74.6350  221.6460 C   0  0  0  0  0  0  0  0  0  0  0  0
  141.5430   74.0320  220.6280 N   0  0  0  0  0  0  0  0  0  0  0  0
  142.4080   74.8480  219.8010 C   0  0  0  0  0  0  0  0  0  0  0  0
  143.1140   74.3020  218.8820 O   0  0  0  0  0  0  0  0  0  0  0  0
  142.5560   76.3100  219.9280 C   0  0  1  0  0  0  0  0  0  0  0  0
  143.7000   76.7450  219.1410 N   0  0  0  0  0  0  0  0  0  0  0  0
  141.3590   77.0530  219.4540 C   0  0  2  0  0  0  0  0  0  0  0  0
  141.6330   78.0280  218.3600 C   0  0  0  0  0  0  0  0  0  0  0  0
  142.1500   78.3750  217.1320 C   0  0  0  0  0  0  0  0  0  0  0  0
  142.0220   79.6470  216.6120 C   0  0  0  0  0  0  0  0  0  0  0  0
  141.3460   80.6260  217.3420 C   0  0  0  0  0  0  0  0  0  0  0  0
  140.8130   80.2890  218.5930 C   0  0  0  0  0  0  0  0  0  0  0  0
  140.9680   78.9890  219.0830 C   0  0  0  0  0  0  0  0  0  0  0  0
  140.6880   78.0700  220.2530 C   0  0  2  0  0  0  0  0  0  0  0  0
  141.2820   78.6760  221.4520 C   0  0  0  0  0  0  0  0  0  0  0  0
  141.0680   78.0860  222.7080 C   0  0  0  0  0  0  0  0  0  0  0  0
  141.5900   78.6360  223.8540 C   0  0  0  0  0  0  0  0  0  0  0  0
  142.3430   79.7850  223.8470 C   0  0  0  0  0  0  0  0  0  0  0  0
  142.5680   80.3920  222.6060 C   0  0  0  0  0  0  0  0  0  0  0  0
  142.0370   79.8250  221.4650 C   0  0  0  0  0  0  0  0  0  0  0  0
  141.5960   72.6170  220.3210 C   0  0  0  0  0  0  0  0  0  0  0  0
  141.1420   71.7110  221.4160 C   0  0  0  0  0  0  0  0  0  0  0  0
  136.1274   73.3288  223.5078 H   0  0  0  0  0  0  0  0  0  0  0  0
  137.2335   73.1623  222.1023 H   0  0  0  0  0  0  0  0  0  0  0  0
  135.6480   72.3181  222.1023 H   0  0  0  0  0  0  0  0  0  0  0  0
  137.3294   71.6542  224.4351 H   0  0  0  0  0  0  0  0  0  0  0  0
  136.4582   70.5757  223.3001 H   0  0  0  0  0  0  0  0  0  0  0  0
  138.9653   69.0583  223.9482 H   0  0  0  0  0  0  0  0  0  0  0  0
  139.4381   67.8745  226.1085 H   0  0  0  0  0  0  0  0  0  0  0  0
  140.7166   69.0948  227.8326 H   0  0  0  0  0  0  0  0  0  0  0  0
  141.5212   71.3811  227.5173 H   0  0  0  0  0  0  0  0  0  0  0  0
  141.0494   72.5563  225.3789 H   0  0  0  0  0  0  0  0  0  0  0  0
  141.3696   72.7430  223.2800 H   0  0  0  0  0  0  0  0  0  0  0  0
  139.0546   73.2917  221.3290 H   0  0  0  0  0  0  0  0  0  0  0  0
  139.1030   73.9941  222.9552 H   0  0  0  0  0  0  0  0  0  0  0  0
  140.1771   75.4935  221.2238 H   0  0  0  0  0  0  0  0  0  0  0  0
  141.3472   74.9861  222.4786 H   0  0  0  0  0  0  0  0  0  0  0  0
  142.6911   76.5276  220.9978 H   0  0  0  0  0  0  0  0  0  0  0  0
  144.2770   75.9240  218.8480 H   0  0  0  0  0  0  0  0  0  0  0  0
  144.3150   77.3210  219.7650 H   0  0  0  0  0  0  0  0  0  0  0  0
  140.7843   76.1264  219.3089 H   0  0  0  0  0  0  0  0  0  0  0  0
  142.6832   77.6124  216.5454 H   0  0  0  0  0  0  0  0  0  0  0  0
  142.4503   79.8879  215.6279 H   0  0  0  0  0  0  0  0  0  0  0  0
  141.2337   81.6445  216.9419 H   0  0  0  0  0  0  0  0  0  0  0  0
  140.2755   81.0432  219.1865 H   0  0  0  0  0  0  0  0  0  0  0  0
  139.7325   77.7773  220.7126 H   0  0  0  0  0  0  0  0  0  0  0  0
  140.4704   77.1650  222.7760 H   0  0  0  0  0  0  0  0  0  0  0  0
  141.3973   78.1365  224.8149 H   0  0  0  0  0  0  0  0  0  0  0  0
  142.7513   80.2094  224.7761 H   0  0  0  0  0  0  0  0  0  0  0  0
  143.1638   81.3144  222.5405 H   0  0  0  0  0  0  0  0  0  0  0  0
  142.2303   80.3246  220.5042 H   0  0  0  0  0  0  0  0  0  0  0  0
  140.9586   72.4354  219.4430 H   0  0  0  0  0  0  0  0  0  0  0  0
  142.6569   72.3816  220.1507 H   0  0  0  0  0  0  0  0  0  0  0  0
  140.3740   71.0383  221.0065 H   0  0  0  0  0  0  0  0  0  0  0  0
  142.0392   71.1828  221.7711 H   0  0  0  0  0  0  0  0  0  0  0  0
  1  2  1  0
  2  3  1  0
  3  4  2  0
  3  5  1  0
  5  6  1  0
  6  7  2  0
  7  8  1  0
  8  9  2  0
  9 10  1  0
 10 11  2  0
  5 12  1  0
 12 13  1  0
 13 14  1  0
 14 15  1  0
 15 16  1  0
 16 17  2  0
 16 18  1  0
 18 19  1  0
 18 20  1  0
 20 21  1  0
 21 22  2  0
 22 23  1  0
 23 24  2  0
 24 25  1  0
 25 26  2  0
 26 27  1  0
 27 28  1  0
 28 29  2  0
 29 30  1  0
 30 31  2  0
 31 32  1  0
 32 33  2  0
 15 34  1  0
 34 35  1  0
 11  6  1  0
 35 12  1  0
 27 20  1  0
 33 28  1  0
 26 21  1  0
  1 36  1  0
  1 37  1  0
  1 38  1  0
  2 39  1  0
  2 40  1  0
  7 41  1  0
  8 42  1  0
  9 43  1  0
 10 44  1  0
 11 45  1  0
 12 46  1  0
 13 47  1  0
 13 48  1  0
 14 49  1  0
 14 50  1  0
 18 51  1  1
 19 52  1  0
 19 53  1  0
 20 54  1  6
 22 55  1  0
 23 56  1  0
 24 57  1  0
 25 58  1  0
 27 59  1  1
 29 60  1  0
 30 61  1  0
 31 62  1  0
 32 63  1  0
 33 64  1  0
 34 65  1  0
 34 66  1  0
 35 67  1  0
 35 68  1  0
M  END
>  <smiles>  (42) 
CCC(=O)N(c1ccccc1)C1CCN(C(=O)[C@@H](N)C2c3ccccc3C2c2ccccc2)CC1

>  <score_type>  (42) 
oracle

>  <origin>  (42) 
autodockgpu

>  <m_score__min__energy>  (42) 
-8.5999999999999996

>  <m_primary>  (42) 
energy

>  <rmsd>  (42) 
10.182294534326209

>  <m_score__min__rmsd>  (42) 
10.182294534326209

>  <meeko>  (42) 
{"free_energy": -8.51, "intermolecular_energy": -10.9, "internal_energy": -3.04, "cluster_size": 34, "cluster_id": 1, "rank_in_cluster": 29}

>  <energy>  (42) 
-8.09

>  <cluster_rmsd>  (42) 
0.36

>  <cluster>  (42) 
2

$$$$

     RDKit          3D

 68 72  0  0  0  0  0  0  0  0999 V2000
  136.4730   72.6720  222.7100 C   0  0  0  0  0  0  0  0  0  0  0  0
  137.1230   71.4750  223.3570 C   0  0  0  0  0  0  0  0  0  0  0  0
  138.4090   71.1860  222.6540 C   0  0  0  0  0  0  0  0  0  0  0  0
  138.3360   70.6670  221.5180 O   0  0  0  0  0  0  0  0  0  0  0  0
  139.6570   71.5000  223.2840 N   0  0  0  0  0  0  0  0  0  0  0  0
  139.9640   70.8830  224.5270 C   0  0  0  0  0  0  0  0  0  0  0  0
  139.5050   69.5730  224.7080 C   0  0  0  0  0  0  0  0  0  0  0  0
  139.7510   68.8950  225.8890 C   0  0  0  0  0  0  0  0  0  0  0  0
  140.4610   69.5780  226.8500 C   0  0  0  0  0  0  0  0  0  0  0  0
  140.9250   70.8590  226.7050 C   0  0  0  0  0  0  0  0  0  0  0  0
  140.6740   71.5200  225.5310 C   0  0  0  0  0  0  0  0  0  0  0  0
  140.5640   72.4300  222.6150 C   0  0  0  0  0  0  0  0  0  0  0  0
  139.7300   73.5900  222.0800 C   0  0  0  0  0  0  0  0  0  0  0  0
  140.7220   74.6350  221.5970 C   0  0  0  0  0  0  0  0  0  0  0  0
  141.5980   74.0230  220.6300 N   0  0  0  0  0  0  0  0  0  0  0  0
  142.4820   74.8340  219.8190 C   0  0  0  0  0  0  0  0  0  0  0  0
  143.2350   74.2780  218.9440 O   0  0  0  0  0  0  0  0  0  0  0  0
  142.5970   76.3010  219.9130 C   0  0  1  0  0  0  0  0  0  0  0  0
  143.7070   76.7480  219.0850 N   0  0  0  0  0  0  0  0  0  0  0  0
  141.3690   77.0060  219.4600 C   0  0  2  0  0  0  0  0  0  0  0  0
  141.5980   78.0140  218.3860 C   0  0  0  0  0  0  0  0  0  0  0  0
  142.0950   78.4070  217.1640 C   0  0  0  0  0  0  0  0  0  0  0  0
  141.9120   79.6840  216.6720 C   0  0  0  0  0  0  0  0  0  0  0  0
  141.2020   80.6190  217.4250 C   0  0  0  0  0  0  0  0  0  0  0  0
  140.6900   80.2350  218.6710 C   0  0  0  0  0  0  0  0  0  0  0  0
  140.8980   78.9320  219.1320 C   0  0  0  0  0  0  0  0  0  0  0  0
  140.6620   77.9780  220.2840 C   0  0  2  0  0  0  0  0  0  0  0  0
  141.2370   78.5810  221.4930 C   0  0  0  0  0  0  0  0  0  0  0  0
  142.0020   79.7550  221.3880 C   0  0  0  0  0  0  0  0  0  0  0  0
  142.5730   80.3350  222.4940 C   0  0  0  0  0  0  0  0  0  0  0  0
  142.4390   79.8120  223.7580 C   0  0  0  0  0  0  0  0  0  0  0  0
  141.6820   78.6420  223.8860 C   0  0  0  0  0  0  0  0  0  0  0  0
  141.1140   78.0730  222.7650 C   0  0  0  0  0  0  0  0  0  0  0  0
  141.6900   72.6010  220.3630 C   0  0  0  0  0  0  0  0  0  0  0  0
  141.2070   71.7150  221.4620 C   0  0  0  0  0  0  0  0  0  0  0  0
  136.1026   73.3541  223.4895 H   0  0  0  0  0  0  0  0  0  0  0  0
  137.2104   73.1961  222.0843 H   0  0  0  0  0  0  0  0  0  0  0  0
  135.6318   72.3389  222.0843 H   0  0  0  0  0  0  0  0  0  0  0  0
  137.3217   71.6904  224.4172 H   0  0  0  0  0  0  0  0  0  0  0  0
  136.4550   70.6039  223.2867 H   0  0  0  0  0  0  0  0  0  0  0  0
  138.9428   69.0773  223.9029 H   0  0  0  0  0  0  0  0  0  0  0  0
  139.3982   67.8658  226.0509 H   0  0  0  0  0  0  0  0  0  0  0  0
  140.6700   69.0608  227.7981 H   0  0  0  0  0  0  0  0  0  0  0  0
  141.4876   71.3470  227.5145 H   0  0  0  0  0  0  0  0  0  0  0  0
  141.0340   72.5494  225.3872 H   0  0  0  0  0  0  0  0  0  0  0  0
  141.3367   72.7983  223.3058 H   0  0  0  0  0  0  0  0  0  0  0  0
  139.0958   73.2520  221.2472 H   0  0  0  0  0  0  0  0  0  0  0  0
  139.0635   73.9966  222.8549 H   0  0  0  0  0  0  0  0  0  0  0  0
  140.1815   75.4718  221.1305 H   0  0  0  0  0  0  0  0  0  0  0  0
  141.3075   75.0188  222.4455 H   0  0  0  0  0  0  0  0  0  0  0  0
  142.7568   76.5427  220.9741 H   0  0  0  0  0  0  0  0  0  0  0  0
  144.2300   75.9290  218.7010 H   0  0  0  0  0  0  0  0  0  0  0  0
  144.3820   77.2570  219.7050 H   0  0  0  0  0  0  0  0  0  0  0  0
  140.8310   76.0605  219.2972 H   0  0  0  0  0  0  0  0  0  0  0  0
  142.6566   77.6796  216.5594 H   0  0  0  0  0  0  0  0  0  0  0  0
  142.3242   79.9626  215.6909 H   0  0  0  0  0  0  0  0  0  0  0  0
  141.0468   81.6403  217.0469 H   0  0  0  0  0  0  0  0  0  0  0  0
  140.1273   80.9550  219.2833 H   0  0  0  0  0  0  0  0  0  0  0  0
  139.7215   77.6377  220.7419 H   0  0  0  0  0  0  0  0  0  0  0  0
  142.1462   80.2183  220.4008 H   0  0  0  0  0  0  0  0  0  0  0  0
  143.1613   81.2552  222.3631 H   0  0  0  0  0  0  0  0  0  0  0  0
  142.9062   80.2920  224.6305 H   0  0  0  0  0  0  0  0  0  0  0  0
  141.5408   78.1791  224.8738 H   0  0  0  0  0  0  0  0  0  0  0  0
  140.5247   77.1536  222.8971 H   0  0  0  0  0  0  0  0  0  0  0  0
  141.0936   72.3843  219.4644 H   0  0  0  0  0  0  0  0  0  0  0  0
  142.7613   72.3819  220.2433 H   0  0  0  0  0  0  0  0  0  0  0  0
  140.4696   71.0170  221.0389 H   0  0  0  0  0  0  0  0  0  0  0  0
  142.0981   71.2142  221.8683 H   0  0  0  0  0  0  0  0  0  0  0  0
  1  2  1  0
  2  3  1  0
  3  4  2  0
  3  5  1  0
  5  6  1  0
  6  7  2  0
  7  8  1  0
  8  9  2  0
  9 10  1  0
 10 11  2  0
  5 12  1  0
 12 13  1  0
 13 14  1  0
 14 15  1  0
 15 16  1  0
 16 17  2  0
 16 18  1  0
 18 19  1  0
 18 20  1  0
 20 21  1  0
 21 22  2  0
 22 23  1  0
 23 24  2  0
 24 25  1  0
 25 26  2  0
 26 27  1  0
 27 28  1  0
 28 29  2  0
 29 30  1  0
 30 31  2  0
 31 32  1  0
 32 33  2  0
 15 34  1  0
 34 35  1  0
 11  6  1  0
 35 12  1  0
 27 20  1  0
 33 28  1  0
 26 21  1  0
  1 36  1  0
  1 37  1  0
  1 38  1  0
  2 39  1  0
  2 40  1  0
  7 41  1  0
  8 42  1  0
  9 43  1  0
 10 44  1  0
 11 45  1  0
 12 46  1  0
 13 47  1  0
 13 48  1  0
 14 49  1  0
 14 50  1  0
 18 51  1  1
 19 52  1  0
 19 53  1  0
 20 54  1  6
 22 55  1  0
 23 56  1  0
 24 57  1  0
 25 58  1  0
 27 59  1  1
 29 60  1  0
 30 61  1  0
 31 62  1  0
 32 63  1  0
 33 64  1  0
 34 65  1  0
 34 66  1  0
 35 67  1  0
 35 68  1  0
M  END
>  <smiles>  (43) 
CCC(=O)N(c1ccccc1)C1CCN(C(=O)[C@@H](N)C2c3ccccc3C2c2ccccc2)CC1

>  <score_type>  (43) 
oracle

>  <origin>  (43) 
autodockgpu

>  <m_score__min__energy>  (43) 
-8.5999999999999996

>  <m_primary>  (43) 
energy

>  <rmsd>  (43) 
10.142025682127429

>  <m_score__min__rmsd>  (43) 
10.142025682127429

>  <meeko>  (43) 
{"free_energy": -8.52, "intermolecular_energy": -10.9, "internal_energy": -3.02, "cluster_size": 34, "cluster_id": 1, "rank_in_cluster": 28}

>  <energy>  (43) 
-8.08

>  <cluster_rmsd>  (43) 
0.3

>  <cluster>  (43) 
2

$$$$

     RDKit          3D

 68 72  0  0  0  0  0  0  0  0999 V2000
  136.5110   70.5560  223.8570 C   0  0  0  0  0  0  0  0  0  0  0  0
  137.2310   71.5650  222.9990 C   0  0  0  0  0  0  0  0  0  0  0  0
  138.5500   70.9960  222.5890 C   0  0  0  0  0  0  0  0  0  0  0  0
  138.5480   70.1620  221.6560 O   0  0  0  0  0  0  0  0  0  0  0  0
  139.7480   71.4070  223.2580 N   0  0  0  0  0  0  0  0  0  0  0  0
  140.0280   70.8670  224.5430 C   0  0  0  0  0  0  0  0  0  0  0  0
  139.5980   69.5560  224.7790 C   0  0  0  0  0  0  0  0  0  0  0  0
  139.8200   68.9490  226.0040 C   0  0  0  0  0  0  0  0  0  0  0  0
  140.4790   69.7020  226.9490 C   0  0  0  0  0  0  0  0  0  0  0  0
  140.9130   70.9870  226.7500 C   0  0  0  0  0  0  0  0  0  0  0  0
  140.6850   71.5760  225.5340 C   0  0  0  0  0  0  0  0  0  0  0  0
  140.6350   72.3540  222.5860 C   0  0  0  0  0  0  0  0  0  0  0  0
  139.7850   73.5250  222.1010 C   0  0  0  0  0  0  0  0  0  0  0  0
  140.7620   74.5830  221.6150 C   0  0  0  0  0  0  0  0  0  0  0  0
  141.6120   73.9940  220.6100 N   0  0  0  0  0  0  0  0  0  0  0  0
  142.4720   74.8250  219.7940 C   0  0  0  0  0  0  0  0  0  0  0  0
  143.2020   74.2910  218.8870 O   0  0  0  0  0  0  0  0  0  0  0  0
  142.5880   76.2900  219.9190 C   0  0  1  0  0  0  0  0  0  0  0  0
  143.7170   76.7500  219.1240 N   0  0  0  0  0  0  0  0  0  0  0  0
  141.3710   77.0060  219.4520 C   0  0  2  0  0  0  0  0  0  0  0  0
  141.6130   77.9740  218.3440 C   0  0  0  0  0  0  0  0  0  0  0  0
  142.1090   78.3160  217.1060 C   0  0  0  0  0  0  0  0  0  0  0  0
  141.9500   79.5800  216.5740 C   0  0  0  0  0  0  0  0  0  0  0  0
  141.2650   80.5550  217.3020 C   0  0  0  0  0  0  0  0  0  0  0  0
  140.7550   80.2220  218.5630 C   0  0  0  0  0  0  0  0  0  0  0  0
  140.9400   78.9300  219.0650 C   0  0  0  0  0  0  0  0  0  0  0  0
  140.6920   78.0200  220.2490 C   0  0  2  0  0  0  0  0  0  0  0  0
  141.2900   78.6490  221.4330 C   0  0  0  0  0  0  0  0  0  0  0  0
  141.0900   78.0780  222.7010 C   0  0  0  0  0  0  0  0  0  0  0  0
  141.6150   78.6500  223.8330 C   0  0  0  0  0  0  0  0  0  0  0  0
  142.3600   79.8050  223.8020 C   0  0  0  0  0  0  0  0  0  0  0  0
  142.5710   80.3930  222.5500 C   0  0  0  0  0  0  0  0  0  0  0  0
  142.0360   79.8050  221.4220 C   0  0  0  0  0  0  0  0  0  0  0  0
  141.6980   72.5790  220.3090 C   0  0  0  0  0  0  0  0  0  0  0  0
  141.2470   71.6670  221.4000 C   0  0  0  0  0  0  0  0  0  0  0  0
  136.6787   70.7911  224.9184 H   0  0  0  0  0  0  0  0  0  0  0  0
  135.4334   70.5920  223.6393 H   0  0  0  0  0  0  0  0  0  0  0  0
  136.8955   69.5487  223.6393 H   0  0  0  0  0  0  0  0  0  0  0  0
  136.6297   71.7857  222.1047 H   0  0  0  0  0  0  0  0  0  0  0  0
  137.3856   72.4947  223.5662 H   0  0  0  0  0  0  0  0  0  0  0  0
  139.0784   69.0021  223.9833 H   0  0  0  0  0  0  0  0  0  0  0  0
  139.4877   67.9209  226.2104 H   0  0  0  0  0  0  0  0  0  0  0  0
  140.6702   69.2419  227.9297 H   0  0  0  0  0  0  0  0  0  0  0  0
  141.4335   71.5340  227.5499 H   0  0  0  0  0  0  0  0  0  0  0  0
  141.0220   72.6061  225.3464 H   0  0  0  0  0  0  0  0  0  0  0  0
  141.4259   72.7079  223.2637 H   0  0  0  0  0  0  0  0  0  0  0  0
  139.1285   73.2051  221.2784 H   0  0  0  0  0  0  0  0  0  0  0  0
  139.1398   73.9124  222.9033 H   0  0  0  0  0  0  0  0  0  0  0  0
  140.2078   75.4292  221.1827 H   0  0  0  0  0  0  0  0  0  0  0  0
  141.3700   74.9489  222.4555 H   0  0  0  0  0  0  0  0  0  0  0  0
  142.7251   76.5114  220.9877 H   0  0  0  0  0  0  0  0  0  0  0  0
  144.2290   75.9380  218.7120 H   0  0  0  0  0  0  0  0  0  0  0  0
  144.3930   77.2190  219.7730 H   0  0  0  0  0  0  0  0  0  0  0  0
  140.8116   76.0676  219.3240 H   0  0  0  0  0  0  0  0  0  0  0  0
  142.6498   77.5571  216.5215 H   0  0  0  0  0  0  0  0  0  0  0  0
  142.3608   79.8178  215.5817 H   0  0  0  0  0  0  0  0  0  0  0  0
  141.1284   81.5667  216.8923 H   0  0  0  0  0  0  0  0  0  0  0  0
  140.2117   80.9728  219.1555 H   0  0  0  0  0  0  0  0  0  0  0  0
  139.7479   77.7160  220.7246 H   0  0  0  0  0  0  0  0  0  0  0  0
  140.5005   77.1534  222.7885 H   0  0  0  0  0  0  0  0  0  0  0  0
  141.4324   78.1650  224.8033 H   0  0  0  0  0  0  0  0  0  0  0  0
  142.7721   80.2474  224.7210 H   0  0  0  0  0  0  0  0  0  0  0  0
  143.1597   81.3183  222.4654 H   0  0  0  0  0  0  0  0  0  0  0  0
  142.2175   80.2915  220.4523 H   0  0  0  0  0  0  0  0  0  0  0  0
  141.0772   72.3817  219.4226 H   0  0  0  0  0  0  0  0  0  0  0  0
  142.7660   72.3649  220.1553 H   0  0  0  0  0  0  0  0  0  0  0  0
  140.4994   70.9772  220.9814 H   0  0  0  0  0  0  0  0  0  0  0  0
  142.1497   71.1588  221.7700 H   0  0  0  0  0  0  0  0  0  0  0  0
  1  2  1  0
  2  3  1  0
  3  4  2  0
  3  5  1  0
  5  6  1  0
  6  7  2  0
  7  8  1  0
  8  9  2  0
  9 10  1  0
 10 11  2  0
  5 12  1  0
 12 13  1  0
 13 14  1  0
 14 15  1  0
 15 16  1  0
 16 17  2  0
 16 18  1  0
 18 19  1  0
 18 20  1  0
 20 21  1  0
 21 22  2  0
 22 23  1  0
 23 24  2  0
 24 25  1  0
 25 26  2  0
 26 27  1  0
 27 28  1  0
 28 29  2  0
 29 30  1  0
 30 31  2  0
 31 32  1  0
 32 33  2  0
 15 34  1  0
 34 35  1  0
 11  6  1  0
 35 12  1  0
 27 20  1  0
 33 28  1  0
 26 21  1  0
  1 36  1  0
  1 37  1  0
  1 38  1  0
  2 39  1  0
  2 40  1  0
  7 41  1  0
  8 42  1  0
  9 43  1  0
 10 44  1  0
 11 45  1  0
 12 46  1  0
 13 47  1  0
 13 48  1  0
 14 49  1  0
 14 50  1  0
 18 51  1  1
 19 52  1  0
 19 53  1  0
 20 54  1  6
 22 55  1  0
 23 56  1  0
 24 57  1  0
 25 58  1  0
 27 59  1  1
 29 60  1  0
 30 61  1  0
 31 62  1  0
 32 63  1  0
 33 64  1  0
 34 65  1  0
 34 66  1  0
 35 67  1  0
 35 68  1  0
M  END
>  <smiles>  (44) 
CCC(=O)N(c1ccccc1)C1CCN(C(=O)[C@@H](N)C2c3ccccc3C2c2ccccc2)CC1

>  <score_type>  (44) 
oracle

>  <origin>  (44) 
autodockgpu

>  <m_score__min__energy>  (44) 
-8.5999999999999996

>  <m_primary>  (44) 
energy

>  <rmsd>  (44) 
10.162592548071325

>  <m_score__min__rmsd>  (44) 
10.162592548071325

>  <meeko>  (44) 
{"free_energy": -8.55, "intermolecular_energy": -10.94, "internal_energy": -3.04, "cluster_size": 34, "cluster_id": 1, "rank_in_cluster": 19}

>  <energy>  (44) 
-8.07

>  <cluster_rmsd>  (44) 
0.48

>  <cluster>  (44) 
2

$$$$

     RDKit          3D

 68 72  0  0  0  0  0  0  0  0999 V2000
  137.8990   83.6790  221.9530 C   0  0  0  0  0  0  0  0  0  0  0  0
  136.9800   83.8830  223.1310 C   0  0  0  0  0  0  0  0  0  0  0  0
  136.1140   82.6750  223.2830 C   0  0  0  0  0  0  0  0  0  0  0  0
  135.2090   82.5090  222.4350 O   0  0  0  0  0  0  0  0  0  0  0  0
  136.3370   81.7650  224.3670 N   0  0  0  0  0  0  0  0  0  0  0  0
  136.0180   82.1910  225.6860 C   0  0  0  0  0  0  0  0  0  0  0  0
  136.4160   81.3490  226.7310 C   0  0  0  0  0  0  0  0  0  0  0  0
  136.1430   81.6790  228.0470 C   0  0  0  0  0  0  0  0  0  0  0  0
  135.4730   82.8630  228.2550 C   0  0  0  0  0  0  0  0  0  0  0  0
  135.0700   83.7090  227.2560 C   0  0  0  0  0  0  0  0  0  0  0  0
  135.3450   83.3700  225.9570 C   0  0  0  0  0  0  0  0  0  0  0  0
  136.8690   80.4370  224.0690 C   0  0  0  0  0  0  0  0  0  0  0  0
  138.0130   80.6070  223.0730 C   0  0  0  0  0  0  0  0  0  0  0  0
  138.6810   79.2460  222.9630 C   0  0  0  0  0  0  0  0  0  0  0  0
  137.6850   78.2770  222.5810 N   0  0  0  0  0  0  0  0  0  0  0  0
  138.0740   76.9460  222.1620 C   0  0  0  0  0  0  0  0  0  0  0  0
  137.1800   76.1040  221.8000 O   0  0  0  0  0  0  0  0  0  0  0  0
  139.4640   76.4560  222.1130 C   0  0  1  0  0  0  0  0  0  0  0  0
  139.4800   75.0350  222.4280 N   0  0  0  0  0  0  0  0  0  0  0  0
  140.0930   76.6410  220.7790 C   0  0  2  0  0  0  0  0  0  0  0  0
  141.2670   75.7580  220.5230 C   0  0  0  0  0  0  0  0  0  0  0  0
  141.8870   74.5290  220.4800 C   0  0  0  0  0  0  0  0  0  0  0  0
  143.1960   74.3800  220.0670 C   0  0  0  0  0  0  0  0  0  0  0  0
  143.9290   75.5010  219.6760 C   0  0  0  0  0  0  0  0  0  0  0  0
  143.3130   76.7580  219.7150 C   0  0  0  0  0  0  0  0  0  0  0  0
  141.9860   76.8660  220.1410 C   0  0  0  0  0  0  0  0  0  0  0  0
  140.8530   77.8310  220.4180 C   0  0  2  0  0  0  0  0  0  0  0  0
  141.3290   78.8130  221.4000 C   0  0  0  0  0  0  0  0  0  0  0  0
  141.3840   80.1730  221.0550 C   0  0  0  0  0  0  0  0  0  0  0  0
  141.8440   81.1170  221.9400 C   0  0  0  0  0  0  0  0  0  0  0  0
  142.2770   80.7970  223.2050 C   0  0  0  0  0  0  0  0  0  0  0  0
  142.2330   79.4480  223.5710 C   0  0  0  0  0  0  0  0  0  0  0  0
  141.7670   78.5120  222.6690 C   0  0  0  0  0  0  0  0  0  0  0  0
  136.2540   78.5050  222.5670 C   0  0  0  0  0  0  0  0  0  0  0  0
  135.7790   79.6260  223.4310 C   0  0  0  0  0  0  0  0  0  0  0  0
  138.9134   83.4538  222.3140 H   0  0  0  0  0  0  0  0  0  0  0  0
  137.5324   82.8404  221.3428 H   0  0  0  0  0  0  0  0  0  0  0  0
  137.9216   84.5940  221.3428 H   0  0  0  0  0  0  0  0  0  0  0  0
  137.5763   84.0273  224.0440 H   0  0  0  0  0  0  0  0  0  0  0  0
  136.3540   84.7724  222.9662 H   0  0  0  0  0  0  0  0  0  0  0  0
  136.9513   80.4153  226.5038 H   0  0  0  0  0  0  0  0  0  0  0  0
  136.4453   81.0298  228.8819 H   0  0  0  0  0  0  0  0  0  0  0  0
  135.2460   83.1490  229.2926 H   0  0  0  0  0  0  0  0  0  0  0  0
  134.5364   84.6416  227.4916 H   0  0  0  0  0  0  0  0  0  0  0  0
  135.0329   84.0306  225.1347 H   0  0  0  0  0  0  0  0  0  0  0  0
  137.2248   79.9359  224.9813 H   0  0  0  0  0  0  0  0  0  0  0  0
  137.6231   80.9213  222.0936 H   0  0  0  0  0  0  0  0  0  0  0  0
  138.7238   81.3782  223.4048 H   0  0  0  0  0  0  0  0  0  0  0  0
  139.4743   79.2825  222.2018 H   0  0  0  0  0  0  0  0  0  0  0  0
  139.1278   78.9665  223.9285 H   0  0  0  0  0  0  0  0  0  0  0  0
  140.0384   77.0429  222.8449 H   0  0  0  0  0  0  0  0  0  0  0  0
  138.6010   74.5760  222.0990 H   0  0  0  0  0  0  0  0  0  0  0  0
  139.4830   74.9410  223.4720 H   0  0  0  0  0  0  0  0  0  0  0  0
  139.1298   76.5323  220.2590 H   0  0  0  0  0  0  0  0  0  0  0  0
  141.3206   73.6366  220.7847 H   0  0  0  0  0  0  0  0  0  0  0  0
  143.6588   73.3823  220.0463 H   0  0  0  0  0  0  0  0  0  0  0  0
  144.9724   75.3992  219.3430 H   0  0  0  0  0  0  0  0  0  0  0  0
  143.8708   77.6563  219.4118 H   0  0  0  0  0  0  0  0  0  0  0  0
  140.3509   78.5461  219.7498 H   0  0  0  0  0  0  0  0  0  0  0  0
  141.0517   80.4888  220.0551 H   0  0  0  0  0  0  0  0  0  0  0  0
  141.8669   82.1705  221.6244 H   0  0  0  0  0  0  0  0  0  0  0  0
  142.6421   81.5684  223.8990 H   0  0  0  0  0  0  0  0  0  0  0  0
  142.5675   79.1345  224.5709 H   0  0  0  0  0  0  0  0  0  0  0  0
  141.7446   77.4587  222.9852 H   0  0  0  0  0  0  0  0  0  0  0  0
  135.9546   78.7236  221.5313 H   0  0  0  0  0  0  0  0  0  0  0  0
  135.7960   77.5915  222.9742 H   0  0  0  0  0  0  0  0  0  0  0  0
  135.1692   80.3002  222.8116 H   0  0  0  0  0  0  0  0  0  0  0  0
  135.2157   79.1635  224.2549 H   0  0  0  0  0  0  0  0  0  0  0  0
  1  2  1  0
  2  3  1  0
  3  4  2  0
  3  5  1  0
  5  6  1  0
  6  7  2  0
  7  8  1  0
  8  9  2  0
  9 10  1  0
 10 11  2  0
  5 12  1  0
 12 13  1  0
 13 14  1  0
 14 15  1  0
 15 16  1  0
 16 17  2  0
 16 18  1  0
 18 19  1  0
 18 20  1  0
 20 21  1  0
 21 22  2  0
 22 23  1  0
 23 24  2  0
 24 25  1  0
 25 26  2  0
 26 27  1  0
 27 28  1  0
 28 29  2  0
 29 30  1  0
 30 31  2  0
 31 32  1  0
 32 33  2  0
 15 34  1  0
 34 35  1  0
 11  6  1  0
 35 12  1  0
 27 20  1  0
 33 28  1  0
 26 21  1  0
  1 36  1  0
  1 37  1  0
  1 38  1  0
  2 39  1  0
  2 40  1  0
  7 41  1  0
  8 42  1  0
  9 43  1  0
 10 44  1  0
 11 45  1  0
 12 46  1  0
 13 47  1  0
 13 48  1  0
 14 49  1  0
 14 50  1  0
 18 51  1  1
 19 52  1  0
 19 53  1  0
 20 54  1  6
 22 55  1  0
 23 56  1  0
 24 57  1  0
 25 58  1  0
 27 59  1  6
 29 60  1  0
 30 61  1  0
 31 62  1  0
 32 63  1  0
 33 64  1  0
 34 65  1  0
 34 66  1  0
 35 67  1  0
 35 68  1  0
M  END
>  <smiles>  (45) 
CCC(=O)N(c1ccccc1)C1CCN(C(=O)[C@@H](N)C2c3ccccc3C2c2ccccc2)CC1

>  <score_type>  (45) 
oracle

>  <origin>  (45) 
autodockgpu

>  <m_score__min__energy>  (45) 
-8.5999999999999996

>  <m_primary>  (45) 
energy

>  <rmsd>  (45) 
8.239662015540379

>  <m_score__min__rmsd>  (45) 
8.239662015540379

>  <meeko>  (45) 
{"free_energy": -7.91, "intermolecular_energy": -10.29, "internal_energy": -3.36, "cluster_size": 15, "cluster_id": 2, "rank_in_cluster": 13}

>  <energy>  (45) 
-8.04

>  <cluster_rmsd>  (45) 
0.55

>  <cluster>  (45) 
2

$$$$

     RDKit          3D

 68 72  0  0  0  0  0  0  0  0999 V2000
  136.6030   70.4010  223.8910 C   0  0  0  0  0  0  0  0  0  0  0  0
  137.2590   71.5030  223.0980 C   0  0  0  0  0  0  0  0  0  0  0  0
  138.5920   71.0260  222.6190 C   0  0  0  0  0  0  0  0  0  0  0  0
  138.6040   70.2550  221.6340 O   0  0  0  0  0  0  0  0  0  0  0  0
  139.7870   71.4520  223.2850 N   0  0  0  0  0  0  0  0  0  0  0  0
  140.0700   70.9240  224.5750 C   0  0  0  0  0  0  0  0  0  0  0  0
  140.7140   71.7790  225.4760 C   0  0  0  0  0  0  0  0  0  0  0  0
  141.0340   71.3500  226.7530 C   0  0  0  0  0  0  0  0  0  0  0  0
  140.6830   70.0570  227.0690 C   0  0  0  0  0  0  0  0  0  0  0  0
  140.0520   69.1950  226.2120 C   0  0  0  0  0  0  0  0  0  0  0  0
  139.7420   69.6320  224.9500 C   0  0  0  0  0  0  0  0  0  0  0  0
  140.6680   72.3980  222.6050 C   0  0  0  0  0  0  0  0  0  0  0  0
  139.8070   73.5500  222.0940 C   0  0  0  0  0  0  0  0  0  0  0  0
  140.7760   74.6120  221.5990 C   0  0  0  0  0  0  0  0  0  0  0  0
  141.6410   74.0170  220.6110 N   0  0  0  0  0  0  0  0  0  0  0  0
  142.4980   74.8450  219.7880 C   0  0  0  0  0  0  0  0  0  0  0  0
  143.2410   74.3060  218.8950 O   0  0  0  0  0  0  0  0  0  0  0  0
  142.5950   76.3140  219.8900 C   0  0  1  0  0  0  0  0  0  0  0  0
  143.7000   76.7780  219.0660 N   0  0  0  0  0  0  0  0  0  0  0  0
  141.3590   77.0050  219.4370 C   0  0  2  0  0  0  0  0  0  0  0  0
  141.5760   78.0170  218.3640 C   0  0  0  0  0  0  0  0  0  0  0  0
  142.0690   78.4160  217.1420 C   0  0  0  0  0  0  0  0  0  0  0  0
  141.8730   79.6920  216.6510 C   0  0  0  0  0  0  0  0  0  0  0  0
  141.1530   80.6190  217.4060 C   0  0  0  0  0  0  0  0  0  0  0  0
  140.6450   80.2280  218.6510 C   0  0  0  0  0  0  0  0  0  0  0  0
  140.8680   78.9270  219.1120 C   0  0  0  0  0  0  0  0  0  0  0  0
  140.6420   77.9700  220.2630 C   0  0  2  0  0  0  0  0  0  0  0  0
  141.2110   78.5780  221.4720 C   0  0  0  0  0  0  0  0  0  0  0  0
  141.9800   79.7490  221.3660 C   0  0  0  0  0  0  0  0  0  0  0  0
  142.5470   80.3330  222.4720 C   0  0  0  0  0  0  0  0  0  0  0  0
  142.4030   79.8180  223.7380 C   0  0  0  0  0  0  0  0  0  0  0  0
  141.6420   78.6510  223.8680 C   0  0  0  0  0  0  0  0  0  0  0  0
  141.0790   78.0770  222.7460 C   0  0  0  0  0  0  0  0  0  0  0  0
  141.7470   72.5990  220.3330 C   0  0  0  0  0  0  0  0  0  0  0  0
  141.2970   71.6990  221.4350 C   0  0  0  0  0  0  0  0  0  0  0  0
  136.7225   70.6017  224.9659 H   0  0  0  0  0  0  0  0  0  0  0  0
  135.5322   70.3581  223.6428 H   0  0  0  0  0  0  0  0  0  0  0  0
  137.0757   69.4393  223.6428 H   0  0  0  0  0  0  0  0  0  0  0  0
  136.6280   71.7634  222.2354 H   0  0  0  0  0  0  0  0  0  0  0  0
  137.3869   72.3932  223.7315 H   0  0  0  0  0  0  0  0  0  0  0  0
  140.9689   72.8033  225.1665 H   0  0  0  0  0  0  0  0  0  0  0  0
  141.5410   72.0065  227.4755 H   0  0  0  0  0  0  0  0  0  0  0  0
  140.9257   69.6915  228.0777 H   0  0  0  0  0  0  0  0  0  0  0  0
  139.7990   68.1727  226.5298 H   0  0  0  0  0  0  0  0  0  0  0  0
  139.2362   68.9609  224.2402 H   0  0  0  0  0  0  0  0  0  0  0  0
  141.4495   72.7725  223.2825 H   0  0  0  0  0  0  0  0  0  0  0  0
  139.1615   73.2087  221.2713 H   0  0  0  0  0  0  0  0  0  0  0  0
  139.1497   73.9421  222.8840 H   0  0  0  0  0  0  0  0  0  0  0  0
  140.2157   75.4445  221.1485 H   0  0  0  0  0  0  0  0  0  0  0  0
  141.3725   74.9986  222.4384 H   0  0  0  0  0  0  0  0  0  0  0  0
  142.7502   76.5531  220.9524 H   0  0  0  0  0  0  0  0  0  0  0  0
  144.3000   75.9740  218.7700 H   0  0  0  0  0  0  0  0  0  0  0  0
  144.3090   77.3870  219.6630 H   0  0  0  0  0  0  0  0  0  0  0  0
  140.8317   76.0537  219.2727 H   0  0  0  0  0  0  0  0  0  0  0  0
  142.6377   77.6948  216.5367 H   0  0  0  0  0  0  0  0  0  0  0  0
  142.2822   79.9760  215.6702 H   0  0  0  0  0  0  0  0  0  0  0  0
  140.9874   81.6392  217.0296 H   0  0  0  0  0  0  0  0  0  0  0  0
  140.0733   80.9409  219.2633 H   0  0  0  0  0  0  0  0  0  0  0  0
  139.7053   77.6196  220.7212 H   0  0  0  0  0  0  0  0  0  0  0  0
  142.1309   80.2072  220.3774 H   0  0  0  0  0  0  0  0  0  0  0  0
  143.1402   81.2498  222.3393 H   0  0  0  0  0  0  0  0  0  0  0  0
  142.8657   80.3019  224.6108 H   0  0  0  0  0  0  0  0  0  0  0  0
  141.4934   78.1941  224.8575 H   0  0  0  0  0  0  0  0  0  0  0  0
  140.4866   77.1598  222.8794 H   0  0  0  0  0  0  0  0  0  0  0  0
  141.1366   72.3801  219.4444 H   0  0  0  0  0  0  0  0  0  0  0  0
  142.8187   72.3954  220.1917 H   0  0  0  0  0  0  0  0  0  0  0  0
  140.5603   70.9945  221.0215 H   0  0  0  0  0  0  0  0  0  0  0  0
  142.2021   71.2065  221.8201 H   0  0  0  0  0  0  0  0  0  0  0  0
  1  2  1  0
  2  3  1  0
  3  4  2  0
  3  5  1  0
  5  6  1  0
  6  7  2  0
  7  8  1  0
  8  9  2  0
  9 10  1  0
 10 11  2  0
  5 12  1  0
 12 13  1  0
 13 14  1  0
 14 15  1  0
 15 16  1  0
 16 17  2  0
 16 18  1  0
 18 19  1  0
 18 20  1  0
 20 21  1  0
 21 22  2  0
 22 23  1  0
 23 24  2  0
 24 25  1  0
 25 26  2  0
 26 27  1  0
 27 28  1  0
 28 29  2  0
 29 30  1  0
 30 31  2  0
 31 32  1  0
 32 33  2  0
 15 34  1  0
 34 35  1  0
 11  6  1  0
 35 12  1  0
 27 20  1  0
 33 28  1  0
 26 21  1  0
  1 36  1  0
  1 37  1  0
  1 38  1  0
  2 39  1  0
  2 40  1  0
  7 41  1  0
  8 42  1  0
  9 43  1  0
 10 44  1  0
 11 45  1  0
 12 46  1  0
 13 47  1  0
 13 48  1  0
 14 49  1  0
 14 50  1  0
 18 51  1  1
 19 52  1  0
 19 53  1  0
 20 54  1  6
 22 55  1  0
 23 56  1  0
 24 57  1  0
 25 58  1  0
 27 59  1  1
 29 60  1  0
 30 61  1  0
 31 62  1  0
 32 63  1  0
 33 64  1  0
 34 65  1  0
 34 66  1  0
 35 67  1  0
 35 68  1  0
M  END
>  <smiles>  (46) 
CCC(=O)N(c1ccccc1)C1CCN(C(=O)[C@@H](N)C2c3ccccc3C2c2ccccc2)CC1

>  <score_type>  (46) 
oracle

>  <origin>  (46) 
autodockgpu

>  <m_score__min__energy>  (46) 
-8.5999999999999996

>  <m_primary>  (46) 
energy

>  <rmsd>  (46) 
10.15421242275314

>  <m_score__min__rmsd>  (46) 
10.15421242275314

>  <meeko>  (46) 
{"free_energy": -8.58, "intermolecular_energy": -10.97, "internal_energy": -3.02, "cluster_size": 34, "cluster_id": 1, "rank_in_cluster": 3}

>  <energy>  (46) 
-8.04

>  <cluster_rmsd>  (46) 
0.55

>  <cluster>  (46) 
2

$$$$

     RDKit          3D

 68 72  0  0  0  0  0  0  0  0999 V2000
  136.6070   70.6210  223.8920 C   0  0  0  0  0  0  0  0  0  0  0  0
  137.3510   71.2780  222.7580 C   0  0  0  0  0  0  0  0  0  0  0  0
  138.7110   70.6680  222.6550 C   0  0  0  0  0  0  0  0  0  0  0  0
  138.8310   69.6550  221.9320 O   0  0  0  0  0  0  0  0  0  0  0  0
  139.8120   71.2450  223.3700 N   0  0  0  0  0  0  0  0  0  0  0  0
  140.0280   70.8470  224.7170 C   0  0  0  0  0  0  0  0  0  0  0  0
  140.7110   71.7520  225.5370 C   0  0  0  0  0  0  0  0  0  0  0  0
  140.9730   71.4470  226.8620 C   0  0  0  0  0  0  0  0  0  0  0  0
  140.5250   70.2250  227.3080 C   0  0  0  0  0  0  0  0  0  0  0  0
  139.8540   69.3170  226.5330 C   0  0  0  0  0  0  0  0  0  0  0  0
  139.6020   69.6300  225.2230 C   0  0  0  0  0  0  0  0  0  0  0  0
  140.6690   72.2060  222.6790 C   0  0  0  0  0  0  0  0  0  0  0  0
  139.8080   73.4070  222.2990 C   0  0  0  0  0  0  0  0  0  0  0  0
  140.7700   74.4700  221.7920 C   0  0  0  0  0  0  0  0  0  0  0  0
  141.5410   73.9110  220.7100 N   0  0  0  0  0  0  0  0  0  0  0  0
  142.3600   74.7620  219.8720 C   0  0  0  0  0  0  0  0  0  0  0  0
  143.0190   74.2560  218.8980 O   0  0  0  0  0  0  0  0  0  0  0  0
  142.5090   76.2190  220.0480 C   0  0  1  0  0  0  0  0  0  0  0  0
  143.6940   76.6680  219.3340 N   0  0  0  0  0  0  0  0  0  0  0  0
  141.3420   76.9840  219.5330 C   0  0  2  0  0  0  0  0  0  0  0  0
  141.6600   77.9100  218.4100 C   0  0  0  0  0  0  0  0  0  0  0  0
  142.2020   78.1960  217.1760 C   0  0  0  0  0  0  0  0  0  0  0  0
  142.1210   79.4530  216.6110 C   0  0  0  0  0  0  0  0  0  0  0  0
  141.4700   80.4780  217.2970 C   0  0  0  0  0  0  0  0  0  0  0  0
  140.9130   80.2030  218.5530 C   0  0  0  0  0  0  0  0  0  0  0  0
  141.0190   78.9170  219.0900 C   0  0  0  0  0  0  0  0  0  0  0  0
  140.6960   78.0500  220.2890 C   0  0  2  0  0  0  0  0  0  0  0  0
  141.2970   78.6780  221.4730 C   0  0  0  0  0  0  0  0  0  0  0  0
  141.1560   78.0700  222.7300 C   0  0  0  0  0  0  0  0  0  0  0  0
  141.6850   78.6390  223.8620 C   0  0  0  0  0  0  0  0  0  0  0  0
  142.3780   79.8260  223.8410 C   0  0  0  0  0  0  0  0  0  0  0  0
  142.5300   80.4510  222.5990 C   0  0  0  0  0  0  0  0  0  0  0  0
  141.9920   79.8660  221.4710 C   0  0  0  0  0  0  0  0  0  0  0  0
  141.5830   72.5090  220.3470 C   0  0  0  0  0  0  0  0  0  0  0  0
  141.1880   71.5590  221.4280 C   0  0  0  0  0  0  0  0  0  0  0  0
  137.0109   70.9777  224.8510 H   0  0  0  0  0  0  0  0  0  0  0  0
  135.5390   70.8761  223.8264 H   0  0  0  0  0  0  0  0  0  0  0  0
  136.7280   69.5296  223.8264 H   0  0  0  0  0  0  0  0  0  0  0  0
  136.8035   71.1211  221.8169 H   0  0  0  0  0  0  0  0  0  0  0  0
  137.4398   72.3581  222.9462 H   0  0  0  0  0  0  0  0  0  0  0  0
  141.0433   72.7161  225.1246 H   0  0  0  0  0  0  0  0  0  0  0  0
  141.5102   72.1439  227.5222 H   0  0  0  0  0  0  0  0  0  0  0  0
  140.7188   69.9595  228.3577 H   0  0  0  0  0  0  0  0  0  0  0  0
  139.5240   68.3557  226.9537 H   0  0  0  0  0  0  0  0  0  0  0  0
  139.0649   68.9195  224.5775 H   0  0  0  0  0  0  0  0  0  0  0  0
  141.5092   72.5208  223.3153 H   0  0  0  0  0  0  0  0  0  0  0  0
  139.0936   73.1304  221.5096 H   0  0  0  0  0  0  0  0  0  0  0  0
  139.2226   73.7700  223.1566 H   0  0  0  0  0  0  0  0  0  0  0  0
  140.2036   75.3417  221.4323 H   0  0  0  0  0  0  0  0  0  0  0  0
  141.4386   74.7913  222.6043 H   0  0  0  0  0  0  0  0  0  0  0  0
  142.5892   76.4052  221.1292 H   0  0  0  0  0  0  0  0  0  0  0  0
  144.2370   75.8510  218.9740 H   0  0  0  0  0  0  0  0  0  0  0  0
  144.3200   77.1480  220.0250 H   0  0  0  0  0  0  0  0  0  0  0  0
  140.7386   76.0723  219.4122 H   0  0  0  0  0  0  0  0  0  0  0  0
  142.7162   77.3963  216.6227 H   0  0  0  0  0  0  0  0  0  0  0  0
  142.5678   79.6452  215.6244 H   0  0  0  0  0  0  0  0  0  0  0  0
  141.3951   81.4846  216.8598 H   0  0  0  0  0  0  0  0  0  0  0  0
  140.3950   80.9952  219.1135 H   0  0  0  0  0  0  0  0  0  0  0  0
  139.7266   77.8055  220.7477 H   0  0  0  0  0  0  0  0  0  0  0  0
  140.6105   77.1181  222.8099 H   0  0  0  0  0  0  0  0  0  0  0  0
  141.5488   78.1243  224.8246 H   0  0  0  0  0  0  0  0  0  0  0  0
  142.7944   80.2646  224.7598 H   0  0  0  0  0  0  0  0  0  0  0  0
  143.0752   81.4033  222.5219 H   0  0  0  0  0  0  0  0  0  0  0  0
  142.1272   80.3819  220.5089 H   0  0  0  0  0  0  0  0  0  0  0  0
  140.9026   72.3576  219.4960 H   0  0  0  0  0  0  0  0  0  0  0  0
  142.6348   72.2859  220.1149 H   0  0  0  0  0  0  0  0  0  0  0  0
  140.4014   70.8994  221.0327 H   0  0  0  0  0  0  0  0  0  0  0  0
  142.1033   71.0210  221.7157 H   0  0  0  0  0  0  0  0  0  0  0  0
  1  2  1  0
  2  3  1  0
  3  4  2  0
  3  5  1  0
  5  6  1  0
  6  7  2  0
  7  8  1  0
  8  9  2  0
  9 10  1  0
 10 11  2  0
  5 12  1  0
 12 13  1  0
 13 14  1  0
 14 15  1  0
 15 16  1  0
 16 17  2  0
 16 18  1  0
 18 19  1  0
 18 20  1  0
 20 21  1  0
 21 22  2  0
 22 23  1  0
 23 24  2  0
 24 25  1  0
 25 26  2  0
 26 27  1  0
 27 28  1  0
 28 29  2  0
 29 30  1  0
 30 31  2  0
 31 32  1  0
 32 33  2  0
 15 34  1  0
 34 35  1  0
 11  6  1  0
 35 12  1  0
 27 20  1  0
 33 28  1  0
 26 21  1  0
  1 36  1  0
  1 37  1  0
  1 38  1  0
  2 39  1  0
  2 40  1  0
  7 41  1  0
  8 42  1  0
  9 43  1  0
 10 44  1  0
 11 45  1  0
 12 46  1  0
 13 47  1  0
 13 48  1  0
 14 49  1  0
 14 50  1  0
 18 51  1  1
 19 52  1  0
 19 53  1  0
 20 54  1  6
 22 55  1  0
 23 56  1  0
 24 57  1  0
 25 58  1  0
 27 59  1  1
 29 60  1  0
 30 61  1  0
 31 62  1  0
 32 63  1  0
 33 64  1  0
 34 65  1  0
 34 66  1  0
 35 67  1  0
 35 68  1  0
M  END
>  <smiles>  (47) 
CCC(=O)N(c1ccccc1)C1CCN(C(=O)[C@@H](N)C2c3ccccc3C2c2ccccc2)CC1

>  <score_type>  (47) 
oracle

>  <origin>  (47) 
autodockgpu

>  <m_score__min__energy>  (47) 
-8.5999999999999996

>  <m_primary>  (47) 
energy

>  <rmsd>  (47) 
10.112601708984627

>  <m_score__min__rmsd>  (47) 
10.112601708984627

>  <meeko>  (47) 
{"free_energy": -8.57, "intermolecular_energy": -10.95, "internal_energy": -3.02, "cluster_size": 34, "cluster_id": 1, "rank_in_cluster": 11}

>  <energy>  (47) 
-7.91

>  <cluster_rmsd>  (47) 
0.82

>  <cluster>  (47) 
2

$$$$

     RDKit          3D

 68 72  0  0  0  0  0  0  0  0999 V2000
  134.6010   82.5640  222.2430 C   0  0  0  0  0  0  0  0  0  0  0  0
  134.9400   83.4070  223.4460 C   0  0  0  0  0  0  0  0  0  0  0  0
  136.2760   82.9900  223.9670 C   0  0  0  0  0  0  0  0  0  0  0  0
  137.2800   83.5720  223.4990 O   0  0  0  0  0  0  0  0  0  0  0  0
  136.3700   81.9610  224.9600 N   0  0  0  0  0  0  0  0  0  0  0  0
  135.9890   82.2710  226.2950 C   0  0  0  0  0  0  0  0  0  0  0  0
  135.8190   83.6250  226.6010 C   0  0  0  0  0  0  0  0  0  0  0  0
  135.4550   84.0210  227.8770 C   0  0  0  0  0  0  0  0  0  0  0  0
  135.2730   83.0170  228.8010 C   0  0  0  0  0  0  0  0  0  0  0  0
  135.4310   81.6830  228.5330 C   0  0  0  0  0  0  0  0  0  0  0  0
  135.7930   81.3040  227.2670 C   0  0  0  0  0  0  0  0  0  0  0  0
  136.8400   80.6380  224.5560 C   0  0  0  0  0  0  0  0  0  0  0  0
  138.0050   80.8340  223.5900 C   0  0  0  0  0  0  0  0  0  0  0  0
  138.6070   79.4560  223.3720 C   0  0  0  0  0  0  0  0  0  0  0  0
  137.5710   78.5720  222.8990 N   0  0  0  0  0  0  0  0  0  0  0  0
  137.9000   77.2640  222.3730 C   0  0  0  0  0  0  0  0  0  0  0  0
  136.9710   76.5010  221.9320 O   0  0  0  0  0  0  0  0  0  0  0  0
  139.2650   76.7110  222.2960 C   0  0  1  0  0  0  0  0  0  0  0  0
  139.2260   75.2950  222.6290 N   0  0  0  0  0  0  0  0  0  0  0  0
  139.8690   76.8510  220.9450 C   0  0  2  0  0  0  0  0  0  0  0  0
  140.9900   75.9090  220.6700 C   0  0  0  0  0  0  0  0  0  0  0  0
  141.5460   74.6500  220.6240 C   0  0  0  0  0  0  0  0  0  0  0  0
  142.8350   74.4310  220.1800 C   0  0  0  0  0  0  0  0  0  0  0  0
  143.6130   75.5100  219.7590 C   0  0  0  0  0  0  0  0  0  0  0  0
  143.0620   76.7980  219.8000 C   0  0  0  0  0  0  0  0  0  0  0  0
  141.7530   76.9750  220.2580 C   0  0  0  0  0  0  0  0  0  0  0  0
  140.6770   77.9990  220.5520 C   0  0  2  0  0  0  0  0  0  0  0  0
  141.2270   78.9650  221.5120 C   0  0  0  0  0  0  0  0  0  0  0  0
  141.6960   78.5170  222.7580 C   0  0  0  0  0  0  0  0  0  0  0  0
  142.1970   79.3940  223.6890 C   0  0  0  0  0  0  0  0  0  0  0  0
  142.2680   80.7490  223.4680 C   0  0  0  0  0  0  0  0  0  0  0  0
  141.8050   81.2180  222.2340 C   0  0  0  0  0  0  0  0  0  0  0  0
  141.3060   80.3230  221.3090 C   0  0  0  0  0  0  0  0  0  0  0  0
  136.1530   78.8730  222.8900 C   0  0  0  0  0  0  0  0  0  0  0  0
  135.7220   79.9390  223.8410 C   0  0  0  0  0  0  0  0  0  0  0  0
  134.2098   81.5912  222.5755 H   0  0  0  0  0  0  0  0  0  0  0  0
  133.8396   83.0780  221.6379 H   0  0  0  0  0  0  0  0  0  0  0  0
  135.5062   82.4078  221.6379 H   0  0  0  0  0  0  0  0  0  0  0  0
  134.9710   84.4678  223.1568 H   0  0  0  0  0  0  0  0  0  0  0  0
  134.1761   83.2691  224.2254 H   0  0  0  0  0  0  0  0  0  0  0  0
  135.9761   84.3834  225.8199 H   0  0  0  0  0  0  0  0  0  0  0  0
  135.3186   85.0808  228.1382 H   0  0  0  0  0  0  0  0  0  0  0  0
  134.9815   83.3049  229.8218 H   0  0  0  0  0  0  0  0  0  0  0  0
  135.2704   80.9305  229.3191 H   0  0  0  0  0  0  0  0  0  0  0  0
  135.9270   80.2395  227.0244 H   0  0  0  0  0  0  0  0  0  0  0  0
  137.1572   80.0447  225.4263 H   0  0  0  0  0  0  0  0  0  0  0  0
  137.6451   81.2487  222.6368 H   0  0  0  0  0  0  0  0  0  0  0  0
  138.7477   81.5381  223.9932 H   0  0  0  0  0  0  0  0  0  0  0  0
  139.4120   79.5171  222.6248 H   0  0  0  0  0  0  0  0  0  0  0  0
  139.0252   79.0747  224.3152 H   0  0  0  0  0  0  0  0  0  0  0  0
  139.8825   77.2809  223.0059 H   0  0  0  0  0  0  0  0  0  0  0  0
  138.2410   74.9440  222.6240 H   0  0  0  0  0  0  0  0  0  0  0  0
  139.5650   75.1900  223.6160 H   0  0  0  0  0  0  0  0  0  0  0  0
  138.8889   76.7846  220.4500 H   0  0  0  0  0  0  0  0  0  0  0  0
  140.9433   73.7902  220.9518 H   0  0  0  0  0  0  0  0  0  0  0  0
  143.2464   73.4111  220.1583 H   0  0  0  0  0  0  0  0  0  0  0  0
  144.6411   75.3525  219.4011 H   0  0  0  0  0  0  0  0  0  0  0  0
  143.6559   77.6645  219.4738 H   0  0  0  0  0  0  0  0  0  0  0  0
  140.1942   78.7321  219.8890 H   0  0  0  0  0  0  0  0  0  0  0  0
  141.6614   77.4429  222.9928 H   0  0  0  0  0  0  0  0  0  0  0  0
  142.5557   78.9962  224.6498 H   0  0  0  0  0  0  0  0  0  0  0  0
  142.6712   81.4343  224.2281 H   0  0  0  0  0  0  0  0  0  0  0  0
  141.8383   82.2928  222.0023 H   0  0  0  0  0  0  0  0  0  0  0  0
  140.9487   80.7215  220.3480 H   0  0  0  0  0  0  0  0  0  0  0  0
  135.8799   79.1934  221.8737 H   0  0  0  0  0  0  0  0  0  0  0  0
  135.6444   77.9528  223.2133 H   0  0  0  0  0  0  0  0  0  0  0  0
  135.1545   80.6925  223.2751 H   0  0  0  0  0  0  0  0  0  0  0  0
  135.1260   79.4369  224.6173 H   0  0  0  0  0  0  0  0  0  0  0  0
  1  2  1  0
  2  3  1  0
  3  4  2  0
  3  5  1  0
  5  6  1  0
  6  7  2  0
  7  8  1  0
  8  9  2  0
  9 10  1  0
 10 11  2  0
  5 12  1  0
 12 13  1  0
 13 14  1  0
 14 15  1  0
 15 16  1  0
 16 17  2  0
 16 18  1  0
 18 19  1  0
 18 20  1  0
 20 21  1  0
 21 22  2  0
 22 23  1  0
 23 24  2  0
 24 25  1  0
 25 26  2  0
 26 27  1  0
 27 28  1  0
 28 29  2  0
 29 30  1  0
 30 31  2  0
 31 32  1  0
 32 33  2  0
 15 34  1  0
 34 35  1  0
 11  6  1  0
 35 12  1  0
 27 20  1  0
 33 28  1  0
 26 21  1  0
  1 36  1  0
  1 37  1  0
  1 38  1  0
  2 39  1  0
  2 40  1  0
  7 41  1  0
  8 42  1  0
  9 43  1  0
 10 44  1  0
 11 45  1  0
 12 46  1  0
 13 47  1  0
 13 48  1  0
 14 49  1  0
 14 50  1  0
 18 51  1  1
 19 52  1  0
 19 53  1  0
 20 54  1  6
 22 55  1  0
 23 56  1  0
 24 57  1  0
 25 58  1  0
 27 59  1  6
 29 60  1  0
 30 61  1  0
 31 62  1  0
 32 63  1  0
 33 64  1  0
 34 65  1  0
 34 66  1  0
 35 67  1  0
 35 68  1  0
M  END
>  <smiles>  (48) 
CCC(=O)N(c1ccccc1)C1CCN(C(=O)[C@@H](N)C2c3ccccc3C2c2ccccc2)CC1

>  <score_type>  (48) 
oracle

>  <origin>  (48) 
autodockgpu

>  <m_score__min__energy>  (48) 
-8.5999999999999996

>  <m_primary>  (48) 
energy

>  <rmsd>  (48) 
8.308213613428805

>  <m_score__min__rmsd>  (48) 
8.308213613428805

>  <meeko>  (48) 
{"free_energy": -8.11, "intermolecular_energy": -10.5, "internal_energy": -3.25, "cluster_size": 15, "cluster_id": 2, "rank_in_cluster": 6}

>  <energy>  (48) 
-7.9

>  <cluster_rmsd>  (48) 
0.8

>  <cluster>  (48) 
2

$$$$

     RDKit          3D

 68 72  0  0  0  0  0  0  0  0999 V2000
  136.5930   70.3960  224.0650 C   0  0  0  0  0  0  0  0  0  0  0  0
  137.2450   71.3670  223.1140 C   0  0  0  0  0  0  0  0  0  0  0  0
  138.5720   70.8200  222.7000 C   0  0  0  0  0  0  0  0  0  0  0  0
  138.5840   69.9960  221.7600 O   0  0  0  0  0  0  0  0  0  0  0  0
  139.7630   71.2430  223.3750 N   0  0  0  0  0  0  0  0  0  0  0  0
  140.0460   70.6980  224.6580 C   0  0  0  0  0  0  0  0  0  0  0  0
  140.6960   71.5380  225.5680 C   0  0  0  0  0  0  0  0  0  0  0  0
  141.0180   71.0910  226.8380 C   0  0  0  0  0  0  0  0  0  0  0  0
  140.6610   69.7960  227.1390 C   0  0  0  0  0  0  0  0  0  0  0  0
  140.0240   68.9480  226.2720 C   0  0  0  0  0  0  0  0  0  0  0  0
  139.7130   69.4030  225.0170 C   0  0  0  0  0  0  0  0  0  0  0  0
  140.6400   72.2060  222.7120 C   0  0  0  0  0  0  0  0  0  0  0  0
  139.7870   73.4000  222.2930 C   0  0  0  0  0  0  0  0  0  0  0  0
  140.7610   74.4660  221.8160 C   0  0  0  0  0  0  0  0  0  0  0  0
  141.5750   73.9060  220.7670 N   0  0  0  0  0  0  0  0  0  0  0  0
  142.4200   74.7570  219.9560 C   0  0  0  0  0  0  0  0  0  0  0  0
  143.1180   74.2500  219.0100 O   0  0  0  0  0  0  0  0  0  0  0  0
  142.5540   76.2160  220.1290 C   0  0  1  0  0  0  0  0  0  0  0  0
  143.7470   76.6720  219.4320 N   0  0  0  0  0  0  0  0  0  0  0  0
  141.3890   76.9690  219.5940 C   0  0  2  0  0  0  0  0  0  0  0  0
  141.7220   77.9200  218.4950 C   0  0  0  0  0  0  0  0  0  0  0  0
  142.2950   78.2370  217.2840 C   0  0  0  0  0  0  0  0  0  0  0  0
  142.2070   79.5020  216.7380 C   0  0  0  0  0  0  0  0  0  0  0  0
  141.5180   80.5040  217.4220 C   0  0  0  0  0  0  0  0  0  0  0  0
  140.9300   80.1970  218.6560 C   0  0  0  0  0  0  0  0  0  0  0  0
  141.0440   78.9040  219.1740 C   0  0  0  0  0  0  0  0  0  0  0  0
  140.7020   78.0100  220.3480 C   0  0  2  0  0  0  0  0  0  0  0  0
  141.2570   78.6280  221.5590 C   0  0  0  0  0  0  0  0  0  0  0  0
  142.0130   79.8060  221.4550 C   0  0  0  0  0  0  0  0  0  0  0  0
  142.5660   80.4000  222.5640 C   0  0  0  0  0  0  0  0  0  0  0  0
  142.4180   79.8860  223.8300 C   0  0  0  0  0  0  0  0  0  0  0  0
  141.6690   78.7120  223.9580 C   0  0  0  0  0  0  0  0  0  0  0  0
  141.1210   78.1280  222.8340 C   0  0  0  0  0  0  0  0  0  0  0  0
  141.6390   72.5020  220.4140 C   0  0  0  0  0  0  0  0  0  0  0  0
  141.2100   71.5550  221.4850 C   0  0  0  0  0  0  0  0  0  0  0  0
  136.7991   70.7030  225.1010 H   0  0  0  0  0  0  0  0  0  0  0  0
  135.5064   70.3889  223.8940 H   0  0  0  0  0  0  0  0  0  0  0  0
  136.9977   69.3875  223.8940 H   0  0  0  0  0  0  0  0  0  0  0  0
  136.6075   71.5004  222.2275 H   0  0  0  0  0  0  0  0  0  0  0  0
  137.3804   72.3400  223.6088 H   0  0  0  0  0  0  0  0  0  0  0  0
  140.9542   72.5653  225.2712 H   0  0  0  0  0  0  0  0  0  0  0  0
  141.5312   71.7355  227.5669 H   0  0  0  0  0  0  0  0  0  0  0  0
  140.9034   69.4168  228.1427 H   0  0  0  0  0  0  0  0  0  0  0  0
  139.7673   67.9227  226.5768 H   0  0  0  0  0  0  0  0  0  0  0  0
  139.2022   68.7436  224.2998 H   0  0  0  0  0  0  0  0  0  0  0  0
  141.4534   72.5296  223.3781 H   0  0  0  0  0  0  0  0  0  0  0  0
  139.1042   73.1148  221.4791 H   0  0  0  0  0  0  0  0  0  0  0  0
  139.1681   73.7644  223.1261 H   0  0  0  0  0  0  0  0  0  0  0  0
  140.2033   75.3322  221.4304 H   0  0  0  0  0  0  0  0  0  0  0  0
  141.3969   74.7958  222.6508 H   0  0  0  0  0  0  0  0  0  0  0  0
  142.6156   76.4072  221.2105 H   0  0  0  0  0  0  0  0  0  0  0  0
  143.7310   77.7110  219.3200 H   0  0  0  0  0  0  0  0  0  0  0  0
  143.7200   76.2770  218.4620 H   0  0  0  0  0  0  0  0  0  0  0  0
  140.8061   76.0487  219.4415 H   0  0  0  0  0  0  0  0  0  0  0  0
  142.8409   77.4568  216.7333 H   0  0  0  0  0  0  0  0  0  0  0  0
  142.6781   79.7189  215.7679 H   0  0  0  0  0  0  0  0  0  0  0  0
  141.4379   81.5167  217.0000 H   0  0  0  0  0  0  0  0  0  0  0  0
  140.3813   80.9698  219.2144 H   0  0  0  0  0  0  0  0  0  0  0  0
  139.7242   77.7401  220.7734 H   0  0  0  0  0  0  0  0  0  0  0  0
  142.1659   80.2628  220.4661 H   0  0  0  0  0  0  0  0  0  0  0  0
  143.1499   81.3230  222.4333 H   0  0  0  0  0  0  0  0  0  0  0  0
  142.8692   80.3769  224.7049 H   0  0  0  0  0  0  0  0  0  0  0  0
  141.5176   78.2570  224.9480 H   0  0  0  0  0  0  0  0  0  0  0  0
  140.5385   77.2042  222.9656 H   0  0  0  0  0  0  0  0  0  0  0  0
  140.9917   72.3416  219.5392 H   0  0  0  0  0  0  0  0  0  0  0  0
  142.7002   72.2845  220.2227 H   0  0  0  0  0  0  0  0  0  0  0  0
  140.4432   70.8878  221.0644 H   0  0  0  0  0  0  0  0  0  0  0  0
  142.1172   71.0245  221.8099 H   0  0  0  0  0  0  0  0  0  0  0  0
  1  2  1  0
  2  3  1  0
  3  4  2  0
  3  5  1  0
  5  6  1  0
  6  7  2  0
  7  8  1  0
  8  9  2  0
  9 10  1  0
 10 11  2  0
  5 12  1  0
 12 13  1  0
 13 14  1  0
 14 15  1  0
 15 16  1  0
 16 17  2  0
 16 18  1  0
 18 19  1  0
 18 20  1  0
 20 21  1  0
 21 22  2  0
 22 23  1  0
 23 24  2  0
 24 25  1  0
 25 26  2  0
 26 27  1  0
 27 28  1  0
 28 29  2  0
 29 30  1  0
 30 31  2  0
 31 32  1  0
 32 33  2  0
 15 34  1  0
 34 35  1  0
 11  6  1  0
 35 12  1  0
 27 20  1  0
 33 28  1  0
 26 21  1  0
  1 36  1  0
  1 37  1  0
  1 38  1  0
  2 39  1  0
  2 40  1  0
  7 41  1  0
  8 42  1  0
  9 43  1  0
 10 44  1  0
 11 45  1  0
 12 46  1  0
 13 47  1  0
 13 48  1  0
 14 49  1  0
 14 50  1  0
 18 51  1  1
 19 52  1  0
 19 53  1  0
 20 54  1  6
 22 55  1  0
 23 56  1  0
 24 57  1  0
 25 58  1  0
 27 59  1  1
 29 60  1  0
 30 61  1  0
 31 62  1  0
 32 63  1  0
 33 64  1  0
 34 65  1  0
 34 66  1  0
 35 67  1  0
 35 68  1  0
M  END
>  <smiles>  (49) 
CCC(=O)N(c1ccccc1)C1CCN(C(=O)[C@@H](N)C2c3ccccc3C2c2ccccc2)CC1

>  <score_type>  (49) 
oracle

>  <origin>  (49) 
autodockgpu

>  <m_score__min__energy>  (49) 
-8.5999999999999996

>  <m_primary>  (49) 
energy

>  <rmsd>  (49) 
10.07200843139328

>  <m_score__min__rmsd>  (49) 
10.07200843139328

>  <meeko>  (49) 
{"free_energy": -8.32, "intermolecular_energy": -10.71, "internal_energy": -2.91, "cluster_size": 34, "cluster_id": 1, "rank_in_cluster": 34}

>  <energy>  (49) 
-7.79

>  <cluster_rmsd>  (49) 
0.87

>  <cluster>  (49) 
2

$$$$

     RDKit          3D

 68 72  0  0  0  0  0  0  0  0999 V2000
  136.1330   82.9430  221.8710 C   0  0  0  0  0  0  0  0  0  0  0  0
  135.3160   82.9260  223.1380 C   0  0  0  0  0  0  0  0  0  0  0  0
  136.2390   83.0160  224.3090 C   0  0  0  0  0  0  0  0  0  0  0  0
  136.9310   84.0530  224.4140 O   0  0  0  0  0  0  0  0  0  0  0  0
  136.3060   81.9410  225.2540 N   0  0  0  0  0  0  0  0  0  0  0  0
  135.9070   82.1910  226.5950 C   0  0  0  0  0  0  0  0  0  0  0  0
  135.2330   83.3930  226.8360 C   0  0  0  0  0  0  0  0  0  0  0  0
  134.8120   83.7240  228.1130 C   0  0  0  0  0  0  0  0  0  0  0  0
  135.0930   82.8130  229.1050 C   0  0  0  0  0  0  0  0  0  0  0  0
  135.7500   81.6280  228.9030 C   0  0  0  0  0  0  0  0  0  0  0  0
  136.1620   81.3120  227.6350 C   0  0  0  0  0  0  0  0  0  0  0  0
  136.7680   80.6330  224.7940 C   0  0  0  0  0  0  0  0  0  0  0  0
  137.9210   80.8630  223.8210 C   0  0  0  0  0  0  0  0  0  0  0  0
  138.5170   79.4920  223.5440 C   0  0  0  0  0  0  0  0  0  0  0  0
  137.4730   78.6290  223.0520 N   0  0  0  0  0  0  0  0  0  0  0  0
  137.7930   77.3410  222.4730 C   0  0  0  0  0  0  0  0  0  0  0  0
  136.8570   76.5970  222.0160 O   0  0  0  0  0  0  0  0  0  0  0  0
  139.1550   76.7880  222.3580 C   0  0  1  0  0  0  0  0  0  0  0  0
  139.1120   75.3560  222.6100 N   0  0  0  0  0  0  0  0  0  0  0  0
  139.7530   77.0040  221.0140 C   0  0  2  0  0  0  0  0  0  0  0  0
  140.8620   76.0660  220.6750 C   0  0  0  0  0  0  0  0  0  0  0  0
  141.4010   74.8060  220.5490 C   0  0  0  0  0  0  0  0  0  0  0  0
  142.6850   74.5990  220.0850 C   0  0  0  0  0  0  0  0  0  0  0  0
  143.4740   75.6920  219.7260 C   0  0  0  0  0  0  0  0  0  0  0  0
  142.9390   76.9810  219.8490 C   0  0  0  0  0  0  0  0  0  0  0  0
  141.6350   77.1460  220.3250 C   0  0  0  0  0  0  0  0  0  0  0  0
  140.5740   78.1630  220.6880 C   0  0  2  0  0  0  0  0  0  0  0  0
  141.1410   79.0620  221.7020 C   0  0  0  0  0  0  0  0  0  0  0  0
  141.2080   80.4420  221.4490 C   0  0  0  0  0  0  0  0  0  0  0  0
  141.7510   81.3090  222.3650 C   0  0  0  0  0  0  0  0  0  0  0  0
  142.2600   80.8910  223.5710 C   0  0  0  0  0  0  0  0  0  0  0  0
  142.2060   79.5200  223.8440 C   0  0  0  0  0  0  0  0  0  0  0  0
  141.6560   78.6620  222.9130 C   0  0  0  0  0  0  0  0  0  0  0  0
  136.0560   78.9320  223.0720 C   0  0  0  0  0  0  0  0  0  0  0  0
  135.6390   79.9630  224.0670 C   0  0  0  0  0  0  0  0  0  0  0  0
  137.2030   82.9653  222.1250 H   0  0  0  0  0  0  0  0  0  0  0  0
  135.9147   82.0401  221.2818 H   0  0  0  0  0  0  0  0  0  0  0  0
  135.8773   83.8360  221.2818 H   0  0  0  0  0  0  0  0  0  0  0  0
  134.6264   83.7830  223.1444 H   0  0  0  0  0  0  0  0  0  0  0  0
  134.7327   81.9950  223.1934 H   0  0  0  0  0  0  0  0  0  0  0  0
  135.0353   84.0826  226.0021 H   0  0  0  0  0  0  0  0  0  0  0  0
  134.2815   84.6645  228.3230 H   0  0  0  0  0  0  0  0  0  0  0  0
  134.7685   83.0521  230.1285 H   0  0  0  0  0  0  0  0  0  0  0  0
  135.9430   80.9436  229.7423 H   0  0  0  0  0  0  0  0  0  0  0  0
  136.6916   80.3669  227.4441 H   0  0  0  0  0  0  0  0  0  0  0  0
  137.0949   80.0070  225.6374 H   0  0  0  0  0  0  0  0  0  0  0  0
  137.5500   81.3137  222.8887 H   0  0  0  0  0  0  0  0  0  0  0  0
  138.6705   81.5503  224.2404 H   0  0  0  0  0  0  0  0  0  0  0  0
  139.3125   79.5791  222.7893 H   0  0  0  0  0  0  0  0  0  0  0  0
  138.9463   79.0749  224.4669 H   0  0  0  0  0  0  0  0  0  0  0  0
  139.7785   77.3131  223.0965 H   0  0  0  0  0  0  0  0  0  0  0  0
  138.1260   75.0350  222.7350 H   0  0  0  0  0  0  0  0  0  0  0  0
  139.5910   75.1790  223.5260 H   0  0  0  0  0  0  0  0  0  0  0  0
  138.7696   76.9810  220.5217 H   0  0  0  0  0  0  0  0  0  0  0  0
  140.7890   73.9353  220.8270 H   0  0  0  0  0  0  0  0  0  0  0  0
  143.0837   73.5774  219.9989 H   0  0  0  0  0  0  0  0  0  0  0  0
  144.4982   75.5444  219.3529 H   0  0  0  0  0  0  0  0  0  0  0  0
  143.5418   77.8586  219.5725 H   0  0  0  0  0  0  0  0  0  0  0  0
  140.0974   78.9415  220.0742 H   0  0  0  0  0  0  0  0  0  0  0  0
  140.8180   80.8358  220.4988 H   0  0  0  0  0  0  0  0  0  0  0  0
  141.7797   82.3818  222.1235 H   0  0  0  0  0  0  0  0  0  0  0  0
  142.6910   81.6031  224.2901 H   0  0  0  0  0  0  0  0  0  0  0  0
  142.5990   79.1285  224.7938 H   0  0  0  0  0  0  0  0  0  0  0  0
  141.6278   77.5894  223.1552 H   0  0  0  0  0  0  0  0  0  0  0  0
  135.7707   79.2899  222.0717 H   0  0  0  0  0  0  0  0  0  0  0  0
  135.5498   78.0012  223.3676 H   0  0  0  0  0  0  0  0  0  0  0  0
  135.0666   80.7381  223.5363 H   0  0  0  0  0  0  0  0  0  0  0  0
  135.0510   79.4338  224.8313 H   0  0  0  0  0  0  0  0  0  0  0  0
  1  2  1  0
  2  3  1  0
  3  4  2  0
  3  5  1  0
  5  6  1  0
  6  7  2  0
  7  8  1  0
  8  9  2  0
  9 10  1  0
 10 11  2  0
  5 12  1  0
 12 13  1  0
 13 14  1  0
 14 15  1  0
 15 16  1  0
 16 17  2  0
 16 18  1  0
 18 19  1  0
 18 20  1  0
 20 21  1  0
 21 22  2  0
 22 23  1  0
 23 24  2  0
 24 25  1  0
 25 26  2  0
 26 27  1  0
 27 28  1  0
 28 29  2  0
 29 30  1  0
 30 31  2  0
 31 32  1  0
 32 33  2  0
 15 34  1  0
 34 35  1  0
 11  6  1  0
 35 12  1  0
 27 20  1  0
 33 28  1  0
 26 21  1  0
  1 36  1  0
  1 37  1  0
  1 38  1  0
  2 39  1  0
  2 40  1  0
  7 41  1  0
  8 42  1  0
  9 43  1  0
 10 44  1  0
 11 45  1  0
 12 46  1  0
 13 47  1  0
 13 48  1  0
 14 49  1  0
 14 50  1  0
 18 51  1  1
 19 52  1  0
 19 53  1  0
 20 54  1  6
 22 55  1  0
 23 56  1  0
 24 57  1  0
 25 58  1  0
 27 59  1  6
 29 60  1  0
 30 61  1  0
 31 62  1  0
 32 63  1  0
 33 64  1  0
 34 65  1  0
 34 66  1  0
 35 67  1  0
 35 68  1  0
M  END
>  <smiles>  (50) 
CCC(=O)N(c1ccccc1)C1CCN(C(=O)[C@@H](N)C2c3ccccc3C2c2ccccc2)CC1

>  <score_type>  (50) 
oracle

>  <origin>  (50) 
autodockgpu

>  <m_score__min__energy>  (50) 
-8.5999999999999996

>  <m_primary>  (50) 
energy

>  <rmsd>  (50) 
8.409996355875574

>  <m_score__min__rmsd>  (50) 
8.409996355875574

>  <meeko>  (50) 
{"free_energy": -8.19, "intermolecular_energy": -10.58, "internal_energy": -3.3, "cluster_size": 15, "cluster_id": 2, "rank_in_cluster": 2}

>  <energy>  (50) 
-7.17

>  <cluster_rmsd>  (50) 
0.0

>  <cluster>  (50) 
3

$$$$

     RDKit          3D

 68 72  0  0  0  0  0  0  0  0999 V2000
  142.4700   81.2450  224.1650 C   0  0  0  0  0  0  0  0  0  0  0  0
  143.0520   80.1310  223.3260 C   0  0  0  0  0  0  0  0  0  0  0  0
  142.0120   79.0840  223.1730 C   0  0  0  0  0  0  0  0  0  0  0  0
  141.8890   78.2560  224.1360 O   0  0  0  0  0  0  0  0  0  0  0  0
  141.1770   78.9810  222.0260 N   0  0  0  0  0  0  0  0  0  0  0  0
  140.9990   80.1440  221.2450 C   0  0  0  0  0  0  0  0  0  0  0  0
  141.7860   80.4610  220.1550 C   0  0  0  0  0  0  0  0  0  0  0  0
  141.5920   81.6110  219.4010 C   0  0  0  0  0  0  0  0  0  0  0  0
  140.5580   82.4390  219.7950 C   0  0  0  0  0  0  0  0  0  0  0  0
  139.7490   82.1460  220.8880 C   0  0  0  0  0  0  0  0  0  0  0  0
  139.9560   80.9930  221.6310 C   0  0  0  0  0  0  0  0  0  0  0  0
  140.5470   77.7370  221.7140 C   0  0  0  0  0  0  0  0  0  0  0  0
  139.4740   77.3620  222.7190 C   0  0  0  0  0  0  0  0  0  0  0  0
  138.6880   76.2140  222.1210 C   0  0  0  0  0  0  0  0  0  0  0  0
  139.5680   75.5440  221.1820 N   0  0  0  0  0  0  0  0  0  0  0  0
  140.1740   74.2920  221.4640 C   0  0  0  0  0  0  0  0  0  0  0  0
  139.9510   73.7510  222.5670 O   0  0  0  0  0  0  0  0  0  0  0  0
  141.0600   73.6140  220.4870 C   0  0  1  0  0  0  0  0  0  0  0  0
  140.3220   73.5330  219.2160 N   0  0  0  0  0  0  0  0  0  0  0  0
  142.2110   74.5770  220.2100 C   0  0  1  0  0  0  0  0  0  0  0  0
  143.5410   73.9830  220.3390 C   0  0  0  0  0  0  0  0  0  0  0  0
  144.4970   73.4380  221.1930 C   0  0  0  0  0  0  0  0  0  0  0  0
  145.7170   73.0000  220.6830 C   0  0  0  0  0  0  0  0  0  0  0  0
  145.9430   73.1230  219.3270 C   0  0  0  0  0  0  0  0  0  0  0  0
  144.9900   73.6680  218.4620 C   0  0  0  0  0  0  0  0  0  0  0  0
  143.7860   74.0920  219.0170 C   0  0  0  0  0  0  0  0  0  0  0  0
  142.4760   74.6870  218.7610 C   0  0  2  0  0  0  0  0  0  0  0  0
  142.5280   76.0510  218.1620 C   0  0  0  0  0  0  0  0  0  0  0  0
  142.1290   76.1410  216.8260 C   0  0  0  0  0  0  0  0  0  0  0  0
  142.1280   77.3350  216.1490 C   0  0  0  0  0  0  0  0  0  0  0  0
  142.5360   78.5020  216.8020 C   0  0  0  0  0  0  0  0  0  0  0  0
  142.9280   78.3990  218.1210 C   0  0  0  0  0  0  0  0  0  0  0  0
  142.9250   77.1750  218.7990 C   0  0  0  0  0  0  0  0  0  0  0  0
  139.8020   76.2580  219.9190 C   0  0  0  0  0  0  0  0  0  0  0  0
  139.9200   77.7310  220.3410 C   0  0  0  0  0  0  0  0  0  0  0  0
  142.5954   81.0050  225.2311 H   0  0  0  0  0  0  0  0  0  0  0  0
  142.9915   82.1864  223.9373 H   0  0  0  0  0  0  0  0  0  0  0  0
  141.3994   81.3546  223.9373 H   0  0  0  0  0  0  0  0  0  0  0  0
  143.3401   80.5188  222.3378 H   0  0  0  0  0  0  0  0  0  0  0  0
  143.9471   79.7139  223.8107 H   0  0  0  0  0  0  0  0  0  0  0  0
  142.5986   79.7754  219.8730 H   0  0  0  0  0  0  0  0  0  0  0  0
  142.2278   81.8502  218.5358 H   0  0  0  0  0  0  0  0  0  0  0  0
  140.3684   83.3606  219.2252 H   0  0  0  0  0  0  0  0  0  0  0  0
  138.9377   82.8349  221.1657 H   0  0  0  0  0  0  0  0  0  0  0  0
  139.3203   80.7538  222.4962 H   0  0  0  0  0  0  0  0  0  0  0  0
  141.3607   76.9976  221.7485 H   0  0  0  0  0  0  0  0  0  0  0  0
  139.9369   77.0496  223.6667 H   0  0  0  0  0  0  0  0  0  0  0  0
  138.8175   78.2190  222.9300 H   0  0  0  0  0  0  0  0  0  0  0  0
  138.3772   75.5158  222.9122 H   0  0  0  0  0  0  0  0  0  0  0  0
  137.7801   76.5785  221.6181 H   0  0  0  0  0  0  0  0  0  0  0  0
  141.3880   72.6305  220.8546 H   0  0  0  0  0  0  0  0  0  0  0  0
  139.3000   73.3110  219.4060 H   0  0  0  0  0  0  0  0  0  0  0  0
  140.2820   74.4980  218.7740 H   0  0  0  0  0  0  0  0  0  0  0  0
  141.9148   75.4291  220.8395 H   0  0  0  0  0  0  0  0  0  0  0  0
  144.2886   73.3535  222.2698 H   0  0  0  0  0  0  0  0  0  0  0  0
  146.4815   72.5667  221.3447 H   0  0  0  0  0  0  0  0  0  0  0  0
  146.9035   72.7813  218.9140 H   0  0  0  0  0  0  0  0  0  0  0  0
  145.1842   73.7585  217.3831 H   0  0  0  0  0  0  0  0  0  0  0  0
  141.7567   74.2724  218.0394 H   0  0  0  0  0  0  0  0  0  0  0  0
  141.8066   75.2292  216.3019 H   0  0  0  0  0  0  0  0  0  0  0  0
  141.8077   77.3736  215.0974 H   0  0  0  0  0  0  0  0  0  0  0  0
  142.5442   79.4708  216.2812 H   0  0  0  0  0  0  0  0  0  0  0  0
  143.2520   79.3047  218.6546 H   0  0  0  0  0  0  0  0  0  0  0  0
  143.2457   77.1276  219.8501 H   0  0  0  0  0  0  0  0  0  0  0  0
  140.7305   75.9127  219.4409 H   0  0  0  0  0  0  0  0  0  0  0  0
  139.0011   76.0911  219.1837 H   0  0  0  0  0  0  0  0  0  0  0  0
  140.5562   78.2795  219.6308 H   0  0  0  0  0  0  0  0  0  0  0  0
  138.9351   78.2206  220.3524 H   0  0  0  0  0  0  0  0  0  0  0  0
  1  2  1  0
  2  3  1  0
  3  4  2  0
  3  5  1  0
  5  6  1  0
  6  7  2  0
  7  8  1  0
  8  9  2  0
  9 10  1  0
 10 11  2  0
  5 12  1  0
 12 13  1  0
 13 14  1  0
 14 15  1  0
 15 16  1  0
 16 17  2  0
 16 18  1  0
 18 19  1  0
 18 20  1  0
 20 21  1  0
 21 22  2  0
 22 23  1  0
 23 24  2  0
 24 25  1  0
 25 26  2  0
 26 27  1  0
 27 28  1  0
 28 29  2  0
 29 30  1  0
 30 31  2  0
 31 32  1  0
 32 33  2  0
 15 34  1  0
 34 35  1  0
 11  6  1  0
 35 12  1  0
 27 20  1  0
 33 28  1  0
 26 21  1  0
  1 36  1  0
  1 37  1  0
  1 38  1  0
  2 39  1  0
  2 40  1  0
  7 41  1  0
  8 42  1  0
  9 43  1  0
 10 44  1  0
 11 45  1  0
 12 46  1  0
 13 47  1  0
 13 48  1  0
 14 49  1  0
 14 50  1  0
 18 51  1  1
 19 52  1  0
 19 53  1  0
 20 54  1  1
 22 55  1  0
 23 56  1  0
 24 57  1  0
 25 58  1  0
 27 59  1  6
 29 60  1  0
 30 61  1  0
 31 62  1  0
 32 63  1  0
 33 64  1  0
 34 65  1  0
 34 66  1  0
 35 67  1  0
 35 68  1  0
M  END
>  <smiles>  (51) 
CCC(=O)N(c1ccccc1)C1CCN(C(=O)[C@@H](N)C2c3ccccc3C2c2ccccc2)CC1

>  <score_type>  (51) 
oracle

>  <origin>  (51) 
autodockgpu

>  <m_score__min__energy>  (51) 
-9.7300000000000004

>  <m_primary>  (51) 
energy

>  <rmsd>  (51) 
7.287870657391902

>  <m_score__min__rmsd>  (51) 
7.287870657391902

>  <meeko>  (51) 
{"free_energy": -7.25, "intermolecular_energy": -9.63, "internal_energy": -3.13, "cluster_size": 1, "cluster_id": 10, "rank_in_cluster": 1}

>  <energy>  (51) 
-9.73

>  <cluster_rmsd>  (51) 
0.0

>  <cluster>  (51) 
1

$$$$

     RDKit          3D

 68 72  0  0  0  0  0  0  0  0999 V2000
  135.2640   69.6460  225.3060 C   0  0  0  0  0  0  0  0  0  0  0  0
  136.1200   70.6270  224.5390 C   0  0  0  0  0  0  0  0  0  0  0  0
  137.3930   69.9480  224.1930 C   0  0  0  0  0  0  0  0  0  0  0  0
  137.3190   68.7100  223.8960 O   0  0  0  0  0  0  0  0  0  0  0  0
  138.6500   70.6150  224.1840 N   0  0  0  0  0  0  0  0  0  0  0  0
  139.4280   70.5510  225.3600 C   0  0  0  0  0  0  0  0  0  0  0  0
  139.2620   69.5860  226.3350 C   0  0  0  0  0  0  0  0  0  0  0  0
  140.0400   69.5420  227.4840 C   0  0  0  0  0  0  0  0  0  0  0  0
  141.0060   70.5230  227.6120 C   0  0  0  0  0  0  0  0  0  0  0  0
  141.1970   71.5060  226.6480 C   0  0  0  0  0  0  0  0  0  0  0  0
  140.4110   71.5360  225.5050 C   0  0  0  0  0  0  0  0  0  0  0  0
  139.0700   71.3240  223.0170 C   0  0  0  0  0  0  0  0  0  0  0  0
  140.1920   70.6140  222.2800 C   0  0  0  0  0  0  0  0  0  0  0  0
  140.3290   71.2850  220.9290 C   0  0  0  0  0  0  0  0  0  0  0  0
  139.8200   72.6360  221.0750 N   0  0  0  0  0  0  0  0  0  0  0  0
  140.6710   73.7710  221.1390 C   0  0  0  0  0  0  0  0  0  0  0  0
  141.9060   73.5990  221.0790 O   0  0  0  0  0  0  0  0  0  0  0  0
  140.1330   75.1450  221.2740 C   0  0  1  0  0  0  0  0  0  0  0  0
  139.5340   75.2470  222.6150 N   0  0  0  0  0  0  0  0  0  0  0  0
  141.3390   76.0780  221.3140 C   0  0  1  0  0  0  0  0  0  0  0  0
  142.0780   76.1660  220.0550 C   0  0  0  0  0  0  0  0  0  0  0  0
  142.8920   75.5150  219.1310 C   0  0  0  0  0  0  0  0  0  0  0  0
  143.3380   76.1910  217.9980 C   0  0  0  0  0  0  0  0  0  0  0  0
  142.9530   77.5050  217.8240 C   0  0  0  0  0  0  0  0  0  0  0  0
  142.1360   78.1670  218.7440 C   0  0  0  0  0  0  0  0  0  0  0  0
  141.7140   77.4510  219.8610 C   0  0  0  0  0  0  0  0  0  0  0  0
  140.9350   77.4820  221.0970 C   0  0  2  0  0  0  0  0  0  0  0  0
  141.3900   78.5010  222.0850 C   0  0  0  0  0  0  0  0  0  0  0  0
  141.7630   79.7370  221.5510 C   0  0  0  0  0  0  0  0  0  0  0  0
  142.2020   80.7660  222.3470 C   0  0  0  0  0  0  0  0  0  0  0  0
  142.2840   80.5860  223.7310 C   0  0  0  0  0  0  0  0  0  0  0  0
  141.9130   79.3600  224.2440 C   0  0  0  0  0  0  0  0  0  0  0  0
  141.4680   78.3200  223.4220 C   0  0  0  0  0  0  0  0  0  0  0  0
  138.3570   72.7500  221.1670 C   0  0  0  0  0  0  0  0  0  0  0  0
  137.9450   71.5530  222.0380 C   0  0  0  0  0  0  0  0  0  0  0  0
  135.4024   69.8046  226.3857 H   0  0  0  0  0  0  0  0  0  0  0  0
  134.2065   69.8001  225.0453 H   0  0  0  0  0  0  0  0  0  0  0  0
  135.5600   68.6191  225.0453 H   0  0  0  0  0  0  0  0  0  0  0  0
  135.6006   70.9379  223.6206 H   0  0  0  0  0  0  0  0  0  0  0  0
  136.3162   71.5220  225.1477 H   0  0  0  0  0  0  0  0  0  0  0  0
  138.4826   68.8225  226.1953 H   0  0  0  0  0  0  0  0  0  0  0  0
  139.8956   68.7677  228.2519 H   0  0  0  0  0  0  0  0  0  0  0  0
  141.6451   70.5256  228.5073 H   0  0  0  0  0  0  0  0  0  0  0  0
  141.9782   72.2668  226.7925 H   0  0  0  0  0  0  0  0  0  0  0  0
  140.5561   72.3099  224.7369 H   0  0  0  0  0  0  0  0  0  0  0  0
  139.4288   72.2925  223.3955 H   0  0  0  0  0  0  0  0  0  0  0  0
  141.1318   70.7056  222.8442 H   0  0  0  0  0  0  0  0  0  0  0  0
  139.9700   69.5428  222.1654 H   0  0  0  0  0  0  0  0  0  0  0  0
  141.3857   71.3099  220.6246 H   0  0  0  0  0  0  0  0  0  0  0  0
  139.7695   70.7350  220.1580 H   0  0  0  0  0  0  0  0  0  0  0  0
  139.4217   75.3796  220.4684 H   0  0  0  0  0  0  0  0  0  0  0  0
  139.5530   74.2970  223.0920 H   0  0  0  0  0  0  0  0  0  0  0  0
  140.1620   75.8400  223.2340 H   0  0  0  0  0  0  0  0  0  0  0  0
  141.8343   75.7244  222.2303 H   0  0  0  0  0  0  0  0  0  0  0  0
  143.1825   74.4670  219.2962 H   0  0  0  0  0  0  0  0  0  0  0  0
  143.9814   75.6899  217.2598 H   0  0  0  0  0  0  0  0  0  0  0  0
  143.3004   78.0482  216.9328 H   0  0  0  0  0  0  0  0  0  0  0  0
  141.8374   79.2146  218.5915 H   0  0  0  0  0  0  0  0  0  0  0  0
  139.8707   77.7578  221.1315 H   0  0  0  0  0  0  0  0  0  0  0  0
  141.7034   79.8899  220.4633 H   0  0  0  0  0  0  0  0  0  0  0  0
  142.4881   81.7283  221.8975 H   0  0  0  0  0  0  0  0  0  0  0  0
  142.6328   81.3952  224.3894 H   0  0  0  0  0  0  0  0  0  0  0  0
  141.9689   79.1961  225.3303 H   0  0  0  0  0  0  0  0  0  0  0  0
  141.1813   77.3542  223.8637 H   0  0  0  0  0  0  0  0  0  0  0  0
  138.0679   73.6983  221.6436 H   0  0  0  0  0  0  0  0  0  0  0  0
  137.8690   72.7442  220.1812 H   0  0  0  0  0  0  0  0  0  0  0  0
  137.0131   71.7789  222.5770 H   0  0  0  0  0  0  0  0  0  0  0  0
  137.7661   70.6584  221.4234 H   0  0  0  0  0  0  0  0  0  0  0  0
  1  2  1  0
  2  3  1  0
  3  4  2  0
  3  5  1  0
  5  6  1  0
  6  7  2  0
  7  8  1  0
  8  9  2  0
  9 10  1  0
 10 11  2  0
  5 12  1  0
 12 13  1  0
 13 14  1  0
 14 15  1  0
 15 16  1  0
 16 17  2  0
 16 18  1  0
 18 19  1  0
 18 20  1  0
 20 21  1  0
 21 22  2  0
 22 23  1  0
 23 24  2  0
 24 25  1  0
 25 26  2  0
 26 27  1  0
 27 28  1  0
 28 29  2  0
 29 30  1  0
 30 31  2  0
 31 32  1  0
 32 33  2  0
 15 34  1  0
 34 35  1  0
 11  6  1  0
 35 12  1  0
 27 20  1  0
 33 28  1  0
 26 21  1  0
  1 36  1  0
  1 37  1  0
  1 38  1  0
  2 39  1  0
  2 40  1  0
  7 41  1  0
  8 42  1  0
  9 43  1  0
 10 44  1  0
 11 45  1  0
 12 46  1  0
 13 47  1  0
 13 48  1  0
 14 49  1  0
 14 50  1  0
 18 51  1  6
 19 52  1  0
 19 53  1  0
 20 54  1  1
 22 55  1  0
 23 56  1  0
 24 57  1  0
 25 58  1  0
 27 59  1  6
 29 60  1  0
 30 61  1  0
 31 62  1  0
 32 63  1  0
 33 64  1  0
 34 65  1  0
 34 66  1  0
 35 67  1  0
 35 68  1  0
M  END
>  <smiles>  (52) 
CCC(=O)N(c1ccccc1)C1CCN(C(=O)[C@@H](N)C2c3ccccc3C2c2ccccc2)CC1

>  <score_type>  (52) 
oracle

>  <origin>  (52) 
autodockgpu

>  <m_score__min__energy>  (52) 
-9.7300000000000004

>  <m_primary>  (52) 
energy

>  <rmsd>  (52) 
8.532990596128416

>  <m_score__min__rmsd>  (52) 
8.532990596128416

>  <meeko>  (52) 
{"free_energy": -9.33, "intermolecular_energy": -11.71, "internal_energy": -2.2, "cluster_size": 17, "cluster_id": 2, "rank_in_cluster": 9}

>  <energy>  (52) 
-9.67

>  <cluster_rmsd>  (52) 
1.96

>  <cluster>  (52) 
1

$$$$

     RDKit          3D

 68 72  0  0  0  0  0  0  0  0999 V2000
  138.5210   68.0360  223.1330 C   0  0  0  0  0  0  0  0  0  0  0  0
  137.2100   68.7690  223.2970 C   0  0  0  0  0  0  0  0  0  0  0  0
  137.4600   69.9670  224.1350 C   0  0  0  0  0  0  0  0  0  0  0  0
  136.4890   70.3720  224.8580 O   0  0  0  0  0  0  0  0  0  0  0  0
  138.7060   70.6540  224.1570 N   0  0  0  0  0  0  0  0  0  0  0  0
  139.4610   70.5920  225.3490 C   0  0  0  0  0  0  0  0  0  0  0  0
  140.3620   71.5660  225.7340 C   0  0  0  0  0  0  0  0  0  0  0  0
  141.0930   71.4840  226.9120 C   0  0  0  0  0  0  0  0  0  0  0  0
  140.8760   70.3670  227.6960 C   0  0  0  0  0  0  0  0  0  0  0  0
  139.9760   69.3700  227.3340 C   0  0  0  0  0  0  0  0  0  0  0  0
  139.2520   69.4670  226.1540 C   0  0  0  0  0  0  0  0  0  0  0  0
  139.1390   71.3790  223.0040 C   0  0  0  0  0  0  0  0  0  0  0  0
  140.2810   70.6900  222.2810 C   0  0  0  0  0  0  0  0  0  0  0  0
  140.4350   71.3760  220.9390 C   0  0  0  0  0  0  0  0  0  0  0  0
  139.9080   72.7180  221.0890 N   0  0  0  0  0  0  0  0  0  0  0  0
  140.7440   73.8620  221.1800 C   0  0  0  0  0  0  0  0  0  0  0  0
  141.9810   73.7050  221.1390 O   0  0  0  0  0  0  0  0  0  0  0  0
  140.1870   75.2290  221.3180 C   0  0  1  0  0  0  0  0  0  0  0  0
  139.6100   75.3270  222.6690 N   0  0  0  0  0  0  0  0  0  0  0  0
  141.3810   76.1800  221.3340 C   0  0  1  0  0  0  0  0  0  0  0  0
  142.1100   76.2570  220.0690 C   0  0  0  0  0  0  0  0  0  0  0  0
  142.9280   75.6010  219.1520 C   0  0  0  0  0  0  0  0  0  0  0  0
  143.3580   76.2640  218.0040 C   0  0  0  0  0  0  0  0  0  0  0  0
  142.9520   77.5690  217.8100 C   0  0  0  0  0  0  0  0  0  0  0  0
  142.1310   78.2360  218.7240 C   0  0  0  0  0  0  0  0  0  0  0  0
  141.7270   77.5330  219.8560 C   0  0  0  0  0  0  0  0  0  0  0  0
  140.9550   77.5740  221.0950 C   0  0  2  0  0  0  0  0  0  0  0  0
  141.4010   78.6160  222.0630 C   0  0  0  0  0  0  0  0  0  0  0  0
  141.7520   79.8480  221.5060 C   0  0  0  0  0  0  0  0  0  0  0  0
  142.1810   80.8970  222.2800 C   0  0  0  0  0  0  0  0  0  0  0  0
  142.2740   80.7430  223.6660 C   0  0  0  0  0  0  0  0  0  0  0  0
  141.9240   79.5210  224.2040 C   0  0  0  0  0  0  0  0  0  0  0  0
  141.4890   78.4600  223.4020 C   0  0  0  0  0  0  0  0  0  0  0  0
  138.4420   72.8160  221.1570 C   0  0  0  0  0  0  0  0  0  0  0  0
  138.0280   71.6050  222.0080 C   0  0  0  0  0  0  0  0  0  0  0  0
  138.9374   67.8032  224.1242 H   0  0  0  0  0  0  0  0  0  0  0  0
  138.3517   67.1017  222.5777 H   0  0  0  0  0  0  0  0  0  0  0  0
  139.2283   68.6695  222.5777 H   0  0  0  0  0  0  0  0  0  0  0  0
  136.8270   69.0749  222.3123 H   0  0  0  0  0  0  0  0  0  0  0  0
  136.4631   68.1169  223.7733 H   0  0  0  0  0  0  0  0  0  0  0  0
  140.5060   72.4403  225.0822 H   0  0  0  0  0  0  0  0  0  0  0  0
  141.8074   72.2673  227.2056 H   0  0  0  0  0  0  0  0  0  0  0  0
  141.4339   70.2627  228.6383 H   0  0  0  0  0  0  0  0  0  0  0  0
  139.8369   68.4971  227.9888 H   0  0  0  0  0  0  0  0  0  0  0  0
  138.5367   68.6844  225.8610 H   0  0  0  0  0  0  0  0  0  0  0  0
  139.4808   72.3476  223.3976 H   0  0  0  0  0  0  0  0  0  0  0  0
  141.2094   70.7865  222.8631 H   0  0  0  0  0  0  0  0  0  0  0  0
  140.0731   69.6176  222.1517 H   0  0  0  0  0  0  0  0  0  0  0  0
  141.4968   71.4162  220.6544 H   0  0  0  0  0  0  0  0  0  0  0  0
  139.8965   70.8273  220.1523 H   0  0  0  0  0  0  0  0  0  0  0  0
  139.4586   75.4501  220.5239 H   0  0  0  0  0  0  0  0  0  0  0  0
  138.5870   75.6070  222.6040 H   0  0  0  0  0  0  0  0  0  0  0  0
  139.5680   74.3580  223.1020 H   0  0  0  0  0  0  0  0  0  0  0  0
  141.8875   75.8493  222.2528 H   0  0  0  0  0  0  0  0  0  0  0  0
  143.2344   74.5603  219.3338 H   0  0  0  0  0  0  0  0  0  0  0  0
  144.0048   75.7599  217.2708 H   0  0  0  0  0  0  0  0  0  0  0  0
  143.2853   78.1013  216.9069 H   0  0  0  0  0  0  0  0  0  0  0  0
  141.8162   79.2764  218.5554 H   0  0  0  0  0  0  0  0  0  0  0  0
  139.8870   77.8350  221.1306 H   0  0  0  0  0  0  0  0  0  0  0  0
  141.6826   79.9811  220.4163 H   0  0  0  0  0  0  0  0  0  0  0  0
  142.4505   81.8550  221.8115 H   0  0  0  0  0  0  0  0  0  0  0  0
  142.6151   81.5690  224.3074 H   0  0  0  0  0  0  0  0  0  0  0  0
  141.9888   79.3773  225.2926 H   0  0  0  0  0  0  0  0  0  0  0  0
  141.2185   77.4982  223.8622 H   0  0  0  0  0  0  0  0  0  0  0  0
  138.1348   73.7559  221.6388 H   0  0  0  0  0  0  0  0  0  0  0  0
  137.9709   72.8161  220.1630 H   0  0  0  0  0  0  0  0  0  0  0  0
  137.0843   71.8146  222.5329 H   0  0  0  0  0  0  0  0  0  0  0  0
  137.8694   70.7150  221.3814 H   0  0  0  0  0  0  0  0  0  0  0  0
  1  2  1  0
  2  3  1  0
  3  4  2  0
  3  5  1  0
  5  6  1  0
  6  7  2  0
  7  8  1  0
  8  9  2  0
  9 10  1  0
 10 11  2  0
  5 12  1  0
 12 13  1  0
 13 14  1  0
 14 15  1  0
 15 16  1  0
 16 17  2  0
 16 18  1  0
 18 19  1  0
 18 20  1  0
 20 21  1  0
 21 22  2  0
 22 23  1  0
 23 24  2  0
 24 25  1  0
 25 26  2  0
 26 27  1  0
 27 28  1  0
 28 29  2  0
 29 30  1  0
 30 31  2  0
 31 32  1  0
 32 33  2  0
 15 34  1  0
 34 35  1  0
 11  6  1  0
 35 12  1  0
 27 20  1  0
 33 28  1  0
 26 21  1  0
  1 36  1  0
  1 37  1  0
  1 38  1  0
  2 39  1  0
  2 40  1  0
  7 41  1  0
  8 42  1  0
  9 43  1  0
 10 44  1  0
 11 45  1  0
 12 46  1  0
 13 47  1  0
 13 48  1  0
 14 49  1  0
 14 50  1  0
 18 51  1  6
 19 52  1  0
 19 53  1  0
 20 54  1  1
 22 55  1  0
 23 56  1  0
 24 57  1  0
 25 58  1  0
 27 59  1  6
 29 60  1  0
 30 61  1  0
 31 62  1  0
 32 63  1  0
 33 64  1  0
 34 65  1  0
 34 66  1  0
 35 67  1  0
 35 68  1  0
M  END
>  <smiles>  (53) 
CCC(=O)N(c1ccccc1)C1CCN(C(=O)[C@@H](N)C2c3ccccc3C2c2ccccc2)CC1

>  <score_type>  (53) 
oracle

>  <origin>  (53) 
autodockgpu

>  <m_score__min__energy>  (53) 
-9.7300000000000004

>  <m_primary>  (53) 
energy

>  <rmsd>  (53) 
8.58431498295317

>  <m_score__min__rmsd>  (53) 
8.58431498295317

>  <meeko>  (53) 
{"free_energy": -9.51, "intermolecular_energy": -11.9, "internal_energy": -2.21, "cluster_size": 17, "cluster_id": 2, "rank_in_cluster": 1}

>  <energy>  (53) 
-9.51

>  <cluster_rmsd>  (53) 
0.0

>  <cluster>  (53) 
2

$$$$

     RDKit          3D

 68 72  0  0  0  0  0  0  0  0999 V2000
  142.5780   79.8560  223.8470 C   0  0  0  0  0  0  0  0  0  0  0  0
  142.1820   81.3150  223.8490 C   0  0  0  0  0  0  0  0  0  0  0  0
  141.1720   81.5150  222.7820 C   0  0  0  0  0  0  0  0  0  0  0  0
  141.3730   82.4850  221.9790 O   0  0  0  0  0  0  0  0  0  0  0  0
  140.0250   80.6860  222.6340 N   0  0  0  0  0  0  0  0  0  0  0  0
  138.8570   81.0610  223.3340 C   0  0  0  0  0  0  0  0  0  0  0  0
  138.4800   80.5070  224.5420 C   0  0  0  0  0  0  0  0  0  0  0  0
  137.3270   80.8920  225.2140 C   0  0  0  0  0  0  0  0  0  0  0  0
  136.5600   81.8710  224.6110 C   0  0  0  0  0  0  0  0  0  0  0  0
  136.9150   82.4470  223.3950 C   0  0  0  0  0  0  0  0  0  0  0  0
  138.0700   82.0510  222.7370 C   0  0  0  0  0  0  0  0  0  0  0  0
  140.0920   79.5200  221.8100 C   0  0  0  0  0  0  0  0  0  0  0  0
  138.9040   79.4040  220.8730 C   0  0  0  0  0  0  0  0  0  0  0  0
  139.2400   78.3260  219.8630 C   0  0  0  0  0  0  0  0  0  0  0  0
  140.2090   77.4480  220.4900 N   0  0  0  0  0  0  0  0  0  0  0  0
  139.8700   76.1560  220.9710 C   0  0  0  0  0  0  0  0  0  0  0  0
  138.6890   75.7650  220.8600 O   0  0  0  0  0  0  0  0  0  0  0  0
  140.8760   75.2650  221.5960 C   0  0  1  0  0  0  0  0  0  0  0  0
  140.1390   74.1790  222.2640 N   0  0  0  0  0  0  0  0  0  0  0  0
  141.6210   74.5860  220.4510 C   0  0  1  0  0  0  0  0  0  0  0  0
  141.3450   75.1500  219.1300 C   0  0  0  0  0  0  0  0  0  0  0  0
  140.4100   75.3400  218.1150 C   0  0  0  0  0  0  0  0  0  0  0  0
  140.7700   76.0280  216.9580 C   0  0  0  0  0  0  0  0  0  0  0  0
  142.0600   76.5060  216.8550 C   0  0  0  0  0  0  0  0  0  0  0  0
  143.0050   76.3220  217.8680 C   0  0  0  0  0  0  0  0  0  0  0  0
  142.6000   75.6280  219.0050 C   0  0  0  0  0  0  0  0  0  0  0  0
  142.9920   75.1180  220.3170 C   0  0  2  0  0  0  0  0  0  0  0  0
  144.1190   74.1440  220.2850 C   0  0  0  0  0  0  0  0  0  0  0  0
  143.8480   72.9230  219.6610 C   0  0  0  0  0  0  0  0  0  0  0  0
  144.7950   71.9340  219.5610 C   0  0  0  0  0  0  0  0  0  0  0  0
  146.0710   72.1410  220.0930 C   0  0  0  0  0  0  0  0  0  0  0  0
  146.3260   73.3510  220.7060 C   0  0  0  0  0  0  0  0  0  0  0  0
  145.3510   74.3490  220.8010 C   0  0  0  0  0  0  0  0  0  0  0  0
  141.5690   77.9930  220.6080 C   0  0  0  0  0  0  0  0  0  0  0  0
  141.3480   79.4680  220.9760 C   0  0  0  0  0  0  0  0  0  0  0  0
  142.6744   79.5008  224.8836 H   0  0  0  0  0  0  0  0  0  0  0  0
  141.8071   79.2675  223.3280 H   0  0  0  0  0  0  0  0  0  0  0  0
  143.5407   79.7381  223.3280 H   0  0  0  0  0  0  0  0  0  0  0  0
  141.7526   81.5843  224.8252 H   0  0  0  0  0  0  0  0  0  0  0  0
  143.0613   81.9507  223.6681 H   0  0  0  0  0  0  0  0  0  0  0  0
  139.1180   79.7305  224.9893 H   0  0  0  0  0  0  0  0  0  0  0  0
  137.0394   80.4415  226.1754 H   0  0  0  0  0  0  0  0  0  0  0  0
  135.6381   82.2060  225.1089 H   0  0  0  0  0  0  0  0  0  0  0  0
  136.2739   83.2232  222.9517 H   0  0  0  0  0  0  0  0  0  0  0  0
  138.3580   82.5015  221.7757 H   0  0  0  0  0  0  0  0  0  0  0  0
  140.0886   78.6787  222.5187 H   0  0  0  0  0  0  0  0  0  0  0  0
  138.0029   79.1243  221.4384 H   0  0  0  0  0  0  0  0  0  0  0  0
  138.7041   80.3627  220.3720 H   0  0  0  0  0  0  0  0  0  0  0  0
  138.3343   77.7612  219.5972 H   0  0  0  0  0  0  0  0  0  0  0  0
  139.6460   78.7647  218.9396 H   0  0  0  0  0  0  0  0  0  0  0  0
  141.5345   75.8191  222.2810 H   0  0  0  0  0  0  0  0  0  0  0  0
  139.5720   74.5720  223.0720 H   0  0  0  0  0  0  0  0  0  0  0  0
  139.3940   73.8060  221.6040 H   0  0  0  0  0  0  0  0  0  0  0  0
  141.3983   73.5306  220.6666 H   0  0  0  0  0  0  0  0  0  0  0  0
  139.3886   74.9473  218.2268 H   0  0  0  0  0  0  0  0  0  0  0  0
  140.0438   76.1860  216.1470 H   0  0  0  0  0  0  0  0  0  0  0  0
  142.3545   77.0500  215.9454 H   0  0  0  0  0  0  0  0  0  0  0  0
  144.0295   76.7106  217.7708 H   0  0  0  0  0  0  0  0  0  0  0  0
  143.4131   75.7540  221.1096 H   0  0  0  0  0  0  0  0  0  0  0  0
  142.8475   72.7495  219.2380 H   0  0  0  0  0  0  0  0  0  0  0  0
  144.5508   70.9832  219.0646 H   0  0  0  0  0  0  0  0  0  0  0  0
  146.8470   71.3644  220.0252 H   0  0  0  0  0  0  0  0  0  0  0  0
  147.3235   73.5354  221.1315 H   0  0  0  0  0  0  0  0  0  0  0  0
  145.5873   75.3023  221.2965 H   0  0  0  0  0  0  0  0  0  0  0  0
  142.1314   77.4731  221.3976 H   0  0  0  0  0  0  0  0  0  0  0  0
  142.1557   77.8702  219.6856 H   0  0  0  0  0  0  0  0  0  0  0  0
  142.2035   79.8474  221.5541 H   0  0  0  0  0  0  0  0  0  0  0  0
  141.2524   80.0919  220.0751 H   0  0  0  0  0  0  0  0  0  0  0  0
  1  2  1  0
  2  3  1  0
  3  4  2  0
  3  5  1  0
  5  6  1  0
  6  7  2  0
  7  8  1  0
  8  9  2  0
  9 10  1  0
 10 11  2  0
  5 12  1  0
 12 13  1  0
 13 14  1  0
 14 15  1  0
 15 16  1  0
 16 17  2  0
 16 18  1  0
 18 19  1  0
 18 20  1  0
 20 21  1  0
 21 22  2  0
 22 23  1  0
 23 24  2  0
 24 25  1  0
 25 26  2  0
 26 27  1  0
 27 28  1  0
 28 29  2  0
 29 30  1  0
 30 31  2  0
 31 32  1  0
 32 33  2  0
 15 34  1  0
 34 35  1  0
 11  6  1  0
 35 12  1  0
 27 20  1  0
 33 28  1  0
 26 21  1  0
  1 36  1  0
  1 37  1  0
  1 38  1  0
  2 39  1  0
  2 40  1  0
  7 41  1  0
  8 42  1  0
  9 43  1  0
 10 44  1  0
 11 45  1  0
 12 46  1  0
 13 47  1  0
 13 48  1  0
 14 49  1  0
 14 50  1  0
 18 51  1  1
 19 52  1  0
 19 53  1  0
 20 54  1  6
 22 55  1  0
 23 56  1  0
 24 57  1  0
 25 58  1  0
 27 59  1  1
 29 60  1  0
 30 61  1  0
 31 62  1  0
 32 63  1  0
 33 64  1  0
 34 65  1  0
 34 66  1  0
 35 67  1  0
 35 68  1  0
M  END
>  <smiles>  (54) 
CCC(=O)N(c1ccccc1)C1CCN(C(=O)[C@@H](N)C2c3ccccc3C2c2ccccc2)CC1

>  <score_type>  (54) 
oracle

>  <origin>  (54) 
autodockgpu

>  <m_score__min__energy>  (54) 
-9.7300000000000004

>  <m_primary>  (54) 
energy

>  <rmsd>  (54) 
8.592577135047293

>  <m_score__min__rmsd>  (54) 
8.592577135047293

>  <meeko>  (54) 
{"free_energy": -7.8, "intermolecular_energy": -10.18, "internal_energy": -3.22, "cluster_size": 2, "cluster_id": 8, "rank_in_cluster": 1}

>  <energy>  (54) 
-9.45

>  <cluster_rmsd>  (54) 
0.23

>  <cluster>  (54) 
2

$$$$

     RDKit          3D

 68 72  0  0  0  0  0  0  0  0999 V2000
  130.9830   74.3420  226.3230 C   0  0  0  0  0  0  0  0  0  0  0  0
  131.9180   74.9810  225.3220 C   0  0  0  0  0  0  0  0  0  0  0  0
  133.3080   74.7480  225.7830 C   0  0  0  0  0  0  0  0  0  0  0  0
  133.6340   75.2660  226.9020 O   0  0  0  0  0  0  0  0  0  0  0  0
  134.2560   73.9910  225.0390 N   0  0  0  0  0  0  0  0  0  0  0  0
  134.3870   72.6210  225.3580 C   0  0  0  0  0  0  0  0  0  0  0  0
  135.0370   71.7080  224.5510 C   0  0  0  0  0  0  0  0  0  0  0  0
  135.1540   70.3650  224.8860 C   0  0  0  0  0  0  0  0  0  0  0  0
  134.5820   69.9750  226.0820 C   0  0  0  0  0  0  0  0  0  0  0  0
  133.9210   70.8730  226.9150 C   0  0  0  0  0  0  0  0  0  0  0  0
  133.8130   72.2110  226.5660 C   0  0  0  0  0  0  0  0  0  0  0  0
  135.0390   74.6270  224.0270 C   0  0  0  0  0  0  0  0  0  0  0  0
  134.5080   74.3580  222.6300 C   0  0  0  0  0  0  0  0  0  0  0  0
  135.2160   75.3160  221.6950 C   0  0  0  0  0  0  0  0  0  0  0  0
  136.4780   75.6620  222.3210 N   0  0  0  0  0  0  0  0  0  0  0  0
  137.7200   75.1370  221.8780 C   0  0  0  0  0  0  0  0  0  0  0  0
  137.7260   74.3390  220.9180 O   0  0  0  0  0  0  0  0  0  0  0  0
  139.0020   75.5120  222.5200 C   0  0  1  0  0  0  0  0  0  0  0  0
  139.9320   74.3880  222.3230 N   0  0  0  0  0  0  0  0  0  0  0  0
  139.5840   76.6510  221.6880 C   0  0  1  0  0  0  0  0  0  0  0  0
  139.6320   77.9400  222.3760 C   0  0  0  0  0  0  0  0  0  0  0  0
  138.9100   79.0020  222.9170 C   0  0  0  0  0  0  0  0  0  0  0  0
  139.5810   80.0730  223.5020 C   0  0  0  0  0  0  0  0  0  0  0  0
  140.9610   80.0490  223.5270 C   0  0  0  0  0  0  0  0  0  0  0  0
  141.6940   78.9890  222.9870 C   0  0  0  0  0  0  0  0  0  0  0  0
  140.9810   77.9400  222.4140 C   0  0  0  0  0  0  0  0  0  0  0  0
  141.0600   76.6470  221.7380 C   0  0  2  0  0  0  0  0  0  0  0  0
  141.8030   76.6750  220.4460 C   0  0  0  0  0  0  0  0  0  0  0  0
  141.7600   77.8840  219.7490 C   0  0  0  0  0  0  0  0  0  0  0  0
  142.4000   78.0500  218.5450 C   0  0  0  0  0  0  0  0  0  0  0  0
  143.1170   76.9860  217.9890 C   0  0  0  0  0  0  0  0  0  0  0  0
  143.1510   75.7970  218.6880 C   0  0  0  0  0  0  0  0  0  0  0  0
  142.4940   75.6420  219.9140 C   0  0  0  0  0  0  0  0  0  0  0  0
  136.3830   76.5850  223.4620 C   0  0  0  0  0  0  0  0  0  0  0  0
  135.1240   76.1220  224.2110 C   0  0  0  0  0  0  0  0  0  0  0  0
  131.3232   74.5745  227.3429 H   0  0  0  0  0  0  0  0  0  0  0  0
  129.9659   74.7347  226.1773 H   0  0  0  0  0  0  0  0  0  0  0  0
  130.9794   73.2517  226.1773 H   0  0  0  0  0  0  0  0  0  0  0  0
  131.7718   74.5265  224.3310 H   0  0  0  0  0  0  0  0  0  0  0  0
  131.7162   76.0595  225.2435 H   0  0  0  0  0  0  0  0  0  0  0  0
  135.4791   72.0578  223.6065 H   0  0  0  0  0  0  0  0  0  0  0  0
  135.6749   69.6491  224.2332 H   0  0  0  0  0  0  0  0  0  0  0  0
  134.6514   68.9200  226.3857 H   0  0  0  0  0  0  0  0  0  0  0  0
  133.4804   70.5184  227.8585 H   0  0  0  0  0  0  0  0  0  0  0  0
  133.2923   72.9272  227.2186 H   0  0  0  0  0  0  0  0  0  0  0  0
  136.0417   74.1876  224.1340 H   0  0  0  0  0  0  0  0  0  0  0  0
  134.7210   73.3189  222.3385 H   0  0  0  0  0  0  0  0  0  0  0  0
  133.4184   74.5033  222.5895 H   0  0  0  0  0  0  0  0  0  0  0  0
  135.3959   74.8325  220.7235 H   0  0  0  0  0  0  0  0  0  0  0  0
  134.6063   76.2140  221.5164 H   0  0  0  0  0  0  0  0  0  0  0  0
  138.8608   75.7694  223.5801 H   0  0  0  0  0  0  0  0  0  0  0  0
  139.6730   73.5880  222.9720 H   0  0  0  0  0  0  0  0  0  0  0  0
  139.7800   73.9750  221.3560 H   0  0  0  0  0  0  0  0  0  0  0  0
  139.0077   76.5336  220.7584 H   0  0  0  0  0  0  0  0  0  0  0  0
  137.8106   78.9944  222.8820 H   0  0  0  0  0  0  0  0  0  0  0  0
  139.0246   80.9179  223.9339 H   0  0  0  0  0  0  0  0  0  0  0  0
  141.5004   80.8905  223.9863 H   0  0  0  0  0  0  0  0  0  0  0  0
  142.7937   78.9838  223.0138 H   0  0  0  0  0  0  0  0  0  0  0  0
  141.5911   75.7797  222.1571 H   0  0  0  0  0  0  0  0  0  0  0  0
  141.1977   78.7274  220.1761 H   0  0  0  0  0  0  0  0  0  0  0  0
  142.3487   79.0156  218.0206 H   0  0  0  0  0  0  0  0  0  0  0  0
  143.6370   77.0935  217.0257 H   0  0  0  0  0  0  0  0  0  0  0  0
  143.7102   74.9470  218.2700 H   0  0  0  0  0  0  0  0  0  0  0  0
  142.5399   74.6796  220.4447 H   0  0  0  0  0  0  0  0  0  0  0  0
  137.2720   76.5048  224.1048 H   0  0  0  0  0  0  0  0  0  0  0  0
  136.3269   77.6385  223.1507 H   0  0  0  0  0  0  0  0  0  0  0  0
  135.2058   76.3689  225.2798 H   0  0  0  0  0  0  0  0  0  0  0  0
  134.2245   76.6216  223.8220 H   0  0  0  0  0  0  0  0  0  0  0  0
  1  2  1  0
  2  3  1  0
  3  4  2  0
  3  5  1  0
  5  6  1  0
  6  7  2  0
  7  8  1  0
  8  9  2  0
  9 10  1  0
 10 11  2  0
  5 12  1  0
 12 13  1  0
 13 14  1  0
 14 15  1  0
 15 16  1  0
 16 17  2  0
 16 18  1  0
 18 19  1  0
 18 20  1  0
 20 21  1  0
 21 22  2  0
 22 23  1  0
 23 24  2  0
 24 25  1  0
 25 26  2  0
 26 27  1  0
 27 28  1  0
 28 29  2  0
 29 30  1  0
 30 31  2  0
 31 32  1  0
 32 33  2  0
 15 34  1  0
 34 35  1  0
 11  6  1  0
 35 12  1  0
 27 20  1  0
 33 28  1  0
 26 21  1  0
  1 36  1  0
  1 37  1  0
  1 38  1  0
  2 39  1  0
  2 40  1  0
  7 41  1  0
  8 42  1  0
  9 43  1  0
 10 44  1  0
 11 45  1  0
 12 46  1  0
 13 47  1  0
 13 48  1  0
 14 49  1  0
 14 50  1  0
 18 51  1  1
 19 52  1  0
 19 53  1  0
 20 54  1  6
 22 55  1  0
 23 56  1  0
 24 57  1  0
 25 58  1  0
 27 59  1  1
 29 60  1  0
 30 61  1  0
 31 62  1  0
 32 63  1  0
 33 64  1  0
 34 65  1  0
 34 66  1  0
 35 67  1  0
 35 68  1  0
M  END
>  <smiles>  (55) 
CCC(=O)N(c1ccccc1)C1CCN(C(=O)[C@@H](N)C2c3ccccc3C2c2ccccc2)CC1

>  <score_type>  (55) 
oracle

>  <origin>  (55) 
autodockgpu

>  <m_score__min__energy>  (55) 
-9.7300000000000004

>  <m_primary>  (55) 
energy

>  <rmsd>  (55) 
7.920639524368118

>  <m_score__min__rmsd>  (55) 
7.920639524368118

>  <meeko>  (55) 
{"free_energy": -7.93, "intermolecular_energy": -10.31, "internal_energy": -3.06, "cluster_size": 6, "cluster_id": 6, "rank_in_cluster": 3}

>  <energy>  (55) 
-9.38

>  <cluster_rmsd>  (55) 
0.6

>  <cluster>  (55) 
2

$$$$

     RDKit          3D

 68 72  0  0  0  0  0  0  0  0999 V2000
  136.2350   69.9610  224.9550 C   0  0  0  0  0  0  0  0  0  0  0  0
  136.8490   69.2050  223.8010 C   0  0  0  0  0  0  0  0  0  0  0  0
  138.3130   69.1360  224.0270 C   0  0  0  0  0  0  0  0  0  0  0  0
  138.8160   67.9720  224.1730 O   0  0  0  0  0  0  0  0  0  0  0  0
  139.1450   70.2890  224.0840 N   0  0  0  0  0  0  0  0  0  0  0  0
  139.7400   70.6000  225.3270 C   0  0  0  0  0  0  0  0  0  0  0  0
  139.4350   69.9460  226.5050 C   0  0  0  0  0  0  0  0  0  0  0  0
  140.0340   70.2690  227.7160 C   0  0  0  0  0  0  0  0  0  0  0  0
  140.9650   71.2910  227.6900 C   0  0  0  0  0  0  0  0  0  0  0  0
  141.2920   71.9670  226.5190 C   0  0  0  0  0  0  0  0  0  0  0  0
  140.6850   71.6320  225.3180 C   0  0  0  0  0  0  0  0  0  0  0  0
  139.3380   71.0860  222.9140 C   0  0  0  0  0  0  0  0  0  0  0  0
  140.3100   70.4520  221.9350 C   0  0  0  0  0  0  0  0  0  0  0  0
  140.1910   71.2180  220.6340 C   0  0  0  0  0  0  0  0  0  0  0  0
  139.7080   72.5450  220.9680 N   0  0  0  0  0  0  0  0  0  0  0  0
  140.5470   73.6890  220.9570 C   0  0  0  0  0  0  0  0  0  0  0  0
  141.7510   73.5470  220.6580 O   0  0  0  0  0  0  0  0  0  0  0  0
  140.0330   75.0390  221.2870 C   0  0  1  0  0  0  0  0  0  0  0  0
  139.6180   75.0130  222.6990 N   0  0  0  0  0  0  0  0  0  0  0  0
  141.2350   75.9790  221.2510 C   0  0  1  0  0  0  0  0  0  0  0  0
  141.8620   76.1090  219.9360 C   0  0  0  0  0  0  0  0  0  0  0  0
  142.5960   75.4900  218.9280 C   0  0  0  0  0  0  0  0  0  0  0  0
  142.9410   76.2020  217.7810 C   0  0  0  0  0  0  0  0  0  0  0  0
  142.5380   77.5180  217.6800 C   0  0  0  0  0  0  0  0  0  0  0  0
  141.8000   78.1480  218.6860 C   0  0  0  0  0  0  0  0  0  0  0  0
  141.4790   77.3970  219.8130 C   0  0  0  0  0  0  0  0  0  0  0  0
  140.8080   77.3860  221.1110 C   0  0  2  0  0  0  0  0  0  0  0  0
  141.3420   78.3780  222.0870 C   0  0  0  0  0  0  0  0  0  0  0  0
  141.9270   79.5180  221.5310 C   0  0  0  0  0  0  0  0  0  0  0  0
  142.4600   80.5130  222.3130 C   0  0  0  0  0  0  0  0  0  0  0  0
  142.4230   80.3950  223.7060 C   0  0  0  0  0  0  0  0  0  0  0  0
  141.8420   79.2640  224.2410 C   0  0  0  0  0  0  0  0  0  0  0  0
  141.3030   78.2570  223.4320 C   0  0  0  0  0  0  0  0  0  0  0  0
  138.2860   72.6220  221.3350 C   0  0  0  0  0  0  0  0  0  0  0  0
  138.0500   71.3590  222.1780 C   0  0  0  0  0  0  0  0  0  0  0  0
  136.5856   69.5293  225.9041 H   0  0  0  0  0  0  0  0  0  0  0  0
  136.5333   71.0184  224.9008 H   0  0  0  0  0  0  0  0  0  0  0  0
  135.1389   69.8860  224.9008 H   0  0  0  0  0  0  0  0  0  0  0  0
  136.4299   68.1890  223.7548 H   0  0  0  0  0  0  0  0  0  0  0  0
  136.6321   69.7150  222.8508 H   0  0  0  0  0  0  0  0  0  0  0  0
  138.6888   69.1381  226.4832 H   0  0  0  0  0  0  0  0  0  0  0  0
  139.7810   69.7397  228.6465 H   0  0  0  0  0  0  0  0  0  0  0  0
  141.4639   71.5793  228.6270 H   0  0  0  0  0  0  0  0  0  0  0  0
  142.0386   72.7744  226.5459 H   0  0  0  0  0  0  0  0  0  0  0  0
  140.9384   72.1610  224.3874 H   0  0  0  0  0  0  0  0  0  0  0  0
  139.7538   72.0331  223.2882 H   0  0  0  0  0  0  0  0  0  0  0  0
  141.3370   70.5232  222.3227 H   0  0  0  0  0  0  0  0  0  0  0  0
  140.0785   69.3870  221.7861 H   0  0  0  0  0  0  0  0  0  0  0  0
  141.1734   71.2855  220.1437 H   0  0  0  0  0  0  0  0  0  0  0  0
  139.5030   70.7118  219.9409 H   0  0  0  0  0  0  0  0  0  0  0  0
  139.2208   75.3371  220.6077 H   0  0  0  0  0  0  0  0  0  0  0  0
  138.8180   75.6950  222.8530 H   0  0  0  0  0  0  0  0  0  0  0  0
  139.1770   74.0700  222.9160 H   0  0  0  0  0  0  0  0  0  0  0  0
  141.8089   75.6020  222.1104 H   0  0  0  0  0  0  0  0  0  0  0  0
  142.9034   74.4395  219.0369 H   0  0  0  0  0  0  0  0  0  0  0  0
  143.5204   75.7268  216.9758 H   0  0  0  0  0  0  0  0  0  0  0  0
  142.8061   78.0893  216.7791 H   0  0  0  0  0  0  0  0  0  0  0  0
  141.4848   79.1976  218.5906 H   0  0  0  0  0  0  0  0  0  0  0  0
  139.7493   77.6535  221.2437 H   0  0  0  0  0  0  0  0  0  0  0  0
  141.9617   79.6216  220.4364 H   0  0  0  0  0  0  0  0  0  0  0  0
  142.9142   81.3992  221.8457 H   0  0  0  0  0  0  0  0  0  0  0  0
  142.8434   81.1783  224.3538 H   0  0  0  0  0  0  0  0  0  0  0  0
  141.8011   79.1503  225.3343 H   0  0  0  0  0  0  0  0  0  0  0  0
  140.8477   77.3672  223.8913 H   0  0  0  0  0  0  0  0  0  0  0  0
  138.0828   73.5286  221.9239 H   0  0  0  0  0  0  0  0  0  0  0  0
  137.6248   72.6746  220.4575 H   0  0  0  0  0  0  0  0  0  0  0  0
  137.2321   71.5277  222.8939 H   0  0  0  0  0  0  0  0  0  0  0  0
  137.7666   70.5059  221.5441 H   0  0  0  0  0  0  0  0  0  0  0  0
  1  2  1  0
  2  3  1  0
  3  4  2  0
  3  5  1  0
  5  6  1  0
  6  7  2  0
  7  8  1  0
  8  9  2  0
  9 10  1  0
 10 11  2  0
  5 12  1  0
 12 13  1  0
 13 14  1  0
 14 15  1  0
 15 16  1  0
 16 17  2  0
 16 18  1  0
 18 19  1  0
 18 20  1  0
 20 21  1  0
 21 22  2  0
 22 23  1  0
 23 24  2  0
 24 25  1  0
 25 26  2  0
 26 27  1  0
 27 28  1  0
 28 29  2  0
 29 30  1  0
 30 31  2  0
 31 32  1  0
 32 33  2  0
 15 34  1  0
 34 35  1  0
 11  6  1  0
 35 12  1  0
 27 20  1  0
 33 28  1  0
 26 21  1  0
  1 36  1  0
  1 37  1  0
  1 38  1  0
  2 39  1  0
  2 40  1  0
  7 41  1  0
  8 42  1  0
  9 43  1  0
 10 44  1  0
 11 45  1  0
 12 46  1  0
 13 47  1  0
 13 48  1  0
 14 49  1  0
 14 50  1  0
 18 51  1  6
 19 52  1  0
 19 53  1  0
 20 54  1  1
 22 55  1  0
 23 56  1  0
 24 57  1  0
 25 58  1  0
 27 59  1  6
 29 60  1  0
 30 61  1  0
 31 62  1  0
 32 63  1  0
 33 64  1  0
 34 65  1  0
 34 66  1  0
 35 67  1  0
 35 68  1  0
M  END
>  <smiles>  (56) 
CCC(=O)N(c1ccccc1)C1CCN(C(=O)[C@@H](N)C2c3ccccc3C2c2ccccc2)CC1

>  <score_type>  (56) 
oracle

>  <origin>  (56) 
autodockgpu

>  <m_score__min__energy>  (56) 
-9.7300000000000004

>  <m_primary>  (56) 
energy

>  <rmsd>  (56) 
8.516395447153371

>  <m_score__min__rmsd>  (56) 
8.516395447153371

>  <meeko>  (56) 
{"free_energy": -9.67, "intermolecular_energy": -12.05, "internal_energy": -1.88, "cluster_size": 2, "cluster_id": 1, "rank_in_cluster": 2}

>  <energy>  (56) 
-9.36

>  <cluster_rmsd>  (56) 
0.78

>  <cluster>  (56) 
2

$$$$

     RDKit          3D

 68 72  0  0  0  0  0  0  0  0999 V2000
  139.2290   71.6850  222.8600 C   0  0  0  0  0  0  0  0  0  0  0  0
  140.7020   71.9040  222.6080 C   0  0  0  0  0  0  0  0  0  0  0  0
  140.8490   72.5120  221.2630 C   0  0  0  0  0  0  0  0  0  0  0  0
  140.1330   72.0180  220.3300 O   0  0  0  0  0  0  0  0  0  0  0  0
  141.7340   73.5940  220.9930 N   0  0  0  0  0  0  0  0  0  0  0  0
  143.0750   73.2750  220.6870 C   0  0  0  0  0  0  0  0  0  0  0  0
  143.4950   72.0130  220.3140 C   0  0  0  0  0  0  0  0  0  0  0  0
  144.8200   71.7230  220.0160 C   0  0  0  0  0  0  0  0  0  0  0  0
  145.7160   72.7710  220.1100 C   0  0  0  0  0  0  0  0  0  0  0  0
  145.3230   74.0520  220.4830 C   0  0  0  0  0  0  0  0  0  0  0  0
  143.9950   74.3250  220.7770 C   0  0  0  0  0  0  0  0  0  0  0  0
  141.2530   74.9380  221.0520 C   0  0  0  0  0  0  0  0  0  0  0  0
  140.9670   75.5120  219.6760 C   0  0  0  0  0  0  0  0  0  0  0  0
  140.1870   76.7930  219.8830 C   0  0  0  0  0  0  0  0  0  0  0  0
  140.5240   77.2820  221.2070 N   0  0  0  0  0  0  0  0  0  0  0  0
  141.3860   78.3910  221.4160 C   0  0  0  0  0  0  0  0  0  0  0  0
  141.8820   78.9600  220.4220 O   0  0  0  0  0  0  0  0  0  0  0  0
  141.7080   78.8860  222.7750 C   0  0  1  0  0  0  0  0  0  0  0  0
  143.0880   79.3940  222.7360 N   0  0  0  0  0  0  0  0  0  0  0  0
  140.8420   80.1220  222.9990 C   0  0  1  0  0  0  0  0  0  0  0  0
  140.9780   81.1510  221.9690 C   0  0  0  0  0  0  0  0  0  0  0  0
  141.8000   82.1070  221.3750 C   0  0  0  0  0  0  0  0  0  0  0  0
  141.3220   82.8740  220.3150 C   0  0  0  0  0  0  0  0  0  0  0  0
  140.0290   82.6580  219.8810 C   0  0  0  0  0  0  0  0  0  0  0  0
  139.1970   81.7020  220.4690 C   0  0  0  0  0  0  0  0  0  0  0  0
  139.7190   80.9590  221.5250 C   0  0  0  0  0  0  0  0  0  0  0  0
  139.4670   79.9070  222.5070 C   0  0  2  0  0  0  0  0  0  0  0  0
  138.3390   80.1930  223.4380 C   0  0  0  0  0  0  0  0  0  0  0  0
  137.1060   79.6390  223.0840 C   0  0  0  0  0  0  0  0  0  0  0  0
  135.9820   79.8230  223.8500 C   0  0  0  0  0  0  0  0  0  0  0  0
  136.0580   80.5850  225.0200 C   0  0  0  0  0  0  0  0  0  0  0  0
  137.2810   81.1270  225.3580 C   0  0  0  0  0  0  0  0  0  0  0  0
  138.4190   80.9310  224.5670 C   0  0  0  0  0  0  0  0  0  0  0  0
  139.9210   76.5410  222.3240 C   0  0  0  0  0  0  0  0  0  0  0  0
  139.9990   75.0710  221.8800 C   0  0  0  0  0  0  0  0  0  0  0  0
  139.0426   71.6573  223.9437 H   0  0  0  0  0  0  0  0  0  0  0  0
  138.6537   72.5075  222.4099 H   0  0  0  0  0  0  0  0  0  0  0  0
  138.9179   70.7307  222.4099 H   0  0  0  0  0  0  0  0  0  0  0  0
  141.1152   72.5801  223.3710 H   0  0  0  0  0  0  0  0  0  0  0  0
  141.2455   70.9490  222.6583 H   0  0  0  0  0  0  0  0  0  0  0  0
  142.7504   71.2058  220.2505 H   0  0  0  0  0  0  0  0  0  0  0  0
  145.1395   70.7127  219.7208 H   0  0  0  0  0  0  0  0  0  0  0  0
  146.7761   72.5857  219.8821 H   0  0  0  0  0  0  0  0  0  0  0  0
  146.0716   74.8555  220.5454 H   0  0  0  0  0  0  0  0  0  0  0  0
  143.6754   75.3355  221.0716 H   0  0  0  0  0  0  0  0  0  0  0  0
  142.0676   75.5039  221.5277 H   0  0  0  0  0  0  0  0  0  0  0  0
  141.9105   75.7249  219.1521 H   0  0  0  0  0  0  0  0  0  0  0  0
  140.3945   74.7987  219.0648 H   0  0  0  0  0  0  0  0  0  0  0  0
  140.4699   77.5354  219.1222 H   0  0  0  0  0  0  0  0  0  0  0  0
  139.1053   76.6145  219.7925 H   0  0  0  0  0  0  0  0  0  0  0  0
  141.5620   78.1035  223.5342 H   0  0  0  0  0  0  0  0  0  0  0  0
  143.7720   78.5810  222.7110 H   0  0  0  0  0  0  0  0  0  0  0  0
  143.2550   79.8800  221.8060 H   0  0  0  0  0  0  0  0  0  0  0  0
  141.0821   80.3454  224.0490 H   0  0  0  0  0  0  0  0  0  0  0  0
  142.8258   82.2558  221.7431 H   0  0  0  0  0  0  0  0  0  0  0  0
  141.9584   83.6325  219.8358 H   0  0  0  0  0  0  0  0  0  0  0  0
  139.6413   83.2584  219.0448 H   0  0  0  0  0  0  0  0  0  0  0  0
  138.1690   81.5423  220.1116 H   0  0  0  0  0  0  0  0  0  0  0  0
  139.1348   78.8947  222.2334 H   0  0  0  0  0  0  0  0  0  0  0  0
  137.0341   79.0383  222.1653 H   0  0  0  0  0  0  0  0  0  0  0  0
  135.0257   79.3730  223.5449 H   0  0  0  0  0  0  0  0  0  0  0  0
  135.1714   80.7471  225.6506 H   0  0  0  0  0  0  0  0  0  0  0  0
  137.3640   81.7298  226.2744 H   0  0  0  0  0  0  0  0  0  0  0  0
  139.3790   81.3780  224.8646 H   0  0  0  0  0  0  0  0  0  0  0  0
  140.4905   76.7001  223.2515 H   0  0  0  0  0  0  0  0  0  0  0  0
  138.8920   76.8641  222.5401 H   0  0  0  0  0  0  0  0  0  0  0  0
  140.0523   74.4113  222.7586 H   0  0  0  0  0  0  0  0  0  0  0  0
  139.1088   74.7831  221.3016 H   0  0  0  0  0  0  0  0  0  0  0  0
  1  2  1  0
  2  3  1  0
  3  4  2  0
  3  5  1  0
  5  6  1  0
  6  7  2  0
  7  8  1  0
  8  9  2  0
  9 10  1  0
 10 11  2  0
  5 12  1  0
 12 13  1  0
 13 14  1  0
 14 15  1  0
 15 16  1  0
 16 17  2  0
 16 18  1  0
 18 19  1  0
 18 20  1  0
 20 21  1  0
 21 22  2  0
 22 23  1  0
 23 24  2  0
 24 25  1  0
 25 26  2  0
 26 27  1  0
 27 28  1  0
 28 29  2  0
 29 30  1  0
 30 31  2  0
 31 32  1  0
 32 33  2  0
 15 34  1  0
 34 35  1  0
 11  6  1  0
 35 12  1  0
 27 20  1  0
 33 28  1  0
 26 21  1  0
  1 36  1  0
  1 37  1  0
  1 38  1  0
  2 39  1  0
  2 40  1  0
  7 41  1  0
  8 42  1  0
  9 43  1  0
 10 44  1  0
 11 45  1  0
 12 46  1  0
 13 47  1  0
 13 48  1  0
 14 49  1  0
 14 50  1  0
 18 51  1  1
 19 52  1  0
 19 53  1  0
 20 54  1  1
 22 55  1  0
 23 56  1  0
 24 57  1  0
 25 58  1  0
 27 59  1  6
 29 60  1  0
 30 61  1  0
 31 62  1  0
 32 63  1  0
 33 64  1  0
 34 65  1  0
 34 66  1  0
 35 67  1  0
 35 68  1  0
M  END
>  <smiles>  (57) 
CCC(=O)N(c1ccccc1)C1CCN(C(=O)[C@@H](N)C2c3ccccc3C2c2ccccc2)CC1

>  <score_type>  (57) 
oracle

>  <origin>  (57) 
autodockgpu

>  <m_score__min__energy>  (57) 
-9.7300000000000004

>  <m_primary>  (57) 
energy

>  <rmsd>  (57) 
10.867124559517686

>  <m_score__min__rmsd>  (57) 
10.867124559517686

>  <meeko>  (57) 
{"free_energy": -7.73, "intermolecular_energy": -10.12, "internal_energy": -3.25, "cluster_size": 11, "cluster_id": 7, "rank_in_cluster": 9}

>  <energy>  (57) 
-9.35

>  <cluster_rmsd>  (57) 
0.31

>  <cluster>  (57) 
2

$$$$

     RDKit          3D

 68 72  0  0  0  0  0  0  0  0999 V2000
  138.8230   68.3520  221.8750 C   0  0  0  0  0  0  0  0  0  0  0  0
  138.8170   68.4320  223.3840 C   0  0  0  0  0  0  0  0  0  0  0  0
  138.3090   69.7720  223.7680 C   0  0  0  0  0  0  0  0  0  0  0  0
  137.0420   69.9010  223.8490 O   0  0  0  0  0  0  0  0  0  0  0  0
  139.1620   70.8780  224.0390 N   0  0  0  0  0  0  0  0  0  0  0  0
  139.8050   70.9090  225.2960 C   0  0  0  0  0  0  0  0  0  0  0  0
  140.6840   71.9020  225.6800 C   0  0  0  0  0  0  0  0  0  0  0  0
  141.3040   71.9130  226.9230 C   0  0  0  0  0  0  0  0  0  0  0  0
  140.9980   70.8670  227.7740 C   0  0  0  0  0  0  0  0  0  0  0  0
  140.1170   69.8530  227.4140 C   0  0  0  0  0  0  0  0  0  0  0  0
  139.5050   69.8570  226.1690 C   0  0  0  0  0  0  0  0  0  0  0  0
  139.3270   71.9060  223.0610 C   0  0  0  0  0  0  0  0  0  0  0  0
  140.7800   72.1070  222.6720 C   0  0  0  0  0  0  0  0  0  0  0  0
  140.7910   72.9800  221.4340 C   0  0  0  0  0  0  0  0  0  0  0  0
  139.5620   73.7510  221.4510 N   0  0  0  0  0  0  0  0  0  0  0  0
  139.5300   75.1310  221.7840 C   0  0  0  0  0  0  0  0  0  0  0  0
  140.5990   75.7000  222.0850 O   0  0  0  0  0  0  0  0  0  0  0  0
  138.2670   75.9060  221.7820 C   0  0  1  0  0  0  0  0  0  0  0  0
  137.8100   75.9960  223.1780 N   0  0  0  0  0  0  0  0  0  0  0  0
  138.6400   77.3360  221.4010 C   0  0  1  0  0  0  0  0  0  0  0  0
  137.5030   78.2470  221.2810 C   0  0  0  0  0  0  0  0  0  0  0  0
  136.3550   78.5930  220.5710 C   0  0  0  0  0  0  0  0  0  0  0  0
  135.5920   79.6870  220.9740 C   0  0  0  0  0  0  0  0  0  0  0  0
  136.0030   80.4020  222.0800 C   0  0  0  0  0  0  0  0  0  0  0  0
  137.1520   80.0620  222.8000 C   0  0  0  0  0  0  0  0  0  0  0  0
  137.8830   78.9620  222.3600 C   0  0  0  0  0  0  0  0  0  0  0  0
  139.0510   78.1140  222.5870 C   0  0  2  0  0  0  0  0  0  0  0  0
  140.3530   78.8360  222.5330 C   0  0  0  0  0  0  0  0  0  0  0  0
  140.9470   79.1070  223.7680 C   0  0  0  0  0  0  0  0  0  0  0  0
  142.1480   79.7660  223.8660 C   0  0  0  0  0  0  0  0  0  0  0  0
  142.8050   80.1840  222.7050 C   0  0  0  0  0  0  0  0  0  0  0  0
  142.2080   79.9100  221.4910 C   0  0  0  0  0  0  0  0  0  0  0  0
  140.9840   79.2370  221.4070 C   0  0  0  0  0  0  0  0  0  0  0  0
  138.3440   73.0010  221.1120 C   0  0  0  0  0  0  0  0  0  0  0  0
  138.5420   71.6410  221.8000 C   0  0  0  0  0  0  0  0  0  0  0  0
  138.9019   67.2999  221.5639 H   0  0  0  0  0  0  0  0  0  0  0  0
  137.8901   68.7818  221.4813 H   0  0  0  0  0  0  0  0  0  0  0  0
  139.6814   68.9161  221.4813 H   0  0  0  0  0  0  0  0  0  0  0  0
  138.1612   67.6513  223.7970 H   0  0  0  0  0  0  0  0  0  0  0  0
  139.8320   68.2793  223.7797 H   0  0  0  0  0  0  0  0  0  0  0  0
  140.9020   72.7166  224.9737 H   0  0  0  0  0  0  0  0  0  0  0  0
  142.0017   72.7118  227.2150 H   0  0  0  0  0  0  0  0  0  0  0  0
  141.4669   70.8359  228.7686 H   0  0  0  0  0  0  0  0  0  0  0  0
  139.9033   69.0398  228.1233 H   0  0  0  0  0  0  0  0  0  0  0  0
  138.8064   69.0590  225.8773 H   0  0  0  0  0  0  0  0  0  0  0  0
  138.9435   72.8154  223.5467 H   0  0  0  0  0  0  0  0  0  0  0  0
  141.3245   72.6032  223.4889 H   0  0  0  0  0  0  0  0  0  0  0  0
  141.2707   71.1422  222.4761 H   0  0  0  0  0  0  0  0  0  0  0  0
  141.6604   73.6536  221.4539 H   0  0  0  0  0  0  0  0  0  0  0  0
  140.8599   72.3689  220.5219 H   0  0  0  0  0  0  0  0  0  0  0  0
  137.5183   75.4535  221.1151 H   0  0  0  0  0  0  0  0  0  0  0  0
  137.2460   75.1310  223.4290 H   0  0  0  0  0  0  0  0  0  0  0  0
  138.6510   75.9320  223.8250 H   0  0  0  0  0  0  0  0  0  0  0  0
  139.2992   77.1472  220.5408 H   0  0  0  0  0  0  0  0  0  0  0  0
  136.0515   78.0032  219.6935 H   0  0  0  0  0  0  0  0  0  0  0  0
  134.6838   79.9737  220.4236 H   0  0  0  0  0  0  0  0  0  0  0  0
  135.4074   81.2675  222.4058 H   0  0  0  0  0  0  0  0  0  0  0  0
  137.4665   80.6415  223.6805 H   0  0  0  0  0  0  0  0  0  0  0  0
  139.2460   77.5988  223.5392 H   0  0  0  0  0  0  0  0  0  0  0  0
  140.4384   78.7834  224.6881 H   0  0  0  0  0  0  0  0  0  0  0  0
  142.5908   79.9639  224.8533 H   0  0  0  0  0  0  0  0  0  0  0  0
  143.7672   80.7144  222.7573 H   0  0  0  0  0  0  0  0  0  0  0  0
  142.7079   80.2293  220.5646 H   0  0  0  0  0  0  0  0  0  0  0  0
  140.5349   79.0341  220.4236 H   0  0  0  0  0  0  0  0  0  0  0  0
  137.4501   73.5100  221.5017 H   0  0  0  0  0  0  0  0  0  0  0  0
  138.1918   72.9085  220.0265 H   0  0  0  0  0  0  0  0  0  0  0  0
  137.5672   71.1948  222.0465 H   0  0  0  0  0  0  0  0  0  0  0  0
  139.0735   70.9374  221.1424 H   0  0  0  0  0  0  0  0  0  0  0  0
  1  2  1  0
  2  3  1  0
  3  4  2  0
  3  5  1  0
  5  6  1  0
  6  7  2  0
  7  8  1  0
  8  9  2  0
  9 10  1  0
 10 11  2  0
  5 12  1  0
 12 13  1  0
 13 14  1  0
 14 15  1  0
 15 16  1  0
 16 17  2  0
 16 18  1  0
 18 19  1  0
 18 20  1  0
 20 21  1  0
 21 22  2  0
 22 23  1  0
 23 24  2  0
 24 25  1  0
 25 26  2  0
 26 27  1  0
 27 28  1  0
 28 29  2  0
 29 30  1  0
 30 31  2  0
 31 32  1  0
 32 33  2  0
 15 34  1  0
 34 35  1  0
 11  6  1  0
 35 12  1  0
 27 20  1  0
 33 28  1  0
 26 21  1  0
  1 36  1  0
  1 37  1  0
  1 38  1  0
  2 39  1  0
  2 40  1  0
  7 41  1  0
  8 42  1  0
  9 43  1  0
 10 44  1  0
 11 45  1  0
 12 46  1  0
 13 47  1  0
 13 48  1  0
 14 49  1  0
 14 50  1  0
 18 51  1  6
 19 52  1  0
 19 53  1  0
 20 54  1  6
 22 55  1  0
 23 56  1  0
 24 57  1  0
 25 58  1  0
 27 59  1  1
 29 60  1  0
 30 61  1  0
 31 62  1  0
 32 63  1  0
 33 64  1  0
 34 65  1  0
 34 66  1  0
 35 67  1  0
 35 68  1  0
M  END
>  <smiles>  (58) 
CCC(=O)N(c1ccccc1)C1CCN(C(=O)[C@@H](N)C2c3ccccc3C2c2ccccc2)CC1

>  <score_type>  (58) 
oracle

>  <origin>  (58) 
autodockgpu

>  <m_score__min__energy>  (58) 
-9.7300000000000004

>  <m_primary>  (58) 
energy

>  <rmsd>  (58) 
8.95682361493412

>  <m_score__min__rmsd>  (58) 
8.95682361493412

>  <meeko>  (58) 
{"free_energy": -8.5, "intermolecular_energy": -10.89, "internal_energy": -2.39, "cluster_size": 7, "cluster_id": 4, "rank_in_cluster": 7}

>  <energy>  (58) 
-9.33

>  <cluster_rmsd>  (58) 
0.68

>  <cluster>  (58) 
2

$$$$

     RDKit          3D

 68 72  0  0  0  0  0  0  0  0999 V2000
  131.1040   73.7070  226.6340 C   0  0  0  0  0  0  0  0  0  0  0  0
  131.8590   74.2580  225.4470 C   0  0  0  0  0  0  0  0  0  0  0  0
  133.3030   74.2640  225.7870 C   0  0  0  0  0  0  0  0  0  0  0  0
  133.6370   74.8780  226.8540 O   0  0  0  0  0  0  0  0  0  0  0  0
  134.2910   73.6260  224.9870 N   0  0  0  0  0  0  0  0  0  0  0  0
  134.5030   72.2450  225.1940 C   0  0  0  0  0  0  0  0  0  0  0  0
  135.2110   71.4410  224.3220 C   0  0  0  0  0  0  0  0  0  0  0  0
  135.4080   70.0850  224.5480 C   0  0  0  0  0  0  0  0  0  0  0  0
  134.8560   69.5660  225.7040 C   0  0  0  0  0  0  0  0  0  0  0  0
  134.1380   70.3510  226.6010 C   0  0  0  0  0  0  0  0  0  0  0  0
  133.9500   71.7040  226.3610 C   0  0  0  0  0  0  0  0  0  0  0  0
  135.0310   74.3860  224.0290 C   0  0  0  0  0  0  0  0  0  0  0  0
  134.4710   74.2510  222.6250 C   0  0  0  0  0  0  0  0  0  0  0  0
  135.1310   75.3210  221.7800 C   0  0  0  0  0  0  0  0  0  0  0  0
  136.4000   75.6340  222.4100 N   0  0  0  0  0  0  0  0  0  0  0  0
  137.6430   75.1930  221.8850 C   0  0  0  0  0  0  0  0  0  0  0  0
  137.6430   74.5000  220.8470 O   0  0  0  0  0  0  0  0  0  0  0  0
  138.9310   75.5330  222.5340 C   0  0  1  0  0  0  0  0  0  0  0  0
  139.8290   74.3820  222.3470 N   0  0  0  0  0  0  0  0  0  0  0  0
  139.5510   76.6520  221.7010 C   0  0  1  0  0  0  0  0  0  0  0  0
  139.6130   77.9470  222.3780 C   0  0  0  0  0  0  0  0  0  0  0  0
  138.9030   79.0280  222.8960 C   0  0  0  0  0  0  0  0  0  0  0  0
  139.5850   80.0920  223.4820 C   0  0  0  0  0  0  0  0  0  0  0  0
  140.9640   80.0390  223.5310 C   0  0  0  0  0  0  0  0  0  0  0  0
  141.6850   78.9590  223.0150 C   0  0  0  0  0  0  0  0  0  0  0  0
  140.9600   77.9190  222.4390 C   0  0  0  0  0  0  0  0  0  0  0  0
  141.0250   76.6180  221.7770 C   0  0  2  0  0  0  0  0  0  0  0  0
  141.7900   76.6180  220.4980 C   0  0  0  0  0  0  0  0  0  0  0  0
  142.5000   75.4480  220.2170 C   0  0  0  0  0  0  0  0  0  0  0  0
  143.2480   75.3110  219.0740 C   0  0  0  0  0  0  0  0  0  0  0  0
  143.3110   76.3640  218.1570 C   0  0  0  0  0  0  0  0  0  0  0  0
  142.6060   77.5140  218.4460 C   0  0  0  0  0  0  0  0  0  0  0  0
  141.8480   77.6400  219.6160 C   0  0  0  0  0  0  0  0  0  0  0  0
  136.3110   76.4290  223.6440 C   0  0  0  0  0  0  0  0  0  0  0  0
  135.0840   75.8550  224.3690 C   0  0  0  0  0  0  0  0  0  0  0  0
  131.5789   74.0536  227.5637 H   0  0  0  0  0  0  0  0  0  0  0  0
  130.0622   74.0586  226.6013 H   0  0  0  0  0  0  0  0  0  0  0  0
  131.1212   72.6076  226.6013 H   0  0  0  0  0  0  0  0  0  0  0  0
  131.6852   73.6227  224.5660 H   0  0  0  0  0  0  0  0  0  0  0  0
  131.5161   75.2770  225.2146 H   0  0  0  0  0  0  0  0  0  0  0  0
  135.6353   71.8924  223.4131 H   0  0  0  0  0  0  0  0  0  0  0  0
  135.9736   69.4570  223.8440 H   0  0  0  0  0  0  0  0  0  0  0  0
  134.9888   68.4961  225.9223 H   0  0  0  0  0  0  0  0  0  0  0  0
  133.7158   69.8944  227.5084 H   0  0  0  0  0  0  0  0  0  0  0  0
  133.3844   72.3321  227.0650 H   0  0  0  0  0  0  0  0  0  0  0  0
  136.0467   73.9651  224.0643 H   0  0  0  0  0  0  0  0  0  0  0  0
  134.7018   73.2544  222.2205 H   0  0  0  0  0  0  0  0  0  0  0  0
  133.3775   74.3702  222.6255 H   0  0  0  0  0  0  0  0  0  0  0  0
  135.2978   74.9471  220.7591 H   0  0  0  0  0  0  0  0  0  0  0  0
  134.4948   76.2157  221.7112 H   0  0  0  0  0  0  0  0  0  0  0  0
  138.7909   75.7983  223.5923 H   0  0  0  0  0  0  0  0  0  0  0  0
  139.6300   73.6450  223.0860 H   0  0  0  0  0  0  0  0  0  0  0  0
  139.5790   73.8890  221.4390 H   0  0  0  0  0  0  0  0  0  0  0  0
  138.9890   76.5375  220.7624 H   0  0  0  0  0  0  0  0  0  0  0  0
  137.8044   79.0413  222.8423 H   0  0  0  0  0  0  0  0  0  0  0  0
  139.0388   80.9527  223.8953 H   0  0  0  0  0  0  0  0  0  0  0  0
  141.5127   80.8740  223.9912 H   0  0  0  0  0  0  0  0  0  0  0  0
  142.7836   78.9314  223.0620 H   0  0  0  0  0  0  0  0  0  0  0  0
  141.5314   75.7446  222.2136 H   0  0  0  0  0  0  0  0  0  0  0  0
  142.4585   74.6130  220.9318 H   0  0  0  0  0  0  0  0  0  0  0  0
  143.7954   74.3766  218.8807 H   0  0  0  0  0  0  0  0  0  0  0  0
  143.9038   76.2784  217.2344 H   0  0  0  0  0  0  0  0  0  0  0  0
  142.6405   78.3549  217.7377 H   0  0  0  0  0  0  0  0  0  0  0  0
  141.2991   78.5717  219.8176 H   0  0  0  0  0  0  0  0  0  0  0  0
  137.2181   76.3067  224.2540 H   0  0  0  0  0  0  0  0  0  0  0  0
  136.2199   77.5074  223.4470 H   0  0  0  0  0  0  0  0  0  0  0  0
  135.1878   75.9896  225.4558 H   0  0  0  0  0  0  0  0  0  0  0  0
  134.1625   76.3681  224.0567 H   0  0  0  0  0  0  0  0  0  0  0  0
  1  2  1  0
  2  3  1  0
  3  4  2  0
  3  5  1  0
  5  6  1  0
  6  7  2  0
  7  8  1  0
  8  9  2  0
  9 10  1  0
 10 11  2  0
  5 12  1  0
 12 13  1  0
 13 14  1  0
 14 15  1  0
 15 16  1  0
 16 17  2  0
 16 18  1  0
 18 19  1  0
 18 20  1  0
 20 21  1  0
 21 22  2  0
 22 23  1  0
 23 24  2  0
 24 25  1  0
 25 26  2  0
 26 27  1  0
 27 28  1  0
 28 29  2  0
 29 30  1  0
 30 31  2  0
 31 32  1  0
 32 33  2  0
 15 34  1  0
 34 35  1  0
 11  6  1  0
 35 12  1  0
 27 20  1  0
 33 28  1  0
 26 21  1  0
  1 36  1  0
  1 37  1  0
  1 38  1  0
  2 39  1  0
  2 40  1  0
  7 41  1  0
  8 42  1  0
  9 43  1  0
 10 44  1  0
 11 45  1  0
 12 46  1  0
 13 47  1  0
 13 48  1  0
 14 49  1  0
 14 50  1  0
 18 51  1  1
 19 52  1  0
 19 53  1  0
 20 54  1  6
 22 55  1  0
 23 56  1  0
 24 57  1  0
 25 58  1  0
 27 59  1  1
 29 60  1  0
 30 61  1  0
 31 62  1  0
 32 63  1  0
 33 64  1  0
 34 65  1  0
 34 66  1  0
 35 67  1  0
 35 68  1  0
M  END
>  <smiles>  (59) 
CCC(=O)N(c1ccccc1)C1CCN(C(=O)[C@@H](N)C2c3ccccc3C2c2ccccc2)CC1

>  <score_type>  (59) 
oracle

>  <origin>  (59) 
autodockgpu

>  <m_score__min__energy>  (59) 
-9.7300000000000004

>  <m_primary>  (59) 
energy

>  <rmsd>  (59) 
7.9295710826764845

>  <m_score__min__rmsd>  (59) 
7.9295710826764845

>  <meeko>  (59) 
{"free_energy": -7.91, "intermolecular_energy": -10.3, "internal_energy": -2.99, "cluster_size": 6, "cluster_id": 6, "rank_in_cluster": 4}

>  <energy>  (59) 
-9.33

>  <cluster_rmsd>  (59) 
0.77

>  <cluster>  (59) 
2

$$$$

     RDKit          3D

 68 72  0  0  0  0  0  0  0  0999 V2000
  138.8320   68.0690  223.4780 C   0  0  0  0  0  0  0  0  0  0  0  0
  137.7080   69.0060  223.1000 C   0  0  0  0  0  0  0  0  0  0  0  0
  137.8170   70.2160  223.9510 C   0  0  0  0  0  0  0  0  0  0  0  0
  136.7810   70.5390  224.6220 O   0  0  0  0  0  0  0  0  0  0  0  0
  139.0020   70.9990  224.0390 N   0  0  0  0  0  0  0  0  0  0  0  0
  139.7060   70.9760  225.2630 C   0  0  0  0  0  0  0  0  0  0  0  0
  140.6860   71.8900  225.5980 C   0  0  0  0  0  0  0  0  0  0  0  0
  141.3650   71.8480  226.8090 C   0  0  0  0  0  0  0  0  0  0  0  0
  141.0120   70.8340  227.6800 C   0  0  0  0  0  0  0  0  0  0  0  0
  140.0290   69.9000  227.3690 C   0  0  0  0  0  0  0  0  0  0  0  0
  139.3600   69.9560  226.1560 C   0  0  0  0  0  0  0  0  0  0  0  0
  139.4260   71.7770  222.9180 C   0  0  0  0  0  0  0  0  0  0  0  0
  140.6400   71.1840  222.2270 C   0  0  0  0  0  0  0  0  0  0  0  0
  140.7950   71.9080  220.9060 C   0  0  0  0  0  0  0  0  0  0  0  0
  140.1700   73.2080  221.0600 N   0  0  0  0  0  0  0  0  0  0  0  0
  140.9200   74.4040  221.2040 C   0  0  0  0  0  0  0  0  0  0  0  0
  142.1660   74.3340  221.2090 O   0  0  0  0  0  0  0  0  0  0  0  0
  140.2650   75.7260  221.3470 C   0  0  1  0  0  0  0  0  0  0  0  0
  139.7280   75.7980  222.7160 N   0  0  0  0  0  0  0  0  0  0  0  0
  141.3810   76.7660  221.3110 C   0  0  1  0  0  0  0  0  0  0  0  0
  141.9880   76.9570  219.9940 C   0  0  0  0  0  0  0  0  0  0  0  0
  142.7680   76.4090  218.9790 C   0  0  0  0  0  0  0  0  0  0  0  0
  143.0440   77.1540  217.8340 C   0  0  0  0  0  0  0  0  0  0  0  0
  142.5270   78.4310  217.7430 C   0  0  0  0  0  0  0  0  0  0  0  0
  141.7430   78.9890  218.7560 C   0  0  0  0  0  0  0  0  0  0  0  0
  141.4930   78.2070  219.8800 C   0  0  0  0  0  0  0  0  0  0  0  0
  140.8330   78.1310  221.1810 C   0  0  2  0  0  0  0  0  0  0  0  0
  141.2840   79.1610  222.1590 C   0  0  0  0  0  0  0  0  0  0  0  0
  141.1070   80.4890  221.7650 C   0  0  0  0  0  0  0  0  0  0  0  0
  141.4790   81.5390  222.5680 C   0  0  0  0  0  0  0  0  0  0  0  0
  142.0510   81.2870  223.8180 C   0  0  0  0  0  0  0  0  0  0  0  0
  142.2200   79.9700  224.1960 C   0  0  0  0  0  0  0  0  0  0  0  0
  141.8370   78.9100  223.3670 C   0  0  0  0  0  0  0  0  0  0  0  0
  138.7000   73.2020  221.0730 C   0  0  0  0  0  0  0  0  0  0  0  0
  138.3400   71.9470  221.8850 C   0  0  0  0  0  0  0  0  0  0  0  0
  138.9055   68.0078  224.5738 H   0  0  0  0  0  0  0  0  0  0  0  0
  138.6292   67.0688  223.0676 H   0  0  0  0  0  0  0  0  0  0  0  0
  139.7794   68.4485  223.0676 H   0  0  0  0  0  0  0  0  0  0  0  0
  137.7953   69.2857  222.0398 H   0  0  0  0  0  0  0  0  0  0  0  0
  136.7344   68.5172  223.2521 H   0  0  0  0  0  0  0  0  0  0  0  0
  140.9386   72.6820  224.8776 H   0  0  0  0  0  0  0  0  0  0  0  0
  142.1431   72.5833  227.0619 H   0  0  0  0  0  0  0  0  0  0  0  0
  141.5251   70.7635  228.6504 H   0  0  0  0  0  0  0  0  0  0  0  0
  139.7802   69.1096  228.0924 H   0  0  0  0  0  0  0  0  0  0  0  0
  138.5813   69.2213  225.9035 H   0  0  0  0  0  0  0  0  0  0  0  0
  139.6845   72.7584  223.3423 H   0  0  0  0  0  0  0  0  0  0  0  0
  141.5370   71.3318  222.8463 H   0  0  0  0  0  0  0  0  0  0  0  0
  140.5130   70.1027  222.0696 H   0  0  0  0  0  0  0  0  0  0  0  0
  141.8612   72.0276  220.6634 H   0  0  0  0  0  0  0  0  0  0  0  0
  140.3251   71.3404  220.0893 H   0  0  0  0  0  0  0  0  0  0  0  0
  139.4954   75.8796  220.5762 H   0  0  0  0  0  0  0  0  0  0  0  0
  139.5340   74.8180  223.0800 H   0  0  0  0  0  0  0  0  0  0  0  0
  140.4850   76.1540  223.3700 H   0  0  0  0  0  0  0  0  0  0  0  0
  141.9898   76.4353  222.1654 H   0  0  0  0  0  0  0  0  0  0  0  0
  143.1661   75.3886  219.0809 H   0  0  0  0  0  0  0  0  0  0  0  0
  143.6582   76.7352  217.0232 H   0  0  0  0  0  0  0  0  0  0  0  0
  142.7392   79.0283  216.8440 H   0  0  0  0  0  0  0  0  0  0  0  0
  141.3385   80.0082  218.6685 H   0  0  0  0  0  0  0  0  0  0  0  0
  139.7558   78.3044  221.3210 H   0  0  0  0  0  0  0  0  0  0  0  0
  140.6569   80.6999  220.7837 H   0  0  0  0  0  0  0  0  0  0  0  0
  141.3274   82.5743  222.2287 H   0  0  0  0  0  0  0  0  0  0  0  0
  142.3566   82.1113  224.4792 H   0  0  0  0  0  0  0  0  0  0  0  0
  142.6680   79.7479  225.1758 H   0  0  0  0  0  0  0  0  0  0  0  0
  141.9859   77.8717  223.6983 H   0  0  0  0  0  0  0  0  0  0  0  0
  138.3096   74.1079  221.5598 H   0  0  0  0  0  0  0  0  0  0  0  0
  138.2678   73.1900  220.0615 H   0  0  0  0  0  0  0  0  0  0  0  0
  137.3652   72.0799  222.3771 H   0  0  0  0  0  0  0  0  0  0  0  0
  138.2670   71.0617  221.2362 H   0  0  0  0  0  0  0  0  0  0  0  0
  1  2  1  0
  2  3  1  0
  3  4  2  0
  3  5  1  0
  5  6  1  0
  6  7  2  0
  7  8  1  0
  8  9  2  0
  9 10  1  0
 10 11  2  0
  5 12  1  0
 12 13  1  0
 13 14  1  0
 14 15  1  0
 15 16  1  0
 16 17  2  0
 16 18  1  0
 18 19  1  0
 18 20  1  0
 20 21  1  0
 21 22  2  0
 22 23  1  0
 23 24  2  0
 24 25  1  0
 25 26  2  0
 26 27  1  0
 27 28  1  0
 28 29  2  0
 29 30  1  0
 30 31  2  0
 31 32  1  0
 32 33  2  0
 15 34  1  0
 34 35  1  0
 11  6  1  0
 35 12  1  0
 27 20  1  0
 33 28  1  0
 26 21  1  0
  1 36  1  0
  1 37  1  0
  1 38  1  0
  2 39  1  0
  2 40  1  0
  7 41  1  0
  8 42  1  0
  9 43  1  0
 10 44  1  0
 11 45  1  0
 12 46  1  0
 13 47  1  0
 13 48  1  0
 14 49  1  0
 14 50  1  0
 18 51  1  6
 19 52  1  0
 19 53  1  0
 20 54  1  1
 22 55  1  0
 23 56  1  0
 24 57  1  0
 25 58  1  0
 27 59  1  6
 29 60  1  0
 30 61  1  0
 31 62  1  0
 32 63  1  0
 33 64  1  0
 34 65  1  0
 34 66  1  0
 35 67  1  0
 35 68  1  0
M  END
>  <smiles>  (60) 
CCC(=O)N(c1ccccc1)C1CCN(C(=O)[C@@H](N)C2c3ccccc3C2c2ccccc2)CC1

>  <score_type>  (60) 
oracle

>  <origin>  (60) 
autodockgpu

>  <m_score__min__energy>  (60) 
-9.7300000000000004

>  <m_primary>  (60) 
energy

>  <rmsd>  (60) 
8.989272368181023

>  <m_score__min__rmsd>  (60) 
8.989272368181023

>  <meeko>  (60) 
{"free_energy": -9.29, "intermolecular_energy": -11.68, "internal_energy": -2.35, "cluster_size": 17, "cluster_id": 2, "rank_in_cluster": 11}

>  <energy>  (60) 
-9.33

>  <cluster_rmsd>  (60) 
0.65

>  <cluster>  (60) 
2

$$$$

     RDKit          3D

 68 72  0  0  0  0  0  0  0  0999 V2000
  138.4690   68.2470  223.1550 C   0  0  0  0  0  0  0  0  0  0  0  0
  137.1470   68.8450  223.5800 C   0  0  0  0  0  0  0  0  0  0  0  0
  137.4140   70.1970  224.1270 C   0  0  0  0  0  0  0  0  0  0  0  0
  136.4130   70.8280  224.6050 O   0  0  0  0  0  0  0  0  0  0  0  0
  138.7070   70.7910  224.1350 N   0  0  0  0  0  0  0  0  0  0  0  0
  139.4870   70.6340  225.3020 C   0  0  0  0  0  0  0  0  0  0  0  0
  139.2930   69.6200  226.2200 C   0  0  0  0  0  0  0  0  0  0  0  0
  140.0730   69.4850  227.3610 C   0  0  0  0  0  0  0  0  0  0  0  0
  141.0700   70.4250  227.5410 C   0  0  0  0  0  0  0  0  0  0  0  0
  141.2890   71.4570  226.6340 C   0  0  0  0  0  0  0  0  0  0  0  0
  140.5010   71.5780  225.4990 C   0  0  0  0  0  0  0  0  0  0  0  0
  139.1610   71.5220  222.9950 C   0  0  0  0  0  0  0  0  0  0  0  0
  140.3260   70.8440  222.2980 C   0  0  0  0  0  0  0  0  0  0  0  0
  140.5060   71.5340  220.9610 C   0  0  0  0  0  0  0  0  0  0  0  0
  139.9650   72.8720  221.1020 N   0  0  0  0  0  0  0  0  0  0  0  0
  140.7890   74.0220  221.2140 C   0  0  0  0  0  0  0  0  0  0  0  0
  142.0280   73.8750  221.2030 O   0  0  0  0  0  0  0  0  0  0  0  0
  140.2190   75.3840  221.3430 C   0  0  1  0  0  0  0  0  0  0  0  0
  139.6470   75.4900  222.6950 N   0  0  0  0  0  0  0  0  0  0  0  0
  141.4010   76.3480  221.3430 C   0  0  1  0  0  0  0  0  0  0  0  0
  142.1100   76.4370  220.0670 C   0  0  0  0  0  0  0  0  0  0  0  0
  142.9210   75.7930  219.1350 C   0  0  0  0  0  0  0  0  0  0  0  0
  143.3260   76.4640  217.9830 C   0  0  0  0  0  0  0  0  0  0  0  0
  142.9030   77.7650  217.7990 C   0  0  0  0  0  0  0  0  0  0  0  0
  142.0890   78.4200  218.7280 C   0  0  0  0  0  0  0  0  0  0  0  0
  141.7100   77.7100  219.8640 C   0  0  0  0  0  0  0  0  0  0  0  0
  140.9570   77.7380  221.1150 C   0  0  2  0  0  0  0  0  0  0  0  0
  141.4060   78.7820  222.0780 C   0  0  0  0  0  0  0  0  0  0  0  0
  141.4930   80.0800  221.5680 C   0  0  0  0  0  0  0  0  0  0  0  0
  141.8940   81.1390  222.3450 C   0  0  0  0  0  0  0  0  0  0  0  0
  142.2280   80.9270  223.6860 C   0  0  0  0  0  0  0  0  0  0  0  0
  142.1380   79.6410  224.1770 C   0  0  0  0  0  0  0  0  0  0  0  0
  141.7280   78.5710  223.3740 C   0  0  0  0  0  0  0  0  0  0  0  0
  138.4970   72.9570  221.1340 C   0  0  0  0  0  0  0  0  0  0  0  0
  138.0730   71.7420  221.9730 C   0  0  0  0  0  0  0  0  0  0  0  0
  139.0552   67.9818  224.0472 H   0  0  0  0  0  0  0  0  0  0  0  0
  138.2866   67.3437  222.5543 H   0  0  0  0  0  0  0  0  0  0  0  0
  139.0270   68.9804  222.5543 H   0  0  0  0  0  0  0  0  0  0  0  0
  136.4740   68.9187  222.7130 H   0  0  0  0  0  0  0  0  0  0  0  0
  136.6664   68.2118  224.3403 H   0  0  0  0  0  0  0  0  0  0  0  0
  138.4892   68.8910  226.0401 H   0  0  0  0  0  0  0  0  0  0  0  0
  139.9061   68.6726  228.0836 H   0  0  0  0  0  0  0  0  0  0  0  0
  141.7121   70.3549  228.4314 H   0  0  0  0  0  0  0  0  0  0  0  0
  142.0942   72.1834  226.8187 H   0  0  0  0  0  0  0  0  0  0  0  0
  140.6679   72.3905  224.7765 H   0  0  0  0  0  0  0  0  0  0  0  0
  139.4848   72.4925  223.3992 H   0  0  0  0  0  0  0  0  0  0  0  0
  141.2394   70.9473  222.9022 H   0  0  0  0  0  0  0  0  0  0  0  0
  140.1304   69.7701  222.1619 H   0  0  0  0  0  0  0  0  0  0  0  0
  141.5738   71.5830  220.7012 H   0  0  0  0  0  0  0  0  0  0  0  0
  139.9905   70.9829  220.1607 H   0  0  0  0  0  0  0  0  0  0  0  0
  139.4842   75.5889  220.5505 H   0  0  0  0  0  0  0  0  0  0  0  0
  138.6390   75.8220  222.6350 H   0  0  0  0  0  0  0  0  0  0  0  0
  139.5560   74.5160  223.1120 H   0  0  0  0  0  0  0  0  0  0  0  0
  141.9246   76.0201  222.2531 H   0  0  0  0  0  0  0  0  0  0  0  0
  143.2415   74.7551  219.3086 H   0  0  0  0  0  0  0  0  0  0  0  0
  143.9670   75.9692  217.2385 H   0  0  0  0  0  0  0  0  0  0  0  0
  143.2164   78.3036  216.8925 H   0  0  0  0  0  0  0  0  0  0  0  0
  141.7603   79.4574  218.5674 H   0  0  0  0  0  0  0  0  0  0  0  0
  139.8868   77.9865  221.1684 H   0  0  0  0  0  0  0  0  0  0  0  0
  141.2329   80.2587  220.5142 H   0  0  0  0  0  0  0  0  0  0  0  0
  141.9522   82.1495  221.9143 H   0  0  0  0  0  0  0  0  0  0  0  0
  142.5521   81.7588  224.3288 H   0  0  0  0  0  0  0  0  0  0  0  0
  142.3958   79.4514  225.2294 H   0  0  0  0  0  0  0  0  0  0  0  0
  141.6676   77.5576  223.7974 H   0  0  0  0  0  0  0  0  0  0  0  0
  138.1698   73.8936  221.6090 H   0  0  0  0  0  0  0  0  0  0  0  0
  138.0506   72.9541  220.1287 H   0  0  0  0  0  0  0  0  0  0  0  0
  137.1155   71.9435  222.4756 H   0  0  0  0  0  0  0  0  0  0  0  0
  137.9369   70.8520  221.3411 H   0  0  0  0  0  0  0  0  0  0  0  0
  1  2  1  0
  2  3  1  0
  3  4  2  0
  3  5  1  0
  5  6  1  0
  6  7  2  0
  7  8  1  0
  8  9  2  0
  9 10  1  0
 10 11  2  0
  5 12  1  0
 12 13  1  0
 13 14  1  0
 14 15  1  0
 15 16  1  0
 16 17  2  0
 16 18  1  0
 18 19  1  0
 18 20  1  0
 20 21  1  0
 21 22  2  0
 22 23  1  0
 23 24  2  0
 24 25  1  0
 25 26  2  0
 26 27  1  0
 27 28  1  0
 28 29  2  0
 29 30  1  0
 30 31  2  0
 31 32  1  0
 32 33  2  0
 15 34  1  0
 34 35  1  0
 11  6  1  0
 35 12  1  0
 27 20  1  0
 33 28  1  0
 26 21  1  0
  1 36  1  0
  1 37  1  0
  1 38  1  0
  2 39  1  0
  2 40  1  0
  7 41  1  0
  8 42  1  0
  9 43  1  0
 10 44  1  0
 11 45  1  0
 12 46  1  0
 13 47  1  0
 13 48  1  0
 14 49  1  0
 14 50  1  0
 18 51  1  6
 19 52  1  0
 19 53  1  0
 20 54  1  1
 22 55  1  0
 23 56  1  0
 24 57  1  0
 25 58  1  0
 27 59  1  6
 29 60  1  0
 30 61  1  0
 31 62  1  0
 32 63  1  0
 33 64  1  0
 34 65  1  0
 34 66  1  0
 35 67  1  0
 35 68  1  0
M  END
>  <smiles>  (61) 
CCC(=O)N(c1ccccc1)C1CCN(C(=O)[C@@H](N)C2c3ccccc3C2c2ccccc2)CC1

>  <score_type>  (61) 
oracle

>  <origin>  (61) 
autodockgpu

>  <m_score__min__energy>  (61) 
-9.7300000000000004

>  <m_primary>  (61) 
energy

>  <rmsd>  (61) 
8.68395410874335

>  <m_score__min__rmsd>  (61) 
8.68395410874335

>  <meeko>  (61) 
{"free_energy": -9.45, "intermolecular_energy": -11.83, "internal_energy": -2.27, "cluster_size": 17, "cluster_id": 2, "rank_in_cluster": 2}

>  <energy>  (61) 
-9.33

>  <cluster_rmsd>  (61) 
0.66

>  <cluster>  (61) 
2

$$$$

     RDKit          3D

 68 72  0  0  0  0  0  0  0  0999 V2000
  135.8300   72.1350  224.0180 C   0  0  0  0  0  0  0  0  0  0  0  0
  135.9230   70.7250  224.5530 C   0  0  0  0  0  0  0  0  0  0  0  0
  137.0990   70.0750  223.9230 C   0  0  0  0  0  0  0  0  0  0  0  0
  136.8790   68.9970  223.2780 O   0  0  0  0  0  0  0  0  0  0  0  0
  138.4180   70.6010  224.0140 N   0  0  0  0  0  0  0  0  0  0  0  0
  139.1340   70.3560  225.2060 C   0  0  0  0  0  0  0  0  0  0  0  0
  140.0100   71.2620  225.7710 C   0  0  0  0  0  0  0  0  0  0  0  0
  140.7040   70.9990  226.9460 C   0  0  0  0  0  0  0  0  0  0  0  0
  140.4750   69.7700  227.5350 C   0  0  0  0  0  0  0  0  0  0  0  0
  139.5990   68.8370  226.9880 C   0  0  0  0  0  0  0  0  0  0  0  0
  138.9140   69.1160  225.8150 C   0  0  0  0  0  0  0  0  0  0  0  0
  138.9590   71.3560  222.9280 C   0  0  0  0  0  0  0  0  0  0  0  0
  140.2560   70.7670  222.4030 C   0  0  0  0  0  0  0  0  0  0  0  0
  140.5560   71.4550  221.0880 C   0  0  0  0  0  0  0  0  0  0  0  0
  139.8960   72.7470  221.1280 N   0  0  0  0  0  0  0  0  0  0  0  0
  140.6050   73.9610  221.3240 C   0  0  0  0  0  0  0  0  0  0  0  0
  141.8430   73.9150  221.4780 O   0  0  0  0  0  0  0  0  0  0  0  0
  139.9170   75.2730  221.3480 C   0  0  1  0  0  0  0  0  0  0  0  0
  139.1830   75.3550  222.6210 N   0  0  0  0  0  0  0  0  0  0  0  0
  141.0110   76.3310  221.4600 C   0  0  1  0  0  0  0  0  0  0  0  0
  141.8680   76.4430  220.2800 C   0  0  0  0  0  0  0  0  0  0  0  0
  142.8400   75.8420  219.4830 C   0  0  0  0  0  0  0  0  0  0  0  0
  143.3350   76.5110  218.3660 C   0  0  0  0  0  0  0  0  0  0  0  0
  142.8390   77.7670  218.0810 C   0  0  0  0  0  0  0  0  0  0  0  0
  141.8640   78.3780  218.8740 C   0  0  0  0  0  0  0  0  0  0  0  0
  141.3990   77.6710  219.9800 C   0  0  0  0  0  0  0  0  0  0  0  0
  140.4910   77.6730  221.1250 C   0  0  2  0  0  0  0  0  0  0  0  0
  140.7300   78.7770  222.0960 C   0  0  0  0  0  0  0  0  0  0  0  0
  142.0640   79.1570  222.2650 C   0  0  0  0  0  0  0  0  0  0  0  0
  142.4270   80.1610  223.1290 C   0  0  0  0  0  0  0  0  0  0  0  0
  141.4460   80.8290  223.8670 C   0  0  0  0  0  0  0  0  0  0  0  0
  140.1330   80.4440  223.6910 C   0  0  0  0  0  0  0  0  0  0  0  0
  139.7770   79.4190  222.8070 C   0  0  0  0  0  0  0  0  0  0  0  0
  138.4350   72.7130  220.9670 C   0  0  0  0  0  0  0  0  0  0  0  0
  138.0020   71.4750  221.7680 C   0  0  0  0  0  0  0  0  0  0  0  0
  135.7833   72.8436  224.8581 H   0  0  0  0  0  0  0  0  0  0  0  0
  136.7157   72.3531  223.4032 H   0  0  0  0  0  0  0  0  0  0  0  0
  134.9233   72.2349  223.4032 H   0  0  0  0  0  0  0  0  0  0  0  0
  136.0489   70.7473  225.6455 H   0  0  0  0  0  0  0  0  0  0  0  0
  135.0052   70.1653  224.3199 H   0  0  0  0  0  0  0  0  0  0  0  0
  140.1645   72.2297  225.2714 H   0  0  0  0  0  0  0  0  0  0  0  0
  141.3989   71.7305  227.3841 H   0  0  0  0  0  0  0  0  0  0  0  0
  141.0028   69.5208  228.4674 H   0  0  0  0  0  0  0  0  0  0  0  0
  139.4487   67.8701  227.4904 H   0  0  0  0  0  0  0  0  0  0  0  0
  138.2189   68.3846  225.3768 H   0  0  0  0  0  0  0  0  0  0  0  0
  139.1480   72.3538  223.3507 H   0  0  0  0  0  0  0  0  0  0  0  0
  141.0707   70.9497  223.1191 H   0  0  0  0  0  0  0  0  0  0  0  0
  140.1649   69.6795  222.2646 H   0  0  0  0  0  0  0  0  0  0  0  0
  141.6415   71.5882  220.9698 H   0  0  0  0  0  0  0  0  0  0  0  0
  140.1964   70.8553  220.2388 H   0  0  0  0  0  0  0  0  0  0  0  0
  139.2672   75.4029  220.4700 H   0  0  0  0  0  0  0  0  0  0  0  0
  138.5640   74.4980  222.7360 H   0  0  0  0  0  0  0  0  0  0  0  0
  139.8700   75.2670  223.4270 H   0  0  0  0  0  0  0  0  0  0  0  0
  141.4386   76.0729  222.4401 H   0  0  0  0  0  0  0  0  0  0  0  0
  143.2163   74.8397  219.7357 H   0  0  0  0  0  0  0  0  0  0  0  0
  144.1023   76.0497  217.7269 H   0  0  0  0  0  0  0  0  0  0  0  0
  143.2235   78.3043  217.2015 H   0  0  0  0  0  0  0  0  0  0  0  0
  141.4783   79.3797  218.6336 H   0  0  0  0  0  0  0  0  0  0  0  0
  139.4067   77.8340  221.0341 H   0  0  0  0  0  0  0  0  0  0  0  0
  142.8450   78.6377  221.6902 H   0  0  0  0  0  0  0  0  0  0  0  0
  143.4857   80.4383  223.2397 H   0  0  0  0  0  0  0  0  0  0  0  0
  141.7122   81.6358  224.5657 H   0  0  0  0  0  0  0  0  0  0  0  0
  139.3442   80.9567  224.2611 H   0  0  0  0  0  0  0  0  0  0  0  0
  138.7204   79.1358  222.6909 H   0  0  0  0  0  0  0  0  0  0  0  0
  137.9751   73.6244  221.3766 H   0  0  0  0  0  0  0  0  0  0  0  0
  138.1261   72.6645  219.9124 H   0  0  0  0  0  0  0  0  0  0  0  0
  136.9732   71.6018  222.1362 H   0  0  0  0  0  0  0  0  0  0  0  0
  138.0225   70.5705  221.1423 H   0  0  0  0  0  0  0  0  0  0  0  0
  1  2  1  0
  2  3  1  0
  3  4  2  0
  3  5  1  0
  5  6  1  0
  6  7  2  0
  7  8  1  0
  8  9  2  0
  9 10  1  0
 10 11  2  0
  5 12  1  0
 12 13  1  0
 13 14  1  0
 14 15  1  0
 15 16  1  0
 16 17  2  0
 16 18  1  0
 18 19  1  0
 18 20  1  0
 20 21  1  0
 21 22  2  0
 22 23  1  0
 23 24  2  0
 24 25  1  0
 25 26  2  0
 26 27  1  0
 27 28  1  0
 28 29  2  0
 29 30  1  0
 30 31  2  0
 31 32  1  0
 32 33  2  0
 15 34  1  0
 34 35  1  0
 11  6  1  0
 35 12  1  0
 27 20  1  0
 33 28  1  0
 26 21  1  0
  1 36  1  0
  1 37  1  0
  1 38  1  0
  2 39  1  0
  2 40  1  0
  7 41  1  0
  8 42  1  0
  9 43  1  0
 10 44  1  0
 11 45  1  0
 12 46  1  0
 13 47  1  0
 13 48  1  0
 14 49  1  0
 14 50  1  0
 18 51  1  6
 19 52  1  0
 19 53  1  0
 20 54  1  1
 22 55  1  0
 23 56  1  0
 24 57  1  0
 25 58  1  0
 27 59  1  6
 29 60  1  0
 30 61  1  0
 31 62  1  0
 32 63  1  0
 33 64  1  0
 34 65  1  0
 34 66  1  0
 35 67  1  0
 35 68  1  0
M  END
>  <smiles>  (62) 
CCC(=O)N(c1ccccc1)C1CCN(C(=O)[C@@H](N)C2c3ccccc3C2c2ccccc2)CC1

>  <score_type>  (62) 
oracle

>  <origin>  (62) 
autodockgpu

>  <m_score__min__energy>  (62) 
-9.7300000000000004

>  <m_primary>  (62) 
energy

>  <rmsd>  (62) 
8.5327243956689

>  <m_score__min__rmsd>  (62) 
8.5327243956689

>  <meeko>  (62) 
{"free_energy": -9.03, "intermolecular_energy": -11.42, "internal_energy": -2.31, "cluster_size": 17, "cluster_id": 2, "rank_in_cluster": 14}

>  <energy>  (62) 
-9.31

>  <cluster_rmsd>  (62) 
0.41

>  <cluster>  (62) 
2

$$$$

     RDKit          3D

 68 72  0  0  0  0  0  0  0  0999 V2000
  138.5380   68.1500  223.2290 C   0  0  0  0  0  0  0  0  0  0  0  0
  137.2150   68.8750  223.3230 C   0  0  0  0  0  0  0  0  0  0  0  0
  137.4500   70.1660  224.0150 C   0  0  0  0  0  0  0  0  0  0  0  0
  136.4450   70.6960  224.5940 O   0  0  0  0  0  0  0  0  0  0  0  0
  138.7200   70.8070  224.0510 N   0  0  0  0  0  0  0  0  0  0  0  0
  139.4820   70.6750  225.2320 C   0  0  0  0  0  0  0  0  0  0  0  0
  139.2740   69.6800  226.1680 C   0  0  0  0  0  0  0  0  0  0  0  0
  140.0370   69.5690  227.3240 C   0  0  0  0  0  0  0  0  0  0  0  0
  141.0310   70.5130  227.4990 C   0  0  0  0  0  0  0  0  0  0  0  0
  141.2630   71.5260  226.5740 C   0  0  0  0  0  0  0  0  0  0  0  0
  140.4920   71.6230  225.4250 C   0  0  0  0  0  0  0  0  0  0  0  0
  139.1700   71.5600  222.9220 C   0  0  0  0  0  0  0  0  0  0  0  0
  140.3340   70.8960  222.2100 C   0  0  0  0  0  0  0  0  0  0  0  0
  140.5090   71.6100  220.8850 C   0  0  0  0  0  0  0  0  0  0  0  0
  139.9640   72.9440  221.0500 N   0  0  0  0  0  0  0  0  0  0  0  0
  140.7860   74.0940  221.1800 C   0  0  0  0  0  0  0  0  0  0  0  0
  142.0260   73.9500  221.1630 O   0  0  0  0  0  0  0  0  0  0  0  0
  140.2120   75.4520  221.3340 C   0  0  1  0  0  0  0  0  0  0  0  0
  139.6450   75.5330  222.6890 N   0  0  0  0  0  0  0  0  0  0  0  0
  141.3930   76.4190  221.3470 C   0  0  1  0  0  0  0  0  0  0  0  0
  142.0960   76.5330  220.0700 C   0  0  0  0  0  0  0  0  0  0  0  0
  142.9050   75.9070  219.1240 C   0  0  0  0  0  0  0  0  0  0  0  0
  143.3040   76.5990  217.9820 C   0  0  0  0  0  0  0  0  0  0  0  0
  142.8770   77.9020  217.8230 C   0  0  0  0  0  0  0  0  0  0  0  0
  142.0650   78.5380  218.7660 C   0  0  0  0  0  0  0  0  0  0  0  0
  141.6920   77.8070  219.8900 C   0  0  0  0  0  0  0  0  0  0  0  0
  140.9430   77.8110  221.1450 C   0  0  2  0  0  0  0  0  0  0  0  0
  141.3930   78.8400  222.1250 C   0  0  0  0  0  0  0  0  0  0  0  0
  141.4180   80.1550  221.6540 C   0  0  0  0  0  0  0  0  0  0  0  0
  141.8120   81.2020  222.4490 C   0  0  0  0  0  0  0  0  0  0  0  0
  142.2030   80.9610  223.7700 C   0  0  0  0  0  0  0  0  0  0  0  0
  142.1750   79.6570  224.2220 C   0  0  0  0  0  0  0  0  0  0  0  0
  141.7710   78.5990  223.4000 C   0  0  0  0  0  0  0  0  0  0  0  0
  138.4970   73.0250  221.0880 C   0  0  0  0  0  0  0  0  0  0  0  0
  138.0780   71.7940  221.9070 C   0  0  0  0  0  0  0  0  0  0  0  0
  138.9155   67.9431  224.2413 H   0  0  0  0  0  0  0  0  0  0  0  0
  138.3990   67.2020  222.6887 H   0  0  0  0  0  0  0  0  0  0  0  0
  139.2623   68.7773  222.6887 H   0  0  0  0  0  0  0  0  0  0  0  0
  136.8172   69.0589  222.3141 H   0  0  0  0  0  0  0  0  0  0  0  0
  136.4851   68.2692  223.8801 H   0  0  0  0  0  0  0  0  0  0  0  0
  138.4730   68.9471  225.9911 H   0  0  0  0  0  0  0  0  0  0  0  0
  139.8592   68.7719  228.0609 H   0  0  0  0  0  0  0  0  0  0  0  0
  141.6600   70.4617  228.4000 H   0  0  0  0  0  0  0  0  0  0  0  0
  142.0651   72.2566  226.7555 H   0  0  0  0  0  0  0  0  0  0  0  0
  140.6694   72.4206  224.6886 H   0  0  0  0  0  0  0  0  0  0  0  0
  139.4932   72.5241  223.3415 H   0  0  0  0  0  0  0  0  0  0  0  0
  141.2490   70.9899  222.8133 H   0  0  0  0  0  0  0  0  0  0  0  0
  140.1397   69.8244  222.0556 H   0  0  0  0  0  0  0  0  0  0  0  0
  141.5761   71.6669  220.6240 H   0  0  0  0  0  0  0  0  0  0  0  0
  139.9934   71.0713  220.0763 H   0  0  0  0  0  0  0  0  0  0  0  0
  139.4737   75.6687  220.5479 H   0  0  0  0  0  0  0  0  0  0  0  0
  139.5540   74.5570  223.1010 H   0  0  0  0  0  0  0  0  0  0  0  0
  140.3460   76.0040  223.3340 H   0  0  0  0  0  0  0  0  0  0  0  0
  141.9220   76.0764  222.2486 H   0  0  0  0  0  0  0  0  0  0  0  0
  143.2286   74.8671  219.2784 H   0  0  0  0  0  0  0  0  0  0  0  0
  143.9431   76.1189  217.2263 H   0  0  0  0  0  0  0  0  0  0  0  0
  143.1858   78.4576  216.9252 H   0  0  0  0  0  0  0  0  0  0  0  0
  141.7332   79.5773  218.6252 H   0  0  0  0  0  0  0  0  0  0  0  0
  139.8722   78.0550  221.2067 H   0  0  0  0  0  0  0  0  0  0  0  0
  141.1132   80.3569  220.6165 H   0  0  0  0  0  0  0  0  0  0  0  0
  141.8202   82.2266  222.0488 H   0  0  0  0  0  0  0  0  0  0  0  0
  142.5223   81.7834  224.4271 H   0  0  0  0  0  0  0  0  0  0  0  0
  142.4788   79.4435  225.2574 H   0  0  0  0  0  0  0  0  0  0  0  0
  141.7611   77.5711  223.7916 H   0  0  0  0  0  0  0  0  0  0  0  0
  138.1692   73.9524  221.5805 H   0  0  0  0  0  0  0  0  0  0  0  0
  138.0475   73.0387  220.0841 H   0  0  0  0  0  0  0  0  0  0  0  0
  137.1213   71.9841  222.4156 H   0  0  0  0  0  0  0  0  0  0  0  0
  137.9421   70.9146  221.2604 H   0  0  0  0  0  0  0  0  0  0  0  0
  1  2  1  0
  2  3  1  0
  3  4  2  0
  3  5  1  0
  5  6  1  0
  6  7  2  0
  7  8  1  0
  8  9  2  0
  9 10  1  0
 10 11  2  0
  5 12  1  0
 12 13  1  0
 13 14  1  0
 14 15  1  0
 15 16  1  0
 16 17  2  0
 16 18  1  0
 18 19  1  0
 18 20  1  0
 20 21  1  0
 21 22  2  0
 22 23  1  0
 23 24  2  0
 24 25  1  0
 25 26  2  0
 26 27  1  0
 27 28  1  0
 28 29  2  0
 29 30  1  0
 30 31  2  0
 31 32  1  0
 32 33  2  0
 15 34  1  0
 34 35  1  0
 11  6  1  0
 35 12  1  0
 27 20  1  0
 33 28  1  0
 26 21  1  0
  1 36  1  0
  1 37  1  0
  1 38  1  0
  2 39  1  0
  2 40  1  0
  7 41  1  0
  8 42  1  0
  9 43  1  0
 10 44  1  0
 11 45  1  0
 12 46  1  0
 13 47  1  0
 13 48  1  0
 14 49  1  0
 14 50  1  0
 18 51  1  6
 19 52  1  0
 19 53  1  0
 20 54  1  1
 22 55  1  0
 23 56  1  0
 24 57  1  0
 25 58  1  0
 27 59  1  6
 29 60  1  0
 30 61  1  0
 31 62  1  0
 32 63  1  0
 33 64  1  0
 34 65  1  0
 34 66  1  0
 35 67  1  0
 35 68  1  0
M  END
>  <smiles>  (63) 
CCC(=O)N(c1ccccc1)C1CCN(C(=O)[C@@H](N)C2c3ccccc3C2c2ccccc2)CC1

>  <score_type>  (63) 
oracle

>  <origin>  (63) 
autodockgpu

>  <m_score__min__energy>  (63) 
-9.7300000000000004

>  <m_primary>  (63) 
energy

>  <rmsd>  (63) 
8.729426051080631

>  <m_score__min__rmsd>  (63) 
8.729426051080631

>  <meeko>  (63) 
{"free_energy": -9.31, "intermolecular_energy": -11.7, "internal_energy": -2.32, "cluster_size": 17, "cluster_id": 2, "rank_in_cluster": 10}

>  <energy>  (63) 
-9.29

>  <cluster_rmsd>  (63) 
0.68

>  <cluster>  (63) 
2

$$$$

     RDKit          3D

 68 72  0  0  0  0  0  0  0  0999 V2000
  139.9460   70.5600  221.3120 C   0  0  0  0  0  0  0  0  0  0  0  0
  139.9860   71.9370  220.6900 C   0  0  0  0  0  0  0  0  0  0  0  0
  140.7290   72.8320  221.6100 C   0  0  0  0  0  0  0  0  0  0  0  0
  140.5380   72.6540  222.8590 O   0  0  0  0  0  0  0  0  0  0  0  0
  141.6170   73.8460  221.1570 N   0  0  0  0  0  0  0  0  0  0  0  0
  142.9070   73.4440  220.7470 C   0  0  0  0  0  0  0  0  0  0  0  0
  143.2560   72.1310  220.5020 C   0  0  0  0  0  0  0  0  0  0  0  0
  144.5320   71.7590  220.0970 C   0  0  0  0  0  0  0  0  0  0  0  0
  145.4530   72.7780  219.9480 C   0  0  0  0  0  0  0  0  0  0  0  0
  145.1310   74.1100  220.1880 C   0  0  0  0  0  0  0  0  0  0  0  0
  143.8520   74.4650  220.5910 C   0  0  0  0  0  0  0  0  0  0  0  0
  141.1930   75.2110  221.1450 C   0  0  0  0  0  0  0  0  0  0  0  0
  140.9220   75.7210  219.7410 C   0  0  0  0  0  0  0  0  0  0  0  0
  140.1980   77.0430  219.8820 C   0  0  0  0  0  0  0  0  0  0  0  0
  140.5620   77.5880  221.1760 N   0  0  0  0  0  0  0  0  0  0  0  0
  141.4700   78.6700  221.3210 C   0  0  0  0  0  0  0  0  0  0  0  0
  141.9840   79.1630  220.2970 O   0  0  0  0  0  0  0  0  0  0  0  0
  141.8200   79.2240  222.6510 C   0  0  1  0  0  0  0  0  0  0  0  0
  143.1550   79.8310  222.5300 N   0  0  0  0  0  0  0  0  0  0  0  0
  140.8760   80.3990  222.8900 C   0  0  1  0  0  0  0  0  0  0  0  0
  140.9100   81.4240  221.8470 C   0  0  0  0  0  0  0  0  0  0  0  0
  141.6460   82.4290  221.2230 C   0  0  0  0  0  0  0  0  0  0  0  0
  141.0850   83.1500  220.1710 C   0  0  0  0  0  0  0  0  0  0  0  0
  139.7990   82.8400  219.7750 C   0  0  0  0  0  0  0  0  0  0  0  0
  139.0540   81.8330  220.3950 C   0  0  0  0  0  0  0  0  0  0  0  0
  139.6560   81.1400  221.4410 C   0  0  0  0  0  0  0  0  0  0  0  0
  139.5060   80.0830  222.4390 C   0  0  2  0  0  0  0  0  0  0  0  0
  138.3870   80.2980  223.3990 C   0  0  0  0  0  0  0  0  0  0  0  0
  137.1650   79.7240  223.0430 C   0  0  0  0  0  0  0  0  0  0  0  0
  136.0490   79.8440  223.8350 C   0  0  0  0  0  0  0  0  0  0  0  0
  136.1250   80.5600  225.0340 C   0  0  0  0  0  0  0  0  0  0  0  0
  137.3390   81.1220  225.3740 C   0  0  0  0  0  0  0  0  0  0  0  0
  138.4670   80.9910  224.5560 C   0  0  0  0  0  0  0  0  0  0  0  0
  139.9350   76.9340  222.3330 C   0  0  0  0  0  0  0  0  0  0  0  0
  139.9500   75.4410  221.9690 C   0  0  0  0  0  0  0  0  0  0  0  0
  139.9487   70.6526  222.4081 H   0  0  0  0  0  0  0  0  0  0  0  0
  139.0323   70.0387  220.9903 H   0  0  0  0  0  0  0  0  0  0  0  0
  140.8279   69.9866  220.9903 H   0  0  0  0  0  0  0  0  0  0  0  0
  140.4978   71.8929  219.7173 H   0  0  0  0  0  0  0  0  0  0  0  0
  138.9653   72.3146  220.5297 H   0  0  0  0  0  0  0  0  0  0  0  0
  142.4940   71.3485  220.6325 H   0  0  0  0  0  0  0  0  0  0  0  0
  144.7951   70.7083  219.9051 H   0  0  0  0  0  0  0  0  0  0  0  0
  146.4755   72.5277  219.6288 H   0  0  0  0  0  0  0  0  0  0  0  0
  145.8972   74.8883  220.0571 H   0  0  0  0  0  0  0  0  0  0  0  0
  143.5886   75.5158  220.7820 H   0  0  0  0  0  0  0  0  0  0  0  0
  142.0335   75.7668  221.5862 H   0  0  0  0  0  0  0  0  0  0  0  0
  141.8700   75.8651  219.2020 H   0  0  0  0  0  0  0  0  0  0  0  0
  140.3161   75.0005  219.1719 H   0  0  0  0  0  0  0  0  0  0  0  0
  140.5076   77.7309  219.0814 H   0  0  0  0  0  0  0  0  0  0  0  0
  139.1093   76.9053  219.8054 H   0  0  0  0  0  0  0  0  0  0  0  0
  141.7699   78.4536  223.4346 H   0  0  0  0  0  0  0  0  0  0  0  0
  143.8880   79.0710  222.4080 H   0  0  0  0  0  0  0  0  0  0  0  0
  143.2120   80.3710  221.6160 H   0  0  0  0  0  0  0  0  0  0  0  0
  141.1293   80.6498  223.9306 H   0  0  0  0  0  0  0  0  0  0  0  0
  142.6687   82.6530  221.5605 H   0  0  0  0  0  0  0  0  0  0  0  0
  141.6527   83.9468  219.6682 H   0  0  0  0  0  0  0  0  0  0  0  0
  139.3467   83.4033  218.9455 H   0  0  0  0  0  0  0  0  0  0  0  0
  138.0304   81.5971  220.0685 H   0  0  0  0  0  0  0  0  0  0  0  0
  139.2383   79.0471  222.1834 H   0  0  0  0  0  0  0  0  0  0  0  0
  137.0939   79.1596  222.1015 H   0  0  0  0  0  0  0  0  0  0  0  0
  135.1005   79.3793  223.5278 H   0  0  0  0  0  0  0  0  0  0  0  0
  135.2455   80.6717  225.6852 H   0  0  0  0  0  0  0  0  0  0  0  0
  137.4221   81.6882  226.3134 H   0  0  0  0  0  0  0  0  0  0  0  0
  139.4195   81.4526  224.8553 H   0  0  0  0  0  0  0  0  0  0  0  0
  140.5155   77.1191  223.2489 H   0  0  0  0  0  0  0  0  0  0  0  0
  138.9213   77.3106  222.5344 H   0  0  0  0  0  0  0  0  0  0  0  0
  139.9809   74.8280  222.8818 H   0  0  0  0  0  0  0  0  0  0  0  0
  139.0455   75.1598  221.4097 H   0  0  0  0  0  0  0  0  0  0  0  0
  1  2  1  0
  2  3  1  0
  3  4  2  0
  3  5  1  0
  5  6  1  0
  6  7  2  0
  7  8  1  0
  8  9  2  0
  9 10  1  0
 10 11  2  0
  5 12  1  0
 12 13  1  0
 13 14  1  0
 14 15  1  0
 15 16  1  0
 16 17  2  0
 16 18  1  0
 18 19  1  0
 18 20  1  0
 20 21  1  0
 21 22  2  0
 22 23  1  0
 23 24  2  0
 24 25  1  0
 25 26  2  0
 26 27  1  0
 27 28  1  0
 28 29  2  0
 29 30  1  0
 30 31  2  0
 31 32  1  0
 32 33  2  0
 15 34  1  0
 34 35  1  0
 11  6  1  0
 35 12  1  0
 27 20  1  0
 33 28  1  0
 26 21  1  0
  1 36  1  0
  1 37  1  0
  1 38  1  0
  2 39  1  0
  2 40  1  0
  7 41  1  0
  8 42  1  0
  9 43  1  0
 10 44  1  0
 11 45  1  0
 12 46  1  0
 13 47  1  0
 13 48  1  0
 14 49  1  0
 14 50  1  0
 18 51  1  1
 19 52  1  0
 19 53  1  0
 20 54  1  1
 22 55  1  0
 23 56  1  0
 24 57  1  0
 25 58  1  0
 27 59  1  6
 29 60  1  0
 30 61  1  0
 31 62  1  0
 32 63  1  0
 33 64  1  0
 34 65  1  0
 34 66  1  0
 35 67  1  0
 35 68  1  0
M  END
>  <smiles>  (64) 
CCC(=O)N(c1ccccc1)C1CCN(C(=O)[C@@H](N)C2c3ccccc3C2c2ccccc2)CC1

>  <score_type>  (64) 
oracle

>  <origin>  (64) 
autodockgpu

>  <m_score__min__energy>  (64) 
-9.7300000000000004

>  <m_primary>  (64) 
energy

>  <rmsd>  (64) 
11.107131760823407

>  <m_score__min__rmsd>  (64) 
11.107131760823407

>  <meeko>  (64) 
{"free_energy": -7.78, "intermolecular_energy": -10.17, "internal_energy": -3.27, "cluster_size": 11, "cluster_id": 7, "rank_in_cluster": 6}

>  <energy>  (64) 
-9.26

>  <cluster_rmsd>  (64) 
0.68

>  <cluster>  (64) 
2

$$$$

     RDKit          3D

 68 72  0  0  0  0  0  0  0  0999 V2000
  138.6590   72.4390  220.5720 C   0  0  0  0  0  0  0  0  0  0  0  0
  140.0390   71.8370  220.7070 C   0  0  0  0  0  0  0  0  0  0  0  0
  140.8140   72.6800  221.6490 C   0  0  0  0  0  0  0  0  0  0  0  0
  140.6470   72.4510  222.8930 O   0  0  0  0  0  0  0  0  0  0  0  0
  141.7090   73.7010  221.2210 N   0  0  0  0  0  0  0  0  0  0  0  0
  143.0110   73.3060  220.8430 C   0  0  0  0  0  0  0  0  0  0  0  0
  144.0950   74.1630  220.8280 C   0  0  0  0  0  0  0  0  0  0  0  0
  145.3680   73.7520  220.4530 C   0  0  0  0  0  0  0  0  0  0  0  0
  145.5060   72.4250  220.0910 C   0  0  0  0  0  0  0  0  0  0  0  0
  144.4330   71.5400  220.0970 C   0  0  0  0  0  0  0  0  0  0  0  0
  143.1680   71.9660  220.4740 C   0  0  0  0  0  0  0  0  0  0  0  0
  141.2770   75.0630  221.2000 C   0  0  0  0  0  0  0  0  0  0  0  0
  141.0730   75.5840  219.7890 C   0  0  0  0  0  0  0  0  0  0  0  0
  140.3340   76.9010  219.9060 C   0  0  0  0  0  0  0  0  0  0  0  0
  140.6310   77.4360  221.2210 N   0  0  0  0  0  0  0  0  0  0  0  0
  141.5250   78.5210  221.4200 C   0  0  0  0  0  0  0  0  0  0  0  0
  142.0850   79.0270  220.4260 O   0  0  0  0  0  0  0  0  0  0  0  0
  141.8060   79.0650  222.7700 C   0  0  1  0  0  0  0  0  0  0  0  0
  143.1600   79.6410  222.7330 N   0  0  0  0  0  0  0  0  0  0  0  0
  140.8780   80.2620  222.9540 C   0  0  1  0  0  0  0  0  0  0  0  0
  140.9500   81.2540  221.8820 C   0  0  0  0  0  0  0  0  0  0  0  0
  141.7140   82.2270  221.2430 C   0  0  0  0  0  0  0  0  0  0  0  0
  141.1870   82.9250  220.1580 C   0  0  0  0  0  0  0  0  0  0  0  0
  139.9040   82.6240  219.7460 C   0  0  0  0  0  0  0  0  0  0  0  0
  139.1300   81.6490  220.3810 C   0  0  0  0  0  0  0  0  0  0  0  0
  139.6990   80.9780  221.4600 C   0  0  0  0  0  0  0  0  0  0  0  0
  139.5120   79.9550  222.4850 C   0  0  2  0  0  0  0  0  0  0  0  0
  138.3780   80.2180  223.4160 C   0  0  0  0  0  0  0  0  0  0  0  0
  137.1530   79.6520  223.0540 C   0  0  0  0  0  0  0  0  0  0  0  0
  136.0250   79.8140  223.8190 C   0  0  0  0  0  0  0  0  0  0  0  0
  136.0890   80.5660  224.9960 C   0  0  0  0  0  0  0  0  0  0  0  0
  137.3040   81.1190  225.3420 C   0  0  0  0  0  0  0  0  0  0  0  0
  138.4460   80.9450  224.5530 C   0  0  0  0  0  0  0  0  0  0  0  0
  139.9530   76.7680  222.3410 C   0  0  0  0  0  0  0  0  0  0  0  0
  139.9950   75.2780  221.9650 C   0  0  0  0  0  0  0  0  0  0  0  0
  138.2394   72.6221  221.5722 H   0  0  0  0  0  0  0  0  0  0  0  0
  138.7258   73.3897  220.0228 H   0  0  0  0  0  0  0  0  0  0  0  0
  138.0076   71.7433  220.0228 H   0  0  0  0  0  0  0  0  0  0  0  0
  139.9629   70.8119  221.0987 H   0  0  0  0  0  0  0  0  0  0  0  0
  140.5379   71.7991  219.7274 H   0  0  0  0  0  0  0  0  0  0  0  0
  143.9440   75.2115  221.1245 H   0  0  0  0  0  0  0  0  0  0  0  0
  146.2213   74.4461  220.4446 H   0  0  0  0  0  0  0  0  0  0  0  0
  146.4973   72.0568  219.7882 H   0  0  0  0  0  0  0  0  0  0  0  0
  144.5891   70.4924  219.8000 H   0  0  0  0  0  0  0  0  0  0  0  0
  142.3149   71.2717  220.4825 H   0  0  0  0  0  0  0  0  0  0  0  0
  142.0909   75.6206  221.6865 H   0  0  0  0  0  0  0  0  0  0  0  0
  142.0456   75.7388  219.2991 H   0  0  0  0  0  0  0  0  0  0  0  0
  140.5010   74.8652  219.1839 H   0  0  0  0  0  0  0  0  0  0  0  0
  140.6779   77.5981  219.1276 H   0  0  0  0  0  0  0  0  0  0  0  0
  139.2513   76.7577  219.7748 H   0  0  0  0  0  0  0  0  0  0  0  0
  141.6897   78.2946  223.5465 H   0  0  0  0  0  0  0  0  0  0  0  0
  143.8820   78.8620  222.6880 H   0  0  0  0  0  0  0  0  0  0  0  0
  143.2970   80.1510  221.8110 H   0  0  0  0  0  0  0  0  0  0  0  0
  141.1151   80.5402  223.9915 H   0  0  0  0  0  0  0  0  0  0  0  0
  142.7333   82.4447  221.5945 H   0  0  0  0  0  0  0  0  0  0  0  0
  141.7783   83.6963  219.6428 H   0  0  0  0  0  0  0  0  0  0  0  0
  139.4776   83.1689  218.8909 H   0  0  0  0  0  0  0  0  0  0  0  0
  138.1092   81.4202  220.0410 H   0  0  0  0  0  0  0  0  0  0  0  0
  139.2320   78.9164  222.2550 H   0  0  0  0  0  0  0  0  0  0  0  0
  137.0908   79.0595  222.1293 H   0  0  0  0  0  0  0  0  0  0  0  0
  135.0753   79.3545  223.5077 H   0  0  0  0  0  0  0  0  0  0  0  0
  135.1989   80.7118  225.6257 H   0  0  0  0  0  0  0  0  0  0  0  0
  137.3772   81.7137  226.2645 H   0  0  0  0  0  0  0  0  0  0  0  0
  139.3997   81.4002  224.8583 H   0  0  0  0  0  0  0  0  0  0  0  0
  140.4875   76.9483  223.2853 H   0  0  0  0  0  0  0  0  0  0  0  0
  138.9285   77.1369  222.4967 H   0  0  0  0  0  0  0  0  0  0  0  0
  139.9860   74.6570  222.8729 H   0  0  0  0  0  0  0  0  0  0  0  0
  139.1202   74.9964  221.3605 H   0  0  0  0  0  0  0  0  0  0  0  0
  1  2  1  0
  2  3  1  0
  3  4  2  0
  3  5  1  0
  5  6  1  0
  6  7  2  0
  7  8  1  0
  8  9  2  0
  9 10  1  0
 10 11  2  0
  5 12  1  0
 12 13  1  0
 13 14  1  0
 14 15  1  0
 15 16  1  0
 16 17  2  0
 16 18  1  0
 18 19  1  0
 18 20  1  0
 20 21  1  0
 21 22  2  0
 22 23  1  0
 23 24  2  0
 24 25  1  0
 25 26  2  0
 26 27  1  0
 27 28  1  0
 28 29  2  0
 29 30  1  0
 30 31  2  0
 31 32  1  0
 32 33  2  0
 15 34  1  0
 34 35  1  0
 11  6  1  0
 35 12  1  0
 27 20  1  0
 33 28  1  0
 26 21  1  0
  1 36  1  0
  1 37  1  0
  1 38  1  0
  2 39  1  0
  2 40  1  0
  7 41  1  0
  8 42  1  0
  9 43  1  0
 10 44  1  0
 11 45  1  0
 12 46  1  0
 13 47  1  0
 13 48  1  0
 14 49  1  0
 14 50  1  0
 18 51  1  1
 19 52  1  0
 19 53  1  0
 20 54  1  1
 22 55  1  0
 23 56  1  0
 24 57  1  0
 25 58  1  0
 27 59  1  6
 29 60  1  0
 30 61  1  0
 31 62  1  0
 32 63  1  0
 33 64  1  0
 34 65  1  0
 34 66  1  0
 35 67  1  0
 35 68  1  0
M  END
>  <smiles>  (65) 
CCC(=O)N(c1ccccc1)C1CCN(C(=O)[C@@H](N)C2c3ccccc3C2c2ccccc2)CC1

>  <score_type>  (65) 
oracle

>  <origin>  (65) 
autodockgpu

>  <m_score__min__energy>  (65) 
-9.7300000000000004

>  <m_primary>  (65) 
energy

>  <rmsd>  (65) 
10.966358610477478

>  <m_score__min__rmsd>  (65) 
10.966358610477478

>  <meeko>  (65) 
{"free_energy": -7.77, "intermolecular_energy": -10.15, "internal_energy": -3.26, "cluster_size": 11, "cluster_id": 7, "rank_in_cluster": 8}

>  <energy>  (65) 
-9.22

>  <cluster_rmsd>  (65) 
0.67

>  <cluster>  (65) 
2

$$$$

     RDKit          3D

 68 72  0  0  0  0  0  0  0  0999 V2000
  134.3130   69.5560  225.8870 C   0  0  0  0  0  0  0  0  0  0  0  0
  135.4680   69.9840  225.0120 C   0  0  0  0  0  0  0  0  0  0  0  0
  134.9630   70.9930  224.0500 C   0  0  0  0  0  0  0  0  0  0  0  0
  134.0040   70.6290  223.2910 O   0  0  0  0  0  0  0  0  0  0  0  0
  135.4960   72.3080  223.9520 N   0  0  0  0  0  0  0  0  0  0  0  0
  134.9310   73.3020  224.7810 C   0  0  0  0  0  0  0  0  0  0  0  0
  135.3640   74.6130  224.8060 C   0  0  0  0  0  0  0  0  0  0  0  0
  134.7910   75.5740  225.6300 C   0  0  0  0  0  0  0  0  0  0  0  0
  133.7520   75.1530  226.4380 C   0  0  0  0  0  0  0  0  0  0  0  0
  133.2950   73.8390  226.4350 C   0  0  0  0  0  0  0  0  0  0  0  0
  133.8770   72.8920  225.6050 C   0  0  0  0  0  0  0  0  0  0  0  0
  136.5530   72.5810  223.0300 C   0  0  0  0  0  0  0  0  0  0  0  0
  137.6060   71.4880  223.0150 C   0  0  0  0  0  0  0  0  0  0  0  0
  138.4840   71.7340  221.8050 C   0  0  0  0  0  0  0  0  0  0  0  0
  138.3940   73.1490  221.5000 N   0  0  0  0  0  0  0  0  0  0  0  0
  139.4420   74.0620  221.7910 C   0  0  0  0  0  0  0  0  0  0  0  0
  140.4760   73.6310  222.3410 O   0  0  0  0  0  0  0  0  0  0  0  0
  139.3390   75.5020  221.4590 C   0  0  1  0  0  0  0  0  0  0  0  0
  138.5300   76.1340  222.5140 N   0  0  0  0  0  0  0  0  0  0  0  0
  140.7370   76.0860  221.6380 C   0  0  1  0  0  0  0  0  0  0  0  0
  141.6980   75.6790  220.6130 C   0  0  0  0  0  0  0  0  0  0  0  0
  142.4440   74.6410  220.0600 C   0  0  0  0  0  0  0  0  0  0  0  0
  143.2830   74.8880  218.9760 C   0  0  0  0  0  0  0  0  0  0  0  0
  143.3500   76.1730  218.4770 C   0  0  0  0  0  0  0  0  0  0  0  0
  142.6060   77.2220  219.0250 C   0  0  0  0  0  0  0  0  0  0  0  0
  141.7800   76.9270  220.1070 C   0  0  0  0  0  0  0  0  0  0  0  0
  140.8210   77.4500  221.0770 C   0  0  2  0  0  0  0  0  0  0  0  0
  141.3590   78.5320  221.9490 C   0  0  0  0  0  0  0  0  0  0  0  0
  141.3550   78.2630  223.3200 C   0  0  0  0  0  0  0  0  0  0  0  0
  141.8210   79.1720  224.2380 C   0  0  0  0  0  0  0  0  0  0  0  0
  142.3150   80.4050  223.8030 C   0  0  0  0  0  0  0  0  0  0  0  0
  142.3130   80.6580  222.4470 C   0  0  0  0  0  0  0  0  0  0  0  0
  141.8350   79.7230  221.5220 C   0  0  0  0  0  0  0  0  0  0  0  0
  137.1330   73.5810  220.8790 C   0  0  0  0  0  0  0  0  0  0  0  0
  136.0580   72.7680  221.6170 C   0  0  0  0  0  0  0  0  0  0  0  0
  134.5959   69.6608  226.9448 H   0  0  0  0  0  0  0  0  0  0  0  0
  133.4390   70.1900  225.6766 H   0  0  0  0  0  0  0  0  0  0  0  0
  134.0632   68.5056  225.6766 H   0  0  0  0  0  0  0  0  0  0  0  0
  136.2631   70.4240  225.6318 H   0  0  0  0  0  0  0  0  0  0  0  0
  135.8831   69.1180  224.4756 H   0  0  0  0  0  0  0  0  0  0  0  0
  136.1947   74.9080  224.1481 H   0  0  0  0  0  0  0  0  0  0  0  0
  135.1458   76.6152  225.6387 H   0  0  0  0  0  0  0  0  0  0  0  0
  133.2699   75.8816  227.1063 H   0  0  0  0  0  0  0  0  0  0  0  0
  132.4653   73.5486  227.0962 H   0  0  0  0  0  0  0  0  0  0  0  0
  133.5210   71.8512  225.5949 H   0  0  0  0  0  0  0  0  0  0  0  0
  136.9991   73.5201  223.3892 H   0  0  0  0  0  0  0  0  0  0  0  0
  138.2088   71.5318  223.9341 H   0  0  0  0  0  0  0  0  0  0  0  0
  137.1384   70.4936  222.9646 H   0  0  0  0  0  0  0  0  0  0  0  0
  139.5253   71.4613  222.0315 H   0  0  0  0  0  0  0  0  0  0  0  0
  138.1555   71.1252  220.9498 H   0  0  0  0  0  0  0  0  0  0  0  0
  138.9237   75.6542  220.4518 H   0  0  0  0  0  0  0  0  0  0  0  0
  137.5090   76.1600  222.2190 H   0  0  0  0  0  0  0  0  0  0  0  0
  138.5190   75.5040  223.3700 H   0  0  0  0  0  0  0  0  0  0  0  0
  140.9163   75.8538  222.6982 H   0  0  0  0  0  0  0  0  0  0  0  0
  142.3706   73.6266  220.4791 H   0  0  0  0  0  0  0  0  0  0  0  0
  143.8780   74.0783  218.5283 H   0  0  0  0  0  0  0  0  0  0  0  0
  144.0097   76.3782  217.6210 H   0  0  0  0  0  0  0  0  0  0  0  0
  142.6704   78.2416  218.6172 H   0  0  0  0  0  0  0  0  0  0  0  0
  139.9018   77.9813  220.7890 H   0  0  0  0  0  0  0  0  0  0  0  0
  140.9678   77.2962  223.6740 H   0  0  0  0  0  0  0  0  0  0  0  0
  141.8055   78.9307  225.3111 H   0  0  0  0  0  0  0  0  0  0  0  0
  142.6932   81.1496  224.5189 H   0  0  0  0  0  0  0  0  0  0  0  0
  142.6980   81.6218  222.0825 H   0  0  0  0  0  0  0  0  0  0  0  0
  141.8466   79.9572  220.4473 H   0  0  0  0  0  0  0  0  0  0  0  0
  136.9753   74.6600  221.0237 H   0  0  0  0  0  0  0  0  0  0  0  0
  137.1176   73.4148  219.7917 H   0  0  0  0  0  0  0  0  0  0  0  0
  135.1033   73.3144  221.6185 H   0  0  0  0  0  0  0  0  0  0  0  0
  135.8864   71.7990  221.1254 H   0  0  0  0  0  0  0  0  0  0  0  0
  1  2  1  0
  2  3  1  0
  3  4  2  0
  3  5  1  0
  5  6  1  0
  6  7  2  0
  7  8  1  0
  8  9  2  0
  9 10  1  0
 10 11  2  0
  5 12  1  0
 12 13  1  0
 13 14  1  0
 14 15  1  0
 15 16  1  0
 16 17  2  0
 16 18  1  0
 18 19  1  0
 18 20  1  0
 20 21  1  0
 21 22  2  0
 22 23  1  0
 23 24  2  0
 24 25  1  0
 25 26  2  0
 26 27  1  0
 27 28  1  0
 28 29  2  0
 29 30  1  0
 30 31  2  0
 31 32  1  0
 32 33  2  0
 15 34  1  0
 34 35  1  0
 11  6  1  0
 35 12  1  0
 27 20  1  0
 33 28  1  0
 26 21  1  0
  1 36  1  0
  1 37  1  0
  1 38  1  0
  2 39  1  0
  2 40  1  0
  7 41  1  0
  8 42  1  0
  9 43  1  0
 10 44  1  0
 11 45  1  0
 12 46  1  0
 13 47  1  0
 13 48  1  0
 14 49  1  0
 14 50  1  0
 18 51  1  6
 19 52  1  0
 19 53  1  0
 20 54  1  1
 22 55  1  0
 23 56  1  0
 24 57  1  0
 25 58  1  0
 27 59  1  6
 29 60  1  0
 30 61  1  0
 31 62  1  0
 32 63  1  0
 33 64  1  0
 34 65  1  0
 34 66  1  0
 35 67  1  0
 35 68  1  0
M  END
>  <smiles>  (66) 
CCC(=O)N(c1ccccc1)C1CCN(C(=O)[C@@H](N)C2c3ccccc3C2c2ccccc2)CC1

>  <score_type>  (66) 
oracle

>  <origin>  (66) 
autodockgpu

>  <m_score__min__energy>  (66) 
-9.7300000000000004

>  <m_primary>  (66) 
energy

>  <rmsd>  (66) 
7.921159171865198

>  <m_score__min__rmsd>  (66) 
7.921159171865198

>  <meeko>  (66) 
{"free_energy": -8.22, "intermolecular_energy": -10.6, "internal_energy": -2.41, "cluster_size": 2, "cluster_id": 5, "rank_in_cluster": 1}

>  <energy>  (66) 
-9.03

>  <cluster_rmsd>  (66) 
0.94

>  <cluster>  (66) 
2

$$$$

     RDKit          3D

 68 72  0  0  0  0  0  0  0  0999 V2000
  136.2860   68.9540  223.0640 C   0  0  0  0  0  0  0  0  0  0  0  0
  136.9930   69.6330  224.2140 C   0  0  0  0  0  0  0  0  0  0  0  0
  138.4460   69.6360  223.9190 C   0  0  0  0  0  0  0  0  0  0  0  0
  138.9290   68.5700  223.4110 O   0  0  0  0  0  0  0  0  0  0  0  0
  139.2880   70.7540  224.1750 N   0  0  0  0  0  0  0  0  0  0  0  0
  139.8970   70.8310  225.4470 C   0  0  0  0  0  0  0  0  0  0  0  0
  140.7010   71.8800  225.8470 C   0  0  0  0  0  0  0  0  0  0  0  0
  141.2890   71.9340  227.1040 C   0  0  0  0  0  0  0  0  0  0  0  0
  141.0300   70.8740  227.9520 C   0  0  0  0  0  0  0  0  0  0  0  0
  140.2250   69.8040  227.5770 C   0  0  0  0  0  0  0  0  0  0  0  0
  139.6440   69.7650  226.3170 C   0  0  0  0  0  0  0  0  0  0  0  0
  139.4760   71.7490  223.1670 C   0  0  0  0  0  0  0  0  0  0  0  0
  140.9390   71.9490  222.8160 C   0  0  0  0  0  0  0  0  0  0  0  0
  140.9820   72.7790  221.5500 C   0  0  0  0  0  0  0  0  0  0  0  0
  139.7480   73.5390  221.5020 N   0  0  0  0  0  0  0  0  0  0  0  0
  139.6950   74.9290  221.7850 C   0  0  0  0  0  0  0  0  0  0  0  0
  140.7500   75.5180  222.0990 O   0  0  0  0  0  0  0  0  0  0  0  0
  138.4270   75.6940  221.7170 C   0  0  1  0  0  0  0  0  0  0  0  0
  137.8680   75.7290  223.0780 N   0  0  0  0  0  0  0  0  0  0  0  0
  138.8110   77.1400  221.4160 C   0  0  1  0  0  0  0  0  0  0  0  0
  137.6750   78.0380  221.2140 C   0  0  0  0  0  0  0  0  0  0  0  0
  136.5960   78.3910  220.4070 C   0  0  0  0  0  0  0  0  0  0  0  0
  135.7790   79.4600  220.7660 C   0  0  0  0  0  0  0  0  0  0  0  0
  136.0700   80.1470  221.9270 C   0  0  0  0  0  0  0  0  0  0  0  0
  137.1500   79.8010  222.7440 C   0  0  0  0  0  0  0  0  0  0  0  0
  137.9380   78.7250  222.3450 C   0  0  0  0  0  0  0  0  0  0  0  0
  139.0930   77.8860  222.6580 C   0  0  2  0  0  0  0  0  0  0  0  0
  140.3820   78.6270  222.7510 C   0  0  0  0  0  0  0  0  0  0  0  0
  141.0000   78.9220  221.5340 C   0  0  0  0  0  0  0  0  0  0  0  0
  142.1930   79.6000  221.4720 C   0  0  0  0  0  0  0  0  0  0  0  0
  142.8180   80.0120  222.6530 C   0  0  0  0  0  0  0  0  0  0  0  0
  142.1970   79.7140  223.8490 C   0  0  0  0  0  0  0  0  0  0  0  0
  140.9810   79.0220  223.8970 C   0  0  0  0  0  0  0  0  0  0  0  0
  138.5460   72.7680  221.1520 C   0  0  0  0  0  0  0  0  0  0  0  0
  138.7320   71.4340  221.8930 C   0  0  0  0  0  0  0  0  0  0  0  0
  135.5452   68.2425  223.4577 H   0  0  0  0  0  0  0  0  0  0  0  0
  135.7769   69.7104  222.4486 H   0  0  0  0  0  0  0  0  0  0  0  0
  137.0212   68.4148  222.4486 H   0  0  0  0  0  0  0  0  0  0  0  0
  136.6307   70.6665  224.3174 H   0  0  0  0  0  0  0  0  0  0  0  0
  136.7945   69.0984  225.1546 H   0  0  0  0  0  0  0  0  0  0  0  0
  140.8828   72.7050  225.1425 H   0  0  0  0  0  0  0  0  0  0  0  0
  141.9274   72.7764  227.4087 H   0  0  0  0  0  0  0  0  0  0  0  0
  141.4757   70.8768  228.9576 H   0  0  0  0  0  0  0  0  0  0  0  0
  140.0471   68.9812  228.2851 H   0  0  0  0  0  0  0  0  0  0  0  0
  139.0051   68.9230  226.0123 H   0  0  0  0  0  0  0  0  0  0  0  0
  139.0714   72.6716  223.6087 H   0  0  0  0  0  0  0  0  0  0  0  0
  141.4542   72.4774  223.6317 H   0  0  0  0  0  0  0  0  0  0  0  0
  141.4426   70.9823  222.6685 H   0  0  0  0  0  0  0  0  0  0  0  0
  141.8452   73.4604  221.5737 H   0  0  0  0  0  0  0  0  0  0  0  0
  141.0840   72.1376  220.6622 H   0  0  0  0  0  0  0  0  0  0  0  0
  137.7345   75.2604  220.9805 H   0  0  0  0  0  0  0  0  0  0  0  0
  137.3270   74.8340  223.2690 H   0  0  0  0  0  0  0  0  0  0  0  0
  138.6620   75.6870  223.7830 H   0  0  0  0  0  0  0  0  0  0  0  0
  139.5529   76.9876  220.6183 H   0  0  0  0  0  0  0  0  0  0  0  0
  136.3893   77.8255  219.4864 H   0  0  0  0  0  0  0  0  0  0  0  0
  134.9226   79.7498  220.1395 H   0  0  0  0  0  0  0  0  0  0  0  0
  135.4316   80.9940  222.2187 H   0  0  0  0  0  0  0  0  0  0  0  0
  137.3689   80.3577  223.6671 H   0  0  0  0  0  0  0  0  0  0  0  0
  139.2041   77.3441  223.6088 H   0  0  0  0  0  0  0  0  0  0  0  0
  140.5178   78.6023  220.5984 H   0  0  0  0  0  0  0  0  0  0  0  0
  142.6546   79.8179  220.4976 H   0  0  0  0  0  0  0  0  0  0  0  0
  143.7737   80.5561  222.6296 H   0  0  0  0  0  0  0  0  0  0  0  0
  142.6706   80.0289  224.7905 H   0  0  0  0  0  0  0  0  0  0  0  0
  140.5128   78.7996  224.8672 H   0  0  0  0  0  0  0  0  0  0  0  0
  137.6370   73.2831  221.4960 H   0  0  0  0  0  0  0  0  0  0  0  0
  138.4281   72.6367  220.0662 H   0  0  0  0  0  0  0  0  0  0  0  0
  137.7532   70.9891  222.1252 H   0  0  0  0  0  0  0  0  0  0  0  0
  139.2881   70.7120  221.2769 H   0  0  0  0  0  0  0  0  0  0  0  0
  1  2  1  0
  2  3  1  0
  3  4  2  0
  3  5  1  0
  5  6  1  0
  6  7  2  0
  7  8  1  0
  8  9  2  0
  9 10  1  0
 10 11  2  0
  5 12  1  0
 12 13  1  0
 13 14  1  0
 14 15  1  0
 15 16  1  0
 16 17  2  0
 16 18  1  0
 18 19  1  0
 18 20  1  0
 20 21  1  0
 21 22  2  0
 22 23  1  0
 23 24  2  0
 24 25  1  0
 25 26  2  0
 26 27  1  0
 27 28  1  0
 28 29  2  0
 29 30  1  0
 30 31  2  0
 31 32  1  0
 32 33  2  0
 15 34  1  0
 34 35  1  0
 11  6  1  0
 35 12  1  0
 27 20  1  0
 33 28  1  0
 26 21  1  0
  1 36  1  0
  1 37  1  0
  1 38  1  0
  2 39  1  0
  2 40  1  0
  7 41  1  0
  8 42  1  0
  9 43  1  0
 10 44  1  0
 11 45  1  0
 12 46  1  0
 13 47  1  0
 13 48  1  0
 14 49  1  0
 14 50  1  0
 18 51  1  6
 19 52  1  0
 19 53  1  0
 20 54  1  6
 22 55  1  0
 23 56  1  0
 24 57  1  0
 25 58  1  0
 27 59  1  1
 29 60  1  0
 30 61  1  0
 31 62  1  0
 32 63  1  0
 33 64  1  0
 34 65  1  0
 34 66  1  0
 35 67  1  0
 35 68  1  0
M  END
>  <smiles>  (67) 
CCC(=O)N(c1ccccc1)C1CCN(C(=O)[C@@H](N)C2c3ccccc3C2c2ccccc2)CC1

>  <score_type>  (67) 
oracle

>  <origin>  (67) 
autodockgpu

>  <m_score__min__energy>  (67) 
-9.7300000000000004

>  <m_primary>  (67) 
energy

>  <rmsd>  (67) 
8.824126592641072

>  <m_score__min__rmsd>  (67) 
8.824126592641072

>  <meeko>  (67) 
{"free_energy": -8.69, "intermolecular_energy": -11.07, "internal_energy": -2.4, "cluster_size": 7, "cluster_id": 4, "rank_in_cluster": 1}

>  <energy>  (67) 
-9.0

>  <cluster_rmsd>  (67) 
0.94

>  <cluster>  (67) 
2

$$$$

     RDKit          3D

 68 72  0  0  0  0  0  0  0  0999 V2000
  136.9380   68.5590  222.3650 C   0  0  0  0  0  0  0  0  0  0  0  0
  137.9200   68.6320  223.5110 C   0  0  0  0  0  0  0  0  0  0  0  0
  137.8600   70.0020  224.0760 C   0  0  0  0  0  0  0  0  0  0  0  0
  136.7350   70.3780  224.5460 O   0  0  0  0  0  0  0  0  0  0  0  0
  138.9810   70.8780  224.1100 N   0  0  0  0  0  0  0  0  0  0  0  0
  139.7160   70.9470  225.3140 C   0  0  0  0  0  0  0  0  0  0  0  0
  140.6900   71.8940  225.5620 C   0  0  0  0  0  0  0  0  0  0  0  0
  141.3990   71.9430  226.7550 C   0  0  0  0  0  0  0  0  0  0  0  0
  141.0830   70.9860  227.7000 C   0  0  0  0  0  0  0  0  0  0  0  0
  140.1070   70.0190  227.4790 C   0  0  0  0  0  0  0  0  0  0  0  0
  139.4070   69.9840  226.2810 C   0  0  0  0  0  0  0  0  0  0  0  0
  139.3130   71.6540  222.9570 C   0  0  0  0  0  0  0  0  0  0  0  0
  140.4290   71.0290  222.1400 C   0  0  0  0  0  0  0  0  0  0  0  0
  140.4720   71.7610  220.8140 C   0  0  0  0  0  0  0  0  0  0  0  0
  139.9090   73.0780  221.0420 N   0  0  0  0  0  0  0  0  0  0  0  0
  140.7090   74.2490  221.1160 C   0  0  0  0  0  0  0  0  0  0  0  0
  141.9460   74.1380  220.9920 O   0  0  0  0  0  0  0  0  0  0  0  0
  140.1150   75.5890  221.3340 C   0  0  1  0  0  0  0  0  0  0  0  0
  139.6120   75.6200  222.7170 N   0  0  0  0  0  0  0  0  0  0  0  0
  141.2750   76.5810  221.3190 C   0  0  1  0  0  0  0  0  0  0  0  0
  141.9330   76.7220  220.0210 C   0  0  0  0  0  0  0  0  0  0  0  0
  142.7240   76.1230  219.0420 C   0  0  0  0  0  0  0  0  0  0  0  0
  143.0690   76.8340  217.8950 C   0  0  0  0  0  0  0  0  0  0  0  0
  142.6110   78.1290  217.7640 C   0  0  0  0  0  0  0  0  0  0  0  0
  141.8170   78.7390  218.7390 C   0  0  0  0  0  0  0  0  0  0  0  0
  141.4960   77.9890  219.8680 C   0  0  0  0  0  0  0  0  0  0  0  0
  140.7900   77.9650  221.1460 C   0  0  2  0  0  0  0  0  0  0  0  0
  141.2500   78.9940  222.1220 C   0  0  0  0  0  0  0  0  0  0  0  0
  140.2410   79.7140  222.7640 C   0  0  0  0  0  0  0  0  0  0  0  0
  140.5230   80.6920  223.6850 C   0  0  0  0  0  0  0  0  0  0  0  0
  141.8530   80.9860  223.9990 C   0  0  0  0  0  0  0  0  0  0  0  0
  142.8400   80.2670  223.3580 C   0  0  0  0  0  0  0  0  0  0  0  0
  142.5380   79.2730  222.4200 C   0  0  0  0  0  0  0  0  0  0  0  0
  138.4480   73.1190  221.2050 C   0  0  0  0  0  0  0  0  0  0  0  0
  138.1330   71.8690  222.0410 C   0  0  0  0  0  0  0  0  0  0  0  0
  135.9153   68.4830  222.7628 H   0  0  0  0  0  0  0  0  0  0  0  0
  137.0253   69.4661  221.7490 H   0  0  0  0  0  0  0  0  0  0  0  0
  137.1585   67.6748  221.7490 H   0  0  0  0  0  0  0  0  0  0  0  0
  137.6486   67.8970  224.2831 H   0  0  0  0  0  0  0  0  0  0  0  0
  138.9375   68.4070  223.1587 H   0  0  0  0  0  0  0  0  0  0  0  0
  140.9130   72.6389  224.7839 H   0  0  0  0  0  0  0  0  0  0  0  0
  142.1719   72.7040  226.9381 H   0  0  0  0  0  0  0  0  0  0  0  0
  141.6210   70.9885  228.6594 H   0  0  0  0  0  0  0  0  0  0  0  0
  139.8884   69.2761  228.2603 H   0  0  0  0  0  0  0  0  0  0  0  0
  138.6338   69.2234  226.0976 H   0  0  0  0  0  0  0  0  0  0  0  0
  139.6453   72.6220  223.3601 H   0  0  0  0  0  0  0  0  0  0  0  0
  141.3894   71.1412  222.6645 H   0  0  0  0  0  0  0  0  0  0  0  0
  140.2499   69.9542  221.9890 H   0  0  0  0  0  0  0  0  0  0  0  0
  141.5111   71.8491  220.4640 H   0  0  0  0  0  0  0  0  0  0  0  0
  139.9035   71.2172  220.0452 H   0  0  0  0  0  0  0  0  0  0  0  0
  139.3360   75.8109  220.5897 H   0  0  0  0  0  0  0  0  0  0  0  0
  138.6000   75.9460  222.7250 H   0  0  0  0  0  0  0  0  0  0  0  0
  139.5490   74.6270  223.0890 H   0  0  0  0  0  0  0  0  0  0  0  0
  141.8399   76.2414  222.1996 H   0  0  0  0  0  0  0  0  0  0  0  0
  143.0756   75.0893  219.1752 H   0  0  0  0  0  0  0  0  0  0  0  0
  143.6912   76.3745  217.1129 H   0  0  0  0  0  0  0  0  0  0  0  0
  142.8796   78.6998  216.8629 H   0  0  0  0  0  0  0  0  0  0  0  0
  141.4591   79.7722  218.6194 H   0  0  0  0  0  0  0  0  0  0  0  0
  139.7170   78.1859  221.2451 H   0  0  0  0  0  0  0  0  0  0  0  0
  139.1906   79.4914  222.5252 H   0  0  0  0  0  0  0  0  0  0  0  0
  139.7056   81.2422  224.1740 H   0  0  0  0  0  0  0  0  0  0  0  0
  142.1042   81.7654  224.7334 H   0  0  0  0  0  0  0  0  0  0  0  0
  143.8937   80.4806  223.5904 H   0  0  0  0  0  0  0  0  0  0  0  0
  143.3494   78.7189  221.9254 H   0  0  0  0  0  0  0  0  0  0  0  0
  138.1390   74.0321  221.7349 H   0  0  0  0  0  0  0  0  0  0  0  0
  137.9145   73.1310  220.2431 H   0  0  0  0  0  0  0  0  0  0  0  0
  137.2184   72.0277  222.6312 H   0  0  0  0  0  0  0  0  0  0  0  0
  137.9660   70.9930  221.3971 H   0  0  0  0  0  0  0  0  0  0  0  0
  1  2  1  0
  2  3  1  0
  3  4  2  0
  3  5  1  0
  5  6  1  0
  6  7  2  0
  7  8  1  0
  8  9  2  0
  9 10  1  0
 10 11  2  0
  5 12  1  0
 12 13  1  0
 13 14  1  0
 14 15  1  0
 15 16  1  0
 16 17  2  0
 16 18  1  0
 18 19  1  0
 18 20  1  0
 20 21  1  0
 21 22  2  0
 22 23  1  0
 23 24  2  0
 24 25  1  0
 25 26  2  0
 26 27  1  0
 27 28  1  0
 28 29  2  0
 29 30  1  0
 30 31  2  0
 31 32  1  0
 32 33  2  0
 15 34  1  0
 34 35  1  0
 11  6  1  0
 35 12  1  0
 27 20  1  0
 33 28  1  0
 26 21  1  0
  1 36  1  0
  1 37  1  0
  1 38  1  0
  2 39  1  0
  2 40  1  0
  7 41  1  0
  8 42  1  0
  9 43  1  0
 10 44  1  0
 11 45  1  0
 12 46  1  0
 13 47  1  0
 13 48  1  0
 14 49  1  0
 14 50  1  0
 18 51  1  6
 19 52  1  0
 19 53  1  0
 20 54  1  1
 22 55  1  0
 23 56  1  0
 24 57  1  0
 25 58  1  0
 27 59  1  6
 29 60  1  0
 30 61  1  0
 31 62  1  0
 32 63  1  0
 33 64  1  0
 34 65  1  0
 34 66  1  0
 35 67  1  0
 35 68  1  0
M  END
>  <smiles>  (68) 
CCC(=O)N(c1ccccc1)C1CCN(C(=O)[C@@H](N)C2c3ccccc3C2c2ccccc2)CC1

>  <score_type>  (68) 
oracle

>  <origin>  (68) 
autodockgpu

>  <m_score__min__energy>  (68) 
-9.7300000000000004

>  <m_primary>  (68) 
energy

>  <rmsd>  (68) 
8.822202324519596

>  <m_score__min__rmsd>  (68) 
8.822202324519596

>  <meeko>  (68) 
{"free_energy": -9.33, "intermolecular_energy": -11.72, "internal_energy": -2.23, "cluster_size": 17, "cluster_id": 2, "rank_in_cluster": 6}

>  <energy>  (68) 
-8.19

>  <cluster_rmsd>  (68) 
1.34

>  <cluster>  (68) 
2

$$$$

     RDKit          3D

 68 72  0  0  0  0  0  0  0  0999 V2000
  136.7220   68.9300  223.1790 C   0  0  0  0  0  0  0  0  0  0  0  0
  137.2060   68.9930  224.6090 C   0  0  0  0  0  0  0  0  0  0  0  0
  138.6860   68.9050  224.5940 C   0  0  0  0  0  0  0  0  0  0  0  0
  139.1890   67.7320  224.5960 O   0  0  0  0  0  0  0  0  0  0  0  0
  139.5320   70.0490  224.5770 N   0  0  0  0  0  0  0  0  0  0  0  0
  140.0710   70.4760  225.8110 C   0  0  0  0  0  0  0  0  0  0  0  0
  140.8450   71.6110  225.9540 C   0  0  0  0  0  0  0  0  0  0  0  0
  141.3640   72.0120  227.1780 C   0  0  0  0  0  0  0  0  0  0  0  0
  141.0660   71.2130  228.2660 C   0  0  0  0  0  0  0  0  0  0  0  0
  140.2890   70.0650  228.1520 C   0  0  0  0  0  0  0  0  0  0  0  0
  139.7780   69.6780  226.9220 C   0  0  0  0  0  0  0  0  0  0  0  0
  139.7930   70.7230  223.3450 C   0  0  0  0  0  0  0  0  0  0  0  0
  139.6830   69.8000  222.1450 C   0  0  0  0  0  0  0  0  0  0  0  0
  139.6720   70.6770  220.9100 C   0  0  0  0  0  0  0  0  0  0  0  0
  140.3490   71.9110  221.2630 N   0  0  0  0  0  0  0  0  0  0  0  0
  141.6650   72.2130  220.8250 C   0  0  0  0  0  0  0  0  0  0  0  0
  142.2670   71.3800  220.1180 O   0  0  0  0  0  0  0  0  0  0  0  0
  142.3360   73.4850  221.1840 C   0  0  1  0  0  0  0  0  0  0  0  0
  143.7370   73.3750  220.7470 N   0  0  0  0  0  0  0  0  0  0  0  0
  141.7300   74.5600  220.2860 C   0  0  1  0  0  0  0  0  0  0  0  0
  140.9320   75.5600  220.9930 C   0  0  0  0  0  0  0  0  0  0  0  0
  139.7730   75.8270  221.7190 C   0  0  0  0  0  0  0  0  0  0  0  0
  139.5230   77.1180  222.1800 C   0  0  0  0  0  0  0  0  0  0  0  0
  140.4460   78.1050  221.8980 C   0  0  0  0  0  0  0  0  0  0  0  0
  141.6120   77.8470  221.1720 C   0  0  0  0  0  0  0  0  0  0  0  0
  141.8190   76.5420  220.7320 C   0  0  0  0  0  0  0  0  0  0  0  0
  142.7050   75.6340  220.0080 C   0  0  2  0  0  0  0  0  0  0  0  0
  142.9420   76.0110  218.5860 C   0  0  0  0  0  0  0  0  0  0  0  0
  143.4590   75.0020  217.7700 C   0  0  0  0  0  0  0  0  0  0  0  0
  143.7270   75.2120  216.4400 C   0  0  0  0  0  0  0  0  0  0  0  0
  143.4800   76.4660  215.8730 C   0  0  0  0  0  0  0  0  0  0  0  0
  142.9700   77.4540  216.6900 C   0  0  0  0  0  0  0  0  0  0  0  0
  142.7020   77.2260  218.0450 C   0  0  0  0  0  0  0  0  0  0  0  0
  139.5820   72.8260  222.1220 C   0  0  0  0  0  0  0  0  0  0  0  0
  138.8710   71.8940  223.1160 C   0  0  0  0  0  0  0  0  0  0  0  0
  135.6313   68.7880  223.1670 H   0  0  0  0  0  0  0  0  0  0  0  0
  136.9753   69.8687  222.6645 H   0  0  0  0  0  0  0  0  0  0  0  0
  137.2071   68.0874  222.6645 H   0  0  0  0  0  0  0  0  0  0  0  0
  136.8928   69.9423  225.0680 H   0  0  0  0  0  0  0  0  0  0  0  0
  136.7791   68.1655  225.1946 H   0  0  0  0  0  0  0  0  0  0  0  0
  141.0586   72.2209  225.0638 H   0  0  0  0  0  0  0  0  0  0  0  0
  141.9800   72.9180  227.2766 H   0  0  0  0  0  0  0  0  0  0  0  0
  141.4564   71.4945  229.2551 H   0  0  0  0  0  0  0  0  0  0  0  0
  140.0779   69.4587  229.0452 H   0  0  0  0  0  0  0  0  0  0  0  0
  139.1618   68.7722  226.8232 H   0  0  0  0  0  0  0  0  0  0  0  0
  140.8273   71.0851  223.4404 H   0  0  0  0  0  0  0  0  0  0  0  0
  140.5439   69.1159  222.1147 H   0  0  0  0  0  0  0  0  0  0  0  0
  138.7689   69.1907  222.2014 H   0  0  0  0  0  0  0  0  0  0  0  0
  140.2024   70.1769  220.0862 H   0  0  0  0  0  0  0  0  0  0  0  0
  138.6425   70.8743  220.5765 H   0  0  0  0  0  0  0  0  0  0  0  0
  142.2387   73.7026  222.2579 H   0  0  0  0  0  0  0  0  0  0  0  0
  144.2430   72.6500  221.3370 H   0  0  0  0  0  0  0  0  0  0  0  0
  143.7660   72.9550  219.7710 H   0  0  0  0  0  0  0  0  0  0  0  0
  141.2771   73.9338  219.5031 H   0  0  0  0  0  0  0  0  0  0  0  0
  139.0560   75.0194  221.9280 H   0  0  0  0  0  0  0  0  0  0  0  0
  138.6127   77.3450  222.7544 H   0  0  0  0  0  0  0  0  0  0  0  0
  140.2576   79.1278  222.2564 H   0  0  0  0  0  0  0  0  0  0  0  0
  142.3385   78.6443  220.9563 H   0  0  0  0  0  0  0  0  0  0  0  0
  143.7648   75.4929  220.2667 H   0  0  0  0  0  0  0  0  0  0  0  0
  143.6569   74.0114  218.2053 H   0  0  0  0  0  0  0  0  0  0  0  0
  144.1343   74.3973  215.8232 H   0  0  0  0  0  0  0  0  0  0  0  0
  143.6857   76.6587  214.8097 H   0  0  0  0  0  0  0  0  0  0  0  0
  142.7684   78.4483  216.2649 H   0  0  0  0  0  0  0  0  0  0  0  0
  142.2961   78.0357  218.6693 H   0  0  0  0  0  0  0  0  0  0  0  0
  140.2518   73.5216  222.6487 H   0  0  0  0  0  0  0  0  0  0  0  0
  138.8799   73.4527  221.5526 H   0  0  0  0  0  0  0  0  0  0  0  0
  138.6845   72.4210  224.0634 H   0  0  0  0  0  0  0  0  0  0  0  0
  137.8990   71.5620  222.7223 H   0  0  0  0  0  0  0  0  0  0  0  0
  1  2  1  0
  2  3  1  0
  3  4  2  0
  3  5  1  0
  5  6  1  0
  6  7  2  0
  7  8  1  0
  8  9  2  0
  9 10  1  0
 10 11  2  0
  5 12  1  0
 12 13  1  0
 13 14  1  0
 14 15  1  0
 15 16  1  0
 16 17  2  0
 16 18  1  0
 18 19  1  0
 18 20  1  0
 20 21  1  0
 21 22  2  0
 22 23  1  0
 23 24  2  0
 24 25  1  0
 25 26  2  0
 26 27  1  0
 27 28  1  0
 28 29  2  0
 29 30  1  0
 30 31  2  0
 31 32  1  0
 32 33  2  0
 15 34  1  0
 34 35  1  0
 11  6  1  0
 35 12  1  0
 27 20  1  0
 33 28  1  0
 26 21  1  0
  1 36  1  0
  1 37  1  0
  1 38  1  0
  2 39  1  0
  2 40  1  0
  7 41  1  0
  8 42  1  0
  9 43  1  0
 10 44  1  0
 11 45  1  0
 12 46  1  0
 13 47  1  0
 13 48  1  0
 14 49  1  0
 14 50  1  0
 18 51  1  1
 19 52  1  0
 19 53  1  0
 20 54  1  6
 22 55  1  0
 23 56  1  0
 24 57  1  0
 25 58  1  0
 27 59  1  1
 29 60  1  0
 30 61  1  0
 31 62  1  0
 32 63  1  0
 33 64  1  0
 34 65  1  0
 34 66  1  0
 35 67  1  0
 35 68  1  0
M  END
>  <smiles>  (69) 
CCC(=O)N(c1ccccc1)C1CCN(C(=O)[C@@H](N)C2c3ccccc3C2c2ccccc2)CC1

>  <score_type>  (69) 
oracle

>  <origin>  (69) 
autodockgpu

>  <m_score__min__energy>  (69) 
-9.7300000000000004

>  <m_primary>  (69) 
energy

>  <rmsd>  (69) 
7.316063100416299

>  <m_score__min__rmsd>  (69) 
7.316063100416299

>  <meeko>  (69) 
{"free_energy": -7.74, "intermolecular_energy": -10.13, "internal_energy": -3.1, "cluster_size": 1, "cluster_id": 9, "rank_in_cluster": 1}

>  <energy>  (69) 
-8.0

>  <cluster_rmsd>  (69) 
1.48

>  <cluster>  (69) 
2

$$$$

     RDKit          3D

 68 72  0  0  0  0  0  0  0  0999 V2000
  139.2060   71.1390  221.4290 C   0  0  0  0  0  0  0  0  0  0  0  0
  140.0610   72.1030  220.6390 C   0  0  0  0  0  0  0  0  0  0  0  0
  140.8510   72.9070  221.6030 C   0  0  0  0  0  0  0  0  0  0  0  0
  140.6940   72.6340  222.8390 O   0  0  0  0  0  0  0  0  0  0  0  0
  141.7480   73.9370  221.2030 N   0  0  0  0  0  0  0  0  0  0  0  0
  143.0550   73.5520  220.8320 C   0  0  0  0  0  0  0  0  0  0  0  0
  144.1340   74.4150  220.8280 C   0  0  0  0  0  0  0  0  0  0  0  0
  145.4110   74.0130  220.4600 C   0  0  0  0  0  0  0  0  0  0  0  0
  145.5590   72.6890  220.0920 C   0  0  0  0  0  0  0  0  0  0  0  0
  144.4920   71.7970  220.0850 C   0  0  0  0  0  0  0  0  0  0  0  0
  143.2210   72.2140  220.4560 C   0  0  0  0  0  0  0  0  0  0  0  0
  141.3140   75.2980  221.2020 C   0  0  0  0  0  0  0  0  0  0  0  0
  141.2630   75.8890  219.8060 C   0  0  0  0  0  0  0  0  0  0  0  0
  140.5090   77.1990  219.9060 C   0  0  0  0  0  0  0  0  0  0  0  0
  140.6560   77.6680  221.2700 N   0  0  0  0  0  0  0  0  0  0  0  0
  141.5160   78.7410  221.6210 C   0  0  0  0  0  0  0  0  0  0  0  0
  142.1800   79.2960  220.7220 O   0  0  0  0  0  0  0  0  0  0  0  0
  141.6440   79.2160  223.0190 C   0  0  1  0  0  0  0  0  0  0  0  0
  142.9850   79.8080  223.1560 N   0  0  0  0  0  0  0  0  0  0  0  0
  140.6820   80.3920  223.1640 C   0  0  1  0  0  0  0  0  0  0  0  0
  140.7850   81.3930  222.1020 C   0  0  0  0  0  0  0  0  0  0  0  0
  141.5590   82.3860  221.5060 C   0  0  0  0  0  0  0  0  0  0  0  0
  141.0700   83.0790  220.4010 C   0  0  0  0  0  0  0  0  0  0  0  0
  139.8160   82.7540  219.9250 C   0  0  0  0  0  0  0  0  0  0  0  0
  139.0320   81.7580  220.5150 C   0  0  0  0  0  0  0  0  0  0  0  0
  139.5620   81.0930  221.6170 C   0  0  0  0  0  0  0  0  0  0  0  0
  139.3480   80.0590  222.6270 C   0  0  2  0  0  0  0  0  0  0  0  0
  138.1640   80.2920  223.5020 C   0  0  0  0  0  0  0  0  0  0  0  0
  138.3760   81.1320  224.5970 C   0  0  0  0  0  0  0  0  0  0  0  0
  137.3740   81.4320  225.4850 C   0  0  0  0  0  0  0  0  0  0  0  0
  136.0990   80.8880  225.3010 C   0  0  0  0  0  0  0  0  0  0  0  0
  135.9020   80.0590  224.2160 C   0  0  0  0  0  0  0  0  0  0  0  0
  136.9340   79.7620  223.3180 C   0  0  0  0  0  0  0  0  0  0  0  0
  139.8620   76.9430  222.2740 C   0  0  0  0  0  0  0  0  0  0  0  0
  139.9530   75.4750  221.8310 C   0  0  0  0  0  0  0  0  0  0  0  0
  139.3583   71.3107  222.5048 H   0  0  0  0  0  0  0  0  0  0  0  0
  138.1468   71.2983  221.1786 H   0  0  0  0  0  0  0  0  0  0  0  0
  139.4907   70.1064  221.1786 H   0  0  0  0  0  0  0  0  0  0  0  0
  140.7375   71.5449  219.9751 H   0  0  0  0  0  0  0  0  0  0  0  0
  139.4291   72.7579  220.0211 H   0  0  0  0  0  0  0  0  0  0  0  0
  143.9751   75.4613  221.1281 H   0  0  0  0  0  0  0  0  0  0  0  0
  146.2606   74.7118  220.4613 H   0  0  0  0  0  0  0  0  0  0  0  0
  146.5547   72.3285  219.7945 H   0  0  0  0  0  0  0  0  0  0  0  0
  144.6566   70.7522  219.7829 H   0  0  0  0  0  0  0  0  0  0  0  0
  142.3714   71.5153  220.4545 H   0  0  0  0  0  0  0  0  0  0  0  0
  142.0670   75.8298  221.8020 H   0  0  0  0  0  0  0  0  0  0  0  0
  142.2827   76.0676  219.4341 H   0  0  0  0  0  0  0  0  0  0  0  0
  140.7640   75.2016  219.1071 H   0  0  0  0  0  0  0  0  0  0  0  0
  140.9332   77.9337  219.2058 H   0  0  0  0  0  0  0  0  0  0  0  0
  139.4481   77.0626  219.6493 H   0  0  0  0  0  0  0  0  0  0  0  0
  141.4591   78.4045  223.7382 H   0  0  0  0  0  0  0  0  0  0  0  0
  143.6090   79.4750  222.3630 H   0  0  0  0  0  0  0  0  0  0  0  0
  142.9230   80.8560  222.9910 H   0  0  0  0  0  0  0  0  0  0  0  0
  140.8619   80.6683  224.2134 H   0  0  0  0  0  0  0  0  0  0  0  0
  142.5554   82.6227  221.9075 H   0  0  0  0  0  0  0  0  0  0  0  0
  141.6688   83.8662  219.9195 H   0  0  0  0  0  0  0  0  0  0  0  0
  139.4206   83.2961  219.0533 H   0  0  0  0  0  0  0  0  0  0  0  0
  138.0346   81.5094  220.1233 H   0  0  0  0  0  0  0  0  0  0  0  0
  139.1030   79.0158  222.3784 H   0  0  0  0  0  0  0  0  0  0  0  0
  139.3749   81.5657  224.7522 H   0  0  0  0  0  0  0  0  0  0  0  0
  137.5728   82.0975  226.3380 H   0  0  0  0  0  0  0  0  0  0  0  0
  135.2794   81.1138  225.9990 H   0  0  0  0  0  0  0  0  0  0  0  0
  134.9070   79.6195  224.0521 H   0  0  0  0  0  0  0  0  0  0  0  0
  136.7441   79.0972  222.4624 H   0  0  0  0  0  0  0  0  0  0  0  0
  140.2884   77.0751  223.2794 H   0  0  0  0  0  0  0  0  0  0  0  0
  138.8245   77.3035  222.3339 H   0  0  0  0  0  0  0  0  0  0  0  0
  139.8470   74.8090  222.7000 H   0  0  0  0  0  0  0  0  0  0  0  0
  139.1518   75.2247  221.1201 H   0  0  0  0  0  0  0  0  0  0  0  0
  1  2  1  0
  2  3  1  0
  3  4  2  0
  3  5  1  0
  5  6  1  0
  6  7  2  0
  7  8  1  0
  8  9  2  0
  9 10  1  0
 10 11  2  0
  5 12  1  0
 12 13  1  0
 13 14  1  0
 14 15  1  0
 15 16  1  0
 16 17  2  0
 16 18  1  0
 18 19  1  0
 18 20  1  0
 20 21  1  0
 21 22  2  0
 22 23  1  0
 23 24  2  0
 24 25  1  0
 25 26  2  0
 26 27  1  0
 27 28  1  0
 28 29  2  0
 29 30  1  0
 30 31  2  0
 31 32  1  0
 32 33  2  0
 15 34  1  0
 34 35  1  0
 11  6  1  0
 35 12  1  0
 27 20  1  0
 33 28  1  0
 26 21  1  0
  1 36  1  0
  1 37  1  0
  1 38  1  0
  2 39  1  0
  2 40  1  0
  7 41  1  0
  8 42  1  0
  9 43  1  0
 10 44  1  0
 11 45  1  0
 12 46  1  0
 13 47  1  0
 13 48  1  0
 14 49  1  0
 14 50  1  0
 18 51  1  1
 19 52  1  0
 19 53  1  0
 20 54  1  1
 22 55  1  0
 23 56  1  0
 24 57  1  0
 25 58  1  0
 27 59  1  6
 29 60  1  0
 30 61  1  0
 31 62  1  0
 32 63  1  0
 33 64  1  0
 34 65  1  0
 34 66  1  0
 35 67  1  0
 35 68  1  0
M  END
>  <smiles>  (70) 
CCC(=O)N(c1ccccc1)C1CCN(C(=O)[C@@H](N)C2c3ccccc3C2c2ccccc2)CC1

>  <score_type>  (70) 
oracle

>  <origin>  (70) 
autodockgpu

>  <m_score__min__energy>  (70) 
-9.7300000000000004

>  <m_primary>  (70) 
energy

>  <rmsd>  (70) 
11.044488948929798

>  <m_score__min__rmsd>  (70) 
11.044488948929798

>  <meeko>  (70) 
{"free_energy": -7.8, "intermolecular_energy": -10.19, "internal_energy": -3.2, "cluster_size": 11, "cluster_id": 7, "rank_in_cluster": 4}

>  <energy>  (70) 
-9.18

>  <cluster_rmsd>  (70) 
0.0

>  <cluster>  (70) 
3

$$$$

     RDKit          3D

 68 72  0  0  0  0  0  0  0  0999 V2000
  138.3410   67.9420  222.4770 C   0  0  0  0  0  0  0  0  0  0  0  0
  138.8210   68.2500  223.8770 C   0  0  0  0  0  0  0  0  0  0  0  0
  138.3470   69.6090  224.2320 C   0  0  0  0  0  0  0  0  0  0  0  0
  137.0880   69.7560  224.3800 O   0  0  0  0  0  0  0  0  0  0  0  0
  139.2240   70.7160  224.4080 N   0  0  0  0  0  0  0  0  0  0  0  0
  139.8470   70.8570  225.6680 C   0  0  0  0  0  0  0  0  0  0  0  0
  140.7170   71.8840  225.9790 C   0  0  0  0  0  0  0  0  0  0  0  0
  141.3180   72.0030  227.2260 C   0  0  0  0  0  0  0  0  0  0  0  0
  141.0010   71.0320  228.1580 C   0  0  0  0  0  0  0  0  0  0  0  0
  140.1290   69.9870  227.8730 C   0  0  0  0  0  0  0  0  0  0  0  0
  139.5370   69.8820  226.6220 C   0  0  0  0  0  0  0  0  0  0  0  0
  139.4330   71.6360  223.3350 C   0  0  0  0  0  0  0  0  0  0  0  0
  140.8870   71.7050  222.9050 C   0  0  0  0  0  0  0  0  0  0  0  0
  140.9250   72.4580  221.5910 C   0  0  0  0  0  0  0  0  0  0  0  0
  139.7490   73.3060  221.5560 N   0  0  0  0  0  0  0  0  0  0  0  0
  139.8120   74.7090  221.7590 C   0  0  0  0  0  0  0  0  0  0  0  0
  140.9210   75.2330  221.9880 O   0  0  0  0  0  0  0  0  0  0  0  0
  138.6010   75.5620  221.7060 C   0  0  1  0  0  0  0  0  0  0  0  0
  138.1420   75.7520  223.0910 N   0  0  0  0  0  0  0  0  0  0  0  0
  139.0670   76.9440  221.2570 C   0  0  1  0  0  0  0  0  0  0  0  0
  138.0090   77.7930  220.7110 C   0  0  0  0  0  0  0  0  0  0  0  0
  137.1020   78.0070  219.6750 C   0  0  0  0  0  0  0  0  0  0  0  0
  136.2590   79.1150  219.7060 C   0  0  0  0  0  0  0  0  0  0  0  0
  136.3500   79.9790  220.7790 C   0  0  0  0  0  0  0  0  0  0  0  0
  137.2560   79.7730  221.8230 C   0  0  0  0  0  0  0  0  0  0  0  0
  138.0780   78.6520  221.7490 C   0  0  0  0  0  0  0  0  0  0  0  0
  139.1360   77.8800  222.3970 C   0  0  2  0  0  0  0  0  0  0  0  0
  140.4040   78.6340  222.6070 C   0  0  0  0  0  0  0  0  0  0  0  0
  141.0290   79.1030  221.4490 C   0  0  0  0  0  0  0  0  0  0  0  0
  142.2040   79.8120  221.4960 C   0  0  0  0  0  0  0  0  0  0  0  0
  142.8030   80.0790  222.7300 C   0  0  0  0  0  0  0  0  0  0  0  0
  142.1760   79.6100  223.8670 C   0  0  0  0  0  0  0  0  0  0  0  0
  140.9790   78.8880  223.8040 C   0  0  0  0  0  0  0  0  0  0  0  0
  138.4780   72.6090  221.3090 C   0  0  0  0  0  0  0  0  0  0  0  0
  138.6040   71.3080  222.1180 C   0  0  0  0  0  0  0  0  0  0  0  0
  137.4162   67.3486  222.5287 H   0  0  0  0  0  0  0  0  0  0  0  0
  138.1437   68.8826  221.9418 H   0  0  0  0  0  0  0  0  0  0  0  0
  139.1138   67.3707  221.9418 H   0  0  0  0  0  0  0  0  0  0  0  0
  138.4096   67.5142  224.5836 H   0  0  0  0  0  0  0  0  0  0  0  0
  139.9189   68.2022  223.9251 H   0  0  0  0  0  0  0  0  0  0  0  0
  140.9427   72.6369  225.2094 H   0  0  0  0  0  0  0  0  0  0  0  0
  142.0094   72.8261  227.4595 H   0  0  0  0  0  0  0  0  0  0  0  0
  141.4540   71.0881  229.1588 H   0  0  0  0  0  0  0  0  0  0  0  0
  139.9063   69.2367  228.6460 H   0  0  0  0  0  0  0  0  0  0  0  0
  138.8462   69.0585  226.3882 H   0  0  0  0  0  0  0  0  0  0  0  0
  139.1201   72.6098  223.7397 H   0  0  0  0  0  0  0  0  0  0  0  0
  141.4802   72.2376  223.6629 H   0  0  0  0  0  0  0  0  0  0  0  0
  141.3112   70.6964  222.7919 H   0  0  0  0  0  0  0  0  0  0  0  0
  141.8358   73.0721  221.5334 H   0  0  0  0  0  0  0  0  0  0  0  0
  140.9336   71.7622  220.7391 H   0  0  0  0  0  0  0  0  0  0  0  0
  137.8291   75.1246  221.0557 H   0  0  0  0  0  0  0  0  0  0  0  0
  137.4980   74.9540  223.3700 H   0  0  0  0  0  0  0  0  0  0  0  0
  138.9670   75.6380  223.7510 H   0  0  0  0  0  0  0  0  0  0  0  0
  139.9376   76.6703  220.6429 H   0  0  0  0  0  0  0  0  0  0  0  0
  137.0519   77.3010  218.8330 H   0  0  0  0  0  0  0  0  0  0  0  0
  135.5382   79.2974  218.8953 H   0  0  0  0  0  0  0  0  0  0  0  0
  135.6885   80.8572  220.8133 H   0  0  0  0  0  0  0  0  0  0  0  0
  137.3172   80.4705  222.6714 H   0  0  0  0  0  0  0  0  0  0  0  0
  139.0593   77.4968  223.4252 H   0  0  0  0  0  0  0  0  0  0  0  0
  140.5668   78.8986  220.4720 H   0  0  0  0  0  0  0  0  0  0  0  0
  142.6717   80.1683  220.5663 H   0  0  0  0  0  0  0  0  0  0  0  0
  143.7441   80.6449  222.7934 H   0  0  0  0  0  0  0  0  0  0  0  0
  142.6297   79.8093  224.8491 H   0  0  0  0  0  0  0  0  0  0  0  0
  140.5056   78.5269  224.7289 H   0  0  0  0  0  0  0  0  0  0  0  0
  137.6274   73.2094  221.6640 H   0  0  0  0  0  0  0  0  0  0  0  0
  138.2960   72.4266  220.2396 H   0  0  0  0  0  0  0  0  0  0  0  0
  137.6085   70.9519  222.4216 H   0  0  0  0  0  0  0  0  0  0  0  0
  139.0739   70.5131  221.5203 H   0  0  0  0  0  0  0  0  0  0  0  0
  1  2  1  0
  2  3  1  0
  3  4  2  0
  3  5  1  0
  5  6  1  0
  6  7  2  0
  7  8  1  0
  8  9  2  0
  9 10  1  0
 10 11  2  0
  5 12  1  0
 12 13  1  0
 13 14  1  0
 14 15  1  0
 15 16  1  0
 16 17  2  0
 16 18  1  0
 18 19  1  0
 18 20  1  0
 20 21  1  0
 21 22  2  0
 22 23  1  0
 23 24  2  0
 24 25  1  0
 25 26  2  0
 26 27  1  0
 27 28  1  0
 28 29  2  0
 29 30  1  0
 30 31  2  0
 31 32  1  0
 32 33  2  0
 15 34  1  0
 34 35  1  0
 11  6  1  0
 35 12  1  0
 27 20  1  0
 33 28  1  0
 26 21  1  0
  1 36  1  0
  1 37  1  0
  1 38  1  0
  2 39  1  0
  2 40  1  0
  7 41  1  0
  8 42  1  0
  9 43  1  0
 10 44  1  0
 11 45  1  0
 12 46  1  0
 13 47  1  0
 13 48  1  0
 14 49  1  0
 14 50  1  0
 18 51  1  6
 19 52  1  0
 19 53  1  0
 20 54  1  6
 22 55  1  0
 23 56  1  0
 24 57  1  0
 25 58  1  0
 27 59  1  1
 29 60  1  0
 30 61  1  0
 31 62  1  0
 32 63  1  0
 33 64  1  0
 34 65  1  0
 34 66  1  0
 35 67  1  0
 35 68  1  0
M  END
>  <smiles>  (71) 
CCC(=O)N(c1ccccc1)C1CCN(C(=O)[C@@H](N)C2c3ccccc3C2c2ccccc2)CC1

>  <score_type>  (71) 
oracle

>  <origin>  (71) 
autodockgpu

>  <m_score__min__energy>  (71) 
-9.7300000000000004

>  <m_primary>  (71) 
energy

>  <rmsd>  (71) 
8.907024948086216

>  <m_score__min__rmsd>  (71) 
8.907024948086216

>  <meeko>  (71) 
{"free_energy": -8.63, "intermolecular_energy": -11.02, "internal_energy": -2.44, "cluster_size": 7, "cluster_id": 4, "rank_in_cluster": 5}

>  <energy>  (71) 
-8.69

>  <cluster_rmsd>  (71) 
0.0

>  <cluster>  (71) 
4

$$$$

     RDKit          3D

 68 72  0  0  0  0  0  0  0  0999 V2000
  131.0990   75.4930  226.4580 C   0  0  0  0  0  0  0  0  0  0  0  0
  131.9270   75.0250  225.2840 C   0  0  0  0  0  0  0  0  0  0  0  0
  133.3040   74.7650  225.7710 C   0  0  0  0  0  0  0  0  0  0  0  0
  133.6060   75.2440  226.9140 O   0  0  0  0  0  0  0  0  0  0  0  0
  134.2630   74.0220  225.0280 N   0  0  0  0  0  0  0  0  0  0  0  0
  134.4060   72.6520  225.3390 C   0  0  0  0  0  0  0  0  0  0  0  0
  135.0780   71.7520  224.5350 C   0  0  0  0  0  0  0  0  0  0  0  0
  135.2070   70.4080  224.8620 C   0  0  0  0  0  0  0  0  0  0  0  0
  134.6250   70.0040  226.0490 C   0  0  0  0  0  0  0  0  0  0  0  0
  133.9420   70.8870  226.8780 C   0  0  0  0  0  0  0  0  0  0  0  0
  133.8220   72.2260  226.5370 C   0  0  0  0  0  0  0  0  0  0  0  0
  135.0430   74.6720  224.0230 C   0  0  0  0  0  0  0  0  0  0  0  0
  134.5260   74.4010  222.6220 C   0  0  0  0  0  0  0  0  0  0  0  0
  135.2270   75.3720  221.6950 C   0  0  0  0  0  0  0  0  0  0  0  0
  136.4800   75.7320  222.3310 N   0  0  0  0  0  0  0  0  0  0  0  0
  137.7320   75.2260  221.8940 C   0  0  0  0  0  0  0  0  0  0  0  0
  137.7550   74.4310  220.9320 O   0  0  0  0  0  0  0  0  0  0  0  0
  139.0040   75.6160  222.5460 C   0  0  1  0  0  0  0  0  0  0  0  0
  139.9550   74.5110  222.3400 N   0  0  0  0  0  0  0  0  0  0  0  0
  139.5700   76.7750  221.7300 C   0  0  1  0  0  0  0  0  0  0  0  0
  139.6470   78.0440  222.4530 C   0  0  0  0  0  0  0  0  0  0  0  0
  138.9480   79.0930  223.0450 C   0  0  0  0  0  0  0  0  0  0  0  0
  139.6430   80.1440  223.6390 C   0  0  0  0  0  0  0  0  0  0  0  0
  141.0230   80.1100  223.6220 C   0  0  0  0  0  0  0  0  0  0  0  0
  141.7330   79.0610  223.0310 C   0  0  0  0  0  0  0  0  0  0  0  0
  140.9960   78.0340  222.4500 C   0  0  0  0  0  0  0  0  0  0  0  0
  141.0460   76.7600  221.7350 C   0  0  2  0  0  0  0  0  0  0  0  0
  141.7510   76.8200  220.4230 C   0  0  0  0  0  0  0  0  0  0  0  0
  141.6270   78.0230  219.7240 C   0  0  0  0  0  0  0  0  0  0  0  0
  142.2230   78.2160  218.5020 C   0  0  0  0  0  0  0  0  0  0  0  0
  142.9790   77.1880  217.9300 C   0  0  0  0  0  0  0  0  0  0  0  0
  143.0930   76.0050  218.6320 C   0  0  0  0  0  0  0  0  0  0  0  0
  142.4790   75.8220  219.8760 C   0  0  0  0  0  0  0  0  0  0  0  0
  136.3650   76.6500  223.4730 C   0  0  0  0  0  0  0  0  0  0  0  0
  135.1070   76.1670  224.2130 C   0  0  0  0  0  0  0  0  0  0  0  0
  131.5996   75.2101  227.3957 H   0  0  0  0  0  0  0  0  0  0  0  0
  130.9892   76.5867  226.4165 H   0  0  0  0  0  0  0  0  0  0  0  0
  130.1054   75.0229  226.4165 H   0  0  0  0  0  0  0  0  0  0  0  0
  131.4973   74.1018  224.8681 H   0  0  0  0  0  0  0  0  0  0  0  0
  131.9384   75.7905  224.4942 H   0  0  0  0  0  0  0  0  0  0  0  0
  135.5287   72.1137  223.5990 H   0  0  0  0  0  0  0  0  0  0  0  0
  135.7439   69.7025  224.2108 H   0  0  0  0  0  0  0  0  0  0  0  0
  134.7049   68.9484  226.3478 H   0  0  0  0  0  0  0  0  0  0  0  0
  133.4928   70.5202  227.8127 H   0  0  0  0  0  0  0  0  0  0  0  0
  133.2845   72.9311  227.1881 H   0  0  0  0  0  0  0  0  0  0  0  0
  136.0506   74.2452  224.1348 H   0  0  0  0  0  0  0  0  0  0  0  0
  134.7555   73.3660  222.3284 H   0  0  0  0  0  0  0  0  0  0  0  0
  133.4348   74.5316  222.5745 H   0  0  0  0  0  0  0  0  0  0  0  0
  135.4197   74.8947  220.7229 H   0  0  0  0  0  0  0  0  0  0  0  0
  134.6066   76.2624  221.5154 H   0  0  0  0  0  0  0  0  0  0  0  0
  138.8532   75.8584  223.6083 H   0  0  0  0  0  0  0  0  0  0  0  0
  139.6800   73.6820  222.9450 H   0  0  0  0  0  0  0  0  0  0  0  0
  139.8460   74.1370  221.3520 H   0  0  0  0  0  0  0  0  0  0  0  0
  138.9657   76.6880  220.8150 H   0  0  0  0  0  0  0  0  0  0  0  0
  137.8480   79.0916  223.0435 H   0  0  0  0  0  0  0  0  0  0  0  0
  139.1056   80.9803  224.1100 H   0  0  0  0  0  0  0  0  0  0  0  0
  141.5817   80.9348  224.0884 H   0  0  0  0  0  0  0  0  0  0  0  0
  142.8329   79.0480  223.0255 H   0  0  0  0  0  0  0  0  0  0  0  0
  141.5832   75.8775  222.1126 H   0  0  0  0  0  0  0  0  0  0  0  0
  141.0352   78.8388  220.1648 H   0  0  0  0  0  0  0  0  0  0  0  0
  142.1063   79.1748  217.9755 H   0  0  0  0  0  0  0  0  0  0  0  0
  143.4668   77.3179  216.9527 H   0  0  0  0  0  0  0  0  0  0  0  0
  143.6833   75.1828  218.2013 H   0  0  0  0  0  0  0  0  0  0  0  0
  142.5891   74.8658  220.4084 H   0  0  0  0  0  0  0  0  0  0  0  0
  137.2509   76.5805  224.1213 H   0  0  0  0  0  0  0  0  0  0  0  0
  136.2963   77.7035  223.1642 H   0  0  0  0  0  0  0  0  0  0  0  0
  135.1790   76.4109  225.2832 H   0  0  0  0  0  0  0  0  0  0  0  0
  134.2033   76.6560  223.8203 H   0  0  0  0  0  0  0  0  0  0  0  0
  1  2  1  0
  2  3  1  0
  3  4  2  0
  3  5  1  0
  5  6  1  0
  6  7  2  0
  7  8  1  0
  8  9  2  0
  9 10  1  0
 10 11  2  0
  5 12  1  0
 12 13  1  0
 13 14  1  0
 14 15  1  0
 15 16  1  0
 16 17  2  0
 16 18  1  0
 18 19  1  0
 18 20  1  0
 20 21  1  0
 21 22  2  0
 22 23  1  0
 23 24  2  0
 24 25  1  0
 25 26  2  0
 26 27  1  0
 27 28  1  0
 28 29  2  0
 29 30  1  0
 30 31  2  0
 31 32  1  0
 32 33  2  0
 15 34  1  0
 34 35  1  0
 11  6  1  0
 35 12  1  0
 27 20  1  0
 33 28  1  0
 26 21  1  0
  1 36  1  0
  1 37  1  0
  1 38  1  0
  2 39  1  0
  2 40  1  0
  7 41  1  0
  8 42  1  0
  9 43  1  0
 10 44  1  0
 11 45  1  0
 12 46  1  0
 13 47  1  0
 13 48  1  0
 14 49  1  0
 14 50  1  0
 18 51  1  1
 19 52  1  0
 19 53  1  0
 20 54  1  6
 22 55  1  0
 23 56  1  0
 24 57  1  0
 25 58  1  0
 27 59  1  1
 29 60  1  0
 30 61  1  0
 31 62  1  0
 32 63  1  0
 33 64  1  0
 34 65  1  0
 34 66  1  0
 35 67  1  0
 35 68  1  0
M  END
>  <smiles>  (72) 
CCC(=O)N(c1ccccc1)C1CCN(C(=O)[C@@H](N)C2c3ccccc3C2c2ccccc2)CC1

>  <score_type>  (72) 
oracle

>  <origin>  (72) 
autodockgpu

>  <m_score__min__energy>  (72) 
-9.7300000000000004

>  <m_primary>  (72) 
energy

>  <rmsd>  (72) 
7.968756700809817

>  <m_score__min__rmsd>  (72) 
7.968756700809817

>  <meeko>  (72) 
{"free_energy": -7.94, "intermolecular_energy": -10.33, "internal_energy": -3.04, "cluster_size": 6, "cluster_id": 6, "rank_in_cluster": 2}

>  <energy>  (72) 
-8.66

>  <cluster_rmsd>  (72) 
0.25

>  <cluster>  (72) 
4

$$$$

     RDKit          3D

 68 72  0  0  0  0  0  0  0  0999 V2000
  138.0380   67.8700  222.3480 C   0  0  0  0  0  0  0  0  0  0  0  0
  138.8300   68.2090  223.5900 C   0  0  0  0  0  0  0  0  0  0  0  0
  138.3990   69.5500  224.0550 C   0  0  0  0  0  0  0  0  0  0  0  0
  137.1530   69.7040  224.2790 O   0  0  0  0  0  0  0  0  0  0  0  0
  139.3030   70.6310  224.2520 N   0  0  0  0  0  0  0  0  0  0  0  0
  139.9190   70.7390  225.5180 C   0  0  0  0  0  0  0  0  0  0  0  0
  140.5950   71.8660  225.9450 C   0  0  0  0  0  0  0  0  0  0  0  0
  141.1930   71.9500  227.1960 C   0  0  0  0  0  0  0  0  0  0  0  0
  141.0800   70.8380  228.0090 C   0  0  0  0  0  0  0  0  0  0  0  0
  140.4050   69.6900  227.6070 C   0  0  0  0  0  0  0  0  0  0  0  0
  139.8130   69.6220  226.3540 C   0  0  0  0  0  0  0  0  0  0  0  0
  139.5430   71.5600  223.1930 C   0  0  0  0  0  0  0  0  0  0  0  0
  141.0230   71.7560  222.9200 C   0  0  0  0  0  0  0  0  0  0  0  0
  141.1360   72.5010  221.6060 C   0  0  0  0  0  0  0  0  0  0  0  0
  139.9000   73.2400  221.4320 N   0  0  0  0  0  0  0  0  0  0  0  0
  139.8170   74.6440  221.6180 C   0  0  0  0  0  0  0  0  0  0  0  0
  140.8450   75.2660  221.9560 O   0  0  0  0  0  0  0  0  0  0  0  0
  138.5490   75.3850  221.4230 C   0  0  1  0  0  0  0  0  0  0  0  0
  137.8640   75.4250  222.7250 N   0  0  0  0  0  0  0  0  0  0  0  0
  138.9350   76.8340  221.1410 C   0  0  1  0  0  0  0  0  0  0  0  0
  137.8680   77.6420  220.5520 C   0  0  0  0  0  0  0  0  0  0  0  0
  137.0580   77.8760  219.4440 C   0  0  0  0  0  0  0  0  0  0  0  0
  136.1220   78.9070  219.4710 C   0  0  0  0  0  0  0  0  0  0  0  0
  136.0260   79.6760  220.6140 C   0  0  0  0  0  0  0  0  0  0  0  0
  136.8340   79.4490  221.7310 C   0  0  0  0  0  0  0  0  0  0  0  0
  137.7540   78.4070  221.6580 C   0  0  0  0  0  0  0  0  0  0  0  0
  138.8040   77.6670  222.3540 C   0  0  2  0  0  0  0  0  0  0  0  0
  139.9730   78.4960  222.7620 C   0  0  0  0  0  0  0  0  0  0  0  0
  139.6680   79.7510  223.2940 C   0  0  0  0  0  0  0  0  0  0  0  0
  140.6480   80.6190  223.7100 C   0  0  0  0  0  0  0  0  0  0  0  0
  141.9920   80.2490  223.6050 C   0  0  0  0  0  0  0  0  0  0  0  0
  142.2790   79.0070  223.0770 C   0  0  0  0  0  0  0  0  0  0  0  0
  141.2700   78.1330  222.6560 C   0  0  0  0  0  0  0  0  0  0  0  0
  138.7300   72.4300  221.0620 C   0  0  0  0  0  0  0  0  0  0  0  0
  138.8830   71.1510  221.9000 C   0  0  0  0  0  0  0  0  0  0  0  0
  137.0625   67.4525  222.6378 H   0  0  0  0  0  0  0  0  0  0  0  0
  137.8842   68.7811  221.7512 H   0  0  0  0  0  0  0  0  0  0  0  0
  138.5910   67.1297  221.7512 H   0  0  0  0  0  0  0  0  0  0  0  0
  138.6348   67.4615  224.3731 H   0  0  0  0  0  0  0  0  0  0  0  0
  139.9075   68.2087  223.3687 H   0  0  0  0  0  0  0  0  0  0  0  0
  140.6622   72.7303  225.2679 H   0  0  0  0  0  0  0  0  0  0  0  0
  141.7282   72.8539  227.5224 H   0  0  0  0  0  0  0  0  0  0  0  0
  141.5396   70.8616  229.0081 H   0  0  0  0  0  0  0  0  0  0  0  0
  140.3400   68.8288  228.2883 H   0  0  0  0  0  0  0  0  0  0  0  0
  139.2771   68.7183  226.0281 H   0  0  0  0  0  0  0  0  0  0  0  0
  139.1025   72.5041  223.5459 H   0  0  0  0  0  0  0  0  0  0  0  0
  141.4816   72.3443  223.7285 H   0  0  0  0  0  0  0  0  0  0  0  0
  141.5443   70.7887  222.8690 H   0  0  0  0  0  0  0  0  0  0  0  0
  141.9898   73.1939  221.6364 H   0  0  0  0  0  0  0  0  0  0  0  0
  141.2982   71.8035  220.7710 H   0  0  0  0  0  0  0  0  0  0  0  0
  137.9359   74.9308  220.6307 H   0  0  0  0  0  0  0  0  0  0  0  0
  137.5080   74.4550  222.9750 H   0  0  0  0  0  0  0  0  0  0  0  0
  138.5760   75.6260  223.4880 H   0  0  0  0  0  0  0  0  0  0  0  0
  139.8848   76.6861  220.6063 H   0  0  0  0  0  0  0  0  0  0  0  0
  137.1573   77.2466  218.5473 H   0  0  0  0  0  0  0  0  0  0  0  0
  135.4752   79.1039  218.6033 H   0  0  0  0  0  0  0  0  0  0  0  0
  135.2902   80.4930  220.6460 H   0  0  0  0  0  0  0  0  0  0  0  0
  136.7464   80.0705  222.6344 H   0  0  0  0  0  0  0  0  0  0  0  0
  138.6561   77.1894  223.3338 H   0  0  0  0  0  0  0  0  0  0  0  0
  138.6138   80.0526  223.3823 H   0  0  0  0  0  0  0  0  0  0  0  0
  140.3763   81.6012  224.1241 H   0  0  0  0  0  0  0  0  0  0  0  0
  142.7947   80.9260  223.9327 H   0  0  0  0  0  0  0  0  0  0  0  0
  143.3298   78.6951  222.9843 H   0  0  0  0  0  0  0  0  0  0  0  0
  141.5333   77.1499  222.2386 H   0  0  0  0  0  0  0  0  0  0  0  0
  137.7962   72.9536  221.3147 H   0  0  0  0  0  0  0  0  0  0  0  0
  138.6812   72.2253  219.9823 H   0  0  0  0  0  0  0  0  0  0  0  0
  137.8962   70.7084  222.1009 H   0  0  0  0  0  0  0  0  0  0  0  0
  139.4835   70.3979  221.3687 H   0  0  0  0  0  0  0  0  0  0  0  0
  1  2  1  0
  2  3  1  0
  3  4  2  0
  3  5  1  0
  5  6  1  0
  6  7  2  0
  7  8  1  0
  8  9  2  0
  9 10  1  0
 10 11  2  0
  5 12  1  0
 12 13  1  0
 13 14  1  0
 14 15  1  0
 15 16  1  0
 16 17  2  0
 16 18  1  0
 18 19  1  0
 18 20  1  0
 20 21  1  0
 21 22  2  0
 22 23  1  0
 23 24  2  0
 24 25  1  0
 25 26  2  0
 26 27  1  0
 27 28  1  0
 28 29  2  0
 29 30  1  0
 30 31  2  0
 31 32  1  0
 32 33  2  0
 15 34  1  0
 34 35  1  0
 11  6  1  0
 35 12  1  0
 27 20  1  0
 33 28  1  0
 26 21  1  0
  1 36  1  0
  1 37  1  0
  1 38  1  0
  2 39  1  0
  2 40  1  0
  7 41  1  0
  8 42  1  0
  9 43  1  0
 10 44  1  0
 11 45  1  0
 12 46  1  0
 13 47  1  0
 13 48  1  0
 14 49  1  0
 14 50  1  0
 18 51  1  6
 19 52  1  0
 19 53  1  0
 20 54  1  6
 22 55  1  0
 23 56  1  0
 24 57  1  0
 25 58  1  0
 27 59  1  1
 29 60  1  0
 30 61  1  0
 31 62  1  0
 32 63  1  0
 33 64  1  0
 34 65  1  0
 34 66  1  0
 35 67  1  0
 35 68  1  0
M  END
>  <smiles>  (73) 
CCC(=O)N(c1ccccc1)C1CCN(C(=O)[C@@H](N)C2c3ccccc3C2c2ccccc2)CC1

>  <score_type>  (73) 
oracle

>  <origin>  (73) 
autodockgpu

>  <m_score__min__energy>  (73) 
-9.7300000000000004

>  <m_primary>  (73) 
energy

>  <rmsd>  (73) 
8.875894983409399

>  <m_score__min__rmsd>  (73) 
8.875894983409399

>  <meeko>  (73) 
{"free_energy": -8.65, "intermolecular_energy": -11.04, "internal_energy": -2.3, "cluster_size": 7, "cluster_id": 4, "rank_in_cluster": 3}

>  <energy>  (73) 
-8.65

>  <cluster_rmsd>  (73) 
0.85

>  <cluster>  (73) 
4

$$$$

     RDKit          3D

 68 72  0  0  0  0  0  0  0  0999 V2000
  138.4990   68.4290  222.0920 C   0  0  0  0  0  0  0  0  0  0  0  0
  138.0950   68.5420  223.5430 C   0  0  0  0  0  0  0  0  0  0  0  0
  137.9580   69.9830  223.8680 C   0  0  0  0  0  0  0  0  0  0  0  0
  136.7730   70.4180  224.0500 O   0  0  0  0  0  0  0  0  0  0  0  0
  139.0710   70.8630  223.9780 N   0  0  0  0  0  0  0  0  0  0  0  0
  139.7510   70.8980  225.2150 C   0  0  0  0  0  0  0  0  0  0  0  0
  139.4850   70.0320  226.2590 C   0  0  0  0  0  0  0  0  0  0  0  0
  140.1680   70.0850  227.4670 C   0  0  0  0  0  0  0  0  0  0  0  0
  141.1430   71.0580  227.5820 C   0  0  0  0  0  0  0  0  0  0  0  0
  141.4340   71.9420  226.5480 C   0  0  0  0  0  0  0  0  0  0  0  0
  140.7420   71.8770  225.3470 C   0  0  0  0  0  0  0  0  0  0  0  0
  139.4490   71.6750  222.8650 C   0  0  0  0  0  0  0  0  0  0  0  0
  140.6610   71.1290  222.1340 C   0  0  0  0  0  0  0  0  0  0  0  0
  140.7680   71.8840  220.8260 C   0  0  0  0  0  0  0  0  0  0  0  0
  140.1130   73.1640  221.0230 N   0  0  0  0  0  0  0  0  0  0  0  0
  140.8360   74.3760  221.1760 C   0  0  0  0  0  0  0  0  0  0  0  0
  142.0830   74.3380  221.1510 O   0  0  0  0  0  0  0  0  0  0  0  0
  140.1510   75.6770  221.3620 C   0  0  1  0  0  0  0  0  0  0  0  0
  139.6050   75.6880  222.7290 N   0  0  0  0  0  0  0  0  0  0  0  0
  141.2430   76.7420  221.3700 C   0  0  1  0  0  0  0  0  0  0  0  0
  141.9240   76.9190  220.0870 C   0  0  0  0  0  0  0  0  0  0  0  0
  142.7760   76.3690  219.1330 C   0  0  0  0  0  0  0  0  0  0  0  0
  143.1040   77.0960  217.9910 C   0  0  0  0  0  0  0  0  0  0  0  0
  142.5650   78.3580  217.8400 C   0  0  0  0  0  0  0  0  0  0  0  0
  141.7090   78.9190  218.7910 C   0  0  0  0  0  0  0  0  0  0  0  0
  141.4100   78.1550  219.9160 C   0  0  0  0  0  0  0  0  0  0  0  0
  140.6740   78.0910  221.1760 C   0  0  2  0  0  0  0  0  0  0  0  0
  141.0420   79.1520  222.1560 C   0  0  0  0  0  0  0  0  0  0  0  0
  142.4110   79.3540  222.3450 C   0  0  0  0  0  0  0  0  0  0  0  0
  142.8910   80.2980  223.2180 C   0  0  0  0  0  0  0  0  0  0  0  0
  141.9950   81.0870  223.9470 C   0  0  0  0  0  0  0  0  0  0  0  0
  140.6450   80.8770  223.7510 C   0  0  0  0  0  0  0  0  0  0  0  0
  140.1700   79.9100  222.8580 C   0  0  0  0  0  0  0  0  0  0  0  0
  138.6450   73.1190  221.0680 C   0  0  0  0  0  0  0  0  0  0  0  0
  138.3360   71.8390  221.8600 C   0  0  0  0  0  0  0  0  0  0  0  0
  139.5565   68.1332  222.0278 H   0  0  0  0  0  0  0  0  0  0  0  0
  137.8754   67.6708  221.5957 H   0  0  0  0  0  0  0  0  0  0  0  0
  138.3593   69.4007  221.5957 H   0  0  0  0  0  0  0  0  0  0  0  0
  137.1351   68.0296  223.7046 H   0  0  0  0  0  0  0  0  0  0  0  0
  138.8526   68.0742  224.1889 H   0  0  0  0  0  0  0  0  0  0  0  0
  138.7016   69.2710  226.1278 H   0  0  0  0  0  0  0  0  0  0  0  0
  139.9448   69.3892  228.2892 H   0  0  0  0  0  0  0  0  0  0  0  0
  141.7078   71.1359  228.5227 H   0  0  0  0  0  0  0  0  0  0  0  0
  142.2200   72.6995  226.6837 H   0  0  0  0  0  0  0  0  0  0  0  0
  140.9654   72.5729  224.5249 H   0  0  0  0  0  0  0  0  0  0  0  0
  139.6919   72.6533  223.3055 H   0  0  0  0  0  0  0  0  0  0  0  0
  141.5679   71.2868  222.7363 H   0  0  0  0  0  0  0  0  0  0  0  0
  140.5573   70.0485  221.9556 H   0  0  0  0  0  0  0  0  0  0  0  0
  141.8251   72.0366  220.5628 H   0  0  0  0  0  0  0  0  0  0  0  0
  140.2953   71.3218  220.0072 H   0  0  0  0  0  0  0  0  0  0  0  0
  139.3824   75.8409  220.5923 H   0  0  0  0  0  0  0  0  0  0  0  0
  138.5830   75.9770  222.7070 H   0  0  0  0  0  0  0  0  0  0  0  0
  139.5670   74.6920  223.0980 H   0  0  0  0  0  0  0  0  0  0  0  0
  141.8058   76.4444  222.2671 H   0  0  0  0  0  0  0  0  0  0  0  0
  143.1900   75.3607  219.2811 H   0  0  0  0  0  0  0  0  0  0  0  0
  143.7758   76.6750  217.2284 H   0  0  0  0  0  0  0  0  0  0  0  0
  142.8177   78.9407  216.9419 H   0  0  0  0  0  0  0  0  0  0  0  0
  141.2873   79.9260  218.6561 H   0  0  0  0  0  0  0  0  0  0  0  0
  139.5867   78.2420  221.2466 H   0  0  0  0  0  0  0  0  0  0  0  0
  143.1250   78.7388  221.7778 H   0  0  0  0  0  0  0  0  0  0  0  0
  143.9753   80.4335  223.3439 H   0  0  0  0  0  0  0  0  0  0  0  0
  142.3545   81.8498  224.6533 H   0  0  0  0  0  0  0  0  0  0  0  0
  139.9221   81.4870  224.3126 H   0  0  0  0  0  0  0  0  0  0  0  0
  139.0873   79.7666  222.7272 H   0  0  0  0  0  0  0  0  0  0  0  0
  138.2424   74.0039  221.5826 H   0  0  0  0  0  0  0  0  0  0  0  0
  138.1908   73.1168  220.0662 H   0  0  0  0  0  0  0  0  0  0  0  0
  137.3696   71.9361  222.3764 H   0  0  0  0  0  0  0  0  0  0  0  0
  138.2712   70.9661  221.1938 H   0  0  0  0  0  0  0  0  0  0  0  0
  1  2  1  0
  2  3  1  0
  3  4  2  0
  3  5  1  0
  5  6  1  0
  6  7  2  0
  7  8  1  0
  8  9  2  0
  9 10  1  0
 10 11  2  0
  5 12  1  0
 12 13  1  0
 13 14  1  0
 14 15  1  0
 15 16  1  0
 16 17  2  0
 16 18  1  0
 18 19  1  0
 18 20  1  0
 20 21  1  0
 21 22  2  0
 22 23  1  0
 23 24  2  0
 24 25  1  0
 25 26  2  0
 26 27  1  0
 27 28  1  0
 28 29  2  0
 29 30  1  0
 30 31  2  0
 31 32  1  0
 32 33  2  0
 15 34  1  0
 34 35  1  0
 11  6  1  0
 35 12  1  0
 27 20  1  0
 33 28  1  0
 26 21  1  0
  1 36  1  0
  1 37  1  0
  1 38  1  0
  2 39  1  0
  2 40  1  0
  7 41  1  0
  8 42  1  0
  9 43  1  0
 10 44  1  0
 11 45  1  0
 12 46  1  0
 13 47  1  0
 13 48  1  0
 14 49  1  0
 14 50  1  0
 18 51  1  6
 19 52  1  0
 19 53  1  0
 20 54  1  1
 22 55  1  0
 23 56  1  0
 24 57  1  0
 25 58  1  0
 27 59  1  6
 29 60  1  0
 30 61  1  0
 31 62  1  0
 32 63  1  0
 33 64  1  0
 34 65  1  0
 34 66  1  0
 35 67  1  0
 35 68  1  0
M  END
>  <smiles>  (74) 
CCC(=O)N(c1ccccc1)C1CCN(C(=O)[C@@H](N)C2c3ccccc3C2c2ccccc2)CC1

>  <score_type>  (74) 
oracle

>  <origin>  (74) 
autodockgpu

>  <m_score__min__energy>  (74) 
-9.7300000000000004

>  <m_primary>  (74) 
energy

>  <rmsd>  (74) 
8.906931593704986

>  <m_score__min__rmsd>  (74) 
8.906931593704986

>  <meeko>  (74) 
{"free_energy": -9.33, "intermolecular_energy": -11.72, "internal_energy": -2.3, "cluster_size": 17, "cluster_id": 2, "rank_in_cluster": 7}

>  <energy>  (74) 
-8.64

>  <cluster_rmsd>  (74) 
0.58

>  <cluster>  (74) 
4

$$$$

     RDKit          3D

 68 72  0  0  0  0  0  0  0  0999 V2000
  135.4740   69.2640  224.9420 C   0  0  0  0  0  0  0  0  0  0  0  0
  136.7080   69.3420  224.0730 C   0  0  0  0  0  0  0  0  0  0  0  0
  137.2460   70.7210  224.1670 C   0  0  0  0  0  0  0  0  0  0  0  0
  136.3950   71.6560  224.3440 O   0  0  0  0  0  0  0  0  0  0  0  0
  138.6330   71.0220  224.0690 N   0  0  0  0  0  0  0  0  0  0  0  0
  139.4680   70.5860  225.1220 C   0  0  0  0  0  0  0  0  0  0  0  0
  140.2450   71.4370  225.8830 C   0  0  0  0  0  0  0  0  0  0  0  0
  141.0580   70.9850  226.9150 C   0  0  0  0  0  0  0  0  0  0  0  0
  141.0550   69.6230  227.1500 C   0  0  0  0  0  0  0  0  0  0  0  0
  140.2840   68.7420  226.4000 C   0  0  0  0  0  0  0  0  0  0  0  0
  139.4760   69.2100  225.3730 C   0  0  0  0  0  0  0  0  0  0  0  0
  139.1260   71.7510  222.9430 C   0  0  0  0  0  0  0  0  0  0  0  0
  140.3270   71.0820  222.3000 C   0  0  0  0  0  0  0  0  0  0  0  0
  140.5540   71.7640  220.9680 C   0  0  0  0  0  0  0  0  0  0  0  0
  139.9910   73.0970  221.0750 N   0  0  0  0  0  0  0  0  0  0  0  0
  140.7970   74.2580  221.2130 C   0  0  0  0  0  0  0  0  0  0  0  0
  142.0370   74.1260  221.2550 O   0  0  0  0  0  0  0  0  0  0  0  0
  140.2050   75.6140  221.3070 C   0  0  1  0  0  0  0  0  0  0  0  0
  139.6390   75.7470  222.6590 N   0  0  0  0  0  0  0  0  0  0  0  0
  141.3720   76.5960  221.2740 C   0  0  1  0  0  0  0  0  0  0  0  0
  142.0800   76.6520  219.9960 C   0  0  0  0  0  0  0  0  0  0  0  0
  142.9020   75.9900  219.0870 C   0  0  0  0  0  0  0  0  0  0  0  0
  143.2960   76.6270  217.9130 C   0  0  0  0  0  0  0  0  0  0  0  0
  142.8530   77.9140  217.6840 C   0  0  0  0  0  0  0  0  0  0  0  0
  142.0280   78.5870  218.5890 C   0  0  0  0  0  0  0  0  0  0  0  0
  141.6600   77.9100  219.7490 C   0  0  0  0  0  0  0  0  0  0  0  0
  140.9060   77.9700  220.9990 C   0  0  2  0  0  0  0  0  0  0  0  0
  141.3380   79.0540  221.9260 C   0  0  0  0  0  0  0  0  0  0  0  0
  141.7490   78.6380  223.1940 C   0  0  0  0  0  0  0  0  0  0  0  0
  142.1720   79.5310  224.1470 C   0  0  0  0  0  0  0  0  0  0  0  0
  142.1960   80.8970  223.8550 C   0  0  0  0  0  0  0  0  0  0  0  0
  141.7870   81.2950  222.5980 C   0  0  0  0  0  0  0  0  0  0  0  0
  141.3580   80.3740  221.6360 C   0  0  0  0  0  0  0  0  0  0  0  0
  138.5230   73.1650  221.0460 C   0  0  0  0  0  0  0  0  0  0  0  0
  138.0780   71.9500  221.8760 C   0  0  0  0  0  0  0  0  0  0  0  0
  135.7698   69.2827  226.0013 H   0  0  0  0  0  0  0  0  0  0  0  0
  134.8204   70.1226  224.7286 H   0  0  0  0  0  0  0  0  0  0  0  0
  134.9337   68.3299  224.7286 H   0  0  0  0  0  0  0  0  0  0  0  0
  137.4606   68.6223  224.4274 H   0  0  0  0  0  0  0  0  0  0  0  0
  136.4577   69.0989  223.0298 H   0  0  0  0  0  0  0  0  0  0  0  0
  140.2192   72.5146  225.6636 H   0  0  0  0  0  0  0  0  0  0  0  0
  141.6716   71.6746  227.5133 H   0  0  0  0  0  0  0  0  0  0  0  0
  141.6843   69.2222  227.9583 H   0  0  0  0  0  0  0  0  0  0  0  0
  140.3146   67.6651  226.6224 H   0  0  0  0  0  0  0  0  0  0  0  0
  138.8614   68.5206  224.7755 H   0  0  0  0  0  0  0  0  0  0  0  0
  139.4222   72.7282  223.3522 H   0  0  0  0  0  0  0  0  0  0  0  0
  141.2132   71.2004  222.9408 H   0  0  0  0  0  0  0  0  0  0  0  0
  140.1499   70.0049  222.1640 H   0  0  0  0  0  0  0  0  0  0  0  0
  141.6311   71.8245  220.7528 H   0  0  0  0  0  0  0  0  0  0  0  0
  140.0789   71.2006  220.1514 H   0  0  0  0  0  0  0  0  0  0  0  0
  139.4628   75.7859  220.5135 H   0  0  0  0  0  0  0  0  0  0  0  0
  138.6370   76.0970  222.5980 H   0  0  0  0  0  0  0  0  0  0  0  0
  139.5310   74.7810  223.0900 H   0  0  0  0  0  0  0  0  0  0  0  0
  141.9005   76.3079  222.1947 H   0  0  0  0  0  0  0  0  0  0  0  0
  143.2398   74.9643  219.2964 H   0  0  0  0  0  0  0  0  0  0  0  0
  143.9446   76.1168  217.1857 H   0  0  0  0  0  0  0  0  0  0  0  0
  143.1591   78.4261  216.7598 H   0  0  0  0  0  0  0  0  0  0  0  0
  141.6823   79.6126  218.3926 H   0  0  0  0  0  0  0  0  0  0  0  0
  139.8321   78.2038  221.0443 H   0  0  0  0  0  0  0  0  0  0  0  0
  141.7334   77.5651  223.4360 H   0  0  0  0  0  0  0  0  0  0  0  0
  142.4908   79.1724  225.1368 H   0  0  0  0  0  0  0  0  0  0  0  0
  142.5300   81.6316  224.6025 H   0  0  0  0  0  0  0  0  0  0  0  0
  141.7987   82.3656  222.3458 H   0  0  0  0  0  0  0  0  0  0  0  0
  141.0371   80.7242  220.6438 H   0  0  0  0  0  0  0  0  0  0  0  0
  138.1659   74.1009  221.5004 H   0  0  0  0  0  0  0  0  0  0  0  0
  138.1186   73.1501  220.0232 H   0  0  0  0  0  0  0  0  0  0  0  0
  137.0984   72.1435  222.3374 H   0  0  0  0  0  0  0  0  0  0  0  0
  137.9776   71.0539  221.2460 H   0  0  0  0  0  0  0  0  0  0  0  0
  1  2  1  0
  2  3  1  0
  3  4  2  0
  3  5  1  0
  5  6  1  0
  6  7  2  0
  7  8  1  0
  8  9  2  0
  9 10  1  0
 10 11  2  0
  5 12  1  0
 12 13  1  0
 13 14  1  0
 14 15  1  0
 15 16  1  0
 16 17  2  0
 16 18  1  0
 18 19  1  0
 18 20  1  0
 20 21  1  0
 21 22  2  0
 22 23  1  0
 23 24  2  0
 24 25  1  0
 25 26  2  0
 26 27  1  0
 27 28  1  0
 28 29  2  0
 29 30  1  0
 30 31  2  0
 31 32  1  0
 32 33  2  0
 15 34  1  0
 34 35  1  0
 11  6  1  0
 35 12  1  0
 27 20  1  0
 33 28  1  0
 26 21  1  0
  1 36  1  0
  1 37  1  0
  1 38  1  0
  2 39  1  0
  2 40  1  0
  7 41  1  0
  8 42  1  0
  9 43  1  0
 10 44  1  0
 11 45  1  0
 12 46  1  0
 13 47  1  0
 13 48  1  0
 14 49  1  0
 14 50  1  0
 18 51  1  6
 19 52  1  0
 19 53  1  0
 20 54  1  1
 22 55  1  0
 23 56  1  0
 24 57  1  0
 25 58  1  0
 27 59  1  6
 29 60  1  0
 30 61  1  0
 31 62  1  0
 32 63  1  0
 33 64  1  0
 34 65  1  0
 34 66  1  0
 35 67  1  0
 35 68  1  0
M  END
>  <smiles>  (75) 
CCC(=O)N(c1ccccc1)C1CCN(C(=O)[C@@H](N)C2c3ccccc3C2c2ccccc2)CC1

>  <score_type>  (75) 
oracle

>  <origin>  (75) 
autodockgpu

>  <m_score__min__energy>  (75) 
-9.7300000000000004

>  <m_primary>  (75) 
energy

>  <rmsd>  (75) 
8.8292758591883

>  <m_score__min__rmsd>  (75) 
8.8292758591883

>  <meeko>  (75) 
{"free_energy": -9.22, "intermolecular_energy": -11.61, "internal_energy": -2.16, "cluster_size": 17, "cluster_id": 2, "rank_in_cluster": 13}

>  <energy>  (75) 
-8.63

>  <cluster_rmsd>  (75) 
0.71

>  <cluster>  (75) 
4

$$$$

     RDKit          3D

 68 72  0  0  0  0  0  0  0  0999 V2000
  139.7430   72.4060  219.4200 C   0  0  0  0  0  0  0  0  0  0  0  0
  140.0490   71.6700  220.7030 C   0  0  0  0  0  0  0  0  0  0  0  0
  140.6720   72.6320  221.6440 C   0  0  0  0  0  0  0  0  0  0  0  0
  140.3650   72.5070  222.8770 O   0  0  0  0  0  0  0  0  0  0  0  0
  141.5690   73.6550  221.2280 N   0  0  0  0  0  0  0  0  0  0  0  0
  142.8680   73.2600  220.8400 C   0  0  0  0  0  0  0  0  0  0  0  0
  143.2020   71.9660  220.4910 C   0  0  0  0  0  0  0  0  0  0  0  0
  144.4870   71.6010  220.1110 C   0  0  0  0  0  0  0  0  0  0  0  0
  145.4340   72.6080  220.0960 C   0  0  0  0  0  0  0  0  0  0  0  0
  145.1280   73.9200  220.4420 C   0  0  0  0  0  0  0  0  0  0  0  0
  143.8390   74.2680  220.8190 C   0  0  0  0  0  0  0  0  0  0  0  0
  141.1440   75.0190  221.2300 C   0  0  0  0  0  0  0  0  0  0  0  0
  140.9750   75.5740  219.8280 C   0  0  0  0  0  0  0  0  0  0  0  0
  140.2390   76.8920  219.9590 C   0  0  0  0  0  0  0  0  0  0  0  0
  140.5080   77.3950  221.2920 N   0  0  0  0  0  0  0  0  0  0  0  0
  141.4010   78.4700  221.5380 C   0  0  0  0  0  0  0  0  0  0  0  0
  141.9860   78.9970  220.5700 O   0  0  0  0  0  0  0  0  0  0  0  0
  141.6530   78.9800  222.9070 C   0  0  1  0  0  0  0  0  0  0  0  0
  143.0440   79.4620  222.9410 N   0  0  0  0  0  0  0  0  0  0  0  0
  140.8020   80.2370  223.0620 C   0  0  1  0  0  0  0  0  0  0  0  0
  140.9090   81.1820  221.9510 C   0  0  0  0  0  0  0  0  0  0  0  0
  141.7150   82.0830  221.2590 C   0  0  0  0  0  0  0  0  0  0  0  0
  141.2070   82.7690  220.1590 C   0  0  0  0  0  0  0  0  0  0  0  0
  139.9000   82.5300  219.7830 C   0  0  0  0  0  0  0  0  0  0  0  0
  139.0830   81.6280  220.4700 C   0  0  0  0  0  0  0  0  0  0  0  0
  139.6350   80.9650  221.5630 C   0  0  0  0  0  0  0  0  0  0  0  0
  139.4100   79.9940  222.6310 C   0  0  2  0  0  0  0  0  0  0  0  0
  138.3140   80.3590  223.5720 C   0  0  0  0  0  0  0  0  0  0  0  0
  137.0660   79.7960  223.2960 C   0  0  0  0  0  0  0  0  0  0  0  0
  135.9670   80.0480  224.0800 C   0  0  0  0  0  0  0  0  0  0  0  0
  136.0860   80.8900  225.1900 C   0  0  0  0  0  0  0  0  0  0  0  0
  137.3250   81.4400  225.4520 C   0  0  0  0  0  0  0  0  0  0  0  0
  138.4360   81.1740  224.6430 C   0  0  0  0  0  0  0  0  0  0  0  0
  139.8010   76.7030  222.3800 C   0  0  0  0  0  0  0  0  0  0  0  0
  139.8450   75.2220  221.9700 C   0  0  0  0  0  0  0  0  0  0  0  0
  139.3305   73.3981  219.6558 H   0  0  0  0  0  0  0  0  0  0  0  0
  140.6671   72.5228  218.8349 H   0  0  0  0  0  0  0  0  0  0  0  0
  139.0085   71.8332  218.8349 H   0  0  0  0  0  0  0  0  0  0  0  0
  139.1195   71.2723  221.1363 H   0  0  0  0  0  0  0  0  0  0  0  0
  140.7306   70.8288  220.5085 H   0  0  0  0  0  0  0  0  0  0  0  0
  142.4190   71.1938  220.5150 H   0  0  0  0  0  0  0  0  0  0  0  0
  144.7379   70.5657  219.8366 H   0  0  0  0  0  0  0  0  0  0  0  0
  146.4649   72.3633  219.8003 H   0  0  0  0  0  0  0  0  0  0  0  0
  145.9148   74.6883  220.4165 H   0  0  0  0  0  0  0  0  0  0  0  0
  143.5880   75.3034  221.0928 H   0  0  0  0  0  0  0  0  0  0  0  0
  141.9487   75.5608  221.7486 H   0  0  0  0  0  0  0  0  0  0  0  0
  141.9594   75.7355  219.3644 H   0  0  0  0  0  0  0  0  0  0  0  0
  140.4139   74.8725  219.1931 H   0  0  0  0  0  0  0  0  0  0  0  0
  140.6036   77.6052  219.2051 H   0  0  0  0  0  0  0  0  0  0  0  0
  139.1590   76.7569  219.8001 H   0  0  0  0  0  0  0  0  0  0  0  0
  141.4466   78.2121  223.6670 H   0  0  0  0  0  0  0  0  0  0  0  0
  143.7060   78.6420  223.0790 H   0  0  0  0  0  0  0  0  0  0  0  0
  143.3100   79.8280  221.9800 H   0  0  0  0  0  0  0  0  0  0  0  0
  141.0777   80.5399  224.0829 H   0  0  0  0  0  0  0  0  0  0  0  0
  142.7529   82.2526  221.5816 H   0  0  0  0  0  0  0  0  0  0  0  0
  141.8315   83.4838  219.6031 H   0  0  0  0  0  0  0  0  0  0  0  0
  139.4889   83.0666  218.9152 H   0  0  0  0  0  0  0  0  0  0  0  0
  138.0432   81.4486  220.1591 H   0  0  0  0  0  0  0  0  0  0  0  0
  139.0648   78.9659  222.4470 H   0  0  0  0  0  0  0  0  0  0  0  0
  136.9603   79.1317  222.4257 H   0  0  0  0  0  0  0  0  0  0  0  0
  134.9974   79.5895  223.8358 H   0  0  0  0  0  0  0  0  0  0  0  0
  135.2207   81.1071  225.8335 H   0  0  0  0  0  0  0  0  0  0  0  0
  137.4423   82.1053  226.3201 H   0  0  0  0  0  0  0  0  0  0  0  0
  139.4093   81.6288  224.8793 H   0  0  0  0  0  0  0  0  0  0  0  0
  140.3142   76.8581  223.3405 H   0  0  0  0  0  0  0  0  0  0  0  0
  138.7746   77.0729  222.5203 H   0  0  0  0  0  0  0  0  0  0  0  0
  139.8120   74.5798  222.8625 H   0  0  0  0  0  0  0  0  0  0  0  0
  138.9832   74.9589  221.3390 H   0  0  0  0  0  0  0  0  0  0  0  0
  1  2  1  0
  2  3  1  0
  3  4  2  0
  3  5  1  0
  5  6  1  0
  6  7  2  0
  7  8  1  0
  8  9  2  0
  9 10  1  0
 10 11  2  0
  5 12  1  0
 12 13  1  0
 13 14  1  0
 14 15  1  0
 15 16  1  0
 16 17  2  0
 16 18  1  0
 18 19  1  0
 18 20  1  0
 20 21  1  0
 21 22  2  0
 22 23  1  0
 23 24  2  0
 24 25  1  0
 25 26  2  0
 26 27  1  0
 27 28  1  0
 28 29  2  0
 29 30  1  0
 30 31  2  0
 31 32  1  0
 32 33  2  0
 15 34  1  0
 34 35  1  0
 11  6  1  0
 35 12  1  0
 27 20  1  0
 33 28  1  0
 26 21  1  0
  1 36  1  0
  1 37  1  0
  1 38  1  0
  2 39  1  0
  2 40  1  0
  7 41  1  0
  8 42  1  0
  9 43  1  0
 10 44  1  0
 11 45  1  0
 12 46  1  0
 13 47  1  0
 13 48  1  0
 14 49  1  0
 14 50  1  0
 18 51  1  1
 19 52  1  0
 19 53  1  0
 20 54  1  1
 22 55  1  0
 23 56  1  0
 24 57  1  0
 25 58  1  0
 27 59  1  6
 29 60  1  0
 30 61  1  0
 31 62  1  0
 32 63  1  0
 33 64  1  0
 34 65  1  0
 34 66  1  0
 35 67  1  0
 35 68  1  0
M  END
>  <smiles>  (76) 
CCC(=O)N(c1ccccc1)C1CCN(C(=O)[C@@H](N)C2c3ccccc3C2c2ccccc2)CC1

>  <score_type>  (76) 
oracle

>  <origin>  (76) 
autodockgpu

>  <m_score__min__energy>  (76) 
-9.7300000000000004

>  <m_primary>  (76) 
energy

>  <rmsd>  (76) 
10.891263471897872

>  <m_score__min__rmsd>  (76) 
10.891263471897872

>  <meeko>  (76) 
{"free_energy": -7.82, "intermolecular_energy": -10.21, "internal_energy": -3.22, "cluster_size": 11, "cluster_id": 7, "rank_in_cluster": 3}

>  <energy>  (76) 
-8.55

>  <cluster_rmsd>  (76) 
0.74

>  <cluster>  (76) 
4

$$$$

     RDKit          3D

 68 72  0  0  0  0  0  0  0  0999 V2000
  136.5460   69.6160  224.9870 C   0  0  0  0  0  0  0  0  0  0  0  0
  137.0910   69.6660  223.5780 C   0  0  0  0  0  0  0  0  0  0  0  0
  138.5710   69.6050  223.6590 C   0  0  0  0  0  0  0  0  0  0  0  0
  139.1110   68.4740  223.4160 O   0  0  0  0  0  0  0  0  0  0  0  0
  139.3770   70.7300  223.9880 N   0  0  0  0  0  0  0  0  0  0  0  0
  139.9460   70.7660  225.2800 C   0  0  0  0  0  0  0  0  0  0  0  0
  140.5960   71.8690  225.7980 C   0  0  0  0  0  0  0  0  0  0  0  0
  141.1470   71.8830  227.0730 C   0  0  0  0  0  0  0  0  0  0  0  0
  141.0130   70.7240  227.8140 C   0  0  0  0  0  0  0  0  0  0  0  0
  140.3640   69.5980  227.3190 C   0  0  0  0  0  0  0  0  0  0  0  0
  139.8190   69.6010  226.0440 C   0  0  0  0  0  0  0  0  0  0  0  0
  139.5720   71.7700  223.0280 C   0  0  0  0  0  0  0  0  0  0  0  0
  141.0390   72.0070  222.7200 C   0  0  0  0  0  0  0  0  0  0  0  0
  141.0970   72.8910  221.4910 C   0  0  0  0  0  0  0  0  0  0  0  0
  139.8520   73.6350  221.4480 N   0  0  0  0  0  0  0  0  0  0  0  0
  139.7720   75.0100  221.7900 C   0  0  0  0  0  0  0  0  0  0  0  0
  140.8110   75.6000  222.1530 O   0  0  0  0  0  0  0  0  0  0  0  0
  138.4940   75.7590  221.7270 C   0  0  1  0  0  0  0  0  0  0  0  0
  137.9270   75.7640  223.0850 N   0  0  0  0  0  0  0  0  0  0  0  0
  138.8600   77.2140  221.4510 C   0  0  1  0  0  0  0  0  0  0  0  0
  137.7130   78.1090  221.3010 C   0  0  0  0  0  0  0  0  0  0  0  0
  136.6110   78.4730  220.5320 C   0  0  0  0  0  0  0  0  0  0  0  0
  135.7960   79.5270  220.9380 C   0  0  0  0  0  0  0  0  0  0  0  0
  136.1140   80.1880  222.1080 C   0  0  0  0  0  0  0  0  0  0  0  0
  137.2170   79.8300  222.8870 C   0  0  0  0  0  0  0  0  0  0  0  0
  138.0020   78.7700  222.4410 C   0  0  0  0  0  0  0  0  0  0  0  0
  139.1700   77.9320  222.7040 C   0  0  2  0  0  0  0  0  0  0  0  0
  140.4570   78.6800  222.7810 C   0  0  0  0  0  0  0  0  0  0  0  0
  141.0130   79.0570  221.5560 C   0  0  0  0  0  0  0  0  0  0  0  0
  142.1950   79.7500  221.4790 C   0  0  0  0  0  0  0  0  0  0  0  0
  142.8730   80.0950  222.6520 C   0  0  0  0  0  0  0  0  0  0  0  0
  142.3130   79.7170  223.8550 C   0  0  0  0  0  0  0  0  0  0  0  0
  141.1070   79.0110  223.9180 C   0  0  0  0  0  0  0  0  0  0  0  0
  138.6710   72.8620  221.0390 C   0  0  0  0  0  0  0  0  0  0  0  0
  138.8610   71.5000  221.7250 C   0  0  0  0  0  0  0  0  0  0  0  0
  137.3765   69.6922  225.7043 H   0  0  0  0  0  0  0  0  0  0  0  0
  135.8504   70.4541  225.1410 H   0  0  0  0  0  0  0  0  0  0  0  0
  136.0145   68.6653  225.1410 H   0  0  0  0  0  0  0  0  0  0  0  0
  136.7127   68.8097  223.0004 H   0  0  0  0  0  0  0  0  0  0  0  0
  136.7726   70.5919  223.0767 H   0  0  0  0  0  0  0  0  0  0  0  0
  140.6807   72.7724  225.1761 H   0  0  0  0  0  0  0  0  0  0  0  0
  141.6625   72.7692  227.4717 H   0  0  0  0  0  0  0  0  0  0  0  0
  141.4340   70.6911  228.8297 H   0  0  0  0  0  0  0  0  0  0  0  0
  140.2823   68.6969  227.9446 H   0  0  0  0  0  0  0  0  0  0  0  0
  139.3029   68.7150  225.6457 H   0  0  0  0  0  0  0  0  0  0  0  0
  139.1433   72.6667  223.4994 H   0  0  0  0  0  0  0  0  0  0  0  0
  141.5270   72.5081  223.5690 H   0  0  0  0  0  0  0  0  0  0  0  0
  141.5616   71.0553  222.5437 H   0  0  0  0  0  0  0  0  0  0  0  0
  141.9490   73.5831  221.5627 H   0  0  0  0  0  0  0  0  0  0  0  0
  141.2281   72.2897  220.5793 H   0  0  0  0  0  0  0  0  0  0  0  0
  137.8113   75.3284  220.9797 H   0  0  0  0  0  0  0  0  0  0  0  0
  137.3420   74.8890  223.2350 H   0  0  0  0  0  0  0  0  0  0  0  0
  138.7120   75.6540  223.7920 H   0  0  0  0  0  0  0  0  0  0  0  0
  139.5812   77.0862  220.6303 H   0  0  0  0  0  0  0  0  0  0  0  0
  136.3839   77.9282  219.6038 H   0  0  0  0  0  0  0  0  0  0  0  0
  134.9211   79.8253  220.3417 H   0  0  0  0  0  0  0  0  0  0  0  0
  135.4784   81.0233  222.4372 H   0  0  0  0  0  0  0  0  0  0  0  0
  137.4563   80.3654  223.8177 H   0  0  0  0  0  0  0  0  0  0  0  0
  139.3094   77.3684  223.6383 H   0  0  0  0  0  0  0  0  0  0  0  0
  140.4883   78.7907  220.6266 H   0  0  0  0  0  0  0  0  0  0  0  0
  142.6070   80.0327  220.4990 H   0  0  0  0  0  0  0  0  0  0  0  0
  143.8222   80.6498  222.6169 H   0  0  0  0  0  0  0  0  0  0  0  0
  142.8293   79.9781  224.7906 H   0  0  0  0  0  0  0  0  0  0  0  0
  140.6877   78.7252  224.8940 H   0  0  0  0  0  0  0  0  0  0  0  0
  137.7468   73.3482  221.3846 H   0  0  0  0  0  0  0  0  0  0  0  0
  138.5794   72.7760  219.9462 H   0  0  0  0  0  0  0  0  0  0  0  0
  137.8843   71.0313  221.9155 H   0  0  0  0  0  0  0  0  0  0  0  0
  139.4413   70.8136  221.0909 H   0  0  0  0  0  0  0  0  0  0  0  0
  1  2  1  0
  2  3  1  0
  3  4  2  0
  3  5  1  0
  5  6  1  0
  6  7  2  0
  7  8  1  0
  8  9  2  0
  9 10  1  0
 10 11  2  0
  5 12  1  0
 12 13  1  0
 13 14  1  0
 14 15  1  0
 15 16  1  0
 16 17  2  0
 16 18  1  0
 18 19  1  0
 18 20  1  0
 20 21  1  0
 21 22  2  0
 22 23  1  0
 23 24  2  0
 24 25  1  0
 25 26  2  0
 26 27  1  0
 27 28  1  0
 28 29  2  0
 29 30  1  0
 30 31  2  0
 31 32  1  0
 32 33  2  0
 15 34  1  0
 34 35  1  0
 11  6  1  0
 35 12  1  0
 27 20  1  0
 33 28  1  0
 26 21  1  0
  1 36  1  0
  1 37  1  0
  1 38  1  0
  2 39  1  0
  2 40  1  0
  7 41  1  0
  8 42  1  0
  9 43  1  0
 10 44  1  0
 11 45  1  0
 12 46  1  0
 13 47  1  0
 13 48  1  0
 14 49  1  0
 14 50  1  0
 18 51  1  6
 19 52  1  0
 19 53  1  0
 20 54  1  6
 22 55  1  0
 23 56  1  0
 24 57  1  0
 25 58  1  0
 27 59  1  1
 29 60  1  0
 30 61  1  0
 31 62  1  0
 32 63  1  0
 33 64  1  0
 34 65  1  0
 34 66  1  0
 35 67  1  0
 35 68  1  0
M  END
>  <smiles>  (77) 
CCC(=O)N(c1ccccc1)C1CCN(C(=O)[C@@H](N)C2c3ccccc3C2c2ccccc2)CC1

>  <score_type>  (77) 
oracle

>  <origin>  (77) 
autodockgpu

>  <m_score__min__energy>  (77) 
-9.7300000000000004

>  <m_primary>  (77) 
energy

>  <rmsd>  (77) 
8.825623532356408

>  <m_score__min__rmsd>  (77) 
8.825623532356408

>  <meeko>  (77) 
{"free_energy": -8.66, "intermolecular_energy": -11.05, "internal_energy": -2.42, "cluster_size": 7, "cluster_id": 4, "rank_in_cluster": 2}

>  <energy>  (77) 
-8.5

>  <cluster_rmsd>  (77) 
0.65

>  <cluster>  (77) 
4

$$$$

     RDKit          3D

 68 72  0  0  0  0  0  0  0  0999 V2000
  134.2960   70.2050  226.6980 C   0  0  0  0  0  0  0  0  0  0  0  0
  135.0980   70.0170  225.4300 C   0  0  0  0  0  0  0  0  0  0  0  0
  134.6010   70.9900  224.4280 C   0  0  0  0  0  0  0  0  0  0  0  0
  133.6140   70.6190  223.7100 O   0  0  0  0  0  0  0  0  0  0  0  0
  135.1730   72.2810  224.2490 N   0  0  0  0  0  0  0  0  0  0  0  0
  134.6400   73.3390  225.0170 C   0  0  0  0  0  0  0  0  0  0  0  0
  133.5330   73.2100  225.8330 C   0  0  0  0  0  0  0  0  0  0  0  0
  133.0270   74.2660  226.5800 C   0  0  0  0  0  0  0  0  0  0  0  0
  133.6920   75.4730  226.4710 C   0  0  0  0  0  0  0  0  0  0  0  0
  134.8090   75.6330  225.6580 C   0  0  0  0  0  0  0  0  0  0  0  0
  135.3020   74.5680  224.9180 C   0  0  0  0  0  0  0  0  0  0  0  0
  136.2350   72.4660  223.3110 C   0  0  0  0  0  0  0  0  0  0  0  0
  137.2680   71.3560  223.3790 C   0  0  0  0  0  0  0  0  0  0  0  0
  138.1500   71.4960  222.1550 C   0  0  0  0  0  0  0  0  0  0  0  0
  138.0860   72.8860  221.7460 N   0  0  0  0  0  0  0  0  0  0  0  0
  139.1500   73.7980  221.9690 C   0  0  0  0  0  0  0  0  0  0  0  0
  140.1760   73.3920  222.5520 O   0  0  0  0  0  0  0  0  0  0  0  0
  139.0720   75.2120  221.5310 C   0  0  1  0  0  0  0  0  0  0  0  0
  138.0610   75.8730  222.3720 N   0  0  0  0  0  0  0  0  0  0  0  0
  140.3950   75.8590  221.9300 C   0  0  1  0  0  0  0  0  0  0  0  0
  141.5410   75.4430  221.1220 C   0  0  0  0  0  0  0  0  0  0  0  0
  142.4070   74.4100  220.7710 C   0  0  0  0  0  0  0  0  0  0  0  0
  143.4240   74.6390  219.8470 C   0  0  0  0  0  0  0  0  0  0  0  0
  143.5420   75.9010  219.3000 C   0  0  0  0  0  0  0  0  0  0  0  0
  142.6770   76.9440  219.6450 C   0  0  0  0  0  0  0  0  0  0  0  0
  141.6760   76.6680  220.5730 C   0  0  0  0  0  0  0  0  0  0  0  0
  140.5390   77.1970  221.3210 C   0  0  2  0  0  0  0  0  0  0  0  0
  140.8730   78.3410  222.2170 C   0  0  0  0  0  0  0  0  0  0  0  0
  142.1930   78.7910  222.1580 C   0  0  0  0  0  0  0  0  0  0  0  0
  142.6380   79.8360  222.9290 C   0  0  0  0  0  0  0  0  0  0  0  0
  141.7550   80.4770  223.8040 C   0  0  0  0  0  0  0  0  0  0  0  0
  140.4530   80.0210  223.8530 C   0  0  0  0  0  0  0  0  0  0  0  0
  140.0140   78.9550  223.0610 C   0  0  0  0  0  0  0  0  0  0  0  0
  136.8330   73.2920  221.0920 C   0  0  0  0  0  0  0  0  0  0  0  0
  135.7430   72.5550  221.8870 C   0  0  0  0  0  0  0  0  0  0  0  0
  134.9483   70.0521  227.5705 H   0  0  0  0  0  0  0  0  0  0  0  0
  133.8831   71.2243  226.7230 H   0  0  0  0  0  0  0  0  0  0  0  0
  133.4732   69.4754  226.7230 H   0  0  0  0  0  0  0  0  0  0  0  0
  136.1639   70.1995  225.6314 H   0  0  0  0  0  0  0  0  0  0  0  0
  134.9858   68.9892  225.0545 H   0  0  0  0  0  0  0  0  0  0  0  0
  133.0324   72.2324  225.8936 H   0  0  0  0  0  0  0  0  0  0  0  0
  132.1434   74.1480  227.2245 H   0  0  0  0  0  0  0  0  0  0  0  0
  133.3254   76.3358  227.0465 H   0  0  0  0  0  0  0  0  0  0  0  0
  135.3060   76.6127  225.6012 H   0  0  0  0  0  0  0  0  0  0  0  0
  136.1856   74.6859  224.2736 H   0  0  0  0  0  0  0  0  0  0  0  0
  136.6980   73.4212  223.5997 H   0  0  0  0  0  0  0  0  0  0  0  0
  137.8715   71.4571  224.2931 H   0  0  0  0  0  0  0  0  0  0  0  0
  136.7828   70.3691  223.4023 H   0  0  0  0  0  0  0  0  0  0  0  0
  139.1862   71.2218  222.4021 H   0  0  0  0  0  0  0  0  0  0  0  0
  137.8099   70.8318  221.3468 H   0  0  0  0  0  0  0  0  0  0  0  0
  138.8503   75.2889  220.4563 H   0  0  0  0  0  0  0  0  0  0  0  0
  137.7730   75.2260  223.1650 H   0  0  0  0  0  0  0  0  0  0  0  0
  138.5100   76.6920  222.8800 H   0  0  0  0  0  0  0  0  0  0  0  0
  140.3827   75.6842  223.0159 H   0  0  0  0  0  0  0  0  0  0  0  0
  142.2879   73.4143  221.2231 H   0  0  0  0  0  0  0  0  0  0  0  0
  144.1163   73.8337  219.5602 H   0  0  0  0  0  0  0  0  0  0  0  0
  144.3419   76.0921  218.5695 H   0  0  0  0  0  0  0  0  0  0  0  0
  142.7831   77.9445  219.2003 H   0  0  0  0  0  0  0  0  0  0  0  0
  139.6727   77.6763  220.8416 H   0  0  0  0  0  0  0  0  0  0  0  0
  142.8968   78.2940  221.4741 H   0  0  0  0  0  0  0  0  0  0  0  0
  143.6844   80.1678  222.8589 H   0  0  0  0  0  0  0  0  0  0  0  0
  142.0870   81.3166  224.4323 H   0  0  0  0  0  0  0  0  0  0  0  0
  139.7407   80.5097  224.5340 H   0  0  0  0  0  0  0  0  0  0  0  0
  138.9694   78.6162  223.1250 H   0  0  0  0  0  0  0  0  0  0  0  0
  136.6940   74.3814  221.1552 H   0  0  0  0  0  0  0  0  0  0  0  0
  136.8154   73.0451  220.0202 H   0  0  0  0  0  0  0  0  0  0  0  0
  134.7980   73.1165  221.8462 H   0  0  0  0  0  0  0  0  0  0  0  0
  135.5540   71.5552  221.4689 H   0  0  0  0  0  0  0  0  0  0  0  0
  1  2  1  0
  2  3  1  0
  3  4  2  0
  3  5  1  0
  5  6  1  0
  6  7  2  0
  7  8  1  0
  8  9  2  0
  9 10  1  0
 10 11  2  0
  5 12  1  0
 12 13  1  0
 13 14  1  0
 14 15  1  0
 15 16  1  0
 16 17  2  0
 16 18  1  0
 18 19  1  0
 18 20  1  0
 20 21  1  0
 21 22  2  0
 22 23  1  0
 23 24  2  0
 24 25  1  0
 25 26  2  0
 26 27  1  0
 27 28  1  0
 28 29  2  0
 29 30  1  0
 30 31  2  0
 31 32  1  0
 32 33  2  0
 15 34  1  0
 34 35  1  0
 11  6  1  0
 35 12  1  0
 27 20  1  0
 33 28  1  0
 26 21  1  0
  1 36  1  0
  1 37  1  0
  1 38  1  0
  2 39  1  0
  2 40  1  0
  7 41  1  0
  8 42  1  0
  9 43  1  0
 10 44  1  0
 11 45  1  0
 12 46  1  0
 13 47  1  0
 13 48  1  0
 14 49  1  0
 14 50  1  0
 18 51  1  6
 19 52  1  0
 19 53  1  0
 20 54  1  1
 22 55  1  0
 23 56  1  0
 24 57  1  0
 25 58  1  0
 27 59  1  6
 29 60  1  0
 30 61  1  0
 31 62  1  0
 32 63  1  0
 33 64  1  0
 34 65  1  0
 34 66  1  0
 35 67  1  0
 35 68  1  0
M  END
>  <smiles>  (78) 
CCC(=O)N(c1ccccc1)C1CCN(C(=O)[C@@H](N)C2c3ccccc3C2c2ccccc2)CC1

>  <score_type>  (78) 
oracle

>  <origin>  (78) 
autodockgpu

>  <m_score__min__energy>  (78) 
-9.7300000000000004

>  <m_primary>  (78) 
energy

>  <rmsd>  (78) 
7.513198079740315

>  <m_score__min__rmsd>  (78) 
7.513198079740315

>  <meeko>  (78) 
{"free_energy": -8.21, "intermolecular_energy": -10.6, "internal_energy": -2.32, "cluster_size": 2, "cluster_id": 5, "rank_in_cluster": 2}

>  <energy>  (78) 
-8.22

>  <cluster_rmsd>  (78) 
0.0

>  <cluster>  (78) 
5

$$$$

     RDKit          3D

 68 72  0  0  0  0  0  0  0  0999 V2000
  143.3380   80.4900  223.4890 C   0  0  0  0  0  0  0  0  0  0  0  0
  142.1640   81.2920  224.0010 C   0  0  0  0  0  0  0  0  0  0  0  0
  141.2110   81.4730  222.8790 C   0  0  0  0  0  0  0  0  0  0  0  0
  141.4640   82.4180  222.0610 O   0  0  0  0  0  0  0  0  0  0  0  0
  140.0630   80.6520  222.6950 N   0  0  0  0  0  0  0  0  0  0  0  0
  138.8800   81.0300  223.3670 C   0  0  0  0  0  0  0  0  0  0  0  0
  138.4820   80.4930  224.5760 C   0  0  0  0  0  0  0  0  0  0  0  0
  137.3140   80.8810  225.2190 C   0  0  0  0  0  0  0  0  0  0  0  0
  136.5530   81.8460  224.5860 C   0  0  0  0  0  0  0  0  0  0  0  0
  136.9280   82.4050  223.3680 C   0  0  0  0  0  0  0  0  0  0  0  0
  138.0980   82.0060  222.7390 C   0  0  0  0  0  0  0  0  0  0  0  0
  140.1440   79.4900  221.8670 C   0  0  0  0  0  0  0  0  0  0  0  0
  139.0040   79.4100  220.8680 C   0  0  0  0  0  0  0  0  0  0  0  0
  139.3660   78.3320  219.8680 C   0  0  0  0  0  0  0  0  0  0  0  0
  140.2790   77.4250  220.5380 N   0  0  0  0  0  0  0  0  0  0  0  0
  139.8840   76.1390  220.9900 C   0  0  0  0  0  0  0  0  0  0  0  0
  138.7020   75.7780  220.8150 O   0  0  0  0  0  0  0  0  0  0  0  0
  140.8340   75.2190  221.6600 C   0  0  1  0  0  0  0  0  0  0  0  0
  140.0350   74.1780  222.3250 N   0  0  0  0  0  0  0  0  0  0  0  0
  141.5810   74.4870  220.5490 C   0  0  1  0  0  0  0  0  0  0  0  0
  141.2270   74.9170  219.1960 C   0  0  0  0  0  0  0  0  0  0  0  0
  140.2490   74.9610  218.2060 C   0  0  0  0  0  0  0  0  0  0  0  0
  140.5260   75.5660  216.9810 C   0  0  0  0  0  0  0  0  0  0  0  0
  141.7800   76.1090  216.7870 C   0  0  0  0  0  0  0  0  0  0  0  0
  142.7670   76.0700  217.7750 C   0  0  0  0  0  0  0  0  0  0  0  0
  142.4450   75.4560  218.9820 C   0  0  0  0  0  0  0  0  0  0  0  0
  142.9110   75.0860  220.3160 C   0  0  2  0  0  0  0  0  0  0  0  0
  144.0960   74.1810  220.3240 C   0  0  0  0  0  0  0  0  0  0  0  0
  143.9040   72.9280  219.7380 C   0  0  0  0  0  0  0  0  0  0  0  0
  144.9090   71.9950  219.6760 C   0  0  0  0  0  0  0  0  0  0  0  0
  146.1660   72.2950  220.2110 C   0  0  0  0  0  0  0  0  0  0  0  0
  146.3420   73.5360  220.7860 C   0  0  0  0  0  0  0  0  0  0  0  0
  145.3080   74.4770  220.8430 C   0  0  0  0  0  0  0  0  0  0  0  0
  141.6450   77.9350  220.7310 C   0  0  0  0  0  0  0  0  0  0  0  0
  141.4410   79.4130  221.0990 C   0  0  0  0  0  0  0  0  0  0  0  0
  143.9130   80.0972  224.3405 H   0  0  0  0  0  0  0  0  0  0  0  0
  142.9712   79.6529  222.8769 H   0  0  0  0  0  0  0  0  0  0  0  0
  143.9844   81.1361  222.8769 H   0  0  0  0  0  0  0  0  0  0  0  0
  141.6735   80.7523  224.8245 H   0  0  0  0  0  0  0  0  0  0  0  0
  142.5024   82.2686  224.3775 H   0  0  0  0  0  0  0  0  0  0  0  0
  139.1155   79.7276  225.0481 H   0  0  0  0  0  0  0  0  0  0  0  0
  137.0103   80.4435  226.1814 H   0  0  0  0  0  0  0  0  0  0  0  0
  135.6199   82.1833  225.0609 H   0  0  0  0  0  0  0  0  0  0  0  0
  136.2909   83.1700  222.9000 H   0  0  0  0  0  0  0  0  0  0  0  0
  138.4018   82.4431  221.7764 H   0  0  0  0  0  0  0  0  0  0  0  0
  140.0824   78.6442  222.5676 H   0  0  0  0  0  0  0  0  0  0  0  0
  138.0680   79.1484  221.3832 H   0  0  0  0  0  0  0  0  0  0  0  0
  138.8540   80.3770  220.3655 H   0  0  0  0  0  0  0  0  0  0  0  0
  138.4619   77.7921  219.5499 H   0  0  0  0  0  0  0  0  0  0  0  0
  139.8308   78.7671  218.9710 H   0  0  0  0  0  0  0  0  0  0  0  0
  141.4954   75.7589  222.3535 H   0  0  0  0  0  0  0  0  0  0  0  0
  139.4950   74.6010  223.1370 H   0  0  0  0  0  0  0  0  0  0  0  0
  139.2660   73.8540  221.6670 H   0  0  0  0  0  0  0  0  0  0  0  0
  141.4315   73.4433  220.8626 H   0  0  0  0  0  0  0  0  0  0  0  0
  139.2588   74.5188  218.3903 H   0  0  0  0  0  0  0  0  0  0  0  0
  139.7641   75.6095  216.1887 H   0  0  0  0  0  0  0  0  0  0  0  0
  142.0096   76.5878  215.8237 H   0  0  0  0  0  0  0  0  0  0  0  0
  143.7616   76.5082  217.6054 H   0  0  0  0  0  0  0  0  0  0  0  0
  143.3177   75.8130  221.0344 H   0  0  0  0  0  0  0  0  0  0  0  0
  142.9193   72.6817  219.3140 H   0  0  0  0  0  0  0  0  0  0  0  0
  144.7267   71.0164  219.2079 H   0  0  0  0  0  0  0  0  0  0  0  0
  146.9877   71.5646  220.1743 H   0  0  0  0  0  0  0  0  0  0  0  0
  147.3230   73.7934  221.2119 H   0  0  0  0  0  0  0  0  0  0  0  0
  145.4817   75.4576  221.3102 H   0  0  0  0  0  0  0  0  0  0  0  0
  142.1524   77.3959  221.5446 H   0  0  0  0  0  0  0  0  0  0  0  0
  142.2760   77.8037  219.8396 H   0  0  0  0  0  0  0  0  0  0  0  0
  142.2740   79.7672  221.7240 H   0  0  0  0  0  0  0  0  0  0  0  0
  141.4080   80.0453  220.1995 H   0  0  0  0  0  0  0  0  0  0  0  0
  1  2  1  0
  2  3  1  0
  3  4  2  0
  3  5  1  0
  5  6  1  0
  6  7  2  0
  7  8  1  0
  8  9  2  0
  9 10  1  0
 10 11  2  0
  5 12  1  0
 12 13  1  0
 13 14  1  0
 14 15  1  0
 15 16  1  0
 16 17  2  0
 16 18  1  0
 18 19  1  0
 18 20  1  0
 20 21  1  0
 21 22  2  0
 22 23  1  0
 23 24  2  0
 24 25  1  0
 25 26  2  0
 26 27  1  0
 27 28  1  0
 28 29  2  0
 29 30  1  0
 30 31  2  0
 31 32  1  0
 32 33  2  0
 15 34  1  0
 34 35  1  0
 11  6  1  0
 35 12  1  0
 27 20  1  0
 33 28  1  0
 26 21  1  0
  1 36  1  0
  1 37  1  0
  1 38  1  0
  2 39  1  0
  2 40  1  0
  7 41  1  0
  8 42  1  0
  9 43  1  0
 10 44  1  0
 11 45  1  0
 12 46  1  0
 13 47  1  0
 13 48  1  0
 14 49  1  0
 14 50  1  0
 18 51  1  1
 19 52  1  0
 19 53  1  0
 20 54  1  6
 22 55  1  0
 23 56  1  0
 24 57  1  0
 25 58  1  0
 27 59  1  1
 29 60  1  0
 30 61  1  0
 31 62  1  0
 32 63  1  0
 33 64  1  0
 34 65  1  0
 34 66  1  0
 35 67  1  0
 35 68  1  0
M  END
>  <smiles>  (79) 
CCC(=O)N(c1ccccc1)C1CCN(C(=O)[C@@H](N)C2c3ccccc3C2c2ccccc2)CC1

>  <score_type>  (79) 
oracle

>  <origin>  (79) 
autodockgpu

>  <m_score__min__energy>  (79) 
-9.7300000000000004

>  <m_primary>  (79) 
energy

>  <rmsd>  (79) 
8.48351951957093

>  <m_score__min__rmsd>  (79) 
8.48351951957093

>  <meeko>  (79) 
{"free_energy": -7.75, "intermolecular_energy": -10.14, "internal_energy": -3.33, "cluster_size": 2, "cluster_id": 8, "rank_in_cluster": 2}

>  <energy>  (79) 
-8.21

>  <cluster_rmsd>  (79) 
0.71

>  <cluster>  (79) 
5

$$$$

     RDKit          3D

 68 72  0  0  0  0  0  0  0  0999 V2000
  138.8340   68.0980  223.5220 C   0  0  0  0  0  0  0  0  0  0  0  0
  137.7170   69.0340  223.1220 C   0  0  0  0  0  0  0  0  0  0  0  0
  137.8330   70.2610  223.9470 C   0  0  0  0  0  0  0  0  0  0  0  0
  136.7930   70.6140  224.5970 O   0  0  0  0  0  0  0  0  0  0  0  0
  139.0270   71.0290  224.0310 N   0  0  0  0  0  0  0  0  0  0  0  0
  139.7370   70.9950  225.2520 C   0  0  0  0  0  0  0  0  0  0  0  0
  140.7420   71.8850  225.5770 C   0  0  0  0  0  0  0  0  0  0  0  0
  141.4260   71.8320  226.7850 C   0  0  0  0  0  0  0  0  0  0  0  0
  141.0490   70.8340  227.6640 C   0  0  0  0  0  0  0  0  0  0  0  0
  140.0400   69.9240  227.3640 C   0  0  0  0  0  0  0  0  0  0  0  0
  139.3670   69.9900  226.1530 C   0  0  0  0  0  0  0  0  0  0  0  0
  139.4560   71.8050  222.9100 C   0  0  0  0  0  0  0  0  0  0  0  0
  140.6730   71.2100  222.2250 C   0  0  0  0  0  0  0  0  0  0  0  0
  140.8330   71.9300  220.9030 C   0  0  0  0  0  0  0  0  0  0  0  0
  140.2080   73.2300  221.0520 N   0  0  0  0  0  0  0  0  0  0  0  0
  140.9580   74.4270  221.1960 C   0  0  0  0  0  0  0  0  0  0  0  0
  142.2040   74.3560  221.2060 O   0  0  0  0  0  0  0  0  0  0  0  0
  140.3020   75.7490  221.3330 C   0  0  1  0  0  0  0  0  0  0  0  0
  139.7990   75.8430  222.7130 N   0  0  0  0  0  0  0  0  0  0  0  0
  141.4140   76.7910  221.2520 C   0  0  1  0  0  0  0  0  0  0  0  0
  142.0430   76.9040  219.9360 C   0  0  0  0  0  0  0  0  0  0  0  0
  142.8440   76.2990  218.9700 C   0  0  0  0  0  0  0  0  0  0  0  0
  143.1360   76.9730  217.7870 C   0  0  0  0  0  0  0  0  0  0  0  0
  142.6160   78.2390  217.6070 C   0  0  0  0  0  0  0  0  0  0  0  0
  141.8110   78.8540  218.5700 C   0  0  0  0  0  0  0  0  0  0  0  0
  141.5450   78.1420  219.7360 C   0  0  0  0  0  0  0  0  0  0  0  0
  140.8620   78.1430  221.0280 C   0  0  2  0  0  0  0  0  0  0  0  0
  141.2910   79.2340  221.9480 C   0  0  0  0  0  0  0  0  0  0  0  0
  141.7940   78.8210  223.1840 C   0  0  0  0  0  0  0  0  0  0  0  0
  142.2250   79.7200  224.1280 C   0  0  0  0  0  0  0  0  0  0  0  0
  142.1630   81.0910  223.8580 C   0  0  0  0  0  0  0  0  0  0  0  0
  141.6630   81.4850  222.6340 C   0  0  0  0  0  0  0  0  0  0  0  0
  141.2280   80.5570  221.6810 C   0  0  0  0  0  0  0  0  0  0  0  0
  138.7380   73.2250  221.0580 C   0  0  0  0  0  0  0  0  0  0  0  0
  138.3750   71.9730  221.8720 C   0  0  0  0  0  0  0  0  0  0  0  0
  138.8946   68.0472  224.6192 H   0  0  0  0  0  0  0  0  0  0  0  0
  138.6334   67.0943  223.1190 H   0  0  0  0  0  0  0  0  0  0  0  0
  139.7871   68.4712  223.1190 H   0  0  0  0  0  0  0  0  0  0  0  0
  137.8078   69.2903  222.0561 H   0  0  0  0  0  0  0  0  0  0  0  0
  136.7398   68.5552  223.2827 H   0  0  0  0  0  0  0  0  0  0  0  0
  141.0113   72.6663  224.8510 H   0  0  0  0  0  0  0  0  0  0  0  0
  142.2257   72.5467  227.0292 H   0  0  0  0  0  0  0  0  0  0  0  0
  141.5638   70.7566  228.6330 H   0  0  0  0  0  0  0  0  0  0  0  0
  139.7737   69.1453  228.0938 H   0  0  0  0  0  0  0  0  0  0  0  0
  138.5677   69.2750  225.9085 H   0  0  0  0  0  0  0  0  0  0  0  0
  139.7127   72.7871  223.3337 H   0  0  0  0  0  0  0  0  0  0  0  0
  141.5676   71.3596  222.8473 H   0  0  0  0  0  0  0  0  0  0  0  0
  140.5466   70.1283  222.0701 H   0  0  0  0  0  0  0  0  0  0  0  0
  141.9001   72.0487  220.6638 H   0  0  0  0  0  0  0  0  0  0  0  0
  140.3661   71.3604  220.0859 H   0  0  0  0  0  0  0  0  0  0  0  0
  139.5128   75.8872  220.5793 H   0  0  0  0  0  0  0  0  0  0  0  0
  139.5460   74.8750  223.0710 H   0  0  0  0  0  0  0  0  0  0  0  0
  140.5920   76.1380  223.3550 H   0  0  0  0  0  0  0  0  0  0  0  0
  142.0092   76.5170  222.1355 H   0  0  0  0  0  0  0  0  0  0  0  0
  143.2456   75.2894  219.1417 H   0  0  0  0  0  0  0  0  0  0  0  0
  143.7659   76.5078  217.0145 H   0  0  0  0  0  0  0  0  0  0  0  0
  142.8422   78.7807  216.6767 H   0  0  0  0  0  0  0  0  0  0  0  0
  141.4029   79.8632  218.4123 H   0  0  0  0  0  0  0  0  0  0  0  0
  139.7817   78.3188  221.1381 H   0  0  0  0  0  0  0  0  0  0  0  0
  141.8463   77.7452  223.4073 H   0  0  0  0  0  0  0  0  0  0  0  0
  142.6172   79.3638  225.0920 H   0  0  0  0  0  0  0  0  0  0  0  0
  142.5020   81.8312  224.5977 H   0  0  0  0  0  0  0  0  0  0  0  0
  141.6046   82.5584  222.4007 H   0  0  0  0  0  0  0  0  0  0  0  0
  140.8347   80.9048  220.7144 H   0  0  0  0  0  0  0  0  0  0  0  0
  138.3457   74.1325  221.5402 H   0  0  0  0  0  0  0  0  0  0  0  0
  138.3101   73.2106  220.0448 H   0  0  0  0  0  0  0  0  0  0  0  0
  137.3982   72.1075  222.3597 H   0  0  0  0  0  0  0  0  0  0  0  0
  138.3051   71.0860  221.2252 H   0  0  0  0  0  0  0  0  0  0  0  0
  1  2  1  0
  2  3  1  0
  3  4  2  0
  3  5  1  0
  5  6  1  0
  6  7  2  0
  7  8  1  0
  8  9  2  0
  9 10  1  0
 10 11  2  0
  5 12  1  0
 12 13  1  0
 13 14  1  0
 14 15  1  0
 15 16  1  0
 16 17  2  0
 16 18  1  0
 18 19  1  0
 18 20  1  0
 20 21  1  0
 21 22  2  0
 22 23  1  0
 23 24  2  0
 24 25  1  0
 25 26  2  0
 26 27  1  0
 27 28  1  0
 28 29  2  0
 29 30  1  0
 30 31  2  0
 31 32  1  0
 32 33  2  0
 15 34  1  0
 34 35  1  0
 11  6  1  0
 35 12  1  0
 27 20  1  0
 33 28  1  0
 26 21  1  0
  1 36  1  0
  1 37  1  0
  1 38  1  0
  2 39  1  0
  2 40  1  0
  7 41  1  0
  8 42  1  0
  9 43  1  0
 10 44  1  0
 11 45  1  0
 12 46  1  0
 13 47  1  0
 13 48  1  0
 14 49  1  0
 14 50  1  0
 18 51  1  6
 19 52  1  0
 19 53  1  0
 20 54  1  1
 22 55  1  0
 23 56  1  0
 24 57  1  0
 25 58  1  0
 27 59  1  6
 29 60  1  0
 30 61  1  0
 31 62  1  0
 32 63  1  0
 33 64  1  0
 34 65  1  0
 34 66  1  0
 35 67  1  0
 35 68  1  0
M  END
>  <smiles>  (80) 
CCC(=O)N(c1ccccc1)C1CCN(C(=O)[C@@H](N)C2c3ccccc3C2c2ccccc2)CC1

>  <score_type>  (80) 
oracle

>  <origin>  (80) 
autodockgpu

>  <m_score__min__energy>  (80) 
-9.7300000000000004

>  <m_primary>  (80) 
energy

>  <rmsd>  (80) 
8.999214447909184

>  <m_score__min__rmsd>  (80) 
8.999214447909184

>  <meeko>  (80) 
{"free_energy": -9.26, "intermolecular_energy": -11.64, "internal_energy": -2.34, "cluster_size": 17, "cluster_id": 2, "rank_in_cluster": 12}

>  <energy>  (80) 
-7.97

>  <cluster_rmsd>  (80) 
0.0

>  <cluster>  (80) 
6

$$$$

     RDKit          3D

 68 72  0  0  0  0  0  0  0  0999 V2000
  131.8510   76.7540  225.6140 C   0  0  0  0  0  0  0  0  0  0  0  0
  132.0210   75.3000  225.2420 C   0  0  0  0  0  0  0  0  0  0  0  0
  133.3160   74.8360  225.7960 C   0  0  0  0  0  0  0  0  0  0  0  0
  133.5680   75.1530  227.0060 O   0  0  0  0  0  0  0  0  0  0  0  0
  134.2530   74.0730  225.0440 N   0  0  0  0  0  0  0  0  0  0  0  0
  134.3670   72.6990  225.3510 C   0  0  0  0  0  0  0  0  0  0  0  0
  133.7940   72.1140  226.4630 C   0  0  0  0  0  0  0  0  0  0  0  0
  133.9190   70.7600  226.7440 C   0  0  0  0  0  0  0  0  0  0  0  0
  134.6550   70.0090  225.8470 C   0  0  0  0  0  0  0  0  0  0  0  0
  135.2440   70.5710  224.7190 C   0  0  0  0  0  0  0  0  0  0  0  0
  135.1100   71.9250  224.4520 C   0  0  0  0  0  0  0  0  0  0  0  0
  135.0410   74.7070  224.0350 C   0  0  0  0  0  0  0  0  0  0  0  0
  134.5210   74.4330  222.6360 C   0  0  0  0  0  0  0  0  0  0  0  0
  135.2330   75.3890  221.7020 C   0  0  0  0  0  0  0  0  0  0  0  0
  136.4900   75.7400  222.3360 N   0  0  0  0  0  0  0  0  0  0  0  0
  137.7360   75.2170  221.9020 C   0  0  0  0  0  0  0  0  0  0  0  0
  137.7500   74.4160  220.9460 O   0  0  0  0  0  0  0  0  0  0  0  0
  139.0120   75.5970  222.5530 C   0  0  1  0  0  0  0  0  0  0  0  0
  139.9580   74.4910  222.3330 N   0  0  0  0  0  0  0  0  0  0  0  0
  139.5780   76.7610  221.7440 C   0  0  1  0  0  0  0  0  0  0  0  0
  139.6540   78.0260  222.4740 C   0  0  0  0  0  0  0  0  0  0  0  0
  138.9540   79.0710  223.0710 C   0  0  0  0  0  0  0  0  0  0  0  0
  139.6480   80.1190  223.6720 C   0  0  0  0  0  0  0  0  0  0  0  0
  141.0270   80.0860  223.6570 C   0  0  0  0  0  0  0  0  0  0  0  0
  141.7390   79.0410  223.0610 C   0  0  0  0  0  0  0  0  0  0  0  0
  141.0030   78.0160  222.4730 C   0  0  0  0  0  0  0  0  0  0  0  0
  141.0550   76.7470  221.7510 C   0  0  2  0  0  0  0  0  0  0  0  0
  141.7610   76.8150  220.4400 C   0  0  0  0  0  0  0  0  0  0  0  0
  141.6440   78.0240  219.7510 C   0  0  0  0  0  0  0  0  0  0  0  0
  142.2420   78.2240  218.5320 C   0  0  0  0  0  0  0  0  0  0  0  0
  142.9940   77.1980  217.9520 C   0  0  0  0  0  0  0  0  0  0  0  0
  143.1020   76.0080  218.6430 C   0  0  0  0  0  0  0  0  0  0  0  0
  142.4850   75.8180  219.8850 C   0  0  0  0  0  0  0  0  0  0  0  0
  136.3840   76.6670  223.4720 C   0  0  0  0  0  0  0  0  0  0  0  0
  135.1210   76.2030  224.2150 C   0  0  0  0  0  0  0  0  0  0  0  0
  131.8394   76.8533  226.7094 H   0  0  0  0  0  0  0  0  0  0  0  0
  132.6870   77.3381  225.2017 H   0  0  0  0  0  0  0  0  0  0  0  0
  130.9028   77.1295  225.2017 H   0  0  0  0  0  0  0  0  0  0  0  0
  131.1983   74.7067  225.6677 H   0  0  0  0  0  0  0  0  0  0  0  0
  132.0071   75.1801  224.1486 H   0  0  0  0  0  0  0  0  0  0  0  0
  133.2157   72.7456  227.1534 H   0  0  0  0  0  0  0  0  0  0  0  0
  133.4564   70.3086  227.6341 H   0  0  0  0  0  0  0  0  0  0  0  0
  134.7791   68.9316  226.0311 H   0  0  0  0  0  0  0  0  0  0  0  0
  135.8217   69.9350  224.0321 H   0  0  0  0  0  0  0  0  0  0  0  0
  135.5728   72.3765  223.5621 H   0  0  0  0  0  0  0  0  0  0  0  0
  136.0437   74.2695  224.1499 H   0  0  0  0  0  0  0  0  0  0  0  0
  134.7382   73.3934  222.3495 H   0  0  0  0  0  0  0  0  0  0  0  0
  133.4315   74.5767  222.5878 H   0  0  0  0  0  0  0  0  0  0  0  0
  135.4208   74.9022  220.7336 H   0  0  0  0  0  0  0  0  0  0  0  0
  134.6226   76.2848  221.5153 H   0  0  0  0  0  0  0  0  0  0  0  0
  138.8668   75.8304  223.6181 H   0  0  0  0  0  0  0  0  0  0  0  0
  139.6780   73.6540  222.9250 H   0  0  0  0  0  0  0  0  0  0  0  0
  139.8490   74.1310  221.3390 H   0  0  0  0  0  0  0  0  0  0  0  0
  138.9746   76.6787  220.8280 H   0  0  0  0  0  0  0  0  0  0  0  0
  137.8540   79.0692  223.0682 H   0  0  0  0  0  0  0  0  0  0  0  0
  139.1095   80.9524  224.1469 H   0  0  0  0  0  0  0  0  0  0  0  0
  141.5843   80.9085  224.1292 H   0  0  0  0  0  0  0  0  0  0  0  0
  142.8389   79.0291  223.0568 H   0  0  0  0  0  0  0  0  0  0  0  0
  141.5927   75.8630  222.1243 H   0  0  0  0  0  0  0  0  0  0  0  0
  141.0559   78.8391  220.1979 H   0  0  0  0  0  0  0  0  0  0  0  0
  142.1301   79.1876  218.0134 H   0  0  0  0  0  0  0  0  0  0  0  0
  143.4837   77.3346  216.9766 H   0  0  0  0  0  0  0  0  0  0  0  0
  143.6888   75.1867  218.2058 H   0  0  0  0  0  0  0  0  0  0  0  0
  142.5895   74.8567  220.4095 H   0  0  0  0  0  0  0  0  0  0  0  0
  137.2689   76.5925  224.1211 H   0  0  0  0  0  0  0  0  0  0  0  0
  136.3263   77.7190  223.1557 H   0  0  0  0  0  0  0  0  0  0  0  0
  135.1955   76.4534  225.2835 H   0  0  0  0  0  0  0  0  0  0  0  0
  134.2226   76.6991  223.8190 H   0  0  0  0  0  0  0  0  0  0  0  0
  1  2  1  0
  2  3  1  0
  3  4  2  0
  3  5  1  0
  5  6  1  0
  6  7  2  0
  7  8  1  0
  8  9  2  0
  9 10  1  0
 10 11  2  0
  5 12  1  0
 12 13  1  0
 13 14  1  0
 14 15  1  0
 15 16  1  0
 16 17  2  0
 16 18  1  0
 18 19  1  0
 18 20  1  0
 20 21  1  0
 21 22  2  0
 22 23  1  0
 23 24  2  0
 24 25  1  0
 25 26  2  0
 26 27  1  0
 27 28  1  0
 28 29  2  0
 29 30  1  0
 30 31  2  0
 31 32  1  0
 32 33  2  0
 15 34  1  0
 34 35  1  0
 11  6  1  0
 35 12  1  0
 27 20  1  0
 33 28  1  0
 26 21  1  0
  1 36  1  0
  1 37  1  0
  1 38  1  0
  2 39  1  0
  2 40  1  0
  7 41  1  0
  8 42  1  0
  9 43  1  0
 10 44  1  0
 11 45  1  0
 12 46  1  0
 13 47  1  0
 13 48  1  0
 14 49  1  0
 14 50  1  0
 18 51  1  1
 19 52  1  0
 19 53  1  0
 20 54  1  6
 22 55  1  0
 23 56  1  0
 24 57  1  0
 25 58  1  0
 27 59  1  1
 29 60  1  0
 30 61  1  0
 31 62  1  0
 32 63  1  0
 33 64  1  0
 34 65  1  0
 34 66  1  0
 35 67  1  0
 35 68  1  0
M  END
>  <smiles>  (81) 
CCC(=O)N(c1ccccc1)C1CCN(C(=O)[C@@H](N)C2c3ccccc3C2c2ccccc2)CC1

>  <score_type>  (81) 
oracle

>  <origin>  (81) 
autodockgpu

>  <m_score__min__energy>  (81) 
-9.7300000000000004

>  <m_primary>  (81) 
energy

>  <rmsd>  (81) 
7.949118925263704

>  <m_score__min__rmsd>  (81) 
7.949118925263704

>  <meeko>  (81) 
{"free_energy": -7.82, "intermolecular_energy": -10.2, "internal_energy": -3.04, "cluster_size": 6, "cluster_id": 6, "rank_in_cluster": 6}

>  <energy>  (81) 
-7.94

>  <cluster_rmsd>  (81) 
0.3

>  <cluster>  (81) 
6

$$$$

     RDKit          3D

 68 72  0  0  0  0  0  0  0  0999 V2000
  139.8980   70.4670  221.3870 C   0  0  0  0  0  0  0  0  0  0  0  0
  140.0080   71.8150  220.7130 C   0  0  0  0  0  0  0  0  0  0  0  0
  140.6990   72.7380  221.6470 C   0  0  0  0  0  0  0  0  0  0  0  0
  140.4420   72.5930  222.8880 O   0  0  0  0  0  0  0  0  0  0  0  0
  141.6080   73.7430  221.2140 N   0  0  0  0  0  0  0  0  0  0  0  0
  142.9010   73.3270  220.8280 C   0  0  0  0  0  0  0  0  0  0  0  0
  143.2110   72.0290  220.4710 C   0  0  0  0  0  0  0  0  0  0  0  0
  144.4910   71.6430  220.0930 C   0  0  0  0  0  0  0  0  0  0  0  0
  145.4570   72.6320  220.0880 C   0  0  0  0  0  0  0  0  0  0  0  0
  145.1740   73.9470  220.4420 C   0  0  0  0  0  0  0  0  0  0  0  0
  143.8900   74.3160  220.8170 C   0  0  0  0  0  0  0  0  0  0  0  0
  141.2000   75.1130  221.1980 C   0  0  0  0  0  0  0  0  0  0  0  0
  141.0010   75.6410  219.7890 C   0  0  0  0  0  0  0  0  0  0  0  0
  140.2850   76.9700  219.9110 C   0  0  0  0  0  0  0  0  0  0  0  0
  140.5950   77.4970  221.2270 N   0  0  0  0  0  0  0  0  0  0  0  0
  141.5070   78.5660  221.4270 C   0  0  0  0  0  0  0  0  0  0  0  0
  142.0740   79.0640  220.4340 O   0  0  0  0  0  0  0  0  0  0  0  0
  141.8010   79.1000  222.7780 C   0  0  1  0  0  0  0  0  0  0  0  0
  143.1590   79.6660  222.7350 N   0  0  0  0  0  0  0  0  0  0  0  0
  140.8830   80.3040  222.9740 C   0  0  1  0  0  0  0  0  0  0  0  0
  140.9620   81.3050  221.9110 C   0  0  0  0  0  0  0  0  0  0  0  0
  141.7340   82.2770  221.2790 C   0  0  0  0  0  0  0  0  0  0  0  0
  141.2120   82.9890  220.2010 C   0  0  0  0  0  0  0  0  0  0  0  0
  139.9260   82.7020  219.7880 C   0  0  0  0  0  0  0  0  0  0  0  0
  139.1440   81.7280  220.4150 C   0  0  0  0  0  0  0  0  0  0  0  0
  139.7080   81.0430  221.4870 C   0  0  0  0  0  0  0  0  0  0  0  0
  139.5140   80.0120  222.5040 C   0  0  2  0  0  0  0  0  0  0  0  0
  138.3830   80.2760  223.4370 C   0  0  0  0  0  0  0  0  0  0  0  0
  137.1600   79.6980  223.0870 C   0  0  0  0  0  0  0  0  0  0  0  0
  136.0350   79.8610  223.8560 C   0  0  0  0  0  0  0  0  0  0  0  0
  136.0990   80.6230  225.0260 C   0  0  0  0  0  0  0  0  0  0  0  0
  137.3130   81.1890  225.3610 C   0  0  0  0  0  0  0  0  0  0  0  0
  138.4520   81.0150  224.5670 C   0  0  0  0  0  0  0  0  0  0  0  0
  139.9070   76.8360  222.3470 C   0  0  0  0  0  0  0  0  0  0  0  0
  139.9230   75.3480  221.9660 C   0  0  0  0  0  0  0  0  0  0  0  0
  139.9089   70.6010  222.4788 H   0  0  0  0  0  0  0  0  0  0  0  0
  138.9573   69.9824  221.0864 H   0  0  0  0  0  0  0  0  0  0  0  0
  140.7477   69.8363  221.0864 H   0  0  0  0  0  0  0  0  0  0  0  0
  140.5879   71.7214  219.7830 H   0  0  0  0  0  0  0  0  0  0  0  0
  139.0086   72.2007  220.4632 H   0  0  0  0  0  0  0  0  0  0  0  0
  142.4134   71.2716  220.4866 H   0  0  0  0  0  0  0  0  0  0  0  0
  144.7236   70.6051  219.8125 H   0  0  0  0  0  0  0  0  0  0  0  0
  146.4842   72.3701  219.7941 H   0  0  0  0  0  0  0  0  0  0  0  0
  145.9749   74.7009  220.4245 H   0  0  0  0  0  0  0  0  0  0  0  0
  143.6572   75.3540  221.0969 H   0  0  0  0  0  0  0  0  0  0  0  0
  142.0247   75.6547  221.6842 H   0  0  0  0  0  0  0  0  0  0  0  0
  141.9748   75.7804  219.2968 H   0  0  0  0  0  0  0  0  0  0  0  0
  140.4150   74.9336  219.1839 H   0  0  0  0  0  0  0  0  0  0  0  0
  140.6386   77.6629  219.1332 H   0  0  0  0  0  0  0  0  0  0  0  0
  139.1996   76.8456  219.7825 H   0  0  0  0  0  0  0  0  0  0  0  0
  141.6839   78.3263  223.5511 H   0  0  0  0  0  0  0  0  0  0  0  0
  143.8750   78.8830  222.6780 H   0  0  0  0  0  0  0  0  0  0  0  0
  143.2930   80.1840  221.8170 H   0  0  0  0  0  0  0  0  0  0  0  0
  141.1237   80.5713  224.0135 H   0  0  0  0  0  0  0  0  0  0  0  0
  142.7557   82.4825  221.6309 H   0  0  0  0  0  0  0  0  0  0  0  0
  141.8091   83.7600  219.6920 H   0  0  0  0  0  0  0  0  0  0  0  0
  139.5034   83.2579  218.9381 H   0  0  0  0  0  0  0  0  0  0  0  0
  138.1210   81.5110  220.0739 H   0  0  0  0  0  0  0  0  0  0  0  0
  139.2261   78.9774  222.2660 H   0  0  0  0  0  0  0  0  0  0  0  0
  137.0971   79.0952  222.1690 H   0  0  0  0  0  0  0  0  0  0  0  0
  135.0865   79.3937  223.5527 H   0  0  0  0  0  0  0  0  0  0  0  0
  135.2112   80.7671  225.6592 H   0  0  0  0  0  0  0  0  0  0  0  0
  137.3868   81.7933  226.2772 H   0  0  0  0  0  0  0  0  0  0  0  0
  139.4042   81.4798  224.8625 H   0  0  0  0  0  0  0  0  0  0  0  0
  140.4461   77.0038  223.2910 H   0  0  0  0  0  0  0  0  0  0  0  0
  138.8891   77.2217  222.5058 H   0  0  0  0  0  0  0  0  0  0  0  0
  139.9047   74.7241  222.8718 H   0  0  0  0  0  0  0  0  0  0  0  0
  139.0426   75.0839  221.3617 H   0  0  0  0  0  0  0  0  0  0  0  0
  1  2  1  0
  2  3  1  0
  3  4  2  0
  3  5  1  0
  5  6  1  0
  6  7  2  0
  7  8  1  0
  8  9  2  0
  9 10  1  0
 10 11  2  0
  5 12  1  0
 12 13  1  0
 13 14  1  0
 14 15  1  0
 15 16  1  0
 16 17  2  0
 16 18  1  0
 18 19  1  0
 18 20  1  0
 20 21  1  0
 21 22  2  0
 22 23  1  0
 23 24  2  0
 24 25  1  0
 25 26  2  0
 26 27  1  0
 27 28  1  0
 28 29  2  0
 29 30  1  0
 30 31  2  0
 31 32  1  0
 32 33  2  0
 15 34  1  0
 34 35  1  0
 11  6  1  0
 35 12  1  0
 27 20  1  0
 33 28  1  0
 26 21  1  0
  1 36  1  0
  1 37  1  0
  1 38  1  0
  2 39  1  0
  2 40  1  0
  7 41  1  0
  8 42  1  0
  9 43  1  0
 10 44  1  0
 11 45  1  0
 12 46  1  0
 13 47  1  0
 13 48  1  0
 14 49  1  0
 14 50  1  0
 18 51  1  1
 19 52  1  0
 19 53  1  0
 20 54  1  1
 22 55  1  0
 23 56  1  0
 24 57  1  0
 25 58  1  0
 27 59  1  6
 29 60  1  0
 30 61  1  0
 31 62  1  0
 32 63  1  0
 33 64  1  0
 34 65  1  0
 34 66  1  0
 35 67  1  0
 35 68  1  0
M  END
>  <smiles>  (82) 
CCC(=O)N(c1ccccc1)C1CCN(C(=O)[C@@H](N)C2c3ccccc3C2c2ccccc2)CC1

>  <score_type>  (82) 
oracle

>  <origin>  (82) 
autodockgpu

>  <m_score__min__energy>  (82) 
-9.7300000000000004

>  <m_primary>  (82) 
energy

>  <rmsd>  (82) 
11.003656511806133

>  <m_score__min__rmsd>  (82) 
11.003656511806133

>  <meeko>  (82) 
{"free_energy": -7.83, "intermolecular_energy": -10.21, "internal_energy": -3.24, "cluster_size": 11, "cluster_id": 7, "rank_in_cluster": 2}

>  <energy>  (82) 
-7.93

>  <cluster_rmsd>  (82) 
0.17

>  <cluster>  (82) 
6

$$$$

     RDKit          3D

 68 72  0  0  0  0  0  0  0  0999 V2000
  131.0130   75.4700  226.4460 C   0  0  0  0  0  0  0  0  0  0  0  0
  131.9610   75.3040  225.2810 C   0  0  0  0  0  0  0  0  0  0  0  0
  133.2790   74.8890  225.8210 C   0  0  0  0  0  0  0  0  0  0  0  0
  133.5520   75.2590  227.0110 O   0  0  0  0  0  0  0  0  0  0  0  0
  134.2140   74.1160  225.0770 N   0  0  0  0  0  0  0  0  0  0  0  0
  134.3250   72.7450  225.3980 C   0  0  0  0  0  0  0  0  0  0  0  0
  133.7190   72.1660  226.4960 C   0  0  0  0  0  0  0  0  0  0  0  0
  133.8420   70.8150  226.7920 C   0  0  0  0  0  0  0  0  0  0  0  0
  134.6110   70.0610  225.9250 C   0  0  0  0  0  0  0  0  0  0  0  0
  135.2340   70.6170  224.8120 C   0  0  0  0  0  0  0  0  0  0  0  0
  135.1000   71.9690  224.5300 C   0  0  0  0  0  0  0  0  0  0  0  0
  135.0020   74.7380  224.0600 C   0  0  0  0  0  0  0  0  0  0  0  0
  134.4810   74.4490  222.6640 C   0  0  0  0  0  0  0  0  0  0  0  0
  135.1950   75.3950  221.7210 C   0  0  0  0  0  0  0  0  0  0  0  0
  136.4530   75.7500  222.3500 N   0  0  0  0  0  0  0  0  0  0  0  0
  137.6980   75.2200  221.9220 C   0  0  0  0  0  0  0  0  0  0  0  0
  137.7110   74.4080  220.9750 O   0  0  0  0  0  0  0  0  0  0  0  0
  138.9750   75.6050  222.5680 C   0  0  1  0  0  0  0  0  0  0  0  0
  139.9270   74.5060  222.3380 N   0  0  0  0  0  0  0  0  0  0  0  0
  139.5300   76.7760  221.7620 C   0  0  1  0  0  0  0  0  0  0  0  0
  139.5920   78.0400  222.4960 C   0  0  0  0  0  0  0  0  0  0  0  0
  138.8810   79.0770  223.0950 C   0  0  0  0  0  0  0  0  0  0  0  0
  139.5640   80.1300  223.7000 C   0  0  0  0  0  0  0  0  0  0  0  0
  140.9440   80.1110  223.6850 C   0  0  0  0  0  0  0  0  0  0  0  0
  141.6660   79.0750  223.0870 C   0  0  0  0  0  0  0  0  0  0  0  0
  140.9410   78.0440  222.4950 C   0  0  0  0  0  0  0  0  0  0  0  0
  141.0060   76.7780  221.7700 C   0  0  2  0  0  0  0  0  0  0  0  0
  141.7120   76.8560  220.4600 C   0  0  0  0  0  0  0  0  0  0  0  0
  141.5880   78.0680  219.7770 C   0  0  0  0  0  0  0  0  0  0  0  0
  142.1860   78.2780  218.5590 C   0  0  0  0  0  0  0  0  0  0  0  0
  142.9430   77.2580  217.9740 C   0  0  0  0  0  0  0  0  0  0  0  0
  143.0580   76.0660  218.6590 C   0  0  0  0  0  0  0  0  0  0  0  0
  142.4420   75.8660  219.9000 C   0  0  0  0  0  0  0  0  0  0  0  0
  136.3490   76.6890  223.4770 C   0  0  0  0  0  0  0  0  0  0  0  0
  135.0850   76.2360  224.2240 C   0  0  0  0  0  0  0  0  0  0  0  0
  131.5705   75.3724  227.3892 H   0  0  0  0  0  0  0  0  0  0  0  0
  130.5441   76.4639  226.3984 H   0  0  0  0  0  0  0  0  0  0  0  0
  130.2343   74.6946  226.3984 H   0  0  0  0  0  0  0  0  0  0  0  0
  131.5788   74.5337  224.5950 H   0  0  0  0  0  0  0  0  0  0  0  0
  132.0548   76.2489  224.7257 H   0  0  0  0  0  0  0  0  0  0  0  0
  133.1153   72.8001  227.1620 H   0  0  0  0  0  0  0  0  0  0  0  0
  133.3532   70.3680  227.6703 H   0  0  0  0  0  0  0  0  0  0  0  0
  134.7344   68.9858  226.1217 H   0  0  0  0  0  0  0  0  0  0  0  0
  135.8380   69.9792  224.1499 H   0  0  0  0  0  0  0  0  0  0  0  0
  135.5879   72.4164  223.6515 H   0  0  0  0  0  0  0  0  0  0  0  0
  136.0041   74.3001  224.1786 H   0  0  0  0  0  0  0  0  0  0  0  0
  134.6970   73.4062  222.3884 H   0  0  0  0  0  0  0  0  0  0  0  0
  133.3915   74.5923  222.6138 H   0  0  0  0  0  0  0  0  0  0  0  0
  135.3812   74.8987  220.7571 H   0  0  0  0  0  0  0  0  0  0  0  0
  134.5862   76.2904  221.5271 H   0  0  0  0  0  0  0  0  0  0  0  0
  138.8334   75.8326  223.6348 H   0  0  0  0  0  0  0  0  0  0  0  0
  139.6530   73.6630  222.9240 H   0  0  0  0  0  0  0  0  0  0  0  0
  139.8190   74.1540  221.3410 H   0  0  0  0  0  0  0  0  0  0  0  0
  138.9288   76.6892  220.8449 H   0  0  0  0  0  0  0  0  0  0  0  0
  137.7811   79.0647  223.0905 H   0  0  0  0  0  0  0  0  0  0  0  0
  139.0169   80.9561  224.1778 H   0  0  0  0  0  0  0  0  0  0  0  0
  141.4930   80.9380  224.1590 H   0  0  0  0  0  0  0  0  0  0  0  0
  142.7660   79.0738  223.0840 H   0  0  0  0  0  0  0  0  0  0  0  0
  141.5527   75.8988  222.1417 H   0  0  0  0  0  0  0  0  0  0  0  0
  140.9945   78.8771  220.2276 H   0  0  0  0  0  0  0  0  0  0  0  0
  142.0702   79.2440  218.0458 H   0  0  0  0  0  0  0  0  0  0  0  0
  143.4312   77.4015  216.9988 H   0  0  0  0  0  0  0  0  0  0  0  0
  143.6499   75.2505  218.2179 H   0  0  0  0  0  0  0  0  0  0  0  0
  142.5521   74.9027  220.4196 H   0  0  0  0  0  0  0  0  0  0  0  0
  137.2335   76.6188  224.1272 H   0  0  0  0  0  0  0  0  0  0  0  0
  136.2941   77.7379  223.1500 H   0  0  0  0  0  0  0  0  0  0  0  0
  135.1595   76.4978  225.2898 H   0  0  0  0  0  0  0  0  0  0  0  0
  134.1879   76.7298  223.8223 H   0  0  0  0  0  0  0  0  0  0  0  0
  1  2  1  0
  2  3  1  0
  3  4  2  0
  3  5  1  0
  5  6  1  0
  6  7  2  0
  7  8  1  0
  8  9  2  0
  9 10  1  0
 10 11  2  0
  5 12  1  0
 12 13  1  0
 13 14  1  0
 14 15  1  0
 15 16  1  0
 16 17  2  0
 16 18  1  0
 18 19  1  0
 18 20  1  0
 20 21  1  0
 21 22  2  0
 22 23  1  0
 23 24  2  0
 24 25  1  0
 25 26  2  0
 26 27  1  0
 27 28  1  0
 28 29  2  0
 29 30  1  0
 30 31  2  0
 31 32  1  0
 32 33  2  0
 15 34  1  0
 34 35  1  0
 11  6  1  0
 35 12  1  0
 27 20  1  0
 33 28  1  0
 26 21  1  0
  1 36  1  0
  1 37  1  0
  1 38  1  0
  2 39  1  0
  2 40  1  0
  7 41  1  0
  8 42  1  0
  9 43  1  0
 10 44  1  0
 11 45  1  0
 12 46  1  0
 13 47  1  0
 13 48  1  0
 14 49  1  0
 14 50  1  0
 18 51  1  1
 19 52  1  0
 19 53  1  0
 20 54  1  6
 22 55  1  0
 23 56  1  0
 24 57  1  0
 25 58  1  0
 27 59  1  1
 29 60  1  0
 30 61  1  0
 31 62  1  0
 32 63  1  0
 33 64  1  0
 34 65  1  0
 34 66  1  0
 35 67  1  0
 35 68  1  0
M  END
>  <smiles>  (83) 
CCC(=O)N(c1ccccc1)C1CCN(C(=O)[C@@H](N)C2c3ccccc3C2c2ccccc2)CC1

>  <score_type>  (83) 
oracle

>  <origin>  (83) 
autodockgpu

>  <m_score__min__energy>  (83) 
-9.7300000000000004

>  <m_primary>  (83) 
energy

>  <rmsd>  (83) 
7.962348613217591

>  <m_score__min__rmsd>  (83) 
7.962348613217591

>  <meeko>  (83) 
{"free_energy": -7.87, "intermolecular_energy": -10.26, "internal_energy": -3.04, "cluster_size": 6, "cluster_id": 6, "rank_in_cluster": 5}

>  <energy>  (83) 
-7.91

>  <cluster_rmsd>  (83) 
0.31

>  <cluster>  (83) 
6

$$$$

     RDKit          3D

 68 72  0  0  0  0  0  0  0  0999 V2000
  141.4520   67.7790  226.6100 C   0  0  0  0  0  0  0  0  0  0  0  0
  139.9420   67.7700  226.6660 C   0  0  0  0  0  0  0  0  0  0  0  0
  139.4360   68.3910  225.4170 C   0  0  0  0  0  0  0  0  0  0  0  0
  138.8450   67.6180  224.5930 O   0  0  0  0  0  0  0  0  0  0  0  0
  139.5840   69.7760  225.1240 N   0  0  0  0  0  0  0  0  0  0  0  0
  140.1490   70.5950  226.1250 C   0  0  0  0  0  0  0  0  0  0  0  0
  139.7220   70.6030  227.4380 C   0  0  0  0  0  0  0  0  0  0  0  0
  140.2940   71.4170  228.4070 C   0  0  0  0  0  0  0  0  0  0  0  0
  141.3290   72.2350  227.9920 C   0  0  0  0  0  0  0  0  0  0  0  0
  141.7800   72.2490  226.6760 C   0  0  0  0  0  0  0  0  0  0  0  0
  141.1980   71.4290  225.7210 C   0  0  0  0  0  0  0  0  0  0  0  0
  139.1530   70.2850  223.8600 C   0  0  0  0  0  0  0  0  0  0  0  0
  139.2840   69.2610  222.7470 C   0  0  0  0  0  0  0  0  0  0  0  0
  138.5230   69.8030  221.5550 C   0  0  0  0  0  0  0  0  0  0  0  0
  138.4920   71.2460  221.6940 N   0  0  0  0  0  0  0  0  0  0  0  0
  139.2980   72.1080  220.9060 C   0  0  0  0  0  0  0  0  0  0  0  0
  140.0730   71.6030  220.0680 O   0  0  0  0  0  0  0  0  0  0  0  0
  139.2430   73.5810  221.0510 C   0  0  1  0  0  0  0  0  0  0  0  0
  139.5770   73.8920  222.4510 N   0  0  0  0  0  0  0  0  0  0  0  0
  140.4090   74.1380  220.2400 C   0  0  1  0  0  0  0  0  0  0  0  0
  140.2900   75.5570  219.9040 C   0  0  0  0  0  0  0  0  0  0  0  0
  139.6080   76.5300  219.1770 C   0  0  0  0  0  0  0  0  0  0  0  0
  139.9970   77.8650  219.2660 C   0  0  0  0  0  0  0  0  0  0  0  0
  141.0620   78.1840  220.0840 C   0  0  0  0  0  0  0  0  0  0  0  0
  141.7520   77.2150  220.8180 C   0  0  0  0  0  0  0  0  0  0  0  0
  141.3270   75.8950  220.6980 C   0  0  0  0  0  0  0  0  0  0  0  0
  141.5390   74.5110  221.1150 C   0  0  2  0  0  0  0  0  0  0  0  0
  142.8870   73.9700  220.7850 C   0  0  0  0  0  0  0  0  0  0  0  0
  143.0080   72.5790  220.8260 C   0  0  0  0  0  0  0  0  0  0  0  0
  144.1930   71.9460  220.5450 C   0  0  0  0  0  0  0  0  0  0  0  0
  145.3200   72.7020  220.2060 C   0  0  0  0  0  0  0  0  0  0  0  0
  145.1870   74.0750  220.1690 C   0  0  0  0  0  0  0  0  0  0  0  0
  143.9720   74.7070  220.4590 C   0  0  0  0  0  0  0  0  0  0  0  0
  137.5740   71.7600  222.7220 C   0  0  0  0  0  0  0  0  0  0  0  0
  137.7220   70.7640  223.8830 C   0  0  0  0  0  0  0  0  0  0  0  0
  141.8568   67.7814  227.6328 H   0  0  0  0  0  0  0  0  0  0  0  0
  141.8045   66.8829  226.0782 H   0  0  0  0  0  0  0  0  0  0  0  0
  141.7938   68.6792  226.0782 H   0  0  0  0  0  0  0  0  0  0  0  0
  139.5770   66.7352  226.7435 H   0  0  0  0  0  0  0  0  0  0  0  0
  139.5876   68.3305  227.5437 H   0  0  0  0  0  0  0  0  0  0  0  0
  138.8954   69.9378  227.7283 H   0  0  0  0  0  0  0  0  0  0  0  0
  139.9425   71.4114  229.4493 H   0  0  0  0  0  0  0  0  0  0  0  0
  141.8115   72.8964  228.7267 H   0  0  0  0  0  0  0  0  0  0  0  0
  142.6061   72.9168  226.3903 H   0  0  0  0  0  0  0  0  0  0  0  0
  141.5497   71.4338  224.6787 H   0  0  0  0  0  0  0  0  0  0  0  0
  139.8213   71.1358  223.6614 H   0  0  0  0  0  0  0  0  0  0  0  0
  140.3433   69.1197  222.4864 H   0  0  0  0  0  0  0  0  0  0  0  0
  138.8806   68.2868  223.0604 H   0  0  0  0  0  0  0  0  0  0  0  0
  139.0339   69.5240  220.6217 H   0  0  0  0  0  0  0  0  0  0  0  0
  137.5043   69.3896  221.5179 H   0  0  0  0  0  0  0  0  0  0  0  0
  138.2642   73.9791  220.7452 H   0  0  0  0  0  0  0  0  0  0  0  0
  138.8650   74.5740  222.8490 H   0  0  0  0  0  0  0  0  0  0  0  0
  139.4360   73.0220  223.0450 H   0  0  0  0  0  0  0  0  0  0  0  0
  140.4804   73.3784  219.4476 H   0  0  0  0  0  0  0  0  0  0  0  0
  138.7630   76.2447  218.5331 H   0  0  0  0  0  0  0  0  0  0  0  0
  139.4685   78.6452  218.6985 H   0  0  0  0  0  0  0  0  0  0  0  0
  141.3780   79.2348  220.1608 H   0  0  0  0  0  0  0  0  0  0  0  0
  142.5988   77.4854  221.4659 H   0  0  0  0  0  0  0  0  0  0  0  0
  141.5440   74.1933  222.1681 H   0  0  0  0  0  0  0  0  0  0  0  0
  142.1286   71.9737  221.0910 H   0  0  0  0  0  0  0  0  0  0  0  0
  144.2562   70.8486  220.5862 H   0  0  0  0  0  0  0  0  0  0  0  0
  146.2807   72.2179  219.9764 H   0  0  0  0  0  0  0  0  0  0  0  0
  146.0598   74.6899  219.9043 H   0  0  0  0  0  0  0  0  0  0  0  0
  143.9003   75.8040  220.4215 H   0  0  0  0  0  0  0  0  0  0  0  0
  137.8661   72.7730  223.0360 H   0  0  0  0  0  0  0  0  0  0  0  0
  136.5376   71.8406  222.3624 H   0  0  0  0  0  0  0  0  0  0  0  0
  137.5034   71.2610  224.8397 H   0  0  0  0  0  0  0  0  0  0  0  0
  137.0204   69.9235  223.7766 H   0  0  0  0  0  0  0  0  0  0  0  0
  1  2  1  0
  2  3  1  0
  3  4  2  0
  3  5  1  0
  5  6  1  0
  6  7  2  0
  7  8  1  0
  8  9  2  0
  9 10  1  0
 10 11  2  0
  5 12  1  0
 12 13  1  0
 13 14  1  0
 14 15  1  0
 15 16  1  0
 16 17  2  0
 16 18  1  0
 18 19  1  0
 18 20  1  0
 20 21  1  0
 21 22  2  0
 22 23  1  0
 23 24  2  0
 24 25  1  0
 25 26  2  0
 26 27  1  0
 27 28  1  0
 28 29  2  0
 29 30  1  0
 30 31  2  0
 31 32  1  0
 32 33  2  0
 15 34  1  0
 34 35  1  0
 11  6  1  0
 35 12  1  0
 27 20  1  0
 33 28  1  0
 26 21  1  0
  1 36  1  0
  1 37  1  0
  1 38  1  0
  2 39  1  0
  2 40  1  0
  7 41  1  0
  8 42  1  0
  9 43  1  0
 10 44  1  0
 11 45  1  0
 12 46  1  0
 13 47  1  0
 13 48  1  0
 14 49  1  0
 14 50  1  0
 18 51  1  6
 19 52  1  0
 19 53  1  0
 20 54  1  6
 22 55  1  0
 23 56  1  0
 24 57  1  0
 25 58  1  0
 27 59  1  1
 29 60  1  0
 30 61  1  0
 31 62  1  0
 32 63  1  0
 33 64  1  0
 34 65  1  0
 34 66  1  0
 35 67  1  0
 35 68  1  0
M  END
>  <smiles>  (84) 
CCC(=O)N(c1ccccc1)C1CCN(C(=O)[C@@H](N)C2c3ccccc3C2c2ccccc2)CC1

>  <score_type>  (84) 
oracle

>  <origin>  (84) 
autodockgpu

>  <m_score__min__energy>  (84) 
-9.7300000000000004

>  <m_primary>  (84) 
energy

>  <rmsd>  (84) 
7.577481692997065

>  <m_score__min__rmsd>  (84) 
7.577481692997065

>  <meeko>  (84) 
{"free_energy": -9.73, "intermolecular_energy": -12.12, "internal_energy": -1.94, "cluster_size": 2, "cluster_id": 1, "rank_in_cluster": 1}

>  <energy>  (84) 
-7.87

>  <cluster_rmsd>  (84) 
0.33

>  <cluster>  (84) 
6

$$$$

     RDKit          3D

 68 72  0  0  0  0  0  0  0  0999 V2000
  146.3450   73.0670  221.8810 C   0  0  0  0  0  0  0  0  0  0  0  0
  145.6620   73.9310  220.8460 C   0  0  0  0  0  0  0  0  0  0  0  0
  145.2640   73.0580  219.7150 C   0  0  0  0  0  0  0  0  0  0  0  0
  145.8740   73.2420  218.6090 O   0  0  0  0  0  0  0  0  0  0  0  0
  144.2590   72.0570  219.8220 N   0  0  0  0  0  0  0  0  0  0  0  0
  144.6630   70.7120  219.6720 C   0  0  0  0  0  0  0  0  0  0  0  0
  143.8230   69.6350  219.8760 C   0  0  0  0  0  0  0  0  0  0  0  0
  144.2430   68.3200  219.7210 C   0  0  0  0  0  0  0  0  0  0  0  0
  145.5600   68.1330  219.3460 C   0  0  0  0  0  0  0  0  0  0  0  0
  146.4280   69.1990  219.1330 C   0  0  0  0  0  0  0  0  0  0  0  0
  145.9940   70.5060  219.2920 C   0  0  0  0  0  0  0  0  0  0  0  0
  142.9010   72.4340  220.0600 C   0  0  0  0  0  0  0  0  0  0  0  0
  142.7570   73.9110  220.3780 C   0  0  0  0  0  0  0  0  0  0  0  0
  141.2800   74.2390  220.3010 C   0  0  0  0  0  0  0  0  0  0  0  0
  140.5610   73.0060  220.5560 N   0  0  0  0  0  0  0  0  0  0  0  0
  139.9020   72.7460  221.7870 C   0  0  0  0  0  0  0  0  0  0  0  0
  139.9550   73.6070  222.6880 O   0  0  0  0  0  0  0  0  0  0  0  0
  139.1590   71.4860  222.0250 C   0  0  1  0  0  0  0  0  0  0  0  0
  140.1410   70.3900  221.9900 N   0  0  0  0  0  0  0  0  0  0  0  0
  138.6810   71.5350  223.4730 C   0  0  1  0  0  0  0  0  0  0  0  0
  137.3530   70.9630  223.6920 C   0  0  0  0  0  0  0  0  0  0  0  0
  135.9830   71.0760  223.4690 C   0  0  0  0  0  0  0  0  0  0  0  0
  135.1120   70.1220  223.9910 C   0  0  0  0  0  0  0  0  0  0  0  0
  135.6440   69.0800  224.7230 C   0  0  0  0  0  0  0  0  0  0  0  0
  137.0170   68.9570  224.9520 C   0  0  0  0  0  0  0  0  0  0  0  0
  137.8480   69.9340  224.4110 C   0  0  0  0  0  0  0  0  0  0  0  0
  139.2230   70.4040  224.2520 C   0  0  2  0  0  0  0  0  0  0  0  0
  139.9190   70.7070  225.5350 C   0  0  0  0  0  0  0  0  0  0  0  0
  139.7160   69.7880  226.5670 C   0  0  0  0  0  0  0  0  0  0  0  0
  140.2960   69.9450  227.8010 C   0  0  0  0  0  0  0  0  0  0  0  0
  141.1160   71.0500  228.0460 C   0  0  0  0  0  0  0  0  0  0  0  0
  141.3080   71.9510  227.0180 C   0  0  0  0  0  0  0  0  0  0  0  0
  140.7100   71.7790  225.7650 C   0  0  0  0  0  0  0  0  0  0  0  0
  140.5700   72.0320  219.4540 C   0  0  0  0  0  0  0  0  0  0  0  0
  141.9980   72.1200  218.8930 C   0  0  0  0  0  0  0  0  0  0  0  0
  146.0703   73.4145  222.8878 H   0  0  0  0  0  0  0  0  0  0  0  0
  146.0263   72.0218  221.7542 H   0  0  0  0  0  0  0  0  0  0  0  0
  147.4355   73.1358  221.7542 H   0  0  0  0  0  0  0  0  0  0  0  0
  144.7712   74.4051  221.2837 H   0  0  0  0  0  0  0  0  0  0  0  0
  146.3419   74.7227  220.4984 H   0  0  0  0  0  0  0  0  0  0  0  0
  142.7811   69.8258  220.1727 H   0  0  0  0  0  0  0  0  0  0  0  0
  143.5628   67.4718  219.8880 H   0  0  0  0  0  0  0  0  0  0  0  0
  145.9342   67.1074  219.2115 H   0  0  0  0  0  0  0  0  0  0  0  0
  147.4687   69.0030  218.8355 H   0  0  0  0  0  0  0  0  0  0  0  0
  146.6742   71.3541  219.1248 H   0  0  0  0  0  0  0  0  0  0  0  0
  142.5949   71.8362  220.9312 H   0  0  0  0  0  0  0  0  0  0  0  0
  143.1378   74.1186  221.3889 H   0  0  0  0  0  0  0  0  0  0  0  0
  143.3325   74.5232  219.6681 H   0  0  0  0  0  0  0  0  0  0  0  0
  141.0198   74.9924  221.0591 H   0  0  0  0  0  0  0  0  0  0  0  0
  141.0189   74.6503  219.3148 H   0  0  0  0  0  0  0  0  0  0  0  0
  138.3449   71.3549  221.2970 H   0  0  0  0  0  0  0  0  0  0  0  0
  140.1380   69.9330  221.0300 H   0  0  0  0  0  0  0  0  0  0  0  0
  141.1210   70.7960  222.0610 H   0  0  0  0  0  0  0  0  0  0  0  0
  138.8828   72.5892  223.7139 H   0  0  0  0  0  0  0  0  0  0  0  0
  135.5888   71.9180  222.8811 H   0  0  0  0  0  0  0  0  0  0  0  0
  134.0274   70.1975  223.8238 H   0  0  0  0  0  0  0  0  0  0  0  0
  134.9650   68.3215  225.1398 H   0  0  0  0  0  0  0  0  0  0  0  0
  137.4255   68.1201  225.5374 H   0  0  0  0  0  0  0  0  0  0  0  0
  140.0275   69.7842  223.8293 H   0  0  0  0  0  0  0  0  0  0  0  0
  139.0733   68.9139  226.3857 H   0  0  0  0  0  0  0  0  0  0  0  0
  140.1162   69.2041  228.5940 H   0  0  0  0  0  0  0  0  0  0  0  0
  141.5929   71.1969  229.0263 H   0  0  0  0  0  0  0  0  0  0  0  0
  141.9489   72.8285  227.1887 H   0  0  0  0  0  0  0  0  0  0  0  0
  140.8834   72.5159  224.9670 H   0  0  0  0  0  0  0  0  0  0  0  0
  140.3575   71.0188  219.8257 H   0  0  0  0  0  0  0  0  0  0  0  0
  139.8027   72.2439  218.6948 H   0  0  0  0  0  0  0  0  0  0  0  0
  142.2864   71.1614  218.4371 H   0  0  0  0  0  0  0  0  0  0  0  0
  142.0715   72.8942  218.1150 H   0  0  0  0  0  0  0  0  0  0  0  0
  1  2  1  0
  2  3  1  0
  3  4  2  0
  3  5  1  0
  5  6  1  0
  6  7  2  0
  7  8  1  0
  8  9  2  0
  9 10  1  0
 10 11  2  0
  5 12  1  0
 12 13  1  0
 13 14  1  0
 14 15  1  0
 15 16  1  0
 16 17  2  0
 16 18  1  0
 18 19  1  0
 18 20  1  0
 20 21  1  0
 21 22  2  0
 22 23  1  0
 23 24  2  0
 24 25  1  0
 25 26  2  0
 26 27  1  0
 27 28  1  0
 28 29  2  0
 29 30  1  0
 30 31  2  0
 31 32  1  0
 32 33  2  0
 15 34  1  0
 34 35  1  0
 11  6  1  0
 35 12  1  0
 27 20  1  0
 33 28  1  0
 26 21  1  0
  1 36  1  0
  1 37  1  0
  1 38  1  0
  2 39  1  0
  2 40  1  0
  7 41  1  0
  8 42  1  0
  9 43  1  0
 10 44  1  0
 11 45  1  0
 12 46  1  0
 13 47  1  0
 13 48  1  0
 14 49  1  0
 14 50  1  0
 18 51  1  6
 19 52  1  0
 19 53  1  0
 20 54  1  1
 22 55  1  0
 23 56  1  0
 24 57  1  0
 25 58  1  0
 27 59  1  6
 29 60  1  0
 30 61  1  0
 31 62  1  0
 32 63  1  0
 33 64  1  0
 34 65  1  0
 34 66  1  0
 35 67  1  0
 35 68  1  0
M  END
>  <smiles>  (85) 
CCC(=O)N(c1ccccc1)C1CCN(C(=O)[C@@H](N)C2c3ccccc3C2c2ccccc2)CC1

>  <score_type>  (85) 
oracle

>  <origin>  (85) 
autodockgpu

>  <m_score__min__energy>  (85) 
-9.7300000000000004

>  <m_primary>  (85) 
energy

>  <rmsd>  (85) 
4.1033127250166395

>  <m_score__min__rmsd>  (85) 
4.1033127250166395

>  <meeko>  (85) 
{"free_energy": -9.18, "intermolecular_energy": -11.56, "internal_energy": -2.21, "cluster_size": 1, "cluster_id": 3, "rank_in_cluster": 1}

>  <energy>  (85) 
-7.82

>  <cluster_rmsd>  (85) 
0.4

>  <cluster>  (85) 
6

$$$$

     RDKit          3D

 68 72  0  0  0  0  0  0  0  0999 V2000
  136.3230   69.5780  224.9640 C   0  0  0  0  0  0  0  0  0  0  0  0
  136.9830   69.6810  223.6090 C   0  0  0  0  0  0  0  0  0  0  0  0
  138.4450   69.5230  223.8000 C   0  0  0  0  0  0  0  0  0  0  0  0
  138.9100   68.3390  223.7030 O   0  0  0  0  0  0  0  0  0  0  0  0
  139.3140   70.6150  224.0760 N   0  0  0  0  0  0  0  0  0  0  0  0
  139.8740   70.6880  225.3710 C   0  0  0  0  0  0  0  0  0  0  0  0
  139.7230   69.7010  226.3250 C   0  0  0  0  0  0  0  0  0  0  0  0
  140.2840   69.7940  227.5930 C   0  0  0  0  0  0  0  0  0  0  0  0
  141.0140   70.9370  227.8610 C   0  0  0  0  0  0  0  0  0  0  0  0
  141.1830   71.9470  226.9200 C   0  0  0  0  0  0  0  0  0  0  0  0
  140.6160   71.8390  225.6580 C   0  0  0  0  0  0  0  0  0  0  0  0
  139.5770   71.5900  223.0650 C   0  0  0  0  0  0  0  0  0  0  0  0
  141.0540   71.6960  222.7320 C   0  0  0  0  0  0  0  0  0  0  0  0
  141.1650   72.5120  221.4610 C   0  0  0  0  0  0  0  0  0  0  0  0
  139.9820   73.3470  221.3920 N   0  0  0  0  0  0  0  0  0  0  0  0
  140.0120   74.7400  221.6660 C   0  0  0  0  0  0  0  0  0  0  0  0
  141.0970   75.2640  221.9900 O   0  0  0  0  0  0  0  0  0  0  0  0
  138.7950   75.5810  221.5760 C   0  0  1  0  0  0  0  0  0  0  0  0
  138.2670   75.7270  222.9420 N   0  0  0  0  0  0  0  0  0  0  0  0
  139.2660   76.9800  221.1880 C   0  0  1  0  0  0  0  0  0  0  0  0
  138.3070   77.7410  220.3880 C   0  0  0  0  0  0  0  0  0  0  0  0
  137.6450   77.8680  219.1690 C   0  0  0  0  0  0  0  0  0  0  0  0
  136.7510   78.9170  218.9690 C   0  0  0  0  0  0  0  0  0  0  0  0
  136.5480   79.8110  220.0000 C   0  0  0  0  0  0  0  0  0  0  0  0
  137.2070   79.6930  221.2270 C   0  0  0  0  0  0  0  0  0  0  0  0
  138.0900   78.6280  221.3810 C   0  0  0  0  0  0  0  0  0  0  0  0
  139.0210   77.9460  222.2770 C   0  0  2  0  0  0  0  0  0  0  0  0
  140.1630   78.7890  222.7340 C   0  0  0  0  0  0  0  0  0  0  0  0
  141.4330   78.3410  222.3630 C   0  0  0  0  0  0  0  0  0  0  0  0
  142.5720   79.0190  222.7160 C   0  0  0  0  0  0  0  0  0  0  0  0
  142.4740   80.1930  223.4690 C   0  0  0  0  0  0  0  0  0  0  0  0
  141.2140   80.6250  223.8290 C   0  0  0  0  0  0  0  0  0  0  0  0
  140.0610   79.9230  223.4620 C   0  0  0  0  0  0  0  0  0  0  0  0
  138.7390   72.6490  221.0310 C   0  0  0  0  0  0  0  0  0  0  0  0
  138.8320   71.3120  221.7820 C   0  0  0  0  0  0  0  0  0  0  0  0
  137.0819   69.6964  225.7514 H   0  0  0  0  0  0  0  0  0  0  0  0
  135.5648   70.3687  225.0636 H   0  0  0  0  0  0  0  0  0  0  0  0
  135.8418   68.5939  225.0636 H   0  0  0  0  0  0  0  0  0  0  0  0
  136.6047   68.8874  222.9479 H   0  0  0  0  0  0  0  0  0  0  0  0
  136.7602   70.6544  223.1477 H   0  0  0  0  0  0  0  0  0  0  0  0
  139.1357   68.8062  226.0713 H   0  0  0  0  0  0  0  0  0  0  0  0
  140.1541   69.0004  228.3435 H   0  0  0  0  0  0  0  0  0  0  0  0
  141.4770   71.0515  228.8522 H   0  0  0  0  0  0  0  0  0  0  0  0
  141.7715   72.8397  227.1784 H   0  0  0  0  0  0  0  0  0  0  0  0
  140.7457   72.6327  224.9075 H   0  0  0  0  0  0  0  0  0  0  0  0
  139.2250   72.5389  223.4960 H   0  0  0  0  0  0  0  0  0  0  0  0
  141.5906   72.1976  223.5508 H   0  0  0  0  0  0  0  0  0  0  0  0
  141.4982   70.6987  222.5977 H   0  0  0  0  0  0  0  0  0  0  0  0
  142.0688   73.1383  221.4913 H   0  0  0  0  0  0  0  0  0  0  0  0
  141.2379   71.8589  220.5789 H   0  0  0  0  0  0  0  0  0  0  0  0
  138.0610   75.1542  220.8766 H   0  0  0  0  0  0  0  0  0  0  0  0
  137.6220   74.9140  223.1680 H   0  0  0  0  0  0  0  0  0  0  0  0
  139.0610   75.6080  223.6380 H   0  0  0  0  0  0  0  0  0  0  0  0
  140.2672   76.7513  220.7939 H   0  0  0  0  0  0  0  0  0  0  0  0
  137.8282   77.1402  218.3648 H   0  0  0  0  0  0  0  0  0  0  0  0
  136.2198   79.0300  218.0124 H   0  0  0  0  0  0  0  0  0  0  0  0
  135.8447   80.6437  219.8516 H   0  0  0  0  0  0  0  0  0  0  0  0
  137.0345   80.4140  222.0397 H   0  0  0  0  0  0  0  0  0  0  0  0
  138.7390   77.5844  223.2769 H   0  0  0  0  0  0  0  0  0  0  0  0
  141.5223   77.4182  221.7709 H   0  0  0  0  0  0  0  0  0  0  0  0
  143.5580   78.6408  222.4081 H   0  0  0  0  0  0  0  0  0  0  0  0
  143.3726   80.7542  223.7649 H   0  0  0  0  0  0  0  0  0  0  0  0
  141.1134   81.5467  224.4208 H   0  0  0  0  0  0  0  0  0  0  0  0
  139.0711   80.2941  223.7661 H   0  0  0  0  0  0  0  0  0  0  0  0
  137.8593   73.2218  221.3598 H   0  0  0  0  0  0  0  0  0  0  0  0
  138.6275   72.5175  219.9446 H   0  0  0  0  0  0  0  0  0  0  0  0
  137.8245   70.9298  222.0031 H   0  0  0  0  0  0  0  0  0  0  0  0
  139.3506   70.5527  221.1782 H   0  0  0  0  0  0  0  0  0  0  0  0
  1  2  1  0
  2  3  1  0
  3  4  2  0
  3  5  1  0
  5  6  1  0
  6  7  2  0
  7  8  1  0
  8  9  2  0
  9 10  1  0
 10 11  2  0
  5 12  1  0
 12 13  1  0
 13 14  1  0
 14 15  1  0
 15 16  1  0
 16 17  2  0
 16 18  1  0
 18 19  1  0
 18 20  1  0
 20 21  1  0
 21 22  2  0
 22 23  1  0
 23 24  2  0
 24 25  1  0
 25 26  2  0
 26 27  1  0
 27 28  1  0
 28 29  2  0
 29 30  1  0
 30 31  2  0
 31 32  1  0
 32 33  2  0
 15 34  1  0
 34 35  1  0
 11  6  1  0
 35 12  1  0
 27 20  1  0
 33 28  1  0
 26 21  1  0
  1 36  1  0
  1 37  1  0
  1 38  1  0
  2 39  1  0
  2 40  1  0
  7 41  1  0
  8 42  1  0
  9 43  1  0
 10 44  1  0
 11 45  1  0
 12 46  1  0
 13 47  1  0
 13 48  1  0
 14 49  1  0
 14 50  1  0
 18 51  1  6
 19 52  1  0
 19 53  1  0
 20 54  1  6
 22 55  1  0
 23 56  1  0
 24 57  1  0
 25 58  1  0
 27 59  1  1
 29 60  1  0
 30 61  1  0
 31 62  1  0
 32 63  1  0
 33 64  1  0
 34 65  1  0
 34 66  1  0
 35 67  1  0
 35 68  1  0
M  END
>  <smiles>  (86) 
CCC(=O)N(c1ccccc1)C1CCN(C(=O)[C@@H](N)C2c3ccccc3C2c2ccccc2)CC1

>  <score_type>  (86) 
oracle

>  <origin>  (86) 
autodockgpu

>  <m_score__min__energy>  (86) 
-9.7300000000000004

>  <m_primary>  (86) 
energy

>  <rmsd>  (86) 
9.025343222839167

>  <m_score__min__rmsd>  (86) 
9.025343222839167

>  <meeko>  (86) 
{"free_energy": -8.55, "intermolecular_energy": -10.94, "internal_energy": -2.31, "cluster_size": 7, "cluster_id": 4, "rank_in_cluster": 6}

>  <energy>  (86) 
-7.84

>  <cluster_rmsd>  (86) 
0.0

>  <cluster>  (86) 
7

$$$$

     RDKit          3D

 68 72  0  0  0  0  0  0  0  0999 V2000
  138.3820   72.4340  221.0010 C   0  0  0  0  0  0  0  0  0  0  0  0
  139.8270   72.2000  220.6280 C   0  0  0  0  0  0  0  0  0  0  0  0
  140.6730   72.9670  221.5750 C   0  0  0  0  0  0  0  0  0  0  0  0
  140.5760   72.6570  222.8080 O   0  0  0  0  0  0  0  0  0  0  0  0
  141.5570   74.0020  221.1620 N   0  0  0  0  0  0  0  0  0  0  0  0
  142.8680   73.6280  220.7940 C   0  0  0  0  0  0  0  0  0  0  0  0
  143.8650   74.5340  220.4900 C   0  0  0  0  0  0  0  0  0  0  0  0
  145.1480   74.1430  220.1310 C   0  0  0  0  0  0  0  0  0  0  0  0
  145.3890   72.7820  220.0920 C   0  0  0  0  0  0  0  0  0  0  0  0
  144.4050   71.8460  220.3930 C   0  0  0  0  0  0  0  0  0  0  0  0
  143.1280   72.2540  220.7500 C   0  0  0  0  0  0  0  0  0  0  0  0
  141.1080   75.3580  221.1450 C   0  0  0  0  0  0  0  0  0  0  0  0
  140.8120   75.8540  219.7420 C   0  0  0  0  0  0  0  0  0  0  0  0
  140.0650   77.1640  219.8820 C   0  0  0  0  0  0  0  0  0  0  0  0
  140.4340   77.7240  221.1680 N   0  0  0  0  0  0  0  0  0  0  0  0
  141.3230   78.8230  221.2970 C   0  0  0  0  0  0  0  0  0  0  0  0
  141.8170   79.3190  220.2640 O   0  0  0  0  0  0  0  0  0  0  0  0
  141.6780   79.3910  222.6190 C   0  0  1  0  0  0  0  0  0  0  0  0
  142.9980   80.0270  222.4780 N   0  0  0  0  0  0  0  0  0  0  0  0
  140.7120   80.5470  222.8630 C   0  0  1  0  0  0  0  0  0  0  0  0
  140.7430   81.5890  221.8380 C   0  0  0  0  0  0  0  0  0  0  0  0
  141.4700   82.6160  221.2390 C   0  0  0  0  0  0  0  0  0  0  0  0
  140.9120   83.3440  220.1900 C   0  0  0  0  0  0  0  0  0  0  0  0
  139.6370   83.0200  219.7730 C   0  0  0  0  0  0  0  0  0  0  0  0
  138.9000   81.9920  220.3670 C   0  0  0  0  0  0  0  0  0  0  0  0
  139.4990   81.2920  221.4100 C   0  0  0  0  0  0  0  0  0  0  0  0
  139.3540   80.2170  222.3890 C   0  0  2  0  0  0  0  0  0  0  0  0
  138.2180   80.3990  223.3380 C   0  0  0  0  0  0  0  0  0  0  0  0
  138.4720   81.2270  224.4330 C   0  0  0  0  0  0  0  0  0  0  0  0
  137.5170   81.4820  225.3860 C   0  0  0  0  0  0  0  0  0  0  0  0
  136.2500   80.9030  225.2680 C   0  0  0  0  0  0  0  0  0  0  0  0
  136.0120   80.0870  224.1810 C   0  0  0  0  0  0  0  0  0  0  0  0
  136.9960   79.8360  223.2180 C   0  0  0  0  0  0  0  0  0  0  0  0
  139.8320   77.0660  222.3370 C   0  0  0  0  0  0  0  0  0  0  0  0
  139.8700   75.5710  221.9820 C   0  0  0  0  0  0  0  0  0  0  0  0
  138.2841   72.4499  222.0965 H   0  0  0  0  0  0  0  0  0  0  0  0
  138.0484   73.3979  220.5891 H   0  0  0  0  0  0  0  0  0  0  0  0
  137.7613   71.6247  220.5891 H   0  0  0  0  0  0  0  0  0  0  0  0
  140.0627   71.1280  220.7004 H   0  0  0  0  0  0  0  0  0  0  0  0
  140.0139   72.5287  219.5950 H   0  0  0  0  0  0  0  0  0  0  0  0
  143.6334   75.6084  220.5341 H   0  0  0  0  0  0  0  0  0  0  0  0
  145.9312   74.8770  219.8904 H   0  0  0  0  0  0  0  0  0  0  0  0
  146.3925   72.4276  219.8136 H   0  0  0  0  0  0  0  0  0  0  0  0
  144.6415   70.7727  220.3476 H   0  0  0  0  0  0  0  0  0  0  0  0
  142.3446   71.5203  220.9909 H   0  0  0  0  0  0  0  0  0  0  0  0
  141.9437   75.9317  221.5722 H   0  0  0  0  0  0  0  0  0  0  0  0
  141.7511   76.0120  219.1915 H   0  0  0  0  0  0  0  0  0  0  0  0
  140.2128   75.1188  219.1848 H   0  0  0  0  0  0  0  0  0  0  0  0
  140.3528   77.8519  219.0733 H   0  0  0  0  0  0  0  0  0  0  0  0
  138.9782   77.0063  219.8184 H   0  0  0  0  0  0  0  0  0  0  0  0
  141.6549   78.6237  223.4069 H   0  0  0  0  0  0  0  0  0  0  0  0
  143.7450   79.2820  222.3520 H   0  0  0  0  0  0  0  0  0  0  0  0
  143.0320   80.5620  221.5600 H   0  0  0  0  0  0  0  0  0  0  0  0
  140.9478   80.7848  223.9108 H   0  0  0  0  0  0  0  0  0  0  0  0
  142.4840   82.8519  221.5942 H   0  0  0  0  0  0  0  0  0  0  0  0
  141.4738   84.1567  219.7064 H   0  0  0  0  0  0  0  0  0  0  0  0
  139.1864   83.5892  218.9465 H   0  0  0  0  0  0  0  0  0  0  0  0
  137.8846   81.7454  220.0231 H   0  0  0  0  0  0  0  0  0  0  0  0
  139.1071   79.1811  222.1136 H   0  0  0  0  0  0  0  0  0  0  0  0
  139.4654   81.6882  224.5352 H   0  0  0  0  0  0  0  0  0  0  0  0
  137.7476   82.1385  226.2380 H   0  0  0  0  0  0  0  0  0  0  0  0
  135.4677   81.0919  226.0179 H   0  0  0  0  0  0  0  0  0  0  0  0
  135.0219   79.6211  224.0683 H   0  0  0  0  0  0  0  0  0  0  0  0
  136.7743   79.1801  222.3632 H   0  0  0  0  0  0  0  0  0  0  0  0
  140.4195   77.2674  223.2449 H   0  0  0  0  0  0  0  0  0  0  0  0
  138.8141   77.4256  222.5480 H   0  0  0  0  0  0  0  0  0  0  0  0
  139.9223   74.9645  222.8982 H   0  0  0  0  0  0  0  0  0  0  0  0
  138.9645   75.2700  221.4348 H   0  0  0  0  0  0  0  0  0  0  0  0
  1  2  1  0
  2  3  1  0
  3  4  2  0
  3  5  1  0
  5  6  1  0
  6  7  2  0
  7  8  1  0
  8  9  2  0
  9 10  1  0
 10 11  2  0
  5 12  1  0
 12 13  1  0
 13 14  1  0
 14 15  1  0
 15 16  1  0
 16 17  2  0
 16 18  1  0
 18 19  1  0
 18 20  1  0
 20 21  1  0
 21 22  2  0
 22 23  1  0
 23 24  2  0
 24 25  1  0
 25 26  2  0
 26 27  1  0
 27 28  1  0
 28 29  2  0
 29 30  1  0
 30 31  2  0
 31 32  1  0
 32 33  2  0
 15 34  1  0
 34 35  1  0
 11  6  1  0
 35 12  1  0
 27 20  1  0
 33 28  1  0
 26 21  1  0
  1 36  1  0
  1 37  1  0
  1 38  1  0
  2 39  1  0
  2 40  1  0
  7 41  1  0
  8 42  1  0
  9 43  1  0
 10 44  1  0
 11 45  1  0
 12 46  1  0
 13 47  1  0
 13 48  1  0
 14 49  1  0
 14 50  1  0
 18 51  1  1
 19 52  1  0
 19 53  1  0
 20 54  1  1
 22 55  1  0
 23 56  1  0
 24 57  1  0
 25 58  1  0
 27 59  1  6
 29 60  1  0
 30 61  1  0
 31 62  1  0
 32 63  1  0
 33 64  1  0
 34 65  1  0
 34 66  1  0
 35 67  1  0
 35 68  1  0
M  END
>  <smiles>  (87) 
CCC(=O)N(c1ccccc1)C1CCN(C(=O)[C@@H](N)C2c3ccccc3C2c2ccccc2)CC1

>  <score_type>  (87) 
oracle

>  <origin>  (87) 
autodockgpu

>  <m_score__min__energy>  (87) 
-9.7300000000000004

>  <m_primary>  (87) 
energy

>  <rmsd>  (87) 
11.23066528453835

>  <m_score__min__rmsd>  (87) 
11.23066528453835

>  <meeko>  (87) 
{"free_energy": -7.7, "intermolecular_energy": -10.08, "internal_energy": -3.31, "cluster_size": 11, "cluster_id": 7, "rank_in_cluster": 10}

>  <energy>  (87) 
-7.83

>  <cluster_rmsd>  (87) 
0.3

>  <cluster>  (87) 
7

$$$$

     RDKit          3D

 68 72  0  0  0  0  0  0  0  0999 V2000
  135.6100   68.7850  223.2220 C   0  0  0  0  0  0  0  0  0  0  0  0
  137.0940   68.8560  223.4990 C   0  0  0  0  0  0  0  0  0  0  0  0
  137.3800   70.1740  224.1160 C   0  0  0  0  0  0  0  0  0  0  0  0
  136.3930   70.7820  224.6490 O   0  0  0  0  0  0  0  0  0  0  0  0
  138.6770   70.7590  224.1330 N   0  0  0  0  0  0  0  0  0  0  0  0
  139.4440   70.6050  225.3080 C   0  0  0  0  0  0  0  0  0  0  0  0
  140.3790   71.5270  225.7370 C   0  0  0  0  0  0  0  0  0  0  0  0
  141.1220   71.3540  226.8970 C   0  0  0  0  0  0  0  0  0  0  0  0
  140.8810   70.2000  227.6180 C   0  0  0  0  0  0  0  0  0  0  0  0
  139.9460   69.2540  227.2110 C   0  0  0  0  0  0  0  0  0  0  0  0
  139.2120   69.4410  226.0490 C   0  0  0  0  0  0  0  0  0  0  0  0
  139.1480   71.4790  222.9910 C   0  0  0  0  0  0  0  0  0  0  0  0
  140.3190   70.7910  222.3150 C   0  0  0  0  0  0  0  0  0  0  0  0
  140.5180   71.4680  220.9750 C   0  0  0  0  0  0  0  0  0  0  0  0
  139.9780   72.8090  221.0960 N   0  0  0  0  0  0  0  0  0  0  0  0
  140.8030   73.9580  221.2080 C   0  0  0  0  0  0  0  0  0  0  0  0
  142.0420   73.8090  221.2140 O   0  0  0  0  0  0  0  0  0  0  0  0
  140.2340   75.3230  221.3170 C   0  0  1  0  0  0  0  0  0  0  0  0
  139.6840   75.4570  222.6750 N   0  0  0  0  0  0  0  0  0  0  0  0
  141.4160   76.2870  221.2770 C   0  0  1  0  0  0  0  0  0  0  0  0
  142.1280   76.3200  220.0000 C   0  0  0  0  0  0  0  0  0  0  0  0
  142.9410   75.6360  219.1000 C   0  0  0  0  0  0  0  0  0  0  0  0
  143.3480   76.2560  217.9200 C   0  0  0  0  0  0  0  0  0  0  0  0
  142.9250   77.5470  217.6780 C   0  0  0  0  0  0  0  0  0  0  0  0
  142.1090   78.2420  218.5750 C   0  0  0  0  0  0  0  0  0  0  0  0
  141.7270   77.5820  219.7400 C   0  0  0  0  0  0  0  0  0  0  0  0
  140.9710   77.6650  220.9880 C   0  0  2  0  0  0  0  0  0  0  0  0
  141.4180   78.7510  221.9050 C   0  0  0  0  0  0  0  0  0  0  0  0
  141.4440   78.4240  223.2630 C   0  0  0  0  0  0  0  0  0  0  0  0
  141.8340   79.3290  224.2190 C   0  0  0  0  0  0  0  0  0  0  0  0
  142.2180   80.6180  223.8370 C   0  0  0  0  0  0  0  0  0  0  0  0
  142.1870   80.9280  222.4920 C   0  0  0  0  0  0  0  0  0  0  0  0
  141.7870   79.9950  221.5290 C   0  0  0  0  0  0  0  0  0  0  0  0
  138.5100   72.8980  221.1090 C   0  0  0  0  0  0  0  0  0  0  0  0
  138.0720   71.6910  221.9540 C   0  0  0  0  0  0  0  0  0  0  0  0
  135.0601   68.7587  224.1743 H   0  0  0  0  0  0  0  0  0  0  0  0
  135.3020   69.6694  222.6450 H   0  0  0  0  0  0  0  0  0  0  0  0
  135.3878   67.8752  222.6450 H   0  0  0  0  0  0  0  0  0  0  0  0
  137.3845   68.0496  224.1885 H   0  0  0  0  0  0  0  0  0  0  0  0
  137.6641   68.7380  222.5657 H   0  0  0  0  0  0  0  0  0  0  0  0
  140.5412   72.4339  225.1359 H   0  0  0  0  0  0  0  0  0  0  0  0
  141.8639   72.0969  227.2251 H   0  0  0  0  0  0  0  0  0  0  0  0
  141.4473   70.0237  228.5444 H   0  0  0  0  0  0  0  0  0  0  0  0
  139.7872   68.3493  227.8162 H   0  0  0  0  0  0  0  0  0  0  0  0
  138.4708   68.6976  225.7204 H   0  0  0  0  0  0  0  0  0  0  0  0
  139.4704   72.4524  223.3891 H   0  0  0  0  0  0  0  0  0  0  0  0
  141.2251   70.8966  222.9297 H   0  0  0  0  0  0  0  0  0  0  0  0
  140.1214   69.7166  222.1861 H   0  0  0  0  0  0  0  0  0  0  0  0
  141.5892   71.5124  220.7290 H   0  0  0  0  0  0  0  0  0  0  0  0
  140.0117   70.9105  220.1732 H   0  0  0  0  0  0  0  0  0  0  0  0
  139.4863   75.5113  220.5325 H   0  0  0  0  0  0  0  0  0  0  0  0
  138.6890   75.8250  222.6270 H   0  0  0  0  0  0  0  0  0  0  0  0
  139.5640   74.4900  223.1010 H   0  0  0  0  0  0  0  0  0  0  0  0
  141.9384   75.9998  222.2014 H   0  0  0  0  0  0  0  0  0  0  0  0
  143.2618   74.6071  219.3202 H   0  0  0  0  0  0  0  0  0  0  0  0
  143.9907   75.7291  217.1993 H   0  0  0  0  0  0  0  0  0  0  0  0
  143.2402   78.0451  216.7493 H   0  0  0  0  0  0  0  0  0  0  0  0
  141.7810   79.2714  218.3684 H   0  0  0  0  0  0  0  0  0  0  0  0
  139.9005   77.9149  221.0289 H   0  0  0  0  0  0  0  0  0  0  0  0
  141.1435   77.4129  223.5751 H   0  0  0  0  0  0  0  0  0  0  0  0
  141.8443   79.0413  225.2806 H   0  0  0  0  0  0  0  0  0  0  0  0
  142.5345   81.3610  224.5839 H   0  0  0  0  0  0  0  0  0  0  0  0
  142.4850   81.9363  222.1685 H   0  0  0  0  0  0  0  0  0  0  0  0
  141.7730   80.2746  220.4652 H   0  0  0  0  0  0  0  0  0  0  0  0
  138.1794   73.8397  221.5715 H   0  0  0  0  0  0  0  0  0  0  0  0
  138.0761   72.8871  220.0982 H   0  0  0  0  0  0  0  0  0  0  0  0
  137.1090   71.8992  222.4431 H   0  0  0  0  0  0  0  0  0  0  0  0
  137.9406   70.7953  221.3291 H   0  0  0  0  0  0  0  0  0  0  0  0
  1  2  1  0
  2  3  1  0
  3  4  2  0
  3  5  1  0
  5  6  1  0
  6  7  2  0
  7  8  1  0
  8  9  2  0
  9 10  1  0
 10 11  2  0
  5 12  1  0
 12 13  1  0
 13 14  1  0
 14 15  1  0
 15 16  1  0
 16 17  2  0
 16 18  1  0
 18 19  1  0
 18 20  1  0
 20 21  1  0
 21 22  2  0
 22 23  1  0
 23 24  2  0
 24 25  1  0
 25 26  2  0
 26 27  1  0
 27 28  1  0
 28 29  2  0
 29 30  1  0
 30 31  2  0
 31 32  1  0
 32 33  2  0
 15 34  1  0
 34 35  1  0
 11  6  1  0
 35 12  1  0
 27 20  1  0
 33 28  1  0
 26 21  1  0
  1 36  1  0
  1 37  1  0
  1 38  1  0
  2 39  1  0
  2 40  1  0
  7 41  1  0
  8 42  1  0
  9 43  1  0
 10 44  1  0
 11 45  1  0
 12 46  1  0
 13 47  1  0
 13 48  1  0
 14 49  1  0
 14 50  1  0
 18 51  1  6
 19 52  1  0
 19 53  1  0
 20 54  1  1
 22 55  1  0
 23 56  1  0
 24 57  1  0
 25 58  1  0
 27 59  1  6
 29 60  1  0
 30 61  1  0
 31 62  1  0
 32 63  1  0
 33 64  1  0
 34 65  1  0
 34 66  1  0
 35 67  1  0
 35 68  1  0
M  END
>  <smiles>  (88) 
CCC(=O)N(c1ccccc1)C1CCN(C(=O)[C@@H](N)C2c3ccccc3C2c2ccccc2)CC1

>  <score_type>  (88) 
oracle

>  <origin>  (88) 
autodockgpu

>  <m_score__min__energy>  (88) 
-9.7300000000000004

>  <m_primary>  (88) 
energy

>  <rmsd>  (88) 
8.658524483717153

>  <m_score__min__rmsd>  (88) 
8.658524483717153

>  <meeko>  (88) 
{"free_energy": -9.35, "intermolecular_energy": -11.73, "internal_energy": -2.22, "cluster_size": 17, "cluster_id": 2, "rank_in_cluster": 5}

>  <energy>  (88) 
-7.82

>  <cluster_rmsd>  (88) 
0.27

>  <cluster>  (88) 
7

$$$$

     RDKit          3D

 68 72  0  0  0  0  0  0  0  0999 V2000
  134.6740   70.8350  224.9980 C   0  0  0  0  0  0  0  0  0  0  0  0
  135.8530   71.3830  224.2290 C   0  0  0  0  0  0  0  0  0  0  0  0
  136.8800   70.3150  224.1480 C   0  0  0  0  0  0  0  0  0  0  0  0
  136.4540   69.1130  224.1210 O   0  0  0  0  0  0  0  0  0  0  0  0
  138.2760   70.5840  224.1000 N   0  0  0  0  0  0  0  0  0  0  0  0
  139.0570   70.1600  225.1980 C   0  0  0  0  0  0  0  0  0  0  0  0
  138.9880   68.8920  225.7400 C   0  0  0  0  0  0  0  0  0  0  0  0
  139.7670   68.4970  226.8210 C   0  0  0  0  0  0  0  0  0  0  0  0
  140.6300   69.4450  227.3370 C   0  0  0  0  0  0  0  0  0  0  0  0
  140.7210   70.7300  226.8120 C   0  0  0  0  0  0  0  0  0  0  0  0
  139.9360   71.1080  225.7330 C   0  0  0  0  0  0  0  0  0  0  0  0
  138.8320   71.2690  222.9760 C   0  0  0  0  0  0  0  0  0  0  0  0
  140.0170   70.5350  222.3770 C   0  0  0  0  0  0  0  0  0  0  0  0
  140.3110   71.1830  221.0400 C   0  0  0  0  0  0  0  0  0  0  0  0
  139.8060   72.5410  221.1090 N   0  0  0  0  0  0  0  0  0  0  0  0
  140.6600   73.6670  221.2500 C   0  0  0  0  0  0  0  0  0  0  0  0
  141.8910   73.4800  221.3270 O   0  0  0  0  0  0  0  0  0  0  0  0
  140.1280   75.0490  221.3050 C   0  0  1  0  0  0  0  0  0  0  0  0
  139.5290   75.2310  222.6370 N   0  0  0  0  0  0  0  0  0  0  0  0
  141.3390   75.9770  221.2910 C   0  0  1  0  0  0  0  0  0  0  0  0
  142.0850   75.9810  220.0330 C   0  0  0  0  0  0  0  0  0  0  0  0
  142.9010   75.2680  219.1590 C   0  0  0  0  0  0  0  0  0  0  0  0
  143.3570   75.8670  217.9870 C   0  0  0  0  0  0  0  0  0  0  0  0
  142.9800   77.1690  217.7270 C   0  0  0  0  0  0  0  0  0  0  0  0
  142.1610   77.8930  218.5970 C   0  0  0  0  0  0  0  0  0  0  0  0
  141.7290   77.2530  219.7560 C   0  0  0  0  0  0  0  0  0  0  0  0
  140.9430   77.3660  220.9820 C   0  0  2  0  0  0  0  0  0  0  0  0
  141.3980   78.4450  221.9050 C   0  0  0  0  0  0  0  0  0  0  0  0
  141.3730   78.1280  223.2650 C   0  0  0  0  0  0  0  0  0  0  0  0
  141.7640   79.0270  224.2260 C   0  0  0  0  0  0  0  0  0  0  0  0
  142.2010   80.3000  223.8470 C   0  0  0  0  0  0  0  0  0  0  0  0
  142.2210   80.6000  222.5000 C   0  0  0  0  0  0  0  0  0  0  0  0
  141.8190   79.6730  221.5310 C   0  0  0  0  0  0  0  0  0  0  0  0
  138.3440   72.6740  221.0390 C   0  0  0  0  0  0  0  0  0  0  0  0
  137.8230   71.4960  221.8770 C   0  0  0  0  0  0  0  0  0  0  0  0
  134.8666   70.9245  226.0773 H   0  0  0  0  0  0  0  0  0  0  0  0
  133.7698   71.4052  224.7383 H   0  0  0  0  0  0  0  0  0  0  0  0
  134.5270   69.7762  224.7383 H   0  0  0  0  0  0  0  0  0  0  0  0
  135.5362   71.6746  223.2168 H   0  0  0  0  0  0  0  0  0  0  0  0
  136.2616   72.2704  224.7346 H   0  0  0  0  0  0  0  0  0  0  0  0
  138.2891   68.1660  225.2989 H   0  0  0  0  0  0  0  0  0  0  0  0
  139.7002   67.4836  227.2435 H   0  0  0  0  0  0  0  0  0  0  0  0
  141.2668   69.1742  228.1921 H   0  0  0  0  0  0  0  0  0  0  0  0
  141.4215   71.4524  227.2564 H   0  0  0  0  0  0  0  0  0  0  0  0
  140.0024   72.1216  225.3109 H   0  0  0  0  0  0  0  0  0  0  0  0
  139.1620   72.2385  223.3773 H   0  0  0  0  0  0  0  0  0  0  0  0
  140.8904   70.6238  223.0398 H   0  0  0  0  0  0  0  0  0  0  0  0
  139.7937   69.4650  222.2534 H   0  0  0  0  0  0  0  0  0  0  0  0
  141.3952   71.1917  220.8543 H   0  0  0  0  0  0  0  0  0  0  0  0
  139.8335   70.6269  220.2198 H   0  0  0  0  0  0  0  0  0  0  0  0
  139.4177   75.2402  220.4871 H   0  0  0  0  0  0  0  0  0  0  0  0
  138.4950   75.4570  222.5400 H   0  0  0  0  0  0  0  0  0  0  0  0
  139.5260   74.3000  223.1490 H   0  0  0  0  0  0  0  0  0  0  0  0
  141.8280   75.6802  222.2306 H   0  0  0  0  0  0  0  0  0  0  0  0
  143.1856   74.2317  219.3939 H   0  0  0  0  0  0  0  0  0  0  0  0
  144.0015   75.3161  217.2862 H   0  0  0  0  0  0  0  0  0  0  0  0
  143.3358   77.6522  216.8051 H   0  0  0  0  0  0  0  0  0  0  0  0
  141.8683   78.9298  218.3749 H   0  0  0  0  0  0  0  0  0  0  0  0
  139.8796   77.6474  220.9926 H   0  0  0  0  0  0  0  0  0  0  0  0
  141.0303   77.1297  223.5749 H   0  0  0  0  0  0  0  0  0  0  0  0
  141.7337   78.7472  225.2894 H   0  0  0  0  0  0  0  0  0  0  0  0
  142.5185   81.0384  224.5980 H   0  0  0  0  0  0  0  0  0  0  0  0
  142.5623   81.5952  222.1789 H   0  0  0  0  0  0  0  0  0  0  0  0
  141.8459   79.9444  220.4654 H   0  0  0  0  0  0  0  0  0  0  0  0
  138.0177   73.6331  221.4674 H   0  0  0  0  0  0  0  0  0  0  0  0
  137.9664   72.6584  220.0059 H   0  0  0  0  0  0  0  0  0  0  0  0
  136.8412   71.7417  222.3080 H   0  0  0  0  0  0  0  0  0  0  0  0
  137.6993   70.5941  221.2596 H   0  0  0  0  0  0  0  0  0  0  0  0
  1  2  1  0
  2  3  1  0
  3  4  2  0
  3  5  1  0
  5  6  1  0
  6  7  2  0
  7  8  1  0
  8  9  2  0
  9 10  1  0
 10 11  2  0
  5 12  1  0
 12 13  1  0
 13 14  1  0
 14 15  1  0
 15 16  1  0
 16 17  2  0
 16 18  1  0
 18 19  1  0
 18 20  1  0
 20 21  1  0
 21 22  2  0
 22 23  1  0
 23 24  2  0
 24 25  1  0
 25 26  2  0
 26 27  1  0
 27 28  1  0
 28 29  2  0
 29 30  1  0
 30 31  2  0
 31 32  1  0
 32 33  2  0
 15 34  1  0
 34 35  1  0
 11  6  1  0
 35 12  1  0
 27 20  1  0
 33 28  1  0
 26 21  1  0
  1 36  1  0
  1 37  1  0
  1 38  1  0
  2 39  1  0
  2 40  1  0
  7 41  1  0
  8 42  1  0
  9 43  1  0
 10 44  1  0
 11 45  1  0
 12 46  1  0
 13 47  1  0
 13 48  1  0
 14 49  1  0
 14 50  1  0
 18 51  1  6
 19 52  1  0
 19 53  1  0
 20 54  1  1
 22 55  1  0
 23 56  1  0
 24 57  1  0
 25 58  1  0
 27 59  1  6
 29 60  1  0
 30 61  1  0
 31 62  1  0
 32 63  1  0
 33 64  1  0
 34 65  1  0
 34 66  1  0
 35 67  1  0
 35 68  1  0
M  END
>  <smiles>  (89) 
CCC(=O)N(c1ccccc1)C1CCN(C(=O)[C@@H](N)C2c3ccccc3C2c2ccccc2)CC1

>  <score_type>  (89) 
oracle

>  <origin>  (89) 
autodockgpu

>  <m_score__min__energy>  (89) 
-9.7300000000000004

>  <m_primary>  (89) 
energy

>  <rmsd>  (89) 
8.455524465351784

>  <m_score__min__rmsd>  (89) 
8.455524465351784

>  <meeko>  (89) 
{"free_energy": -9.36, "intermolecular_energy": -11.75, "internal_energy": -2.17, "cluster_size": 17, "cluster_id": 2, "rank_in_cluster": 4}

>  <energy>  (89) 
-7.8

>  <cluster_rmsd>  (89) 
0.41

>  <cluster>  (89) 
7

$$$$

     RDKit          3D

 68 72  0  0  0  0  0  0  0  0999 V2000
  139.8380   72.3090  219.4470 C   0  0  0  0  0  0  0  0  0  0  0  0
  140.1950   71.5730  220.7180 C   0  0  0  0  0  0  0  0  0  0  0  0
  140.8220   72.5440  221.6470 C   0  0  0  0  0  0  0  0  0  0  0  0
  140.5530   72.4060  222.8860 O   0  0  0  0  0  0  0  0  0  0  0  0
  141.6860   73.5880  221.2120 N   0  0  0  0  0  0  0  0  0  0  0  0
  142.9890   73.2270  220.8060 C   0  0  0  0  0  0  0  0  0  0  0  0
  143.3400   71.9510  220.4110 C   0  0  0  0  0  0  0  0  0  0  0  0
  144.6290   71.6180  220.0150 C   0  0  0  0  0  0  0  0  0  0  0  0
  145.5620   72.6380  220.0330 C   0  0  0  0  0  0  0  0  0  0  0  0
  145.2380   73.9330  220.4270 C   0  0  0  0  0  0  0  0  0  0  0  0
  143.9450   74.2480  220.8190 C   0  0  0  0  0  0  0  0  0  0  0  0
  141.2240   74.9410  221.2120 C   0  0  0  0  0  0  0  0  0  0  0  0
  141.0460   75.4920  219.8090 C   0  0  0  0  0  0  0  0  0  0  0  0
  140.2740   76.7890  219.9360 C   0  0  0  0  0  0  0  0  0  0  0  0
  140.5230   77.2980  221.2720 N   0  0  0  0  0  0  0  0  0  0  0  0
  141.3850   78.3970  221.5220 C   0  0  0  0  0  0  0  0  0  0  0  0
  141.9610   78.9400  220.5570 O   0  0  0  0  0  0  0  0  0  0  0  0
  141.6170   78.9130  222.8920 C   0  0  1  0  0  0  0  0  0  0  0  0
  142.9930   79.4340  222.9330 N   0  0  0  0  0  0  0  0  0  0  0  0
  140.7290   80.1450  223.0440 C   0  0  1  0  0  0  0  0  0  0  0  0
  140.8890   81.1410  221.9850 C   0  0  0  0  0  0  0  0  0  0  0  0
  141.7200   82.0870  221.3890 C   0  0  0  0  0  0  0  0  0  0  0  0
  141.2710   82.8120  220.2880 C   0  0  0  0  0  0  0  0  0  0  0  0
  139.9970   82.5660  219.8150 C   0  0  0  0  0  0  0  0  0  0  0  0
  139.1570   81.6180  220.4060 C   0  0  0  0  0  0  0  0  0  0  0  0
  139.6490   80.9180  221.5040 C   0  0  0  0  0  0  0  0  0  0  0  0
  139.3750   79.8950  222.5110 C   0  0  2  0  0  0  0  0  0  0  0  0
  138.2110   80.1970  223.3910 C   0  0  0  0  0  0  0  0  0  0  0  0
  138.4770   81.0240  224.4840 C   0  0  0  0  0  0  0  0  0  0  0  0
  137.4970   81.3830  225.3770 C   0  0  0  0  0  0  0  0  0  0  0  0
  136.1920   80.9130  225.1990 C   0  0  0  0  0  0  0  0  0  0  0  0
  135.9430   80.0970  224.1150 C   0  0  0  0  0  0  0  0  0  0  0  0
  136.9520   79.7400  223.2130 C   0  0  0  0  0  0  0  0  0  0  0  0
  139.8300   76.5870  222.3560 C   0  0  0  0  0  0  0  0  0  0  0  0
  139.9160   75.1080  221.9450 C   0  0  0  0  0  0  0  0  0  0  0  0
  139.3708   73.2722  219.7000 H   0  0  0  0  0  0  0  0  0  0  0  0
  140.7498   72.4872  218.8580 H   0  0  0  0  0  0  0  0  0  0  0  0
  139.1336   71.7032  218.8580 H   0  0  0  0  0  0  0  0  0  0  0  0
  139.2865   71.1527  221.1741 H   0  0  0  0  0  0  0  0  0  0  0  0
  140.8893   70.7480  220.5006 H   0  0  0  0  0  0  0  0  0  0  0  0
  142.5681   71.1673  220.4100 H   0  0  0  0  0  0  0  0  0  0  0  0
  144.8935   70.5967  219.7035 H   0  0  0  0  0  0  0  0  0  0  0  0
  146.5952   72.4188  219.7256 H   0  0  0  0  0  0  0  0  0  0  0  0
  146.0135   74.7131  220.4276 H   0  0  0  0  0  0  0  0  0  0  0  0
  143.6798   75.2691  221.1304 H   0  0  0  0  0  0  0  0  0  0  0  0
  142.0115   75.5040  221.7344 H   0  0  0  0  0  0  0  0  0  0  0  0
  142.0277   75.6804  219.3500 H   0  0  0  0  0  0  0  0  0  0  0  0
  140.5068   74.7755  219.1719 H   0  0  0  0  0  0  0  0  0  0  0  0
  140.6231   77.5123  219.1844 H   0  0  0  0  0  0  0  0  0  0  0  0
  139.1989   76.6253  219.7708 H   0  0  0  0  0  0  0  0  0  0  0  0
  141.4299   78.1388  223.6507 H   0  0  0  0  0  0  0  0  0  0  0  0
  143.6760   78.6350  223.0890 H   0  0  0  0  0  0  0  0  0  0  0  0
  143.2590   79.7950  221.9690 H   0  0  0  0  0  0  0  0  0  0  0  0
  140.9291   80.4068  224.0935 H   0  0  0  0  0  0  0  0  0  0  0  0
  142.7302   82.2612  221.7878 H   0  0  0  0  0  0  0  0  0  0  0  0
  141.9154   83.5624  219.8067 H   0  0  0  0  0  0  0  0  0  0  0  0
  139.6321   83.1337  218.9463 H   0  0  0  0  0  0  0  0  0  0  0  0
  138.1447   81.4320  220.0179 H   0  0  0  0  0  0  0  0  0  0  0  0
  139.0657   78.8697  222.2599 H   0  0  0  0  0  0  0  0  0  0  0  0
  139.5003   81.3986  224.6342 H   0  0  0  0  0  0  0  0  0  0  0  0
  137.7375   82.0371  226.2281 H   0  0  0  0  0  0  0  0  0  0  0  0
  135.3899   81.1852  225.9008 H   0  0  0  0  0  0  0  0  0  0  0  0
  134.9234   79.7164  223.9551 H   0  0  0  0  0  0  0  0  0  0  0  0
  136.7199   79.0870  222.3587 H   0  0  0  0  0  0  0  0  0  0  0  0
  140.3343   76.7552  223.3190 H   0  0  0  0  0  0  0  0  0  0  0  0
  138.7934   76.9291  222.4920 H   0  0  0  0  0  0  0  0  0  0  0  0
  139.8955   74.4642  222.8367 H   0  0  0  0  0  0  0  0  0  0  0  0
  139.0651   74.8223  221.3092 H   0  0  0  0  0  0  0  0  0  0  0  0
  1  2  1  0
  2  3  1  0
  3  4  2  0
  3  5  1  0
  5  6  1  0
  6  7  2  0
  7  8  1  0
  8  9  2  0
  9 10  1  0
 10 11  2  0
  5 12  1  0
 12 13  1  0
 13 14  1  0
 14 15  1  0
 15 16  1  0
 16 17  2  0
 16 18  1  0
 18 19  1  0
 18 20  1  0
 20 21  1  0
 21 22  2  0
 22 23  1  0
 23 24  2  0
 24 25  1  0
 25 26  2  0
 26 27  1  0
 27 28  1  0
 28 29  2  0
 29 30  1  0
 30 31  2  0
 31 32  1  0
 32 33  2  0
 15 34  1  0
 34 35  1  0
 11  6  1  0
 35 12  1  0
 27 20  1  0
 33 28  1  0
 26 21  1  0
  1 36  1  0
  1 37  1  0
  1 38  1  0
  2 39  1  0
  2 40  1  0
  7 41  1  0
  8 42  1  0
  9 43  1  0
 10 44  1  0
 11 45  1  0
 12 46  1  0
 13 47  1  0
 13 48  1  0
 14 49  1  0
 14 50  1  0
 18 51  1  1
 19 52  1  0
 19 53  1  0
 20 54  1  1
 22 55  1  0
 23 56  1  0
 24 57  1  0
 25 58  1  0
 27 59  1  6
 29 60  1  0
 30 61  1  0
 31 62  1  0
 32 63  1  0
 33 64  1  0
 34 65  1  0
 34 66  1  0
 35 67  1  0
 35 68  1  0
M  END
>  <smiles>  (90) 
CCC(=O)N(c1ccccc1)C1CCN(C(=O)[C@@H](N)C2c3ccccc3C2c2ccccc2)CC1

>  <score_type>  (90) 
oracle

>  <origin>  (90) 
autodockgpu

>  <m_score__min__energy>  (90) 
-9.7300000000000004

>  <m_primary>  (90) 
energy

>  <rmsd>  (90) 
10.846595729479994

>  <m_score__min__rmsd>  (90) 
10.846595729479994

>  <meeko>  (90) 
{"free_energy": -7.79, "intermolecular_energy": -10.18, "internal_energy": -3.23, "cluster_size": 11, "cluster_id": 7, "rank_in_cluster": 5}

>  <energy>  (90) 
-7.79

>  <cluster_rmsd>  (90) 
0.26

>  <cluster>  (90) 
7

$$$$

     RDKit          3D

 68 72  0  0  0  0  0  0  0  0999 V2000
  135.9880   69.6250  225.0390 C   0  0  0  0  0  0  0  0  0  0  0  0
  136.5230   70.5160  223.9410 C   0  0  0  0  0  0  0  0  0  0  0  0
  137.9100   70.0870  223.6410 C   0  0  0  0  0  0  0  0  0  0  0  0
  138.0620   68.8920  223.2220 O   0  0  0  0  0  0  0  0  0  0  0  0
  139.0380   70.9400  223.8010 N   0  0  0  0  0  0  0  0  0  0  0  0
  139.6900   70.9270  225.0540 C   0  0  0  0  0  0  0  0  0  0  0  0
  139.3730   70.0480  226.0710 C   0  0  0  0  0  0  0  0  0  0  0  0
  140.0290   70.0540  227.2950 C   0  0  0  0  0  0  0  0  0  0  0  0
  141.0310   70.9930  227.4540 C   0  0  0  0  0  0  0  0  0  0  0  0
  141.3710   71.8910  226.4480 C   0  0  0  0  0  0  0  0  0  0  0  0
  140.7060   71.8730  225.2300 C   0  0  0  0  0  0  0  0  0  0  0  0
  139.4580   71.7750  222.7200 C   0  0  0  0  0  0  0  0  0  0  0  0
  140.6620   71.2110  221.9870 C   0  0  0  0  0  0  0  0  0  0  0  0
  140.8120   72.0030  220.7050 C   0  0  0  0  0  0  0  0  0  0  0  0
  140.1980   73.2970  220.9340 N   0  0  0  0  0  0  0  0  0  0  0  0
  140.9580   74.4790  221.1360 C   0  0  0  0  0  0  0  0  0  0  0  0
  142.2040   74.3990  221.1260 O   0  0  0  0  0  0  0  0  0  0  0  0
  140.3140   75.7950  221.3550 C   0  0  1  0  0  0  0  0  0  0  0  0
  139.8500   75.8250  222.7510 N   0  0  0  0  0  0  0  0  0  0  0  0
  141.4280   76.8360  221.2920 C   0  0  1  0  0  0  0  0  0  0  0  0
  141.9980   77.0320  219.9590 C   0  0  0  0  0  0  0  0  0  0  0  0
  142.7500   76.4890  218.9200 C   0  0  0  0  0  0  0  0  0  0  0  0
  142.9940   77.2380  217.7720 C   0  0  0  0  0  0  0  0  0  0  0  0
  142.4750   78.5150  217.7000 C   0  0  0  0  0  0  0  0  0  0  0  0
  141.7190   79.0700  218.7360 C   0  0  0  0  0  0  0  0  0  0  0  0
  141.5010   78.2830  219.8640 C   0  0  0  0  0  0  0  0  0  0  0  0
  140.8770   78.2010  221.1830 C   0  0  2  0  0  0  0  0  0  0  0  0
  141.3550   79.2280  222.1520 C   0  0  0  0  0  0  0  0  0  0  0  0
  141.0410   80.5520  221.8360 C   0  0  0  0  0  0  0  0  0  0  0  0
  141.4200   81.5980  222.6410 C   0  0  0  0  0  0  0  0  0  0  0  0
  142.1400   81.3450  223.8120 C   0  0  0  0  0  0  0  0  0  0  0  0
  142.4440   80.0330  224.1120 C   0  0  0  0  0  0  0  0  0  0  0  0
  142.0510   78.9770  223.2830 C   0  0  0  0  0  0  0  0  0  0  0  0
  138.7280   73.3000  220.9590 C   0  0  0  0  0  0  0  0  0  0  0  0
  138.3650   72.0070  221.7060 C   0  0  0  0  0  0  0  0  0  0  0  0
  136.2460   70.0547  226.0182 H   0  0  0  0  0  0  0  0  0  0  0  0
  134.8944   69.5484  224.9488 H   0  0  0  0  0  0  0  0  0  0  0  0
  136.4344   68.6237  224.9488 H   0  0  0  0  0  0  0  0  0  0  0  0
  135.8981   70.4164  223.0412 H   0  0  0  0  0  0  0  0  0  0  0  0
  136.5081   71.5685  224.2604 H   0  0  0  0  0  0  0  0  0  0  0  0
  138.5699   69.3148  225.9051 H   0  0  0  0  0  0  0  0  0  0  0  0
  139.7650   69.3482  228.0964 H   0  0  0  0  0  0  0  0  0  0  0  0
  141.5775   71.0311  228.4079 H   0  0  0  0  0  0  0  0  0  0  0  0
  142.1746   72.6224  226.6193 H   0  0  0  0  0  0  0  0  0  0  0  0
  140.9690   72.5795  224.4289 H   0  0  0  0  0  0  0  0  0  0  0  0
  139.7263   72.7304  223.1946 H   0  0  0  0  0  0  0  0  0  0  0  0
  141.5653   71.3190  222.6054 H   0  0  0  0  0  0  0  0  0  0  0  0
  140.5249   70.1408  221.7730 H   0  0  0  0  0  0  0  0  0  0  0  0
  141.8771   72.1279  220.4601 H   0  0  0  0  0  0  0  0  0  0  0  0
  140.3317   71.4831  219.8629 H   0  0  0  0  0  0  0  0  0  0  0  0
  139.5048   75.9720  220.6313 H   0  0  0  0  0  0  0  0  0  0  0  0
  139.5770   74.8450  223.0610 H   0  0  0  0  0  0  0  0  0  0  0  0
  140.6690   76.0600  223.3860 H   0  0  0  0  0  0  0  0  0  0  0  0
  142.0602   76.5024  222.1281 H   0  0  0  0  0  0  0  0  0  0  0  0
  143.1511   75.4684  219.0064 H   0  0  0  0  0  0  0  0  0  0  0  0
  143.5857   76.8224  216.9430 H   0  0  0  0  0  0  0  0  0  0  0  0
  142.6626   79.1154  216.7976 H   0  0  0  0  0  0  0  0  0  0  0  0
  141.3118   80.0893  218.6633 H   0  0  0  0  0  0  0  0  0  0  0  0
  139.8041   78.3730  221.3540 H   0  0  0  0  0  0  0  0  0  0  0  0
  140.4745   80.7625  220.9169 H   0  0  0  0  0  0  0  0  0  0  0  0
  141.1581   82.6303  222.3655 H   0  0  0  0  0  0  0  0  0  0  0  0
  142.4543   82.1658  224.4734 H   0  0  0  0  0  0  0  0  0  0  0  0
  143.0110   79.8113  225.0282 H   0  0  0  0  0  0  0  0  0  0  0  0
  142.3085   77.9419  223.5518 H   0  0  0  0  0  0  0  0  0  0  0  0
  138.3481   74.1815  221.4962 H   0  0  0  0  0  0  0  0  0  0  0  0
  138.2880   73.3443  219.9518 H   0  0  0  0  0  0  0  0  0  0  0  0
  137.3951   72.1205  222.2123 H   0  0  0  0  0  0  0  0  0  0  0  0
  138.2803   71.1578  221.0120 H   0  0  0  0  0  0  0  0  0  0  0  0
  1  2  1  0
  2  3  1  0
  3  4  2  0
  3  5  1  0
  5  6  1  0
  6  7  2  0
  7  8  1  0
  8  9  2  0
  9 10  1  0
 10 11  2  0
  5 12  1  0
 12 13  1  0
 13 14  1  0
 14 15  1  0
 15 16  1  0
 16 17  2  0
 16 18  1  0
 18 19  1  0
 18 20  1  0
 20 21  1  0
 21 22  2  0
 22 23  1  0
 23 24  2  0
 24 25  1  0
 25 26  2  0
 26 27  1  0
 27 28  1  0
 28 29  2  0
 29 30  1  0
 30 31  2  0
 31 32  1  0
 32 33  2  0
 15 34  1  0
 34 35  1  0
 11  6  1  0
 35 12  1  0
 27 20  1  0
 33 28  1  0
 26 21  1  0
  1 36  1  0
  1 37  1  0
  1 38  1  0
  2 39  1  0
  2 40  1  0
  7 41  1  0
  8 42  1  0
  9 43  1  0
 10 44  1  0
 11 45  1  0
 12 46  1  0
 13 47  1  0
 13 48  1  0
 14 49  1  0
 14 50  1  0
 18 51  1  6
 19 52  1  0
 19 53  1  0
 20 54  1  1
 22 55  1  0
 23 56  1  0
 24 57  1  0
 25 58  1  0
 27 59  1  6
 29 60  1  0
 30 61  1  0
 31 62  1  0
 32 63  1  0
 33 64  1  0
 34 65  1  0
 34 66  1  0
 35 67  1  0
 35 68  1  0
M  END
>  <smiles>  (91) 
CCC(=O)N(c1ccccc1)C1CCN(C(=O)[C@@H](N)C2c3ccccc3C2c2ccccc2)CC1

>  <score_type>  (91) 
oracle

>  <origin>  (91) 
autodockgpu

>  <m_score__min__energy>  (91) 
-9.7300000000000004

>  <m_primary>  (91) 
energy

>  <rmsd>  (91) 
9.050431351623178

>  <m_score__min__rmsd>  (91) 
9.050431351623178

>  <meeko>  (91) 
{"free_energy": -9.0, "intermolecular_energy": -11.38, "internal_energy": -2.34, "cluster_size": 17, "cluster_id": 2, "rank_in_cluster": 15}

>  <energy>  (91) 
-7.78

>  <cluster_rmsd>  (91) 
0.4

>  <cluster>  (91) 
7

$$$$

     RDKit          3D

 68 72  0  0  0  0  0  0  0  0999 V2000
  136.1060   69.4820  224.7100 C   0  0  0  0  0  0  0  0  0  0  0  0
  136.4190   70.6340  223.7830 C   0  0  0  0  0  0  0  0  0  0  0  0
  137.7490   70.3830  223.1770 C   0  0  0  0  0  0  0  0  0  0  0  0
  137.8370   69.3900  222.3800 O   0  0  0  0  0  0  0  0  0  0  0  0
  138.8900   71.1890  223.4470 N   0  0  0  0  0  0  0  0  0  0  0  0
  139.6320   70.8950  224.6130 C   0  0  0  0  0  0  0  0  0  0  0  0
  139.4220   69.7720  225.3890 C   0  0  0  0  0  0  0  0  0  0  0  0
  140.1640   69.5040  226.5320 C   0  0  0  0  0  0  0  0  0  0  0  0
  141.1400   70.4250  226.8640 C   0  0  0  0  0  0  0  0  0  0  0  0
  141.3740   71.5640  226.1010 C   0  0  0  0  0  0  0  0  0  0  0  0
  140.6240   71.8180  224.9620 C   0  0  0  0  0  0  0  0  0  0  0  0
  139.2360   72.2550  222.5600 C   0  0  0  0  0  0  0  0  0  0  0  0
  140.2230   71.8220  221.4910 C   0  0  0  0  0  0  0  0  0  0  0  0
  140.2650   72.9250  220.4540 C   0  0  0  0  0  0  0  0  0  0  0  0
  139.8690   74.1490  221.1240 N   0  0  0  0  0  0  0  0  0  0  0  0
  140.7980   75.1630  221.4770 C   0  0  0  0  0  0  0  0  0  0  0  0
  142.0050   74.9890  221.2100 O   0  0  0  0  0  0  0  0  0  0  0  0
  140.3730   76.4140  222.1480 C   0  0  1  0  0  0  0  0  0  0  0  0
  141.4230   76.7630  223.1190 N   0  0  0  0  0  0  0  0  0  0  0  0
  140.4370   77.5130  221.0920 C   0  0  1  0  0  0  0  0  0  0  0  0
  140.3570   78.8720  221.6270 C   0  0  0  0  0  0  0  0  0  0  0  0
  139.5700   79.8320  222.2580 C   0  0  0  0  0  0  0  0  0  0  0  0
  140.0980   81.0910  222.5360 C   0  0  0  0  0  0  0  0  0  0  0  0
  141.4040   81.3500  222.1700 C   0  0  0  0  0  0  0  0  0  0  0  0
  142.2010   80.3930  221.5360 C   0  0  0  0  0  0  0  0  0  0  0  0
  141.6310   79.1490  221.2800 C   0  0  0  0  0  0  0  0  0  0  0  0
  141.8340   77.8150  220.7210 C   0  0  2  0  0  0  0  0  0  0  0  0
  142.1910   77.8030  219.2740 C   0  0  0  0  0  0  0  0  0  0  0  0
  142.9090   76.6880  218.8360 C   0  0  0  0  0  0  0  0  0  0  0  0
  143.3030   76.5480  217.5280 C   0  0  0  0  0  0  0  0  0  0  0  0
  142.9850   77.5410  216.5980 C   0  0  0  0  0  0  0  0  0  0  0  0
  142.2750   78.6380  217.0440 C   0  0  0  0  0  0  0  0  0  0  0  0
  141.8800   78.7680  218.3800 C   0  0  0  0  0  0  0  0  0  0  0  0
  138.4350   74.2640  221.4280 C   0  0  0  0  0  0  0  0  0  0  0  0
  138.0330   72.8480  221.8680 C   0  0  0  0  0  0  0  0  0  0  0  0
  136.1968   69.8164  225.7540 H   0  0  0  0  0  0  0  0  0  0  0  0
  135.0800   69.1311  224.5253 H   0  0  0  0  0  0  0  0  0  0  0  0
  136.8134   68.6601  224.5253 H   0  0  0  0  0  0  0  0  0  0  0  0
  135.6549   70.6973  222.9943 H   0  0  0  0  0  0  0  0  0  0  0  0
  136.4243   71.5829  224.3393 H   0  0  0  0  0  0  0  0  0  0  0  0
  138.6365   69.0623  225.0902 H   0  0  0  0  0  0  0  0  0  0  0  0
  139.9845   68.6059  227.1412 H   0  0  0  0  0  0  0  0  0  0  0  0
  141.7519   70.2512  227.7615 H   0  0  0  0  0  0  0  0  0  0  0  0
  142.1613   72.2702  226.4036 H   0  0  0  0  0  0  0  0  0  0  0  0
  140.8034   72.7162  224.3528 H   0  0  0  0  0  0  0  0  0  0  0  0
  139.6994   73.0153  223.2059 H   0  0  0  0  0  0  0  0  0  0  0  0
  141.2204   71.6807  221.9328 H   0  0  0  0  0  0  0  0  0  0  0  0
  139.9166   70.8680  221.0371 H   0  0  0  0  0  0  0  0  0  0  0  0
  141.2835   73.0268  220.0512 H   0  0  0  0  0  0  0  0  0  0  0  0
  139.5917   72.7008  219.6135 H   0  0  0  0  0  0  0  0  0  0  0  0
  139.3807   76.3061  222.6103 H   0  0  0  0  0  0  0  0  0  0  0  0
  142.1920   76.0300  223.0980 H   0  0  0  0  0  0  0  0  0  0  0  0
  141.9200   77.6450  222.7940 H   0  0  0  0  0  0  0  0  0  0  0  0
  139.6848   77.1471  220.3776 H   0  0  0  0  0  0  0  0  0  0  0  0
  138.5323   79.5965  222.5367 H   0  0  0  0  0  0  0  0  0  0  0  0
  139.4895   81.8597  223.0347 H   0  0  0  0  0  0  0  0  0  0  0  0
  141.8306   82.3410  222.3843 H   0  0  0  0  0  0  0  0  0  0  0  0
  143.2398   80.6144  221.2500 H   0  0  0  0  0  0  0  0  0  0  0  0
  142.6437   77.1439  221.0436 H   0  0  0  0  0  0  0  0  0  0  0  0
  143.1661   75.8999  219.5590 H   0  0  0  0  0  0  0  0  0  0  0  0
  143.8669   75.6574  217.2136 H   0  0  0  0  0  0  0  0  0  0  0  0
  143.2903   77.4518  215.5450 H   0  0  0  0  0  0  0  0  0  0  0  0
  142.0126   79.4318  216.3292 H   0  0  0  0  0  0  0  0  0  0  0  0
  141.3163   79.6557  218.7029 H   0  0  0  0  0  0  0  0  0  0  0  0
  138.2640   74.9883  222.2380 H   0  0  0  0  0  0  0  0  0  0  0  0
  137.8480   74.6231  220.5698 H   0  0  0  0  0  0  0  0  0  0  0  0
  137.1802   72.8935  222.5613 H   0  0  0  0  0  0  0  0  0  0  0  0
  137.7286   72.2357  221.0063 H   0  0  0  0  0  0  0  0  0  0  0  0
  1  2  1  0
  2  3  1  0
  3  4  2  0
  3  5  1  0
  5  6  1  0
  6  7  2  0
  7  8  1  0
  8  9  2  0
  9 10  1  0
 10 11  2  0
  5 12  1  0
 12 13  1  0
 13 14  1  0
 14 15  1  0
 15 16  1  0
 16 17  2  0
 16 18  1  0
 18 19  1  0
 18 20  1  0
 20 21  1  0
 21 22  2  0
 22 23  1  0
 23 24  2  0
 24 25  1  0
 25 26  2  0
 26 27  1  0
 27 28  1  0
 28 29  2  0
 29 30  1  0
 30 31  2  0
 31 32  1  0
 32 33  2  0
 15 34  1  0
 34 35  1  0
 11  6  1  0
 35 12  1  0
 27 20  1  0
 33 28  1  0
 26 21  1  0
  1 36  1  0
  1 37  1  0
  1 38  1  0
  2 39  1  0
  2 40  1  0
  7 41  1  0
  8 42  1  0
  9 43  1  0
 10 44  1  0
 11 45  1  0
 12 46  1  0
 13 47  1  0
 13 48  1  0
 14 49  1  0
 14 50  1  0
 18 51  1  1
 19 52  1  0
 19 53  1  0
 20 54  1  6
 22 55  1  0
 23 56  1  0
 24 57  1  0
 25 58  1  0
 27 59  1  1
 29 60  1  0
 30 61  1  0
 31 62  1  0
 32 63  1  0
 33 64  1  0
 34 65  1  0
 34 66  1  0
 35 67  1  0
 35 68  1  0
M  END
>  <smiles>  (92) 
CCC(=O)N(c1ccccc1)C1CCN(C(=O)[C@@H](N)C2c3ccccc3C2c2ccccc2)CC1

>  <score_type>  (92) 
oracle

>  <origin>  (92) 
autodockgpu

>  <m_score__min__energy>  (92) 
-9.7300000000000004

>  <m_primary>  (92) 
energy

>  <rmsd>  (92) 
8.945508467897488

>  <m_score__min__rmsd>  (92) 
8.945508467897488

>  <meeko>  (92) 
{"free_energy": -8.0, "intermolecular_energy": -10.38, "internal_energy": -2.86, "cluster_size": 17, "cluster_id": 2, "rank_in_cluster": 17}

>  <energy>  (92) 
-7.78

>  <cluster_rmsd>  (92) 
0.28

>  <cluster>  (92) 
7

$$$$

     RDKit          3D

 68 72  0  0  0  0  0  0  0  0999 V2000
  138.9030   72.3860  220.0080 C   0  0  0  0  0  0  0  0  0  0  0  0
  139.9980   71.6240  220.7180 C   0  0  0  0  0  0  0  0  0  0  0  0
  140.6680   72.5560  221.6570 C   0  0  0  0  0  0  0  0  0  0  0  0
  140.4130   72.4000  222.8970 O   0  0  0  0  0  0  0  0  0  0  0  0
  141.5570   73.5820  221.2300 N   0  0  0  0  0  0  0  0  0  0  0  0
  142.8570   73.1940  220.8380 C   0  0  0  0  0  0  0  0  0  0  0  0
  143.1970   71.9000  220.4940 C   0  0  0  0  0  0  0  0  0  0  0  0
  144.4830   71.5420  220.1100 C   0  0  0  0  0  0  0  0  0  0  0  0
  145.4230   72.5550  220.0860 C   0  0  0  0  0  0  0  0  0  0  0  0
  145.1100   73.8660  220.4260 C   0  0  0  0  0  0  0  0  0  0  0  0
  143.8210   74.2080  220.8080 C   0  0  0  0  0  0  0  0  0  0  0  0
  141.1220   74.9430  221.2250 C   0  0  0  0  0  0  0  0  0  0  0  0
  140.9600   75.4940  219.8200 C   0  0  0  0  0  0  0  0  0  0  0  0
  140.2140   76.8070  219.9420 C   0  0  0  0  0  0  0  0  0  0  0  0
  140.4680   77.3140  221.2770 N   0  0  0  0  0  0  0  0  0  0  0  0
  141.3520   78.3970  221.5270 C   0  0  0  0  0  0  0  0  0  0  0  0
  141.9410   78.9250  220.5620 O   0  0  0  0  0  0  0  0  0  0  0  0
  141.5900   78.9120  222.8960 C   0  0  1  0  0  0  0  0  0  0  0  0
  142.9640   79.4380  222.9300 N   0  0  0  0  0  0  0  0  0  0  0  0
  140.6980   80.1400  223.0550 C   0  0  1  0  0  0  0  0  0  0  0  0
  140.8480   81.1380  221.9960 C   0  0  0  0  0  0  0  0  0  0  0  0
  141.6710   82.0880  221.3960 C   0  0  0  0  0  0  0  0  0  0  0  0
  141.2130   82.8130  220.2990 C   0  0  0  0  0  0  0  0  0  0  0  0
  139.9370   82.5620  219.8340 C   0  0  0  0  0  0  0  0  0  0  0  0
  139.1040   81.6100  220.4280 C   0  0  0  0  0  0  0  0  0  0  0  0
  139.6050   80.9110  221.5220 C   0  0  0  0  0  0  0  0  0  0  0  0
  139.3420   79.8860  222.5300 C   0  0  2  0  0  0  0  0  0  0  0  0
  138.1820   80.1820  223.4170 C   0  0  0  0  0  0  0  0  0  0  0  0
  138.4450   81.0310  224.4950 C   0  0  0  0  0  0  0  0  0  0  0  0
  137.4690   81.3870  225.3920 C   0  0  0  0  0  0  0  0  0  0  0  0
  136.1700   80.8940  225.2350 C   0  0  0  0  0  0  0  0  0  0  0  0
  135.9230   80.0560  224.1670 C   0  0  0  0  0  0  0  0  0  0  0  0
  136.9290   79.7010  223.2600 C   0  0  0  0  0  0  0  0  0  0  0  0
  139.7580   76.6200  222.3600 C   0  0  0  0  0  0  0  0  0  0  0  0
  139.8150   75.1390  221.9540 C   0  0  0  0  0  0  0  0  0  0  0  0
  138.2374   72.8492  220.7512 H   0  0  0  0  0  0  0  0  0  0  0  0
  139.3503   73.1689  219.3780 H   0  0  0  0  0  0  0  0  0  0  0  0
  138.3243   71.6945  219.3780 H   0  0  0  0  0  0  0  0  0  0  0  0
  139.5651   70.7798  221.2748 H   0  0  0  0  0  0  0  0  0  0  0  0
  140.7217   71.2273  219.9908 H   0  0  0  0  0  0  0  0  0  0  0  0
  142.4191   71.1229  220.5254 H   0  0  0  0  0  0  0  0  0  0  0  0
  144.7397   70.5072  219.8394 H   0  0  0  0  0  0  0  0  0  0  0  0
  146.4543   72.3155  219.7876 H   0  0  0  0  0  0  0  0  0  0  0  0
  145.8916   74.6393  220.3918 H   0  0  0  0  0  0  0  0  0  0  0  0
  143.5649   75.2430  221.0786 H   0  0  0  0  0  0  0  0  0  0  0  0
  141.9189   75.4912  221.7488 H   0  0  0  0  0  0  0  0  0  0  0  0
  141.9469   75.6613  219.3638 H   0  0  0  0  0  0  0  0  0  0  0  0
  140.4087   74.7872  219.1825 H   0  0  0  0  0  0  0  0  0  0  0  0
  140.5804   77.5214  219.1901 H   0  0  0  0  0  0  0  0  0  0  0  0
  139.1364   76.6644  219.7736 H   0  0  0  0  0  0  0  0  0  0  0  0
  141.4104   78.1361  223.6547 H   0  0  0  0  0  0  0  0  0  0  0  0
  143.6500   78.6440  223.0990 H   0  0  0  0  0  0  0  0  0  0  0  0
  143.2290   79.7840  221.9600 H   0  0  0  0  0  0  0  0  0  0  0  0
  140.9032   80.4009  224.1037 H   0  0  0  0  0  0  0  0  0  0  0  0
  142.6830   82.2656  221.7888 H   0  0  0  0  0  0  0  0  0  0  0  0
  141.8514   83.5667  219.8149 H   0  0  0  0  0  0  0  0  0  0  0  0
  139.5645   83.1295  218.9685 H   0  0  0  0  0  0  0  0  0  0  0  0
  138.0904   81.4203  220.0451 H   0  0  0  0  0  0  0  0  0  0  0  0
  139.0356   78.8596  222.2799 H   0  0  0  0  0  0  0  0  0  0  0  0
  139.4632   81.4253  224.6286 H   0  0  0  0  0  0  0  0  0  0  0  0
  137.7077   82.0573  226.2308 H   0  0  0  0  0  0  0  0  0  0  0  0
  135.3707   81.1655  225.9402 H   0  0  0  0  0  0  0  0  0  0  0  0
  134.9083   79.6560  224.0242 H   0  0  0  0  0  0  0  0  0  0  0  0
  136.6991   79.0301  222.4191 H   0  0  0  0  0  0  0  0  0  0  0  0
  140.2627   76.7807  223.3241 H   0  0  0  0  0  0  0  0  0  0  0  0
  138.7280   76.9832  222.4914 H   0  0  0  0  0  0  0  0  0  0  0  0
  139.7788   74.4986  222.8476 H   0  0  0  0  0  0  0  0  0  0  0  0
  138.9602   74.8687  221.3166 H   0  0  0  0  0  0  0  0  0  0  0  0
  1  2  1  0
  2  3  1  0
  3  4  2  0
  3  5  1  0
  5  6  1  0
  6  7  2  0
  7  8  1  0
  8  9  2  0
  9 10  1  0
 10 11  2  0
  5 12  1  0
 12 13  1  0
 13 14  1  0
 14 15  1  0
 15 16  1  0
 16 17  2  0
 16 18  1  0
 18 19  1  0
 18 20  1  0
 20 21  1  0
 21 22  2  0
 22 23  1  0
 23 24  2  0
 24 25  1  0
 25 26  2  0
 26 27  1  0
 27 28  1  0
 28 29  2  0
 29 30  1  0
 30 31  2  0
 31 32  1  0
 32 33  2  0
 15 34  1  0
 34 35  1  0
 11  6  1  0
 35 12  1  0
 27 20  1  0
 33 28  1  0
 26 21  1  0
  1 36  1  0
  1 37  1  0
  1 38  1  0
  2 39  1  0
  2 40  1  0
  7 41  1  0
  8 42  1  0
  9 43  1  0
 10 44  1  0
 11 45  1  0
 12 46  1  0
 13 47  1  0
 13 48  1  0
 14 49  1  0
 14 50  1  0
 18 51  1  1
 19 52  1  0
 19 53  1  0
 20 54  1  1
 22 55  1  0
 23 56  1  0
 24 57  1  0
 25 58  1  0
 27 59  1  6
 29 60  1  0
 30 61  1  0
 31 62  1  0
 32 63  1  0
 33 64  1  0
 34 65  1  0
 34 66  1  0
 35 67  1  0
 35 68  1  0
M  END
>  <smiles>  (93) 
CCC(=O)N(c1ccccc1)C1CCN(C(=O)[C@@H](N)C2c3ccccc3C2c2ccccc2)CC1

>  <score_type>  (93) 
oracle

>  <origin>  (93) 
autodockgpu

>  <m_score__min__energy>  (93) 
-9.7300000000000004

>  <m_primary>  (93) 
energy

>  <rmsd>  (93) 
10.836667931921617

>  <m_score__min__rmsd>  (93) 
10.836667931921617

>  <meeko>  (93) 
{"free_energy": -7.78, "intermolecular_energy": -10.16, "internal_energy": -3.25, "cluster_size": 11, "cluster_id": 7, "rank_in_cluster": 7}

>  <energy>  (93) 
-7.77

>  <cluster_rmsd>  (93) 
0.28

>  <cluster>  (93) 
7

$$$$

     RDKit          3D

 68 72  0  0  0  0  0  0  0  0999 V2000
  138.7950   68.4920  223.1340 C   0  0  0  0  0  0  0  0  0  0  0  0
  137.5450   68.9290  223.8620 C   0  0  0  0  0  0  0  0  0  0  0  0
  137.6690   70.3780  224.1530 C   0  0  0  0  0  0  0  0  0  0  0  0
  136.5850   71.0100  224.3840 O   0  0  0  0  0  0  0  0  0  0  0  0
  138.9170   71.0600  224.1810 N   0  0  0  0  0  0  0  0  0  0  0  0
  139.6740   70.9820  225.3710 C   0  0  0  0  0  0  0  0  0  0  0  0
  140.6670   71.8810  225.7050 C   0  0  0  0  0  0  0  0  0  0  0  0
  141.3980   71.7850  226.8820 C   0  0  0  0  0  0  0  0  0  0  0  0
  141.0810   70.7320  227.7200 C   0  0  0  0  0  0  0  0  0  0  0  0
  140.0860   69.8110  227.4100 C   0  0  0  0  0  0  0  0  0  0  0  0
  139.3650   69.9210  226.2300 C   0  0  0  0  0  0  0  0  0  0  0  0
  139.3510   71.7970  223.0360 C   0  0  0  0  0  0  0  0  0  0  0  0
  140.5530   71.1630  222.3600 C   0  0  0  0  0  0  0  0  0  0  0  0
  140.7170   71.8450  221.0170 C   0  0  0  0  0  0  0  0  0  0  0  0
  140.1150   73.1590  221.1350 N   0  0  0  0  0  0  0  0  0  0  0  0
  140.8860   74.3460  221.2420 C   0  0  0  0  0  0  0  0  0  0  0  0
  142.1300   74.2540  221.2450 O   0  0  0  0  0  0  0  0  0  0  0  0
  140.2540   75.6820  221.3470 C   0  0  1  0  0  0  0  0  0  0  0  0
  139.6960   75.7930  222.7050 N   0  0  0  0  0  0  0  0  0  0  0  0
  141.3900   76.7000  221.3080 C   0  0  1  0  0  0  0  0  0  0  0  0
  141.9990   76.8780  219.9900 C   0  0  0  0  0  0  0  0  0  0  0  0
  142.7670   76.3140  218.9740 C   0  0  0  0  0  0  0  0  0  0  0  0
  143.0560   77.0530  217.8290 C   0  0  0  0  0  0  0  0  0  0  0  0
  142.5640   78.3390  217.7370 C   0  0  0  0  0  0  0  0  0  0  0  0
  141.7930   78.9140  218.7500 C   0  0  0  0  0  0  0  0  0  0  0  0
  141.5290   78.1380  219.8760 C   0  0  0  0  0  0  0  0  0  0  0  0
  140.8690   78.0760  221.1780 C   0  0  2  0  0  0  0  0  0  0  0  0
  141.3420   79.0980  222.1550 C   0  0  0  0  0  0  0  0  0  0  0  0
  141.2920   80.4230  221.7160 C   0  0  0  0  0  0  0  0  0  0  0  0
  141.6970   81.4650  222.5130 C   0  0  0  0  0  0  0  0  0  0  0  0
  142.1760   81.2080  223.8010 C   0  0  0  0  0  0  0  0  0  0  0  0
  142.2200   79.8940  224.2220 C   0  0  0  0  0  0  0  0  0  0  0  0
  141.8040   78.8420  223.3990 C   0  0  0  0  0  0  0  0  0  0  0  0
  138.6450   73.1790  221.1510 C   0  0  0  0  0  0  0  0  0  0  0  0
  138.2650   71.9560  222.0000 C   0  0  0  0  0  0  0  0  0  0  0  0
  139.5699   68.2211  223.8662 H   0  0  0  0  0  0  0  0  0  0  0  0
  138.5661   67.6206  222.5030 H   0  0  0  0  0  0  0  0  0  0  0  0
  139.1589   69.3162  222.5030 H   0  0  0  0  0  0  0  0  0  0  0  0
  136.6626   68.7490  223.2304 H   0  0  0  0  0  0  0  0  0  0  0  0
  137.4270   68.3597  224.7958 H   0  0  0  0  0  0  0  0  0  0  0  0
  140.8880   72.7058  225.0116 H   0  0  0  0  0  0  0  0  0  0  0  0
  142.1873   72.5084  227.1341 H   0  0  0  0  0  0  0  0  0  0  0  0
  141.6345   70.6188  228.6639 H   0  0  0  0  0  0  0  0  0  0  0  0
  139.8688   68.9880  228.1068 H   0  0  0  0  0  0  0  0  0  0  0  0
  138.5758   69.1976  225.9775 H   0  0  0  0  0  0  0  0  0  0  0  0
  139.6272   72.7858  223.4308 H   0  0  0  0  0  0  0  0  0  0  0  0
  141.4540   71.3137  222.9727 H   0  0  0  0  0  0  0  0  0  0  0  0
  140.4070   70.0799  222.2350 H   0  0  0  0  0  0  0  0  0  0  0  0
  141.7844   71.9390  220.7684 H   0  0  0  0  0  0  0  0  0  0  0  0
  140.2356   71.2619  220.2181 H   0  0  0  0  0  0  0  0  0  0  0  0
  139.4999   75.8335  220.5606 H   0  0  0  0  0  0  0  0  0  0  0  0
  139.5230   74.8230  223.1030 H   0  0  0  0  0  0  0  0  0  0  0  0
  140.4350   76.1940  223.3540 H   0  0  0  0  0  0  0  0  0  0  0  0
  141.9933   76.3579  222.1618 H   0  0  0  0  0  0  0  0  0  0  0  0
  143.1450   75.2860  219.0757 H   0  0  0  0  0  0  0  0  0  0  0  0
  143.6615   76.6220  217.0181 H   0  0  0  0  0  0  0  0  0  0  0  0
  142.7862   78.9306  216.8366 H   0  0  0  0  0  0  0  0  0  0  0  0
  141.4088   79.9410  218.6617 H   0  0  0  0  0  0  0  0  0  0  0  0
  139.7957   78.2709  221.3194 H   0  0  0  0  0  0  0  0  0  0  0  0
  140.9179   80.6375  220.7041 H   0  0  0  0  0  0  0  0  0  0  0  0
  141.6448   82.4983  222.1395 H   0  0  0  0  0  0  0  0  0  0  0  0
  142.5070   82.0261  224.4576 H   0  0  0  0  0  0  0  0  0  0  0  0
  142.5923   79.6680  225.2321 H   0  0  0  0  0  0  0  0  0  0  0  0
  141.8530   77.8057  223.7647 H   0  0  0  0  0  0  0  0  0  0  0  0
  138.2717   74.1057  221.6114 H   0  0  0  0  0  0  0  0  0  0  0  0
  138.2104   73.1444  220.1411 H   0  0  0  0  0  0  0  0  0  0  0  0
  137.2940   72.1208  222.4900 H   0  0  0  0  0  0  0  0  0  0  0  0
  138.1746   71.0534  221.3778 H   0  0  0  0  0  0  0  0  0  0  0  0
  1  2  1  0
  2  3  1  0
  3  4  2  0
  3  5  1  0
  5  6  1  0
  6  7  2  0
  7  8  1  0
  8  9  2  0
  9 10  1  0
 10 11  2  0
  5 12  1  0
 12 13  1  0
 13 14  1  0
 14 15  1  0
 15 16  1  0
 16 17  2  0
 16 18  1  0
 18 19  1  0
 18 20  1  0
 20 21  1  0
 21 22  2  0
 22 23  1  0
 23 24  2  0
 24 25  1  0
 25 26  2  0
 26 27  1  0
 27 28  1  0
 28 29  2  0
 29 30  1  0
 30 31  2  0
 31 32  1  0
 32 33  2  0
 15 34  1  0
 34 35  1  0
 11  6  1  0
 35 12  1  0
 27 20  1  0
 33 28  1  0
 26 21  1  0
  1 36  1  0
  1 37  1  0
  1 38  1  0
  2 39  1  0
  2 40  1  0
  7 41  1  0
  8 42  1  0
  9 43  1  0
 10 44  1  0
 11 45  1  0
 12 46  1  0
 13 47  1  0
 13 48  1  0
 14 49  1  0
 14 50  1  0
 18 51  1  6
 19 52  1  0
 19 53  1  0
 20 54  1  1
 22 55  1  0
 23 56  1  0
 24 57  1  0
 25 58  1  0
 27 59  1  6
 29 60  1  0
 30 61  1  0
 31 62  1  0
 32 63  1  0
 33 64  1  0
 34 65  1  0
 34 66  1  0
 35 67  1  0
 35 68  1  0
M  END
>  <smiles>  (94) 
CCC(=O)N(c1ccccc1)C1CCN(C(=O)[C@@H](N)C2c3ccccc3C2c2ccccc2)CC1

>  <score_type>  (94) 
oracle

>  <origin>  (94) 
autodockgpu

>  <m_score__min__energy>  (94) 
-9.7300000000000004

>  <m_primary>  (94) 
energy

>  <rmsd>  (94) 
8.94856951561588

>  <m_score__min__rmsd>  (94) 
8.94856951561588

>  <meeko>  (94) 
{"free_energy": -9.33, "intermolecular_energy": -11.72, "internal_energy": -2.3, "cluster_size": 17, "cluster_id": 2, "rank_in_cluster": 8}

>  <energy>  (94) 
-7.73

>  <cluster_rmsd>  (94) 
0.57

>  <cluster>  (94) 
7

$$$$

     RDKit          3D

 68 72  0  0  0  0  0  0  0  0999 V2000
  135.8870   71.4710  224.2060 C   0  0  0  0  0  0  0  0  0  0  0  0
  136.2920   70.0850  224.6530 C   0  0  0  0  0  0  0  0  0  0  0  0
  137.5520   69.7310  223.9540 C   0  0  0  0  0  0  0  0  0  0  0  0
  137.5370   68.6640  223.2550 O   0  0  0  0  0  0  0  0  0  0  0  0
  138.7330   70.5190  224.0360 N   0  0  0  0  0  0  0  0  0  0  0  0
  139.4290   70.5210  225.2660 C   0  0  0  0  0  0  0  0  0  0  0  0
  140.3070   71.5170  225.6450 C   0  0  0  0  0  0  0  0  0  0  0  0
  140.9800   71.4980  226.8600 C   0  0  0  0  0  0  0  0  0  0  0  0
  140.7260   70.4200  227.6880 C   0  0  0  0  0  0  0  0  0  0  0  0
  139.8470   69.4030  227.3330 C   0  0  0  0  0  0  0  0  0  0  0  0
  139.1830   69.4370  226.1150 C   0  0  0  0  0  0  0  0  0  0  0  0
  139.1630   71.2780  222.9040 C   0  0  0  0  0  0  0  0  0  0  0  0
  140.3130   70.6160  222.1660 C   0  0  0  0  0  0  0  0  0  0  0  0
  140.4640   71.3380  220.8430 C   0  0  0  0  0  0  0  0  0  0  0  0
  139.9260   72.6730  221.0270 N   0  0  0  0  0  0  0  0  0  0  0  0
  140.7530   73.8200  221.1490 C   0  0  0  0  0  0  0  0  0  0  0  0
  141.9910   73.6740  221.1080 O   0  0  0  0  0  0  0  0  0  0  0  0
  140.1850   75.1780  221.3220 C   0  0  1  0  0  0  0  0  0  0  0  0
  139.6290   75.2460  222.6830 N   0  0  0  0  0  0  0  0  0  0  0  0
  141.3680   76.1410  221.3350 C   0  0  1  0  0  0  0  0  0  0  0  0
  142.0870   76.2340  220.0650 C   0  0  0  0  0  0  0  0  0  0  0  0
  142.9050   75.5930  219.1370 C   0  0  0  0  0  0  0  0  0  0  0  0
  143.3190   76.2670  217.9910 C   0  0  0  0  0  0  0  0  0  0  0  0
  142.8990   77.5690  217.8080 C   0  0  0  0  0  0  0  0  0  0  0  0
  142.0780   78.2220  218.7320 C   0  0  0  0  0  0  0  0  0  0  0  0
  141.6900   77.5080  219.8630 C   0  0  0  0  0  0  0  0  0  0  0  0
  140.9270   77.5320  221.1090 C   0  0  2  0  0  0  0  0  0  0  0  0
  141.3690   78.5730  222.0790 C   0  0  0  0  0  0  0  0  0  0  0  0
  141.6620   79.8250  221.5330 C   0  0  0  0  0  0  0  0  0  0  0  0
  142.0810   80.8750  222.3120 C   0  0  0  0  0  0  0  0  0  0  0  0
  142.2240   80.7010  223.6910 C   0  0  0  0  0  0  0  0  0  0  0  0
  141.9320   79.4590  224.2180 C   0  0  0  0  0  0  0  0  0  0  0  0
  141.5060   78.3980  223.4120 C   0  0  0  0  0  0  0  0  0  0  0  0
  138.4600   72.7560  221.0930 C   0  0  0  0  0  0  0  0  0  0  0  0
  138.0530   71.5210  221.9120 C   0  0  0  0  0  0  0  0  0  0  0  0
  135.7027   72.1016  225.0883 H   0  0  0  0  0  0  0  0  0  0  0  0
  136.6939   71.9119  223.6022 H   0  0  0  0  0  0  0  0  0  0  0  0
  134.9697   71.4081  223.6022 H   0  0  0  0  0  0  0  0  0  0  0  0
  136.4527   70.0752  225.7412 H   0  0  0  0  0  0  0  0  0  0  0  0
  135.5024   69.3582  224.4115 H   0  0  0  0  0  0  0  0  0  0  0  0
  140.4803   72.3584  224.9579 H   0  0  0  0  0  0  0  0  0  0  0  0
  141.6779   72.2979  227.1482 H   0  0  0  0  0  0  0  0  0  0  0  0
  141.2368   70.3652  228.6607 H   0  0  0  0  0  0  0  0  0  0  0  0
  139.6764   68.5640  228.0237 H   0  0  0  0  0  0  0  0  0  0  0  0
  138.4854   68.6370  225.8264 H   0  0  0  0  0  0  0  0  0  0  0  0
  139.4961   72.2389  223.3232 H   0  0  0  0  0  0  0  0  0  0  0  0
  141.2393   70.7046  222.7526 H   0  0  0  0  0  0  0  0  0  0  0  0
  140.1143   69.5456  222.0087 H   0  0  0  0  0  0  0  0  0  0  0  0
  141.5259   71.3937  220.5616 H   0  0  0  0  0  0  0  0  0  0  0  0
  139.9310   70.8060  220.0413 H   0  0  0  0  0  0  0  0  0  0  0  0
  139.4411   75.4054  220.5442 H   0  0  0  0  0  0  0  0  0  0  0  0
  138.6060   75.5290  222.6410 H   0  0  0  0  0  0  0  0  0  0  0  0
  139.5930   74.2670  223.0950 H   0  0  0  0  0  0  0  0  0  0  0  0
  141.8842   75.8092  222.2479 H   0  0  0  0  0  0  0  0  0  0  0  0
  143.2238   74.5545  219.3096 H   0  0  0  0  0  0  0  0  0  0  0  0
  143.9650   75.7739  217.2497 H   0  0  0  0  0  0  0  0  0  0  0  0
  143.2207   78.1103  216.9060 H   0  0  0  0  0  0  0  0  0  0  0  0
  141.7510   79.2600  218.5719 H   0  0  0  0  0  0  0  0  0  0  0  0
  139.8565   77.7808  221.1556 H   0  0  0  0  0  0  0  0  0  0  0  0
  141.5540   79.9738  220.4485 H   0  0  0  0  0  0  0  0  0  0  0  0
  142.3032   81.8493  221.8524 H   0  0  0  0  0  0  0  0  0  0  0  0
  142.5585   81.5270  224.3358 H   0  0  0  0  0  0  0  0  0  0  0  0
  142.0372   79.2993  225.3012 H   0  0  0  0  0  0  0  0  0  0  0  0
  141.2823   77.4203  223.8637 H   0  0  0  0  0  0  0  0  0  0  0  0
  138.1433   73.6810  221.5971 H   0  0  0  0  0  0  0  0  0  0  0  0
  137.9923   72.7762  220.0976 H   0  0  0  0  0  0  0  0  0  0  0  0
  137.1067   71.7104  222.4399 H   0  0  0  0  0  0  0  0  0  0  0  0
  137.9021   70.6460  221.2627 H   0  0  0  0  0  0  0  0  0  0  0  0
  1  2  1  0
  2  3  1  0
  3  4  2  0
  3  5  1  0
  5  6  1  0
  6  7  2  0
  7  8  1  0
  8  9  2  0
  9 10  1  0
 10 11  2  0
  5 12  1  0
 12 13  1  0
 13 14  1  0
 14 15  1  0
 15 16  1  0
 16 17  2  0
 16 18  1  0
 18 19  1  0
 18 20  1  0
 20 21  1  0
 21 22  2  0
 22 23  1  0
 23 24  2  0
 24 25  1  0
 25 26  2  0
 26 27  1  0
 27 28  1  0
 28 29  2  0
 29 30  1  0
 30 31  2  0
 31 32  1  0
 32 33  2  0
 15 34  1  0
 34 35  1  0
 11  6  1  0
 35 12  1  0
 27 20  1  0
 33 28  1  0
 26 21  1  0
  1 36  1  0
  1 37  1  0
  1 38  1  0
  2 39  1  0
  2 40  1  0
  7 41  1  0
  8 42  1  0
  9 43  1  0
 10 44  1  0
 11 45  1  0
 12 46  1  0
 13 47  1  0
 13 48  1  0
 14 49  1  0
 14 50  1  0
 18 51  1  6
 19 52  1  0
 19 53  1  0
 20 54  1  1
 22 55  1  0
 23 56  1  0
 24 57  1  0
 25 58  1  0
 27 59  1  6
 29 60  1  0
 30 61  1  0
 31 62  1  0
 32 63  1  0
 33 64  1  0
 34 65  1  0
 34 66  1  0
 35 67  1  0
 35 68  1  0
M  END
>  <smiles>  (95) 
CCC(=O)N(c1ccccc1)C1CCN(C(=O)[C@@H](N)C2c3ccccc3C2c2ccccc2)CC1

>  <score_type>  (95) 
oracle

>  <origin>  (95) 
autodockgpu

>  <m_score__min__energy>  (95) 
-9.7300000000000004

>  <m_primary>  (95) 
energy

>  <rmsd>  (95) 
8.57036085645691

>  <m_score__min__rmsd>  (95) 
8.57036085645691

>  <meeko>  (95) 
{"free_energy": -9.38, "intermolecular_energy": -11.77, "internal_energy": -2.21, "cluster_size": 17, "cluster_id": 2, "rank_in_cluster": 3}

>  <energy>  (95) 
-7.7

>  <cluster_rmsd>  (95) 
0.51

>  <cluster>  (95) 
7

$$$$

     RDKit          3D

 68 72  0  0  0  0  0  0  0  0999 V2000
  138.7850   71.2890  221.4150 C   0  0  0  0  0  0  0  0  0  0  0  0
  140.0180   71.7700  220.6870 C   0  0  0  0  0  0  0  0  0  0  0  0
  140.8190   72.5840  221.6330 C   0  0  0  0  0  0  0  0  0  0  0  0
  140.6890   72.3130  222.8730 O   0  0  0  0  0  0  0  0  0  0  0  0
  141.6970   73.6210  221.2140 N   0  0  0  0  0  0  0  0  0  0  0  0
  143.0030   73.2500  220.8240 C   0  0  0  0  0  0  0  0  0  0  0  0
  144.0690   74.1270  220.7900 C   0  0  0  0  0  0  0  0  0  0  0  0
  145.3460   73.7380  220.4040 C   0  0  0  0  0  0  0  0  0  0  0  0
  145.5050   72.4110  220.0500 C   0  0  0  0  0  0  0  0  0  0  0  0
  144.4500   71.5050  220.0740 C   0  0  0  0  0  0  0  0  0  0  0  0
  143.1810   71.9100  220.4620 C   0  0  0  0  0  0  0  0  0  0  0  0
  141.2470   74.9780  221.2120 C   0  0  0  0  0  0  0  0  0  0  0  0
  141.0600   75.5250  219.8090 C   0  0  0  0  0  0  0  0  0  0  0  0
  140.3010   76.8290  219.9390 C   0  0  0  0  0  0  0  0  0  0  0  0
  140.5690   77.3420  221.2700 N   0  0  0  0  0  0  0  0  0  0  0  0
  141.4440   78.4340  221.5060 C   0  0  0  0  0  0  0  0  0  0  0  0
  142.0140   78.9670  220.5320 O   0  0  0  0  0  0  0  0  0  0  0  0
  141.6950   78.9540  222.8710 C   0  0  1  0  0  0  0  0  0  0  0  0
  143.0780   79.4560  222.8970 N   0  0  0  0  0  0  0  0  0  0  0  0
  140.8260   80.1990  223.0250 C   0  0  1  0  0  0  0  0  0  0  0  0
  140.9420   81.1570  221.9260 C   0  0  0  0  0  0  0  0  0  0  0  0
  141.7490   82.0750  221.2590 C   0  0  0  0  0  0  0  0  0  0  0  0
  141.2530   82.7670  220.1570 C   0  0  0  0  0  0  0  0  0  0  0  0
  139.9560   82.5170  219.7560 C   0  0  0  0  0  0  0  0  0  0  0  0
  139.1370   81.5980  220.4180 C   0  0  0  0  0  0  0  0  0  0  0  0
  139.6770   80.9300  221.5130 C   0  0  0  0  0  0  0  0  0  0  0  0
  139.4450   79.9450  222.5670 C   0  0  2  0  0  0  0  0  0  0  0  0
  138.3280   80.2870  223.4920 C   0  0  0  0  0  0  0  0  0  0  0  0
  137.0770   79.7670  223.1500 C   0  0  0  0  0  0  0  0  0  0  0  0
  135.9610   80.0030  223.9130 C   0  0  0  0  0  0  0  0  0  0  0  0
  136.0630   80.7860  225.0670 C   0  0  0  0  0  0  0  0  0  0  0  0
  137.3040   81.2930  225.3930 C   0  0  0  0  0  0  0  0  0  0  0  0
  138.4340   81.0440  224.6060 C   0  0  0  0  0  0  0  0  0  0  0  0
  139.8810   76.6410  222.3640 C   0  0  0  0  0  0  0  0  0  0  0  0
  139.9490   75.1610  221.9590 C   0  0  0  0  0  0  0  0  0  0  0  0
  138.9514   71.3539  222.5004 H   0  0  0  0  0  0  0  0  0  0  0  0
  137.9265   71.9181  221.1374 H   0  0  0  0  0  0  0  0  0  0  0  0
  138.5793   70.2447  221.1374 H   0  0  0  0  0  0  0  0  0  0  0  0
  140.6087   70.9081  220.3430 H   0  0  0  0  0  0  0  0  0  0  0  0
  139.7347   72.3708  219.8102 H   0  0  0  0  0  0  0  0  0  0  0  0
  143.9008   75.1747  221.0798 H   0  0  0  0  0  0  0  0  0  0  0  0
  146.1857   74.4481  220.3813 H   0  0  0  0  0  0  0  0  0  0  0  0
  146.4999   72.0598  219.7387 H   0  0  0  0  0  0  0  0  0  0  0  0
  144.6232   70.4585  219.7829 H   0  0  0  0  0  0  0  0  0  0  0  0
  142.3411   71.2000  220.4844 H   0  0  0  0  0  0  0  0  0  0  0  0
  142.0454   75.5360  221.7231 H   0  0  0  0  0  0  0  0  0  0  0  0
  142.0387   75.7029  219.3395 H   0  0  0  0  0  0  0  0  0  0  0  0
  140.5083   74.8110  219.1799 H   0  0  0  0  0  0  0  0  0  0  0  0
  140.6480   77.5459  219.1803 H   0  0  0  0  0  0  0  0  0  0  0  0
  139.2227   76.6738  219.7866 H   0  0  0  0  0  0  0  0  0  0  0  0
  141.5035   78.1863  223.6352 H   0  0  0  0  0  0  0  0  0  0  0  0
  143.7550   78.6430  223.0050 H   0  0  0  0  0  0  0  0  0  0  0  0
  143.3250   79.8510  221.9420 H   0  0  0  0  0  0  0  0  0  0  0  0
  141.0794   80.4936  224.0541 H   0  0  0  0  0  0  0  0  0  0  0  0
  142.7786   82.2536  221.6026 H   0  0  0  0  0  0  0  0  0  0  0  0
  141.8790   83.4945  219.6196 H   0  0  0  0  0  0  0  0  0  0  0  0
  139.5539   83.0587  218.8871 H   0  0  0  0  0  0  0  0  0  0  0  0
  138.1052   81.4099  220.0862 H   0  0  0  0  0  0  0  0  0  0  0  0
  139.1154   78.9149  222.3663 H   0  0  0  0  0  0  0  0  0  0  0  0
  136.9840   79.1510  222.2434 H   0  0  0  0  0  0  0  0  0  0  0  0
  134.9903   79.5780  223.6180 H   0  0  0  0  0  0  0  0  0  0  0  0
  135.1829   80.9910  225.6942 H   0  0  0  0  0  0  0  0  0  0  0  0
  137.4082   81.9105  226.2973 H   0  0  0  0  0  0  0  0  0  0  0  0
  139.4086   81.4646  224.8944 H   0  0  0  0  0  0  0  0  0  0  0  0
  140.3969   76.8084  223.3210 H   0  0  0  0  0  0  0  0  0  0  0  0
  138.8489   76.9929  222.5089 H   0  0  0  0  0  0  0  0  0  0  0  0
  139.9326   74.5215  222.8538 H   0  0  0  0  0  0  0  0  0  0  0  0
  139.0885   74.8808  221.3338 H   0  0  0  0  0  0  0  0  0  0  0  0
  1  2  1  0
  2  3  1  0
  3  4  2  0
  3  5  1  0
  5  6  1  0
  6  7  2  0
  7  8  1  0
  8  9  2  0
  9 10  1  0
 10 11  2  0
  5 12  1  0
 12 13  1  0
 13 14  1  0
 14 15  1  0
 15 16  1  0
 16 17  2  0
 16 18  1  0
 18 19  1  0
 18 20  1  0
 20 21  1  0
 21 22  2  0
 22 23  1  0
 23 24  2  0
 24 25  1  0
 25 26  2  0
 26 27  1  0
 27 28  1  0
 28 29  2  0
 29 30  1  0
 30 31  2  0
 31 32  1  0
 32 33  2  0
 15 34  1  0
 34 35  1  0
 11  6  1  0
 35 12  1  0
 27 20  1  0
 33 28  1  0
 26 21  1  0
  1 36  1  0
  1 37  1  0
  1 38  1  0
  2 39  1  0
  2 40  1  0
  7 41  1  0
  8 42  1  0
  9 43  1  0
 10 44  1  0
 11 45  1  0
 12 46  1  0
 13 47  1  0
 13 48  1  0
 14 49  1  0
 14 50  1  0
 18 51  1  1
 19 52  1  0
 19 53  1  0
 20 54  1  1
 22 55  1  0
 23 56  1  0
 24 57  1  0
 25 58  1  0
 27 59  1  6
 29 60  1  0
 30 61  1  0
 31 62  1  0
 32 63  1  0
 33 64  1  0
 34 65  1  0
 34 66  1  0
 35 67  1  0
 35 68  1  0
M  END
>  <smiles>  (96) 
CCC(=O)N(c1ccccc1)C1CCN(C(=O)[C@@H](N)C2c3ccccc3C2c2ccccc2)CC1

>  <score_type>  (96) 
oracle

>  <origin>  (96) 
autodockgpu

>  <m_score__min__energy>  (96) 
-9.7300000000000004

>  <m_primary>  (96) 
energy

>  <rmsd>  (96) 
10.87838801702709

>  <m_score__min__rmsd>  (96) 
10.87838801702709

>  <meeko>  (96) 
{"free_energy": -7.84, "intermolecular_energy": -10.23, "internal_energy": -3.18, "cluster_size": 11, "cluster_id": 7, "rank_in_cluster": 1}

>  <energy>  (96) 
-7.35

>  <cluster_rmsd>  (96) 
0.67

>  <cluster>  (96) 
7

$$$$

     RDKit          3D

 68 72  0  0  0  0  0  0  0  0999 V2000
  130.9770   74.4520  226.3810 C   0  0  0  0  0  0  0  0  0  0  0  0
  131.9210   74.9570  225.3150 C   0  0  0  0  0  0  0  0  0  0  0  0
  133.3080   74.7170  225.7820 C   0  0  0  0  0  0  0  0  0  0  0  0
  133.6270   75.2230  226.9090 O   0  0  0  0  0  0  0  0  0  0  0  0
  134.2590   73.9660  225.0380 N   0  0  0  0  0  0  0  0  0  0  0  0
  134.3940   72.5960  225.3510 C   0  0  0  0  0  0  0  0  0  0  0  0
  135.0530   71.6880  224.5450 C   0  0  0  0  0  0  0  0  0  0  0  0
  135.1750   70.3440  224.8750 C   0  0  0  0  0  0  0  0  0  0  0  0
  134.5970   69.9480  226.0670 C   0  0  0  0  0  0  0  0  0  0  0  0
  133.9270   70.8390  226.8990 C   0  0  0  0  0  0  0  0  0  0  0  0
  133.8150   72.1780  226.5550 C   0  0  0  0  0  0  0  0  0  0  0  0
  135.0400   74.6080  224.0280 C   0  0  0  0  0  0  0  0  0  0  0  0
  134.5120   74.3430  222.6300 C   0  0  0  0  0  0  0  0  0  0  0  0
  135.2180   75.3060  221.6990 C   0  0  0  0  0  0  0  0  0  0  0  0
  136.4780   75.6540  222.3280 N   0  0  0  0  0  0  0  0  0  0  0  0
  137.7220   75.1350  221.8830 C   0  0  0  0  0  0  0  0  0  0  0  0
  137.7320   74.3400  220.9210 O   0  0  0  0  0  0  0  0  0  0  0  0
  139.0020   75.5120  222.5290 C   0  0  1  0  0  0  0  0  0  0  0  0
  139.9310   74.3860  222.3420 N   0  0  0  0  0  0  0  0  0  0  0  0
  139.5900   76.6450  221.6910 C   0  0  1  0  0  0  0  0  0  0  0  0
  139.6390   77.9380  222.3720 C   0  0  0  0  0  0  0  0  0  0  0  0
  138.9190   79.0040  222.9050 C   0  0  0  0  0  0  0  0  0  0  0  0
  139.5910   80.0780  223.4850 C   0  0  0  0  0  0  0  0  0  0  0  0
  140.9710   80.0490  223.5140 C   0  0  0  0  0  0  0  0  0  0  0  0
  141.7030   78.9840  222.9820 C   0  0  0  0  0  0  0  0  0  0  0  0
  140.9880   77.9340  222.4130 C   0  0  0  0  0  0  0  0  0  0  0  0
  141.0650   76.6370  221.7440 C   0  0  2  0  0  0  0  0  0  0  0  0
  141.8110   76.6550  220.4540 C   0  0  0  0  0  0  0  0  0  0  0  0
  142.5310   75.4960  220.1550 C   0  0  0  0  0  0  0  0  0  0  0  0
  143.2630   75.3760  218.9990 C   0  0  0  0  0  0  0  0  0  0  0  0
  143.2990   76.4360  218.0890 C   0  0  0  0  0  0  0  0  0  0  0  0
  142.5840   77.5760  218.3970 C   0  0  0  0  0  0  0  0  0  0  0  0
  141.8420   77.6840  219.5790 C   0  0  0  0  0  0  0  0  0  0  0  0
  136.3790   76.5730  223.4710 C   0  0  0  0  0  0  0  0  0  0  0  0
  135.1200   76.1030  224.2180 C   0  0  0  0  0  0  0  0  0  0  0  0
  131.3931   74.6746  227.3746 H   0  0  0  0  0  0  0  0  0  0  0  0
  130.0016   74.9488  226.2723 H   0  0  0  0  0  0  0  0  0  0  0  0
  130.8489   73.3649  226.2723 H   0  0  0  0  0  0  0  0  0  0  0  0
  131.7450   74.4161  224.3735 H   0  0  0  0  0  0  0  0  0  0  0  0
  131.7576   76.0300  225.1363 H   0  0  0  0  0  0  0  0  0  0  0  0
  135.4990   72.0433  223.6043 H   0  0  0  0  0  0  0  0  0  0  0  0
  135.7032   69.6329  224.2228 H   0  0  0  0  0  0  0  0  0  0  0  0
  134.6695   68.8924  226.3676 H   0  0  0  0  0  0  0  0  0  0  0  0
  133.4820   70.4784  227.8381 H   0  0  0  0  0  0  0  0  0  0  0  0
  133.2877   72.8892  227.2078 H   0  0  0  0  0  0  0  0  0  0  0  0
  136.0437   74.1705  224.1335 H   0  0  0  0  0  0  0  0  0  0  0  0
  134.7283   73.3056  222.3351 H   0  0  0  0  0  0  0  0  0  0  0  0
  133.4221   74.4858  222.5889 H   0  0  0  0  0  0  0  0  0  0  0  0
  135.4008   74.8261  220.7262 H   0  0  0  0  0  0  0  0  0  0  0  0
  134.6057   76.2026  221.5222 H   0  0  0  0  0  0  0  0  0  0  0  0
  138.8565   75.7760  223.5869 H   0  0  0  0  0  0  0  0  0  0  0  0
  139.6530   73.5800  222.9780 H   0  0  0  0  0  0  0  0  0  0  0  0
  139.7990   73.9820  221.3680 H   0  0  0  0  0  0  0  0  0  0  0  0
  139.0161   76.5237  220.7604 H   0  0  0  0  0  0  0  0  0  0  0  0
  137.8196   78.9982  222.8682 H   0  0  0  0  0  0  0  0  0  0  0  0
  139.0359   80.9277  223.9091 H   0  0  0  0  0  0  0  0  0  0  0  0
  141.5117   80.8912  223.9705 H   0  0  0  0  0  0  0  0  0  0  0  0
  142.8026   78.9758  223.0118 H   0  0  0  0  0  0  0  0  0  0  0  0
  141.5930   75.7705  222.1689 H   0  0  0  0  0  0  0  0  0  0  0  0
  142.5112   74.6561  220.8650 H   0  0  0  0  0  0  0  0  0  0  0  0
  143.8184   74.4497  218.7904 H   0  0  0  0  0  0  0  0  0  0  0  0
  143.8787   76.3642  217.1569 H   0  0  0  0  0  0  0  0  0  0  0  0
  142.5977   78.4224  217.6946 H   0  0  0  0  0  0  0  0  0  0  0  0
  141.2840   78.6069  219.7955 H   0  0  0  0  0  0  0  0  0  0  0  0
  137.2677   76.4940  224.1143 H   0  0  0  0  0  0  0  0  0  0  0  0
  136.3196   77.6273  223.1628 H   0  0  0  0  0  0  0  0  0  0  0  0
  135.2003   76.3460  225.2878 H   0  0  0  0  0  0  0  0  0  0  0  0
  134.2191   76.6013  223.8305 H   0  0  0  0  0  0  0  0  0  0  0  0
  1  2  1  0
  2  3  1  0
  3  4  2  0
  3  5  1  0
  5  6  1  0
  6  7  2  0
  7  8  1  0
  8  9  2  0
  9 10  1  0
 10 11  2  0
  5 12  1  0
 12 13  1  0
 13 14  1  0
 14 15  1  0
 15 16  1  0
 16 17  2  0
 16 18  1  0
 18 19  1  0
 18 20  1  0
 20 21  1  0
 21 22  2  0
 22 23  1  0
 23 24  2  0
 24 25  1  0
 25 26  2  0
 26 27  1  0
 27 28  1  0
 28 29  2  0
 29 30  1  0
 30 31  2  0
 31 32  1  0
 32 33  2  0
 15 34  1  0
 34 35  1  0
 11  6  1  0
 35 12  1  0
 27 20  1  0
 33 28  1  0
 26 21  1  0
  1 36  1  0
  1 37  1  0
  1 38  1  0
  2 39  1  0
  2 40  1  0
  7 41  1  0
  8 42  1  0
  9 43  1  0
 10 44  1  0
 11 45  1  0
 12 46  1  0
 13 47  1  0
 13 48  1  0
 14 49  1  0
 14 50  1  0
 18 51  1  1
 19 52  1  0
 19 53  1  0
 20 54  1  6
 22 55  1  0
 23 56  1  0
 24 57  1  0
 25 58  1  0
 27 59  1  1
 29 60  1  0
 30 61  1  0
 31 62  1  0
 32 63  1  0
 33 64  1  0
 34 65  1  0
 34 66  1  0
 35 67  1  0
 35 68  1  0
M  END
>  <smiles>  (97) 
CCC(=O)N(c1ccccc1)C1CCN(C(=O)[C@@H](N)C2c3ccccc3C2c2ccccc2)CC1

>  <score_type>  (97) 
oracle

>  <origin>  (97) 
autodockgpu

>  <m_score__min__energy>  (97) 
-9.7300000000000004

>  <m_primary>  (97) 
energy

>  <rmsd>  (97) 
7.919774500515062

>  <m_score__min__rmsd>  (97) 
7.919774500515062

>  <meeko>  (97) 
{"free_energy": -7.97, "intermolecular_energy": -10.36, "internal_energy": -3.05, "cluster_size": 6, "cluster_id": 6, "rank_in_cluster": 1}

>  <energy>  (97) 
-7.8

>  <cluster_rmsd>  (97) 
0.0

>  <cluster>  (97) 
8

$$$$

     RDKit          3D

 68 72  0  0  0  0  0  0  0  0999 V2000
  140.5840   70.1400  220.3280 C   0  0  0  0  0  0  0  0  0  0  0  0
  140.1190   71.5690  220.4880 C   0  0  0  0  0  0  0  0  0  0  0  0
  141.0400   72.2450  221.4330 C   0  0  0  0  0  0  0  0  0  0  0  0
  141.0590   71.8010  222.6290 O   0  0  0  0  0  0  0  0  0  0  0  0
  141.8730   73.3350  221.0590 N   0  0  0  0  0  0  0  0  0  0  0  0
  143.1950   73.0360  220.6630 C   0  0  0  0  0  0  0  0  0  0  0  0
  143.5780   71.8190  220.1360 C   0  0  0  0  0  0  0  0  0  0  0  0
  144.8850   71.5470  219.7520 C   0  0  0  0  0  0  0  0  0  0  0  0
  145.8020   72.5670  219.9230 C   0  0  0  0  0  0  0  0  0  0  0  0
  145.4460   73.8040  220.4520 C   0  0  0  0  0  0  0  0  0  0  0  0
  144.1360   74.0590  220.8300 C   0  0  0  0  0  0  0  0  0  0  0  0
  141.3640   74.6700  221.1080 C   0  0  0  0  0  0  0  0  0  0  0  0
  141.0970   75.2390  219.7260 C   0  0  0  0  0  0  0  0  0  0  0  0
  140.2870   76.5050  219.9170 C   0  0  0  0  0  0  0  0  0  0  0  0
  140.5850   76.9990  221.2480 N   0  0  0  0  0  0  0  0  0  0  0  0
  141.4190   78.1240  221.4770 C   0  0  0  0  0  0  0  0  0  0  0  0
  141.9260   78.7040  220.4950 O   0  0  0  0  0  0  0  0  0  0  0  0
  141.7010   78.6240  222.8430 C   0  0  1  0  0  0  0  0  0  0  0  0
  142.9880   79.3370  222.7880 N   0  0  0  0  0  0  0  0  0  0  0  0
  140.6660   79.7090  223.1260 C   0  0  1  0  0  0  0  0  0  0  0  0
  140.9230   80.9820  222.4520 C   0  0  0  0  0  0  0  0  0  0  0  0
  141.7440   82.1020  222.3490 C   0  0  0  0  0  0  0  0  0  0  0  0
  141.4470   83.0980  221.4210 C   0  0  0  0  0  0  0  0  0  0  0  0
  140.3330   82.9400  220.6220 C   0  0  0  0  0  0  0  0  0  0  0  0
  139.5040   81.8190  220.7170 C   0  0  0  0  0  0  0  0  0  0  0  0
  139.8400   80.8500  221.6590 C   0  0  0  0  0  0  0  0  0  0  0  0
  139.4860   79.5620  222.2510 C   0  0  2  0  0  0  0  0  0  0  0  0
  138.1400   79.5300  222.8920 C   0  0  0  0  0  0  0  0  0  0  0  0
  137.8940   80.5320  223.8340 C   0  0  0  0  0  0  0  0  0  0  0  0
  136.6980   80.6210  224.5010 C   0  0  0  0  0  0  0  0  0  0  0  0
  135.6880   79.6900  224.2400 C   0  0  0  0  0  0  0  0  0  0  0  0
  135.9440   78.7050  223.3070 C   0  0  0  0  0  0  0  0  0  0  0  0
  137.1690   78.6270  222.6350 C   0  0  0  0  0  0  0  0  0  0  0  0
  139.9720   76.2440  222.3510 C   0  0  0  0  0  0  0  0  0  0  0  0
  140.0900   74.7770  221.9080 C   0  0  0  0  0  0  0  0  0  0  0  0
  140.7308   69.6889  221.3204 H   0  0  0  0  0  0  0  0  0  0  0  0
  139.8258   69.5676  219.7736 H   0  0  0  0  0  0  0  0  0  0  0  0
  141.5339   70.1234  219.7736 H   0  0  0  0  0  0  0  0  0  0  0  0
  140.1410   72.0804  219.5144 H   0  0  0  0  0  0  0  0  0  0  0  0
  139.0886   71.5958  220.8720 H   0  0  0  0  0  0  0  0  0  0  0  0
  142.8178   71.0332  220.0153 H   0  0  0  0  0  0  0  0  0  0  0  0
  145.1748   70.5716  219.3340 H   0  0  0  0  0  0  0  0  0  0  0  0
  146.8486   72.3952  219.6311 H   0  0  0  0  0  0  0  0  0  0  0  0
  146.2101   74.5863  220.5714 H   0  0  0  0  0  0  0  0  0  0  0  0
  143.8457   75.0343  221.2478 H   0  0  0  0  0  0  0  0  0  0  0  0
  142.1563   75.2519  221.6017 H   0  0  0  0  0  0  0  0  0  0  0  0
  142.0473   75.4709  219.2229 H   0  0  0  0  0  0  0  0  0  0  0  0
  140.5525   74.5151  219.1019 H   0  0  0  0  0  0  0  0  0  0  0  0
  140.5718   77.2537  219.1631 H   0  0  0  0  0  0  0  0  0  0  0  0
  139.2113   76.3052  219.8028 H   0  0  0  0  0  0  0  0  0  0  0  0
  141.6957   77.8072  223.5798 H   0  0  0  0  0  0  0  0  0  0  0  0
  143.7880   78.6400  222.8400 H   0  0  0  0  0  0  0  0  0  0  0  0
  143.1060   79.7700  221.8250 H   0  0  0  0  0  0  0  0  0  0  0  0
  140.6176   79.6563  224.2237 H   0  0  0  0  0  0  0  0  0  0  0  0
  142.6257   82.2003  222.9993 H   0  0  0  0  0  0  0  0  0  0  0  0
  142.0853   83.9890  221.3275 H   0  0  0  0  0  0  0  0  0  0  0  0
  140.0898   83.7213  219.8869 H   0  0  0  0  0  0  0  0  0  0  0  0
  138.6199   81.7063  220.0723 H   0  0  0  0  0  0  0  0  0  0  0  0
  139.3531   78.6437  221.6602 H   0  0  0  0  0  0  0  0  0  0  0  0
  138.6811   81.2703  224.0470 H   0  0  0  0  0  0  0  0  0  0  0  0
  136.5346   81.4213  225.2378 H   0  0  0  0  0  0  0  0  0  0  0  0
  134.7206   79.7407  224.7612 H   0  0  0  0  0  0  0  0  0  0  0  0
  135.1640   77.9615  223.0860 H   0  0  0  0  0  0  0  0  0  0  0  0
  137.3412   77.8297  221.8970 H   0  0  0  0  0  0  0  0  0  0  0  0
  140.5171   76.4136  223.2913 H   0  0  0  0  0  0  0  0  0  0  0  0
  138.9319   76.5457  222.5439 H   0  0  0  0  0  0  0  0  0  0  0  0
  140.1373   74.1176  222.7872 H   0  0  0  0  0  0  0  0  0  0  0  0
  139.2189   74.4718  221.3097 H   0  0  0  0  0  0  0  0  0  0  0  0
  1  2  1  0
  2  3  1  0
  3  4  2  0
  3  5  1  0
  5  6  1  0
  6  7  2  0
  7  8  1  0
  8  9  2  0
  9 10  1  0
 10 11  2  0
  5 12  1  0
 12 13  1  0
 13 14  1  0
 14 15  1  0
 15 16  1  0
 16 17  2  0
 16 18  1  0
 18 19  1  0
 18 20  1  0
 20 21  1  0
 21 22  2  0
 22 23  1  0
 23 24  2  0
 24 25  1  0
 25 26  2  0
 26 27  1  0
 27 28  1  0
 28 29  2  0
 29 30  1  0
 30 31  2  0
 31 32  1  0
 32 33  2  0
 15 34  1  0
 34 35  1  0
 11  6  1  0
 35 12  1  0
 27 20  1  0
 33 28  1  0
 26 21  1  0
  1 36  1  0
  1 37  1  0
  1 38  1  0
  2 39  1  0
  2 40  1  0
  7 41  1  0
  8 42  1  0
  9 43  1  0
 10 44  1  0
 11 45  1  0
 12 46  1  0
 13 47  1  0
 13 48  1  0
 14 49  1  0
 14 50  1  0
 18 51  1  1
 19 52  1  0
 19 53  1  0
 20 54  1  1
 22 55  1  0
 23 56  1  0
 24 57  1  0
 25 58  1  0
 27 59  1  6
 29 60  1  0
 30 61  1  0
 31 62  1  0
 32 63  1  0
 33 64  1  0
 34 65  1  0
 34 66  1  0
 35 67  1  0
 35 68  1  0
M  END
>  <smiles>  (98) 
CCC(=O)N(c1ccccc1)C1CCN(C(=O)[C@@H](N)C2c3ccccc3C2c2ccccc2)CC1

>  <score_type>  (98) 
oracle

>  <origin>  (98) 
autodockgpu

>  <m_score__min__energy>  (98) 
-9.7300000000000004

>  <m_primary>  (98) 
energy

>  <rmsd>  (98) 
10.629910214942209

>  <m_score__min__rmsd>  (98) 
10.629910214942209

>  <meeko>  (98) 
{"free_energy": -7.35, "intermolecular_energy": -9.73, "internal_energy": -3.36, "cluster_size": 11, "cluster_id": 7, "rank_in_cluster": 11}

>  <energy>  (98) 
-7.75

>  <cluster_rmsd>  (98) 
0.26

>  <cluster>  (98) 
8

$$$$

     RDKit          3D

 68 72  0  0  0  0  0  0  0  0999 V2000
  136.1230   70.8510  224.2060 C   0  0  0  0  0  0  0  0  0  0  0  0
  136.7130   69.5150  224.5940 C   0  0  0  0  0  0  0  0  0  0  0  0
  138.1080   69.4690  224.0930 C   0  0  0  0  0  0  0  0  0  0  0  0
  138.4480   68.4240  223.4440 O   0  0  0  0  0  0  0  0  0  0  0  0
  139.0450   70.5190  224.3050 N   0  0  0  0  0  0  0  0  0  0  0  0
  139.7410   70.5300  225.5340 C   0  0  0  0  0  0  0  0  0  0  0  0
  140.3680   71.6480  226.0470 C   0  0  0  0  0  0  0  0  0  0  0  0
  141.0470   71.6350  227.2590 C   0  0  0  0  0  0  0  0  0  0  0  0
  141.0660   70.4340  227.9420 C   0  0  0  0  0  0  0  0  0  0  0  0
  140.4430   69.2910  227.4500 C   0  0  0  0  0  0  0  0  0  0  0  0
  139.7690   69.3210  226.2370 C   0  0  0  0  0  0  0  0  0  0  0  0
  139.2380   71.5150  223.2980 C   0  0  0  0  0  0  0  0  0  0  0  0
  140.7070   71.7850  223.0260 C   0  0  0  0  0  0  0  0  0  0  0  0
  140.7780   72.6060  221.7560 C   0  0  0  0  0  0  0  0  0  0  0  0
  139.5120   73.3030  221.6320 N   0  0  0  0  0  0  0  0  0  0  0  0
  139.3740   74.6910  221.8970 C   0  0  0  0  0  0  0  0  0  0  0  0
  140.3790   75.3340  222.2620 O   0  0  0  0  0  0  0  0  0  0  0  0
  138.0750   75.3900  221.7520 C   0  0  1  0  0  0  0  0  0  0  0  0
  137.4470   75.4200  223.0830 N   0  0  0  0  0  0  0  0  0  0  0  0
  138.4030   76.8470  221.4420 C   0  0  1  0  0  0  0  0  0  0  0  0
  137.2350   77.7220  221.3410 C   0  0  0  0  0  0  0  0  0  0  0  0
  136.0880   78.0590  220.6260 C   0  0  0  0  0  0  0  0  0  0  0  0
  135.2790   79.1050  221.0630 C   0  0  0  0  0  0  0  0  0  0  0  0
  135.6450   79.7850  222.2070 C   0  0  0  0  0  0  0  0  0  0  0  0
  136.7930   79.4540  222.9320 C   0  0  0  0  0  0  0  0  0  0  0  0
  137.5710   78.4010  222.4580 C   0  0  0  0  0  0  0  0  0  0  0  0
  138.7650   77.5850  222.6680 C   0  0  2  0  0  0  0  0  0  0  0  0
  140.0410   78.3550  222.6700 C   0  0  0  0  0  0  0  0  0  0  0  0
  140.1650   79.3200  223.6720 C   0  0  0  0  0  0  0  0  0  0  0  0
  141.2870   80.1020  223.7900 C   0  0  0  0  0  0  0  0  0  0  0  0
  142.3440   79.9380  222.8900 C   0  0  0  0  0  0  0  0  0  0  0  0
  142.2090   78.9800  221.9050 C   0  0  0  0  0  0  0  0  0  0  0  0
  141.0590   78.1910  221.7960 C   0  0  0  0  0  0  0  0  0  0  0  0
  138.3720   72.4690  221.2250 C   0  0  0  0  0  0  0  0  0  0  0  0
  138.5830   71.1520  221.9890 C   0  0  0  0  0  0  0  0  0  0  0  0
  135.8723   71.4188  225.1142 H   0  0  0  0  0  0  0  0  0  0  0  0
  136.8552   71.4162  223.6107 H   0  0  0  0  0  0  0  0  0  0  0  0
  135.2120   70.6905  223.6107 H   0  0  0  0  0  0  0  0  0  0  0  0
  136.7054   69.4070  225.6887 H   0  0  0  0  0  0  0  0  0  0  0  0
  136.1228   68.6950  224.1589 H   0  0  0  0  0  0  0  0  0  0  0  0
  140.3284   72.5859  225.4736 H   0  0  0  0  0  0  0  0  0  0  0  0
  141.5434   72.5336  227.6541 H   0  0  0  0  0  0  0  0  0  0  0  0
  141.5912   70.3795  228.9070 H   0  0  0  0  0  0  0  0  0  0  0  0
  140.4851   68.3557  228.0274 H   0  0  0  0  0  0  0  0  0  0  0  0
  139.2727   68.4227  225.8411 H   0  0  0  0  0  0  0  0  0  0  0  0
  138.7637   72.4197  223.7061 H   0  0  0  0  0  0  0  0  0  0  0  0
  141.1496   72.3449  223.8631 H   0  0  0  0  0  0  0  0  0  0  0  0
  141.2657   70.8437  222.9169 H   0  0  0  0  0  0  0  0  0  0  0  0
  141.6036   73.3301  221.8196 H   0  0  0  0  0  0  0  0  0  0  0  0
  140.9603   71.9634  220.8820 H   0  0  0  0  0  0  0  0  0  0  0  0
  137.4419   74.9100  220.9913 H   0  0  0  0  0  0  0  0  0  0  0  0
  137.1110   74.4470  223.3450 H   0  0  0  0  0  0  0  0  0  0  0  0
  138.1900   75.6250  223.8150 H   0  0  0  0  0  0  0  0  0  0  0  0
  139.0836   76.7204  220.5872 H   0  0  0  0  0  0  0  0  0  0  0  0
  135.8215   77.4995  219.7172 H   0  0  0  0  0  0  0  0  0  0  0  0
  134.3699   79.3827  220.5095 H   0  0  0  0  0  0  0  0  0  0  0  0
  135.0131   80.6137  222.5592 H   0  0  0  0  0  0  0  0  0  0  0  0
  137.0714   80.0045  223.8427 H   0  0  0  0  0  0  0  0  0  0  0  0
  138.9623   77.0344  223.5996 H   0  0  0  0  0  0  0  0  0  0  0  0
  139.3403   79.4573  224.3868 H   0  0  0  0  0  0  0  0  0  0  0  0
  141.3541   80.8546  224.5894 H   0  0  0  0  0  0  0  0  0  0  0  0
  143.2536   80.5521  222.9641 H   0  0  0  0  0  0  0  0  0  0  0  0
  143.0284   78.8331  221.1860 H   0  0  0  0  0  0  0  0  0  0  0  0
  140.9831   77.4369  220.9988 H   0  0  0  0  0  0  0  0  0  0  0  0
  137.4205   72.9399  221.5130 H   0  0  0  0  0  0  0  0  0  0  0  0
  138.3217   72.3232  220.1359 H   0  0  0  0  0  0  0  0  0  0  0  0
  137.6163   70.6598  222.1716 H   0  0  0  0  0  0  0  0  0  0  0  0
  139.2076   70.4539  221.4124 H   0  0  0  0  0  0  0  0  0  0  0  0
  1  2  1  0
  2  3  1  0
  3  4  2  0
  3  5  1  0
  5  6  1  0
  6  7  2  0
  7  8  1  0
  8  9  2  0
  9 10  1  0
 10 11  2  0
  5 12  1  0
 12 13  1  0
 13 14  1  0
 14 15  1  0
 15 16  1  0
 16 17  2  0
 16 18  1  0
 18 19  1  0
 18 20  1  0
 20 21  1  0
 21 22  2  0
 22 23  1  0
 23 24  2  0
 24 25  1  0
 25 26  2  0
 26 27  1  0
 27 28  1  0
 28 29  2  0
 29 30  1  0
 30 31  2  0
 31 32  1  0
 32 33  2  0
 15 34  1  0
 34 35  1  0
 11  6  1  0
 35 12  1  0
 27 20  1  0
 33 28  1  0
 26 21  1  0
  1 36  1  0
  1 37  1  0
  1 38  1  0
  2 39  1  0
  2 40  1  0
  7 41  1  0
  8 42  1  0
  9 43  1  0
 10 44  1  0
 11 45  1  0
 12 46  1  0
 13 47  1  0
 13 48  1  0
 14 49  1  0
 14 50  1  0
 18 51  1  6
 19 52  1  0
 19 53  1  0
 20 54  1  6
 22 55  1  0
 23 56  1  0
 24 57  1  0
 25 58  1  0
 27 59  1  1
 29 60  1  0
 30 61  1  0
 31 62  1  0
 32 63  1  0
 33 64  1  0
 34 65  1  0
 34 66  1  0
 35 67  1  0
 35 68  1  0
M  END
>  <smiles>  (99) 
CCC(=O)N(c1ccccc1)C1CCN(C(=O)[C@@H](N)C2c3ccccc3C2c2ccccc2)CC1

>  <score_type>  (99) 
oracle

>  <origin>  (99) 
autodockgpu

>  <m_score__min__energy>  (99) 
-9.7300000000000004

>  <m_primary>  (99) 
energy

>  <rmsd>  (99) 
8.627225502038382

>  <m_score__min__rmsd>  (99) 
8.627225502038382

>  <meeko>  (99) 
{"free_energy": -8.64, "intermolecular_energy": -11.02, "internal_energy": -2.36, "cluster_size": 7, "cluster_id": 4, "rank_in_cluster": 4}

>  <energy>  (99) 
-7.74

>  <cluster_rmsd>  (99) 
0.0

>  <cluster>  (99) 
9

$$$$

     RDKit          3D

 68 72  0  0  0  0  0  0  0  0999 V2000
  138.8170   68.0060  223.0950 C   0  0  0  0  0  0  0  0  0  0  0  0
  138.0820   69.1690  222.4690 C   0  0  0  0  0  0  0  0  0  0  0  0
  138.0070   70.2560  223.4750 C   0  0  0  0  0  0  0  0  0  0  0  0
  136.9110   70.3640  224.1190 O   0  0  0  0  0  0  0  0  0  0  0  0
  139.0830   71.1500  223.7340 N   0  0  0  0  0  0  0  0  0  0  0  0
  139.7780   70.9950  224.9530 C   0  0  0  0  0  0  0  0  0  0  0  0
  140.7540   71.8670  225.3940 C   0  0  0  0  0  0  0  0  0  0  0  0
  141.4230   71.6940  226.5980 C   0  0  0  0  0  0  0  0  0  0  0  0
  141.0640   70.5920  227.3510 C   0  0  0  0  0  0  0  0  0  0  0  0
  140.0850   69.6960  226.9330 C   0  0  0  0  0  0  0  0  0  0  0  0
  139.4250   69.8830  225.7270 C   0  0  0  0  0  0  0  0  0  0  0  0
  139.4120   72.1630  222.7810 C   0  0  0  0  0  0  0  0  0  0  0  0
  140.4500   71.6980  221.7760 C   0  0  0  0  0  0  0  0  0  0  0  0
  140.4800   72.7240  220.6620 C   0  0  0  0  0  0  0  0  0  0  0  0
  140.0120   73.9750  221.2280 N   0  0  0  0  0  0  0  0  0  0  0  0
  140.8860   75.0510  221.5320 C   0  0  0  0  0  0  0  0  0  0  0  0
  142.1070   74.9110  221.3150 O   0  0  0  0  0  0  0  0  0  0  0  0
  140.3880   76.3270  222.0980 C   0  0  1  0  0  0  0  0  0  0  0  0
  141.3730   76.7730  223.0970 N   0  0  0  0  0  0  0  0  0  0  0  0
  140.4760   77.3580  220.9760 C   0  0  1  0  0  0  0  0  0  0  0  0
  140.3510   78.7460  221.4190 C   0  0  0  0  0  0  0  0  0  0  0  0
  139.5230   79.7290  221.9570 C   0  0  0  0  0  0  0  0  0  0  0  0
  140.0180   81.0130  222.1730 C   0  0  0  0  0  0  0  0  0  0  0  0
  141.3320   81.2740  221.8430 C   0  0  0  0  0  0  0  0  0  0  0  0
  142.1710   80.2950  221.3040 C   0  0  0  0  0  0  0  0  0  0  0  0
  141.6330   79.0260  221.1060 C   0  0  0  0  0  0  0  0  0  0  0  0
  141.8820   77.6640  220.6420 C   0  0  2  0  0  0  0  0  0  0  0  0
  142.2970   77.5670  219.2140 C   0  0  0  0  0  0  0  0  0  0  0  0
  142.9320   76.3780  218.8460 C   0  0  0  0  0  0  0  0  0  0  0  0
  143.3670   76.1560  217.5640 C   0  0  0  0  0  0  0  0  0  0  0  0
  143.1770   77.1380  216.5870 C   0  0  0  0  0  0  0  0  0  0  0  0
  142.5490   78.3080  216.9630 C   0  0  0  0  0  0  0  0  0  0  0  0
  142.1110   78.5210  218.2750 C   0  0  0  0  0  0  0  0  0  0  0  0
  138.5650   74.0480  221.4810 C   0  0  0  0  0  0  0  0  0  0  0  0
  138.2090   72.6510  222.0130 C   0  0  0  0  0  0  0  0  0  0  0  0
  138.7658   68.0870  224.1908 H   0  0  0  0  0  0  0  0  0  0  0  0
  138.3508   67.0625  222.7749 H   0  0  0  0  0  0  0  0  0  0  0  0
  139.8693   68.0222  222.7749 H   0  0  0  0  0  0  0  0  0  0  0  0
  138.6261   69.5198  221.5797 H   0  0  0  0  0  0  0  0  0  0  0  0
  137.0717   68.8622  222.1605 H   0  0  0  0  0  0  0  0  0  0  0  0
  141.0114   72.7329  224.7663 H   0  0  0  0  0  0  0  0  0  0  0  0
  142.1985   72.3974  226.9352 H   0  0  0  0  0  0  0  0  0  0  0  0
  141.5689   70.4175  228.3126 H   0  0  0  0  0  0  0  0  0  0  0  0
  139.8320   68.8315  227.5644 H   0  0  0  0  0  0  0  0  0  0  0  0
  138.6491   69.1800  225.3897 H   0  0  0  0  0  0  0  0  0  0  0  0
  139.8220   72.9877  223.3825 H   0  0  0  0  0  0  0  0  0  0  0  0
  141.4376   71.6328  222.2560 H   0  0  0  0  0  0  0  0  0  0  0  0
  140.1980   70.7014  221.3846 H   0  0  0  0  0  0  0  0  0  0  0  0
  141.5060   72.8408  220.2829 H   0  0  0  0  0  0  0  0  0  0  0  0
  139.8442   72.4104  219.8209 H   0  0  0  0  0  0  0  0  0  0  0  0
  139.3764   76.2152  222.5153 H   0  0  0  0  0  0  0  0  0  0  0  0
  142.1740   76.0770  223.1480 H   0  0  0  0  0  0  0  0  0  0  0  0
  141.8440   77.6610  222.7510 H   0  0  0  0  0  0  0  0  0  0  0  0
  139.7602   76.9324  220.2573 H   0  0  0  0  0  0  0  0  0  0  0  0
  138.4794   79.4913  222.2109 H   0  0  0  0  0  0  0  0  0  0  0  0
  139.3767   81.8000  222.5965 H   0  0  0  0  0  0  0  0  0  0  0  0
  141.7320   82.2851  222.0095 H   0  0  0  0  0  0  0  0  0  0  0  0
  143.2167   80.5184  221.0459 H   0  0  0  0  0  0  0  0  0  0  0  0
  142.6899   77.0317  221.0387 H   0  0  0  0  0  0  0  0  0  0  0  0
  143.0875   75.5979  219.6057 H   0  0  0  0  0  0  0  0  0  0  0  0
  143.8634   75.2090  217.3057 H   0  0  0  0  0  0  0  0  0  0  0  0
  143.5170   76.9831  215.5524 H   0  0  0  0  0  0  0  0  0  0  0  0
  142.3883   79.0945  216.2110 H   0  0  0  0  0  0  0  0  0  0  0  0
  141.6149   79.4657  218.5422 H   0  0  0  0  0  0  0  0  0  0  0  0
  138.3376   74.8211  222.2298 H   0  0  0  0  0  0  0  0  0  0  0  0
  137.9913   74.3172  220.5819 H   0  0  0  0  0  0  0  0  0  0  0  0
  137.3333   72.7092  222.6762 H   0  0  0  0  0  0  0  0  0  0  0  0
  137.9585   71.9651  221.1903 H   0  0  0  0  0  0  0  0  0  0  0  0
  1  2  1  0
  2  3  1  0
  3  4  2  0
  3  5  1  0
  5  6  1  0
  6  7  2  0
  7  8  1  0
  8  9  2  0
  9 10  1  0
 10 11  2  0
  5 12  1  0
 12 13  1  0
 13 14  1  0
 14 15  1  0
 15 16  1  0
 16 17  2  0
 16 18  1  0
 18 19  1  0
 18 20  1  0
 20 21  1  0
 21 22  2  0
 22 23  1  0
 23 24  2  0
 24 25  1  0
 25 26  2  0
 26 27  1  0
 27 28  1  0
 28 29  2  0
 29 30  1  0
 30 31  2  0
 31 32  1  0
 32 33  2  0
 15 34  1  0
 34 35  1  0
 11  6  1  0
 35 12  1  0
 27 20  1  0
 33 28  1  0
 26 21  1  0
  1 36  1  0
  1 37  1  0
  1 38  1  0
  2 39  1  0
  2 40  1  0
  7 41  1  0
  8 42  1  0
  9 43  1  0
 10 44  1  0
 11 45  1  0
 12 46  1  0
 13 47  1  0
 13 48  1  0
 14 49  1  0
 14 50  1  0
 18 51  1  1
 19 52  1  0
 19 53  1  0
 20 54  1  6
 22 55  1  0
 23 56  1  0
 24 57  1  0
 25 58  1  0
 27 59  1  1
 29 60  1  0
 30 61  1  0
 31 62  1  0
 32 63  1  0
 33 64  1  0
 34 65  1  0
 34 66  1  0
 35 67  1  0
 35 68  1  0
M  END
>  <smiles>  (100) 
CCC(=O)N(c1ccccc1)C1CCN(C(=O)[C@@H](N)C2c3ccccc3C2c2ccccc2)CC1

>  <score_type>  (100) 
oracle

>  <origin>  (100) 
autodockgpu

>  <m_score__min__energy>  (100) 
-9.7300000000000004

>  <m_primary>  (100) 
energy

>  <rmsd>  (100) 
8.955665300206807

>  <m_score__min__rmsd>  (100) 
8.955665300206807

>  <meeko>  (100) 
{"free_energy": -8.19, "intermolecular_energy": -10.58, "internal_energy": -2.86, "cluster_size": 17, "cluster_id": 2, "rank_in_cluster": 16}

>  <energy>  (100) 
-7.25

>  <cluster_rmsd>  (100) 
0.0

>  <cluster>  (100) 
10

$$$$

     RDKit          3D

 68 72  0  0  0  0  0  0  0  0999 V2000
  143.2620   80.5100  223.4770 C   0  0  0  0  0  0  0  0  0  0  0  0
  142.1690   81.5090  223.7470 C   0  0  0  0  0  0  0  0  0  0  0  0
  140.8790   81.0730  223.1330 C   0  0  0  0  0  0  0  0  0  0  0  0
  139.8430   81.2580  223.8020 O   0  0  0  0  0  0  0  0  0  0  0  0
  140.9060   80.4830  221.8410 N   0  0  0  0  0  0  0  0  0  0  0  0
  141.1680   81.2730  220.6730 C   0  0  0  0  0  0  0  0  0  0  0  0
  141.7860   80.7620  219.5530 C   0  0  0  0  0  0  0  0  0  0  0  0
  142.0150   81.5600  218.4590 C   0  0  0  0  0  0  0  0  0  0  0  0
  141.6130   82.8970  218.4950 C   0  0  0  0  0  0  0  0  0  0  0  0
  140.9920   83.4230  219.6080 C   0  0  0  0  0  0  0  0  0  0  0  0
  140.7730   82.6060  220.6950 C   0  0  0  0  0  0  0  0  0  0  0  0
  140.6590   79.0590  221.7520 C   0  0  0  0  0  0  0  0  0  0  0  0
  139.2230   78.7290  221.4090 C   0  0  0  0  0  0  0  0  0  0  0  0
  138.7500   77.5280  222.1990 C   0  0  0  0  0  0  0  0  0  0  0  0
  139.7410   76.4800  222.2890 N   0  0  0  0  0  0  0  0  0  0  0  0
  139.3970   75.1560  221.9250 C   0  0  0  0  0  0  0  0  0  0  0  0
  138.2190   74.9580  221.5310 O   0  0  0  0  0  0  0  0  0  0  0  0
  140.3150   73.9990  221.9720 C   0  0  1  0  0  0  0  0  0  0  0  0
  139.5840   72.7850  222.1450 N   0  0  0  0  0  0  0  0  0  0  0  0
  141.0540   74.0070  220.6120 C   0  0  2  0  0  0  0  0  0  0  0  0
  142.1910   73.1100  220.5570 C   0  0  0  0  0  0  0  0  0  0  0  0
  142.6900   71.8120  220.5140 C   0  0  0  0  0  0  0  0  0  0  0  0
  144.0490   71.5740  220.4740 C   0  0  0  0  0  0  0  0  0  0  0  0
  144.9630   72.6070  220.4760 C   0  0  0  0  0  0  0  0  0  0  0  0
  144.4600   73.8990  220.5190 C   0  0  0  0  0  0  0  0  0  0  0  0
  143.0810   74.1320  220.5590 C   0  0  0  0  0  0  0  0  0  0  0  0
  142.0300   75.1340  220.6050 C   0  0  1  0  0  0  0  0  0  0  0  0
  141.9110   76.0060  219.4160 C   0  0  0  0  0  0  0  0  0  0  0  0
  142.8770   77.0070  219.2750 C   0  0  0  0  0  0  0  0  0  0  0  0
  142.8680   77.8720  218.2010 C   0  0  0  0  0  0  0  0  0  0  0  0
  141.9010   77.7820  217.2210 C   0  0  0  0  0  0  0  0  0  0  0  0
  140.9430   76.7870  217.3620 C   0  0  0  0  0  0  0  0  0  0  0  0
  140.9570   75.9140  218.4510 C   0  0  0  0  0  0  0  0  0  0  0  0
  141.0610   76.8670  222.7640 C   0  0  0  0  0  0  0  0  0  0  0  0
  141.0380   78.3610  223.0370 C   0  0  0  0  0  0  0  0  0  0  0  0
  143.6656   80.1411  224.4315 H   0  0  0  0  0  0  0  0  0  0  0  0
  142.8537   79.6664  222.9011 H   0  0  0  0  0  0  0  0  0  0  0  0
  144.0655   80.9923  222.9011 H   0  0  0  0  0  0  0  0  0  0  0  0
  142.0339   81.6089  224.8341 H   0  0  0  0  0  0  0  0  0  0  0  0
  142.4591   82.4730  223.3035 H   0  0  0  0  0  0  0  0  0  0  0  0
  142.0983   79.7074  219.5347 H   0  0  0  0  0  0  0  0  0  0  0  0
  142.5090   81.1511  217.5653 H   0  0  0  0  0  0  0  0  0  0  0  0
  141.7947   83.5406  217.6216 H   0  0  0  0  0  0  0  0  0  0  0  0
  140.6770   84.4767  219.6275 H   0  0  0  0  0  0  0  0  0  0  0  0
  140.2801   83.0125  221.5905 H   0  0  0  0  0  0  0  0  0  0  0  0
  141.2923   78.6951  220.9295 H   0  0  0  0  0  0  0  0  0  0  0  0
  138.5861   79.5932  221.6487 H   0  0  0  0  0  0  0  0  0  0  0  0
  139.1590   78.4957  220.3359 H   0  0  0  0  0  0  0  0  0  0  0  0
  138.4958   77.8573  223.2173 H   0  0  0  0  0  0  0  0  0  0  0  0
  137.8800   77.1110  221.6706 H   0  0  0  0  0  0  0  0  0  0  0  0
  141.0167   74.0656  222.8165 H   0  0  0  0  0  0  0  0  0  0  0  0
  139.4760   72.2590  221.2670 H   0  0  0  0  0  0  0  0  0  0  0  0
  138.6800   73.0230  222.6060 H   0  0  0  0  0  0  0  0  0  0  0  0
  140.2282   73.8938  219.8942 H   0  0  0  0  0  0  0  0  0  0  0  0
  141.9910   70.9627  220.5119 H   0  0  0  0  0  0  0  0  0  0  0  0
  144.4117   70.5361  220.4397 H   0  0  0  0  0  0  0  0  0  0  0  0
  146.0455   72.4143  220.4448 H   0  0  0  0  0  0  0  0  0  0  0  0
  145.1547   74.7519  220.5217 H   0  0  0  0  0  0  0  0  0  0  0  0
  142.0408   75.9234  221.3710 H   0  0  0  0  0  0  0  0  0  0  0  0
  143.6625   77.1069  220.0386 H   0  0  0  0  0  0  0  0  0  0  0  0
  143.6450   78.6469  218.1244 H   0  0  0  0  0  0  0  0  0  0  0  0
  141.8895   78.4704  216.3631 H   0  0  0  0  0  0  0  0  0  0  0  0
  140.1566   76.6846  216.5997 H   0  0  0  0  0  0  0  0  0  0  0  0
  140.1822   75.1373  218.5302 H   0  0  0  0  0  0  0  0  0  0  0  0
  141.3005   76.3215  223.6887 H   0  0  0  0  0  0  0  0  0  0  0  0
  141.8257   76.6263  222.0108 H   0  0  0  0  0  0  0  0  0  0  0  0
  140.2975   78.5873  223.8183 H   0  0  0  0  0  0  0  0  0  0  0  0
  142.0239   78.7036  223.3842 H   0  0  0  0  0  0  0  0  0  0  0  0
  1  2  1  0
  2  3  1  0
  3  4  2  0
  3  5  1  0
  5  6  1  0
  6  7  2  0
  7  8  1  0
  8  9  2  0
  9 10  1  0
 10 11  2  0
  5 12  1  0
 12 13  1  0
 13 14  1  0
 14 15  1  0
 15 16  1  0
 16 17  2  0
 16 18  1  0
 18 19  1  0
 18 20  1  0
 20 21  1  0
 21 22  2  0
 22 23  1  0
 23 24  2  0
 24 25  1  0
 25 26  2  0
 26 27  1  0
 27 28  1  0
 28 29  2  0
 29 30  1  0
 30 31  2  0
 31 32  1  0
 32 33  2  0
 15 34  1  0
 34 35  1  0
 11  6  1  0
 35 12  1  0
 27 20  1  0
 33 28  1  0
 26 21  1  0
  1 36  1  0
  1 37  1  0
  1 38  1  0
  2 39  1  0
  2 40  1  0
  7 41  1  0
  8 42  1  0
  9 43  1  0
 10 44  1  0
 11 45  1  0
 12 46  1  0
 13 47  1  0
 13 48  1  0
 14 49  1  0
 14 50  1  0
 18 51  1  1
 19 52  1  0
 19 53  1  0
 20 54  1  6
 22 55  1  0
 23 56  1  0
 24 57  1  0
 25 58  1  0
 27 59  1  1
 29 60  1  0
 30 61  1  0
 31 62  1  0
 32 63  1  0
 33 64  1  0
 34 65  1  0
 34 66  1  0
 35 67  1  0
 35 68  1  0
M  END
>  <smiles>  (101) 
CCC(=O)N(c1ccccc1)C1CCN(C(=O)[C@@H](N)C2c3ccccc3C2c2ccccc2)CC1

>  <score_type>  (101) 
oracle

>  <origin>  (101) 
autodockgpu

>  <m_score__min__energy>  (101) 
-9.1199999999999992

>  <m_primary>  (101) 
energy

>  <rmsd>  (101) 
6.662896335679274

>  <m_score__min__rmsd>  (101) 
6.662896335679274

>  <meeko>  (101) 
{"free_energy": -7.19, "intermolecular_energy": -9.58, "internal_energy": -3.91, "cluster_size": 4, "cluster_id": 7, "rank_in_cluster": 3}

>  <energy>  (101) 
-9.12

>  <cluster_rmsd>  (101) 
0.0

>  <cluster>  (101) 
1

$$$$

     RDKit          3D

 68 72  0  0  0  0  0  0  0  0999 V2000
  139.0160   68.7250  221.6310 C   0  0  0  0  0  0  0  0  0  0  0  0
  138.8230   68.4580  223.1010 C   0  0  0  0  0  0  0  0  0  0  0  0
  138.2670   69.6580  223.7950 C   0  0  0  0  0  0  0  0  0  0  0  0
  137.0290   69.7060  223.9370 O   0  0  0  0  0  0  0  0  0  0  0  0
  139.1670   70.6600  224.2480 N   0  0  0  0  0  0  0  0  0  0  0  0
  139.8170   70.5470  225.5210 C   0  0  0  0  0  0  0  0  0  0  0  0
  140.5600   71.5700  226.0690 C   0  0  0  0  0  0  0  0  0  0  0  0
  141.1640   71.4130  227.2930 C   0  0  0  0  0  0  0  0  0  0  0  0
  141.0170   70.2050  227.9750 C   0  0  0  0  0  0  0  0  0  0  0  0
  140.2770   69.1710  227.4400 C   0  0  0  0  0  0  0  0  0  0  0  0
  139.6800   69.3490  226.2120 C   0  0  0  0  0  0  0  0  0  0  0  0
  139.3970   71.7940  223.3780 C   0  0  0  0  0  0  0  0  0  0  0  0
  138.2900   71.9970  222.3670 C   0  0  0  0  0  0  0  0  0  0  0  0
  138.8620   72.4000  221.0250 C   0  0  0  0  0  0  0  0  0  0  0  0
  139.9420   73.3550  221.1310 N   0  0  0  0  0  0  0  0  0  0  0  0
  139.8950   74.5530  220.3790 C   0  0  0  0  0  0  0  0  0  0  0  0
  138.8900   74.7280  219.6420 O   0  0  0  0  0  0  0  0  0  0  0  0
  140.9320   75.6060  220.3970 C   0  0  1  0  0  0  0  0  0  0  0  0
  140.8280   76.4330  219.2390 N   0  0  0  0  0  0  0  0  0  0  0  0
  140.6620   76.4230  221.6840 C   0  0  2  0  0  0  0  0  0  0  0  0
  139.2890   76.3580  222.1420 C   0  0  0  0  0  0  0  0  0  0  0  0
  138.2500   75.6280  222.7120 C   0  0  0  0  0  0  0  0  0  0  0  0
  137.0090   76.1960  222.9120 C   0  0  0  0  0  0  0  0  0  0  0  0
  136.7470   77.5040  222.5580 C   0  0  0  0  0  0  0  0  0  0  0  0
  137.7860   78.2280  221.9910 C   0  0  0  0  0  0  0  0  0  0  0  0
  139.0420   77.6440  221.7910 C   0  0  0  0  0  0  0  0  0  0  0  0
  140.3970   77.8400  221.3050 C   0  0  1  0  0  0  0  0  0  0  0  0
  141.2220   78.8120  222.0550 C   0  0  0  0  0  0  0  0  0  0  0  0
  141.4100   78.5550  223.4160 C   0  0  0  0  0  0  0  0  0  0  0  0
  142.1680   79.3900  224.2090 C   0  0  0  0  0  0  0  0  0  0  0  0
  142.7710   80.5160  223.6890 C   0  0  0  0  0  0  0  0  0  0  0  0
  142.5840   80.7700  222.3360 C   0  0  0  0  0  0  0  0  0  0  0  0
  141.8160   79.9210  221.5370 C   0  0  0  0  0  0  0  0  0  0  0  0
  141.0360   73.0080  222.0260 C   0  0  0  0  0  0  0  0  0  0  0  0
  140.7160   71.6620  222.6530 C   0  0  0  0  0  0  0  0  0  0  0  0
  139.6558   69.6101  221.5000 H   0  0  0  0  0  0  0  0  0  0  0  0
  139.4944   67.8537  221.1598 H   0  0  0  0  0  0  0  0  0  0  0  0
  138.0387   68.9061  221.1598 H   0  0  0  0  0  0  0  0  0  0  0  0
  138.1263   67.6158  223.2251 H   0  0  0  0  0  0  0  0  0  0  0  0
  139.8006   68.2184  223.5448 H   0  0  0  0  0  0  0  0  0  0  0  0
  140.6702   72.5185  225.5229 H   0  0  0  0  0  0  0  0  0  0  0  0
  141.7565   72.2302  227.7300 H   0  0  0  0  0  0  0  0  0  0  0  0
  141.4989   70.0749  228.9552 H   0  0  0  0  0  0  0  0  0  0  0  0
  140.1659   68.2217  227.9844 H   0  0  0  0  0  0  0  0  0  0  0  0
  139.0874   68.5330  225.7726 H   0  0  0  0  0  0  0  0  0  0  0  0
  139.4181   72.6768  224.0339 H   0  0  0  0  0  0  0  0  0  0  0  0
  137.7276   71.0585  222.2532 H   0  0  0  0  0  0  0  0  0  0  0  0
  137.6256   72.7976  222.7243 H   0  0  0  0  0  0  0  0  0  0  0  0
  139.2405   71.4984  220.5211 H   0  0  0  0  0  0  0  0  0  0  0  0
  138.0534   72.8821  220.4560 H   0  0  0  0  0  0  0  0  0  0  0  0
  141.9475   75.1834  220.3890 H   0  0  0  0  0  0  0  0  0  0  0  0
  139.8610   76.5110  218.8930 H   0  0  0  0  0  0  0  0  0  0  0  0
  141.5000   76.0690  218.5290 H   0  0  0  0  0  0  0  0  0  0  0  0
  141.4790   76.0982  222.3451 H   0  0  0  0  0  0  0  0  0  0  0  0
  138.4211   74.5823  223.0075 H   0  0  0  0  0  0  0  0  0  0  0  0
  136.2089   75.5919  223.3646 H   0  0  0  0  0  0  0  0  0  0  0  0
  135.7560   77.9537  222.7186 H   0  0  0  0  0  0  0  0  0  0  0  0
  137.6204   79.2744  221.6949 H   0  0  0  0  0  0  0  0  0  0  0  0
  140.5788   78.2350  220.2946 H   0  0  0  0  0  0  0  0  0  0  0  0
  140.9424   77.6661  223.8646 H   0  0  0  0  0  0  0  0  0  0  0  0
  142.2941   79.1538  225.2759 H   0  0  0  0  0  0  0  0  0  0  0  0
  143.3750   81.1852  224.3193 H   0  0  0  0  0  0  0  0  0  0  0  0
  143.0506   81.6582  221.8851 H   0  0  0  0  0  0  0  0  0  0  0  0
  141.6888   80.1529  220.4693 H   0  0  0  0  0  0  0  0  0  0  0  0
  141.9764   72.9423  221.4591 H   0  0  0  0  0  0  0  0  0  0  0  0
  141.1526   73.7759  222.8049 H   0  0  0  0  0  0  0  0  0  0  0  0
  140.6377   70.8933  221.8701 H   0  0  0  0  0  0  0  0  0  0  0  0
  141.5114   71.3642  223.3521 H   0  0  0  0  0  0  0  0  0  0  0  0
  1  2  1  0
  2  3  1  0
  3  4  2  0
  3  5  1  0
  5  6  1  0
  6  7  2  0
  7  8  1  0
  8  9  2  0
  9 10  1  0
 10 11  2  0
  5 12  1  0
 12 13  1  0
 13 14  1  0
 14 15  1  0
 15 16  1  0
 16 17  2  0
 16 18  1  0
 18 19  1  0
 18 20  1  0
 20 21  1  0
 21 22  2  0
 22 23  1  0
 23 24  2  0
 24 25  1  0
 25 26  2  0
 26 27  1  0
 27 28  1  0
 28 29  2  0
 29 30  1  0
 30 31  2  0
 31 32  1  0
 32 33  2  0
 15 34  1  0
 34 35  1  0
 11  6  1  0
 35 12  1  0
 27 20  1  0
 33 28  1  0
 26 21  1  0
  1 36  1  0
  1 37  1  0
  1 38  1  0
  2 39  1  0
  2 40  1  0
  7 41  1  0
  8 42  1  0
  9 43  1  0
 10 44  1  0
 11 45  1  0
 12 46  1  0
 13 47  1  0
 13 48  1  0
 14 49  1  0
 14 50  1  0
 18 51  1  1
 19 52  1  0
 19 53  1  0
 20 54  1  1
 22 55  1  0
 23 56  1  0
 24 57  1  0
 25 58  1  0
 27 59  1  6
 29 60  1  0
 30 61  1  0
 31 62  1  0
 32 63  1  0
 33 64  1  0
 34 65  1  0
 34 66  1  0
 35 67  1  0
 35 68  1  0
M  END
>  <smiles>  (102) 
CCC(=O)N(c1ccccc1)C1CCN(C(=O)[C@@H](N)C2c3ccccc3C2c2ccccc2)CC1

>  <score_type>  (102) 
oracle

>  <origin>  (102) 
autodockgpu

>  <m_score__min__energy>  (102) 
-9.1199999999999992

>  <m_primary>  (102) 
energy

>  <rmsd>  (102) 
7.499029718718298

>  <m_score__min__rmsd>  (102) 
7.499029718718298

>  <meeko>  (102) 
{"free_energy": -8.21, "intermolecular_energy": -10.6, "internal_energy": -3.31, "cluster_size": 30, "cluster_id": 3, "rank_in_cluster": 20}

>  <energy>  (102) 
-8.6

>  <cluster_rmsd>  (102) 
1.63

>  <cluster>  (102) 
1

$$$$

     RDKit          3D

 68 72  0  0  0  0  0  0  0  0999 V2000
  137.6980   67.7530  222.3320 C   0  0  0  0  0  0  0  0  0  0  0  0
  137.5110   68.6350  223.5390 C   0  0  0  0  0  0  0  0  0  0  0  0
  138.7580   68.6970  224.3560 C   0  0  0  0  0  0  0  0  0  0  0  0
  139.2360   67.6120  224.7430 O   0  0  0  0  0  0  0  0  0  0  0  0
  139.3210   69.9700  224.6430 N   0  0  0  0  0  0  0  0  0  0  0  0
  139.8960   70.2510  225.9260 C   0  0  0  0  0  0  0  0  0  0  0  0
  139.8140   69.3730  226.9850 C   0  0  0  0  0  0  0  0  0  0  0  0
  140.3820   69.6880  228.1960 C   0  0  0  0  0  0  0  0  0  0  0  0
  141.0440   70.9080  228.3410 C   0  0  0  0  0  0  0  0  0  0  0  0
  141.1350   71.7970  227.2900 C   0  0  0  0  0  0  0  0  0  0  0  0
  140.5590   71.4630  226.0850 C   0  0  0  0  0  0  0  0  0  0  0  0
  139.2870   70.9670  223.5940 C   0  0  0  0  0  0  0  0  0  0  0  0
  137.9220   71.5950  223.4190 C   0  0  0  0  0  0  0  0  0  0  0  0
  137.6160   71.8030  221.9510 C   0  0  0  0  0  0  0  0  0  0  0  0
  138.7490   72.2890  221.1970 N   0  0  0  0  0  0  0  0  0  0  0  0
  138.6110   73.4440  220.3910 C   0  0  0  0  0  0  0  0  0  0  0  0
  137.4820   74.0000  220.3750 O   0  0  0  0  0  0  0  0  0  0  0  0
  139.6880   74.0410  219.5730 C   0  0  1  0  0  0  0  0  0  0  0  0
  139.2160   75.2020  218.8910 N   0  0  0  0  0  0  0  0  0  0  0  0
  140.8070   74.4090  220.5770 C   0  0  2  0  0  0  0  0  0  0  0  0
  140.6730   75.7360  221.1430 C   0  0  0  0  0  0  0  0  0  0  0  0
  140.0010   76.6160  221.9850 C   0  0  0  0  0  0  0  0  0  0  0  0
  140.4040   77.9300  222.1080 C   0  0  0  0  0  0  0  0  0  0  0  0
  141.4830   78.4230  221.4040 C   0  0  0  0  0  0  0  0  0  0  0  0
  142.1510   77.5420  220.5660 C   0  0  0  0  0  0  0  0  0  0  0  0
  141.7360   76.2100  220.4480 C   0  0  0  0  0  0  0  0  0  0  0  0
  141.9810   74.9250  219.8180 C   0  0  1  0  0  0  0  0  0  0  0  0
  143.2520   74.2570  220.1760 C   0  0  0  0  0  0  0  0  0  0  0  0
  143.1800   72.8920  220.4690 C   0  0  0  0  0  0  0  0  0  0  0  0
  144.3030   72.1680  220.8080 C   0  0  0  0  0  0  0  0  0  0  0  0
  145.5450   72.7640  220.8700 C   0  0  0  0  0  0  0  0  0  0  0  0
  145.6150   74.1200  220.5790 C   0  0  0  0  0  0  0  0  0  0  0  0
  144.4750   74.8490  220.2360 C   0  0  0  0  0  0  0  0  0  0  0  0
  139.9880   71.5360  221.3190 C   0  0  0  0  0  0  0  0  0  0  0  0
  139.7400   70.3830  222.2760 C   0  0  0  0  0  0  0  0  0  0  0  0
  137.9158   66.7255  222.6589 H   0  0  0  0  0  0  0  0  0  0  0  0
  136.7787   67.7585  221.7279 H   0  0  0  0  0  0  0  0  0  0  0  0
  138.5360   68.1310  221.7279 H   0  0  0  0  0  0  0  0  0  0  0  0
  137.2490   69.6499  223.2054 H   0  0  0  0  0  0  0  0  0  0  0  0
  136.7068   68.2129  224.1595 H   0  0  0  0  0  0  0  0  0  0  0  0
  139.2904   68.4137  226.8601 H   0  0  0  0  0  0  0  0  0  0  0  0
  140.3157   68.9869  229.0410 H   0  0  0  0  0  0  0  0  0  0  0  0
  141.5004   71.1648  229.3084 H   0  0  0  0  0  0  0  0  0  0  0  0
  141.6589   72.7564  227.4127 H   0  0  0  0  0  0  0  0  0  0  0  0
  140.6240   72.1626  225.2386 H   0  0  0  0  0  0  0  0  0  0  0  0
  139.9819   71.7590  223.9099 H   0  0  0  0  0  0  0  0  0  0  0  0
  137.1605   70.9329  223.8568 H   0  0  0  0  0  0  0  0  0  0  0  0
  137.9131   72.5716  223.9252 H   0  0  0  0  0  0  0  0  0  0  0  0
  137.2959   70.8425  221.5210 H   0  0  0  0  0  0  0  0  0  0  0  0
  136.8278   72.5676  221.8863 H   0  0  0  0  0  0  0  0  0  0  0  0
  140.0479   73.3480  218.7983 H   0  0  0  0  0  0  0  0  0  0  0  0
  138.2270   75.4050  219.0920 H   0  0  0  0  0  0  0  0  0  0  0  0
  139.4200   75.0780  217.8760 H   0  0  0  0  0  0  0  0  0  0  0  0
  140.8308   73.5288  221.2363 H   0  0  0  0  0  0  0  0  0  0  0  0
  139.1350   76.2589  222.5617 H   0  0  0  0  0  0  0  0  0  0  0  0
  139.8519   78.6001  222.7833 H   0  0  0  0  0  0  0  0  0  0  0  0
  141.8007   79.4715  221.5030 H   0  0  0  0  0  0  0  0  0  0  0  0
  143.0174   77.8943  219.9871 H   0  0  0  0  0  0  0  0  0  0  0  0
  142.0711   74.8444  218.7247 H   0  0  0  0  0  0  0  0  0  0  0  0
  142.2051   72.3841  220.4281 H   0  0  0  0  0  0  0  0  0  0  0  0
  144.2067   71.0956  221.0331 H   0  0  0  0  0  0  0  0  0  0  0  0
  146.4433   72.1889  221.1389 H   0  0  0  0  0  0  0  0  0  0  0  0
  146.5887   74.6302  220.6196 H   0  0  0  0  0  0  0  0  0  0  0  0
  144.5675   75.9216  220.0102 H   0  0  0  0  0  0  0  0  0  0  0  0
  140.2877   71.1471  220.3347 H   0  0  0  0  0  0  0  0  0  0  0  0
  140.7939   72.1821  221.6974 H   0  0  0  0  0  0  0  0  0  0  0  0
  138.9594   69.7220  221.8714 H   0  0  0  0  0  0  0  0  0  0  0  0
  140.6578   69.7922  222.4123 H   0  0  0  0  0  0  0  0  0  0  0  0
  1  2  1  0
  2  3  1  0
  3  4  2  0
  3  5  1  0
  5  6  1  0
  6  7  2  0
  7  8  1  0
  8  9  2  0
  9 10  1  0
 10 11  2  0
  5 12  1  0
 12 13  1  0
 13 14  1  0
 14 15  1  0
 15 16  1  0
 16 17  2  0
 16 18  1  0
 18 19  1  0
 18 20  1  0
 20 21  1  0
 21 22  2  0
 22 23  1  0
 23 24  2  0
 24 25  1  0
 25 26  2  0
 26 27  1  0
 27 28  1  0
 28 29  2  0
 29 30  1  0
 30 31  2  0
 31 32  1  0
 32 33  2  0
 15 34  1  0
 34 35  1  0
 11  6  1  0
 35 12  1  0
 27 20  1  0
 33 28  1  0
 26 21  1  0
  1 36  1  0
  1 37  1  0
  1 38  1  0
  2 39  1  0
  2 40  1  0
  7 41  1  0
  8 42  1  0
  9 43  1  0
 10 44  1  0
 11 45  1  0
 12 46  1  0
 13 47  1  0
 13 48  1  0
 14 49  1  0
 14 50  1  0
 18 51  1  6
 19 52  1  0
 19 53  1  0
 20 54  1  1
 22 55  1  0
 23 56  1  0
 24 57  1  0
 25 58  1  0
 27 59  1  6
 29 60  1  0
 30 61  1  0
 31 62  1  0
 32 63  1  0
 33 64  1  0
 34 65  1  0
 34 66  1  0
 35 67  1  0
 35 68  1  0
M  END
>  <smiles>  (103) 
CCC(=O)N(c1ccccc1)C1CCN(C(=O)[C@@H](N)C2c3ccccc3C2c2ccccc2)CC1

>  <score_type>  (103) 
oracle

>  <origin>  (103) 
autodockgpu

>  <m_score__min__energy>  (103) 
-9.1199999999999992

>  <m_primary>  (103) 
energy

>  <rmsd>  (103) 
7.282790988337223

>  <m_score__min__rmsd>  (103) 
7.282790988337223

>  <meeko>  (103) 
{"free_energy": -8.6, "intermolecular_energy": -10.98, "internal_energy": -2.9, "cluster_size": 8, "cluster_id": 1, "rank_in_cluster": 2}

>  <energy>  (103) 
-8.58

>  <cluster_rmsd>  (103) 
1.5

>  <cluster>  (103) 
1

$$$$

     RDKit          3D

 68 72  0  0  0  0  0  0  0  0999 V2000
  136.4080   69.1090  223.2940 C   0  0  0  0  0  0  0  0  0  0  0  0
  137.4100   69.2860  224.4040 C   0  0  0  0  0  0  0  0  0  0  0  0
  138.7670   69.5860  223.8590 C   0  0  0  0  0  0  0  0  0  0  0  0
  139.2240   68.7940  223.0110 O   0  0  0  0  0  0  0  0  0  0  0  0
  139.4500   70.7390  224.3310 N   0  0  0  0  0  0  0  0  0  0  0  0
  139.9940   70.7840  225.6570 C   0  0  0  0  0  0  0  0  0  0  0  0
  139.7580   69.7980  226.5900 C   0  0  0  0  0  0  0  0  0  0  0  0
  140.3020   69.8860  227.8490 C   0  0  0  0  0  0  0  0  0  0  0  0
  141.0960   70.9880  228.1720 C   0  0  0  0  0  0  0  0  0  0  0  0
  141.3410   71.9830  227.2490 C   0  0  0  0  0  0  0  0  0  0  0  0
  140.7870   71.8760  225.9930 C   0  0  0  0  0  0  0  0  0  0  0  0
  139.5730   71.8610  223.4240 C   0  0  0  0  0  0  0  0  0  0  0  0
  138.4130   71.9690  222.4580 C   0  0  0  0  0  0  0  0  0  0  0  0
  138.9020   72.3700  221.0830 C   0  0  0  0  0  0  0  0  0  0  0  0
  139.9240   73.3910  221.1180 N   0  0  0  0  0  0  0  0  0  0  0  0
  139.7710   74.5640  220.3400 C   0  0  0  0  0  0  0  0  0  0  0  0
  138.7270   74.6570  219.6440 O   0  0  0  0  0  0  0  0  0  0  0  0
  140.7400   75.6780  220.2870 C   0  0  1  0  0  0  0  0  0  0  0  0
  140.4830   76.5140  219.1590 N   0  0  0  0  0  0  0  0  0  0  0  0
  140.5390   76.4580  221.6090 C   0  0  2  0  0  0  0  0  0  0  0  0
  139.1860   76.3990  222.1240 C   0  0  0  0  0  0  0  0  0  0  0  0
  138.1610   75.6670  222.7150 C   0  0  0  0  0  0  0  0  0  0  0  0
  136.9380   76.2470  222.9860 C   0  0  0  0  0  0  0  0  0  0  0  0
  136.6830   77.5690  222.6840 C   0  0  0  0  0  0  0  0  0  0  0  0
  137.7090   78.2950  222.0950 C   0  0  0  0  0  0  0  0  0  0  0  0
  138.9460   77.6990  221.8230 C   0  0  0  0  0  0  0  0  0  0  0  0
  140.2810   77.8900  221.2860 C   0  0  1  0  0  0  0  0  0  0  0  0
  141.1530   78.8260  222.0290 C   0  0  0  0  0  0  0  0  0  0  0  0
  141.3080   78.5840  223.3970 C   0  0  0  0  0  0  0  0  0  0  0  0
  142.1040   79.3880  224.1850 C   0  0  0  0  0  0  0  0  0  0  0  0
  142.7810   80.4650  223.6520 C   0  0  0  0  0  0  0  0  0  0  0  0
  142.6260   80.7040  222.2930 C   0  0  0  0  0  0  0  0  0  0  0  0
  141.8190   79.8870  221.4990 C   0  0  0  0  0  0  0  0  0  0  0  0
  141.0740   73.1360  221.9720 C   0  0  0  0  0  0  0  0  0  0  0  0
  140.8660   71.7910  222.6460 C   0  0  0  0  0  0  0  0  0  0  0  0
  135.4112   68.9329  223.7245 H   0  0  0  0  0  0  0  0  0  0  0  0
  136.3842   70.0168  222.6733 H   0  0  0  0  0  0  0  0  0  0  0  0
  136.6967   68.2479  222.6733 H   0  0  0  0  0  0  0  0  0  0  0  0
  137.0895   70.1179  225.0483 H   0  0  0  0  0  0  0  0  0  0  0  0
  137.4633   68.3502  224.9796 H   0  0  0  0  0  0  0  0  0  0  0  0
  139.1299   68.9346  226.3254 H   0  0  0  0  0  0  0  0  0  0  0  0
  140.1142   69.0979  228.5930 H   0  0  0  0  0  0  0  0  0  0  0  0
  141.5331   71.0638  229.1786 H   0  0  0  0  0  0  0  0  0  0  0  0
  141.9684   72.8475  227.5118 H   0  0  0  0  0  0  0  0  0  0  0  0
  140.9737   72.6628  225.2472 H   0  0  0  0  0  0  0  0  0  0  0  0
  139.5676   72.7610  224.0564 H   0  0  0  0  0  0  0  0  0  0  0  0
  137.9056   70.9953  222.3917 H   0  0  0  0  0  0  0  0  0  0  0  0
  137.7157   72.7366  222.8248 H   0  0  0  0  0  0  0  0  0  0  0  0
  139.3139   71.4799  220.5850 H   0  0  0  0  0  0  0  0  0  0  0  0
  138.0418   72.7869  220.5387 H   0  0  0  0  0  0  0  0  0  0  0  0
  141.7742   75.3187  220.1804 H   0  0  0  0  0  0  0  0  0  0  0  0
  139.4860   76.5410  218.9060 H   0  0  0  0  0  0  0  0  0  0  0  0
  141.1050   76.1990  218.3830 H   0  0  0  0  0  0  0  0  0  0  0  0
  141.3784   76.1004  222.2235 H   0  0  0  0  0  0  0  0  0  0  0  0
  138.3277   74.6101  222.9702 H   0  0  0  0  0  0  0  0  0  0  0  0
  136.1481   75.6410  223.4537 H   0  0  0  0  0  0  0  0  0  0  0  0
  135.7074   78.0284  222.9010 H   0  0  0  0  0  0  0  0  0  0  0  0
  137.5479   79.3525  221.8386 H   0  0  0  0  0  0  0  0  0  0  0  0
  140.4260   78.3141  220.2814 H   0  0  0  0  0  0  0  0  0  0  0  0
  140.7830   77.7329  223.8552 H   0  0  0  0  0  0  0  0  0  0  0  0
  142.2009   79.1665  225.2581 H   0  0  0  0  0  0  0  0  0  0  0  0
  143.4174   81.1080  224.2777 H   0  0  0  0  0  0  0  0  0  0  0  0
  143.1499   81.5546  221.8325 H   0  0  0  0  0  0  0  0  0  0  0  0
  141.7200   80.1053  220.4254 H   0  0  0  0  0  0  0  0  0  0  0  0
  141.9917   73.1124  221.3659 H   0  0  0  0  0  0  0  0  0  0  0  0
  141.1751   73.9307  222.7258 H   0  0  0  0  0  0  0  0  0  0  0  0
  140.8037   70.9974  221.8868 H   0  0  0  0  0  0  0  0  0  0  0  0
  141.7071   71.5627  223.3172 H   0  0  0  0  0  0  0  0  0  0  0  0
  1  2  1  0
  2  3  1  0
  3  4  2  0
  3  5  1  0
  5  6  1  0
  6  7  2  0
  7  8  1  0
  8  9  2  0
  9 10  1  0
 10 11  2  0
  5 12  1  0
 12 13  1  0
 13 14  1  0
 14 15  1  0
 15 16  1  0
 16 17  2  0
 16 18  1  0
 18 19  1  0
 18 20  1  0
 20 21  1  0
 21 22  2  0
 22 23  1  0
 23 24  2  0
 24 25  1  0
 25 26  2  0
 26 27  1  0
 27 28  1  0
 28 29  2  0
 29 30  1  0
 30 31  2  0
 31 32  1  0
 32 33  2  0
 15 34  1  0
 34 35  1  0
 11  6  1  0
 35 12  1  0
 27 20  1  0
 33 28  1  0
 26 21  1  0
  1 36  1  0
  1 37  1  0
  1 38  1  0
  2 39  1  0
  2 40  1  0
  7 41  1  0
  8 42  1  0
  9 43  1  0
 10 44  1  0
 11 45  1  0
 12 46  1  0
 13 47  1  0
 13 48  1  0
 14 49  1  0
 14 50  1  0
 18 51  1  6
 19 52  1  0
 19 53  1  0
 20 54  1  1
 22 55  1  0
 23 56  1  0
 24 57  1  0
 25 58  1  0
 27 59  1  6
 29 60  1  0
 30 61  1  0
 31 62  1  0
 32 63  1  0
 33 64  1  0
 34 65  1  0
 34 66  1  0
 35 67  1  0
 35 68  1  0
M  END
>  <smiles>  (104) 
CCC(=O)N(c1ccccc1)C1CCN(C(=O)[C@@H](N)C2c3ccccc3C2c2ccccc2)CC1

>  <score_type>  (104) 
oracle

>  <origin>  (104) 
autodockgpu

>  <m_score__min__energy>  (104) 
-9.1199999999999992

>  <m_primary>  (104) 
energy

>  <rmsd>  (104) 
7.527284289094048

>  <m_score__min__rmsd>  (104) 
7.527284289094048

>  <meeko>  (104) 
{"free_energy": -8.32, "intermolecular_energy": -10.71, "internal_energy": -3.27, "cluster_size": 30, "cluster_id": 3, "rank_in_cluster": 16}

>  <energy>  (104) 
-8.56

>  <cluster_rmsd>  (104) 
1.7

>  <cluster>  (104) 
1

$$$$

     RDKit          3D

 68 72  0  0  0  0  0  0  0  0999 V2000
  137.9610   67.9470  222.2220 C   0  0  0  0  0  0  0  0  0  0  0  0
  138.8100   68.2480  223.4290 C   0  0  0  0  0  0  0  0  0  0  0  0
  138.2570   69.4000  224.2010 C   0  0  0  0  0  0  0  0  0  0  0  0
  137.0310   69.3910  224.4310 O   0  0  0  0  0  0  0  0  0  0  0  0
  139.1450   70.4260  224.6220 N   0  0  0  0  0  0  0  0  0  0  0  0
  139.8110   70.3520  225.8900 C   0  0  0  0  0  0  0  0  0  0  0  0
  139.8970   69.1840  226.6160 C   0  0  0  0  0  0  0  0  0  0  0  0
  140.5460   69.1640  227.8270 C   0  0  0  0  0  0  0  0  0  0  0  0
  141.1170   70.3410  228.3130 C   0  0  0  0  0  0  0  0  0  0  0  0
  141.0390   71.5170  227.5980 C   0  0  0  0  0  0  0  0  0  0  0  0
  140.3850   71.5160  226.3870 C   0  0  0  0  0  0  0  0  0  0  0  0
  139.3480   71.5440  223.7240 C   0  0  0  0  0  0  0  0  0  0  0  0
  138.2270   71.7080  222.7230 C   0  0  0  0  0  0  0  0  0  0  0  0
  138.7770   72.0910  221.3650 C   0  0  0  0  0  0  0  0  0  0  0  0
  139.8440   73.0640  221.4380 N   0  0  0  0  0  0  0  0  0  0  0  0
  139.7700   74.2450  220.6610 C   0  0  0  0  0  0  0  0  0  0  0  0
  138.7540   74.3880  219.9320 O   0  0  0  0  0  0  0  0  0  0  0  0
  140.7910   75.3130  220.6440 C   0  0  1  0  0  0  0  0  0  0  0  0
  140.7180   76.0580  219.4290 N   0  0  0  0  0  0  0  0  0  0  0  0
  140.4630   76.2110  221.8620 C   0  0  2  0  0  0  0  0  0  0  0  0
  139.0520   76.2650  222.1870 C   0  0  0  0  0  0  0  0  0  0  0  0
  137.9130   75.6400  222.6830 C   0  0  0  0  0  0  0  0  0  0  0  0
  136.7040   76.3030  222.7370 C   0  0  0  0  0  0  0  0  0  0  0  0
  136.5750   77.6060  222.3030 C   0  0  0  0  0  0  0  0  0  0  0  0
  137.7140   78.2260  221.8090 C   0  0  0  0  0  0  0  0  0  0  0  0
  138.9360   77.5460  221.7580 C   0  0  0  0  0  0  0  0  0  0  0  0
  140.3420   77.6220  221.3980 C   0  0  1  0  0  0  0  0  0  0  0  0
  141.1630   78.5700  222.1820 C   0  0  0  0  0  0  0  0  0  0  0  0
  141.7750   79.6050  221.4680 C   0  0  0  0  0  0  0  0  0  0  0  0
  142.5560   80.5510  222.0990 C   0  0  0  0  0  0  0  0  0  0  0  0
  142.7650   80.5110  223.4620 C   0  0  0  0  0  0  0  0  0  0  0  0
  142.1560   79.4830  224.1680 C   0  0  0  0  0  0  0  0  0  0  0  0
  141.3650   78.5280  223.5260 C   0  0  0  0  0  0  0  0  0  0  0  0
  140.9530   72.7530  222.3270 C   0  0  0  0  0  0  0  0  0  0  0  0
  140.6610   71.4170  222.9870 C   0  0  0  0  0  0  0  0  0  0  0  0
  136.9709   67.5960  222.5484 H   0  0  0  0  0  0  0  0  0  0  0  0
  137.8459   68.8591  221.6180 H   0  0  0  0  0  0  0  0  0  0  0  0
  138.4461   67.1661  221.6180 H   0  0  0  0  0  0  0  0  0  0  0  0
  138.8385   67.3607  224.0786 H   0  0  0  0  0  0  0  0  0  0  0  0
  139.8224   68.5098  223.0877 H   0  0  0  0  0  0  0  0  0  0  0  0
  139.4433   68.2619  226.2237 H   0  0  0  0  0  0  0  0  0  0  0  0
  140.6147   68.2315  228.4064 H   0  0  0  0  0  0  0  0  0  0  0  0
  141.6376   70.3302  229.2820 H   0  0  0  0  0  0  0  0  0  0  0  0
  141.4917   72.4403  227.9886 H   0  0  0  0  0  0  0  0  0  0  0  0
  140.3158   72.4473  225.8058 H   0  0  0  0  0  0  0  0  0  0  0  0
  139.3633   72.4413  224.3600 H   0  0  0  0  0  0  0  0  0  0  0  0
  137.6781   70.7587  222.6361 H   0  0  0  0  0  0  0  0  0  0  0  0
  137.5545   72.5058  223.0712 H   0  0  0  0  0  0  0  0  0  0  0  0
  139.1629   71.1847  220.8755 H   0  0  0  0  0  0  0  0  0  0  0  0
  137.9546   72.5488  220.7958 H   0  0  0  0  0  0  0  0  0  0  0  0
  141.8118   74.9072  220.7010 H   0  0  0  0  0  0  0  0  0  0  0  0
  139.9770   75.7180  218.8000 H   0  0  0  0  0  0  0  0  0  0  0  0
  141.6670   76.0560  218.9990 H   0  0  0  0  0  0  0  0  0  0  0  0
  141.1878   75.8636  222.6130 H   0  0  0  0  0  0  0  0  0  0  0  0
  137.9768   74.6008  223.0379 H   0  0  0  0  0  0  0  0  0  0  0  0
  135.8222   75.7800  223.1356 H   0  0  0  0  0  0  0  0  0  0  0  0
  135.6097   78.1316  222.3466 H   0  0  0  0  0  0  0  0  0  0  0  0
  137.6556   79.2652  221.4530 H   0  0  0  0  0  0  0  0  0  0  0  0
  140.6472   77.9521  220.3941 H   0  0  0  0  0  0  0  0  0  0  0  0
  141.6304   79.6662  220.3793 H   0  0  0  0  0  0  0  0  0  0  0  0
  143.0205   81.3516  221.5046 H   0  0  0  0  0  0  0  0  0  0  0  0
  143.3885   81.2627  223.9682 H   0  0  0  0  0  0  0  0  0  0  0  0
  142.2995   79.4191  225.2567 H   0  0  0  0  0  0  0  0  0  0  0  0
  140.8971   77.7276  224.1180 H   0  0  0  0  0  0  0  0  0  0  0  0
  141.8876   72.6888  221.7504 H   0  0  0  0  0  0  0  0  0  0  0  0
  141.0669   73.5395  223.0875 H   0  0  0  0  0  0  0  0  0  0  0  0
  140.5863   70.6300  222.2221 H   0  0  0  0  0  0  0  0  0  0  0  0
  141.4685   71.1476  223.6836 H   0  0  0  0  0  0  0  0  0  0  0  0
  1  2  1  0
  2  3  1  0
  3  4  2  0
  3  5  1  0
  5  6  1  0
  6  7  2  0
  7  8  1  0
  8  9  2  0
  9 10  1  0
 10 11  2  0
  5 12  1  0
 12 13  1  0
 13 14  1  0
 14 15  1  0
 15 16  1  0
 16 17  2  0
 16 18  1  0
 18 19  1  0
 18 20  1  0
 20 21  1  0
 21 22  2  0
 22 23  1  0
 23 24  2  0
 24 25  1  0
 25 26  2  0
 26 27  1  0
 27 28  1  0
 28 29  2  0
 29 30  1  0
 30 31  2  0
 31 32  1  0
 32 33  2  0
 15 34  1  0
 34 35  1  0
 11  6  1  0
 35 12  1  0
 27 20  1  0
 33 28  1  0
 26 21  1  0
  1 36  1  0
  1 37  1  0
  1 38  1  0
  2 39  1  0
  2 40  1  0
  7 41  1  0
  8 42  1  0
  9 43  1  0
 10 44  1  0
 11 45  1  0
 12 46  1  0
 13 47  1  0
 13 48  1  0
 14 49  1  0
 14 50  1  0
 18 51  1  1
 19 52  1  0
 19 53  1  0
 20 54  1  1
 22 55  1  0
 23 56  1  0
 24 57  1  0
 25 58  1  0
 27 59  1  6
 29 60  1  0
 30 61  1  0
 31 62  1  0
 32 63  1  0
 33 64  1  0
 34 65  1  0
 34 66  1  0
 35 67  1  0
 35 68  1  0
M  END
>  <smiles>  (105) 
CCC(=O)N(c1ccccc1)C1CCN(C(=O)[C@@H](N)C2c3ccccc3C2c2ccccc2)CC1

>  <score_type>  (105) 
oracle

>  <origin>  (105) 
autodockgpu

>  <m_score__min__energy>  (105) 
-9.1199999999999992

>  <m_primary>  (105) 
energy

>  <rmsd>  (105) 
7.479098002670266

>  <m_score__min__rmsd>  (105) 
7.479098002670266

>  <meeko>  (105) 
{"free_energy": -8.41, "intermolecular_energy": -10.79, "internal_energy": -3.17, "cluster_size": 30, "cluster_id": 3, "rank_in_cluster": 10}

>  <energy>  (105) 
-8.54

>  <cluster_rmsd>  (105) 
1.7

>  <cluster>  (105) 
1

$$$$

     RDKit          3D

 68 72  0  0  0  0  0  0  0  0999 V2000
  137.7340   67.7760  222.1620 C   0  0  0  0  0  0  0  0  0  0  0  0
  138.8420   68.5270  222.8510 C   0  0  0  0  0  0  0  0  0  0  0  0
  138.2940   69.5720  223.7660 C   0  0  0  0  0  0  0  0  0  0  0  0
  137.0830   69.4920  224.0560 O   0  0  0  0  0  0  0  0  0  0  0  0
  139.1700   70.5830  224.2460 N   0  0  0  0  0  0  0  0  0  0  0  0
  139.7930   70.4700  225.5320 C   0  0  0  0  0  0  0  0  0  0  0  0
  139.7390   69.3170  226.2850 C   0  0  0  0  0  0  0  0  0  0  0  0
  140.3530   69.2570  227.5120 C   0  0  0  0  0  0  0  0  0  0  0  0
  141.0320   70.3800  227.9890 C   0  0  0  0  0  0  0  0  0  0  0  0
  141.0950   71.5410  227.2480 C   0  0  0  0  0  0  0  0  0  0  0  0
  140.4730   71.5800  226.0200 C   0  0  0  0  0  0  0  0  0  0  0  0
  139.4030   71.7270  223.3890 C   0  0  0  0  0  0  0  0  0  0  0  0
  138.2870   71.9570  222.3940 C   0  0  0  0  0  0  0  0  0  0  0  0
  138.8490   72.3730  221.0510 C   0  0  0  0  0  0  0  0  0  0  0  0
  139.9420   73.3130  221.1590 N   0  0  0  0  0  0  0  0  0  0  0  0
  139.9000   74.5230  220.4250 C   0  0  0  0  0  0  0  0  0  0  0  0
  138.8900   74.7200  219.7020 O   0  0  0  0  0  0  0  0  0  0  0  0
  140.9500   75.5630  220.4460 C   0  0  1  0  0  0  0  0  0  0  0  0
  140.8820   76.3690  219.2710 N   0  0  0  0  0  0  0  0  0  0  0  0
  140.6630   76.4080  221.7110 C   0  0  2  0  0  0  0  0  0  0  0  0
  139.2810   76.3600  222.1460 C   0  0  0  0  0  0  0  0  0  0  0  0
  138.2280   75.6490  222.7110 C   0  0  0  0  0  0  0  0  0  0  0  0
  136.9860   76.2280  222.8770 C   0  0  0  0  0  0  0  0  0  0  0  0
  136.7400   77.5300  222.4920 C   0  0  0  0  0  0  0  0  0  0  0  0
  137.7940   78.2360  221.9300 C   0  0  0  0  0  0  0  0  0  0  0  0
  139.0490   77.6400  221.7650 C   0  0  0  0  0  0  0  0  0  0  0  0
  140.4140   77.8190  221.2990 C   0  0  1  0  0  0  0  0  0  0  0  0
  141.2320   78.8010  222.0440 C   0  0  0  0  0  0  0  0  0  0  0  0
  141.4160   78.5550  223.4080 C   0  0  0  0  0  0  0  0  0  0  0  0
  142.1670   79.4000  224.1970 C   0  0  0  0  0  0  0  0  0  0  0  0
  142.7670   80.5240  223.6700 C   0  0  0  0  0  0  0  0  0  0  0  0
  142.5830   80.7660  222.3150 C   0  0  0  0  0  0  0  0  0  0  0  0
  141.8220   79.9080  221.5200 C   0  0  0  0  0  0  0  0  0  0  0  0
  141.0410   72.9410  222.0360 C   0  0  0  0  0  0  0  0  0  0  0  0
  140.7130   71.5900  222.6480 C   0  0  0  0  0  0  0  0  0  0  0  0
  137.0712   67.3268  222.9163 H   0  0  0  0  0  0  0  0  0  0  0  0
  137.1567   68.4697  221.5331 H   0  0  0  0  0  0  0  0  0  0  0  0
  138.1645   66.9828  221.5331 H   0  0  0  0  0  0  0  0  0  0  0  0
  139.4468   67.8185  223.4359 H   0  0  0  0  0  0  0  0  0  0  0  0
  139.4585   69.0209  222.0855 H   0  0  0  0  0  0  0  0  0  0  0  0
  139.2002   68.4384  225.9005 H   0  0  0  0  0  0  0  0  0  0  0  0
  140.3104   68.3357  228.1115 H   0  0  0  0  0  0  0  0  0  0  0  0
  141.5245   70.3377  228.9717 H   0  0  0  0  0  0  0  0  0  0  0  0
  141.6328   72.4208  227.6311 H   0  0  0  0  0  0  0  0  0  0  0  0
  140.5147   72.4999  225.4184 H   0  0  0  0  0  0  0  0  0  0  0  0
  139.4411   72.6007  224.0562 H   0  0  0  0  0  0  0  0  0  0  0  0
  137.7127   71.0266  222.2732 H   0  0  0  0  0  0  0  0  0  0  0  0
  137.6357   72.7596  222.7703 H   0  0  0  0  0  0  0  0  0  0  0  0
  139.2105   71.4745  220.5295 H   0  0  0  0  0  0  0  0  0  0  0  0
  138.0402   72.8733  220.4983 H   0  0  0  0  0  0  0  0  0  0  0  0
  141.9597   75.1272  220.4682 H   0  0  0  0  0  0  0  0  0  0  0  0
  141.4340   77.2350  219.3520 H   0  0  0  0  0  0  0  0  0  0  0  0
  139.8740   76.5330  219.0560 H   0  0  0  0  0  0  0  0  0  0  0  0
  141.4664   76.0922  222.3928 H   0  0  0  0  0  0  0  0  0  0  0  0
  138.3873   74.6086  223.0307 H   0  0  0  0  0  0  0  0  0  0  0  0
  136.1737   75.6379  223.3265 H   0  0  0  0  0  0  0  0  0  0  0  0
  135.7494   77.9892  222.6251 H   0  0  0  0  0  0  0  0  0  0  0  0
  137.6410   79.2773  221.6102 H   0  0  0  0  0  0  0  0  0  0  0  0
  140.6161   78.1931  220.2845 H   0  0  0  0  0  0  0  0  0  0  0  0
  140.9511   77.6673  223.8618 H   0  0  0  0  0  0  0  0  0  0  0  0
  142.2898   79.1734  225.2664 H   0  0  0  0  0  0  0  0  0  0  0  0
  143.3664   81.2008  224.2967 H   0  0  0  0  0  0  0  0  0  0  0  0
  143.0470   81.6529  221.8587 H   0  0  0  0  0  0  0  0  0  0  0  0
  141.6973   80.1314  220.4502 H   0  0  0  0  0  0  0  0  0  0  0  0
  141.9741   72.8727  221.4575 H   0  0  0  0  0  0  0  0  0  0  0  0
  141.1749   73.6965  222.8243 H   0  0  0  0  0  0  0  0  0  0  0  0
  140.6178   70.8330  221.8556 H   0  0  0  0  0  0  0  0  0  0  0  0
  141.5124   71.2736  223.3341 H   0  0  0  0  0  0  0  0  0  0  0  0
  1  2  1  0
  2  3  1  0
  3  4  2  0
  3  5  1  0
  5  6  1  0
  6  7  2  0
  7  8  1  0
  8  9  2  0
  9 10  1  0
 10 11  2  0
  5 12  1  0
 12 13  1  0
 13 14  1  0
 14 15  1  0
 15 16  1  0
 16 17  2  0
 16 18  1  0
 18 19  1  0
 18 20  1  0
 20 21  1  0
 21 22  2  0
 22 23  1  0
 23 24  2  0
 24 25  1  0
 25 26  2  0
 26 27  1  0
 27 28  1  0
 28 29  2  0
 29 30  1  0
 30 31  2  0
 31 32  1  0
 32 33  2  0
 15 34  1  0
 34 35  1  0
 11  6  1  0
 35 12  1  0
 27 20  1  0
 33 28  1  0
 26 21  1  0
  1 36  1  0
  1 37  1  0
  1 38  1  0
  2 39  1  0
  2 40  1  0
  7 41  1  0
  8 42  1  0
  9 43  1  0
 10 44  1  0
 11 45  1  0
 12 46  1  0
 13 47  1  0
 13 48  1  0
 14 49  1  0
 14 50  1  0
 18 51  1  1
 19 52  1  0
 19 53  1  0
 20 54  1  1
 22 55  1  0
 23 56  1  0
 24 57  1  0
 25 58  1  0
 27 59  1  6
 29 60  1  0
 30 61  1  0
 31 62  1  0
 32 63  1  0
 33 64  1  0
 34 65  1  0
 34 66  1  0
 35 67  1  0
 35 68  1  0
M  END
>  <smiles>  (106) 
CCC(=O)N(c1ccccc1)C1CCN(C(=O)[C@@H](N)C2c3ccccc3C2c2ccccc2)CC1

>  <score_type>  (106) 
oracle

>  <origin>  (106) 
autodockgpu

>  <m_score__min__energy>  (106) 
-9.1199999999999992

>  <m_primary>  (106) 
energy

>  <rmsd>  (106) 
7.50531628846867

>  <m_score__min__rmsd>  (106) 
7.50531628846867

>  <meeko>  (106) 
{"free_energy": -8.3, "intermolecular_energy": -10.69, "internal_energy": -3.2, "cluster_size": 30, "cluster_id": 3, "rank_in_cluster": 17}

>  <energy>  (106) 
-8.47

>  <cluster_rmsd>  (106) 
1.63

>  <cluster>  (106) 
1

$$$$

     RDKit          3D

 68 72  0  0  0  0  0  0  0  0999 V2000
  136.1060   70.8200  224.2790 C   0  0  0  0  0  0  0  0  0  0  0  0
  136.8290   69.5010  224.2070 C   0  0  0  0  0  0  0  0  0  0  0  0
  138.1600   69.6540  223.5470 C   0  0  0  0  0  0  0  0  0  0  0  0
  138.3950   68.9150  222.5700 O   0  0  0  0  0  0  0  0  0  0  0  0
  139.0680   70.6180  224.0610 N   0  0  0  0  0  0  0  0  0  0  0  0
  139.7010   70.4300  225.3340 C   0  0  0  0  0  0  0  0  0  0  0  0
  139.7150   69.2160  225.9850 C   0  0  0  0  0  0  0  0  0  0  0  0
  140.3360   69.0860  227.2030 C   0  0  0  0  0  0  0  0  0  0  0  0
  140.9520   70.2000  227.7760 C   0  0  0  0  0  0  0  0  0  0  0  0
  140.9460   71.4220  227.1370 C   0  0  0  0  0  0  0  0  0  0  0  0
  140.3190   71.5310  225.9160 C   0  0  0  0  0  0  0  0  0  0  0  0
  139.3250   71.7920  223.2530 C   0  0  0  0  0  0  0  0  0  0  0  0
  138.2480   72.0460  222.2220 C   0  0  0  0  0  0  0  0  0  0  0  0
  138.8590   72.5120  220.9180 C   0  0  0  0  0  0  0  0  0  0  0  0
  139.9370   73.4570  221.1000 N   0  0  0  0  0  0  0  0  0  0  0  0
  139.9140   74.6910  220.4060 C   0  0  0  0  0  0  0  0  0  0  0  0
  138.9310   74.9040  219.6500 O   0  0  0  0  0  0  0  0  0  0  0  0
  140.9510   75.7380  220.5050 C   0  0  1  0  0  0  0  0  0  0  0  0
  140.9100   76.5950  219.3640 N   0  0  0  0  0  0  0  0  0  0  0  0
  140.6180   76.5240  221.7970 C   0  0  2  0  0  0  0  0  0  0  0  0
  139.2290   76.4270  222.1990 C   0  0  0  0  0  0  0  0  0  0  0  0
  138.1810   75.6690  222.7110 C   0  0  0  0  0  0  0  0  0  0  0  0
  136.9240   76.2130  222.8740 C   0  0  0  0  0  0  0  0  0  0  0  0
  136.6540   77.5230  222.5370 C   0  0  0  0  0  0  0  0  0  0  0  0
  137.7030   78.2760  222.0260 C   0  0  0  0  0  0  0  0  0  0  0  0
  138.9750   77.7160  221.8640 C   0  0  0  0  0  0  0  0  0  0  0  0
  140.3450   77.9440  221.4370 C   0  0  1  0  0  0  0  0  0  0  0  0
  141.1230   78.9130  222.2380 C   0  0  0  0  0  0  0  0  0  0  0  0
  141.5110   80.0910  221.5910 C   0  0  0  0  0  0  0  0  0  0  0  0
  142.2330   81.0670  222.2450 C   0  0  0  0  0  0  0  0  0  0  0  0
  142.6020   80.9190  223.5660 C   0  0  0  0  0  0  0  0  0  0  0  0
  142.2160   79.7490  224.2060 C   0  0  0  0  0  0  0  0  0  0  0  0
  141.4840   78.7630  223.5410 C   0  0  0  0  0  0  0  0  0  0  0  0
  141.0040   73.0650  222.0090 C   0  0  0  0  0  0  0  0  0  0  0  0
  140.6650   71.6910  222.5610 C   0  0  0  0  0  0  0  0  0  0  0  0
  135.9538   71.0977  225.3324 H   0  0  0  0  0  0  0  0  0  0  0  0
  136.7056   71.5946  223.7786 H   0  0  0  0  0  0  0  0  0  0  0  0
  135.1305   70.7312  223.7786 H   0  0  0  0  0  0  0  0  0  0  0  0
  136.9756   69.1153  225.2267 H   0  0  0  0  0  0  0  0  0  0  0  0
  136.2224   68.8015  223.6132 H   0  0  0  0  0  0  0  0  0  0  0  0
  139.2253   68.3445  225.5260 H   0  0  0  0  0  0  0  0  0  0  0  0
  140.3479   68.1156  227.7209 H   0  0  0  0  0  0  0  0  0  0  0  0
  141.4497   70.1015  228.7520 H   0  0  0  0  0  0  0  0  0  0  0  0
  141.4339   72.2950  227.5950 H   0  0  0  0  0  0  0  0  0  0  0  0
  140.3069   72.4999  225.3953 H   0  0  0  0  0  0  0  0  0  0  0  0
  139.3286   72.6427  223.9503 H   0  0  0  0  0  0  0  0  0  0  0  0
  137.6883   71.1154  222.0469 H   0  0  0  0  0  0  0  0  0  0  0  0
  137.5742   72.8298  222.5983 H   0  0  0  0  0  0  0  0  0  0  0  0
  139.2500   71.6347  220.3819 H   0  0  0  0  0  0  0  0  0  0  0  0
  138.0677   73.0241  220.3508 H   0  0  0  0  0  0  0  0  0  0  0  0
  141.9640   75.3107  220.5392 H   0  0  0  0  0  0  0  0  0  0  0  0
  139.9700   76.6530  218.9470 H   0  0  0  0  0  0  0  0  0  0  0  0
  141.6450   76.2720  218.6990 H   0  0  0  0  0  0  0  0  0  0  0  0
  141.4140   76.1989  222.4830 H   0  0  0  0  0  0  0  0  0  0  0  0
  138.3574   74.6197  222.9901 H   0  0  0  0  0  0  0  0  0  0  0  0
  136.1172   75.5869  223.2827 H   0  0  0  0  0  0  0  0  0  0  0  0
  135.6500   77.9532  222.6675 H   0  0  0  0  0  0  0  0  0  0  0  0
  137.5318   79.3257  221.7451 H   0  0  0  0  0  0  0  0  0  0  0  0
  140.5604   78.3633  220.4431 H   0  0  0  0  0  0  0  0  0  0  0  0
  141.2340   80.2421  220.5372 H   0  0  0  0  0  0  0  0  0  0  0  0
  142.5200   81.9804  221.7034 H   0  0  0  0  0  0  0  0  0  0  0  0
  143.1781   81.6956  224.0904 H   0  0  0  0  0  0  0  0  0  0  0  0
  142.4927   79.5953  225.2595 H   0  0  0  0  0  0  0  0  0  0  0  0
  141.1942   77.8491  224.0802 H   0  0  0  0  0  0  0  0  0  0  0  0
  141.9606   73.0247  221.4674 H   0  0  0  0  0  0  0  0  0  0  0  0
  141.0981   73.7943  222.8271 H   0  0  0  0  0  0  0  0  0  0  0  0
  140.6087   70.9609  221.7402 H   0  0  0  0  0  0  0  0  0  0  0  0
  141.4395   71.3576  223.2675 H   0  0  0  0  0  0  0  0  0  0  0  0
  1  2  1  0
  2  3  1  0
  3  4  2  0
  3  5  1  0
  5  6  1  0
  6  7  2  0
  7  8  1  0
  8  9  2  0
  9 10  1  0
 10 11  2  0
  5 12  1  0
 12 13  1  0
 13 14  1  0
 14 15  1  0
 15 16  1  0
 16 17  2  0
 16 18  1  0
 18 19  1  0
 18 20  1  0
 20 21  1  0
 21 22  2  0
 22 23  1  0
 23 24  2  0
 24 25  1  0
 25 26  2  0
 26 27  1  0
 27 28  1  0
 28 29  2  0
 29 30  1  0
 30 31  2  0
 31 32  1  0
 32 33  2  0
 15 34  1  0
 34 35  1  0
 11  6  1  0
 35 12  1  0
 27 20  1  0
 33 28  1  0
 26 21  1  0
  1 36  1  0
  1 37  1  0
  1 38  1  0
  2 39  1  0
  2 40  1  0
  7 41  1  0
  8 42  1  0
  9 43  1  0
 10 44  1  0
 11 45  1  0
 12 46  1  0
 13 47  1  0
 13 48  1  0
 14 49  1  0
 14 50  1  0
 18 51  1  1
 19 52  1  0
 19 53  1  0
 20 54  1  1
 22 55  1  0
 23 56  1  0
 24 57  1  0
 25 58  1  0
 27 59  1  6
 29 60  1  0
 30 61  1  0
 31 62  1  0
 32 63  1  0
 33 64  1  0
 34 65  1  0
 34 66  1  0
 35 67  1  0
 35 68  1  0
M  END
>  <smiles>  (107) 
CCC(=O)N(c1ccccc1)C1CCN(C(=O)[C@@H](N)C2c3ccccc3C2c2ccccc2)CC1

>  <score_type>  (107) 
oracle

>  <origin>  (107) 
autodockgpu

>  <m_score__min__energy>  (107) 
-9.1199999999999992

>  <m_primary>  (107) 
energy

>  <rmsd>  (107) 
7.5470372601742675

>  <m_score__min__rmsd>  (107) 
7.5470372601742675

>  <meeko>  (107) 
{"free_energy": -8.11, "intermolecular_energy": -10.5, "internal_energy": -3.29, "cluster_size": 30, "cluster_id": 3, "rank_in_cluster": 21}

>  <energy>  (107) 
-8.46

>  <cluster_rmsd>  (107) 
1.69

>  <cluster>  (107) 
1

$$$$

     RDKit          3D

 68 72  0  0  0  0  0  0  0  0999 V2000
  136.3990   69.6070  224.9810 C   0  0  0  0  0  0  0  0  0  0  0  0
  137.2780   68.9140  223.9730 C   0  0  0  0  0  0  0  0  0  0  0  0
  138.6990   68.8840  224.4310 C   0  0  0  0  0  0  0  0  0  0  0  0
  139.2020   67.7630  224.6420 O   0  0  0  0  0  0  0  0  0  0  0  0
  139.3860   70.1170  224.5960 N   0  0  0  0  0  0  0  0  0  0  0  0
  139.9540   70.4810  225.8610 C   0  0  0  0  0  0  0  0  0  0  0  0
  140.7150   71.6170  226.0350 C   0  0  0  0  0  0  0  0  0  0  0  0
  141.2380   71.9230  227.2670 C   0  0  0  0  0  0  0  0  0  0  0  0
  140.9910   71.0680  228.3430 C   0  0  0  0  0  0  0  0  0  0  0  0
  140.2320   69.9280  228.1850 C   0  0  0  0  0  0  0  0  0  0  0  0
  139.7160   69.6390  226.9420 C   0  0  0  0  0  0  0  0  0  0  0  0
  139.4860   70.9860  223.4420 C   0  0  0  0  0  0  0  0  0  0  0  0
  138.1870   71.6900  223.1190 C   0  0  0  0  0  0  0  0  0  0  0  0
  137.9730   71.7490  221.6210 C   0  0  0  0  0  0  0  0  0  0  0  0
  139.1780   72.0590  220.8860 N   0  0  0  0  0  0  0  0  0  0  0  0
  139.1740   73.1210  219.9500 C   0  0  0  0  0  0  0  0  0  0  0  0
  138.0970   73.7540  219.8050 O   0  0  0  0  0  0  0  0  0  0  0  0
  140.3360   73.5370  219.1360 C   0  0  1  0  0  0  0  0  0  0  0  0
  139.9800   74.6080  218.2620 N   0  0  0  0  0  0  0  0  0  0  0  0
  141.4080   73.9920  220.1560 C   0  0  2  0  0  0  0  0  0  0  0  0
  141.1850   75.3210  220.6870 C   0  0  0  0  0  0  0  0  0  0  0  0
  140.4430   76.1800  221.4920 C   0  0  0  0  0  0  0  0  0  0  0  0
  140.7660   77.5180  221.5920 C   0  0  0  0  0  0  0  0  0  0  0  0
  141.8330   78.0560  220.9020 C   0  0  0  0  0  0  0  0  0  0  0  0
  142.5700   77.1960  220.1010 C   0  0  0  0  0  0  0  0  0  0  0  0
  142.2340   75.8410  220.0050 C   0  0  0  0  0  0  0  0  0  0  0  0
  142.5690   74.5570  219.4120 C   0  0  1  0  0  0  0  0  0  0  0  0
  143.8660   73.9730  219.8150 C   0  0  0  0  0  0  0  0  0  0  0  0
  144.1020   72.6490  219.4310 C   0  0  0  0  0  0  0  0  0  0  0  0
  145.2800   72.0070  219.7460 C   0  0  0  0  0  0  0  0  0  0  0  0
  146.2760   72.6470  220.4550 C   0  0  0  0  0  0  0  0  0  0  0  0
  146.0400   73.9620  220.8350 C   0  0  0  0  0  0  0  0  0  0  0  0
  144.8450   74.6080  220.5140 C   0  0  0  0  0  0  0  0  0  0  0  0
  140.3440   71.2350  221.1640 C   0  0  0  0  0  0  0  0  0  0  0  0
  139.9560   70.2210  222.2270 C   0  0  0  0  0  0  0  0  0  0  0  0
  136.7300   69.3460  225.9970 H   0  0  0  0  0  0  0  0  0  0  0  0
  136.4686   70.6958  224.8410 H   0  0  0  0  0  0  0  0  0  0  0  0
  135.3565   69.2852  224.8410 H   0  0  0  0  0  0  0  0  0  0  0  0
  136.9228   67.8821  223.8356 H   0  0  0  0  0  0  0  0  0  0  0  0
  137.2277   69.4692  223.0247 H   0  0  0  0  0  0  0  0  0  0  0  0
  140.9047   72.2833  225.1806 H   0  0  0  0  0  0  0  0  0  0  0  0
  141.8442   72.8305  227.4047 H   0  0  0  0  0  0  0  0  0  0  0  0
  141.4085   71.3078  229.3320 H   0  0  0  0  0  0  0  0  0  0  0  0
  140.0418   69.2603  229.0382 H   0  0  0  0  0  0  0  0  0  0  0  0
  139.1089   68.7324  226.8022 H   0  0  0  0  0  0  0  0  0  0  0  0
  140.2263   71.7553  223.7071 H   0  0  0  0  0  0  0  0  0  0  0  0
  137.3534   71.1418  223.5823 H   0  0  0  0  0  0  0  0  0  0  0  0
  138.2316   72.7163  223.5123 H   0  0  0  0  0  0  0  0  0  0  0  0
  137.5986   70.7716  221.2825 H   0  0  0  0  0  0  0  0  0  0  0  0
  137.2532   72.5574  221.4250 H   0  0  0  0  0  0  0  0  0  0  0  0
  140.7030   72.7205  218.4968 H   0  0  0  0  0  0  0  0  0  0  0  0
  140.7570   75.2630  218.1010 H   0  0  0  0  0  0  0  0  0  0  0  0
  139.1230   75.0600  218.6490 H   0  0  0  0  0  0  0  0  0  0  0  0
  141.4659   73.1298  220.8366 H   0  0  0  0  0  0  0  0  0  0  0  0
  139.5855   75.7864  222.0575 H   0  0  0  0  0  0  0  0  0  0  0  0
  140.1589   78.1706  222.2366 H   0  0  0  0  0  0  0  0  0  0  0  0
  142.0886   79.1228  220.9837 H   0  0  0  0  0  0  0  0  0  0  0  0
  143.4292   77.5840  219.5343 H   0  0  0  0  0  0  0  0  0  0  0  0
  142.6910   74.4562  218.3235 H   0  0  0  0  0  0  0  0  0  0  0  0
  143.3297   72.1078  218.8647 H   0  0  0  0  0  0  0  0  0  0  0  0
  145.4291   70.9651  219.4264 H   0  0  0  0  0  0  0  0  0  0  0  0
  147.2172   72.1372  220.7085 H   0  0  0  0  0  0  0  0  0  0  0  0
  146.8109   74.5057  221.4007 H   0  0  0  0  0  0  0  0  0  0  0  0
  144.6922   75.6498  220.8322 H   0  0  0  0  0  0  0  0  0  0  0  0
  140.6605   70.7141  220.2483 H   0  0  0  0  0  0  0  0  0  0  0  0
  141.1791   71.8586  221.5157 H   0  0  0  0  0  0  0  0  0  0  0  0
  139.1460   69.5775  221.8530 H   0  0  0  0  0  0  0  0  0  0  0  0
  140.8148   69.5827  222.4822 H   0  0  0  0  0  0  0  0  0  0  0  0
  1  2  1  0
  2  3  1  0
  3  4  2  0
  3  5  1  0
  5  6  1  0
  6  7  2  0
  7  8  1  0
  8  9  2  0
  9 10  1  0
 10 11  2  0
  5 12  1  0
 12 13  1  0
 13 14  1  0
 14 15  1  0
 15 16  1  0
 16 17  2  0
 16 18  1  0
 18 19  1  0
 18 20  1  0
 20 21  1  0
 21 22  2  0
 22 23  1  0
 23 24  2  0
 24 25  1  0
 25 26  2  0
 26 27  1  0
 27 28  1  0
 28 29  2  0
 29 30  1  0
 30 31  2  0
 31 32  1  0
 32 33  2  0
 15 34  1  0
 34 35  1  0
 11  6  1  0
 35 12  1  0
 27 20  1  0
 33 28  1  0
 26 21  1  0
  1 36  1  0
  1 37  1  0
  1 38  1  0
  2 39  1  0
  2 40  1  0
  7 41  1  0
  8 42  1  0
  9 43  1  0
 10 44  1  0
 11 45  1  0
 12 46  1  0
 13 47  1  0
 13 48  1  0
 14 49  1  0
 14 50  1  0
 18 51  1  6
 19 52  1  0
 19 53  1  0
 20 54  1  1
 22 55  1  0
 23 56  1  0
 24 57  1  0
 25 58  1  0
 27 59  1  6
 29 60  1  0
 30 61  1  0
 31 62  1  0
 32 63  1  0
 33 64  1  0
 34 65  1  0
 34 66  1  0
 35 67  1  0
 35 68  1  0
M  END
>  <smiles>  (108) 
CCC(=O)N(c1ccccc1)C1CCN(C(=O)[C@@H](N)C2c3ccccc3C2c2ccccc2)CC1

>  <score_type>  (108) 
oracle

>  <origin>  (108) 
autodockgpu

>  <m_score__min__energy>  (108) 
-9.1199999999999992

>  <m_primary>  (108) 
energy

>  <rmsd>  (108) 
7.322011032397921

>  <m_score__min__rmsd>  (108) 
7.322011032397921

>  <meeko>  (108) 
{"free_energy": -8.47, "intermolecular_energy": -10.86, "internal_energy": -2.98, "cluster_size": 8, "cluster_id": 1, "rank_in_cluster": 6}

>  <energy>  (108) 
-8.28

>  <cluster_rmsd>  (108) 
1.61

>  <cluster>  (108) 
1

$$$$

     RDKit          3D

 68 72  0  0  0  0  0  0  0  0999 V2000
  136.8370   69.2870  224.9770 C   0  0  0  0  0  0  0  0  0  0  0  0
  137.2070   69.5110  223.5340 C   0  0  0  0  0  0  0  0  0  0  0  0
  138.6890   69.5600  223.3620 C   0  0  0  0  0  0  0  0  0  0  0  0
  139.2070   68.6670  222.6610 O   0  0  0  0  0  0  0  0  0  0  0  0
  139.4140   70.6060  223.9950 N   0  0  0  0  0  0  0  0  0  0  0  0
  139.9680   70.4300  225.3060 C   0  0  0  0  0  0  0  0  0  0  0  0
  140.4060   71.4860  226.0750 C   0  0  0  0  0  0  0  0  0  0  0  0
  140.9300   71.2670  227.3260 C   0  0  0  0  0  0  0  0  0  0  0  0
  141.0140   69.9600  227.8090 C   0  0  0  0  0  0  0  0  0  0  0  0
  140.5800   68.8920  227.0510 C   0  0  0  0  0  0  0  0  0  0  0  0
  140.0580   69.1340  225.8000 C   0  0  0  0  0  0  0  0  0  0  0  0
  139.5670   71.8480  223.2680 C   0  0  0  0  0  0  0  0  0  0  0  0
  138.3790   72.1680  222.3880 C   0  0  0  0  0  0  0  0  0  0  0  0
  138.8360   72.7540  221.0690 C   0  0  0  0  0  0  0  0  0  0  0  0
  139.9180   73.7020  221.2130 N   0  0  0  0  0  0  0  0  0  0  0  0
  139.8040   74.9890  220.6350 C   0  0  0  0  0  0  0  0  0  0  0  0
  138.7410   75.2450  220.0130 O   0  0  0  0  0  0  0  0  0  0  0  0
  140.8350   76.0450  220.7080 C   0  0  1  0  0  0  0  0  0  0  0  0
  140.7830   76.8790  219.5520 N   0  0  0  0  0  0  0  0  0  0  0  0
  140.5030   76.8520  221.9860 C   0  0  2  0  0  0  0  0  0  0  0  0
  139.1140   76.7650  222.3900 C   0  0  0  0  0  0  0  0  0  0  0  0
  138.0640   76.0180  222.9150 C   0  0  0  0  0  0  0  0  0  0  0  0
  136.8080   76.5660  223.0680 C   0  0  0  0  0  0  0  0  0  0  0  0
  136.5410   77.8710  222.7090 C   0  0  0  0  0  0  0  0  0  0  0  0
  137.5910   78.6130  222.1860 C   0  0  0  0  0  0  0  0  0  0  0  0
  138.8620   78.0480  222.0340 C   0  0  0  0  0  0  0  0  0  0  0  0
  140.2320   78.2670  221.6030 C   0  0  1  0  0  0  0  0  0  0  0  0
  141.0130   79.2480  222.3880 C   0  0  0  0  0  0  0  0  0  0  0  0
  142.4040   79.1140  222.3510 C   0  0  0  0  0  0  0  0  0  0  0  0
  143.2290   79.9780  223.0390 C   0  0  0  0  0  0  0  0  0  0  0  0
  142.7120   81.0110  223.7930 C   0  0  0  0  0  0  0  0  0  0  0  0
  141.3310   81.1420  223.8280 C   0  0  0  0  0  0  0  0  0  0  0  0
  140.4990   80.2650  223.1300 C   0  0  0  0  0  0  0  0  0  0  0  0
  141.0830   73.2550  221.9610 C   0  0  0  0  0  0  0  0  0  0  0  0
  140.8220   71.8330  222.4270 C   0  0  0  0  0  0  0  0  0  0  0  0
  137.5968   69.7470  225.6260 H   0  0  0  0  0  0  0  0  0  0  0  0
  135.8569   69.7435  225.1794 H   0  0  0  0  0  0  0  0  0  0  0  0
  136.7872   68.2069  225.1794 H   0  0  0  0  0  0  0  0  0  0  0  0
  136.8016   68.6881  222.9270 H   0  0  0  0  0  0  0  0  0  0  0  0
  136.7850   70.4738  223.2099 H   0  0  0  0  0  0  0  0  0  0  0  0
  140.3356   72.5119  225.6845 H   0  0  0  0  0  0  0  0  0  0  0  0
  141.2789   72.1109  227.9393 H   0  0  0  0  0  0  0  0  0  0  0  0
  141.4329   69.7787  228.8098 H   0  0  0  0  0  0  0  0  0  0  0  0
  140.6498   67.8652  227.4392 H   0  0  0  0  0  0  0  0  0  0  0  0
  139.7082   68.2920  225.1846 H   0  0  0  0  0  0  0  0  0  0  0  0
  139.6395   72.6363  224.0317 H   0  0  0  0  0  0  0  0  0  0  0  0
  137.8118   71.2451  222.1965 H   0  0  0  0  0  0  0  0  0  0  0  0
  137.7444   72.9045  222.9026 H   0  0  0  0  0  0  0  0  0  0  0  0
  139.1743   71.9329  220.4198 H   0  0  0  0  0  0  0  0  0  0  0  0
  137.9813   73.2955  220.6375 H   0  0  0  0  0  0  0  0  0  0  0  0
  141.8513   75.6256  220.7444 H   0  0  0  0  0  0  0  0  0  0  0  0
  139.8790   76.8200  219.0610 H   0  0  0  0  0  0  0  0  0  0  0  0
  141.6020   76.6410  218.9520 H   0  0  0  0  0  0  0  0  0  0  0  0
  141.2985   76.5360  222.6769 H   0  0  0  0  0  0  0  0  0  0  0  0
  138.2387   74.9736  223.2127 H   0  0  0  0  0  0  0  0  0  0  0  0
  135.9998   75.9480  223.4862 H   0  0  0  0  0  0  0  0  0  0  0  0
  135.5379   78.3054  222.8321 H   0  0  0  0  0  0  0  0  0  0  0  0
  137.4218   79.6581  221.8874 H   0  0  0  0  0  0  0  0  0  0  0  0
  140.4473   78.6701  220.6024 H   0  0  0  0  0  0  0  0  0  0  0  0
  142.8503   78.3009  221.7596 H   0  0  0  0  0  0  0  0  0  0  0  0
  144.3192   79.8412  222.9858 H   0  0  0  0  0  0  0  0  0  0  0  0
  143.3672   81.7021  224.3436 H   0  0  0  0  0  0  0  0  0  0  0  0
  140.8822   81.9544  224.4185 H   0  0  0  0  0  0  0  0  0  0  0  0
  139.4084   80.3990  223.1811 H   0  0  0  0  0  0  0  0  0  0  0  0
  141.9733   73.2792  221.3155 H   0  0  0  0  0  0  0  0  0  0  0  0
  141.2602   73.9142  222.8236 H   0  0  0  0  0  0  0  0  0  0  0  0
  140.6825   71.1736  221.5577 H   0  0  0  0  0  0  0  0  0  0  0  0
  141.6738   71.4572  223.0129 H   0  0  0  0  0  0  0  0  0  0  0  0
  1  2  1  0
  2  3  1  0
  3  4  2  0
  3  5  1  0
  5  6  1  0
  6  7  2  0
  7  8  1  0
  8  9  2  0
  9 10  1  0
 10 11  2  0
  5 12  1  0
 12 13  1  0
 13 14  1  0
 14 15  1  0
 15 16  1  0
 16 17  2  0
 16 18  1  0
 18 19  1  0
 18 20  1  0
 20 21  1  0
 21 22  2  0
 22 23  1  0
 23 24  2  0
 24 25  1  0
 25 26  2  0
 26 27  1  0
 27 28  1  0
 28 29  2  0
 29 30  1  0
 30 31  2  0
 31 32  1  0
 32 33  2  0
 15 34  1  0
 34 35  1  0
 11  6  1  0
 35 12  1  0
 27 20  1  0
 33 28  1  0
 26 21  1  0
  1 36  1  0
  1 37  1  0
  1 38  1  0
  2 39  1  0
  2 40  1  0
  7 41  1  0
  8 42  1  0
  9 43  1  0
 10 44  1  0
 11 45  1  0
 12 46  1  0
 13 47  1  0
 13 48  1  0
 14 49  1  0
 14 50  1  0
 18 51  1  1
 19 52  1  0
 19 53  1  0
 20 54  1  1
 22 55  1  0
 23 56  1  0
 24 57  1  0
 25 58  1  0
 27 59  1  6
 29 60  1  0
 30 61  1  0
 31 62  1  0
 32 63  1  0
 33 64  1  0
 34 65  1  0
 34 66  1  0
 35 67  1  0
 35 68  1  0
M  END
>  <smiles>  (109) 
CCC(=O)N(c1ccccc1)C1CCN(C(=O)[C@@H](N)C2c3ccccc3C2c2ccccc2)CC1

>  <score_type>  (109) 
oracle

>  <origin>  (109) 
autodockgpu

>  <m_score__min__energy>  (109) 
-9.1199999999999992

>  <m_primary>  (109) 
energy

>  <rmsd>  (109) 
7.716477634838239

>  <m_score__min__rmsd>  (109) 
7.716477634838239

>  <meeko>  (109) 
{"free_energy": -8.35, "intermolecular_energy": -10.73, "internal_energy": -3.08, "cluster_size": 30, "cluster_id": 3, "rank_in_cluster": 13}

>  <energy>  (109) 
-8.95

>  <cluster_rmsd>  (109) 
0.0

>  <cluster>  (109) 
2

$$$$

     RDKit          3D

 68 72  0  0  0  0  0  0  0  0999 V2000
  142.9200   80.5190  223.7330 C   0  0  0  0  0  0  0  0  0  0  0  0
  142.2040   81.6030  222.9710 C   0  0  0  0  0  0  0  0  0  0  0  0
  141.4100   81.0320  221.8430 C   0  0  0  0  0  0  0  0  0  0  0  0
  141.7930   81.3020  220.6870 O   0  0  0  0  0  0  0  0  0  0  0  0
  140.2790   80.2260  222.1470 N   0  0  0  0  0  0  0  0  0  0  0  0
  139.1010   80.7970  222.7320 C   0  0  0  0  0  0  0  0  0  0  0  0
  138.2640   81.6440  222.0400 C   0  0  0  0  0  0  0  0  0  0  0  0
  137.1460   82.1660  222.6440 C   0  0  0  0  0  0  0  0  0  0  0  0
  136.8690   81.8280  223.9700 C   0  0  0  0  0  0  0  0  0  0  0  0
  137.6970   80.9820  224.6760 C   0  0  0  0  0  0  0  0  0  0  0  0
  138.8130   80.4690  224.0520 C   0  0  0  0  0  0  0  0  0  0  0  0
  140.3660   78.8130  221.8450 C   0  0  0  0  0  0  0  0  0  0  0  0
  139.1180   78.2720  221.1830 C   0  0  0  0  0  0  0  0  0  0  0  0
  138.7870   76.8940  221.7160 C   0  0  0  0  0  0  0  0  0  0  0  0
  139.9520   76.0540  221.8820 N   0  0  0  0  0  0  0  0  0  0  0  0
  139.9720   74.7620  221.3040 C   0  0  0  0  0  0  0  0  0  0  0  0
  138.9520   74.4060  220.6610 O   0  0  0  0  0  0  0  0  0  0  0  0
  141.0970   73.8080  221.4010 C   0  0  1  0  0  0  0  0  0  0  0  0
  140.6190   72.4640  221.3750 N   0  0  0  0  0  0  0  0  0  0  0  0
  141.9890   74.1010  220.1700 C   0  0  2  0  0  0  0  0  0  0  0  0
  143.1940   73.3000  220.1160 C   0  0  0  0  0  0  0  0  0  0  0  0
  143.8020   72.0630  219.9240 C   0  0  0  0  0  0  0  0  0  0  0  0
  145.1710   71.9200  220.0230 C   0  0  0  0  0  0  0  0  0  0  0  0
  145.9900   72.9920  220.3160 C   0  0  0  0  0  0  0  0  0  0  0  0
  145.3790   74.2230  220.5060 C   0  0  0  0  0  0  0  0  0  0  0  0
  143.9900   74.3590  220.4040 C   0  0  0  0  0  0  0  0  0  0  0  0
  142.8610   75.2700  220.4780 C   0  0  1  0  0  0  0  0  0  0  0  0
  142.8100   76.3280  219.4450 C   0  0  0  0  0  0  0  0  0  0  0  0
  143.3320   76.0010  218.1890 C   0  0  0  0  0  0  0  0  0  0  0  0
  143.3290   76.9070  217.1500 C   0  0  0  0  0  0  0  0  0  0  0  0
  142.8100   78.1760  217.3100 C   0  0  0  0  0  0  0  0  0  0  0  0
  142.2930   78.4980  218.5580 C   0  0  0  0  0  0  0  0  0  0  0  0
  142.2980   77.5770  219.6070 C   0  0  0  0  0  0  0  0  0  0  0  0
  141.0530   76.6080  222.6560 C   0  0  0  0  0  0  0  0  0  0  0  0
  140.6590   78.0090  223.0910 C   0  0  0  0  0  0  0  0  0  0  0  0
  142.8051   80.6929  224.8131 H   0  0  0  0  0  0  0  0  0  0  0  0
  142.4895   79.5412  223.4712 H   0  0  0  0  0  0  0  0  0  0  0  0
  143.9883   80.5312  223.4712 H   0  0  0  0  0  0  0  0  0  0  0  0
  141.5259   82.1349  223.6546 H   0  0  0  0  0  0  0  0  0  0  0  0
  142.9541   82.2926  222.5565 H   0  0  0  0  0  0  0  0  0  0  0  0
  138.4924   81.9044  220.9960 H   0  0  0  0  0  0  0  0  0  0  0  0
  136.4776   82.8416  222.0900 H   0  0  0  0  0  0  0  0  0  0  0  0
  135.9756   82.2435  224.4591 H   0  0  0  0  0  0  0  0  0  0  0  0
  137.4705   80.7208  225.7203 H   0  0  0  0  0  0  0  0  0  0  0  0
  139.4829   79.7931  224.6037 H   0  0  0  0  0  0  0  0  0  0  0  0
  141.1957   78.7090  221.1304 H   0  0  0  0  0  0  0  0  0  0  0  0
  138.2769   78.9506  221.3879 H   0  0  0  0  0  0  0  0  0  0  0  0
  139.2937   78.2005  220.0995 H   0  0  0  0  0  0  0  0  0  0  0  0
  138.2942   77.0059  222.6931 H   0  0  0  0  0  0  0  0  0  0  0  0
  138.1336   76.4057  220.9780 H   0  0  0  0  0  0  0  0  0  0  0  0
  141.6540   73.9231  222.3426 H   0  0  0  0  0  0  0  0  0  0  0  0
  140.9600   71.9390  220.5570 H   0  0  0  0  0  0  0  0  0  0  0  0
  139.5790   72.4960  221.4490 H   0  0  0  0  0  0  0  0  0  0  0  0
  141.2664   74.0651  219.3414 H   0  0  0  0  0  0  0  0  0  0  0  0
  143.1816   71.1854  219.6896 H   0  0  0  0  0  0  0  0  0  0  0  0
  145.6202   70.9285  219.8647 H   0  0  0  0  0  0  0  0  0  0  0  0
  147.0809   72.8751  220.3955 H   0  0  0  0  0  0  0  0  0  0  0  0
  145.9947   75.1040  220.7400 H   0  0  0  0  0  0  0  0  0  0  0  0
  142.7155   75.9120  221.3593 H   0  0  0  0  0  0  0  0  0  0  0  0
  143.7544   74.9984  218.0268 H   0  0  0  0  0  0  0  0  0  0  0  0
  143.7476   76.6134  216.1761 H   0  0  0  0  0  0  0  0  0  0  0  0
  142.8061   78.9019  216.4835 H   0  0  0  0  0  0  0  0  0  0  0  0
  141.8706   79.5001  218.7235 H   0  0  0  0  0  0  0  0  0  0  0  0
  141.8801   77.8671  220.5823 H   0  0  0  0  0  0  0  0  0  0  0  0
  141.2410   75.9811  223.5401 H   0  0  0  0  0  0  0  0  0  0  0  0
  141.9704   76.6386  222.0498 H   0  0  0  0  0  0  0  0  0  0  0  0
  139.7631   77.9653  223.7277 H   0  0  0  0  0  0  0  0  0  0  0  0
  141.4712   78.4755  223.6678 H   0  0  0  0  0  0  0  0  0  0  0  0
  1  2  1  0
  2  3  1  0
  3  4  2  0
  3  5  1  0
  5  6  1  0
  6  7  2  0
  7  8  1  0
  8  9  2  0
  9 10  1  0
 10 11  2  0
  5 12  1  0
 12 13  1  0
 13 14  1  0
 14 15  1  0
 15 16  1  0
 16 17  2  0
 16 18  1  0
 18 19  1  0
 18 20  1  0
 20 21  1  0
 21 22  2  0
 22 23  1  0
 23 24  2  0
 24 25  1  0
 25 26  2  0
 26 27  1  0
 27 28  1  0
 28 29  2  0
 29 30  1  0
 30 31  2  0
 31 32  1  0
 32 33  2  0
 15 34  1  0
 34 35  1  0
 11  6  1  0
 35 12  1  0
 27 20  1  0
 33 28  1  0
 26 21  1  0
  1 36  1  0
  1 37  1  0
  1 38  1  0
  2 39  1  0
  2 40  1  0
  7 41  1  0
  8 42  1  0
  9 43  1  0
 10 44  1  0
 11 45  1  0
 12 46  1  0
 13 47  1  0
 13 48  1  0
 14 49  1  0
 14 50  1  0
 18 51  1  1
 19 52  1  0
 19 53  1  0
 20 54  1  6
 22 55  1  0
 23 56  1  0
 24 57  1  0
 25 58  1  0
 27 59  1  1
 29 60  1  0
 30 61  1  0
 31 62  1  0
 32 63  1  0
 33 64  1  0
 34 65  1  0
 34 66  1  0
 35 67  1  0
 35 68  1  0
M  END
>  <smiles>  (110) 
CCC(=O)N(c1ccccc1)C1CCN(C(=O)[C@@H](N)C2c3ccccc3C2c2ccccc2)CC1

>  <score_type>  (110) 
oracle

>  <origin>  (110) 
autodockgpu

>  <m_score__min__energy>  (110) 
-9.1199999999999992

>  <m_primary>  (110) 
energy

>  <rmsd>  (110) 
7.090367081571157

>  <m_score__min__rmsd>  (110) 
7.090367081571157

>  <meeko>  (110) 
{"free_energy": -7.14, "intermolecular_energy": -9.53, "internal_energy": -3.82, "cluster_size": 4, "cluster_id": 7, "rank_in_cluster": 4}

>  <energy>  (110) 
-8.57

>  <cluster_rmsd>  (110) 
0.0

>  <cluster>  (110) 
3

$$$$

     RDKit          3D

 68 72  0  0  0  0  0  0  0  0999 V2000
  139.5240   68.1080  220.9490 C   0  0  0  0  0  0  0  0  0  0  0  0
  139.8920   69.5250  220.5960 C   0  0  0  0  0  0  0  0  0  0  0  0
  139.0050   70.5000  221.2960 C   0  0  0  0  0  0  0  0  0  0  0  0
  137.7820   70.4210  221.0650 O   0  0  0  0  0  0  0  0  0  0  0  0
  139.5960   71.4490  222.1740 N   0  0  0  0  0  0  0  0  0  0  0  0
  139.7970   71.1460  223.5610 C   0  0  0  0  0  0  0  0  0  0  0  0
  140.6700   71.8550  224.3570 C   0  0  0  0  0  0  0  0  0  0  0  0
  140.8280   71.5260  225.6810 C   0  0  0  0  0  0  0  0  0  0  0  0
  140.0940   70.4640  226.2120 C   0  0  0  0  0  0  0  0  0  0  0  0
  139.2170   69.7450  225.4280 C   0  0  0  0  0  0  0  0  0  0  0  0
  139.0730   70.0910  224.1030 C   0  0  0  0  0  0  0  0  0  0  0  0
  139.9820   72.7270  221.6140 C   0  0  0  0  0  0  0  0  0  0  0  0
  139.3520   72.9950  220.2650 C   0  0  0  0  0  0  0  0  0  0  0  0
  140.3450   73.6640  219.3380 C   0  0  0  0  0  0  0  0  0  0  0  0
  141.1390   74.6800  219.9910 N   0  0  0  0  0  0  0  0  0  0  0  0
  141.2170   75.9770  219.4300 C   0  0  0  0  0  0  0  0  0  0  0  0
  140.5750   76.1820  218.3680 O   0  0  0  0  0  0  0  0  0  0  0  0
  141.9920   77.1000  219.9980 C   0  0  1  0  0  0  0  0  0  0  0  0
  142.5810   77.8800  218.9580 N   0  0  0  0  0  0  0  0  0  0  0  0
  140.9680   77.9380  220.8020 C   0  0  2  0  0  0  0  0  0  0  0  0
  141.5670   79.0030  221.5810 C   0  0  0  0  0  0  0  0  0  0  0  0
  142.2070   80.2370  221.6290 C   0  0  0  0  0  0  0  0  0  0  0  0
  142.5800   80.7980  222.8330 C   0  0  0  0  0  0  0  0  0  0  0  0
  142.3360   80.1620  224.0330 C   0  0  0  0  0  0  0  0  0  0  0  0
  141.6970   78.9320  223.9810 C   0  0  0  0  0  0  0  0  0  0  0  0
  141.3220   78.3700  222.7550 C   0  0  0  0  0  0  0  0  0  0  0  0
  140.6890   77.2430  222.0910 C   0  0  1  0  0  0  0  0  0  0  0  0
  139.2460   77.0590  222.3570 C   0  0  0  0  0  0  0  0  0  0  0  0
  138.7530   75.7540  222.2540 C   0  0  0  0  0  0  0  0  0  0  0  0
  137.4250   75.4650  222.4880 C   0  0  0  0  0  0  0  0  0  0  0  0
  136.5290   76.4550  222.8360 C   0  0  0  0  0  0  0  0  0  0  0  0
  137.0210   77.7500  222.9380 C   0  0  0  0  0  0  0  0  0  0  0  0
  138.3660   78.0380  222.7000 C   0  0  0  0  0  0  0  0  0  0  0  0
  141.8240   74.2880  221.2140 C   0  0  0  0  0  0  0  0  0  0  0  0
  141.4850   72.8340  221.4930 C   0  0  0  0  0  0  0  0  0  0  0  0
  139.4955   67.9983  222.0432 H   0  0  0  0  0  0  0  0  0  0  0  0
  138.5345   67.8711  220.5309 H   0  0  0  0  0  0  0  0  0  0  0  0
  140.2732   67.4196  220.5309 H   0  0  0  0  0  0  0  0  0  0  0  0
  140.9348   69.7102  220.8932 H   0  0  0  0  0  0  0  0  0  0  0  0
  139.7702   69.6580  219.5109 H   0  0  0  0  0  0  0  0  0  0  0  0
  141.2442   72.6900  223.9292 H   0  0  0  0  0  0  0  0  0  0  0  0
  141.5250   72.0929  226.3157 H   0  0  0  0  0  0  0  0  0  0  0  0
  140.2172   70.1968  227.2719 H   0  0  0  0  0  0  0  0  0  0  0  0
  138.6422   68.9093  225.8536 H   0  0  0  0  0  0  0  0  0  0  0  0
  138.3767   69.5257  223.4661 H   0  0  0  0  0  0  0  0  0  0  0  0
  139.6089   73.4880  222.3152 H   0  0  0  0  0  0  0  0  0  0  0  0
  139.0281   72.0420  219.8212 H   0  0  0  0  0  0  0  0  0  0  0  0
  138.4888   73.6628  220.4025 H   0  0  0  0  0  0  0  0  0  0  0  0
  141.0220   72.8951  218.9374 H   0  0  0  0  0  0  0  0  0  0  0  0
  139.7676   74.1606  218.5443 H   0  0  0  0  0  0  0  0  0  0  0  0
  142.8189   76.7492  220.6331 H   0  0  0  0  0  0  0  0  0  0  0  0
  142.3040   77.5610  218.0190 H   0  0  0  0  0  0  0  0  0  0  0  0
  143.6130   77.8850  219.1120 H   0  0  0  0  0  0  0  0  0  0  0  0
  140.2060   78.1720  220.0440 H   0  0  0  0  0  0  0  0  0  0  0  0
  142.4190   80.7739  220.6926 H   0  0  0  0  0  0  0  0  0  0  0  0
  143.0840   81.7757  222.8364 H   0  0  0  0  0  0  0  0  0  0  0  0
  142.6358   80.6118  224.9910 H   0  0  0  0  0  0  0  0  0  0  0  0
  141.4823   78.3915  224.9147 H   0  0  0  0  0  0  0  0  0  0  0  0
  141.0143   76.2134  222.3010 H   0  0  0  0  0  0  0  0  0  0  0  0
  139.4401   74.9398  221.9801 H   0  0  0  0  0  0  0  0  0  0  0  0
  137.0737   74.4267  222.3956 H   0  0  0  0  0  0  0  0  0  0  0  0
  135.4693   76.2282  223.0248 H   0  0  0  0  0  0  0  0  0  0  0  0
  136.3361   78.5660  223.2122 H   0  0  0  0  0  0  0  0  0  0  0  0
  138.7206   79.0752  222.7915 H   0  0  0  0  0  0  0  0  0  0  0  0
  142.9107   74.4006  221.0863 H   0  0  0  0  0  0  0  0  0  0  0  0
  141.5046   74.9238  222.0529 H   0  0  0  0  0  0  0  0  0  0  0  0
  141.8402   72.2013  220.6662 H   0  0  0  0  0  0  0  0  0  0  0  0
  141.9709   72.4964  222.4203 H   0  0  0  0  0  0  0  0  0  0  0  0
  1  2  1  0
  2  3  1  0
  3  4  2  0
  3  5  1  0
  5  6  1  0
  6  7  2  0
  7  8  1  0
  8  9  2  0
  9 10  1  0
 10 11  2  0
  5 12  1  0
 12 13  1  0
 13 14  1  0
 14 15  1  0
 15 16  1  0
 16 17  2  0
 16 18  1  0
 18 19  1  0
 18 20  1  0
 20 21  1  0
 21 22  2  0
 22 23  1  0
 23 24  2  0
 24 25  1  0
 25 26  2  0
 26 27  1  0
 27 28  1  0
 28 29  2  0
 29 30  1  0
 30 31  2  0
 31 32  1  0
 32 33  2  0
 15 34  1  0
 34 35  1  0
 11  6  1  0
 35 12  1  0
 27 20  1  0
 33 28  1  0
 26 21  1  0
  1 36  1  0
  1 37  1  0
  1 38  1  0
  2 39  1  0
  2 40  1  0
  7 41  1  0
  8 42  1  0
  9 43  1  0
 10 44  1  0
 11 45  1  0
 12 46  1  0
 13 47  1  0
 13 48  1  0
 14 49  1  0
 14 50  1  0
 18 51  1  1
 19 52  1  0
 19 53  1  0
 20 54  1  6
 22 55  1  0
 23 56  1  0
 24 57  1  0
 25 58  1  0
 27 59  1  6
 29 60  1  0
 30 61  1  0
 31 62  1  0
 32 63  1  0
 33 64  1  0
 34 65  1  0
 34 66  1  0
 35 67  1  0
 35 68  1  0
M  END
>  <smiles>  (111) 
CCC(=O)N(c1ccccc1)C1CCN(C(=O)[C@@H](N)C2c3ccccc3C2c2ccccc2)CC1

>  <score_type>  (111) 
oracle

>  <origin>  (111) 
autodockgpu

>  <m_score__min__energy>  (111) 
-9.1199999999999992

>  <m_primary>  (111) 
energy

>  <rmsd>  (111) 
8.724638343400015

>  <m_score__min__rmsd>  (111) 
8.724638343400015

>  <meeko>  (111) 
{"free_energy": -7.6, "intermolecular_energy": -9.99, "internal_energy": -3.59, "cluster_size": 30, "cluster_id": 3, "rank_in_cluster": 27}

>  <energy>  (111) 
-8.56

>  <cluster_rmsd>  (111) 
0.16

>  <cluster>  (111) 
3

$$$$

     RDKit          3D

 68 72  0  0  0  0  0  0  0  0999 V2000
  136.5140   71.9240  223.2430 C   0  0  0  0  0  0  0  0  0  0  0  0
  136.8300   70.7590  222.3420 C   0  0  0  0  0  0  0  0  0  0  0  0
  138.2980   70.6540  222.0950 C   0  0  0  0  0  0  0  0  0  0  0  0
  138.6720   69.8120  221.2550 O   0  0  0  0  0  0  0  0  0  0  0  0
  139.1730   71.5070  222.8210 N   0  0  0  0  0  0  0  0  0  0  0  0
  139.6280   71.1530  224.1340 C   0  0  0  0  0  0  0  0  0  0  0  0
  140.5740   71.8880  224.8150 C   0  0  0  0  0  0  0  0  0  0  0  0
  140.9780   71.5070  226.0720 C   0  0  0  0  0  0  0  0  0  0  0  0
  140.4180   70.3670  226.6510 C   0  0  0  0  0  0  0  0  0  0  0  0
  139.4700   69.6220  225.9820 C   0  0  0  0  0  0  0  0  0  0  0  0
  139.0790   70.0200  224.7230 C   0  0  0  0  0  0  0  0  0  0  0  0
  139.5820   72.7420  222.1850 C   0  0  0  0  0  0  0  0  0  0  0  0
  138.8690   72.9960  220.8750 C   0  0  0  0  0  0  0  0  0  0  0  0
  139.8230   73.5770  219.8540 C   0  0  0  0  0  0  0  0  0  0  0  0
  140.7140   74.5710  220.4080 N   0  0  0  0  0  0  0  0  0  0  0  0
  140.8170   75.8410  219.7930 C   0  0  0  0  0  0  0  0  0  0  0  0
  140.1100   76.0430  218.7720 O   0  0  0  0  0  0  0  0  0  0  0  0
  141.6880   76.9410  220.2590 C   0  0  1  0  0  0  0  0  0  0  0  0
  142.3130   77.5900  219.1520 N   0  0  0  0  0  0  0  0  0  0  0  0
  140.7500   77.9150  221.0120 C   0  0  2  0  0  0  0  0  0  0  0  0
  141.4470   78.9630  221.7290 C   0  0  0  0  0  0  0  0  0  0  0  0
  142.2000   80.1330  221.7060 C   0  0  0  0  0  0  0  0  0  0  0  0
  142.6280   80.7260  222.8760 C   0  0  0  0  0  0  0  0  0  0  0  0
  142.3300   80.1860  224.1110 C   0  0  0  0  0  0  0  0  0  0  0  0
  141.5790   79.0190  224.1280 C   0  0  0  0  0  0  0  0  0  0  0  0
  141.1490   78.4240  222.9370 C   0  0  0  0  0  0  0  0  0  0  0  0
  140.4120   77.3250  222.3380 C   0  0  1  0  0  0  0  0  0  0  0  0
  138.9590   77.2910  222.6120 C   0  0  0  0  0  0  0  0  0  0  0  0
  138.3200   78.5260  222.7560 C   0  0  0  0  0  0  0  0  0  0  0  0
  136.9670   78.6130  223.0050 C   0  0  0  0  0  0  0  0  0  0  0  0
  136.1880   77.4800  223.1230 C   0  0  0  0  0  0  0  0  0  0  0  0
  136.8240   76.2540  222.9790 C   0  0  0  0  0  0  0  0  0  0  0  0
  138.1950   76.1710  222.7270 C   0  0  0  0  0  0  0  0  0  0  0  0
  141.4670   74.1870  221.5930 C   0  0  0  0  0  0  0  0  0  0  0  0
  141.0750   72.7640  221.9530 C   0  0  0  0  0  0  0  0  0  0  0  0
  136.5995   71.6089  224.2934 H   0  0  0  0  0  0  0  0  0  0  0  0
  137.2227   72.7421  223.0468 H   0  0  0  0  0  0  0  0  0  0  0  0
  135.4891   72.2718  223.0468 H   0  0  0  0  0  0  0  0  0  0  0  0
  136.4784   69.8314  222.8173 H   0  0  0  0  0  0  0  0  0  0  0  0
  136.3237   70.9153  221.3780 H   0  0  0  0  0  0  0  0  0  0  0  0
  141.0084   72.7851  224.3496 H   0  0  0  0  0  0  0  0  0  0  0  0
  141.7336   72.0934  226.6154 H   0  0  0  0  0  0  0  0  0  0  0  0
  140.7381   70.0580  227.6570 H   0  0  0  0  0  0  0  0  0  0  0  0
  139.0336   68.7252  226.4460 H   0  0  0  0  0  0  0  0  0  0  0  0
  138.3240   69.4349  224.1775 H   0  0  0  0  0  0  0  0  0  0  0  0
  139.3009   73.5461  222.8809 H   0  0  0  0  0  0  0  0  0  0  0  0
  138.4649   72.0468  220.4933 H   0  0  0  0  0  0  0  0  0  0  0  0
  138.0539   73.7141  221.0480 H   0  0  0  0  0  0  0  0  0  0  0  0
  140.4283   72.7591  219.4360 H   0  0  0  0  0  0  0  0  0  0  0  0
  139.2147   74.0757  219.0850 H   0  0  0  0  0  0  0  0  0  0  0  0
  142.4993   76.5768  220.9064 H   0  0  0  0  0  0  0  0  0  0  0  0
  142.0440   77.1770  218.2480 H   0  0  0  0  0  0  0  0  0  0  0  0
  143.3420   77.5900  219.3240 H   0  0  0  0  0  0  0  0  0  0  0  0
  140.0106   78.1743  220.2400 H   0  0  0  0  0  0  0  0  0  0  0  0
  142.4579   80.5921  220.7403 H   0  0  0  0  0  0  0  0  0  0  0  0
  143.2208   81.6511  222.8234 H   0  0  0  0  0  0  0  0  0  0  0  0
  142.6732   80.6605  225.0421 H   0  0  0  0  0  0  0  0  0  0  0  0
  141.3183   78.5556  225.0910 H   0  0  0  0  0  0  0  0  0  0  0  0
  140.6409   76.2834  222.6074 H   0  0  0  0  0  0  0  0  0  0  0  0
  138.9106   79.4499  222.6686 H   0  0  0  0  0  0  0  0  0  0  0  0
  136.4999   79.6032  223.1116 H   0  0  0  0  0  0  0  0  0  0  0  0
  135.1083   77.5453  223.3228 H   0  0  0  0  0  0  0  0  0  0  0  0
  136.2354   75.3287  223.0653 H   0  0  0  0  0  0  0  0  0  0  0  0
  138.6657   75.1826  222.6196 H   0  0  0  0  0  0  0  0  0  0  0  0
  142.5456   74.2360  221.3828 H   0  0  0  0  0  0  0  0  0  0  0  0
  141.2442   74.8690  222.4268 H   0  0  0  0  0  0  0  0  0  0  0  0
  141.3359   72.0839  221.1287 H   0  0  0  0  0  0  0  0  0  0  0  0
  141.6095   72.4345  222.8562 H   0  0  0  0  0  0  0  0  0  0  0  0
  1  2  1  0
  2  3  1  0
  3  4  2  0
  3  5  1  0
  5  6  1  0
  6  7  2  0
  7  8  1  0
  8  9  2  0
  9 10  1  0
 10 11  2  0
  5 12  1  0
 12 13  1  0
 13 14  1  0
 14 15  1  0
 15 16  1  0
 16 17  2  0
 16 18  1  0
 18 19  1  0
 18 20  1  0
 20 21  1  0
 21 22  2  0
 22 23  1  0
 23 24  2  0
 24 25  1  0
 25 26  2  0
 26 27  1  0
 27 28  1  0
 28 29  2  0
 29 30  1  0
 30 31  2  0
 31 32  1  0
 32 33  2  0
 15 34  1  0
 34 35  1  0
 11  6  1  0
 35 12  1  0
 27 20  1  0
 33 28  1  0
 26 21  1  0
  1 36  1  0
  1 37  1  0
  1 38  1  0
  2 39  1  0
  2 40  1  0
  7 41  1  0
  8 42  1  0
  9 43  1  0
 10 44  1  0
 11 45  1  0
 12 46  1  0
 13 47  1  0
 13 48  1  0
 14 49  1  0
 14 50  1  0
 18 51  1  1
 19 52  1  0
 19 53  1  0
 20 54  1  6
 22 55  1  0
 23 56  1  0
 24 57  1  0
 25 58  1  0
 27 59  1  6
 29 60  1  0
 30 61  1  0
 31 62  1  0
 32 63  1  0
 33 64  1  0
 34 65  1  0
 34 66  1  0
 35 67  1  0
 35 68  1  0
M  END
>  <smiles>  (112) 
CCC(=O)N(c1ccccc1)C1CCN(C(=O)[C@@H](N)C2c3ccccc3C2c2ccccc2)CC1

>  <score_type>  (112) 
oracle

>  <origin>  (112) 
autodockgpu

>  <m_score__min__energy>  (112) 
-9.1199999999999992

>  <m_primary>  (112) 
energy

>  <rmsd>  (112) 
8.58813488234118

>  <m_score__min__rmsd>  (112) 
8.58813488234118

>  <meeko>  (112) 
{"free_energy": -7.77, "intermolecular_energy": -10.16, "internal_energy": -3.43, "cluster_size": 30, "cluster_id": 3, "rank_in_cluster": 24}

>  <energy>  (112) 
-8.55

>  <cluster_rmsd>  (112) 
0.32

>  <cluster>  (112) 
3

$$$$

     RDKit          3D

 68 72  0  0  0  0  0  0  0  0999 V2000
  137.6540   67.6180  222.2730 C   0  0  0  0  0  0  0  0  0  0  0  0
  137.5210   68.5240  223.4680 C   0  0  0  0  0  0  0  0  0  0  0  0
  138.7800   68.5440  224.2700 C   0  0  0  0  0  0  0  0  0  0  0  0
  139.2560   67.4400  224.6030 O   0  0  0  0  0  0  0  0  0  0  0  0
  139.3550   69.8000  224.6030 N   0  0  0  0  0  0  0  0  0  0  0  0
  139.9500   70.0220  225.8890 C   0  0  0  0  0  0  0  0  0  0  0  0
  140.0270   69.0390  226.8520 C   0  0  0  0  0  0  0  0  0  0  0  0
  140.6070   69.3010  228.0690 C   0  0  0  0  0  0  0  0  0  0  0  0
  141.1190   70.5750  228.3190 C   0  0  0  0  0  0  0  0  0  0  0  0
  141.0500   71.5690  227.3660 C   0  0  0  0  0  0  0  0  0  0  0  0
  140.4640   71.2870  226.1520 C   0  0  0  0  0  0  0  0  0  0  0  0
  139.3130   70.8410  223.5980 C   0  0  0  0  0  0  0  0  0  0  0  0
  137.9740   71.5400  223.5270 C   0  0  0  0  0  0  0  0  0  0  0  0
  137.5970   71.8250  222.0880 C   0  0  0  0  0  0  0  0  0  0  0  0
  138.7100   72.2880  221.2900 N   0  0  0  0  0  0  0  0  0  0  0  0
  138.5850   73.4820  220.5400 C   0  0  0  0  0  0  0  0  0  0  0  0
  137.4860   74.0910  220.6100 O   0  0  0  0  0  0  0  0  0  0  0  0
  139.6440   74.0610  219.6870 C   0  0  1  0  0  0  0  0  0  0  0  0
  139.1610   75.2170  219.0030 N   0  0  0  0  0  0  0  0  0  0  0  0
  140.7920   74.4330  220.6560 C   0  0  2  0  0  0  0  0  0  0  0  0
  140.6880   75.7720  221.2000 C   0  0  0  0  0  0  0  0  0  0  0  0
  140.0480   76.6760  222.0410 C   0  0  0  0  0  0  0  0  0  0  0  0
  140.4690   77.9870  222.1290 C   0  0  0  0  0  0  0  0  0  0  0  0
  141.5370   78.4540  221.3900 C   0  0  0  0  0  0  0  0  0  0  0  0
  142.1730   77.5490  220.5530 C   0  0  0  0  0  0  0  0  0  0  0  0
  141.7390   76.2210  220.4700 C   0  0  0  0  0  0  0  0  0  0  0  0
  141.9530   74.9200  219.8590 C   0  0  1  0  0  0  0  0  0  0  0  0
  143.2240   74.2440  220.1980 C   0  0  0  0  0  0  0  0  0  0  0  0
  143.1500   72.8740  220.4700 C   0  0  0  0  0  0  0  0  0  0  0  0
  144.2730   72.1420  220.7900 C   0  0  0  0  0  0  0  0  0  0  0  0
  145.5170   72.7340  220.8540 C   0  0  0  0  0  0  0  0  0  0  0  0
  145.5890   74.0940  220.5840 C   0  0  0  0  0  0  0  0  0  0  0  0
  144.4490   74.8310  220.2600 C   0  0  0  0  0  0  0  0  0  0  0  0
  139.9150   71.4730  221.3110 C   0  0  0  0  0  0  0  0  0  0  0  0
  139.6630   70.2930  222.2340 C   0  0  0  0  0  0  0  0  0  0  0  0
  137.8060   66.5829  222.6128 H   0  0  0  0  0  0  0  0  0  0  0  0
  136.7380   67.6741  221.6666 H   0  0  0  0  0  0  0  0  0  0  0  0
  138.5152   67.9350  221.6666 H   0  0  0  0  0  0  0  0  0  0  0  0
  137.2990   69.5444  223.1223 H   0  0  0  0  0  0  0  0  0  0  0  0
  136.7073   68.1458  224.1043 H   0  0  0  0  0  0  0  0  0  0  0  0
  139.6212   68.0379  226.6444 H   0  0  0  0  0  0  0  0  0  0  0  0
  140.6673   68.5162  228.8374 H   0  0  0  0  0  0  0  0  0  0  0  0
  141.5851   70.7896  229.2920 H   0  0  0  0  0  0  0  0  0  0  0  0
  141.4561   72.5703  227.5718 H   0  0  0  0  0  0  0  0  0  0  0  0
  140.4019   72.0705  225.3824 H   0  0  0  0  0  0  0  0  0  0  0  0
  140.0632   71.5848  223.9046 H   0  0  0  0  0  0  0  0  0  0  0  0
  137.2059   70.8969  223.9813 H   0  0  0  0  0  0  0  0  0  0  0  0
  138.0425   72.4935  224.0711 H   0  0  0  0  0  0  0  0  0  0  0  0
  137.2055   70.9002  221.6392 H   0  0  0  0  0  0  0  0  0  0  0  0
  136.8456   72.6283  222.0993 H   0  0  0  0  0  0  0  0  0  0  0  0
  139.9792   73.3561  218.9119 H   0  0  0  0  0  0  0  0  0  0  0  0
  139.9070   75.8960  218.7980 H   0  0  0  0  0  0  0  0  0  0  0  0
  138.3760   75.6120  219.5640 H   0  0  0  0  0  0  0  0  0  0  0  0
  140.8215   73.5649  221.3309 H   0  0  0  0  0  0  0  0  0  0  0  0
  139.1925   76.3405  222.6457 H   0  0  0  0  0  0  0  0  0  0  0  0
  139.9409   78.6764  222.8042 H   0  0  0  0  0  0  0  0  0  0  0  0
  141.8699   79.5000  221.4618 H   0  0  0  0  0  0  0  0  0  0  0  0
  143.0294   77.8793  219.9467 H   0  0  0  0  0  0  0  0  0  0  0  0
  142.0149   74.8172  218.7656 H   0  0  0  0  0  0  0  0  0  0  0  0
  142.1735   72.3695  220.4276 H   0  0  0  0  0  0  0  0  0  0  0  0
  144.1754   71.0663  220.9981 H   0  0  0  0  0  0  0  0  0  0  0  0
  146.4154   72.1525  221.1086 H   0  0  0  0  0  0  0  0  0  0  0  0
  146.5643   74.6009  220.6263 H   0  0  0  0  0  0  0  0  0  0  0  0
  144.5432   75.9068  220.0509 H   0  0  0  0  0  0  0  0  0  0  0  0
  140.1405   71.1127  220.2964 H   0  0  0  0  0  0  0  0  0  0  0  0
  140.7715   72.0636  221.6683 H   0  0  0  0  0  0  0  0  0  0  0  0
  138.8293   69.6877  221.8486 H   0  0  0  0  0  0  0  0  0  0  0  0
  140.5564   69.6540  222.2939 H   0  0  0  0  0  0  0  0  0  0  0  0
  1  2  1  0
  2  3  1  0
  3  4  2  0
  3  5  1  0
  5  6  1  0
  6  7  2  0
  7  8  1  0
  8  9  2  0
  9 10  1  0
 10 11  2  0
  5 12  1  0
 12 13  1  0
 13 14  1  0
 14 15  1  0
 15 16  1  0
 16 17  2  0
 16 18  1  0
 18 19  1  0
 18 20  1  0
 20 21  1  0
 21 22  2  0
 22 23  1  0
 23 24  2  0
 24 25  1  0
 25 26  2  0
 26 27  1  0
 27 28  1  0
 28 29  2  0
 29 30  1  0
 30 31  2  0
 31 32  1  0
 32 33  2  0
 15 34  1  0
 34 35  1  0
 11  6  1  0
 35 12  1  0
 27 20  1  0
 33 28  1  0
 26 21  1  0
  1 36  1  0
  1 37  1  0
  1 38  1  0
  2 39  1  0
  2 40  1  0
  7 41  1  0
  8 42  1  0
  9 43  1  0
 10 44  1  0
 11 45  1  0
 12 46  1  0
 13 47  1  0
 13 48  1  0
 14 49  1  0
 14 50  1  0
 18 51  1  6
 19 52  1  0
 19 53  1  0
 20 54  1  1
 22 55  1  0
 23 56  1  0
 24 57  1  0
 25 58  1  0
 27 59  1  6
 29 60  1  0
 30 61  1  0
 31 62  1  0
 32 63  1  0
 33 64  1  0
 34 65  1  0
 34 66  1  0
 35 67  1  0
 35 68  1  0
M  END
>  <smiles>  (113) 
CCC(=O)N(c1ccccc1)C1CCN(C(=O)[C@@H](N)C2c3ccccc3C2c2ccccc2)CC1

>  <score_type>  (113) 
oracle

>  <origin>  (113) 
autodockgpu

>  <m_score__min__energy>  (113) 
-9.1199999999999992

>  <m_primary>  (113) 
energy

>  <rmsd>  (113) 
7.283294420295426

>  <m_score__min__rmsd>  (113) 
7.283294420295426

>  <meeko>  (113) 
{"free_energy": -8.58, "intermolecular_energy": -10.97, "internal_energy": -2.9, "cluster_size": 8, "cluster_id": 1, "rank_in_cluster": 3}

>  <energy>  (113) 
-8.55

>  <cluster_rmsd>  (113) 
0.33

>  <cluster>  (113) 
3

$$$$

     RDKit          3D

 68 72  0  0  0  0  0  0  0  0999 V2000
  136.8290   68.9350  223.0710 C   0  0  0  0  0  0  0  0  0  0  0  0
  137.3170   69.2720  224.4560 C   0  0  0  0  0  0  0  0  0  0  0  0
  138.7930   69.0780  224.5670 C   0  0  0  0  0  0  0  0  0  0  0  0
  139.2080   67.9020  224.6110 O   0  0  0  0  0  0  0  0  0  0  0  0
  139.6280   70.2260  224.6160 N   0  0  0  0  0  0  0  0  0  0  0  0
  140.1510   70.7060  225.8620 C   0  0  0  0  0  0  0  0  0  0  0  0
  140.9460   71.8270  225.9520 C   0  0  0  0  0  0  0  0  0  0  0  0
  141.4230   72.2470  227.1700 C   0  0  0  0  0  0  0  0  0  0  0  0
  141.0930   71.5230  228.3170 C   0  0  0  0  0  0  0  0  0  0  0  0
  140.2980   70.3980  228.2440 C   0  0  0  0  0  0  0  0  0  0  0  0
  139.8300   69.9950  227.0130 C   0  0  0  0  0  0  0  0  0  0  0  0
  139.9260   70.8900  223.3640 C   0  0  0  0  0  0  0  0  0  0  0  0
  138.9610   72.0100  223.0450 C   0  0  0  0  0  0  0  0  0  0  0  0
  138.6290   72.0210  221.5680 C   0  0  0  0  0  0  0  0  0  0  0  0
  139.7780   71.7800  220.7250 N   0  0  0  0  0  0  0  0  0  0  0  0
  140.0760   72.6790  219.6720 C   0  0  0  0  0  0  0  0  0  0  0  0
  139.3070   73.6630  219.5240 O   0  0  0  0  0  0  0  0  0  0  0  0
  141.2170   72.5470  218.7420 C   0  0  1  0  0  0  0  0  0  0  0  0
  140.7630   72.5330  217.3900 N   0  0  0  0  0  0  0  0  0  0  0  0
  142.1100   73.7820  219.0120 C   0  0  2  0  0  0  0  0  0  0  0  0
  143.5220   73.4730  219.1120 C   0  0  0  0  0  0  0  0  0  0  0  0
  144.7100   73.0860  218.4990 C   0  0  0  0  0  0  0  0  0  0  0  0
  145.8720   72.9420  219.2280 C   0  0  0  0  0  0  0  0  0  0  0  0
  145.9060   73.1740  220.5880 C   0  0  0  0  0  0  0  0  0  0  0  0
  144.7190   73.5600  221.1950 C   0  0  0  0  0  0  0  0  0  0  0  0
  143.5450   73.7040  220.4480 C   0  0  0  0  0  0  0  0  0  0  0  0
  142.1330   74.0460  220.4790 C   0  0  1  0  0  0  0  0  0  0  0  0
  141.8100   75.4460  220.8290 C   0  0  0  0  0  0  0  0  0  0  0  0
  141.0240   75.6410  221.9680 C   0  0  0  0  0  0  0  0  0  0  0  0
  140.6700   76.9040  222.3910 C   0  0  0  0  0  0  0  0  0  0  0  0
  141.0790   78.0290  221.7040 C   0  0  0  0  0  0  0  0  0  0  0  0
  141.8600   77.8330  220.5730 C   0  0  0  0  0  0  0  0  0  0  0  0
  142.2160   76.5520  220.1480 C   0  0  0  0  0  0  0  0  0  0  0  0
  140.5720   70.5970  221.0220 C   0  0  0  0  0  0  0  0  0  0  0  0
  139.9450   69.9040  222.2190 C   0  0  0  0  0  0  0  0  0  0  0  0
  135.9257   68.3112  223.1422 H   0  0  0  0  0  0  0  0  0  0  0  0
  136.5921   69.8629  222.5298 H   0  0  0  0  0  0  0  0  0  0  0  0
  137.6128   68.3848  222.5298 H   0  0  0  0  0  0  0  0  0  0  0  0
  137.0749   70.3221  224.6767 H   0  0  0  0  0  0  0  0  0  0  0  0
  136.8213   68.6022  225.1740 H   0  0  0  0  0  0  0  0  0  0  0  0
  141.2009   72.3901  225.0421 H   0  0  0  0  0  0  0  0  0  0  0  0
  142.0573   73.1429  227.2405 H   0  0  0  0  0  0  0  0  0  0  0  0
  141.4729   71.8548  229.2945 H   0  0  0  0  0  0  0  0  0  0  0  0
  140.0425   69.8330  229.1526 H   0  0  0  0  0  0  0  0  0  0  0  0
  139.1947   69.1000  226.9395 H   0  0  0  0  0  0  0  0  0  0  0  0
  140.9242   71.3349  223.4890 H   0  0  0  0  0  0  0  0  0  0  0  0
  138.0360   71.8660  223.6226 H   0  0  0  0  0  0  0  0  0  0  0  0
  139.4295   72.9691  223.3109 H   0  0  0  0  0  0  0  0  0  0  0  0
  137.8810   71.2386  221.3718 H   0  0  0  0  0  0  0  0  0  0  0  0
  138.2499   73.0247  221.3253 H   0  0  0  0  0  0  0  0  0  0  0  0
  141.7670   71.6070  218.8965 H   0  0  0  0  0  0  0  0  0  0  0  0
  141.4420   72.9540  216.7400 H   0  0  0  0  0  0  0  0  0  0  0  0
  139.8240   72.9840  217.3660 H   0  0  0  0  0  0  0  0  0  0  0  0
  141.7551   74.4988  218.2569 H   0  0  0  0  0  0  0  0  0  0  0  0
  144.7225   72.8920  217.4163 H   0  0  0  0  0  0  0  0  0  0  0  0
  146.7941   72.6348  218.7128 H   0  0  0  0  0  0  0  0  0  0  0  0
  146.8344   73.0579  221.1664 H   0  0  0  0  0  0  0  0  0  0  0  0
  144.7012   73.7552  222.2774 H   0  0  0  0  0  0  0  0  0  0  0  0
  141.4521   73.5529  221.1884 H   0  0  0  0  0  0  0  0  0  0  0  0
  140.6801   74.7665  222.5399 H   0  0  0  0  0  0  0  0  0  0  0  0
  140.0502   77.0175  223.2926 H   0  0  0  0  0  0  0  0  0  0  0  0
  140.7980   79.0385  222.0385 H   0  0  0  0  0  0  0  0  0  0  0  0
  142.2056   78.7058  219.9996 H   0  0  0  0  0  0  0  0  0  0  0  0
  142.8356   76.4344  219.2468 H   0  0  0  0  0  0  0  0  0  0  0  0
  140.5722   69.9195  220.1554 H   0  0  0  0  0  0  0  0  0  0  0  0
  141.6121   70.8786  221.2431 H   0  0  0  0  0  0  0  0  0  0  0  0
  138.9184   69.5925  221.9760 H   0  0  0  0  0  0  0  0  0  0  0  0
  140.5230   69.0087  222.4917 H   0  0  0  0  0  0  0  0  0  0  0  0
  1  2  1  0
  2  3  1  0
  3  4  2  0
  3  5  1  0
  5  6  1  0
  6  7  2  0
  7  8  1  0
  8  9  2  0
  9 10  1  0
 10 11  2  0
  5 12  1  0
 12 13  1  0
 13 14  1  0
 14 15  1  0
 15 16  1  0
 16 17  2  0
 16 18  1  0
 18 19  1  0
 18 20  1  0
 20 21  1  0
 21 22  2  0
 22 23  1  0
 23 24  2  0
 24 25  1  0
 25 26  2  0
 26 27  1  0
 27 28  1  0
 28 29  2  0
 29 30  1  0
 30 31  2  0
 31 32  1  0
 32 33  2  0
 15 34  1  0
 34 35  1  0
 11  6  1  0
 35 12  1  0
 27 20  1  0
 33 28  1  0
 26 21  1  0
  1 36  1  0
  1 37  1  0
  1 38  1  0
  2 39  1  0
  2 40  1  0
  7 41  1  0
  8 42  1  0
  9 43  1  0
 10 44  1  0
 11 45  1  0
 12 46  1  0
 13 47  1  0
 13 48  1  0
 14 49  1  0
 14 50  1  0
 18 51  1  1
 19 52  1  0
 19 53  1  0
 20 54  1  6
 22 55  1  0
 23 56  1  0
 24 57  1  0
 25 58  1  0
 27 59  1  1
 29 60  1  0
 30 61  1  0
 31 62  1  0
 32 63  1  0
 33 64  1  0
 34 65  1  0
 34 66  1  0
 35 67  1  0
 35 68  1  0
M  END
>  <smiles>  (114) 
CCC(=O)N(c1ccccc1)C1CCN(C(=O)[C@@H](N)C2c3ccccc3C2c2ccccc2)CC1

>  <score_type>  (114) 
oracle

>  <origin>  (114) 
autodockgpu

>  <m_score__min__energy>  (114) 
-9.1199999999999992

>  <m_primary>  (114) 
energy

>  <rmsd>  (114) 
7.180334208634733

>  <m_score__min__rmsd>  (114) 
7.180334208634733

>  <meeko>  (114) 
{"free_energy": -8.04, "intermolecular_energy": -10.42, "internal_energy": -3.32, "cluster_size": 5, "cluster_id": 4, "rank_in_cluster": 4}

>  <energy>  (114) 
-8.51

>  <cluster_rmsd>  (114) 
0.38

>  <cluster>  (114) 
3

$$$$

     RDKit          3D

 68 72  0  0  0  0  0  0  0  0999 V2000
  136.6000   69.9110  224.5990 C   0  0  0  0  0  0  0  0  0  0  0  0
  137.4540   69.0190  223.7380 C   0  0  0  0  0  0  0  0  0  0  0  0
  138.8340   68.8960  224.2940 C   0  0  0  0  0  0  0  0  0  0  0  0
  139.2110   67.7550  224.6280 O   0  0  0  0  0  0  0  0  0  0  0  0
  139.6270   70.0700  224.4100 N   0  0  0  0  0  0  0  0  0  0  0  0
  140.0940   70.5220  225.6880 C   0  0  0  0  0  0  0  0  0  0  0  0
  139.7340   69.9110  226.8690 C   0  0  0  0  0  0  0  0  0  0  0  0
  140.2080   70.3820  228.0700 C   0  0  0  0  0  0  0  0  0  0  0  0
  141.0600   71.4880  228.0790 C   0  0  0  0  0  0  0  0  0  0  0  0
  141.4300   72.1100  226.9050 C   0  0  0  0  0  0  0  0  0  0  0  0
  140.9440   71.6220  225.7130 C   0  0  0  0  0  0  0  0  0  0  0  0
  139.9410   70.7870  223.1920 C   0  0  0  0  0  0  0  0  0  0  0  0
  138.9920   71.9330  222.9200 C   0  0  0  0  0  0  0  0  0  0  0  0
  138.6690   72.0180  221.4440 C   0  0  0  0  0  0  0  0  0  0  0  0
  139.8190   71.8020  220.5960 N   0  0  0  0  0  0  0  0  0  0  0  0
  140.1350   72.7450  219.5890 C   0  0  0  0  0  0  0  0  0  0  0  0
  139.3790   73.7450  219.4830 O   0  0  0  0  0  0  0  0  0  0  0  0
  141.2790   72.6410  218.6590 C   0  0  1  0  0  0  0  0  0  0  0  0
  140.8300   72.6640  217.3050 N   0  0  0  0  0  0  0  0  0  0  0  0
  142.1690   73.8700  218.9670 C   0  0  2  0  0  0  0  0  0  0  0  0
  143.5780   73.5560  219.0890 C   0  0  0  0  0  0  0  0  0  0  0  0
  144.7760   73.1770  218.4920 C   0  0  0  0  0  0  0  0  0  0  0  0
  145.9250   73.0190  219.2400 C   0  0  0  0  0  0  0  0  0  0  0  0
  145.9320   73.2270  220.6040 C   0  0  0  0  0  0  0  0  0  0  0  0
  144.7350   73.6060  221.1950 C   0  0  0  0  0  0  0  0  0  0  0  0
  143.5750   73.7640  220.4280 C   0  0  0  0  0  0  0  0  0  0  0  0
  142.1640   74.1080  220.4380 C   0  0  1  0  0  0  0  0  0  0  0  0
  141.8370   75.5030  220.8050 C   0  0  0  0  0  0  0  0  0  0  0  0
  141.0590   75.6810  221.9530 C   0  0  0  0  0  0  0  0  0  0  0  0
  140.7010   76.9380  222.3930 C   0  0  0  0  0  0  0  0  0  0  0  0
  141.0990   78.0720  221.7150 C   0  0  0  0  0  0  0  0  0  0  0  0
  141.8720   77.8930  220.5750 C   0  0  0  0  0  0  0  0  0  0  0  0
  142.2320   76.6180  220.1340 C   0  0  0  0  0  0  0  0  0  0  0  0
  140.5960   70.5960  220.8420 C   0  0  0  0  0  0  0  0  0  0  0  0
  139.9530   69.8560  222.0020 C   0  0  0  0  0  0  0  0  0  0  0  0
  136.8022   69.6998  225.6594 H   0  0  0  0  0  0  0  0  0  0  0  0
  136.8357   70.9636  224.3833 H   0  0  0  0  0  0  0  0  0  0  0  0
  135.5382   69.7214  224.3833 H   0  0  0  0  0  0  0  0  0  0  0  0
  136.9957   68.0202  223.6902 H   0  0  0  0  0  0  0  0  0  0  0  0
  137.5204   69.4626  222.7336 H   0  0  0  0  0  0  0  0  0  0  0  0
  139.0624   69.0400  226.8507 H   0  0  0  0  0  0  0  0  0  0  0  0
  139.9196   69.8936  229.0125 H   0  0  0  0  0  0  0  0  0  0  0  0
  141.4421   71.8693  229.0374 H   0  0  0  0  0  0  0  0  0  0  0  0
  142.1018   72.9809  226.9208 H   0  0  0  0  0  0  0  0  0  0  0  0
  141.2316   72.1081  224.7691 H   0  0  0  0  0  0  0  0  0  0  0  0
  140.9445   71.2114  223.3434 H   0  0  0  0  0  0  0  0  0  0  0  0
  138.0617   71.7740  223.4851 H   0  0  0  0  0  0  0  0  0  0  0  0
  139.4713   72.8723  223.2329 H   0  0  0  0  0  0  0  0  0  0  0  0
  137.9121   71.2557  221.2074 H   0  0  0  0  0  0  0  0  0  0  0  0
  138.3048   73.0372  221.2474 H   0  0  0  0  0  0  0  0  0  0  0  0
  141.8298   71.6977  218.7886 H   0  0  0  0  0  0  0  0  0  0  0  0
  139.9250   73.1430  217.1970 H   0  0  0  0  0  0  0  0  0  0  0  0
  140.8300   71.6820  216.9540 H   0  0  0  0  0  0  0  0  0  0  0  0
  141.8303   74.6007  218.2177 H   0  0  0  0  0  0  0  0  0  0  0  0
  144.8080   73.0005  217.4067 H   0  0  0  0  0  0  0  0  0  0  0  0
  146.8567   72.7204  218.7372 H   0  0  0  0  0  0  0  0  0  0  0  0
  146.8485   73.0977  221.1984 H   0  0  0  0  0  0  0  0  0  0  0  0
  144.6974   73.7845  222.2798 H   0  0  0  0  0  0  0  0  0  0  0  0
  141.4690   73.6040  221.1258 H   0  0  0  0  0  0  0  0  0  0  0  0
  140.7249   74.7983  222.5181 H   0  0  0  0  0  0  0  0  0  0  0  0
  140.0874   77.0384  223.3004 H   0  0  0  0  0  0  0  0  0  0  0  0
  140.8158   79.0763  222.0630 H   0  0  0  0  0  0  0  0  0  0  0  0
  142.2075   78.7738  220.0079 H   0  0  0  0  0  0  0  0  0  0  0  0
  142.8462   76.5135  219.2275 H   0  0  0  0  0  0  0  0  0  0  0  0
  140.5928   69.9597  219.9447 H   0  0  0  0  0  0  0  0  0  0  0  0
  141.6382   70.8535  221.0818 H   0  0  0  0  0  0  0  0  0  0  0  0
  138.9236   69.5705  221.7395 H   0  0  0  0  0  0  0  0  0  0  0  0
  140.5173   68.9410  222.2349 H   0  0  0  0  0  0  0  0  0  0  0  0
  1  2  1  0
  2  3  1  0
  3  4  2  0
  3  5  1  0
  5  6  1  0
  6  7  2  0
  7  8  1  0
  8  9  2  0
  9 10  1  0
 10 11  2  0
  5 12  1  0
 12 13  1  0
 13 14  1  0
 14 15  1  0
 15 16  1  0
 16 17  2  0
 16 18  1  0
 18 19  1  0
 18 20  1  0
 20 21  1  0
 21 22  2  0
 22 23  1  0
 23 24  2  0
 24 25  1  0
 25 26  2  0
 26 27  1  0
 27 28  1  0
 28 29  2  0
 29 30  1  0
 30 31  2  0
 31 32  1  0
 32 33  2  0
 15 34  1  0
 34 35  1  0
 11  6  1  0
 35 12  1  0
 27 20  1  0
 33 28  1  0
 26 21  1  0
  1 36  1  0
  1 37  1  0
  1 38  1  0
  2 39  1  0
  2 40  1  0
  7 41  1  0
  8 42  1  0
  9 43  1  0
 10 44  1  0
 11 45  1  0
 12 46  1  0
 13 47  1  0
 13 48  1  0
 14 49  1  0
 14 50  1  0
 18 51  1  1
 19 52  1  0
 19 53  1  0
 20 54  1  6
 22 55  1  0
 23 56  1  0
 24 57  1  0
 25 58  1  0
 27 59  1  1
 29 60  1  0
 30 61  1  0
 31 62  1  0
 32 63  1  0
 33 64  1  0
 34 65  1  0
 34 66  1  0
 35 67  1  0
 35 68  1  0
M  END
>  <smiles>  (115) 
CCC(=O)N(c1ccccc1)C1CCN(C(=O)[C@@H](N)C2c3ccccc3C2c2ccccc2)CC1

>  <score_type>  (115) 
oracle

>  <origin>  (115) 
autodockgpu

>  <m_score__min__energy>  (115) 
-9.1199999999999992

>  <m_primary>  (115) 
energy

>  <rmsd>  (115) 
7.23331194192666

>  <m_score__min__rmsd>  (115) 
7.23331194192666

>  <meeko>  (115) 
{"free_energy": -8.24, "intermolecular_energy": -10.62, "internal_energy": -3.14, "cluster_size": 5, "cluster_id": 4, "rank_in_cluster": 1}

>  <energy>  (115) 
-8.46

>  <cluster_rmsd>  (115) 
0.34

>  <cluster>  (115) 
3

$$$$

     RDKit          3D

 68 72  0  0  0  0  0  0  0  0999 V2000
  142.9090   80.5490  223.8580 C   0  0  0  0  0  0  0  0  0  0  0  0
  142.8980   80.6020  222.3530 C   0  0  0  0  0  0  0  0  0  0  0  0
  141.5790   81.0820  221.8430 C   0  0  0  0  0  0  0  0  0  0  0  0
  141.5770   82.1420  221.1870 O   0  0  0  0  0  0  0  0  0  0  0  0
  140.4180   80.3130  222.1310 N   0  0  0  0  0  0  0  0  0  0  0  0
  139.2530   80.9220  222.7040 C   0  0  0  0  0  0  0  0  0  0  0  0
  138.5200   81.8870  222.0480 C   0  0  0  0  0  0  0  0  0  0  0  0
  137.4110   82.4400  222.6400 C   0  0  0  0  0  0  0  0  0  0  0  0
  137.0350   82.0150  223.9150 C   0  0  0  0  0  0  0  0  0  0  0  0
  137.7590   81.0500  224.5840 C   0  0  0  0  0  0  0  0  0  0  0  0
  138.8670   80.5080  223.9740 C   0  0  0  0  0  0  0  0  0  0  0  0
  140.4600   78.8990  221.8250 C   0  0  0  0  0  0  0  0  0  0  0  0
  139.2060   78.4050  221.1380 C   0  0  0  0  0  0  0  0  0  0  0  0
  138.8170   77.0380  221.6590 C   0  0  0  0  0  0  0  0  0  0  0  0
  139.9480   76.1570  221.8430 N   0  0  0  0  0  0  0  0  0  0  0  0
  139.9330   74.8670  221.2600 C   0  0  0  0  0  0  0  0  0  0  0  0
  138.9120   74.5500  220.5960 O   0  0  0  0  0  0  0  0  0  0  0  0
  141.0210   73.8740  221.3730 C   0  0  1  0  0  0  0  0  0  0  0  0
  140.4930   72.5480  221.3690 N   0  0  0  0  0  0  0  0  0  0  0  0
  141.9220   74.1120  220.1370 C   0  0  2  0  0  0  0  0  0  0  0  0
  143.1230   73.3020  220.1230 C   0  0  0  0  0  0  0  0  0  0  0  0
  143.7250   72.0550  219.9840 C   0  0  0  0  0  0  0  0  0  0  0  0
  145.0930   71.9080  220.0970 C   0  0  0  0  0  0  0  0  0  0  0  0
  145.9150   72.9860  220.3520 C   0  0  0  0  0  0  0  0  0  0  0  0
  145.3110   74.2280  220.4890 C   0  0  0  0  0  0  0  0  0  0  0  0
  143.9230   74.3670  220.3730 C   0  0  0  0  0  0  0  0  0  0  0  0
  142.7990   75.2870  220.4030 C   0  0  1  0  0  0  0  0  0  0  0  0
  142.7620   76.3030  219.3280 C   0  0  0  0  0  0  0  0  0  0  0  0
  142.2560   77.5600  219.6730 C   0  0  0  0  0  0  0  0  0  0  0  0
  142.1820   78.5840  218.7520 C   0  0  0  0  0  0  0  0  0  0  0  0
  142.6060   78.4070  217.4520 C   0  0  0  0  0  0  0  0  0  0  0  0
  143.1080   77.1580  217.1110 C   0  0  0  0  0  0  0  0  0  0  0  0
  143.1810   76.1240  218.0460 C   0  0  0  0  0  0  0  0  0  0  0  0
  141.0540   76.6680  222.6380 C   0  0  0  0  0  0  0  0  0  0  0  0
  140.7020   78.0810  223.0720 C   0  0  0  0  0  0  0  0  0  0  0  0
  142.7010   81.5509  224.2617 H   0  0  0  0  0  0  0  0  0  0  0  0
  142.1376   79.8461  224.2058 H   0  0  0  0  0  0  0  0  0  0  0  0
  143.8964   80.2113  224.2058 H   0  0  0  0  0  0  0  0  0  0  0  0
  143.6869   81.2884  222.0116 H   0  0  0  0  0  0  0  0  0  0  0  0
  143.0749   79.5877  221.9658 H   0  0  0  0  0  0  0  0  0  0  0  0
  138.8251   82.2165  221.0438 H   0  0  0  0  0  0  0  0  0  0  0  0
  136.8257   83.2093  222.1151 H   0  0  0  0  0  0  0  0  0  0  0  0
  136.1482   82.4560  224.3936 H   0  0  0  0  0  0  0  0  0  0  0  0
  137.4557   80.7193  225.5883 H   0  0  0  0  0  0  0  0  0  0  0  0
  139.4539   79.7386  224.4970 H   0  0  0  0  0  0  0  0  0  0  0  0
  141.2984   78.7680  221.1250 H   0  0  0  0  0  0  0  0  0  0  0  0
  138.3857   79.1122  221.3305 H   0  0  0  0  0  0  0  0  0  0  0  0
  139.3989   78.3313  220.0576 H   0  0  0  0  0  0  0  0  0  0  0  0
  138.3104   77.1638  222.6273 H   0  0  0  0  0  0  0  0  0  0  0  0
  138.1607   76.5756  220.9070 H   0  0  0  0  0  0  0  0  0  0  0  0
  141.5822   73.9844  222.3126 H   0  0  0  0  0  0  0  0  0  0  0  0
  139.5580   72.4950  220.9420 H   0  0  0  0  0  0  0  0  0  0  0  0
  140.5280   72.1900  222.3490 H   0  0  0  0  0  0  0  0  0  0  0  0
  141.2042   74.0470  219.3060 H   0  0  0  0  0  0  0  0  0  0  0  0
  143.1008   71.1723  219.7808 H   0  0  0  0  0  0  0  0  0  0  0  0
  145.5376   70.9086  219.9811 H   0  0  0  0  0  0  0  0  0  0  0  0
  147.0046   72.8661  220.4431 H   0  0  0  0  0  0  0  0  0  0  0  0
  145.9307   75.1141  220.6912 H   0  0  0  0  0  0  0  0  0  0  0  0
  142.6513   75.9649  221.2566 H   0  0  0  0  0  0  0  0  0  0  0  0
  141.9092   77.7361  220.7019 H   0  0  0  0  0  0  0  0  0  0  0  0
  141.7775   79.5594  219.0601 H   0  0  0  0  0  0  0  0  0  0  0  0
  142.5489   79.2218  216.7152 H   0  0  0  0  0  0  0  0  0  0  0  0
  143.4554   76.9797  216.0826 H   0  0  0  0  0  0  0  0  0  0  0  0
  143.5844   75.1472  217.7409 H   0  0  0  0  0  0  0  0  0  0  0  0
  141.2041   76.0316  223.5226 H   0  0  0  0  0  0  0  0  0  0  0  0
  141.9826   76.6679  222.0483 H   0  0  0  0  0  0  0  0  0  0  0  0
  139.7939   78.0668  223.6926 H   0  0  0  0  0  0  0  0  0  0  0  0
  141.5198   78.5163  223.6650 H   0  0  0  0  0  0  0  0  0  0  0  0
  1  2  1  0
  2  3  1  0
  3  4  2  0
  3  5  1  0
  5  6  1  0
  6  7  2  0
  7  8  1  0
  8  9  2  0
  9 10  1  0
 10 11  2  0
  5 12  1  0
 12 13  1  0
 13 14  1  0
 14 15  1  0
 15 16  1  0
 16 17  2  0
 16 18  1  0
 18 19  1  0
 18 20  1  0
 20 21  1  0
 21 22  2  0
 22 23  1  0
 23 24  2  0
 24 25  1  0
 25 26  2  0
 26 27  1  0
 27 28  1  0
 28 29  2  0
 29 30  1  0
 30 31  2  0
 31 32  1  0
 32 33  2  0
 15 34  1  0
 34 35  1  0
 11  6  1  0
 35 12  1  0
 27 20  1  0
 33 28  1  0
 26 21  1  0
  1 36  1  0
  1 37  1  0
  1 38  1  0
  2 39  1  0
  2 40  1  0
  7 41  1  0
  8 42  1  0
  9 43  1  0
 10 44  1  0
 11 45  1  0
 12 46  1  0
 13 47  1  0
 13 48  1  0
 14 49  1  0
 14 50  1  0
 18 51  1  1
 19 52  1  0
 19 53  1  0
 20 54  1  6
 22 55  1  0
 23 56  1  0
 24 57  1  0
 25 58  1  0
 27 59  1  1
 29 60  1  0
 30 61  1  0
 31 62  1  0
 32 63  1  0
 33 64  1  0
 34 65  1  0
 34 66  1  0
 35 67  1  0
 35 68  1  0
M  END
>  <smiles>  (116) 
CCC(=O)N(c1ccccc1)C1CCN(C(=O)[C@@H](N)C2c3ccccc3C2c2ccccc2)CC1

>  <score_type>  (116) 
oracle

>  <origin>  (116) 
autodockgpu

>  <m_score__min__energy>  (116) 
-9.1199999999999992

>  <m_primary>  (116) 
energy

>  <rmsd>  (116) 
7.081867548150327

>  <m_score__min__rmsd>  (116) 
7.081867548150327

>  <meeko>  (116) 
{"free_energy": -7.39, "intermolecular_energy": -9.78, "internal_energy": -3.79, "cluster_size": 4, "cluster_id": 7, "rank_in_cluster": 1}

>  <energy>  (116) 
-8.45

>  <cluster_rmsd>  (116) 
0.45

>  <cluster>  (116) 
3

$$$$

     RDKit          3D

 68 72  0  0  0  0  0  0  0  0999 V2000
  138.8040   67.3140  223.0960 C   0  0  0  0  0  0  0  0  0  0  0  0
  138.1400   68.6510  222.8890 C   0  0  0  0  0  0  0  0  0  0  0  0
  137.9110   69.3430  224.1920 C   0  0  0  0  0  0  0  0  0  0  0  0
  136.8730   69.0460  224.8160 O   0  0  0  0  0  0  0  0  0  0  0  0
  138.8760   70.2860  224.6410 N   0  0  0  0  0  0  0  0  0  0  0  0
  139.6140   70.0680  225.8500 C   0  0  0  0  0  0  0  0  0  0  0  0
  140.2890   71.0780  226.5010 C   0  0  0  0  0  0  0  0  0  0  0  0
  140.9830   70.8180  227.6570 C   0  0  0  0  0  0  0  0  0  0  0  0
  140.9970   69.5190  228.1670 C   0  0  0  0  0  0  0  0  0  0  0  0
  140.3260   68.4980  227.5270 C   0  0  0  0  0  0  0  0  0  0  0  0
  139.6370   68.7780  226.3690 C   0  0  0  0  0  0  0  0  0  0  0  0
  139.0790   71.4690  223.8320 C   0  0  0  0  0  0  0  0  0  0  0  0
  137.8640   71.8390  223.0100 C   0  0  0  0  0  0  0  0  0  0  0  0
  138.2760   72.3110  221.6320 C   0  0  0  0  0  0  0  0  0  0  0  0
  139.4390   73.1700  221.6500 N   0  0  0  0  0  0  0  0  0  0  0  0
  139.3900   74.4290  221.0030 C   0  0  0  0  0  0  0  0  0  0  0  0
  138.3120   74.7400  220.4350 O   0  0  0  0  0  0  0  0  0  0  0  0
  140.5060   75.3970  220.9480 C   0  0  1  0  0  0  0  0  0  0  0  0
  140.5050   76.0930  219.7030 N   0  0  0  0  0  0  0  0  0  0  0  0
  140.2590   76.3720  222.1250 C   0  0  2  0  0  0  0  0  0  0  0  0
  138.8620   76.5270  222.4740 C   0  0  0  0  0  0  0  0  0  0  0  0
  137.6990   75.9970  223.0240 C   0  0  0  0  0  0  0  0  0  0  0  0
  136.5330   76.7330  223.0680 C   0  0  0  0  0  0  0  0  0  0  0  0
  136.4720   78.0190  222.5700 C   0  0  0  0  0  0  0  0  0  0  0  0
  137.6340   78.5440  222.0230 C   0  0  0  0  0  0  0  0  0  0  0  0
  138.8120   77.7890  221.9830 C   0  0  0  0  0  0  0  0  0  0  0  0
  140.2110   77.7630  221.5920 C   0  0  1  0  0  0  0  0  0  0  0  0
  141.1050   78.6980  222.3110 C   0  0  0  0  0  0  0  0  0  0  0  0
  141.7300   79.6820  221.5390 C   0  0  0  0  0  0  0  0  0  0  0  0
  142.5770   80.6110  222.1050 C   0  0  0  0  0  0  0  0  0  0  0  0
  142.8410   80.6050  223.4600 C   0  0  0  0  0  0  0  0  0  0  0  0
  142.2190   79.6260  224.2240 C   0  0  0  0  0  0  0  0  0  0  0  0
  141.3620   78.6880  223.6460 C   0  0  0  0  0  0  0  0  0  0  0  0
  140.6120   72.6690  222.3490 C   0  0  0  0  0  0  0  0  0  0  0  0
  140.2690   71.3020  222.9160 C   0  0  0  0  0  0  0  0  0  0  0  0
  138.9022   67.1163  224.1736 H   0  0  0  0  0  0  0  0  0  0  0  0
  138.1928   66.5254  222.6327 H   0  0  0  0  0  0  0  0  0  0  0  0
  139.8016   67.3244  222.6327 H   0  0  0  0  0  0  0  0  0  0  0  0
  138.7852   69.2789  222.2569 H   0  0  0  0  0  0  0  0  0  0  0  0
  137.1665   68.4871  222.4038 H   0  0  0  0  0  0  0  0  0  0  0  0
  140.2717   72.0990  226.0919 H   0  0  0  0  0  0  0  0  0  0  0  0
  141.5220   71.6247  228.1754 H   0  0  0  0  0  0  0  0  0  0  0  0
  141.5513   69.3063  229.0930 H   0  0  0  0  0  0  0  0  0  0  0  0
  140.3413   67.4767  227.9354 H   0  0  0  0  0  0  0  0  0  0  0  0
  139.0985   67.9725  225.8482 H   0  0  0  0  0  0  0  0  0  0  0  0
  139.2659   72.2890  224.5409 H   0  0  0  0  0  0  0  0  0  0  0  0
  137.2129   70.9580  222.9106 H   0  0  0  0  0  0  0  0  0  0  0  0
  137.3272   72.6538  223.5179 H   0  0  0  0  0  0  0  0  0  0  0  0
  138.5013   71.4299  221.0132 H   0  0  0  0  0  0  0  0  0  0  0  0
  137.4407   72.8989  221.2237 H   0  0  0  0  0  0  0  0  0  0  0  0
  141.4849   74.9018  221.0287 H   0  0  0  0  0  0  0  0  0  0  0  0
  139.5860   76.0750  219.2400 H   0  0  0  0  0  0  0  0  0  0  0  0
  141.2760   75.7000  219.1200 H   0  0  0  0  0  0  0  0  0  0  0  0
  140.9785   76.0192  222.8785 H   0  0  0  0  0  0  0  0  0  0  0  0
  137.7095   74.9748  223.4302 H   0  0  0  0  0  0  0  0  0  0  0  0
  135.6310   76.2847  223.5101 H   0  0  0  0  0  0  0  0  0  0  0  0
  135.5407   78.6033  222.6054 H   0  0  0  0  0  0  0  0  0  0  0  0
  137.6295   79.5659  221.6158 H   0  0  0  0  0  0  0  0  0  0  0  0
  140.5120   78.0244  220.5668 H   0  0  0  0  0  0  0  0  0  0  0  0
  141.5417   79.7157  220.4558 H   0  0  0  0  0  0  0  0  0  0  0  0
  143.0508   81.3704  221.4656 H   0  0  0  0  0  0  0  0  0  0  0  0
  143.5158   81.3447  223.9156 H   0  0  0  0  0  0  0  0  0  0  0  0
  142.4057   79.5890  225.3074 H   0  0  0  0  0  0  0  0  0  0  0  0
  140.8861   77.9271  224.2820 H   0  0  0  0  0  0  0  0  0  0  0  0
  141.4558   72.5822  221.6486 H   0  0  0  0  0  0  0  0  0  0  0  0
  140.9000   73.3578  223.1569 H   0  0  0  0  0  0  0  0  0  0  0  0
  140.0182   70.6098  222.0987 H   0  0  0  0  0  0  0  0  0  0  0  0
  141.1254   70.8888  223.4690 H   0  0  0  0  0  0  0  0  0  0  0  0
  1  2  1  0
  2  3  1  0
  3  4  2  0
  3  5  1  0
  5  6  1  0
  6  7  2  0
  7  8  1  0
  8  9  2  0
  9 10  1  0
 10 11  2  0
  5 12  1  0
 12 13  1  0
 13 14  1  0
 14 15  1  0
 15 16  1  0
 16 17  2  0
 16 18  1  0
 18 19  1  0
 18 20  1  0
 20 21  1  0
 21 22  2  0
 22 23  1  0
 23 24  2  0
 24 25  1  0
 25 26  2  0
 26 27  1  0
 27 28  1  0
 28 29  2  0
 29 30  1  0
 30 31  2  0
 31 32  1  0
 32 33  2  0
 15 34  1  0
 34 35  1  0
 11  6  1  0
 35 12  1  0
 27 20  1  0
 33 28  1  0
 26 21  1  0
  1 36  1  0
  1 37  1  0
  1 38  1  0
  2 39  1  0
  2 40  1  0
  7 41  1  0
  8 42  1  0
  9 43  1  0
 10 44  1  0
 11 45  1  0
 12 46  1  0
 13 47  1  0
 13 48  1  0
 14 49  1  0
 14 50  1  0
 18 51  1  1
 19 52  1  0
 19 53  1  0
 20 54  1  1
 22 55  1  0
 23 56  1  0
 24 57  1  0
 25 58  1  0
 27 59  1  6
 29 60  1  0
 30 61  1  0
 31 62  1  0
 32 63  1  0
 33 64  1  0
 34 65  1  0
 34 66  1  0
 35 67  1  0
 35 68  1  0
M  END
>  <smiles>  (117) 
CCC(=O)N(c1ccccc1)C1CCN(C(=O)[C@@H](N)C2c3ccccc3C2c2ccccc2)CC1

>  <score_type>  (117) 
oracle

>  <origin>  (117) 
autodockgpu

>  <m_score__min__energy>  (117) 
-9.1199999999999992

>  <m_primary>  (117) 
energy

>  <rmsd>  (117) 
7.5645591347843535

>  <m_score__min__rmsd>  (117) 
7.5645591347843535

>  <meeko>  (117) 
{"free_energy": -8.56, "intermolecular_energy": -10.95, "internal_energy": -2.96, "cluster_size": 30, "cluster_id": 3, "rank_in_cluster": 2}

>  <energy>  (117) 
-8.44

>  <cluster_rmsd>  (117) 
0.37

>  <cluster>  (117) 
3

$$$$

     RDKit          3D

 68 72  0  0  0  0  0  0  0  0999 V2000
  136.9890   68.4120  222.6580 C   0  0  0  0  0  0  0  0  0  0  0  0
  137.1560   68.8770  224.0800 C   0  0  0  0  0  0  0  0  0  0  0  0
  138.5930   68.8550  224.4870 C   0  0  0  0  0  0  0  0  0  0  0  0
  139.1330   67.7360  224.5970 O   0  0  0  0  0  0  0  0  0  0  0  0
  139.2530   70.0920  224.7200 N   0  0  0  0  0  0  0  0  0  0  0  0
  139.8660   70.3730  225.9860 C   0  0  0  0  0  0  0  0  0  0  0  0
  139.7890   69.5110  227.0570 C   0  0  0  0  0  0  0  0  0  0  0  0
  140.3930   69.8260  228.2500 C   0  0  0  0  0  0  0  0  0  0  0  0
  141.0870   71.0320  228.3640 C   0  0  0  0  0  0  0  0  0  0  0  0
  141.1730   71.9060  227.3000 C   0  0  0  0  0  0  0  0  0  0  0  0
  140.5600   71.5710  226.1140 C   0  0  0  0  0  0  0  0  0  0  0  0
  139.2790   71.0500  223.6360 C   0  0  0  0  0  0  0  0  0  0  0  0
  137.9670   71.7830  223.4630 C   0  0  0  0  0  0  0  0  0  0  0  0
  137.6480   71.9630  221.9940 C   0  0  0  0  0  0  0  0  0  0  0  0
  138.8010   72.3270  221.2020 N   0  0  0  0  0  0  0  0  0  0  0  0
  138.7410   73.4610  220.3560 C   0  0  0  0  0  0  0  0  0  0  0  0
  137.6610   74.1070  220.3400 O   0  0  0  0  0  0  0  0  0  0  0  0
  139.8460   73.9370  219.4980 C   0  0  1  0  0  0  0  0  0  0  0  0
  139.4200   75.0370  218.6950 N   0  0  0  0  0  0  0  0  0  0  0  0
  140.9660   74.3680  220.4750 C   0  0  2  0  0  0  0  0  0  0  0  0
  140.8240   75.7240  220.9660 C   0  0  0  0  0  0  0  0  0  0  0  0
  140.1480   76.6460  221.7600 C   0  0  0  0  0  0  0  0  0  0  0  0
  140.5420   77.9680  221.8060 C   0  0  0  0  0  0  0  0  0  0  0  0
  141.6150   78.4280  221.0720 C   0  0  0  0  0  0  0  0  0  0  0  0
  142.2860   77.5050  220.2820 C   0  0  0  0  0  0  0  0  0  0  0  0
  141.8800   76.1670  220.2410 C   0  0  0  0  0  0  0  0  0  0  0  0
  142.1340   74.8490  219.6840 C   0  0  1  0  0  0  0  0  0  0  0  0
  143.4100   74.2120  220.0740 C   0  0  0  0  0  0  0  0  0  0  0  0
  143.4400   72.8140  220.0650 C   0  0  0  0  0  0  0  0  0  0  0  0
  144.5790   72.1160  220.4030 C   0  0  0  0  0  0  0  0  0  0  0  0
  145.7380   72.7720  220.7660 C   0  0  0  0  0  0  0  0  0  0  0  0
  145.7060   74.1600  220.7740 C   0  0  0  0  0  0  0  0  0  0  0  0
  144.5500   74.8630  220.4300 C   0  0  0  0  0  0  0  0  0  0  0  0
  139.9760   71.4790  221.3290 C   0  0  0  0  0  0  0  0  0  0  0  0
  139.6550   70.3840  222.3320 C   0  0  0  0  0  0  0  0  0  0  0  0
  136.6172   67.3768  222.6520 H   0  0  0  0  0  0  0  0  0  0  0  0
  136.2686   69.0633  222.1415 H   0  0  0  0  0  0  0  0  0  0  0  0
  137.9592   68.4561  222.1415 H   0  0  0  0  0  0  0  0  0  0  0  0
  136.7728   69.9042  224.1696 H   0  0  0  0  0  0  0  0  0  0  0  0
  136.5957   68.1969  224.7384 H   0  0  0  0  0  0  0  0  0  0  0  0
  139.2398   68.5632  226.9566 H   0  0  0  0  0  0  0  0  0  0  0  0
  140.3306   69.1365  229.1048 H   0  0  0  0  0  0  0  0  0  0  0  0
  141.5727   71.2893  229.3168 H   0  0  0  0  0  0  0  0  0  0  0  0
  141.7220   72.8542  227.3978 H   0  0  0  0  0  0  0  0  0  0  0  0
  140.6198   72.2589  225.2577 H   0  0  0  0  0  0  0  0  0  0  0  0
  140.0434   71.7923  223.9095 H   0  0  0  0  0  0  0  0  0  0  0  0
  137.1630   71.2027  223.9393 H   0  0  0  0  0  0  0  0  0  0  0  0
  138.0495   72.7743  223.9325 H   0  0  0  0  0  0  0  0  0  0  0  0
  137.2416   71.0174  221.6060 H   0  0  0  0  0  0  0  0  0  0  0  0
  136.9236   72.7870  221.9151 H   0  0  0  0  0  0  0  0  0  0  0  0
  140.1915   73.1579  218.8025 H   0  0  0  0  0  0  0  0  0  0  0  0
  138.6820   75.5950  219.1480 H   0  0  0  0  0  0  0  0  0  0  0  0
  139.1480   74.6610  217.7610 H   0  0  0  0  0  0  0  0  0  0  0  0
  140.9987   73.5261  221.1823 H   0  0  0  0  0  0  0  0  0  0  0  0
  139.2869   76.3161  222.3597 H   0  0  0  0  0  0  0  0  0  0  0  0
  139.9867   78.6717  222.4436 H   0  0  0  0  0  0  0  0  0  0  0  0
  141.9261   79.4824  221.1110 H   0  0  0  0  0  0  0  0  0  0  0  0
  143.1479   77.8297  219.6806 H   0  0  0  0  0  0  0  0  0  0  0  0
  142.2221   74.7074  218.5967 H   0  0  0  0  0  0  0  0  0  0  0  0
  142.5337   72.2588  219.7816 H   0  0  0  0  0  0  0  0  0  0  0  0
  144.5644   71.0163  220.3832 H   0  0  0  0  0  0  0  0  0  0  0  0
  146.6488   72.2183  221.0376 H   0  0  0  0  0  0  0  0  0  0  0  0
  146.6108   74.7177  221.0574 H   0  0  0  0  0  0  0  0  0  0  0  0
  144.5613   75.9628  220.4471 H   0  0  0  0  0  0  0  0  0  0  0  0
  140.2219   71.0326  220.3542 H   0  0  0  0  0  0  0  0  0  0  0  0
  140.8397   72.0692  221.6691 H   0  0  0  0  0  0  0  0  0  0  0  0
  138.8147   69.7757  221.9662 H   0  0  0  0  0  0  0  0  0  0  0  0
  140.5239   69.7244  222.4731 H   0  0  0  0  0  0  0  0  0  0  0  0
  1  2  1  0
  2  3  1  0
  3  4  2  0
  3  5  1  0
  5  6  1  0
  6  7  2  0
  7  8  1  0
  8  9  2  0
  9 10  1  0
 10 11  2  0
  5 12  1  0
 12 13  1  0
 13 14  1  0
 14 15  1  0
 15 16  1  0
 16 17  2  0
 16 18  1  0
 18 19  1  0
 18 20  1  0
 20 21  1  0
 21 22  2  0
 22 23  1  0
 23 24  2  0
 24 25  1  0
 25 26  2  0
 26 27  1  0
 27 28  1  0
 28 29  2  0
 29 30  1  0
 30 31  2  0
 31 32  1  0
 32 33  2  0
 15 34  1  0
 34 35  1  0
 11  6  1  0
 35 12  1  0
 27 20  1  0
 33 28  1  0
 26 21  1  0
  1 36  1  0
  1 37  1  0
  1 38  1  0
  2 39  1  0
  2 40  1  0
  7 41  1  0
  8 42  1  0
  9 43  1  0
 10 44  1  0
 11 45  1  0
 12 46  1  0
 13 47  1  0
 13 48  1  0
 14 49  1  0
 14 50  1  0
 18 51  1  6
 19 52  1  0
 19 53  1  0
 20 54  1  1
 22 55  1  0
 23 56  1  0
 24 57  1  0
 25 58  1  0
 27 59  1  6
 29 60  1  0
 30 61  1  0
 31 62  1  0
 32 63  1  0
 33 64  1  0
 34 65  1  0
 34 66  1  0
 35 67  1  0
 35 68  1  0
M  END
>  <smiles>  (118) 
CCC(=O)N(c1ccccc1)C1CCN(C(=O)[C@@H](N)C2c3ccccc3C2c2ccccc2)CC1

>  <score_type>  (118) 
oracle

>  <origin>  (118) 
autodockgpu

>  <m_score__min__energy>  (118) 
-9.1199999999999992

>  <m_primary>  (118) 
energy

>  <rmsd>  (118) 
7.374957301795976

>  <m_score__min__rmsd>  (118) 
7.374957301795976

>  <meeko>  (118) 
{"free_energy": -8.28, "intermolecular_energy": -10.67, "internal_energy": -3.07, "cluster_size": 8, "cluster_id": 1, "rank_in_cluster": 8}

>  <energy>  (118) 
-8.42

>  <cluster_rmsd>  (118) 
0.69

>  <cluster>  (118) 
3

$$$$

     RDKit          3D

 68 72  0  0  0  0  0  0  0  0999 V2000
  136.3280   69.4600  224.9650 C   0  0  0  0  0  0  0  0  0  0  0  0
  137.2860   68.9380  223.9270 C   0  0  0  0  0  0  0  0  0  0  0  0
  138.6840   68.9130  224.4510 C   0  0  0  0  0  0  0  0  0  0  0  0
  139.1680   67.7950  224.7180 O   0  0  0  0  0  0  0  0  0  0  0  0
  139.3730   70.1460  224.6120 N   0  0  0  0  0  0  0  0  0  0  0  0
  139.9510   70.5080  225.8730 C   0  0  0  0  0  0  0  0  0  0  0  0
  140.7160   71.6420  226.0410 C   0  0  0  0  0  0  0  0  0  0  0  0
  141.2490   71.9470  227.2690 C   0  0  0  0  0  0  0  0  0  0  0  0
  141.0080   71.0930  228.3470 C   0  0  0  0  0  0  0  0  0  0  0  0
  140.2450   69.9540  228.1950 C   0  0  0  0  0  0  0  0  0  0  0  0
  139.7190   69.6670  226.9550 C   0  0  0  0  0  0  0  0  0  0  0  0
  139.4630   71.0160  223.4590 C   0  0  0  0  0  0  0  0  0  0  0  0
  138.1530   71.6960  223.1280 C   0  0  0  0  0  0  0  0  0  0  0  0
  137.9460   71.7510  221.6290 C   0  0  0  0  0  0  0  0  0  0  0  0
  139.1490   72.0830  220.9000 N   0  0  0  0  0  0  0  0  0  0  0  0
  139.1310   73.1450  219.9640 C   0  0  0  0  0  0  0  0  0  0  0  0
  138.0430   73.7570  219.8130 O   0  0  0  0  0  0  0  0  0  0  0  0
  140.2890   73.5820  219.1570 C   0  0  1  0  0  0  0  0  0  0  0  0
  139.9260   74.6670  218.3040 N   0  0  0  0  0  0  0  0  0  0  0  0
  141.3600   74.0220  220.1840 C   0  0  2  0  0  0  0  0  0  0  0  0
  141.1460   75.3510  220.7200 C   0  0  0  0  0  0  0  0  0  0  0  0
  140.4080   76.2120  221.5260 C   0  0  0  0  0  0  0  0  0  0  0  0
  140.7420   77.5470  221.6340 C   0  0  0  0  0  0  0  0  0  0  0  0
  141.8160   78.0800  220.9510 C   0  0  0  0  0  0  0  0  0  0  0  0
  142.5490   77.2170  220.1490 C   0  0  0  0  0  0  0  0  0  0  0  0
  142.2030   75.8650  220.0450 C   0  0  0  0  0  0  0  0  0  0  0  0
  142.5290   74.5820  219.4470 C   0  0  1  0  0  0  0  0  0  0  0  0
  143.8200   73.9840  219.8530 C   0  0  0  0  0  0  0  0  0  0  0  0
  144.0270   72.6470  219.5020 C   0  0  0  0  0  0  0  0  0  0  0  0
  145.1970   71.9920  219.8230 C   0  0  0  0  0  0  0  0  0  0  0  0
  146.2110   72.6330  220.5040 C   0  0  0  0  0  0  0  0  0  0  0  0
  146.0030   73.9610  220.8510 C   0  0  0  0  0  0  0  0  0  0  0  0
  144.8170   74.6210  220.5240 C   0  0  0  0  0  0  0  0  0  0  0  0
  140.3290   71.2810  221.1850 C   0  0  0  0  0  0  0  0  0  0  0  0
  139.9540   70.2600  222.2460 C   0  0  0  0  0  0  0  0  0  0  0  0
  136.7225   69.2451  225.9691 H   0  0  0  0  0  0  0  0  0  0  0  0
  136.2106   70.5468  224.8421 H   0  0  0  0  0  0  0  0  0  0  0  0
  135.3511   68.9695  224.8421 H   0  0  0  0  0  0  0  0  0  0  0  0
  136.9894   67.9169  223.6454 H   0  0  0  0  0  0  0  0  0  0  0  0
  137.2520   69.6050  223.0529 H   0  0  0  0  0  0  0  0  0  0  0  0
  140.9009   72.3076  225.1850 H   0  0  0  0  0  0  0  0  0  0  0  0
  141.8584   72.8531  227.4019 H   0  0  0  0  0  0  0  0  0  0  0  0
  141.4332   71.3323  229.3329 H   0  0  0  0  0  0  0  0  0  0  0  0
  140.0598   69.2864  229.0495 H   0  0  0  0  0  0  0  0  0  0  0  0
  139.1084   68.7621  226.8194 H   0  0  0  0  0  0  0  0  0  0  0  0
  140.1874   71.7986  223.7288 H   0  0  0  0  0  0  0  0  0  0  0  0
  137.3270   71.1327  223.5867 H   0  0  0  0  0  0  0  0  0  0  0  0
  138.1769   72.7231  223.5210 H   0  0  0  0  0  0  0  0  0  0  0  0
  137.5913   70.7669  221.2887 H   0  0  0  0  0  0  0  0  0  0  0  0
  137.2127   72.5462  221.4292 H   0  0  0  0  0  0  0  0  0  0  0  0
  140.6596   72.7801  218.5016 H   0  0  0  0  0  0  0  0  0  0  0  0
  139.1500   75.2270  218.6840 H   0  0  0  0  0  0  0  0  0  0  0  0
  139.7360   74.2760  217.3560 H   0  0  0  0  0  0  0  0  0  0  0  0
  141.4078   73.1560  220.8606 H   0  0  0  0  0  0  0  0  0  0  0  0
  139.5449   75.8228  222.0860 H   0  0  0  0  0  0  0  0  0  0  0  0
  140.1378   78.2013  222.2797 H   0  0  0  0  0  0  0  0  0  0  0  0
  142.0799   79.1443  221.0386 H   0  0  0  0  0  0  0  0  0  0  0  0
  143.4136   77.6007  219.5875 H   0  0  0  0  0  0  0  0  0  0  0  0
  142.6543   74.4865  218.3583 H   0  0  0  0  0  0  0  0  0  0  0  0
  143.2392   72.1055  218.9578 H   0  0  0  0  0  0  0  0  0  0  0  0
  145.3242   70.9392  219.5307 H   0  0  0  0  0  0  0  0  0  0  0  0
  147.1457   72.1134  220.7614 H   0  0  0  0  0  0  0  0  0  0  0  0
  146.7893   74.5048  221.3951 H   0  0  0  0  0  0  0  0  0  0  0  0
  144.6866   75.6741  220.8139 H   0  0  0  0  0  0  0  0  0  0  0  0
  140.6606   70.7660  220.2713 H   0  0  0  0  0  0  0  0  0  0  0  0
  141.1501   71.9203  221.5414 H   0  0  0  0  0  0  0  0  0  0  0  0
  139.1581   69.6017  221.8676 H   0  0  0  0  0  0  0  0  0  0  0  0
  140.8232   69.6379  222.5059 H   0  0  0  0  0  0  0  0  0  0  0  0
  1  2  1  0
  2  3  1  0
  3  4  2  0
  3  5  1  0
  5  6  1  0
  6  7  2  0
  7  8  1  0
  8  9  2  0
  9 10  1  0
 10 11  2  0
  5 12  1  0
 12 13  1  0
 13 14  1  0
 14 15  1  0
 15 16  1  0
 16 17  2  0
 16 18  1  0
 18 19  1  0
 18 20  1  0
 20 21  1  0
 21 22  2  0
 22 23  1  0
 23 24  2  0
 24 25  1  0
 25 26  2  0
 26 27  1  0
 27 28  1  0
 28 29  2  0
 29 30  1  0
 30 31  2  0
 31 32  1  0
 32 33  2  0
 15 34  1  0
 34 35  1  0
 11  6  1  0
 35 12  1  0
 27 20  1  0
 33 28  1  0
 26 21  1  0
  1 36  1  0
  1 37  1  0
  1 38  1  0
  2 39  1  0
  2 40  1  0
  7 41  1  0
  8 42  1  0
  9 43  1  0
 10 44  1  0
 11 45  1  0
 12 46  1  0
 13 47  1  0
 13 48  1  0
 14 49  1  0
 14 50  1  0
 18 51  1  6
 19 52  1  0
 19 53  1  0
 20 54  1  1
 22 55  1  0
 23 56  1  0
 24 57  1  0
 25 58  1  0
 27 59  1  6
 29 60  1  0
 30 61  1  0
 31 62  1  0
 32 63  1  0
 33 64  1  0
 34 65  1  0
 34 66  1  0
 35 67  1  0
 35 68  1  0
M  END
>  <smiles>  (119) 
CCC(=O)N(c1ccccc1)C1CCN(C(=O)[C@@H](N)C2c3ccccc3C2c2ccccc2)CC1

>  <score_type>  (119) 
oracle

>  <origin>  (119) 
autodockgpu

>  <m_score__min__energy>  (119) 
-9.1199999999999992

>  <m_primary>  (119) 
energy

>  <rmsd>  (119) 
7.314545881615291

>  <m_score__min__rmsd>  (119) 
7.314545881615291

>  <meeko>  (119) 
{"free_energy": -8.46, "intermolecular_energy": -10.85, "internal_energy": -2.99, "cluster_size": 8, "cluster_id": 1, "rank_in_cluster": 7}

>  <energy>  (119) 
-8.41

>  <cluster_rmsd>  (119) 
0.43

>  <cluster>  (119) 
3

$$$$

     RDKit          3D

 68 72  0  0  0  0  0  0  0  0999 V2000
  136.3390   69.4410  224.9820 C   0  0  0  0  0  0  0  0  0  0  0  0
  137.3250   68.8990  223.9810 C   0  0  0  0  0  0  0  0  0  0  0  0
  138.7080   68.8850  224.5440 C   0  0  0  0  0  0  0  0  0  0  0  0
  139.1880   67.7730  224.8410 O   0  0  0  0  0  0  0  0  0  0  0  0
  139.3890   70.1230  224.7050 N   0  0  0  0  0  0  0  0  0  0  0  0
  139.9480   70.4980  225.9710 C   0  0  0  0  0  0  0  0  0  0  0  0
  139.7300   69.7740  227.1230 C   0  0  0  0  0  0  0  0  0  0  0  0
  140.2880   70.1750  228.3130 C   0  0  0  0  0  0  0  0  0  0  0  0
  141.0790   71.3250  228.3410 C   0  0  0  0  0  0  0  0  0  0  0  0
  141.3060   72.0600  227.1960 C   0  0  0  0  0  0  0  0  0  0  0  0
  140.7380   71.6410  226.0140 C   0  0  0  0  0  0  0  0  0  0  0  0
  139.4930   70.9840  223.5460 C   0  0  0  0  0  0  0  0  0  0  0  0
  138.2100   71.7260  223.2450 C   0  0  0  0  0  0  0  0  0  0  0  0
  137.9670   71.7870  221.7520 C   0  0  0  0  0  0  0  0  0  0  0  0
  139.1660   72.0570  220.9910 N   0  0  0  0  0  0  0  0  0  0  0  0
  139.1770   73.1150  220.0510 C   0  0  0  0  0  0  0  0  0  0  0  0
  138.1160   73.7800  219.9250 O   0  0  0  0  0  0  0  0  0  0  0  0
  140.3340   73.4930  219.2130 C   0  0  1  0  0  0  0  0  0  0  0  0
  139.9800   74.5400  218.3110 N   0  0  0  0  0  0  0  0  0  0  0  0
  141.4220   73.9650  220.2070 C   0  0  2  0  0  0  0  0  0  0  0  0
  141.2030   75.3020  220.7230 C   0  0  0  0  0  0  0  0  0  0  0  0
  140.4730   76.1700  221.5290 C   0  0  0  0  0  0  0  0  0  0  0  0
  140.7930   77.5100  221.6040 C   0  0  0  0  0  0  0  0  0  0  0  0
  141.8450   78.0420  220.8870 C   0  0  0  0  0  0  0  0  0  0  0  0
  142.5710   77.1730  220.0850 C   0  0  0  0  0  0  0  0  0  0  0  0
  142.2390   75.8150  220.0150 C   0  0  0  0  0  0  0  0  0  0  0  0
  142.5670   74.5240  219.4340 C   0  0  1  0  0  0  0  0  0  0  0  0
  143.8740   73.9500  219.8230 C   0  0  0  0  0  0  0  0  0  0  0  0
  144.1200   72.6320  219.4270 C   0  0  0  0  0  0  0  0  0  0  0  0
  145.3080   71.9990  219.7280 C   0  0  0  0  0  0  0  0  0  0  0  0
  146.3020   72.6450  220.4340 C   0  0  0  0  0  0  0  0  0  0  0  0
  146.0550   73.9540  220.8250 C   0  0  0  0  0  0  0  0  0  0  0  0
  144.8510   74.5910  220.5180 C   0  0  0  0  0  0  0  0  0  0  0  0
  140.3120   71.1980  221.2500 C   0  0  0  0  0  0  0  0  0  0  0  0
  139.9150   70.2010  222.3240 C   0  0  0  0  0  0  0  0  0  0  0  0
  136.7030   69.2409  226.0005 H   0  0  0  0  0  0  0  0  0  0  0  0
  136.2295   70.5261  224.8383 H   0  0  0  0  0  0  0  0  0  0  0  0
  135.3642   68.9519  224.8383 H   0  0  0  0  0  0  0  0  0  0  0  0
  137.0362   67.8724  223.7115 H   0  0  0  0  0  0  0  0  0  0  0  0
  137.3151   69.5484  223.0932 H   0  0  0  0  0  0  0  0  0  0  0  0
  139.1053   68.8692  227.0898 H   0  0  0  0  0  0  0  0  0  0  0  0
  140.1135   69.5969  229.2324 H   0  0  0  0  0  0  0  0  0  0  0  0
  141.5283   71.6501  229.2910 H   0  0  0  0  0  0  0  0  0  0  0  0
  141.9301   72.9653  227.2268 H   0  0  0  0  0  0  0  0  0  0  0  0
  140.9113   72.2172  225.0932 H   0  0  0  0  0  0  0  0  0  0  0  0
  140.2619   71.7304  223.7942 H   0  0  0  0  0  0  0  0  0  0  0  0
  137.3696   71.2050  223.7270 H   0  0  0  0  0  0  0  0  0  0  0  0
  138.2946   72.7520  223.6326 H   0  0  0  0  0  0  0  0  0  0  0  0
  137.5554   70.8208  221.4249 H   0  0  0  0  0  0  0  0  0  0  0  0
  137.2688   72.6169  221.5678 H   0  0  0  0  0  0  0  0  0  0  0  0
  140.6854   72.6539  218.5946 H   0  0  0  0  0  0  0  0  0  0  0  0
  139.2370   75.1480  218.6820 H   0  0  0  0  0  0  0  0  0  0  0  0
  139.7450   74.1020  217.3940 H   0  0  0  0  0  0  0  0  0  0  0  0
  141.4957   73.1127  220.8985 H   0  0  0  0  0  0  0  0  0  0  0  0
  139.6274   75.7817  222.1157 H   0  0  0  0  0  0  0  0  0  0  0  0
  140.1955   78.1696  222.2505 H   0  0  0  0  0  0  0  0  0  0  0  0
  142.0977   79.1108  220.9486 H   0  0  0  0  0  0  0  0  0  0  0  0
  143.4180   77.5561  219.4969 H   0  0  0  0  0  0  0  0  0  0  0  0
  142.6690   74.4085  218.3449 H   0  0  0  0  0  0  0  0  0  0  0  0
  143.3487   72.0874  218.8626 H   0  0  0  0  0  0  0  0  0  0  0  0
  145.4657   70.9611  219.3995 H   0  0  0  0  0  0  0  0  0  0  0  0
  147.2506   72.1438  220.6769 H   0  0  0  0  0  0  0  0  0  0  0  0
  146.8246   74.5013  221.3890 H   0  0  0  0  0  0  0  0  0  0  0  0
  144.6902   75.6292  220.8440 H   0  0  0  0  0  0  0  0  0  0  0  0
  140.5943   70.6642  220.3306 H   0  0  0  0  0  0  0  0  0  0  0  0
  141.1724   71.7972  221.5828 H   0  0  0  0  0  0  0  0  0  0  0  0
  139.0783   69.5814  221.9689 H   0  0  0  0  0  0  0  0  0  0  0  0
  140.7591   69.5379  222.5644 H   0  0  0  0  0  0  0  0  0  0  0  0
  1  2  1  0
  2  3  1  0
  3  4  2  0
  3  5  1  0
  5  6  1  0
  6  7  2  0
  7  8  1  0
  8  9  2  0
  9 10  1  0
 10 11  2  0
  5 12  1  0
 12 13  1  0
 13 14  1  0
 14 15  1  0
 15 16  1  0
 16 17  2  0
 16 18  1  0
 18 19  1  0
 18 20  1  0
 20 21  1  0
 21 22  2  0
 22 23  1  0
 23 24  2  0
 24 25  1  0
 25 26  2  0
 26 27  1  0
 27 28  1  0
 28 29  2  0
 29 30  1  0
 30 31  2  0
 31 32  1  0
 32 33  2  0
 15 34  1  0
 34 35  1  0
 11  6  1  0
 35 12  1  0
 27 20  1  0
 33 28  1  0
 26 21  1  0
  1 36  1  0
  1 37  1  0
  1 38  1  0
  2 39  1  0
  2 40  1  0
  7 41  1  0
  8 42  1  0
  9 43  1  0
 10 44  1  0
 11 45  1  0
 12 46  1  0
 13 47  1  0
 13 48  1  0
 14 49  1  0
 14 50  1  0
 18 51  1  6
 19 52  1  0
 19 53  1  0
 20 54  1  1
 22 55  1  0
 23 56  1  0
 24 57  1  0
 25 58  1  0
 27 59  1  6
 29 60  1  0
 30 61  1  0
 31 62  1  0
 32 63  1  0
 33 64  1  0
 34 65  1  0
 34 66  1  0
 35 67  1  0
 35 68  1  0
M  END
>  <smiles>  (120) 
CCC(=O)N(c1ccccc1)C1CCN(C(=O)[C@@H](N)C2c3ccccc3C2c2ccccc2)CC1

>  <score_type>  (120) 
oracle

>  <origin>  (120) 
autodockgpu

>  <m_score__min__energy>  (120) 
-9.1199999999999992

>  <m_primary>  (120) 
energy

>  <rmsd>  (120) 
7.298441044254569

>  <m_score__min__rmsd>  (120) 
7.298441044254569

>  <meeko>  (120) 
{"free_energy": -8.56, "intermolecular_energy": -10.95, "internal_energy": -3.04, "cluster_size": 8, "cluster_id": 1, "rank_in_cluster": 4}

>  <energy>  (120) 
-8.36

>  <cluster_rmsd>  (120) 
0.57

>  <cluster>  (120) 
3

$$$$

     RDKit          3D

 68 72  0  0  0  0  0  0  0  0999 V2000
  135.9930   69.2500  224.9740 C   0  0  0  0  0  0  0  0  0  0  0  0
  136.9940   69.7760  223.9790 C   0  0  0  0  0  0  0  0  0  0  0  0
  138.3850   69.3940  224.3650 C   0  0  0  0  0  0  0  0  0  0  0  0
  138.5890   68.1920  224.6290 O   0  0  0  0  0  0  0  0  0  0  0  0
  139.3820   70.4060  224.4070 N   0  0  0  0  0  0  0  0  0  0  0  0
  139.9960   70.7850  225.6460 C   0  0  0  0  0  0  0  0  0  0  0  0
  140.8410   71.8680  225.7550 C   0  0  0  0  0  0  0  0  0  0  0  0
  141.4060   72.1910  226.9650 C   0  0  0  0  0  0  0  0  0  0  0  0
  141.1130   71.4090  228.0840 C   0  0  0  0  0  0  0  0  0  0  0  0
  140.2690   70.3220  227.9910 C   0  0  0  0  0  0  0  0  0  0  0  0
  139.7130   70.0150  226.7690 C   0  0  0  0  0  0  0  0  0  0  0  0
  139.7480   71.0360  223.1560 C   0  0  0  0  0  0  0  0  0  0  0  0
  138.7440   72.0720  222.7010 C   0  0  0  0  0  0  0  0  0  0  0  0
  138.5470   71.9990  221.2010 C   0  0  0  0  0  0  0  0  0  0  0  0
  139.7810   71.8040  220.4740 N   0  0  0  0  0  0  0  0  0  0  0  0
  140.1130   72.6770  219.4110 C   0  0  0  0  0  0  0  0  0  0  0  0
  139.2970   73.5990  219.1500 O   0  0  0  0  0  0  0  0  0  0  0  0
  141.3400   72.5850  218.5910 C   0  0  1  0  0  0  0  0  0  0  0  0
  141.0170   72.6070  217.2010 N   0  0  0  0  0  0  0  0  0  0  0  0
  142.1850   73.8220  218.9810 C   0  0  2  0  0  0  0  0  0  0  0  0
  143.6030   73.5490  219.0980 C   0  0  0  0  0  0  0  0  0  0  0  0
  144.8180   73.2460  218.4920 C   0  0  0  0  0  0  0  0  0  0  0  0
  145.9650   73.0800  219.2410 C   0  0  0  0  0  0  0  0  0  0  0  0
  145.9540   73.2070  220.6150 C   0  0  0  0  0  0  0  0  0  0  0  0
  144.7400   73.5100  221.2150 C   0  0  0  0  0  0  0  0  0  0  0  0
  143.5820   73.6760  220.4470 C   0  0  0  0  0  0  0  0  0  0  0  0
  142.1600   73.9720  220.4630 C   0  0  1  0  0  0  0  0  0  0  0  0
  141.7840   75.3310  220.9100 C   0  0  0  0  0  0  0  0  0  0  0  0
  142.2690   76.3970  220.1460 C   0  0  0  0  0  0  0  0  0  0  0  0
  141.9740   77.7050  220.4660 C   0  0  0  0  0  0  0  0  0  0  0  0
  141.1860   78.0130  221.5560 C   0  0  0  0  0  0  0  0  0  0  0  0
  140.7050   76.9530  222.3130 C   0  0  0  0  0  0  0  0  0  0  0  0
  141.0060   75.6300  221.9850 C   0  0  0  0  0  0  0  0  0  0  0  0
  140.6200   70.6920  220.8950 C   0  0  0  0  0  0  0  0  0  0  0  0
  139.9340   70.0070  222.0650 C   0  0  0  0  0  0  0  0  0  0  0  0
  136.3558   69.4406  225.9948 H   0  0  0  0  0  0  0  0  0  0  0  0
  135.0283   69.7577  224.8269 H   0  0  0  0  0  0  0  0  0  0  0  0
  135.8639   68.1676  224.8269 H   0  0  0  0  0  0  0  0  0  0  0  0
  136.7685   69.3579  222.9869 H   0  0  0  0  0  0  0  0  0  0  0  0
  136.9250   70.8737  223.9599 H   0  0  0  0  0  0  0  0  0  0  0  0
  141.0647   72.4780  224.8674 H   0  0  0  0  0  0  0  0  0  0  0  0
  142.0810   73.0552  227.0511 H   0  0  0  0  0  0  0  0  0  0  0  0
  141.5624   71.6638  229.0551 H   0  0  0  0  0  0  0  0  0  0  0  0
  140.0439   69.7109  228.8775 H   0  0  0  0  0  0  0  0  0  0  0  0
  139.0376   69.1513  226.6802 H   0  0  0  0  0  0  0  0  0  0  0  0
  140.6999   71.5534  223.3463 H   0  0  0  0  0  0  0  0  0  0  0  0
  137.7820   71.8877  223.2016 H   0  0  0  0  0  0  0  0  0  0  0  0
  139.1224   73.0715  222.9613 H   0  0  0  0  0  0  0  0  0  0  0  0
  137.8728   71.1591  220.9773 H   0  0  0  0  0  0  0  0  0  0  0  0
  138.1264   72.9631  220.8790 H   0  0  0  0  0  0  0  0  0  0  0  0
  141.8859   71.6470  218.7701 H   0  0  0  0  0  0  0  0  0  0  0  0
  141.7350   73.0820  216.6360 H   0  0  0  0  0  0  0  0  0  0  0  0
  140.0650   73.0200  217.1030 H   0  0  0  0  0  0  0  0  0  0  0  0
  141.8273   74.5842  218.2731 H   0  0  0  0  0  0  0  0  0  0  0  0
  144.8651   73.1370  217.3984 H   0  0  0  0  0  0  0  0  0  0  0  0
  146.9099   72.8409  218.7310 H   0  0  0  0  0  0  0  0  0  0  0  0
  146.8695   73.0736  221.2100 H   0  0  0  0  0  0  0  0  0  0  0  0
  144.6872   73.6211  222.3081 H   0  0  0  0  0  0  0  0  0  0  0  0
  141.4760   73.4054  221.1120 H   0  0  0  0  0  0  0  0  0  0  0  0
  142.9002   76.1871  219.2699 H   0  0  0  0  0  0  0  0  0  0  0  0
  142.3738   78.5175  219.8414 H   0  0  0  0  0  0  0  0  0  0  0  0
  140.9486   79.0555  221.8146 H   0  0  0  0  0  0  0  0  0  0  0  0
  140.0735   77.1602  223.1895 H   0  0  0  0  0  0  0  0  0  0  0  0
  140.6071   74.8150  222.6067 H   0  0  0  0  0  0  0  0  0  0  0  0
  140.7423   69.9808  220.0648 H   0  0  0  0  0  0  0  0  0  0  0  0
  141.6153   71.0538  221.1925 H   0  0  0  0  0  0  0  0  0  0  0  0
  138.9559   69.6156  221.7487 H   0  0  0  0  0  0  0  0  0  0  0  0
  140.5421   69.1657  222.4289 H   0  0  0  0  0  0  0  0  0  0  0  0
  1  2  1  0
  2  3  1  0
  3  4  2  0
  3  5  1  0
  5  6  1  0
  6  7  2  0
  7  8  1  0
  8  9  2  0
  9 10  1  0
 10 11  2  0
  5 12  1  0
 12 13  1  0
 13 14  1  0
 14 15  1  0
 15 16  1  0
 16 17  2  0
 16 18  1  0
 18 19  1  0
 18 20  1  0
 20 21  1  0
 21 22  2  0
 22 23  1  0
 23 24  2  0
 24 25  1  0
 25 26  2  0
 26 27  1  0
 27 28  1  0
 28 29  2  0
 29 30  1  0
 30 31  2  0
 31 32  1  0
 32 33  2  0
 15 34  1  0
 34 35  1  0
 11  6  1  0
 35 12  1  0
 27 20  1  0
 33 28  1  0
 26 21  1  0
  1 36  1  0
  1 37  1  0
  1 38  1  0
  2 39  1  0
  2 40  1  0
  7 41  1  0
  8 42  1  0
  9 43  1  0
 10 44  1  0
 11 45  1  0
 12 46  1  0
 13 47  1  0
 13 48  1  0
 14 49  1  0
 14 50  1  0
 18 51  1  1
 19 52  1  0
 19 53  1  0
 20 54  1  6
 22 55  1  0
 23 56  1  0
 24 57  1  0
 25 58  1  0
 27 59  1  1
 29 60  1  0
 30 61  1  0
 31 62  1  0
 32 63  1  0
 33 64  1  0
 34 65  1  0
 34 66  1  0
 35 67  1  0
 35 68  1  0
M  END
>  <smiles>  (121) 
CCC(=O)N(c1ccccc1)C1CCN(C(=O)[C@@H](N)C2c3ccccc3C2c2ccccc2)CC1

>  <score_type>  (121) 
oracle

>  <origin>  (121) 
autodockgpu

>  <m_score__min__energy>  (121) 
-9.1199999999999992

>  <m_primary>  (121) 
energy

>  <rmsd>  (121) 
7.22024817922742

>  <m_score__min__rmsd>  (121) 
7.22024817922742

>  <meeko>  (121) 
{"free_energy": -7.89, "intermolecular_energy": -10.28, "internal_energy": -3.34, "cluster_size": 5, "cluster_id": 4, "rank_in_cluster": 5}

>  <energy>  (121) 
-8.36

>  <cluster_rmsd>  (121) 
0.47

>  <cluster>  (121) 
3

$$$$

     RDKit          3D

 68 72  0  0  0  0  0  0  0  0999 V2000
  138.1020   80.5200  224.0700 C   0  0  0  0  0  0  0  0  0  0  0  0
  138.0140   79.9280  222.6890 C   0  0  0  0  0  0  0  0  0  0  0  0
  138.1770   78.4440  222.7300 C   0  0  0  0  0  0  0  0  0  0  0  0
  137.1360   77.7630  222.8240 O   0  0  0  0  0  0  0  0  0  0  0  0
  139.4880   77.9010  222.6600 N   0  0  0  0  0  0  0  0  0  0  0  0
  140.6420   78.7520  222.6950 C   0  0  0  0  0  0  0  0  0  0  0  0
  141.3140   79.0450  223.8620 C   0  0  0  0  0  0  0  0  0  0  0  0
  142.4150   79.8660  223.8430 C   0  0  0  0  0  0  0  0  0  0  0  0
  142.8450   80.4020  222.6280 C   0  0  0  0  0  0  0  0  0  0  0  0
  142.1830   80.1190  221.4520 C   0  0  0  0  0  0  0  0  0  0  0  0
  141.0820   79.2930  221.4920 C   0  0  0  0  0  0  0  0  0  0  0  0
  139.6110   76.4630  222.5500 C   0  0  0  0  0  0  0  0  0  0  0  0
  141.0380   76.0060  222.3420 C   0  0  0  0  0  0  0  0  0  0  0  0
  141.0920   74.8650  221.3490 C   0  0  0  0  0  0  0  0  0  0  0  0
  140.0330   73.8990  221.5340 N   0  0  0  0  0  0  0  0  0  0  0  0
  140.3500   72.5250  221.6560 C   0  0  0  0  0  0  0  0  0  0  0  0
  141.5670   72.2100  221.5950 O   0  0  0  0  0  0  0  0  0  0  0  0
  139.3630   71.4410  221.8470 C   0  0  1  0  0  0  0  0  0  0  0  0
  139.9790   70.1650  221.6740 N   0  0  0  0  0  0  0  0  0  0  0  0
  138.8450   71.6110  223.2960 C   0  0  2  0  0  0  0  0  0  0  0  0
  139.8060   71.2270  224.3110 C   0  0  0  0  0  0  0  0  0  0  0  0
  140.9920   71.4780  224.9930 C   0  0  0  0  0  0  0  0  0  0  0  0
  141.4380   70.6260  225.9820 C   0  0  0  0  0  0  0  0  0  0  0  0
  140.7300   69.4940  226.3330 C   0  0  0  0  0  0  0  0  0  0  0  0
  139.5480   69.2480  225.6510 C   0  0  0  0  0  0  0  0  0  0  0  0
  139.1030   70.1180  224.6490 C   0  0  0  0  0  0  0  0  0  0  0  0
  138.0650   70.3980  223.6710 C   0  0  1  0  0  0  0  0  0  0  0  0
  136.7250   70.7070  224.2160 C   0  0  0  0  0  0  0  0  0  0  0  0
  136.2130   71.9780  223.9340 C   0  0  0  0  0  0  0  0  0  0  0  0
  134.9710   72.3700  224.3850 C   0  0  0  0  0  0  0  0  0  0  0  0
  134.1820   71.5210  225.1340 C   0  0  0  0  0  0  0  0  0  0  0  0
  134.6920   70.2600  225.4130 C   0  0  0  0  0  0  0  0  0  0  0  0
  135.9510   69.8670  224.9540 C   0  0  0  0  0  0  0  0  0  0  0  0
  138.6750   74.4190  221.5830 C   0  0  0  0  0  0  0  0  0  0  0  0
  138.7480   75.9290  221.4310 C   0  0  0  0  0  0  0  0  0  0  0  0
  137.9835   79.7230  224.8188 H   0  0  0  0  0  0  0  0  0  0  0  0
  139.0818   81.0028  224.2002 H   0  0  0  0  0  0  0  0  0  0  0  0
  137.3050   81.2669  224.2002 H   0  0  0  0  0  0  0  0  0  0  0  0
  137.0322   80.1700  222.2561 H   0  0  0  0  0  0  0  0  0  0  0  0
  138.8219   80.3519  222.0745 H   0  0  0  0  0  0  0  0  0  0  0  0
  140.9665   78.6187  224.8146 H   0  0  0  0  0  0  0  0  0  0  0  0
  142.9517   80.0984  224.7746 H   0  0  0  0  0  0  0  0  0  0  0  0
  143.7259   81.0605  222.6084 H   0  0  0  0  0  0  0  0  0  0  0  0
  142.5283   80.5456  220.4987 H   0  0  0  0  0  0  0  0  0  0  0  0
  140.5443   79.0584  220.5615 H   0  0  0  0  0  0  0  0  0  0  0  0
  139.2665   76.0575  223.5128 H   0  0  0  0  0  0  0  0  0  0  0  0
  141.6349   76.8470  221.9593 H   0  0  0  0  0  0  0  0  0  0  0  0
  141.4432   75.6588  223.3039 H   0  0  0  0  0  0  0  0  0  0  0  0
  141.0124   75.2809  220.3338 H   0  0  0  0  0  0  0  0  0  0  0  0
  142.0453   74.3393  221.5065 H   0  0  0  0  0  0  0  0  0  0  0  0
  138.5450   71.4954  221.1135 H   0  0  0  0  0  0  0  0  0  0  0  0
  140.2530   69.7330  222.5680 H   0  0  0  0  0  0  0  0  0  0  0  0
  140.7700   70.2840  221.0050 H   0  0  0  0  0  0  0  0  0  0  0  0
  138.4375   72.6327  223.2823 H   0  0  0  0  0  0  0  0  0  0  0  0
  141.5837   72.3700  224.7397 H   0  0  0  0  0  0  0  0  0  0  0  0
  142.3796   70.8539  226.5030 H   0  0  0  0  0  0  0  0  0  0  0  0
  141.0886   68.8154  227.1209 H   0  0  0  0  0  0  0  0  0  0  0  0
  138.9524   68.3576  225.9007 H   0  0  0  0  0  0  0  0  0  0  0  0
  137.7591   69.6324  222.9428 H   0  0  0  0  0  0  0  0  0  0  0  0
  136.8152   72.6803  223.3389 H   0  0  0  0  0  0  0  0  0  0  0  0
  134.6020   73.3778  224.1435 H   0  0  0  0  0  0  0  0  0  0  0  0
  133.1901   71.8304  225.4951 H   0  0  0  0  0  0  0  0  0  0  0  0
  134.0918   69.5559  226.0080 H   0  0  0  0  0  0  0  0  0  0  0  0
  136.3233   68.8600  225.1937 H   0  0  0  0  0  0  0  0  0  0  0  0
  138.0803   73.9891  220.7635 H   0  0  0  0  0  0  0  0  0  0  0  0
  138.1965   74.1524  222.5369 H   0  0  0  0  0  0  0  0  0  0  0  0
  139.1938   76.1864  220.4589 H   0  0  0  0  0  0  0  0  0  0  0  0
  137.7412   76.3696  221.4776 H   0  0  0  0  0  0  0  0  0  0  0  0
  1  2  1  0
  2  3  1  0
  3  4  2  0
  3  5  1  0
  5  6  1  0
  6  7  2  0
  7  8  1  0
  8  9  2  0
  9 10  1  0
 10 11  2  0
  5 12  1  0
 12 13  1  0
 13 14  1  0
 14 15  1  0
 15 16  1  0
 16 17  2  0
 16 18  1  0
 18 19  1  0
 18 20  1  0
 20 21  1  0
 21 22  2  0
 22 23  1  0
 23 24  2  0
 24 25  1  0
 25 26  2  0
 26 27  1  0
 27 28  1  0
 28 29  2  0
 29 30  1  0
 30 31  2  0
 31 32  1  0
 32 33  2  0
 15 34  1  0
 34 35  1  0
 11  6  1  0
 35 12  1  0
 27 20  1  0
 33 28  1  0
 26 21  1  0
  1 36  1  0
  1 37  1  0
  1 38  1  0
  2 39  1  0
  2 40  1  0
  7 41  1  0
  8 42  1  0
  9 43  1  0
 10 44  1  0
 11 45  1  0
 12 46  1  0
 13 47  1  0
 13 48  1  0
 14 49  1  0
 14 50  1  0
 18 51  1  6
 19 52  1  0
 19 53  1  0
 20 54  1  1
 22 55  1  0
 23 56  1  0
 24 57  1  0
 25 58  1  0
 27 59  1  6
 29 60  1  0
 30 61  1  0
 31 62  1  0
 32 63  1  0
 33 64  1  0
 34 65  1  0
 34 66  1  0
 35 67  1  0
 35 68  1  0
M  END
>  <smiles>  (122) 
CCC(=O)N(c1ccccc1)C1CCN(C(=O)[C@@H](N)C2c3ccccc3C2c2ccccc2)CC1

>  <score_type>  (122) 
oracle

>  <origin>  (122) 
autodockgpu

>  <m_score__min__energy>  (122) 
-9.1199999999999992

>  <m_primary>  (122) 
energy

>  <rmsd>  (122) 
2.440029005757401

>  <m_score__min__rmsd>  (122) 
2.440029005757401

>  <meeko>  (122) 
{"free_energy": -7.9, "intermolecular_energy": -10.29, "internal_energy": -3.11, "cluster_size": 1, "cluster_id": 6, "rank_in_cluster": 1}

>  <energy>  (122) 
-8.35

>  <cluster_rmsd>  (122) 
0.96

>  <cluster>  (122) 
3

$$$$

     RDKit          3D

 68 72  0  0  0  0  0  0  0  0999 V2000
  136.1940   72.7070  223.1280 C   0  0  0  0  0  0  0  0  0  0  0  0
  136.4960   71.2640  222.8190 C   0  0  0  0  0  0  0  0  0  0  0  0
  137.8040   71.1300  222.1120 C   0  0  0  0  0  0  0  0  0  0  0  0
  137.8050   70.4930  221.0390 O   0  0  0  0  0  0  0  0  0  0  0  0
  138.9570   71.7260  222.6920 N   0  0  0  0  0  0  0  0  0  0  0  0
  139.5820   71.1520  223.8480 C   0  0  0  0  0  0  0  0  0  0  0  0
  140.3870   71.8800  224.6960 C   0  0  0  0  0  0  0  0  0  0  0  0
  140.9640   71.2840  225.7910 C   0  0  0  0  0  0  0  0  0  0  0  0
  140.7250   69.9300  226.0340 C   0  0  0  0  0  0  0  0  0  0  0  0
  139.9220   69.1880  225.1940 C   0  0  0  0  0  0  0  0  0  0  0  0
  139.3530   69.8040  224.1020 C   0  0  0  0  0  0  0  0  0  0  0  0
  139.4680   72.9310  222.0740 C   0  0  0  0  0  0  0  0  0  0  0  0
  138.8590   73.2030  220.7160 C   0  0  0  0  0  0  0  0  0  0  0  0
  139.9080   73.7240  219.7570 C   0  0  0  0  0  0  0  0  0  0  0  0
  140.8070   74.6800  220.3620 N   0  0  0  0  0  0  0  0  0  0  0  0
  141.0150   75.9360  219.7430 C   0  0  0  0  0  0  0  0  0  0  0  0
  140.3890   76.1590  218.6740 O   0  0  0  0  0  0  0  0  0  0  0  0
  141.9060   76.9970  220.2570 C   0  0  1  0  0  0  0  0  0  0  0  0
  142.5780   77.6530  219.1830 N   0  0  0  0  0  0  0  0  0  0  0  0
  140.9780   77.9800  221.0110 C   0  0  2  0  0  0  0  0  0  0  0  0
  141.6880   78.9990  221.7580 C   0  0  0  0  0  0  0  0  0  0  0  0
  142.4690   80.1500  221.7690 C   0  0  0  0  0  0  0  0  0  0  0  0
  142.8910   80.7120  222.9570 C   0  0  0  0  0  0  0  0  0  0  0  0
  142.5580   80.1590  224.1760 C   0  0  0  0  0  0  0  0  0  0  0  0
  141.7790   79.0110  224.1600 C   0  0  0  0  0  0  0  0  0  0  0  0
  141.3550   78.4470  222.9510 C   0  0  0  0  0  0  0  0  0  0  0  0
  140.6030   77.3770  222.3200 C   0  0  1  0  0  0  0  0  0  0  0  0
  139.1450   77.3730  222.5690 C   0  0  0  0  0  0  0  0  0  0  0  0
  138.5350   76.1210  222.6980 C   0  0  0  0  0  0  0  0  0  0  0  0
  137.1830   76.0000  222.9390 C   0  0  0  0  0  0  0  0  0  0  0  0
  136.3770   77.1130  223.0620 C   0  0  0  0  0  0  0  0  0  0  0  0
  136.9840   78.3550  222.9330 C   0  0  0  0  0  0  0  0  0  0  0  0
  138.3540   78.4730  222.6900 C   0  0  0  0  0  0  0  0  0  0  0  0
  141.4580   74.2740  221.5980 C   0  0  0  0  0  0  0  0  0  0  0  0
  140.9730   72.8770  221.9440 C   0  0  0  0  0  0  0  0  0  0  0  0
  136.1641   72.8500  224.2183 H   0  0  0  0  0  0  0  0  0  0  0  0
  136.9778   73.3464  222.6957 H   0  0  0  0  0  0  0  0  0  0  0  0
  135.2196   72.9784  222.6957 H   0  0  0  0  0  0  0  0  0  0  0  0
  136.5359   70.6955  223.7599 H   0  0  0  0  0  0  0  0  0  0  0  0
  135.7028   70.8725  222.1651 H   0  0  0  0  0  0  0  0  0  0  0  0
  140.5691   72.9460  224.4950 H   0  0  0  0  0  0  0  0  0  0  0  0
  141.6064   71.8663  226.4680 H   0  0  0  0  0  0  0  0  0  0  0  0
  141.1846   69.4477  226.9093 H   0  0  0  0  0  0  0  0  0  0  0  0
  139.7390   68.1217  225.3929 H   0  0  0  0  0  0  0  0  0  0  0  0
  138.7105   69.2238  223.4233 H   0  0  0  0  0  0  0  0  0  0  0  0
  139.1801   73.7566  222.7415 H   0  0  0  0  0  0  0  0  0  0  0  0
  138.4352   72.2699  220.3163 H   0  0  0  0  0  0  0  0  0  0  0  0
  138.0706   73.9621  220.8262 H   0  0  0  0  0  0  0  0  0  0  0  0
  140.4991   72.8725  219.3890 H   0  0  0  0  0  0  0  0  0  0  0  0
  139.3790   74.2419  218.9434 H   0  0  0  0  0  0  0  0  0  0  0  0
  142.6899   76.5931  220.9145 H   0  0  0  0  0  0  0  0  0  0  0  0
  142.2830   77.3040  218.2600 H   0  0  0  0  0  0  0  0  0  0  0  0
  143.6030   77.5720  219.3530 H   0  0  0  0  0  0  0  0  0  0  0  0
  140.2581   78.2695  220.2313 H   0  0  0  0  0  0  0  0  0  0  0  0
  142.7547   80.6196  220.8162 H   0  0  0  0  0  0  0  0  0  0  0  0
  143.5076   81.6226  222.9310 H   0  0  0  0  0  0  0  0  0  0  0  0
  142.8958   80.6092  225.1211 H   0  0  0  0  0  0  0  0  0  0  0  0
  141.4907   78.5376  225.1102 H   0  0  0  0  0  0  0  0  0  0  0  0
  140.8024   76.3257  222.5748 H   0  0  0  0  0  0  0  0  0  0  0  0
  139.1479   75.2123  222.6051 H   0  0  0  0  0  0  0  0  0  0  0  0
  136.7389   74.9982  223.0349 H   0  0  0  0  0  0  0  0  0  0  0  0
  135.2979   77.0202  223.2543 H   0  0  0  0  0  0  0  0  0  0  0  0
  136.3729   79.2651  223.0241 H   0  0  0  0  0  0  0  0  0  0  0  0
  138.8015   79.4733  222.5947 H   0  0  0  0  0  0  0  0  0  0  0  0
  142.5494   74.2675  221.4609 H   0  0  0  0  0  0  0  0  0  0  0  0
  141.2133   74.9762  222.4085 H   0  0  0  0  0  0  0  0  0  0  0  0
  141.2550   72.1744  221.1460 H   0  0  0  0  0  0  0  0  0  0  0  0
  141.4285   72.5334  222.8845 H   0  0  0  0  0  0  0  0  0  0  0  0
  1  2  1  0
  2  3  1  0
  3  4  2  0
  3  5  1  0
  5  6  1  0
  6  7  2  0
  7  8  1  0
  8  9  2  0
  9 10  1  0
 10 11  2  0
  5 12  1  0
 12 13  1  0
 13 14  1  0
 14 15  1  0
 15 16  1  0
 16 17  2  0
 16 18  1  0
 18 19  1  0
 18 20  1  0
 20 21  1  0
 21 22  2  0
 22 23  1  0
 23 24  2  0
 24 25  1  0
 25 26  2  0
 26 27  1  0
 27 28  1  0
 28 29  2  0
 29 30  1  0
 30 31  2  0
 31 32  1  0
 32 33  2  0
 15 34  1  0
 34 35  1  0
 11  6  1  0
 35 12  1  0
 27 20  1  0
 33 28  1  0
 26 21  1  0
  1 36  1  0
  1 37  1  0
  1 38  1  0
  2 39  1  0
  2 40  1  0
  7 41  1  0
  8 42  1  0
  9 43  1  0
 10 44  1  0
 11 45  1  0
 12 46  1  0
 13 47  1  0
 13 48  1  0
 14 49  1  0
 14 50  1  0
 18 51  1  1
 19 52  1  0
 19 53  1  0
 20 54  1  6
 22 55  1  0
 23 56  1  0
 24 57  1  0
 25 58  1  0
 27 59  1  6
 29 60  1  0
 30 61  1  0
 31 62  1  0
 32 63  1  0
 33 64  1  0
 34 65  1  0
 34 66  1  0
 35 67  1  0
 35 68  1  0
M  END
>  <smiles>  (123) 
CCC(=O)N(c1ccccc1)C1CCN(C(=O)[C@@H](N)C2c3ccccc3C2c2ccccc2)CC1

>  <score_type>  (123) 
oracle

>  <origin>  (123) 
autodockgpu

>  <m_score__min__energy>  (123) 
-9.1199999999999992

>  <m_primary>  (123) 
energy

>  <rmsd>  (123) 
8.643029030660529

>  <m_score__min__rmsd>  (123) 
8.643029030660529

>  <meeko>  (123) 
{"free_energy": -7.65, "intermolecular_energy": -10.03, "internal_energy": -3.6, "cluster_size": 30, "cluster_id": 3, "rank_in_cluster": 25}

>  <energy>  (123) 
-8.34

>  <cluster_rmsd>  (123) 
0.79

>  <cluster>  (123) 
3

$$$$

     RDKit          3D

 68 72  0  0  0  0  0  0  0  0999 V2000
  138.4800   67.3460  222.3580 C   0  0  0  0  0  0  0  0  0  0  0  0
  139.0110   68.7540  222.4050 C   0  0  0  0  0  0  0  0  0  0  0  0
  138.4860   69.4870  223.5950 C   0  0  0  0  0  0  0  0  0  0  0  0
  137.3610   69.1520  224.0150 O   0  0  0  0  0  0  0  0  0  0  0  0
  139.2870   70.5090  224.1720 N   0  0  0  0  0  0  0  0  0  0  0  0
  139.8840   70.3370  225.4650 C   0  0  0  0  0  0  0  0  0  0  0  0
  140.0600   69.0990  226.0430 C   0  0  0  0  0  0  0  0  0  0  0  0
  140.6380   68.9870  227.2850 C   0  0  0  0  0  0  0  0  0  0  0  0
  141.0440   70.1420  227.9540 C   0  0  0  0  0  0  0  0  0  0  0  0
  140.8750   71.3890  227.3880 C   0  0  0  0  0  0  0  0  0  0  0  0
  140.2940   71.4800  226.1430 C   0  0  0  0  0  0  0  0  0  0  0  0
  139.4730   71.7240  223.4070 C   0  0  0  0  0  0  0  0  0  0  0  0
  138.2870   72.0570  222.5290 C   0  0  0  0  0  0  0  0  0  0  0  0
  138.7490   72.5890  221.1900 C   0  0  0  0  0  0  0  0  0  0  0  0
  139.8620   73.5050  221.2950 N   0  0  0  0  0  0  0  0  0  0  0  0
  139.7840   74.7770  220.6800 C   0  0  0  0  0  0  0  0  0  0  0  0
  138.7240   75.0500  220.0610 O   0  0  0  0  0  0  0  0  0  0  0  0
  140.8500   75.8010  220.7130 C   0  0  1  0  0  0  0  0  0  0  0  0
  140.8160   76.5990  219.5310 N   0  0  0  0  0  0  0  0  0  0  0  0
  140.5540   76.6590  221.9670 C   0  0  2  0  0  0  0  0  0  0  0  0
  139.1590   76.6630  222.3580 C   0  0  0  0  0  0  0  0  0  0  0  0
  138.0630   75.9920  222.8910 C   0  0  0  0  0  0  0  0  0  0  0  0
  136.8390   76.6170  223.0170 C   0  0  0  0  0  0  0  0  0  0  0  0
  136.6520   77.9250  222.6220 C   0  0  0  0  0  0  0  0  0  0  0  0
  137.7480   78.5910  222.0920 C   0  0  0  0  0  0  0  0  0  0  0  0
  138.9860   77.9490  221.9670 C   0  0  0  0  0  0  0  0  0  0  0  0
  140.3700   78.0770  221.5450 C   0  0  1  0  0  0  0  0  0  0  0  0
  141.1990   79.0300  222.3130 C   0  0  0  0  0  0  0  0  0  0  0  0
  140.5140   79.9770  223.0810 C   0  0  0  0  0  0  0  0  0  0  0  0
  141.1860   80.9090  223.8430 C   0  0  0  0  0  0  0  0  0  0  0  0
  142.5650   80.9440  223.8770 C   0  0  0  0  0  0  0  0  0  0  0  0
  143.2430   80.0030  223.1140 C   0  0  0  0  0  0  0  0  0  0  0  0
  142.5580   79.0600  222.3440 C   0  0  0  0  0  0  0  0  0  0  0  0
  141.0210   73.0420  222.0450 C   0  0  0  0  0  0  0  0  0  0  0  0
  140.7180   71.6440  222.5550 C   0  0  0  0  0  0  0  0  0  0  0  0
  138.3392   66.9728  223.3831 H   0  0  0  0  0  0  0  0  0  0  0  0
  137.5160   67.3352  221.8283 H   0  0  0  0  0  0  0  0  0  0  0  0
  139.1968   66.7013  221.8283 H   0  0  0  0  0  0  0  0  0  0  0  0
  140.1092   68.7222  222.4584 H   0  0  0  0  0  0  0  0  0  0  0  0
  138.6832   69.2815  221.4971 H   0  0  0  0  0  0  0  0  0  0  0  0
  139.7360   68.1946  225.5073 H   0  0  0  0  0  0  0  0  0  0  0  0
  140.7788   67.9983  227.7461 H   0  0  0  0  0  0  0  0  0  0  0  0
  141.5062   70.0572  228.9486 H   0  0  0  0  0  0  0  0  0  0  0  0
  141.1987   72.2945  227.9220 H   0  0  0  0  0  0  0  0  0  0  0  0
  140.1526   72.4675  225.6796 H   0  0  0  0  0  0  0  0  0  0  0  0
  139.5792   72.5311  224.1468 H   0  0  0  0  0  0  0  0  0  0  0  0
  137.6883   71.1480  222.3699 H   0  0  0  0  0  0  0  0  0  0  0  0
  137.6819   72.8284  223.0277 H   0  0  0  0  0  0  0  0  0  0  0  0
  139.0539   71.7387  220.5623 H   0  0  0  0  0  0  0  0  0  0  0  0
  137.9077   73.1455  220.7513 H   0  0  0  0  0  0  0  0  0  0  0  0
  141.8524   75.3501  220.7567 H   0  0  0  0  0  0  0  0  0  0  0  0
  139.8900   76.6000  219.0800 H   0  0  0  0  0  0  0  0  0  0  0  0
  141.5860   76.2750  218.9070 H   0  0  0  0  0  0  0  0  0  0  0  0
  141.3232   76.3156  222.6744 H   0  0  0  0  0  0  0  0  0  0  0  0
  138.1737   74.9473  223.2170 H   0  0  0  0  0  0  0  0  0  0  0  0
  135.9923   76.0585  223.4427 H   0  0  0  0  0  0  0  0  0  0  0  0
  135.6747   78.4198  222.7228 H   0  0  0  0  0  0  0  0  0  0  0  0
  137.6429   79.6363  221.7660 H   0  0  0  0  0  0  0  0  0  0  0  0
  140.6177   78.4409  220.5369 H   0  0  0  0  0  0  0  0  0  0  0  0
  139.4140   79.9783  223.0770 H   0  0  0  0  0  0  0  0  0  0  0  0
  140.6125   81.6378  224.4345 H   0  0  0  0  0  0  0  0  0  0  0  0
  143.1046   81.6865  224.4833 H   0  0  0  0  0  0  0  0  0  0  0  0
  144.3430   79.9999  223.1158 H   0  0  0  0  0  0  0  0  0  0  0  0
  143.1282   78.3287  221.7522 H   0  0  0  0  0  0  0  0  0  0  0  0
  141.9047   73.0178  221.3904 H   0  0  0  0  0  0  0  0  0  0  0  0
  141.2296   73.7200  222.8857 H   0  0  0  0  0  0  0  0  0  0  0  0
  140.5481   70.9647  221.7067 H   0  0  0  0  0  0  0  0  0  0  0  0
  141.5630   71.2579  223.1440 H   0  0  0  0  0  0  0  0  0  0  0  0
  1  2  1  0
  2  3  1  0
  3  4  2  0
  3  5  1  0
  5  6  1  0
  6  7  2  0
  7  8  1  0
  8  9  2  0
  9 10  1  0
 10 11  2  0
  5 12  1  0
 12 13  1  0
 13 14  1  0
 14 15  1  0
 15 16  1  0
 16 17  2  0
 16 18  1  0
 18 19  1  0
 18 20  1  0
 20 21  1  0
 21 22  2  0
 22 23  1  0
 23 24  2  0
 24 25  1  0
 25 26  2  0
 26 27  1  0
 27 28  1  0
 28 29  2  0
 29 30  1  0
 30 31  2  0
 31 32  1  0
 32 33  2  0
 15 34  1  0
 34 35  1  0
 11  6  1  0
 35 12  1  0
 27 20  1  0
 33 28  1  0
 26 21  1  0
  1 36  1  0
  1 37  1  0
  1 38  1  0
  2 39  1  0
  2 40  1  0
  7 41  1  0
  8 42  1  0
  9 43  1  0
 10 44  1  0
 11 45  1  0
 12 46  1  0
 13 47  1  0
 13 48  1  0
 14 49  1  0
 14 50  1  0
 18 51  1  1
 19 52  1  0
 19 53  1  0
 20 54  1  1
 22 55  1  0
 23 56  1  0
 24 57  1  0
 25 58  1  0
 27 59  1  6
 29 60  1  0
 30 61  1  0
 31 62  1  0
 32 63  1  0
 33 64  1  0
 34 65  1  0
 34 66  1  0
 35 67  1  0
 35 68  1  0
M  END
>  <smiles>  (124) 
CCC(=O)N(c1ccccc1)C1CCN(C(=O)[C@@H](N)C2c3ccccc3C2c2ccccc2)CC1

>  <score_type>  (124) 
oracle

>  <origin>  (124) 
autodockgpu

>  <m_score__min__energy>  (124) 
-9.1199999999999992

>  <m_primary>  (124) 
energy

>  <rmsd>  (124) 
7.657364787221234

>  <m_score__min__rmsd>  (124) 
7.657364787221234

>  <meeko>  (124) 
{"free_energy": -8.42, "intermolecular_energy": -10.8, "internal_energy": -3.05, "cluster_size": 30, "cluster_id": 3, "rank_in_cluster": 9}

>  <energy>  (124) 
-8.32

>  <cluster_rmsd>  (124) 
0.75

>  <cluster>  (124) 
3

$$$$

     RDKit          3D

 68 72  0  0  0  0  0  0  0  0999 V2000
  138.7080   68.4210  221.9780 C   0  0  0  0  0  0  0  0  0  0  0  0
  138.8110   68.1950  223.4640 C   0  0  0  0  0  0  0  0  0  0  0  0
  138.2440   69.3490  224.2230 C   0  0  0  0  0  0  0  0  0  0  0  0
  137.0150   69.3390  224.4340 O   0  0  0  0  0  0  0  0  0  0  0  0
  139.1250   70.3780  224.6550 N   0  0  0  0  0  0  0  0  0  0  0  0
  139.8030   70.2890  225.9150 C   0  0  0  0  0  0  0  0  0  0  0  0
  140.4360   71.3650  226.4960 C   0  0  0  0  0  0  0  0  0  0  0  0
  141.0730   71.2290  227.7050 C   0  0  0  0  0  0  0  0  0  0  0  0
  141.0700   69.9850  228.3400 C   0  0  0  0  0  0  0  0  0  0  0  0
  140.4410   68.8980  227.7710 C   0  0  0  0  0  0  0  0  0  0  0  0
  139.8080   69.0560  226.5580 C   0  0  0  0  0  0  0  0  0  0  0  0
  139.3060   71.5140  223.7760 C   0  0  0  0  0  0  0  0  0  0  0  0
  138.1390   71.7280  222.8370 C   0  0  0  0  0  0  0  0  0  0  0  0
  138.6280   72.1340  221.4630 C   0  0  0  0  0  0  0  0  0  0  0  0
  139.7180   73.0820  221.5050 N   0  0  0  0  0  0  0  0  0  0  0  0
  139.6310   74.2840  220.7630 C   0  0  0  0  0  0  0  0  0  0  0  0
  138.5830   74.4670  220.0910 O   0  0  0  0  0  0  0  0  0  0  0  0
  140.6720   75.3320  220.7200 C   0  0  1  0  0  0  0  0  0  0  0  0
  140.6010   76.0610  219.4960 N   0  0  0  0  0  0  0  0  0  0  0  0
  140.3770   76.2520  221.9290 C   0  0  2  0  0  0  0  0  0  0  0  0
  138.9690   76.3550  222.2550 C   0  0  0  0  0  0  0  0  0  0  0  0
  137.8110   75.7720  222.7600 C   0  0  0  0  0  0  0  0  0  0  0  0
  136.6240   76.4740  222.8090 C   0  0  0  0  0  0  0  0  0  0  0  0
  136.5360   77.7760  222.3610 C   0  0  0  0  0  0  0  0  0  0  0  0
  137.6930   78.3540  221.8590 C   0  0  0  0  0  0  0  0  0  0  0  0
  138.8930   77.6340  221.8130 C   0  0  0  0  0  0  0  0  0  0  0  0
  140.2990   77.6610  221.4500 C   0  0  1  0  0  0  0  0  0  0  0  0
  141.1520   78.5910  222.2220 C   0  0  0  0  0  0  0  0  0  0  0  0
  141.7920   79.6010  221.4970 C   0  0  0  0  0  0  0  0  0  0  0  0
  142.6040   80.5280  222.1160 C   0  0  0  0  0  0  0  0  0  0  0  0
  142.8180   80.4940  223.4780 C   0  0  0  0  0  0  0  0  0  0  0  0
  142.1810   79.4900  224.1970 C   0  0  0  0  0  0  0  0  0  0  0  0
  141.3590   78.5540  223.5660 C   0  0  0  0  0  0  0  0  0  0  0  0
  140.8640   72.7260  222.3290 C   0  0  0  0  0  0  0  0  0  0  0  0
  140.5770   71.3790  222.9700 C   0  0  0  0  0  0  0  0  0  0  0  0
  138.2587   69.4068  221.7873 H   0  0  0  0  0  0  0  0  0  0  0  0
  139.7123   68.3831  221.5309 H   0  0  0  0  0  0  0  0  0  0  0  0
  138.0778   67.6381  221.5309 H   0  0  0  0  0  0  0  0  0  0  0  0
  138.2553   67.2832  223.7282 H   0  0  0  0  0  0  0  0  0  0  0  0
  139.8735   68.0903  223.7290 H   0  0  0  0  0  0  0  0  0  0  0  0
  140.4314   72.3407  225.9880 H   0  0  0  0  0  0  0  0  0  0  0  0
  141.5793   72.0891  228.1675 H   0  0  0  0  0  0  0  0  0  0  0  0
  141.5774   69.8707  229.3092 H   0  0  0  0  0  0  0  0  0  0  0  0
  140.4446   67.9214  228.2771 H   0  0  0  0  0  0  0  0  0  0  0  0
  139.3010   68.1977  226.0929 H   0  0  0  0  0  0  0  0  0  0  0  0
  139.3723   72.3939  224.4328 H   0  0  0  0  0  0  0  0  0  0  0  0
  137.5651   70.7932  222.7548 H   0  0  0  0  0  0  0  0  0  0  0  0
  137.5033   72.5308  223.2387 H   0  0  0  0  0  0  0  0  0  0  0  0
  138.9686   71.2326  220.9324 H   0  0  0  0  0  0  0  0  0  0  0  0
  137.7882   72.6233  220.9480 H   0  0  0  0  0  0  0  0  0  0  0  0
  141.6853   74.9069  220.7713 H   0  0  0  0  0  0  0  0  0  0  0  0
  139.6580   76.0510  219.0830 H   0  0  0  0  0  0  0  0  0  0  0  0
  141.3410   75.6890  218.8620 H   0  0  0  0  0  0  0  0  0  0  0  0
  141.0922   75.8898  222.6821 H   0  0  0  0  0  0  0  0  0  0  0  0
  137.8422   74.7351  223.1259 H   0  0  0  0  0  0  0  0  0  0  0  0
  135.7267   75.9840  223.2149 H   0  0  0  0  0  0  0  0  0  0  0  0
  135.5880   78.3325  222.4002 H   0  0  0  0  0  0  0  0  0  0  0  0
  137.6673   79.3908  221.4925 H   0  0  0  0  0  0  0  0  0  0  0  0
  140.6118   77.9703  220.4418 H   0  0  0  0  0  0  0  0  0  0  0  0
  141.6445   79.6574  220.4084 H   0  0  0  0  0  0  0  0  0  0  0  0
  143.0899   81.3088  221.5124 H   0  0  0  0  0  0  0  0  0  0  0  0
  143.4661   81.2312  223.9746 H   0  0  0  0  0  0  0  0  0  0  0  0
  142.3273   79.4313  225.2857 H   0  0  0  0  0  0  0  0  0  0  0  0
  140.8701   77.7727  224.1665 H   0  0  0  0  0  0  0  0  0  0  0  0
  141.7669   72.6580  221.7043 H   0  0  0  0  0  0  0  0  0  0  0  0
  141.0327   73.4903  223.1019 H   0  0  0  0  0  0  0  0  0  0  0  0
  140.4467   70.6136  222.1907 H   0  0  0  0  0  0  0  0  0  0  0  0
  141.4127   71.0750  223.6174 H   0  0  0  0  0  0  0  0  0  0  0  0
  1  2  1  0
  2  3  1  0
  3  4  2  0
  3  5  1  0
  5  6  1  0
  6  7  2  0
  7  8  1  0
  8  9  2  0
  9 10  1  0
 10 11  2  0
  5 12  1  0
 12 13  1  0
 13 14  1  0
 14 15  1  0
 15 16  1  0
 16 17  2  0
 16 18  1  0
 18 19  1  0
 18 20  1  0
 20 21  1  0
 21 22  2  0
 22 23  1  0
 23 24  2  0
 24 25  1  0
 25 26  2  0
 26 27  1  0
 27 28  1  0
 28 29  2  0
 29 30  1  0
 30 31  2  0
 31 32  1  0
 32 33  2  0
 15 34  1  0
 34 35  1  0
 11  6  1  0
 35 12  1  0
 27 20  1  0
 33 28  1  0
 26 21  1  0
  1 36  1  0
  1 37  1  0
  1 38  1  0
  2 39  1  0
  2 40  1  0
  7 41  1  0
  8 42  1  0
  9 43  1  0
 10 44  1  0
 11 45  1  0
 12 46  1  0
 13 47  1  0
 13 48  1  0
 14 49  1  0
 14 50  1  0
 18 51  1  1
 19 52  1  0
 19 53  1  0
 20 54  1  1
 22 55  1  0
 23 56  1  0
 24 57  1  0
 25 58  1  0
 27 59  1  6
 29 60  1  0
 30 61  1  0
 31 62  1  0
 32 63  1  0
 33 64  1  0
 34 65  1  0
 34 66  1  0
 35 67  1  0
 35 68  1  0
M  END
>  <smiles>  (125) 
CCC(=O)N(c1ccccc1)C1CCN(C(=O)[C@@H](N)C2c3ccccc3C2c2ccccc2)CC1

>  <score_type>  (125) 
oracle

>  <origin>  (125) 
autodockgpu

>  <m_score__min__energy>  (125) 
-9.1199999999999992

>  <m_primary>  (125) 
energy

>  <rmsd>  (125) 
7.520249107891574

>  <m_score__min__rmsd>  (125) 
7.520249107891574

>  <meeko>  (125) 
{"free_energy": -8.46, "intermolecular_energy": -10.85, "internal_energy": -3.15, "cluster_size": 30, "cluster_id": 3, "rank_in_cluster": 6}

>  <energy>  (125) 
-8.32

>  <cluster_rmsd>  (125) 
0.83

>  <cluster>  (125) 
3

$$$$

     RDKit          3D

 68 72  0  0  0  0  0  0  0  0999 V2000
  139.5300   68.1240  220.9330 C   0  0  0  0  0  0  0  0  0  0  0  0
  139.9030   69.5460  220.6030 C   0  0  0  0  0  0  0  0  0  0  0  0
  139.0080   70.5120  221.3060 C   0  0  0  0  0  0  0  0  0  0  0  0
  137.7850   70.4220  221.0760 O   0  0  0  0  0  0  0  0  0  0  0  0
  139.5920   71.4660  222.1830 N   0  0  0  0  0  0  0  0  0  0  0  0
  139.7840   71.1690  223.5730 C   0  0  0  0  0  0  0  0  0  0  0  0
  140.6500   71.8830  224.3730 C   0  0  0  0  0  0  0  0  0  0  0  0
  140.7990   71.5600  225.6990 C   0  0  0  0  0  0  0  0  0  0  0  0
  140.0630   70.4980  226.2290 C   0  0  0  0  0  0  0  0  0  0  0  0
  139.1930   69.7740  225.4410 C   0  0  0  0  0  0  0  0  0  0  0  0
  139.0570   70.1140  224.1140 C   0  0  0  0  0  0  0  0  0  0  0  0
  139.9810   72.7420  221.6210 C   0  0  0  0  0  0  0  0  0  0  0  0
  139.3550   73.0060  220.2690 C   0  0  0  0  0  0  0  0  0  0  0  0
  140.3500   73.6720  219.3430 C   0  0  0  0  0  0  0  0  0  0  0  0
  141.1430   74.6890  219.9960 N   0  0  0  0  0  0  0  0  0  0  0  0
  141.2230   75.9850  219.4310 C   0  0  0  0  0  0  0  0  0  0  0  0
  140.5850   76.1860  218.3660 O   0  0  0  0  0  0  0  0  0  0  0  0
  141.9970   77.1090  219.9980 C   0  0  1  0  0  0  0  0  0  0  0  0
  142.5890   77.8860  218.9570 N   0  0  0  0  0  0  0  0  0  0  0  0
  140.9720   77.9480  220.7990 C   0  0  2  0  0  0  0  0  0  0  0  0
  141.5690   79.0160  221.5750 C   0  0  0  0  0  0  0  0  0  0  0  0
  142.2080   80.2510  221.6200 C   0  0  0  0  0  0  0  0  0  0  0  0
  142.5800   80.8170  222.8220 C   0  0  0  0  0  0  0  0  0  0  0  0
  142.3350   80.1840  224.0240 C   0  0  0  0  0  0  0  0  0  0  0  0
  141.6970   78.9530  223.9750 C   0  0  0  0  0  0  0  0  0  0  0  0
  141.3230   78.3870  222.7500 C   0  0  0  0  0  0  0  0  0  0  0  0
  140.6920   77.2580  222.0900 C   0  0  1  0  0  0  0  0  0  0  0  0
  139.2490   77.0720  222.3550 C   0  0  0  0  0  0  0  0  0  0  0  0
  138.7580   75.7670  222.2590 C   0  0  0  0  0  0  0  0  0  0  0  0
  137.4310   75.4770  222.4940 C   0  0  0  0  0  0  0  0  0  0  0  0
  136.5330   76.4680  222.8340 C   0  0  0  0  0  0  0  0  0  0  0  0
  137.0220   77.7640  222.9290 C   0  0  0  0  0  0  0  0  0  0  0  0
  138.3680   78.0520  222.6900 C   0  0  0  0  0  0  0  0  0  0  0  0
  141.8240   74.3010  221.2210 C   0  0  0  0  0  0  0  0  0  0  0  0
  141.4830   72.8480  221.5040 C   0  0  0  0  0  0  0  0  0  0  0  0
  139.4969   67.9977  222.0252 H   0  0  0  0  0  0  0  0  0  0  0  0
  138.5417   67.8960  220.5074 H   0  0  0  0  0  0  0  0  0  0  0  0
  140.2792   67.4402  220.5074 H   0  0  0  0  0  0  0  0  0  0  0  0
  140.9423   69.7266  220.9147 H   0  0  0  0  0  0  0  0  0  0  0  0
  139.7941   69.6936  219.5184 H   0  0  0  0  0  0  0  0  0  0  0  0
  141.2257   72.7174  223.9461 H   0  0  0  0  0  0  0  0  0  0  0  0
  141.4900   72.1310  226.3365 H   0  0  0  0  0  0  0  0  0  0  0  0
  140.1789   70.2351  227.2908 H   0  0  0  0  0  0  0  0  0  0  0  0
  138.6172   68.9386  225.8659 H   0  0  0  0  0  0  0  0  0  0  0  0
  138.3659   69.5451  223.4746 H   0  0  0  0  0  0  0  0  0  0  0  0
  139.6070   73.5052  222.3194 H   0  0  0  0  0  0  0  0  0  0  0  0
  139.0325   72.0516  219.8272 H   0  0  0  0  0  0  0  0  0  0  0  0
  138.4915   73.6743  220.4020 H   0  0  0  0  0  0  0  0  0  0  0  0
  141.0275   72.9019  218.9456 H   0  0  0  0  0  0  0  0  0  0  0  0
  139.7749   74.1670  218.5466 H   0  0  0  0  0  0  0  0  0  0  0  0
  142.8228   76.7602  220.6356 H   0  0  0  0  0  0  0  0  0  0  0  0
  142.3070   77.5710  218.0190 H   0  0  0  0  0  0  0  0  0  0  0  0
  143.6200   77.8850  219.1080 H   0  0  0  0  0  0  0  0  0  0  0  0
  140.2105   78.1781  220.0392 H   0  0  0  0  0  0  0  0  0  0  0  0
  142.4201   80.7849  220.6819 H   0  0  0  0  0  0  0  0  0  0  0  0
  143.0834   81.7951  222.8225 H   0  0  0  0  0  0  0  0  0  0  0  0
  142.6333   80.6368  224.9811 H   0  0  0  0  0  0  0  0  0  0  0  0
  141.4823   78.4149  224.9101 H   0  0  0  0  0  0  0  0  0  0  0  0
  141.0180   76.2295  222.3045 H   0  0  0  0  0  0  0  0  0  0  0  0
  139.4464   74.9524  221.9897 H   0  0  0  0  0  0  0  0  0  0  0  0
  137.0818   74.4374  222.4090 H   0  0  0  0  0  0  0  0  0  0  0  0
  135.4733   76.2406  223.0220 H   0  0  0  0  0  0  0  0  0  0  0  0
  136.3357   78.5805  223.1979 H   0  0  0  0  0  0  0  0  0  0  0  0
  138.7214   79.0903  222.7744 H   0  0  0  0  0  0  0  0  0  0  0  0
  142.9112   74.4123  221.0957 H   0  0  0  0  0  0  0  0  0  0  0  0
  141.5031   74.9400  222.0569 H   0  0  0  0  0  0  0  0  0  0  0  0
  141.8402   72.2123  220.6804 H   0  0  0  0  0  0  0  0  0  0  0  0
  141.9659   72.5135  222.4340 H   0  0  0  0  0  0  0  0  0  0  0  0
  1  2  1  0
  2  3  1  0
  3  4  2  0
  3  5  1  0
  5  6  1  0
  6  7  2  0
  7  8  1  0
  8  9  2  0
  9 10  1  0
 10 11  2  0
  5 12  1  0
 12 13  1  0
 13 14  1  0
 14 15  1  0
 15 16  1  0
 16 17  2  0
 16 18  1  0
 18 19  1  0
 18 20  1  0
 20 21  1  0
 21 22  2  0
 22 23  1  0
 23 24  2  0
 24 25  1  0
 25 26  2  0
 26 27  1  0
 27 28  1  0
 28 29  2  0
 29 30  1  0
 30 31  2  0
 31 32  1  0
 32 33  2  0
 15 34  1  0
 34 35  1  0
 11  6  1  0
 35 12  1  0
 27 20  1  0
 33 28  1  0
 26 21  1  0
  1 36  1  0
  1 37  1  0
  1 38  1  0
  2 39  1  0
  2 40  1  0
  7 41  1  0
  8 42  1  0
  9 43  1  0
 10 44  1  0
 11 45  1  0
 12 46  1  0
 13 47  1  0
 13 48  1  0
 14 49  1  0
 14 50  1  0
 18 51  1  1
 19 52  1  0
 19 53  1  0
 20 54  1  6
 22 55  1  0
 23 56  1  0
 24 57  1  0
 25 58  1  0
 27 59  1  6
 29 60  1  0
 30 61  1  0
 31 62  1  0
 32 63  1  0
 33 64  1  0
 34 65  1  0
 34 66  1  0
 35 67  1  0
 35 68  1  0
M  END
>  <smiles>  (126) 
CCC(=O)N(c1ccccc1)C1CCN(C(=O)[C@@H](N)C2c3ccccc3C2c2ccccc2)CC1

>  <score_type>  (126) 
oracle

>  <origin>  (126) 
autodockgpu

>  <m_score__min__energy>  (126) 
-9.1199999999999992

>  <m_primary>  (126) 
energy

>  <rmsd>  (126) 
8.738416740610255

>  <m_score__min__rmsd>  (126) 
8.738416740610255

>  <meeko>  (126) 
{"free_energy": -7.59, "intermolecular_energy": -9.98, "internal_energy": -3.6, "cluster_size": 30, "cluster_id": 3, "rank_in_cluster": 28}

>  <energy>  (126) 
-8.3

>  <cluster_rmsd>  (126) 
0.6

>  <cluster>  (126) 
3

$$$$

     RDKit          3D

 68 72  0  0  0  0  0  0  0  0999 V2000
  145.9180   73.4390  216.5390 C   0  0  0  0  0  0  0  0  0  0  0  0
  144.8100   72.5980  217.1160 C   0  0  0  0  0  0  0  0  0  0  0  0
  145.2000   72.0310  218.4410 C   0  0  0  0  0  0  0  0  0  0  0  0
  146.1150   72.6130  219.0580 O   0  0  0  0  0  0  0  0  0  0  0  0
  144.5170   70.8790  218.9160 N   0  0  0  0  0  0  0  0  0  0  0  0
  145.0590   69.5660  218.7200 C   0  0  0  0  0  0  0  0  0  0  0  0
  145.8130   69.2320  217.6160 C   0  0  0  0  0  0  0  0  0  0  0  0
  146.3110   67.9590  217.4730 C   0  0  0  0  0  0  0  0  0  0  0  0
  146.0430   67.0080  218.4590 C   0  0  0  0  0  0  0  0  0  0  0  0
  145.2900   67.3280  219.5700 C   0  0  0  0  0  0  0  0  0  0  0  0
  144.8000   68.6090  219.6940 C   0  0  0  0  0  0  0  0  0  0  0  0
  143.2580   71.0840  219.6010 C   0  0  0  0  0  0  0  0  0  0  0  0
  142.0600   70.9550  218.6870 C   0  0  0  0  0  0  0  0  0  0  0  0
  141.0180   72.0000  219.0250 C   0  0  0  0  0  0  0  0  0  0  0  0
  140.8380   72.1850  220.4470 N   0  0  0  0  0  0  0  0  0  0  0  0
  139.5390   72.1110  221.0050 C   0  0  0  0  0  0  0  0  0  0  0  0
  138.5880   71.8820  220.2140 O   0  0  0  0  0  0  0  0  0  0  0  0
  139.2210   72.2820  222.4380 C   0  0  1  0  0  0  0  0  0  0  0  0
  137.8090   72.2890  222.6420 N   0  0  0  0  0  0  0  0  0  0  0  0
  139.8760   71.0730  223.1490 C   0  0  2  0  0  0  0  0  0  0  0  0
  139.6150   69.8030  222.5020 C   0  0  0  0  0  0  0  0  0  0  0  0
  139.8220   68.9400  221.4300 C   0  0  0  0  0  0  0  0  0  0  0  0
  139.2080   67.7060  221.3820 C   0  0  0  0  0  0  0  0  0  0  0  0
  138.3660   67.2780  222.3880 C   0  0  0  0  0  0  0  0  0  0  0  0
  138.1630   68.1410  223.4550 C   0  0  0  0  0  0  0  0  0  0  0  0
  138.7910   69.3910  223.4960 C   0  0  0  0  0  0  0  0  0  0  0  0
  138.9770   70.6200  224.2480 C   0  0  1  0  0  0  0  0  0  0  0  0
  139.6640   70.4880  225.5510 C   0  0  0  0  0  0  0  0  0  0  0  0
  140.4950   71.5470  225.9310 C   0  0  0  0  0  0  0  0  0  0  0  0
  141.1780   71.5330  227.1280 C   0  0  0  0  0  0  0  0  0  0  0  0
  141.0690   70.4690  228.0010 C   0  0  0  0  0  0  0  0  0  0  0  0
  140.2440   69.4190  227.6220 C   0  0  0  0  0  0  0  0  0  0  0  0
  139.5530   69.4370  226.4080 C   0  0  0  0  0  0  0  0  0  0  0  0
  142.0370   72.4430  221.2290 C   0  0  0  0  0  0  0  0  0  0  0  0
  143.2240   72.4330  220.2820 C   0  0  0  0  0  0  0  0  0  0  0  0
  146.5043   73.8840  217.3565 H   0  0  0  0  0  0  0  0  0  0  0  0
  146.5725   72.8082  215.9195 H   0  0  0  0  0  0  0  0  0  0  0  0
  145.4865   74.2391  215.9195 H   0  0  0  0  0  0  0  0  0  0  0  0
  143.9134   73.2226  217.2423 H   0  0  0  0  0  0  0  0  0  0  0  0
  144.6073   71.7658  216.4258 H   0  0  0  0  0  0  0  0  0  0  0  0
  146.0176   69.9889  216.8444 H   0  0  0  0  0  0  0  0  0  0  0  0
  146.9136   67.6928  216.5921 H   0  0  0  0  0  0  0  0  0  0  0  0
  146.4383   65.9875  218.3485 H   0  0  0  0  0  0  0  0  0  0  0  0
  145.0846   66.5730  220.3432 H   0  0  0  0  0  0  0  0  0  0  0  0
  144.1969   68.8778  220.5738 H   0  0  0  0  0  0  0  0  0  0  0  0
  143.1920   70.2847  220.3539 H   0  0  0  0  0  0  0  0  0  0  0  0
  142.3840   71.0912  217.6447 H   0  0  0  0  0  0  0  0  0  0  0  0
  141.6178   69.9567  218.8202 H   0  0  0  0  0  0  0  0  0  0  0  0
  141.3285   72.9588  218.5842 H   0  0  0  0  0  0  0  0  0  0  0  0
  140.0587   71.6492  218.6168 H   0  0  0  0  0  0  0  0  0  0  0  0
  139.5975   73.2376  222.8317 H   0  0  0  0  0  0  0  0  0  0  0  0
  137.2840   72.4460  221.7700 H   0  0  0  0  0  0  0  0  0  0  0  0
  137.6000   72.9860  223.3890 H   0  0  0  0  0  0  0  0  0  0  0  0
  140.9112   71.4157  223.2935 H   0  0  0  0  0  0  0  0  0  0  0  0
  140.4857   69.2469  220.6082 H   0  0  0  0  0  0  0  0  0  0  0  0
  139.3939   67.0471  220.5210 H   0  0  0  0  0  0  0  0  0  0  0  0
  137.8764   66.2939  222.3456 H   0  0  0  0  0  0  0  0  0  0  0  0
  137.5001   67.8390  224.2792 H   0  0  0  0  0  0  0  0  0  0  0  0
  138.1100   71.2024  224.5931 H   0  0  0  0  0  0  0  0  0  0  0  0
  140.6059   72.4108  225.2591 H   0  0  0  0  0  0  0  0  0  0  0  0
  141.8216   72.3849  227.3926 H   0  0  0  0  0  0  0  0  0  0  0  0
  141.6131   70.4540  228.9569 H   0  0  0  0  0  0  0  0  0  0  0  0
  140.1319   68.5539  228.2921 H   0  0  0  0  0  0  0  0  0  0  0  0
  138.9081   68.5870  226.1404 H   0  0  0  0  0  0  0  0  0  0  0  0
  141.9589   73.4243  221.7198 H   0  0  0  0  0  0  0  0  0  0  0  0
  142.1604   71.6739  222.0057 H   0  0  0  0  0  0  0  0  0  0  0  0
  143.1108   73.2289  219.5311 H   0  0  0  0  0  0  0  0  0  0  0  0
  144.1588   72.6091  220.8344 H   0  0  0  0  0  0  0  0  0  0  0  0
  1  2  1  0
  2  3  1  0
  3  4  2  0
  3  5  1  0
  5  6  1  0
  6  7  2  0
  7  8  1  0
  8  9  2  0
  9 10  1  0
 10 11  2  0
  5 12  1  0
 12 13  1  0
 13 14  1  0
 14 15  1  0
 15 16  1  0
 16 17  2  0
 16 18  1  0
 18 19  1  0
 18 20  1  0
 20 21  1  0
 21 22  2  0
 22 23  1  0
 23 24  2  0
 24 25  1  0
 25 26  2  0
 26 27  1  0
 27 28  1  0
 28 29  2  0
 29 30  1  0
 30 31  2  0
 31 32  1  0
 32 33  2  0
 15 34  1  0
 34 35  1  0
 11  6  1  0
 35 12  1  0
 27 20  1  0
 33 28  1  0
 26 21  1  0
  1 36  1  0
  1 37  1  0
  1 38  1  0
  2 39  1  0
  2 40  1  0
  7 41  1  0
  8 42  1  0
  9 43  1  0
 10 44  1  0
 11 45  1  0
 12 46  1  0
 13 47  1  0
 13 48  1  0
 14 49  1  0
 14 50  1  0
 18 51  1  1
 19 52  1  0
 19 53  1  0
 20 54  1  1
 22 55  1  0
 23 56  1  0
 24 57  1  0
 25 58  1  0
 27 59  1  1
 29 60  1  0
 30 61  1  0
 31 62  1  0
 32 63  1  0
 33 64  1  0
 34 65  1  0
 34 66  1  0
 35 67  1  0
 35 68  1  0
M  END
>  <smiles>  (127) 
CCC(=O)N(c1ccccc1)C1CCN(C(=O)[C@@H](N)C2c3ccccc3C2c2ccccc2)CC1

>  <score_type>  (127) 
oracle

>  <origin>  (127) 
autodockgpu

>  <m_score__min__energy>  (127) 
-9.1199999999999992

>  <m_primary>  (127) 
energy

>  <rmsd>  (127) 
4.343093495118563

>  <m_score__min__rmsd>  (127) 
4.343093495118563

>  <meeko>  (127) 
{"free_energy": -8.07, "intermolecular_energy": -10.46, "internal_energy": -3.23, "cluster_size": 1, "cluster_id": 5, "rank_in_cluster": 1}

>  <energy>  (127) 
-8.25

>  <cluster_rmsd>  (127) 
0.69

>  <cluster>  (127) 
3

$$$$

     RDKit          3D

 68 72  0  0  0  0  0  0  0  0999 V2000
  136.3370   69.3300  223.4290 C   0  0  0  0  0  0  0  0  0  0  0  0
  137.4530   69.1600  224.4260 C   0  0  0  0  0  0  0  0  0  0  0  0
  138.7690   69.5280  223.8250 C   0  0  0  0  0  0  0  0  0  0  0  0
  139.1980   68.7960  222.9100 O   0  0  0  0  0  0  0  0  0  0  0  0
  139.4480   70.6740  224.3210 N   0  0  0  0  0  0  0  0  0  0  0  0
  139.9880   70.6940  225.6490 C   0  0  0  0  0  0  0  0  0  0  0  0
  139.8490   69.6380  226.5240 C   0  0  0  0  0  0  0  0  0  0  0  0
  140.3850   69.7050  227.7870 C   0  0  0  0  0  0  0  0  0  0  0  0
  141.0720   70.8560  228.1750 C   0  0  0  0  0  0  0  0  0  0  0  0
  141.2200   71.9210  227.3110 C   0  0  0  0  0  0  0  0  0  0  0  0
  140.6750   71.8340  226.0490 C   0  0  0  0  0  0  0  0  0  0  0  0
  139.5690   71.8140  223.4370 C   0  0  0  0  0  0  0  0  0  0  0  0
  138.3800   71.9750  222.5160 C   0  0  0  0  0  0  0  0  0  0  0  0
  138.8310   72.3970  221.1340 C   0  0  0  0  0  0  0  0  0  0  0  0
  139.8820   73.3900  221.1570 N   0  0  0  0  0  0  0  0  0  0  0  0
  139.7330   74.5850  220.4130 C   0  0  0  0  0  0  0  0  0  0  0  0
  138.6690   74.7230  219.7560 O   0  0  0  0  0  0  0  0  0  0  0  0
  140.7300   75.6750  220.3520 C   0  0  1  0  0  0  0  0  0  0  0  0
  140.5210   76.4820  219.1930 N   0  0  0  0  0  0  0  0  0  0  0  0
  140.5140   76.4990  221.6440 C   0  0  2  0  0  0  0  0  0  0  0  0
  139.1510   76.4720  222.1350 C   0  0  0  0  0  0  0  0  0  0  0  0
  138.1050   75.7720  222.7290 C   0  0  0  0  0  0  0  0  0  0  0  0
  136.8850   76.3750  222.9590 C   0  0  0  0  0  0  0  0  0  0  0  0
  136.6520   77.6890  222.6100 C   0  0  0  0  0  0  0  0  0  0  0  0
  137.6980   78.3840  222.0180 C   0  0  0  0  0  0  0  0  0  0  0  0
  138.9320   77.7650  221.7890 C   0  0  0  0  0  0  0  0  0  0  0  0
  140.2800   77.9230  221.2710 C   0  0  1  0  0  0  0  0  0  0  0  0
  141.1490   78.8710  222.0000 C   0  0  0  0  0  0  0  0  0  0  0  0
  141.3650   78.6060  223.3560 C   0  0  0  0  0  0  0  0  0  0  0  0
  142.1650   79.4190  224.1310 C   0  0  0  0  0  0  0  0  0  0  0  0
  142.7850   80.5300  223.5960 C   0  0  0  0  0  0  0  0  0  0  0  0
  142.5690   80.7910  222.2490 C   0  0  0  0  0  0  0  0  0  0  0  0
  141.7590   79.9650  221.4690 C   0  0  0  0  0  0  0  0  0  0  0  0
  141.0530   73.0840  221.9640 C   0  0  0  0  0  0  0  0  0  0  0  0
  140.8320   71.7290  222.6120 C   0  0  0  0  0  0  0  0  0  0  0  0
  135.3866   69.4748  223.9636 H   0  0  0  0  0  0  0  0  0  0  0  0
  136.5399   70.2076  222.7976 H   0  0  0  0  0  0  0  0  0  0  0  0
  136.2694   68.4318  222.7976 H   0  0  0  0  0  0  0  0  0  0  0  0
  137.2609   69.8070  225.2946 H   0  0  0  0  0  0  0  0  0  0  0  0
  137.4910   68.1042  224.7323 H   0  0  0  0  0  0  0  0  0  0  0  0
  139.3051   68.7354  226.2087 H   0  0  0  0  0  0  0  0  0  0  0  0
  140.2740   68.8614  228.4842 H   0  0  0  0  0  0  0  0  0  0  0  0
  141.5023   70.9149  229.1857 H   0  0  0  0  0  0  0  0  0  0  0  0
  141.7639   72.8243  227.6244 H   0  0  0  0  0  0  0  0  0  0  0  0
  140.7847   72.6762  225.3499 H   0  0  0  0  0  0  0  0  0  0  0  0
  139.6095   72.6984  224.0898 H   0  0  0  0  0  0  0  0  0  0  0  0
  137.8452   71.0164  222.4449 H   0  0  0  0  0  0  0  0  0  0  0  0
  137.7164   72.7510  222.9253 H   0  0  0  0  0  0  0  0  0  0  0  0
  139.2005   71.5089  220.6003 H   0  0  0  0  0  0  0  0  0  0  0  0
  137.9639   72.8499  220.6309 H   0  0  0  0  0  0  0  0  0  0  0  0
  141.7578   75.2892  220.2832 H   0  0  0  0  0  0  0  0  0  0  0  0
  139.5390   76.4870  218.8860 H   0  0  0  0  0  0  0  0  0  0  0  0
  141.1890   76.1610  218.4590 H   0  0  0  0  0  0  0  0  0  0  0  0
  141.3374   76.1516  222.2853 H   0  0  0  0  0  0  0  0  0  0  0  0
  138.2529   74.7215  223.0198 H   0  0  0  0  0  0  0  0  0  0  0  0
  136.0794   75.7940  223.4318 H   0  0  0  0  0  0  0  0  0  0  0  0
  135.6780   78.1663  222.7931 H   0  0  0  0  0  0  0  0  0  0  0  0
  137.5549   79.4346  221.7252 H   0  0  0  0  0  0  0  0  0  0  0  0
  140.4489   78.3130  220.2564 H   0  0  0  0  0  0  0  0  0  0  0  0
  140.8857   77.7288  223.8150 H   0  0  0  0  0  0  0  0  0  0  0  0
  142.3116   79.1779  225.1942 H   0  0  0  0  0  0  0  0  0  0  0  0
  143.4235   81.1815  224.2107 H   0  0  0  0  0  0  0  0  0  0  0  0
  143.0467   81.6677  221.7873 H   0  0  0  0  0  0  0  0  0  0  0  0
  141.6109   80.2027  220.4052 H   0  0  0  0  0  0  0  0  0  0  0  0
  141.9485   73.0516  221.3260 H   0  0  0  0  0  0  0  0  0  0  0  0
  141.2012   73.8567  222.7327 H   0  0  0  0  0  0  0  0  0  0  0  0
  140.7216   70.9566  221.8366 H   0  0  0  0  0  0  0  0  0  0  0  0
  141.6894   71.4616  223.2471 H   0  0  0  0  0  0  0  0  0  0  0  0
  1  2  1  0
  2  3  1  0
  3  4  2  0
  3  5  1  0
  5  6  1  0
  6  7  2  0
  7  8  1  0
  8  9  2  0
  9 10  1  0
 10 11  2  0
  5 12  1  0
 12 13  1  0
 13 14  1  0
 14 15  1  0
 15 16  1  0
 16 17  2  0
 16 18  1  0
 18 19  1  0
 18 20  1  0
 20 21  1  0
 21 22  2  0
 22 23  1  0
 23 24  2  0
 24 25  1  0
 25 26  2  0
 26 27  1  0
 27 28  1  0
 28 29  2  0
 29 30  1  0
 30 31  2  0
 31 32  1  0
 32 33  2  0
 15 34  1  0
 34 35  1  0
 11  6  1  0
 35 12  1  0
 27 20  1  0
 33 28  1  0
 26 21  1  0
  1 36  1  0
  1 37  1  0
  1 38  1  0
  2 39  1  0
  2 40  1  0
  7 41  1  0
  8 42  1  0
  9 43  1  0
 10 44  1  0
 11 45  1  0
 12 46  1  0
 13 47  1  0
 13 48  1  0
 14 49  1  0
 14 50  1  0
 18 51  1  1
 19 52  1  0
 19 53  1  0
 20 54  1  1
 22 55  1  0
 23 56  1  0
 24 57  1  0
 25 58  1  0
 27 59  1  6
 29 60  1  0
 30 61  1  0
 31 62  1  0
 32 63  1  0
 33 64  1  0
 34 65  1  0
 34 66  1  0
 35 67  1  0
 35 68  1  0
M  END
>  <smiles>  (128) 
CCC(=O)N(c1ccccc1)C1CCN(C(=O)[C@@H](N)C2c3ccccc3C2c2ccccc2)CC1

>  <score_type>  (128) 
oracle

>  <origin>  (128) 
autodockgpu

>  <m_score__min__energy>  (128) 
-9.1199999999999992

>  <m_primary>  (128) 
energy

>  <rmsd>  (128) 
7.579364525440676

>  <m_score__min__rmsd>  (128) 
7.579364525440676

>  <meeko>  (128) 
{"free_energy": -8.34, "intermolecular_energy": -10.73, "internal_energy": -3.23, "cluster_size": 30, "cluster_id": 3, "rank_in_cluster": 14}

>  <energy>  (128) 
-8.23

>  <cluster_rmsd>  (128) 
0.63

>  <cluster>  (128) 
3

$$$$

     RDKit          3D

 68 72  0  0  0  0  0  0  0  0999 V2000
  136.5120   69.6520  224.9250 C   0  0  0  0  0  0  0  0  0  0  0  0
  137.4060   69.1020  223.8450 C   0  0  0  0  0  0  0  0  0  0  0  0
  138.8110   68.9600  224.3320 C   0  0  0  0  0  0  0  0  0  0  0  0
  139.1960   67.8090  224.6200 O   0  0  0  0  0  0  0  0  0  0  0  0
  139.6160   70.1260  224.4370 N   0  0  0  0  0  0  0  0  0  0  0  0
  140.0930   70.5810  225.7110 C   0  0  0  0  0  0  0  0  0  0  0  0
  140.9290   71.6680  225.8460 C   0  0  0  0  0  0  0  0  0  0  0  0
  141.3590   72.0640  227.0890 C   0  0  0  0  0  0  0  0  0  0  0  0
  140.9400   71.3530  228.2140 C   0  0  0  0  0  0  0  0  0  0  0  0
  140.1030   70.2630  228.0950 C   0  0  0  0  0  0  0  0  0  0  0  0
  139.6830   69.8820  226.8400 C   0  0  0  0  0  0  0  0  0  0  0  0
  139.9310   70.8330  223.2140 C   0  0  0  0  0  0  0  0  0  0  0  0
  138.9760   71.9710  222.9260 C   0  0  0  0  0  0  0  0  0  0  0  0
  138.6590   72.0390  221.4480 C   0  0  0  0  0  0  0  0  0  0  0  0
  139.8150   71.8220  220.6080 N   0  0  0  0  0  0  0  0  0  0  0  0
  140.1300   72.7570  219.5920 C   0  0  0  0  0  0  0  0  0  0  0  0
  139.3680   73.7510  219.4730 O   0  0  0  0  0  0  0  0  0  0  0  0
  141.2790   72.6510  218.6690 C   0  0  1  0  0  0  0  0  0  0  0  0
  140.8370   72.6720  217.3130 N   0  0  0  0  0  0  0  0  0  0  0  0
  142.1670   73.8800  218.9790 C   0  0  2  0  0  0  0  0  0  0  0  0
  143.5760   73.5670  219.1100 C   0  0  0  0  0  0  0  0  0  0  0  0
  144.7770   73.1870  218.5210 C   0  0  0  0  0  0  0  0  0  0  0  0
  145.9210   73.0290  219.2760 C   0  0  0  0  0  0  0  0  0  0  0  0
  145.9210   73.2410  220.6400 C   0  0  0  0  0  0  0  0  0  0  0  0
  144.7210   73.6210  221.2230 C   0  0  0  0  0  0  0  0  0  0  0  0
  143.5650   73.7780  220.4490 C   0  0  0  0  0  0  0  0  0  0  0  0
  142.1540   74.1220  220.4500 C   0  0  1  0  0  0  0  0  0  0  0  0
  141.8250   75.5180  220.8120 C   0  0  0  0  0  0  0  0  0  0  0  0
  141.0270   75.6980  221.9460 C   0  0  0  0  0  0  0  0  0  0  0  0
  140.6660   76.9560  222.3800 C   0  0  0  0  0  0  0  0  0  0  0  0
  141.0790   78.0890  221.7100 C   0  0  0  0  0  0  0  0  0  0  0  0
  141.8720   77.9080  220.5850 C   0  0  0  0  0  0  0  0  0  0  0  0
  142.2360   76.6320  220.1490 C   0  0  0  0  0  0  0  0  0  0  0  0
  140.5980   70.6230  220.8690 C   0  0  0  0  0  0  0  0  0  0  0  0
  139.9540   69.8900  222.0330 C   0  0  0  0  0  0  0  0  0  0  0  0
  136.9278   69.3962  225.9108 H   0  0  0  0  0  0  0  0  0  0  0  0
  136.4482   70.7457  224.8265 H   0  0  0  0  0  0  0  0  0  0  0  0
  135.5070   69.2158  224.8265 H   0  0  0  0  0  0  0  0  0  0  0  0
  137.0312   68.1151  223.5361 H   0  0  0  0  0  0  0  0  0  0  0  0
  137.3991   69.8008  222.9955 H   0  0  0  0  0  0  0  0  0  0  0  0
  141.2540   72.2220  224.9530 H   0  0  0  0  0  0  0  0  0  0  0  0
  142.0262   72.9320  227.1963 H   0  0  0  0  0  0  0  0  0  0  0  0
  141.2824   71.6665  229.2112 H   0  0  0  0  0  0  0  0  0  0  0  0
  139.7767   69.7079  228.9869 H   0  0  0  0  0  0  0  0  0  0  0  0
  139.0155   69.0146  226.7300 H   0  0  0  0  0  0  0  0  0  0  0  0
  140.9310   71.2654  223.3660 H   0  0  0  0  0  0  0  0  0  0  0  0
  138.0442   71.8122  223.4887 H   0  0  0  0  0  0  0  0  0  0  0  0
  139.4484   72.9163  223.2313 H   0  0  0  0  0  0  0  0  0  0  0  0
  137.9083   71.2693  221.2155 H   0  0  0  0  0  0  0  0  0  0  0  0
  138.2885   73.0534  221.2391 H   0  0  0  0  0  0  0  0  0  0  0  0
  141.8291   71.7080  218.8036 H   0  0  0  0  0  0  0  0  0  0  0  0
  139.9080   73.1030  217.2060 H   0  0  0  0  0  0  0  0  0  0  0  0
  140.8920   71.6970  216.9460 H   0  0  0  0  0  0  0  0  0  0  0  0
  141.8322   74.6083  218.2257 H   0  0  0  0  0  0  0  0  0  0  0  0
  144.8156   73.0096  217.4361 H   0  0  0  0  0  0  0  0  0  0  0  0
  146.8549   72.7270  218.7793 H   0  0  0  0  0  0  0  0  0  0  0  0
  146.8344   73.1139  221.2396 H   0  0  0  0  0  0  0  0  0  0  0  0
  144.6771   73.8013  222.3072 H   0  0  0  0  0  0  0  0  0  0  0  0
  141.4550   73.6198  221.1350 H   0  0  0  0  0  0  0  0  0  0  0  0
  140.6794   74.8163  222.5044 H   0  0  0  0  0  0  0  0  0  0  0  0
  140.0373   77.0580  223.2768 H   0  0  0  0  0  0  0  0  0  0  0  0
  140.7919   79.0940  222.0529 H   0  0  0  0  0  0  0  0  0  0  0  0
  142.2211   78.7882  220.0251 H   0  0  0  0  0  0  0  0  0  0  0  0
  142.8662   76.5263  219.2536 H   0  0  0  0  0  0  0  0  0  0  0  0
  140.6028   69.9782  219.9778 H   0  0  0  0  0  0  0  0  0  0  0  0
  141.6375   70.8890  221.1112 H   0  0  0  0  0  0  0  0  0  0  0  0
  138.9276   69.5957  221.7686 H   0  0  0  0  0  0  0  0  0  0  0  0
  140.5224   68.9805  222.2773 H   0  0  0  0  0  0  0  0  0  0  0  0
  1  2  1  0
  2  3  1  0
  3  4  2  0
  3  5  1  0
  5  6  1  0
  6  7  2  0
  7  8  1  0
  8  9  2  0
  9 10  1  0
 10 11  2  0
  5 12  1  0
 12 13  1  0
 13 14  1  0
 14 15  1  0
 15 16  1  0
 16 17  2  0
 16 18  1  0
 18 19  1  0
 18 20  1  0
 20 21  1  0
 21 22  2  0
 22 23  1  0
 23 24  2  0
 24 25  1  0
 25 26  2  0
 26 27  1  0
 27 28  1  0
 28 29  2  0
 29 30  1  0
 30 31  2  0
 31 32  1  0
 32 33  2  0
 15 34  1  0
 34 35  1  0
 11  6  1  0
 35 12  1  0
 27 20  1  0
 33 28  1  0
 26 21  1  0
  1 36  1  0
  1 37  1  0
  1 38  1  0
  2 39  1  0
  2 40  1  0
  7 41  1  0
  8 42  1  0
  9 43  1  0
 10 44  1  0
 11 45  1  0
 12 46  1  0
 13 47  1  0
 13 48  1  0
 14 49  1  0
 14 50  1  0
 18 51  1  1
 19 52  1  0
 19 53  1  0
 20 54  1  6
 22 55  1  0
 23 56  1  0
 24 57  1  0
 25 58  1  0
 27 59  1  1
 29 60  1  0
 30 61  1  0
 31 62  1  0
 32 63  1  0
 33 64  1  0
 34 65  1  0
 34 66  1  0
 35 67  1  0
 35 68  1  0
M  END
>  <smiles>  (129) 
CCC(=O)N(c1ccccc1)C1CCN(C(=O)[C@@H](N)C2c3ccccc3C2c2ccccc2)CC1

>  <score_type>  (129) 
oracle

>  <origin>  (129) 
autodockgpu

>  <m_score__min__energy>  (129) 
-9.1199999999999992

>  <m_primary>  (129) 
energy

>  <rmsd>  (129) 
7.220448561957097

>  <m_score__min__rmsd>  (129) 
7.220448561957097

>  <meeko>  (129) 
{"free_energy": -8.18, "intermolecular_energy": -10.56, "internal_energy": -3.15, "cluster_size": 5, "cluster_id": 4, "rank_in_cluster": 2}

>  <energy>  (129) 
-8.21

>  <cluster_rmsd>  (129) 
0.58

>  <cluster>  (129) 
3

$$$$

     RDKit          3D

 68 72  0  0  0  0  0  0  0  0999 V2000
  138.8070   67.2410  222.6900 C   0  0  0  0  0  0  0  0  0  0  0  0
  139.1100   68.7050  222.5110 C   0  0  0  0  0  0  0  0  0  0  0  0
  138.5180   69.5150  223.6170 C   0  0  0  0  0  0  0  0  0  0  0  0
  137.3770   69.1930  224.0060 O   0  0  0  0  0  0  0  0  0  0  0  0
  139.2760   70.5900  224.1540 N   0  0  0  0  0  0  0  0  0  0  0  0
  139.8130   70.5240  225.4820 C   0  0  0  0  0  0  0  0  0  0  0  0
  140.5790   71.5320  226.0250 C   0  0  0  0  0  0  0  0  0  0  0  0
  141.0710   71.4210  227.3020 C   0  0  0  0  0  0  0  0  0  0  0  0
  140.7870   70.2740  228.0450 C   0  0  0  0  0  0  0  0  0  0  0  0
  140.0210   69.2560  227.5150 C   0  0  0  0  0  0  0  0  0  0  0  0
  139.5370   69.3870  226.2330 C   0  0  0  0  0  0  0  0  0  0  0  0
  139.4800   71.7500  223.3110 C   0  0  0  0  0  0  0  0  0  0  0  0
  138.3430   71.9830  222.3420 C   0  0  0  0  0  0  0  0  0  0  0  0
  138.8750   72.4270  220.9950 C   0  0  0  0  0  0  0  0  0  0  0  0
  139.9590   73.3770  221.0970 N   0  0  0  0  0  0  0  0  0  0  0  0
  139.8900   74.5980  220.3830 C   0  0  0  0  0  0  0  0  0  0  0  0
  138.8640   74.7950  219.6830 O   0  0  0  0  0  0  0  0  0  0  0  0
  140.9280   75.6500  220.4020 C   0  0  1  0  0  0  0  0  0  0  0  0
  140.8250   76.4770  219.2430 N   0  0  0  0  0  0  0  0  0  0  0  0
  140.6600   76.4670  221.6890 C   0  0  2  0  0  0  0  0  0  0  0  0
  139.2870   76.4040  222.1470 C   0  0  0  0  0  0  0  0  0  0  0  0
  138.2460   75.6760  222.7150 C   0  0  0  0  0  0  0  0  0  0  0  0
  137.0060   76.2460  222.9160 C   0  0  0  0  0  0  0  0  0  0  0  0
  136.7460   77.5540  222.5620 C   0  0  0  0  0  0  0  0  0  0  0  0
  137.7870   78.2760  221.9960 C   0  0  0  0  0  0  0  0  0  0  0  0
  139.0420   77.6900  221.7960 C   0  0  0  0  0  0  0  0  0  0  0  0
  140.3970   77.8850  221.3100 C   0  0  1  0  0  0  0  0  0  0  0  0
  141.2240   78.8550  222.0600 C   0  0  0  0  0  0  0  0  0  0  0  0
  141.4180   78.5920  223.4200 C   0  0  0  0  0  0  0  0  0  0  0  0
  142.1770   79.4250  224.2130 C   0  0  0  0  0  0  0  0  0  0  0  0
  142.7770   80.5540  223.6950 C   0  0  0  0  0  0  0  0  0  0  0  0
  142.5840   80.8130  222.3440 C   0  0  0  0  0  0  0  0  0  0  0  0
  141.8140   79.9660  221.5450 C   0  0  0  0  0  0  0  0  0  0  0  0
  141.0790   73.0040  221.9470 C   0  0  0  0  0  0  0  0  0  0  0  0
  140.7770   71.6400  222.5430 C   0  0  0  0  0  0  0  0  0  0  0  0
  138.7582   67.0052  223.7633 H   0  0  0  0  0  0  0  0  0  0  0  0
  137.8412   67.0061  222.2187 H   0  0  0  0  0  0  0  0  0  0  0  0
  139.6002   66.6421  222.2187 H   0  0  0  0  0  0  0  0  0  0  0  0
  140.2006   68.8481  222.5047 H   0  0  0  0  0  0  0  0  0  0  0  0
  138.6711   69.0391  221.5593 H   0  0  0  0  0  0  0  0  0  0  0  0
  140.7980   72.4319  225.4315 H   0  0  0  0  0  0  0  0  0  0  0  0
  141.6821   72.2269  227.7347 H   0  0  0  0  0  0  0  0  0  0  0  0
  141.1797   70.1802  229.0682 H   0  0  0  0  0  0  0  0  0  0  0  0
  139.8009   68.3552  228.1068 H   0  0  0  0  0  0  0  0  0  0  0  0
  138.9251   68.5831  225.7979 H   0  0  0  0  0  0  0  0  0  0  0  0
  139.5216   72.6134  223.9914 H   0  0  0  0  0  0  0  0  0  0  0  0
  137.7768   71.0482  222.2171 H   0  0  0  0  0  0  0  0  0  0  0  0
  137.6899   72.7718  222.7436 H   0  0  0  0  0  0  0  0  0  0  0  0
  139.2363   71.5410  220.4523 H   0  0  0  0  0  0  0  0  0  0  0  0
  138.0503   72.9271  220.4661 H   0  0  0  0  0  0  0  0  0  0  0  0
  141.9431   75.2264  220.3948 H   0  0  0  0  0  0  0  0  0  0  0  0
  139.8640   76.5290  218.8780 H   0  0  0  0  0  0  0  0  0  0  0  0
  141.5210   76.1350  218.5460 H   0  0  0  0  0  0  0  0  0  0  0  0
  141.4767   76.1410  222.3499 H   0  0  0  0  0  0  0  0  0  0  0  0
  138.4146   74.6293  223.0084 H   0  0  0  0  0  0  0  0  0  0  0  0
  136.2053   75.6433  223.3694 H   0  0  0  0  0  0  0  0  0  0  0  0
  135.7556   78.0052  222.7217 H   0  0  0  0  0  0  0  0  0  0  0  0
  137.6236   79.3229  221.7006 H   0  0  0  0  0  0  0  0  0  0  0  0
  140.5788   78.2807  220.2999 H   0  0  0  0  0  0  0  0  0  0  0  0
  140.9542   77.7001  223.8666 H   0  0  0  0  0  0  0  0  0  0  0  0
  142.3068   79.1853  225.2787 H   0  0  0  0  0  0  0  0  0  0  0  0
  143.3830   81.2213  224.3255 H   0  0  0  0  0  0  0  0  0  0  0  0
  143.0474   81.7037  221.8946 H   0  0  0  0  0  0  0  0  0  0  0  0
  141.6822   80.2021  220.4787 H   0  0  0  0  0  0  0  0  0  0  0  0
  142.0016   72.9553  221.3500 H   0  0  0  0  0  0  0  0  0  0  0  0
  141.2201   73.7485  222.7444 H   0  0  0  0  0  0  0  0  0  0  0  0
  140.6748   70.8949  221.7403 H   0  0  0  0  0  0  0  0  0  0  0  0
  141.5927   71.3218  223.2088 H   0  0  0  0  0  0  0  0  0  0  0  0
  1  2  1  0
  2  3  1  0
  3  4  2  0
  3  5  1  0
  5  6  1  0
  6  7  2  0
  7  8  1  0
  8  9  2  0
  9 10  1  0
 10 11  2  0
  5 12  1  0
 12 13  1  0
 13 14  1  0
 14 15  1  0
 15 16  1  0
 16 17  2  0
 16 18  1  0
 18 19  1  0
 18 20  1  0
 20 21  1  0
 21 22  2  0
 22 23  1  0
 23 24  2  0
 24 25  1  0
 25 26  2  0
 26 27  1  0
 27 28  1  0
 28 29  2  0
 29 30  1  0
 30 31  2  0
 31 32  1  0
 32 33  2  0
 15 34  1  0
 34 35  1  0
 11  6  1  0
 35 12  1  0
 27 20  1  0
 33 28  1  0
 26 21  1  0
  1 36  1  0
  1 37  1  0
  1 38  1  0
  2 39  1  0
  2 40  1  0
  7 41  1  0
  8 42  1  0
  9 43  1  0
 10 44  1  0
 11 45  1  0
 12 46  1  0
 13 47  1  0
 13 48  1  0
 14 49  1  0
 14 50  1  0
 18 51  1  1
 19 52  1  0
 19 53  1  0
 20 54  1  1
 22 55  1  0
 23 56  1  0
 24 57  1  0
 25 58  1  0
 27 59  1  6
 29 60  1  0
 30 61  1  0
 31 62  1  0
 32 63  1  0
 33 64  1  0
 34 65  1  0
 34 66  1  0
 35 67  1  0
 35 68  1  0
M  END
>  <smiles>  (130) 
CCC(=O)N(c1ccccc1)C1CCN(C(=O)[C@@H](N)C2c3ccccc3C2c2ccccc2)CC1

>  <score_type>  (130) 
oracle

>  <origin>  (130) 
autodockgpu

>  <m_score__min__energy>  (130) 
-9.1199999999999992

>  <m_primary>  (130) 
energy

>  <rmsd>  (130) 
7.528732893571116

>  <m_score__min__rmsd>  (130) 
7.528732893571116

>  <meeko>  (130) 
{"free_energy": -8.36, "intermolecular_energy": -10.75, "internal_energy": -3.21, "cluster_size": 30, "cluster_id": 3, "rank_in_cluster": 11}

>  <energy>  (130) 
-8.11

>  <cluster_rmsd>  (130) 
0.81

>  <cluster>  (130) 
3

$$$$

     RDKit          3D

 68 72  0  0  0  0  0  0  0  0999 V2000
  137.9340   67.7090  222.1250 C   0  0  0  0  0  0  0  0  0  0  0  0
  139.0300   68.4980  222.7920 C   0  0  0  0  0  0  0  0  0  0  0  0
  138.4890   69.3380  223.9010 C   0  0  0  0  0  0  0  0  0  0  0  0
  137.3700   69.0230  224.3560 O   0  0  0  0  0  0  0  0  0  0  0  0
  139.2670   70.4310  224.3690 N   0  0  0  0  0  0  0  0  0  0  0  0
  139.8910   70.3940  225.6600 C   0  0  0  0  0  0  0  0  0  0  0  0
  140.5000   71.4940  226.2230 C   0  0  0  0  0  0  0  0  0  0  0  0
  141.0840   71.4080  227.4630 C   0  0  0  0  0  0  0  0  0  0  0  0
  141.0550   70.1920  228.1470 C   0  0  0  0  0  0  0  0  0  0  0  0
  140.4490   69.0810  227.5970 C   0  0  0  0  0  0  0  0  0  0  0  0
  139.8690   69.1890  226.3530 C   0  0  0  0  0  0  0  0  0  0  0  0
  139.4010   71.5780  223.4960 C   0  0  0  0  0  0  0  0  0  0  0  0
  138.2250   71.7470  222.5590 C   0  0  0  0  0  0  0  0  0  0  0  0
  138.6960   72.1800  221.1870 C   0  0  0  0  0  0  0  0  0  0  0  0
  139.7470   73.1710  221.2320 N   0  0  0  0  0  0  0  0  0  0  0  0
  139.6090   74.3720  220.4950 C   0  0  0  0  0  0  0  0  0  0  0  0
  138.5540   74.5160  219.8250 O   0  0  0  0  0  0  0  0  0  0  0  0
  140.6070   75.4620  220.4570 C   0  0  1  0  0  0  0  0  0  0  0  0
  140.4180   76.2750  219.3000 N   0  0  0  0  0  0  0  0  0  0  0  0
  140.3710   76.2780  221.7510 C   0  0  2  0  0  0  0  0  0  0  0  0
  138.9870   76.3110  222.1780 C   0  0  0  0  0  0  0  0  0  0  0  0
  137.8840   75.6540  222.7130 C   0  0  0  0  0  0  0  0  0  0  0  0
  136.6850   76.3120  222.8970 C   0  0  0  0  0  0  0  0  0  0  0  0
  136.5300   77.6400  222.5580 C   0  0  0  0  0  0  0  0  0  0  0  0
  137.6340   78.2910  222.0250 C   0  0  0  0  0  0  0  0  0  0  0  0
  138.8460   77.6160  221.8430 C   0  0  0  0  0  0  0  0  0  0  0  0
  140.2230   77.7160  221.3890 C   0  0  1  0  0  0  0  0  0  0  0  0
  141.1020   78.6120  222.1710 C   0  0  0  0  0  0  0  0  0  0  0  0
  141.7590   79.6210  221.4600 C   0  0  0  0  0  0  0  0  0  0  0  0
  142.5960   80.5180  222.0900 C   0  0  0  0  0  0  0  0  0  0  0  0
  142.8190   80.4540  223.4500 C   0  0  0  0  0  0  0  0  0  0  0  0
  142.1650   79.4510  224.1540 C   0  0  0  0  0  0  0  0  0  0  0  0
  141.3180   78.5460  223.5130 C   0  0  0  0  0  0  0  0  0  0  0  0
  140.9070   72.8590  222.0530 C   0  0  0  0  0  0  0  0  0  0  0  0
  140.6750   71.4980  222.6880 C   0  0  0  0  0  0  0  0  0  0  0  0
  137.2945   67.2486  222.8925 H   0  0  0  0  0  0  0  0  0  0  0  0
  137.3288   68.3800  221.4977 H   0  0  0  0  0  0  0  0  0  0  0  0
  138.3783   66.9222  221.4977 H   0  0  0  0  0  0  0  0  0  0  0  0
  139.7767   67.8012  223.2005 H   0  0  0  0  0  0  0  0  0  0  0  0
  139.4885   69.1608  222.0434 H   0  0  0  0  0  0  0  0  0  0  0  0
  140.5186   72.4479  225.6755 H   0  0  0  0  0  0  0  0  0  0  0  0
  141.5690   72.2874  227.9118 H   0  0  0  0  0  0  0  0  0  0  0  0
  141.5224   70.1180  229.1400 H   0  0  0  0  0  0  0  0  0  0  0  0
  140.4297   68.1261  228.1427 H   0  0  0  0  0  0  0  0  0  0  0  0
  139.3825   68.3115  225.9021 H   0  0  0  0  0  0  0  0  0  0  0  0
  139.4327   72.4571  224.1564 H   0  0  0  0  0  0  0  0  0  0  0  0
  137.6910   70.7892  222.4725 H   0  0  0  0  0  0  0  0  0  0  0  0
  137.5559   72.5200  222.9649 H   0  0  0  0  0  0  0  0  0  0  0  0
  139.0720   71.2958  220.6514 H   0  0  0  0  0  0  0  0  0  0  0  0
  137.8364   72.6383  220.6761 H   0  0  0  0  0  0  0  0  0  0  0  0
  141.6358   75.0765  220.4027 H   0  0  0  0  0  0  0  0  0  0  0  0
  139.4360   76.3040  218.9930 H   0  0  0  0  0  0  0  0  0  0  0  0
  141.0780   75.9410  218.5660 H   0  0  0  0  0  0  0  0  0  0  0  0
  141.1457   75.8825  222.4244 H   0  0  0  0  0  0  0  0  0  0  0  0
  137.9687   74.5938  222.9937 H   0  0  0  0  0  0  0  0  0  0  0  0
  135.8322   75.7641  223.3244 H   0  0  0  0  0  0  0  0  0  0  0  0
  135.5722   78.1610  222.7038 H   0  0  0  0  0  0  0  0  0  0  0  0
  137.5550   79.3511  221.7421 H   0  0  0  0  0  0  0  0  0  0  0  0
  140.4570   78.1106  220.3892 H   0  0  0  0  0  0  0  0  0  0  0  0
  141.6048   79.7011  220.3738 H   0  0  0  0  0  0  0  0  0  0  0  0
  143.0949   81.2988  221.4972 H   0  0  0  0  0  0  0  0  0  0  0  0
  143.4866   81.1673  223.9555 H   0  0  0  0  0  0  0  0  0  0  0  0
  142.3180   79.3683  225.2402 H   0  0  0  0  0  0  0  0  0  0  0  0
  140.8159   77.7652  224.1031 H   0  0  0  0  0  0  0  0  0  0  0  0
  141.8113   72.8306  221.4274 H   0  0  0  0  0  0  0  0  0  0  0  0
  141.0457   73.6262  222.8290 H   0  0  0  0  0  0  0  0  0  0  0  0
  140.5744   70.7318  221.9052 H   0  0  0  0  0  0  0  0  0  0  0  0
  141.5232   71.2247  223.3329 H   0  0  0  0  0  0  0  0  0  0  0  0
  1  2  1  0
  2  3  1  0
  3  4  2  0
  3  5  1  0
  5  6  1  0
  6  7  2  0
  7  8  1  0
  8  9  2  0
  9 10  1  0
 10 11  2  0
  5 12  1  0
 12 13  1  0
 13 14  1  0
 14 15  1  0
 15 16  1  0
 16 17  2  0
 16 18  1  0
 18 19  1  0
 18 20  1  0
 20 21  1  0
 21 22  2  0
 22 23  1  0
 23 24  2  0
 24 25  1  0
 25 26  2  0
 26 27  1  0
 27 28  1  0
 28 29  2  0
 29 30  1  0
 30 31  2  0
 31 32  1  0
 32 33  2  0
 15 34  1  0
 34 35  1  0
 11  6  1  0
 35 12  1  0
 27 20  1  0
 33 28  1  0
 26 21  1  0
  1 36  1  0
  1 37  1  0
  1 38  1  0
  2 39  1  0
  2 40  1  0
  7 41  1  0
  8 42  1  0
  9 43  1  0
 10 44  1  0
 11 45  1  0
 12 46  1  0
 13 47  1  0
 13 48  1  0
 14 49  1  0
 14 50  1  0
 18 51  1  1
 19 52  1  0
 19 53  1  0
 20 54  1  1
 22 55  1  0
 23 56  1  0
 24 57  1  0
 25 58  1  0
 27 59  1  6
 29 60  1  0
 30 61  1  0
 31 62  1  0
 32 63  1  0
 33 64  1  0
 34 65  1  0
 34 66  1  0
 35 67  1  0
 35 68  1  0
M  END
>  <smiles>  (131) 
CCC(=O)N(c1ccccc1)C1CCN(C(=O)[C@@H](N)C2c3ccccc3C2c2ccccc2)CC1

>  <score_type>  (131) 
oracle

>  <origin>  (131) 
autodockgpu

>  <m_score__min__energy>  (131) 
-9.1199999999999992

>  <m_primary>  (131) 
energy

>  <rmsd>  (131) 
7.496494965146423

>  <m_score__min__rmsd>  (131) 
7.496494965146423

>  <meeko>  (131) 
{"free_energy": -8.36, "intermolecular_energy": -10.74, "internal_energy": -3.19, "cluster_size": 30, "cluster_id": 3, "rank_in_cluster": 12}

>  <energy>  (131) 
-8.1

>  <cluster_rmsd>  (131) 
0.63

>  <cluster>  (131) 
3

$$$$

     RDKit          3D

 68 72  0  0  0  0  0  0  0  0999 V2000
  138.5920   68.3970  221.9740 C   0  0  0  0  0  0  0  0  0  0  0  0
  138.8200   68.1930  223.4490 C   0  0  0  0  0  0  0  0  0  0  0  0
  138.2250   69.3080  224.2440 C   0  0  0  0  0  0  0  0  0  0  0  0
  136.9970   69.2580  224.4580 O   0  0  0  0  0  0  0  0  0  0  0  0
  139.0790   70.3470  224.7030 N   0  0  0  0  0  0  0  0  0  0  0  0
  139.7650   70.2370  225.9570 C   0  0  0  0  0  0  0  0  0  0  0  0
  139.8240   69.0610  226.6720 C   0  0  0  0  0  0  0  0  0  0  0  0
  140.4940   69.0070  227.8700 C   0  0  0  0  0  0  0  0  0  0  0  0
  141.1160   70.1580  228.3550 C   0  0  0  0  0  0  0  0  0  0  0  0
  141.0670   71.3430  227.6510 C   0  0  0  0  0  0  0  0  0  0  0  0
  140.3890   71.3770  226.4530 C   0  0  0  0  0  0  0  0  0  0  0  0
  139.2250   71.5140  223.8590 C   0  0  0  0  0  0  0  0  0  0  0  0
  137.9880   71.8080  223.0380 C   0  0  0  0  0  0  0  0  0  0  0  0
  138.3700   72.2580  221.6440 C   0  0  0  0  0  0  0  0  0  0  0  0
  139.4940   73.1660  221.6270 N   0  0  0  0  0  0  0  0  0  0  0  0
  139.3860   74.4020  220.9450 C   0  0  0  0  0  0  0  0  0  0  0  0
  138.2910   74.6500  220.3780 O   0  0  0  0  0  0  0  0  0  0  0  0
  140.4590   75.4150  220.8530 C   0  0  1  0  0  0  0  0  0  0  0  0
  140.3740   76.1250  219.6180 N   0  0  0  0  0  0  0  0  0  0  0  0
  140.2280   76.3650  222.0530 C   0  0  2  0  0  0  0  0  0  0  0  0
  138.8340   76.5190  222.4180 C   0  0  0  0  0  0  0  0  0  0  0  0
  137.6750   75.9820  222.9680 C   0  0  0  0  0  0  0  0  0  0  0  0
  136.5120   76.7220  223.0390 C   0  0  0  0  0  0  0  0  0  0  0  0
  136.4520   78.0180  222.5690 C   0  0  0  0  0  0  0  0  0  0  0  0
  137.6110   78.5500  222.0230 C   0  0  0  0  0  0  0  0  0  0  0  0
  138.7850   77.7920  221.9550 C   0  0  0  0  0  0  0  0  0  0  0  0
  140.1810   77.7680  221.5500 C   0  0  1  0  0  0  0  0  0  0  0  0
  141.0850   78.6830  222.2790 C   0  0  0  0  0  0  0  0  0  0  0  0
  141.7420   79.6530  221.5160 C   0  0  0  0  0  0  0  0  0  0  0  0
  142.6020   80.5630  222.0930 C   0  0  0  0  0  0  0  0  0  0  0  0
  142.8470   80.5530  223.4500 C   0  0  0  0  0  0  0  0  0  0  0  0
  142.1940   79.5890  224.2070 C   0  0  0  0  0  0  0  0  0  0  0  0
  141.3240   78.6690  223.6180 C   0  0  0  0  0  0  0  0  0  0  0  0
  140.6930   72.7360  222.3290 C   0  0  0  0  0  0  0  0  0  0  0  0
  140.4140   71.3720  222.9380 C   0  0  0  0  0  0  0  0  0  0  0  0
  137.7797   69.1238  221.8256 H   0  0  0  0  0  0  0  0  0  0  0  0
  139.5138   68.7775  221.5097 H   0  0  0  0  0  0  0  0  0  0  0  0
  138.3160   67.4388  221.5097 H   0  0  0  0  0  0  0  0  0  0  0  0
  138.3553   67.2446  223.7566 H   0  0  0  0  0  0  0  0  0  0  0  0
  139.9039   68.1707  223.6352 H   0  0  0  0  0  0  0  0  0  0  0  0
  139.3311   68.1588  226.2808 H   0  0  0  0  0  0  0  0  0  0  0  0
  140.5396   68.0675  228.4402 H   0  0  0  0  0  0  0  0  0  0  0  0
  141.6538   70.1197  229.3138 H   0  0  0  0  0  0  0  0  0  0  0  0
  141.5611   72.2455  228.0399 H   0  0  0  0  0  0  0  0  0  0  0  0
  140.3403   72.3159  225.8820 H   0  0  0  0  0  0  0  0  0  0  0  0
  139.3824   72.3616  224.5423 H   0  0  0  0  0  0  0  0  0  0  0  0
  137.3748   70.8974  222.9689 H   0  0  0  0  0  0  0  0  0  0  0  0
  137.4196   72.6124  223.5277 H   0  0  0  0  0  0  0  0  0  0  0  0
  138.6288   71.3700  221.0486 H   0  0  0  0  0  0  0  0  0  0  0  0
  137.5072   72.7980  221.2269 H   0  0  0  0  0  0  0  0  0  0  0  0
  141.4595   74.9588  220.8829 H   0  0  0  0  0  0  0  0  0  0  0  0
  139.4320   76.0870  219.2040 H   0  0  0  0  0  0  0  0  0  0  0  0
  141.1230   75.7600  218.9900 H   0  0  0  0  0  0  0  0  0  0  0  0
  140.9528   75.9929  222.7920 H   0  0  0  0  0  0  0  0  0  0  0  0
  137.6853   74.9514  223.3525 H   0  0  0  0  0  0  0  0  0  0  0  0
  135.6124   76.2682  223.4804 H   0  0  0  0  0  0  0  0  0  0  0  0
  135.5234   78.6051  222.6250 H   0  0  0  0  0  0  0  0  0  0  0  0
  137.6069   79.5807  221.6387 H   0  0  0  0  0  0  0  0  0  0  0  0
  140.4735   78.0496  220.5277 H   0  0  0  0  0  0  0  0  0  0  0  0
  141.5688   79.6910  220.4304 H   0  0  0  0  0  0  0  0  0  0  0  0
  143.1018   81.3106  221.4595 H   0  0  0  0  0  0  0  0  0  0  0  0
  143.5314   81.2786  223.9137 H   0  0  0  0  0  0  0  0  0  0  0  0
  142.3656   79.5493  225.2928 H   0  0  0  0  0  0  0  0  0  0  0  0
  140.8230   77.9195  224.2482 H   0  0  0  0  0  0  0  0  0  0  0  0
  141.5340   72.6653  221.6235 H   0  0  0  0  0  0  0  0  0  0  0  0
  140.9573   73.4594  223.1144 H   0  0  0  0  0  0  0  0  0  0  0  0
  140.1874   70.6462  222.1431 H   0  0  0  0  0  0  0  0  0  0  0  0
  141.2917   71.0123  223.4950 H   0  0  0  0  0  0  0  0  0  0  0  0
  1  2  1  0
  2  3  1  0
  3  4  2  0
  3  5  1  0
  5  6  1  0
  6  7  2  0
  7  8  1  0
  8  9  2  0
  9 10  1  0
 10 11  2  0
  5 12  1  0
 12 13  1  0
 13 14  1  0
 14 15  1  0
 15 16  1  0
 16 17  2  0
 16 18  1  0
 18 19  1  0
 18 20  1  0
 20 21  1  0
 21 22  2  0
 22 23  1  0
 23 24  2  0
 24 25  1  0
 25 26  2  0
 26 27  1  0
 27 28  1  0
 28 29  2  0
 29 30  1  0
 30 31  2  0
 31 32  1  0
 32 33  2  0
 15 34  1  0
 34 35  1  0
 11  6  1  0
 35 12  1  0
 27 20  1  0
 33 28  1  0
 26 21  1  0
  1 36  1  0
  1 37  1  0
  1 38  1  0
  2 39  1  0
  2 40  1  0
  7 41  1  0
  8 42  1  0
  9 43  1  0
 10 44  1  0
 11 45  1  0
 12 46  1  0
 13 47  1  0
 13 48  1  0
 14 49  1  0
 14 50  1  0
 18 51  1  1
 19 52  1  0
 19 53  1  0
 20 54  1  1
 22 55  1  0
 23 56  1  0
 24 57  1  0
 25 58  1  0
 27 59  1  6
 29 60  1  0
 30 61  1  0
 31 62  1  0
 32 63  1  0
 33 64  1  0
 34 65  1  0
 34 66  1  0
 35 67  1  0
 35 68  1  0
M  END
>  <smiles>  (132) 
CCC(=O)N(c1ccccc1)C1CCN(C(=O)[C@@H](N)C2c3ccccc3C2c2ccccc2)CC1

>  <score_type>  (132) 
oracle

>  <origin>  (132) 
autodockgpu

>  <m_score__min__energy>  (132) 
-9.1199999999999992

>  <m_primary>  (132) 
energy

>  <rmsd>  (132) 
7.578366559850326

>  <m_score__min__rmsd>  (132) 
7.578366559850326

>  <meeko>  (132) 
{"free_energy": -8.55, "intermolecular_energy": -10.93, "internal_energy": -3.08, "cluster_size": 30, "cluster_id": 3, "rank_in_cluster": 4}

>  <energy>  (132) 
-7.98

>  <cluster_rmsd>  (132) 
1.04

>  <cluster>  (132) 
3

$$$$

     RDKit          3D

 68 72  0  0  0  0  0  0  0  0999 V2000
  143.2460   80.5360  223.5920 C   0  0  0  0  0  0  0  0  0  0  0  0
  142.1750   81.5900  223.6880 C   0  0  0  0  0  0  0  0  0  0  0  0
  140.8930   81.1080  223.0940 C   0  0  0  0  0  0  0  0  0  0  0  0
  139.8600   81.2630  223.7760 O   0  0  0  0  0  0  0  0  0  0  0  0
  140.9220   80.5100  221.8060 N   0  0  0  0  0  0  0  0  0  0  0  0
  141.1860   81.2930  220.6340 C   0  0  0  0  0  0  0  0  0  0  0  0
  140.8240   82.6180  220.5290 C   0  0  0  0  0  0  0  0  0  0  0  0
  141.1000   83.3270  219.3850 C   0  0  0  0  0  0  0  0  0  0  0  0
  141.7510   82.6880  218.3280 C   0  0  0  0  0  0  0  0  0  0  0  0
  142.1200   81.3620  218.4180 C   0  0  0  0  0  0  0  0  0  0  0  0
  141.8340   80.6690  219.5740 C   0  0  0  0  0  0  0  0  0  0  0  0
  140.6740   79.0860  221.7250 C   0  0  0  0  0  0  0  0  0  0  0  0
  139.2370   78.7550  221.3860 C   0  0  0  0  0  0  0  0  0  0  0  0
  138.7640   77.5580  222.1830 C   0  0  0  0  0  0  0  0  0  0  0  0
  139.7550   76.5100  222.2770 N   0  0  0  0  0  0  0  0  0  0  0  0
  139.4100   75.1840  221.9200 C   0  0  0  0  0  0  0  0  0  0  0  0
  138.2310   74.9850  221.5300 O   0  0  0  0  0  0  0  0  0  0  0  0
  140.3270   74.0270  221.9720 C   0  0  1  0  0  0  0  0  0  0  0  0
  139.5960   72.8140  222.1500 N   0  0  0  0  0  0  0  0  0  0  0  0
  141.0670   74.0300  220.6120 C   0  0  2  0  0  0  0  0  0  0  0  0
  142.2010   73.1290  220.5610 C   0  0  0  0  0  0  0  0  0  0  0  0
  142.6980   71.8300  220.5210 C   0  0  0  0  0  0  0  0  0  0  0  0
  144.0560   71.5890  220.4830 C   0  0  0  0  0  0  0  0  0  0  0  0
  144.9730   72.6200  220.4820 C   0  0  0  0  0  0  0  0  0  0  0  0
  144.4730   73.9140  220.5200 C   0  0  0  0  0  0  0  0  0  0  0  0
  143.0940   74.1490  220.5590 C   0  0  0  0  0  0  0  0  0  0  0  0
  142.0450   75.1540  220.6020 C   0  0  1  0  0  0  0  0  0  0  0  0
  141.9290   76.0230  219.4100 C   0  0  0  0  0  0  0  0  0  0  0  0
  142.9530   76.9540  219.2120 C   0  0  0  0  0  0  0  0  0  0  0  0
  142.9500   77.8080  218.1300 C   0  0  0  0  0  0  0  0  0  0  0  0
  141.9330   77.7780  217.1990 C   0  0  0  0  0  0  0  0  0  0  0  0
  140.9170   76.8520  217.3970 C   0  0  0  0  0  0  0  0  0  0  0  0
  140.9240   75.9890  218.4940 C   0  0  0  0  0  0  0  0  0  0  0  0
  141.0760   76.8990  222.7470 C   0  0  0  0  0  0  0  0  0  0  0  0
  141.0550   78.3940  223.0130 C   0  0  0  0  0  0  0  0  0  0  0  0
  143.5539   80.2330  224.6036 H   0  0  0  0  0  0  0  0  0  0  0  0
  142.8533   79.6624  223.0511 H   0  0  0  0  0  0  0  0  0  0  0  0
  144.1132   80.9427  223.0511 H   0  0  0  0  0  0  0  0  0  0  0  0
  142.0095   81.8388  224.7466 H   0  0  0  0  0  0  0  0  0  0  0  0
  142.5070   82.4779  223.1299 H   0  0  0  0  0  0  0  0  0  0  0  0
  140.3103   83.1119  221.3670 H   0  0  0  0  0  0  0  0  0  0  0  0
  140.8116   84.3853  219.3028 H   0  0  0  0  0  0  0  0  0  0  0  0
  141.9731   83.2507  217.4093 H   0  0  0  0  0  0  0  0  0  0  0  0
  142.6338   80.8663  217.5812 H   0  0  0  0  0  0  0  0  0  0  0  0
  142.1215   79.6106  219.6592 H   0  0  0  0  0  0  0  0  0  0  0  0
  141.3058   78.7176  220.9034 H   0  0  0  0  0  0  0  0  0  0  0  0
  138.6011   79.6209  221.6223 H   0  0  0  0  0  0  0  0  0  0  0  0
  139.1713   78.5160  220.3143 H   0  0  0  0  0  0  0  0  0  0  0  0
  138.5112   77.8926  223.1999 H   0  0  0  0  0  0  0  0  0  0  0  0
  137.8930   77.1387  221.6581 H   0  0  0  0  0  0  0  0  0  0  0  0
  141.0282   74.0962  222.8167 H   0  0  0  0  0  0  0  0  0  0  0  0
  139.4820   72.2880  221.2730 H   0  0  0  0  0  0  0  0  0  0  0  0
  138.6940   73.0540  222.6170 H   0  0  0  0  0  0  0  0  0  0  0  0
  140.2417   73.9177  219.8935 H   0  0  0  0  0  0  0  0  0  0  0  0
  141.9973   70.9820  220.5196 H   0  0  0  0  0  0  0  0  0  0  0  0
  144.4162   70.5501  220.4528 H   0  0  0  0  0  0  0  0  0  0  0  0
  146.0551   72.4244  220.4523 H   0  0  0  0  0  0  0  0  0  0  0  0
  145.1693   74.7656  220.5195 H   0  0  0  0  0  0  0  0  0  0  0  0
  142.0570   75.9455  221.3658 H   0  0  0  0  0  0  0  0  0  0  0  0
  143.7796   77.0062  219.9359 H   0  0  0  0  0  0  0  0  0  0  0  0
  143.7738   78.5265  218.0069 H   0  0  0  0  0  0  0  0  0  0  0  0
  141.9268   78.4593  216.3354 H   0  0  0  0  0  0  0  0  0  0  0  0
  140.0896   76.7976  216.6742 H   0  0  0  0  0  0  0  0  0  0  0  0
  140.1023   75.2687  218.6200 H   0  0  0  0  0  0  0  0  0  0  0  0
  141.3174   76.3578  223.6737 H   0  0  0  0  0  0  0  0  0  0  0  0
  141.8385   76.6546  221.9928 H   0  0  0  0  0  0  0  0  0  0  0  0
  140.3163   78.6248  223.7947 H   0  0  0  0  0  0  0  0  0  0  0  0
  142.0418   78.7374  223.3568 H   0  0  0  0  0  0  0  0  0  0  0  0
  1  2  1  0
  2  3  1  0
  3  4  2  0
  3  5  1  0
  5  6  1  0
  6  7  2  0
  7  8  1  0
  8  9  2  0
  9 10  1  0
 10 11  2  0
  5 12  1  0
 12 13  1  0
 13 14  1  0
 14 15  1  0
 15 16  1  0
 16 17  2  0
 16 18  1  0
 18 19  1  0
 18 20  1  0
 20 21  1  0
 21 22  2  0
 22 23  1  0
 23 24  2  0
 24 25  1  0
 25 26  2  0
 26 27  1  0
 27 28  1  0
 28 29  2  0
 29 30  1  0
 30 31  2  0
 31 32  1  0
 32 33  2  0
 15 34  1  0
 34 35  1  0
 11  6  1  0
 35 12  1  0
 27 20  1  0
 33 28  1  0
 26 21  1  0
  1 36  1  0
  1 37  1  0
  1 38  1  0
  2 39  1  0
  2 40  1  0
  7 41  1  0
  8 42  1  0
  9 43  1  0
 10 44  1  0
 11 45  1  0
 12 46  1  0
 13 47  1  0
 13 48  1  0
 14 49  1  0
 14 50  1  0
 18 51  1  1
 19 52  1  0
 19 53  1  0
 20 54  1  6
 22 55  1  0
 23 56  1  0
 24 57  1  0
 25 58  1  0
 27 59  1  1
 29 60  1  0
 30 61  1  0
 31 62  1  0
 32 63  1  0
 33 64  1  0
 34 65  1  0
 34 66  1  0
 35 67  1  0
 35 68  1  0
M  END
>  <smiles>  (133) 
CCC(=O)N(c1ccccc1)C1CCN(C(=O)[C@@H](N)C2c3ccccc3C2c2ccccc2)CC1

>  <score_type>  (133) 
oracle

>  <origin>  (133) 
autodockgpu

>  <m_score__min__energy>  (133) 
-9.1199999999999992

>  <m_primary>  (133) 
energy

>  <rmsd>  (133) 
6.676138373606624

>  <m_score__min__rmsd>  (133) 
6.676138373606624

>  <meeko>  (133) 
{"free_energy": -7.25, "intermolecular_energy": -9.64, "internal_energy": -3.95, "cluster_size": 4, "cluster_id": 7, "rank_in_cluster": 2}

>  <energy>  (133) 
-7.77

>  <cluster_rmsd>  (133) 
1.52

>  <cluster>  (133) 
3

$$$$

     RDKit          3D

 68 72  0  0  0  0  0  0  0  0999 V2000
  138.8010   67.3340  222.7420 C   0  0  0  0  0  0  0  0  0  0  0  0
  138.9250   68.7850  222.3570 C   0  0  0  0  0  0  0  0  0  0  0  0
  138.3630   69.6720  223.4180 C   0  0  0  0  0  0  0  0  0  0  0  0
  137.1680   69.4960  223.7280 O   0  0  0  0  0  0  0  0  0  0  0  0
  139.2100   70.6510  224.0050 N   0  0  0  0  0  0  0  0  0  0  0  0
  139.8160   70.4310  225.2850 C   0  0  0  0  0  0  0  0  0  0  0  0
  140.4750   71.4240  225.9760 C   0  0  0  0  0  0  0  0  0  0  0  0
  141.0400   71.1630  227.2010 C   0  0  0  0  0  0  0  0  0  0  0  0
  140.9390   69.8790  227.7380 C   0  0  0  0  0  0  0  0  0  0  0  0
  140.2820   68.8740  227.0590 C   0  0  0  0  0  0  0  0  0  0  0  0
  139.7230   69.1560  225.8320 C   0  0  0  0  0  0  0  0  0  0  0  0
  139.4320   71.8740  223.2620 C   0  0  0  0  0  0  0  0  0  0  0  0
  138.2940   72.2100  222.3240 C   0  0  0  0  0  0  0  0  0  0  0  0
  138.8260   72.7560  221.0160 C   0  0  0  0  0  0  0  0  0  0  0  0
  139.9290   73.6740  221.1890 N   0  0  0  0  0  0  0  0  0  0  0  0
  139.8800   74.9520  220.5820 C   0  0  0  0  0  0  0  0  0  0  0  0
  138.8530   75.2270  219.9090 O   0  0  0  0  0  0  0  0  0  0  0  0
  140.9380   75.9790  220.6820 C   0  0  1  0  0  0  0  0  0  0  0  0
  140.9400   76.8120  219.5240 N   0  0  0  0  0  0  0  0  0  0  0  0
  140.5960   76.7970  221.9500 C   0  0  2  0  0  0  0  0  0  0  0  0
  139.1980   76.7360  222.3270 C   0  0  0  0  0  0  0  0  0  0  0  0
  138.1260   76.0100  222.8350 C   0  0  0  0  0  0  0  0  0  0  0  0
  136.8760   76.5810  222.9620 C   0  0  0  0  0  0  0  0  0  0  0  0
  136.6390   77.8890  222.5920 C   0  0  0  0  0  0  0  0  0  0  0  0
  137.7120   78.6100  222.0870 C   0  0  0  0  0  0  0  0  0  0  0  0
  138.9760   78.0220  221.9610 C   0  0  0  0  0  0  0  0  0  0  0  0
  140.3570   78.2150  221.5560 C   0  0  1  0  0  0  0  0  0  0  0  0
  141.1400   79.1850  222.3520 C   0  0  0  0  0  0  0  0  0  0  0  0
  141.1380   80.5090  221.9020 C   0  0  0  0  0  0  0  0  0  0  0  0
  141.8260   81.4980  222.5710 C   0  0  0  0  0  0  0  0  0  0  0  0
  142.5460   81.2190  223.7150 C   0  0  0  0  0  0  0  0  0  0  0  0
  142.5470   79.9040  224.1600 C   0  0  0  0  0  0  0  0  0  0  0  0
  141.8480   78.9050  223.4790 C   0  0  0  0  0  0  0  0  0  0  0  0
  141.0470   73.2090  221.9970 C   0  0  0  0  0  0  0  0  0  0  0  0
  140.7220   71.8050  222.4780 C   0  0  0  0  0  0  0  0  0  0  0  0
  138.7934   67.2449  223.8384 H   0  0  0  0  0  0  0  0  0  0  0  0
  137.8646   66.9252  222.3344 H   0  0  0  0  0  0  0  0  0  0  0  0
  139.6544   66.7723  222.3344 H   0  0  0  0  0  0  0  0  0  0  0  0
  139.9877   69.0284  222.2108 H   0  0  0  0  0  0  0  0  0  0  0  0
  138.3595   68.9497  221.4280 H   0  0  0  0  0  0  0  0  0  0  0  0
  140.5494   72.4329  225.5440 H   0  0  0  0  0  0  0  0  0  0  0  0
  141.5657   71.9568  227.7519 H   0  0  0  0  0  0  0  0  0  0  0  0
  141.3903   69.6649  228.7180 H   0  0  0  0  0  0  0  0  0  0  0  0
  140.2058   67.8648  227.4899 H   0  0  0  0  0  0  0  0  0  0  0  0
  139.1973   68.3638  225.2788 H   0  0  0  0  0  0  0  0  0  0  0  0
  139.4944   72.6755  224.0128 H   0  0  0  0  0  0  0  0  0  0  0  0
  137.7089   71.3001  222.1248 H   0  0  0  0  0  0  0  0  0  0  0  0
  137.6592   72.9745  222.7957 H   0  0  0  0  0  0  0  0  0  0  0  0
  139.1669   71.9124  220.3978 H   0  0  0  0  0  0  0  0  0  0  0  0
  138.0078   73.3144  220.5379 H   0  0  0  0  0  0  0  0  0  0  0  0
  141.9407   75.5313  220.7462 H   0  0  0  0  0  0  0  0  0  0  0  0
  140.1470   76.6190  218.8960 H   0  0  0  0  0  0  0  0  0  0  0  0
  141.8710   76.7160  219.0650 H   0  0  0  0  0  0  0  0  0  0  0  0
  141.3724   76.4704  222.6575 H   0  0  0  0  0  0  0  0  0  0  0  0
  138.2769   74.9641  223.1404 H   0  0  0  0  0  0  0  0  0  0  0  0
  136.0493   75.9793  223.3677 H   0  0  0  0  0  0  0  0  0  0  0  0
  135.6414   78.3413  222.6930 H   0  0  0  0  0  0  0  0  0  0  0  0
  137.5673   79.6569  221.7819 H   0  0  0  0  0  0  0  0  0  0  0  0
  140.5982   78.6101  220.5581 H   0  0  0  0  0  0  0  0  0  0  0  0
  140.5744   80.7669  220.9933 H   0  0  0  0  0  0  0  0  0  0  0  0
  141.8009   82.5283  222.1864 H   0  0  0  0  0  0  0  0  0  0  0  0
  143.0962   82.0059  224.2518 H   0  0  0  0  0  0  0  0  0  0  0  0
  143.1103   79.6434  225.0682 H   0  0  0  0  0  0  0  0  0  0  0  0
  141.8705   77.8736  223.8608 H   0  0  0  0  0  0  0  0  0  0  0  0
  141.9652   73.1936  221.3914 H   0  0  0  0  0  0  0  0  0  0  0  0
  141.2068   73.8805  222.8534 H   0  0  0  0  0  0  0  0  0  0  0  0
  140.6008   71.1325  221.6160 H   0  0  0  0  0  0  0  0  0  0  0  0
  141.5352   71.4163  223.1085 H   0  0  0  0  0  0  0  0  0  0  0  0
  1  2  1  0
  2  3  1  0
  3  4  2  0
  3  5  1  0
  5  6  1  0
  6  7  2  0
  7  8  1  0
  8  9  2  0
  9 10  1  0
 10 11  2  0
  5 12  1  0
 12 13  1  0
 13 14  1  0
 14 15  1  0
 15 16  1  0
 16 17  2  0
 16 18  1  0
 18 19  1  0
 18 20  1  0
 20 21  1  0
 21 22  2  0
 22 23  1  0
 23 24  2  0
 24 25  1  0
 25 26  2  0
 26 27  1  0
 27 28  1  0
 28 29  2  0
 29 30  1  0
 30 31  2  0
 31 32  1  0
 32 33  2  0
 15 34  1  0
 34 35  1  0
 11  6  1  0
 35 12  1  0
 27 20  1  0
 33 28  1  0
 26 21  1  0
  1 36  1  0
  1 37  1  0
  1 38  1  0
  2 39  1  0
  2 40  1  0
  7 41  1  0
  8 42  1  0
  9 43  1  0
 10 44  1  0
 11 45  1  0
 12 46  1  0
 13 47  1  0
 13 48  1  0
 14 49  1  0
 14 50  1  0
 18 51  1  1
 19 52  1  0
 19 53  1  0
 20 54  1  1
 22 55  1  0
 23 56  1  0
 24 57  1  0
 25 58  1  0
 27 59  1  6
 29 60  1  0
 30 61  1  0
 31 62  1  0
 32 63  1  0
 33 64  1  0
 34 65  1  0
 34 66  1  0
 35 67  1  0
 35 68  1  0
M  END
>  <smiles>  (134) 
CCC(=O)N(c1ccccc1)C1CCN(C(=O)[C@@H](N)C2c3ccccc3C2c2ccccc2)CC1

>  <score_type>  (134) 
oracle

>  <origin>  (134) 
autodockgpu

>  <m_score__min__energy>  (134) 
-9.1199999999999992

>  <m_primary>  (134) 
energy

>  <rmsd>  (134) 
7.7185738792314105

>  <m_score__min__rmsd>  (134) 
7.7185738792314105

>  <meeko>  (134) 
{"free_energy": -8.25, "intermolecular_energy": -10.64, "internal_energy": -3.14, "cluster_size": 30, "cluster_id": 3, "rank_in_cluster": 18}

>  <energy>  (134) 
-7.65

>  <cluster_rmsd>  (134) 
1.62

>  <cluster>  (134) 
3

$$$$

     RDKit          3D

 68 72  0  0  0  0  0  0  0  0999 V2000
  138.8270   67.1330  222.7730 C   0  0  0  0  0  0  0  0  0  0  0  0
  138.8470   68.6230  222.5520 C   0  0  0  0  0  0  0  0  0  0  0  0
  138.4100   69.3530  223.7790 C   0  0  0  0  0  0  0  0  0  0  0  0
  137.3310   68.9990  224.2950 O   0  0  0  0  0  0  0  0  0  0  0  0
  139.2370   70.3940  224.2820 N   0  0  0  0  0  0  0  0  0  0  0  0
  139.8680   70.2810  225.5640 C   0  0  0  0  0  0  0  0  0  0  0  0
  140.4390   71.3570  226.2080 C   0  0  0  0  0  0  0  0  0  0  0  0
  141.0320   71.1980  227.4370 C   0  0  0  0  0  0  0  0  0  0  0  0
  141.0510   69.9330  228.0250 C   0  0  0  0  0  0  0  0  0  0  0  0
  140.4840   68.8460  227.3930 C   0  0  0  0  0  0  0  0  0  0  0  0
  139.8940   69.0270  226.1620 C   0  0  0  0  0  0  0  0  0  0  0  0
  139.4130   71.5670  223.4510 C   0  0  0  0  0  0  0  0  0  0  0  0
  138.2450   71.8130  222.5210 C   0  0  0  0  0  0  0  0  0  0  0  0
  138.7330   72.2790  221.1660 C   0  0  0  0  0  0  0  0  0  0  0  0
  139.8180   73.2300  221.2480 N   0  0  0  0  0  0  0  0  0  0  0  0
  139.7240   74.4620  220.5560 C   0  0  0  0  0  0  0  0  0  0  0  0
  138.6760   74.6670  219.8920 O   0  0  0  0  0  0  0  0  0  0  0  0
  140.7600   75.5150  220.5580 C   0  0  1  0  0  0  0  0  0  0  0  0
  140.6670   76.3130  219.3790 N   0  0  0  0  0  0  0  0  0  0  0  0
  140.4780   76.3640  221.8220 C   0  0  2  0  0  0  0  0  0  0  0  0
  139.0830   76.3870  222.2120 C   0  0  0  0  0  0  0  0  0  0  0  0
  137.9750   75.7290  222.7360 C   0  0  0  0  0  0  0  0  0  0  0  0
  136.7620   76.3730  222.8690 C   0  0  0  0  0  0  0  0  0  0  0  0
  136.5970   77.6890  222.4890 C   0  0  0  0  0  0  0  0  0  0  0  0
  137.7050   78.3420  221.9670 C   0  0  0  0  0  0  0  0  0  0  0  0
  138.9320   77.6810  221.8360 C   0  0  0  0  0  0  0  0  0  0  0  0
  140.3180   77.7890  221.4160 C   0  0  1  0  0  0  0  0  0  0  0  0
  141.1630   78.7200  222.1950 C   0  0  0  0  0  0  0  0  0  0  0  0
  141.7590   79.7670  221.4860 C   0  0  0  0  0  0  0  0  0  0  0  0
  142.5590   80.6980  222.1130 C   0  0  0  0  0  0  0  0  0  0  0  0
  142.8040   80.6320  223.4690 C   0  0  0  0  0  0  0  0  0  0  0  0
  142.2120   79.5910  224.1720 C   0  0  0  0  0  0  0  0  0  0  0  0
  141.4020   78.6510  223.5320 C   0  0  0  0  0  0  0  0  0  0  0  0
  140.9650   72.8460  222.0570 C   0  0  0  0  0  0  0  0  0  0  0  0
  140.6850   71.4720  222.6410 C   0  0  0  0  0  0  0  0  0  0  0  0
  138.8242   66.9225  223.8527 H   0  0  0  0  0  0  0  0  0  0  0  0
  137.9230   66.7063  222.3138 H   0  0  0  0  0  0  0  0  0  0  0  0
  139.7192   66.6822  222.3138 H   0  0  0  0  0  0  0  0  0  0  0  0
  139.8699   68.9344  222.2936 H   0  0  0  0  0  0  0  0  0  0  0  0
  138.1518   68.8649  221.7346 H   0  0  0  0  0  0  0  0  0  0  0  0
  140.4199   72.3499  225.7349 H   0  0  0  0  0  0  0  0  0  0  0  0
  141.4863   72.0577  227.9512 H   0  0  0  0  0  0  0  0  0  0  0  0
  141.5258   69.8004  229.0084 H   0  0  0  0  0  0  0  0  0  0  0  0
  140.5028   67.8521  227.8640 H   0  0  0  0  0  0  0  0  0  0  0  0
  139.4381   68.1691  225.6462 H   0  0  0  0  0  0  0  0  0  0  0  0
  139.4749   72.4195  224.1434 H   0  0  0  0  0  0  0  0  0  0  0  0
  137.6767   70.8791  222.3992 H   0  0  0  0  0  0  0  0  0  0  0  0
  137.6038   72.5942  222.9553 H   0  0  0  0  0  0  0  0  0  0  0  0
  139.0786   71.4024  220.5984 H   0  0  0  0  0  0  0  0  0  0  0  0
  137.8909   72.7855  220.6717 H   0  0  0  0  0  0  0  0  0  0  0  0
  141.7755   75.0924  220.5703 H   0  0  0  0  0  0  0  0  0  0  0  0
  139.7220   76.3070  218.9700 H   0  0  0  0  0  0  0  0  0  0  0  0
  141.4110   75.9940  218.7210 H   0  0  0  0  0  0  0  0  0  0  0  0
  141.2409   76.0000  222.5259 H   0  0  0  0  0  0  0  0  0  0  0  0
  138.0674   74.6786  223.0493 H   0  0  0  0  0  0  0  0  0  0  0  0
  135.9059   75.8240  223.2881 H   0  0  0  0  0  0  0  0  0  0  0  0
  135.6283   78.1992  222.5952 H   0  0  0  0  0  0  0  0  0  0  0  0
  137.6178   79.3924  221.6522 H   0  0  0  0  0  0  0  0  0  0  0  0
  140.5724   78.1591  220.4118 H   0  0  0  0  0  0  0  0  0  0  0  0
  141.5856   79.8498  220.4029 H   0  0  0  0  0  0  0  0  0  0  0  0
  143.0102   81.5082  221.5215 H   0  0  0  0  0  0  0  0  0  0  0  0
  143.4419   81.3733  223.9725 H   0  0  0  0  0  0  0  0  0  0  0  0
  142.3847   79.5053  225.2550 H   0  0  0  0  0  0  0  0  0  0  0  0
  140.9487   77.8395  224.1202 H   0  0  0  0  0  0  0  0  0  0  0  0
  141.8685   72.8089  221.4307 H   0  0  0  0  0  0  0  0  0  0  0  0
  141.1291   73.5782  222.8614 H   0  0  0  0  0  0  0  0  0  0  0  0
  140.5590   70.7391  221.8305 H   0  0  0  0  0  0  0  0  0  0  0  0
  141.5221   71.1455  223.2756 H   0  0  0  0  0  0  0  0  0  0  0  0
  1  2  1  0
  2  3  1  0
  3  4  2  0
  3  5  1  0
  5  6  1  0
  6  7  2  0
  7  8  1  0
  8  9  2  0
  9 10  1  0
 10 11  2  0
  5 12  1  0
 12 13  1  0
 13 14  1  0
 14 15  1  0
 15 16  1  0
 16 17  2  0
 16 18  1  0
 18 19  1  0
 18 20  1  0
 20 21  1  0
 21 22  2  0
 22 23  1  0
 23 24  2  0
 24 25  1  0
 25 26  2  0
 26 27  1  0
 27 28  1  0
 28 29  2  0
 29 30  1  0
 30 31  2  0
 31 32  1  0
 32 33  2  0
 15 34  1  0
 34 35  1  0
 11  6  1  0
 35 12  1  0
 27 20  1  0
 33 28  1  0
 26 21  1  0
  1 36  1  0
  1 37  1  0
  1 38  1  0
  2 39  1  0
  2 40  1  0
  7 41  1  0
  8 42  1  0
  9 43  1  0
 10 44  1  0
 11 45  1  0
 12 46  1  0
 13 47  1  0
 13 48  1  0
 14 49  1  0
 14 50  1  0
 18 51  1  1
 19 52  1  0
 19 53  1  0
 20 54  1  1
 22 55  1  0
 23 56  1  0
 24 57  1  0
 25 58  1  0
 27 59  1  6
 29 60  1  0
 30 61  1  0
 31 62  1  0
 32 63  1  0
 33 64  1  0
 34 65  1  0
 34 66  1  0
 35 67  1  0
 35 68  1  0
M  END
>  <smiles>  (135) 
CCC(=O)N(c1ccccc1)C1CCN(C(=O)[C@@H](N)C2c3ccccc3C2c2ccccc2)CC1

>  <score_type>  (135) 
oracle

>  <origin>  (135) 
autodockgpu

>  <m_score__min__energy>  (135) 
-9.1199999999999992

>  <m_primary>  (135) 
energy

>  <rmsd>  (135) 
7.5323081203609785

>  <m_score__min__rmsd>  (135) 
7.5323081203609785

>  <meeko>  (135) 
{"free_energy": -8.44, "intermolecular_energy": -10.83, "internal_energy": -3.13, "cluster_size": 30, "cluster_id": 3, "rank_in_cluster": 8}

>  <energy>  (135) 
-7.62

>  <cluster_rmsd>  (135) 
1.78

>  <cluster>  (135) 
3

$$$$

     RDKit          3D

 68 72  0  0  0  0  0  0  0  0999 V2000
  136.4760   69.2450  224.0140 C   0  0  0  0  0  0  0  0  0  0  0  0
  137.3370   68.3210  223.1930 C   0  0  0  0  0  0  0  0  0  0  0  0
  138.6920   68.1690  223.8010 C   0  0  0  0  0  0  0  0  0  0  0  0
  139.1890   67.0240  223.7980 O   0  0  0  0  0  0  0  0  0  0  0  0
  139.3290   69.3190  224.3410 N   0  0  0  0  0  0  0  0  0  0  0  0
  139.8830   69.3040  225.6640 C   0  0  0  0  0  0  0  0  0  0  0  0
  139.8510   70.4020  226.4950 C   0  0  0  0  0  0  0  0  0  0  0  0
  140.3960   70.3380  227.7550 C   0  0  0  0  0  0  0  0  0  0  0  0
  140.9810   69.1450  228.1830 C   0  0  0  0  0  0  0  0  0  0  0  0
  141.0200   68.0370  227.3630 C   0  0  0  0  0  0  0  0  0  0  0  0
  140.4690   68.1230  226.1040 C   0  0  0  0  0  0  0  0  0  0  0  0
  139.3950   70.5000  223.5060 C   0  0  0  0  0  0  0  0  0  0  0  0
  139.2490   70.1900  222.0330 C   0  0  0  0  0  0  0  0  0  0  0  0
  140.1900   71.0470  221.2130 C   0  0  0  0  0  0  0  0  0  0  0  0
  140.2580   72.4160  221.6710 N   0  0  0  0  0  0  0  0  0  0  0  0
  140.0530   73.4740  220.7530 C   0  0  0  0  0  0  0  0  0  0  0  0
  139.8160   73.1580  219.5590 O   0  0  0  0  0  0  0  0  0  0  0  0
  140.0970   74.9110  221.0930 C   0  0  1  0  0  0  0  0  0  0  0  0
  139.5720   75.1340  222.4010 N   0  0  0  0  0  0  0  0  0  0  0  0
  141.5930   75.3020  221.0250 C   0  0  2  0  0  0  0  0  0  0  0  0
  141.8350   76.5840  220.3960 C   0  0  0  0  0  0  0  0  0  0  0  0
  141.7530   77.9720  220.4360 C   0  0  0  0  0  0  0  0  0  0  0  0
  142.2100   78.7430  219.3860 C   0  0  0  0  0  0  0  0  0  0  0  0
  142.7650   78.1720  218.2590 C   0  0  0  0  0  0  0  0  0  0  0  0
  142.8460   76.7870  218.2240 C   0  0  0  0  0  0  0  0  0  0  0  0
  142.3790   76.0130  219.2930 C   0  0  0  0  0  0  0  0  0  0  0  0
  142.1990   74.6710  219.8180 C   0  0  1  0  0  0  0  0  0  0  0  0
  143.4360   73.9150  220.1100 C   0  0  0  0  0  0  0  0  0  0  0  0
  144.5620   74.6680  220.4580 C   0  0  0  0  0  0  0  0  0  0  0  0
  145.7660   74.0670  220.7570 C   0  0  0  0  0  0  0  0  0  0  0  0
  145.9070   72.6950  220.7250 C   0  0  0  0  0  0  0  0  0  0  0  0
  144.7880   71.9490  220.3790 C   0  0  0  0  0  0  0  0  0  0  0  0
  143.5710   72.5620  220.0770 C   0  0  0  0  0  0  0  0  0  0  0  0
  140.5430   72.6190  223.0840 C   0  0  0  0  0  0  0  0  0  0  0  0
  140.6850   71.2530  223.7320 C   0  0  0  0  0  0  0  0  0  0  0  0
  136.6518   69.0564  225.0834 H   0  0  0  0  0  0  0  0  0  0  0  0
  136.7308   70.2890  223.7791 H   0  0  0  0  0  0  0  0  0  0  0  0
  135.4167   69.0644  223.7791 H   0  0  0  0  0  0  0  0  0  0  0  0
  136.8547   67.3339  223.1385 H   0  0  0  0  0  0  0  0  0  0  0  0
  137.4512   68.7509  222.1869 H   0  0  0  0  0  0  0  0  0  0  0  0
  139.3861   71.3365  226.1478 H   0  0  0  0  0  0  0  0  0  0  0  0
  140.3715   71.2156  228.4178 H   0  0  0  0  0  0  0  0  0  0  0  0
  141.4180   69.0878  229.1908 H   0  0  0  0  0  0  0  0  0  0  0  0
  141.4831   67.1010  227.7085 H   0  0  0  0  0  0  0  0  0  0  0  0
  140.4929   67.2471  225.4390 H   0  0  0  0  0  0  0  0  0  0  0  0
  138.5411   71.1265  223.8031 H   0  0  0  0  0  0  0  0  0  0  0  0
  139.4840   69.1291  221.8617 H   0  0  0  0  0  0  0  0  0  0  0  0
  138.2148   70.4047  221.7259 H   0  0  0  0  0  0  0  0  0  0  0  0
  141.1979   70.6097  221.2671 H   0  0  0  0  0  0  0  0  0  0  0  0
  139.8024   71.0654  220.1837 H   0  0  0  0  0  0  0  0  0  0  0  0
  139.4876   75.5150  220.4047 H   0  0  0  0  0  0  0  0  0  0  0  0
  138.9750   74.3600  222.7260 H   0  0  0  0  0  0  0  0  0  0  0  0
  139.0920   76.0600  222.3970 H   0  0  0  0  0  0  0  0  0  0  0  0
  141.9307   75.1222  222.0563 H   0  0  0  0  0  0  0  0  0  0  0  0
  141.3170   78.4632  221.3184 H   0  0  0  0  0  0  0  0  0  0  0  0
  142.1299   79.8382  219.4492 H   0  0  0  0  0  0  0  0  0  0  0  0
  143.1279   78.7886  217.4235 H   0  0  0  0  0  0  0  0  0  0  0  0
  143.2828   76.2909  217.3448 H   0  0  0  0  0  0  0  0  0  0  0  0
  141.6882   73.8999  219.2226 H   0  0  0  0  0  0  0  0  0  0  0  0
  144.4851   75.7647  220.4939 H   0  0  0  0  0  0  0  0  0  0  0  0
  146.6299   74.6926  221.0260 H   0  0  0  0  0  0  0  0  0  0  0  0
  146.8660   72.2120  220.9637 H   0  0  0  0  0  0  0  0  0  0  0  0
  144.8623   70.8521  220.3422 H   0  0  0  0  0  0  0  0  0  0  0  0
  142.7051   71.9394  219.8073 H   0  0  0  0  0  0  0  0  0  0  0  0
  141.4784   73.1863  223.1989 H   0  0  0  0  0  0  0  0  0  0  0  0
  139.7308   73.1871  223.5611 H   0  0  0  0  0  0  0  0  0  0  0  0
  141.5227   70.7066  223.2741 H   0  0  0  0  0  0  0  0  0  0  0  0
  140.8866   71.3567  224.8084 H   0  0  0  0  0  0  0  0  0  0  0  0
  1  2  1  0
  2  3  1  0
  3  4  2  0
  3  5  1  0
  5  6  1  0
  6  7  2  0
  7  8  1  0
  8  9  2  0
  9 10  1  0
 10 11  2  0
  5 12  1  0
 12 13  1  0
 13 14  1  0
 14 15  1  0
 15 16  1  0
 16 17  2  0
 16 18  1  0
 18 19  1  0
 18 20  1  0
 20 21  1  0
 21 22  2  0
 22 23  1  0
 23 24  2  0
 24 25  1  0
 25 26  2  0
 26 27  1  0
 27 28  1  0
 28 29  2  0
 29 30  1  0
 30 31  2  0
 31 32  1  0
 32 33  2  0
 15 34  1  0
 34 35  1  0
 11  6  1  0
 35 12  1  0
 27 20  1  0
 33 28  1  0
 26 21  1  0
  1 36  1  0
  1 37  1  0
  1 38  1  0
  2 39  1  0
  2 40  1  0
  7 41  1  0
  8 42  1  0
  9 43  1  0
 10 44  1  0
 11 45  1  0
 12 46  1  0
 13 47  1  0
 13 48  1  0
 14 49  1  0
 14 50  1  0
 18 51  1  6
 19 52  1  0
 19 53  1  0
 20 54  1  1
 22 55  1  0
 23 56  1  0
 24 57  1  0
 25 58  1  0
 27 59  1  6
 29 60  1  0
 30 61  1  0
 31 62  1  0
 32 63  1  0
 33 64  1  0
 34 65  1  0
 34 66  1  0
 35 67  1  0
 35 68  1  0
M  END
>  <smiles>  (136) 
CCC(=O)N(c1ccccc1)C1CCN(C(=O)[C@@H](N)C2c3ccccc3C2c2ccccc2)CC1

>  <score_type>  (136) 
oracle

>  <origin>  (136) 
autodockgpu

>  <m_score__min__energy>  (136) 
-9.1199999999999992

>  <m_primary>  (136) 
energy

>  <rmsd>  (136) 
8.20413674928639

>  <m_score__min__rmsd>  (136) 
8.20413674928639

>  <meeko>  (136) 
{"free_energy": -9.12, "intermolecular_energy": -11.51, "internal_energy": -2.07, "cluster_size": 8, "cluster_id": 1, "rank_in_cluster": 1}

>  <energy>  (136) 
-7.6

>  <cluster_rmsd>  (136) 
1.81

>  <cluster>  (136) 
3

$$$$

     RDKit          3D

 68 72  0  0  0  0  0  0  0  0999 V2000
  138.2720   68.1880  222.1220 C   0  0  0  0  0  0  0  0  0  0  0  0
  138.8490   68.1660  223.5130 C   0  0  0  0  0  0  0  0  0  0  0  0
  138.1730   69.1670  224.3900 C   0  0  0  0  0  0  0  0  0  0  0  0
  137.0020   68.9160  224.7390 O   0  0  0  0  0  0  0  0  0  0  0  0
  138.8920   70.3320  224.7720 N   0  0  0  0  0  0  0  0  0  0  0  0
  139.6650   70.3600  225.9800 C   0  0  0  0  0  0  0  0  0  0  0  0
  140.3570   71.4770  226.3940 C   0  0  0  0  0  0  0  0  0  0  0  0
  141.0830   71.4540  227.5600 C   0  0  0  0  0  0  0  0  0  0  0  0
  141.1120   70.2840  228.3210 C   0  0  0  0  0  0  0  0  0  0  0  0
  140.4240   69.1580  227.9200 C   0  0  0  0  0  0  0  0  0  0  0  0
  139.7020   69.2020  226.7480 C   0  0  0  0  0  0  0  0  0  0  0  0
  138.8120   71.4830  223.8980 C   0  0  0  0  0  0  0  0  0  0  0  0
  137.5120   71.5510  223.1280 C   0  0  0  0  0  0  0  0  0  0  0  0
  137.7570   72.0160  221.7080 C   0  0  0  0  0  0  0  0  0  0  0  0
  138.7180   73.0930  221.6210 N   0  0  0  0  0  0  0  0  0  0  0  0
  138.3830   74.2760  220.9190 C   0  0  0  0  0  0  0  0  0  0  0  0
  137.2400   74.3280  220.3970 O   0  0  0  0  0  0  0  0  0  0  0  0
  139.2730   75.4450  220.7560 C   0  0  1  0  0  0  0  0  0  0  0  0
  138.8580   76.2400  219.6460 N   0  0  0  0  0  0  0  0  0  0  0  0
  139.1520   76.2380  222.0800 C   0  0  2  0  0  0  0  0  0  0  0  0
  137.8090   76.2710  222.6220 C   0  0  0  0  0  0  0  0  0  0  0  0
  136.7480   75.6110  223.2350 C   0  0  0  0  0  0  0  0  0  0  0  0
  135.5740   76.2730  223.5300 C   0  0  0  0  0  0  0  0  0  0  0  0
  135.4020   77.6080  223.2290 C   0  0  0  0  0  0  0  0  0  0  0  0
  136.4630   78.2620  222.6180 C   0  0  0  0  0  0  0  0  0  0  0  0
  137.6500   77.5840  222.3230 C   0  0  0  0  0  0  0  0  0  0  0  0
  138.9850   77.6840  221.7580 C   0  0  1  0  0  0  0  0  0  0  0  0
  139.9330   78.5590  222.4810 C   0  0  0  0  0  0  0  0  0  0  0  0
  141.1720   78.0010  222.8120 C   0  0  0  0  0  0  0  0  0  0  0  0
  142.1350   78.7280  223.4780 C   0  0  0  0  0  0  0  0  0  0  0  0
  141.9130   80.0390  223.8460 C   0  0  0  0  0  0  0  0  0  0  0  0
  140.6820   80.5920  223.5170 C   0  0  0  0  0  0  0  0  0  0  0  0
  139.7100   79.8510  222.8410 C   0  0  0  0  0  0  0  0  0  0  0  0
  139.9990   72.8810  222.2770 C   0  0  0  0  0  0  0  0  0  0  0  0
  139.9690   71.5080  222.9260 C   0  0  0  0  0  0  0  0  0  0  0  0
  137.1744   68.2299  222.1810 H   0  0  0  0  0  0  0  0  0  0  0  0
  138.6443   69.0726  221.5845 H   0  0  0  0  0  0  0  0  0  0  0  0
  138.5759   67.2776  221.5845 H   0  0  0  0  0  0  0  0  0  0  0  0
  138.7137   67.1624  223.9424 H   0  0  0  0  0  0  0  0  0  0  0  0
  139.9178   68.4192  223.4524 H   0  0  0  0  0  0  0  0  0  0  0  0
  140.3280   72.3937  225.7867 H   0  0  0  0  0  0  0  0  0  0  0  0
  141.6347   72.3466  227.8900 H   0  0  0  0  0  0  0  0  0  0  0  0
  141.6926   70.2598  229.2550 H   0  0  0  0  0  0  0  0  0  0  0  0
  140.4514   68.2403  228.5259 H   0  0  0  0  0  0  0  0  0  0  0  0
  139.1486   68.3111  226.4161 H   0  0  0  0  0  0  0  0  0  0  0  0
  138.8584   72.3633  224.5560 H   0  0  0  0  0  0  0  0  0  0  0  0
  137.0517   70.5522  223.1069 H   0  0  0  0  0  0  0  0  0  0  0  0
  136.8425   72.2682  223.6254 H   0  0  0  0  0  0  0  0  0  0  0  0
  138.1314   71.1646  221.1206 H   0  0  0  0  0  0  0  0  0  0  0  0
  136.8015   72.3971  221.3185 H   0  0  0  0  0  0  0  0  0  0  0  0
  140.3126   75.1468  220.5551 H   0  0  0  0  0  0  0  0  0  0  0  0
  139.3100   77.1660  219.6320 H   0  0  0  0  0  0  0  0  0  0  0  0
  137.8160   76.2820  219.6580 H   0  0  0  0  0  0  0  0  0  0  0  0
  139.9773   75.8253  222.6788 H   0  0  0  0  0  0  0  0  0  0  0  0
  136.8470   74.5451  223.4882 H   0  0  0  0  0  0  0  0  0  0  0  0
  134.7554   75.7228  224.0170 H   0  0  0  0  0  0  0  0  0  0  0  0
  134.4637   78.1322  223.4632 H   0  0  0  0  0  0  0  0  0  0  0  0
  136.3689   79.3278  222.3624 H   0  0  0  0  0  0  0  0  0  0  0  0
  139.1378   78.0962  220.7497 H   0  0  0  0  0  0  0  0  0  0  0  0
  141.3828   76.9577  222.5343 H   0  0  0  0  0  0  0  0  0  0  0  0
  143.0978   78.2545  223.7205 H   0  0  0  0  0  0  0  0  0  0  0  0
  142.6791   80.6222  224.3779 H   0  0  0  0  0  0  0  0  0  0  0  0
  140.4683   81.6348  223.7945 H   0  0  0  0  0  0  0  0  0  0  0  0
  138.7464   80.3213  222.5954 H   0  0  0  0  0  0  0  0  0  0  0  0
  140.8106   72.9265  221.5359 H   0  0  0  0  0  0  0  0  0  0  0  0
  140.1754   73.6592  223.0341 H   0  0  0  0  0  0  0  0  0  0  0  0
  139.8291   70.7336  222.1574 H   0  0  0  0  0  0  0  0  0  0  0  0
  140.9157   71.3092  223.4496 H   0  0  0  0  0  0  0  0  0  0  0  0
  1  2  1  0
  2  3  1  0
  3  4  2  0
  3  5  1  0
  5  6  1  0
  6  7  2  0
  7  8  1  0
  8  9  2  0
  9 10  1  0
 10 11  2  0
  5 12  1  0
 12 13  1  0
 13 14  1  0
 14 15  1  0
 15 16  1  0
 16 17  2  0
 16 18  1  0
 18 19  1  0
 18 20  1  0
 20 21  1  0
 21 22  2  0
 22 23  1  0
 23 24  2  0
 24 25  1  0
 25 26  2  0
 26 27  1  0
 27 28  1  0
 28 29  2  0
 29 30  1  0
 30 31  2  0
 31 32  1  0
 32 33  2  0
 15 34  1  0
 34 35  1  0
 11  6  1  0
 35 12  1  0
 27 20  1  0
 33 28  1  0
 26 21  1  0
  1 36  1  0
  1 37  1  0
  1 38  1  0
  2 39  1  0
  2 40  1  0
  7 41  1  0
  8 42  1  0
  9 43  1  0
 10 44  1  0
 11 45  1  0
 12 46  1  0
 13 47  1  0
 13 48  1  0
 14 49  1  0
 14 50  1  0
 18 51  1  6
 19 52  1  0
 19 53  1  0
 20 54  1  1
 22 55  1  0
 23 56  1  0
 24 57  1  0
 25 58  1  0
 27 59  1  6
 29 60  1  0
 30 61  1  0
 31 62  1  0
 32 63  1  0
 33 64  1  0
 34 65  1  0
 34 66  1  0
 35 67  1  0
 35 68  1  0
M  END
>  <smiles>  (137) 
CCC(=O)N(c1ccccc1)C1CCN(C(=O)[C@@H](N)C2c3ccccc3C2c2ccccc2)CC1

>  <score_type>  (137) 
oracle

>  <origin>  (137) 
autodockgpu

>  <m_score__min__energy>  (137) 
-9.1199999999999992

>  <m_primary>  (137) 
energy

>  <rmsd>  (137) 
7.508865024639339

>  <m_score__min__rmsd>  (137) 
7.508865024639339

>  <meeko>  (137) 
{"free_energy": -7.98, "intermolecular_energy": -10.37, "internal_energy": -3.15, "cluster_size": 30, "cluster_id": 3, "rank_in_cluster": 23}

>  <energy>  (137) 
-7.59

>  <cluster_rmsd>  (137) 
1.81

>  <cluster>  (137) 
3

$$$$

     RDKit          3D

 68 72  0  0  0  0  0  0  0  0999 V2000
  136.3220   69.4400  224.9460 C   0  0  0  0  0  0  0  0  0  0  0  0
  137.3180   68.8990  223.9530 C   0  0  0  0  0  0  0  0  0  0  0  0
  138.6960   68.8870  224.5280 C   0  0  0  0  0  0  0  0  0  0  0  0
  139.1730   67.7750  224.8310 O   0  0  0  0  0  0  0  0  0  0  0  0
  139.3750   70.1240  224.6950 N   0  0  0  0  0  0  0  0  0  0  0  0
  139.9280   70.4970  225.9640 C   0  0  0  0  0  0  0  0  0  0  0  0
  139.7050   69.7710  227.1140 C   0  0  0  0  0  0  0  0  0  0  0  0
  140.2580   70.1700  228.3070 C   0  0  0  0  0  0  0  0  0  0  0  0
  141.0480   71.3200  228.3410 C   0  0  0  0  0  0  0  0  0  0  0  0
  141.2800   72.0580  227.1990 C   0  0  0  0  0  0  0  0  0  0  0  0
  140.7170   71.6410  226.0130 C   0  0  0  0  0  0  0  0  0  0  0  0
  139.4820   70.9880  223.5380 C   0  0  0  0  0  0  0  0  0  0  0  0
  138.2000   71.7310  223.2340 C   0  0  0  0  0  0  0  0  0  0  0  0
  137.9630   71.7950  221.7400 C   0  0  0  0  0  0  0  0  0  0  0  0
  139.1650   72.0670  220.9850 N   0  0  0  0  0  0  0  0  0  0  0  0
  139.1790   73.1280  220.0470 C   0  0  0  0  0  0  0  0  0  0  0  0
  138.1180   73.7930  219.9190 O   0  0  0  0  0  0  0  0  0  0  0  0
  140.3390   73.5070  219.2140 C   0  0  1  0  0  0  0  0  0  0  0  0
  139.9870   74.5540  218.3110 N   0  0  0  0  0  0  0  0  0  0  0  0
  141.4210   73.9820  220.2140 C   0  0  2  0  0  0  0  0  0  0  0  0
  141.1980   75.3180  220.7280 C   0  0  0  0  0  0  0  0  0  0  0  0
  140.4620   76.1850  221.5300 C   0  0  0  0  0  0  0  0  0  0  0  0
  140.7790   77.5250  221.6070 C   0  0  0  0  0  0  0  0  0  0  0  0
  141.8330   78.0600  220.8950 C   0  0  0  0  0  0  0  0  0  0  0  0
  142.5640   77.1920  220.0960 C   0  0  0  0  0  0  0  0  0  0  0  0
  142.2360   75.8330  220.0250 C   0  0  0  0  0  0  0  0  0  0  0  0
  142.5690   74.5430  219.4460 C   0  0  1  0  0  0  0  0  0  0  0  0
  143.8750   73.9720  219.8400 C   0  0  0  0  0  0  0  0  0  0  0  0
  144.1340   72.6610  219.4290 C   0  0  0  0  0  0  0  0  0  0  0  0
  145.3220   72.0310  219.7340 C   0  0  0  0  0  0  0  0  0  0  0  0
  146.3040   72.6730  220.4590 C   0  0  0  0  0  0  0  0  0  0  0  0
  146.0460   73.9750  220.8670 C   0  0  0  0  0  0  0  0  0  0  0  0
  144.8410   74.6090  220.5550 C   0  0  0  0  0  0  0  0  0  0  0  0
  140.3110   71.2080  221.2460 C   0  0  0  0  0  0  0  0  0  0  0  0
  139.9090   70.2080  222.3170 C   0  0  0  0  0  0  0  0  0  0  0  0
  136.6802   69.2454  225.9677 H   0  0  0  0  0  0  0  0  0  0  0  0
  136.2081   70.5240  224.7976 H   0  0  0  0  0  0  0  0  0  0  0  0
  135.3507   68.9455  224.7976 H   0  0  0  0  0  0  0  0  0  0  0  0
  137.0329   67.8720  223.6811 H   0  0  0  0  0  0  0  0  0  0  0  0
  137.3149   69.5483  223.0651 H   0  0  0  0  0  0  0  0  0  0  0  0
  139.0803   68.8663  227.0767 H   0  0  0  0  0  0  0  0  0  0  0  0
  140.0801   69.5898  229.2245 H   0  0  0  0  0  0  0  0  0  0  0  0
  141.4928   71.6430  229.2938 H   0  0  0  0  0  0  0  0  0  0  0  0
  141.9035   72.9635  227.2347 H   0  0  0  0  0  0  0  0  0  0  0  0
  140.8935   72.2195  225.0942 H   0  0  0  0  0  0  0  0  0  0  0  0
  140.2491   71.7349  223.7905 H   0  0  0  0  0  0  0  0  0  0  0  0
  137.3577   71.2092  223.7117 H   0  0  0  0  0  0  0  0  0  0  0  0
  138.2830   72.7561  223.6243 H   0  0  0  0  0  0  0  0  0  0  0  0
  137.5531   70.8293  221.4092 H   0  0  0  0  0  0  0  0  0  0  0  0
  137.2651   72.6248  221.5545 H   0  0  0  0  0  0  0  0  0  0  0  0
  140.6949   72.6686  218.5973 H   0  0  0  0  0  0  0  0  0  0  0  0
  139.2420   75.1620  218.6800 H   0  0  0  0  0  0  0  0  0  0  0  0
  139.7550   74.1160  217.3930 H   0  0  0  0  0  0  0  0  0  0  0  0
  141.4921   73.1303  220.9065 H   0  0  0  0  0  0  0  0  0  0  0  0
  139.6138   75.7953  222.1119 H   0  0  0  0  0  0  0  0  0  0  0  0
  140.1773   78.1829  222.2513 H   0  0  0  0  0  0  0  0  0  0  0  0
  142.0833   79.1293  220.9580 H   0  0  0  0  0  0  0  0  0  0  0  0
  143.4122   77.5770  219.5109 H   0  0  0  0  0  0  0  0  0  0  0  0
  142.6762   74.4271  218.3574 H   0  0  0  0  0  0  0  0  0  0  0  0
  143.3723   72.1195  218.8488 H   0  0  0  0  0  0  0  0  0  0  0  0
  145.4894   70.9986  219.3932 H   0  0  0  0  0  0  0  0  0  0  0  0
  147.2531   72.1739  220.7041 H   0  0  0  0  0  0  0  0  0  0  0  0
  146.8060   74.5182  221.4478 H   0  0  0  0  0  0  0  0  0  0  0  0
  144.6703   75.6416  220.8935 H   0  0  0  0  0  0  0  0  0  0  0  0
  140.5971   70.6764  220.3264 H   0  0  0  0  0  0  0  0  0  0  0  0
  141.1703   71.8064  221.5829 H   0  0  0  0  0  0  0  0  0  0  0  0
  139.0738   69.5892  221.9570 H   0  0  0  0  0  0  0  0  0  0  0  0
  140.7520   69.5443  222.5597 H   0  0  0  0  0  0  0  0  0  0  0  0
  1  2  1  0
  2  3  1  0
  3  4  2  0
  3  5  1  0
  5  6  1  0
  6  7  2  0
  7  8  1  0
  8  9  2  0
  9 10  1  0
 10 11  2  0
  5 12  1  0
 12 13  1  0
 13 14  1  0
 14 15  1  0
 15 16  1  0
 16 17  2  0
 16 18  1  0
 18 19  1  0
 18 20  1  0
 20 21  1  0
 21 22  2  0
 22 23  1  0
 23 24  2  0
 24 25  1  0
 25 26  2  0
 26 27  1  0
 27 28  1  0
 28 29  2  0
 29 30  1  0
 30 31  2  0
 31 32  1  0
 32 33  2  0
 15 34  1  0
 34 35  1  0
 11  6  1  0
 35 12  1  0
 27 20  1  0
 33 28  1  0
 26 21  1  0
  1 36  1  0
  1 37  1  0
  1 38  1  0
  2 39  1  0
  2 40  1  0
  7 41  1  0
  8 42  1  0
  9 43  1  0
 10 44  1  0
 11 45  1  0
 12 46  1  0
 13 47  1  0
 13 48  1  0
 14 49  1  0
 14 50  1  0
 18 51  1  6
 19 52  1  0
 19 53  1  0
 20 54  1  1
 22 55  1  0
 23 56  1  0
 24 57  1  0
 25 58  1  0
 27 59  1  6
 29 60  1  0
 30 61  1  0
 31 62  1  0
 32 63  1  0
 33 64  1  0
 34 65  1  0
 34 66  1  0
 35 67  1  0
 35 68  1  0
M  END
>  <smiles>  (138) 
CCC(=O)N(c1ccccc1)C1CCN(C(=O)[C@@H](N)C2c3ccccc3C2c2ccccc2)CC1

>  <score_type>  (138) 
oracle

>  <origin>  (138) 
autodockgpu

>  <m_score__min__energy>  (138) 
-9.1199999999999992

>  <m_primary>  (138) 
energy

>  <rmsd>  (138) 
7.304798290614983

>  <m_score__min__rmsd>  (138) 
7.304798290614983

>  <meeko>  (138) 
{"free_energy": -8.54, "intermolecular_energy": -10.93, "internal_energy": -3.04, "cluster_size": 8, "cluster_id": 1, "rank_in_cluster": 5}

>  <energy>  (138) 
-7.57

>  <cluster_rmsd>  (138) 
1.57

>  <cluster>  (138) 
3

$$$$

     RDKit          3D

 68 72  0  0  0  0  0  0  0  0999 V2000
  136.4180   68.9830  223.1340 C   0  0  0  0  0  0  0  0  0  0  0  0
  137.3530   69.2280  224.2880 C   0  0  0  0  0  0  0  0  0  0  0  0
  138.7410   69.4950  223.8070 C   0  0  0  0  0  0  0  0  0  0  0  0
  139.2140   68.6970  222.9730 O   0  0  0  0  0  0  0  0  0  0  0  0
  139.4330   70.6260  224.3190 N   0  0  0  0  0  0  0  0  0  0  0  0
  140.0080   70.6070  225.6320 C   0  0  0  0  0  0  0  0  0  0  0  0
  140.6780   71.6860  226.1650 C   0  0  0  0  0  0  0  0  0  0  0  0
  141.2120   71.6190  227.4290 C   0  0  0  0  0  0  0  0  0  0  0  0
  141.0690   70.4430  228.1670 C   0  0  0  0  0  0  0  0  0  0  0  0
  140.4020   69.3540  227.6470 C   0  0  0  0  0  0  0  0  0  0  0  0
  139.8740   69.4420  226.3780 C   0  0  0  0  0  0  0  0  0  0  0  0
  139.5310   71.7910  223.4650 C   0  0  0  0  0  0  0  0  0  0  0  0
  138.2990   72.0050  222.6130 C   0  0  0  0  0  0  0  0  0  0  0  0
  138.6870   72.4630  221.2230 C   0  0  0  0  0  0  0  0  0  0  0  0
  139.7560   73.4340  221.2220 N   0  0  0  0  0  0  0  0  0  0  0  0
  139.5930   74.6550  220.5250 C   0  0  0  0  0  0  0  0  0  0  0  0
  138.4990   74.8340  219.9300 O   0  0  0  0  0  0  0  0  0  0  0  0
  140.6070   75.7280  220.4460 C   0  0  1  0  0  0  0  0  0  0  0  0
  140.4020   76.5280  219.2830 N   0  0  0  0  0  0  0  0  0  0  0  0
  140.4170   76.5660  221.7330 C   0  0  2  0  0  0  0  0  0  0  0  0
  139.0490   76.6060  222.2090 C   0  0  0  0  0  0  0  0  0  0  0  0
  137.9650   75.9590  222.7940 C   0  0  0  0  0  0  0  0  0  0  0  0
  136.7730   76.6190  223.0080 C   0  0  0  0  0  0  0  0  0  0  0  0
  136.6060   77.9420  222.6520 C   0  0  0  0  0  0  0  0  0  0  0  0
  137.6900   78.5840  222.0700 C   0  0  0  0  0  0  0  0  0  0  0  0
  138.8950   77.9060  221.8560 C   0  0  0  0  0  0  0  0  0  0  0  0
  140.2550   77.9980  221.3530 C   0  0  1  0  0  0  0  0  0  0  0  0
  141.1610   78.9070  222.0880 C   0  0  0  0  0  0  0  0  0  0  0  0
  141.3670   78.6230  223.4420 C   0  0  0  0  0  0  0  0  0  0  0  0
  142.1980   79.4000  224.2220 C   0  0  0  0  0  0  0  0  0  0  0  0
  142.8600   80.4890  223.6950 C   0  0  0  0  0  0  0  0  0  0  0  0
  142.6530   80.7690  222.3510 C   0  0  0  0  0  0  0  0  0  0  0  0
  141.8120   79.9800  221.5650 C   0  0  0  0  0  0  0  0  0  0  0  0
  140.9620   73.0810  221.9560 C   0  0  0  0  0  0  0  0  0  0  0  0
  140.7480   71.7100  222.5730 C   0  0  0  0  0  0  0  0  0  0  0  0
  135.4212   68.7218  223.5188 H   0  0  0  0  0  0  0  0  0  0  0  0
  136.3471   69.8929  222.5199 H   0  0  0  0  0  0  0  0  0  0  0  0
  136.8024   68.1553  222.5199 H   0  0  0  0  0  0  0  0  0  0  0  0
  136.9975   70.0975  224.8602 H   0  0  0  0  0  0  0  0  0  0  0  0
  137.3694   68.3290  224.9217 H   0  0  0  0  0  0  0  0  0  0  0  0
  140.7862   72.6077  225.5745 H   0  0  0  0  0  0  0  0  0  0  0  0
  141.7458   72.4817  227.8543 H   0  0  0  0  0  0  0  0  0  0  0  0
  141.4951   70.3840  229.1794 H   0  0  0  0  0  0  0  0  0  0  0  0
  140.2935   68.4310  228.2355 H   0  0  0  0  0  0  0  0  0  0  0  0
  139.3403   68.5806  225.9501 H   0  0  0  0  0  0  0  0  0  0  0  0
  139.6230   72.6528  224.1424 H   0  0  0  0  0  0  0  0  0  0  0  0
  137.7411   71.0598  222.5399 H   0  0  0  0  0  0  0  0  0  0  0  0
  137.6739   72.7799  223.0807 H   0  0  0  0  0  0  0  0  0  0  0  0
  139.0108   71.5859  220.6435 H   0  0  0  0  0  0  0  0  0  0  0  0
  137.8044   72.9478  220.7802 H   0  0  0  0  0  0  0  0  0  0  0  0
  141.6275   75.3244  220.3712 H   0  0  0  0  0  0  0  0  0  0  0  0
  139.4190   76.5350  218.9750 H   0  0  0  0  0  0  0  0  0  0  0  0
  141.0680   76.2010  218.5500 H   0  0  0  0  0  0  0  0  0  0  0  0
  141.2160   76.1821  222.3843 H   0  0  0  0  0  0  0  0  0  0  0  0
  138.0602   74.9040  223.0906 H   0  0  0  0  0  0  0  0  0  0  0  0
  135.9357   76.0783  223.4733 H   0  0  0  0  0  0  0  0  0  0  0  0
  135.6537   78.4655  222.8224 H   0  0  0  0  0  0  0  0  0  0  0  0
  137.6007   79.6394  221.7732 H   0  0  0  0  0  0  0  0  0  0  0  0
  140.4532   78.3761  220.3392 H   0  0  0  0  0  0  0  0  0  0  0  0
  140.8551   77.7611  223.8948 H   0  0  0  0  0  0  0  0  0  0  0  0
  142.3351   79.1464  225.2836 H   0  0  0  0  0  0  0  0  0  0  0  0
  143.5244   81.1100  224.3138 H   0  0  0  0  0  0  0  0  0  0  0  0
  143.1627   81.6311  221.8960 H   0  0  0  0  0  0  0  0  0  0  0  0
  141.6733   80.2308  220.5030 H   0  0  0  0  0  0  0  0  0  0  0  0
  141.8219   73.0524  221.2705 H   0  0  0  0  0  0  0  0  0  0  0  0
  141.1661   73.8261  222.7390 H   0  0  0  0  0  0  0  0  0  0  0  0
  140.5828   70.9647  221.7810 H   0  0  0  0  0  0  0  0  0  0  0  0
  141.6316   71.4076  223.1543 H   0  0  0  0  0  0  0  0  0  0  0  0
  1  2  1  0
  2  3  1  0
  3  4  2  0
  3  5  1  0
  5  6  1  0
  6  7  2  0
  7  8  1  0
  8  9  2  0
  9 10  1  0
 10 11  2  0
  5 12  1  0
 12 13  1  0
 13 14  1  0
 14 15  1  0
 15 16  1  0
 16 17  2  0
 16 18  1  0
 18 19  1  0
 18 20  1  0
 20 21  1  0
 21 22  2  0
 22 23  1  0
 23 24  2  0
 24 25  1  0
 25 26  2  0
 26 27  1  0
 27 28  1  0
 28 29  2  0
 29 30  1  0
 30 31  2  0
 31 32  1  0
 32 33  2  0
 15 34  1  0
 34 35  1  0
 11  6  1  0
 35 12  1  0
 27 20  1  0
 33 28  1  0
 26 21  1  0
  1 36  1  0
  1 37  1  0
  1 38  1  0
  2 39  1  0
  2 40  1  0
  7 41  1  0
  8 42  1  0
  9 43  1  0
 10 44  1  0
 11 45  1  0
 12 46  1  0
 13 47  1  0
 13 48  1  0
 14 49  1  0
 14 50  1  0
 18 51  1  6
 19 52  1  0
 19 53  1  0
 20 54  1  1
 22 55  1  0
 23 56  1  0
 24 57  1  0
 25 58  1  0
 27 59  1  6
 29 60  1  0
 30 61  1  0
 31 62  1  0
 32 63  1  0
 33 64  1  0
 34 65  1  0
 34 66  1  0
 35 67  1  0
 35 68  1  0
M  END
>  <smiles>  (139) 
CCC(=O)N(c1ccccc1)C1CCN(C(=O)[C@@H](N)C2c3ccccc3C2c2ccccc2)CC1

>  <score_type>  (139) 
oracle

>  <origin>  (139) 
autodockgpu

>  <m_score__min__energy>  (139) 
-9.1199999999999992

>  <m_primary>  (139) 
energy

>  <rmsd>  (139) 
7.658036499259457

>  <m_score__min__rmsd>  (139) 
7.658036499259457

>  <meeko>  (139) 
{"free_energy": -8.32, "intermolecular_energy": -10.71, "internal_energy": -3.16, "cluster_size": 30, "cluster_id": 3, "rank_in_cluster": 15}

>  <energy>  (139) 
-7.56

>  <cluster_rmsd>  (139) 
1.86

>  <cluster>  (139) 
3

$$$$

     RDKit          3D

 68 72  0  0  0  0  0  0  0  0999 V2000
  138.2290   68.3230  221.9860 C   0  0  0  0  0  0  0  0  0  0  0  0
  138.8010   68.2250  223.3750 C   0  0  0  0  0  0  0  0  0  0  0  0
  138.2360   69.2840  224.2640 C   0  0  0  0  0  0  0  0  0  0  0  0
  137.0290   69.1870  224.5640 O   0  0  0  0  0  0  0  0  0  0  0  0
  139.0940   70.3260  224.7100 N   0  0  0  0  0  0  0  0  0  0  0  0
  139.7960   70.2210  225.9560 C   0  0  0  0  0  0  0  0  0  0  0  0
  140.3780   71.3060  226.5740 C   0  0  0  0  0  0  0  0  0  0  0  0
  141.0410   71.1540  227.7680 C   0  0  0  0  0  0  0  0  0  0  0  0
  141.1180   69.8870  228.3470 C   0  0  0  0  0  0  0  0  0  0  0  0
  140.5410   68.7910  227.7410 C   0  0  0  0  0  0  0  0  0  0  0  0
  139.8810   68.9650  226.5440 C   0  0  0  0  0  0  0  0  0  0  0  0
  139.2260   71.4920  223.8620 C   0  0  0  0  0  0  0  0  0  0  0  0
  137.9780   71.7830  223.0580 C   0  0  0  0  0  0  0  0  0  0  0  0
  138.3380   72.2300  221.6580 C   0  0  0  0  0  0  0  0  0  0  0  0
  139.4610   73.1390  221.6220 N   0  0  0  0  0  0  0  0  0  0  0  0
  139.3420   74.3730  220.9400 C   0  0  0  0  0  0  0  0  0  0  0  0
  138.2390   74.6190  220.3880 O   0  0  0  0  0  0  0  0  0  0  0  0
  140.4120   75.3870  220.8290 C   0  0  1  0  0  0  0  0  0  0  0  0
  140.3080   76.0950  219.5950 N   0  0  0  0  0  0  0  0  0  0  0  0
  140.1990   76.3390  222.0310 C   0  0  2  0  0  0  0  0  0  0  0  0
  138.8100   76.4980  222.4130 C   0  0  0  0  0  0  0  0  0  0  0  0
  137.6560   75.9650  222.9770 C   0  0  0  0  0  0  0  0  0  0  0  0
  136.4960   76.7090  223.0610 C   0  0  0  0  0  0  0  0  0  0  0  0
  136.4350   78.0050  222.5910 C   0  0  0  0  0  0  0  0  0  0  0  0
  137.5890   78.5320  222.0300 C   0  0  0  0  0  0  0  0  0  0  0  0
  138.7600   77.7700  221.9490 C   0  0  0  0  0  0  0  0  0  0  0  0
  140.1500   77.7410  221.5280 C   0  0  1  0  0  0  0  0  0  0  0  0
  141.0660   78.6550  222.2460 C   0  0  0  0  0  0  0  0  0  0  0  0
  141.7210   79.6180  221.4720 C   0  0  0  0  0  0  0  0  0  0  0  0
  142.5910   80.5260  222.0380 C   0  0  0  0  0  0  0  0  0  0  0  0
  142.8490   80.5190  223.3930 C   0  0  0  0  0  0  0  0  0  0  0  0
  142.1980   79.5610  224.1590 C   0  0  0  0  0  0  0  0  0  0  0  0
  141.3180   78.6440  223.5820 C   0  0  0  0  0  0  0  0  0  0  0  0
  140.6710   72.7110  222.3080 C   0  0  0  0  0  0  0  0  0  0  0  0
  140.4020   71.3490  222.9230 C   0  0  0  0  0  0  0  0  0  0  0  0
  137.1465   68.5085  222.0475 H   0  0  0  0  0  0  0  0  0  0  0  0
  138.7129   69.1513  221.4478 H   0  0  0  0  0  0  0  0  0  0  0  0
  138.4096   67.3808  221.4478 H   0  0  0  0  0  0  0  0  0  0  0  0
  138.5595   67.2371  223.7943 H   0  0  0  0  0  0  0  0  0  0  0  0
  139.8906   68.3631  223.3152 H   0  0  0  0  0  0  0  0  0  0  0  0
  140.3116   72.3005  226.1086 H   0  0  0  0  0  0  0  0  0  0  0  0
  141.5053   72.0207  228.2612 H   0  0  0  0  0  0  0  0  0  0  0  0
  141.6477   69.7603  229.3027 H   0  0  0  0  0  0  0  0  0  0  0  0
  140.6064   67.7957  228.2048 H   0  0  0  0  0  0  0  0  0  0  0  0
  139.4162   68.0999  226.0484 H   0  0  0  0  0  0  0  0  0  0  0  0
  139.3917   72.3407  224.5419 H   0  0  0  0  0  0  0  0  0  0  0  0
  137.3648   70.8716  222.9999 H   0  0  0  0  0  0  0  0  0  0  0  0
  137.4167   72.5886  223.5539 H   0  0  0  0  0  0  0  0  0  0  0  0
  138.5885   71.3409  221.0606 H   0  0  0  0  0  0  0  0  0  0  0  0
  137.4685   72.7683  221.2529 H   0  0  0  0  0  0  0  0  0  0  0  0
  141.4130   74.9312  220.8435 H   0  0  0  0  0  0  0  0  0  0  0  0
  139.3590   76.0600  219.1970 H   0  0  0  0  0  0  0  0  0  0  0  0
  141.0450   75.7260  218.9550 H   0  0  0  0  0  0  0  0  0  0  0  0
  140.9319   75.9651  222.7611 H   0  0  0  0  0  0  0  0  0  0  0  0
  137.6676   74.9347  223.3622 H   0  0  0  0  0  0  0  0  0  0  0  0
  135.6000   76.2584  223.5129 H   0  0  0  0  0  0  0  0  0  0  0  0
  135.5095   78.5957  222.6584 H   0  0  0  0  0  0  0  0  0  0  0  0
  137.5836   79.5620  221.6439 H   0  0  0  0  0  0  0  0  0  0  0  0
  140.4313   78.0206  220.5020 H   0  0  0  0  0  0  0  0  0  0  0  0
  141.5382   79.6520  220.3878 H   0  0  0  0  0  0  0  0  0  0  0  0
  143.0882   81.2692  221.3974 H   0  0  0  0  0  0  0  0  0  0  0  0
  143.5417   81.2423  223.8479 H   0  0  0  0  0  0  0  0  0  0  0  0
  142.3796   79.5240  225.2433 H   0  0  0  0  0  0  0  0  0  0  0  0
  140.8194   77.8991  224.2196 H   0  0  0  0  0  0  0  0  0  0  0  0
  141.5019   72.6396  221.5907 H   0  0  0  0  0  0  0  0  0  0  0  0
  140.9460   73.4361  223.0881 H   0  0  0  0  0  0  0  0  0  0  0  0
  140.1640   70.6217  222.1328 H   0  0  0  0  0  0  0  0  0  0  0  0
  141.2881   70.9907  223.4676 H   0  0  0  0  0  0  0  0  0  0  0  0
  1  2  1  0
  2  3  1  0
  3  4  2  0
  3  5  1  0
  5  6  1  0
  6  7  2  0
  7  8  1  0
  8  9  2  0
  9 10  1  0
 10 11  2  0
  5 12  1  0
 12 13  1  0
 13 14  1  0
 14 15  1  0
 15 16  1  0
 16 17  2  0
 16 18  1  0
 18 19  1  0
 18 20  1  0
 20 21  1  0
 21 22  2  0
 22 23  1  0
 23 24  2  0
 24 25  1  0
 25 26  2  0
 26 27  1  0
 27 28  1  0
 28 29  2  0
 29 30  1  0
 30 31  2  0
 31 32  1  0
 32 33  2  0
 15 34  1  0
 34 35  1  0
 11  6  1  0
 35 12  1  0
 27 20  1  0
 33 28  1  0
 26 21  1  0
  1 36  1  0
  1 37  1  0
  1 38  1  0
  2 39  1  0
  2 40  1  0
  7 41  1  0
  8 42  1  0
  9 43  1  0
 10 44  1  0
 11 45  1  0
 12 46  1  0
 13 47  1  0
 13 48  1  0
 14 49  1  0
 14 50  1  0
 18 51  1  1
 19 52  1  0
 19 53  1  0
 20 54  1  1
 22 55  1  0
 23 56  1  0
 24 57  1  0
 25 58  1  0
 27 59  1  6
 29 60  1  0
 30 61  1  0
 31 62  1  0
 32 63  1  0
 33 64  1  0
 34 65  1  0
 34 66  1  0
 35 67  1  0
 35 68  1  0
M  END
>  <smiles>  (140) 
CCC(=O)N(c1ccccc1)C1CCN(C(=O)[C@@H](N)C2c3ccccc3C2c2ccccc2)CC1

>  <score_type>  (140) 
oracle

>  <origin>  (140) 
autodockgpu

>  <m_score__min__energy>  (140) 
-9.1199999999999992

>  <m_primary>  (140) 
energy

>  <rmsd>  (140) 
7.565305676440083

>  <m_score__min__rmsd>  (140) 
7.565305676440083

>  <meeko>  (140) 
{"free_energy": -8.55, "intermolecular_energy": -10.94, "internal_energy": -3.06, "cluster_size": 30, "cluster_id": 3, "rank_in_cluster": 3}

>  <energy>  (140) 
-8.24

>  <cluster_rmsd>  (140) 
0.0

>  <cluster>  (140) 
4

$$$$

     RDKit          3D

 68 72  0  0  0  0  0  0  0  0999 V2000
  136.4460   72.1780  223.2640 C   0  0  0  0  0  0  0  0  0  0  0  0
  136.6320   70.8530  222.5740 C   0  0  0  0  0  0  0  0  0  0  0  0
  138.0370   70.6870  222.0990 C   0  0  0  0  0  0  0  0  0  0  0  0
  138.2260   69.8980  221.1510 O   0  0  0  0  0  0  0  0  0  0  0  0
  139.0650   71.4280  222.7430 N   0  0  0  0  0  0  0  0  0  0  0  0
  139.6190   70.9900  223.9910 C   0  0  0  0  0  0  0  0  0  0  0  0
  140.3440   71.8230  224.8150 C   0  0  0  0  0  0  0  0  0  0  0  0
  140.8550   71.3560  226.0020 C   0  0  0  0  0  0  0  0  0  0  0  0
  140.6290   70.0270  226.3640 C   0  0  0  0  0  0  0  0  0  0  0  0
  139.9040   69.1810  225.5500 C   0  0  0  0  0  0  0  0  0  0  0  0
  139.4020   69.6690  224.3650 C   0  0  0  0  0  0  0  0  0  0  0  0
  139.5260   72.6370  222.0920 C   0  0  0  0  0  0  0  0  0  0  0  0
  138.9080   72.8450  220.7280 C   0  0  0  0  0  0  0  0  0  0  0  0
  139.9350   73.3840  219.7550 C   0  0  0  0  0  0  0  0  0  0  0  0
  140.7920   74.3940  220.3330 N   0  0  0  0  0  0  0  0  0  0  0  0
  140.9460   75.6400  219.6810 C   0  0  0  0  0  0  0  0  0  0  0  0
  140.3130   75.8070  218.6060 O   0  0  0  0  0  0  0  0  0  0  0  0
  141.7900   76.7520  220.1660 C   0  0  1  0  0  0  0  0  0  0  0  0
  142.4550   77.3900  219.0770 N   0  0  0  0  0  0  0  0  0  0  0  0
  140.8150   77.7300  220.8660 C   0  0  2  0  0  0  0  0  0  0  0  0
  141.4750   78.8180  221.5590 C   0  0  0  0  0  0  0  0  0  0  0  0
  142.2010   80.0040  221.5090 C   0  0  0  0  0  0  0  0  0  0  0  0
  142.5920   80.6480  222.6650 C   0  0  0  0  0  0  0  0  0  0  0  0
  142.2830   80.1450  223.9120 C   0  0  0  0  0  0  0  0  0  0  0  0
  141.5580   78.9620  223.9570 C   0  0  0  0  0  0  0  0  0  0  0  0
  141.1650   78.3160  222.7790 C   0  0  0  0  0  0  0  0  0  0  0  0
  140.4650   77.1790  222.2060 C   0  0  1  0  0  0  0  0  0  0  0  0
  139.0080   77.1210  222.4540 C   0  0  0  0  0  0  0  0  0  0  0  0
  138.4200   75.8520  222.4300 C   0  0  0  0  0  0  0  0  0  0  0  0
  137.0710   75.6790  222.6560 C   0  0  0  0  0  0  0  0  0  0  0  0
  136.2470   76.7550  222.9150 C   0  0  0  0  0  0  0  0  0  0  0  0
  136.8320   78.0130  222.9390 C   0  0  0  0  0  0  0  0  0  0  0  0
  138.1990   78.1840  222.7100 C   0  0  0  0  0  0  0  0  0  0  0  0
  141.4570   74.0500  221.5810 C   0  0  0  0  0  0  0  0  0  0  0  0
  141.0310   72.6440  221.9650 C   0  0  0  0  0  0  0  0  0  0  0  0
  136.4668   72.0300  224.3538 H   0  0  0  0  0  0  0  0  0  0  0  0
  137.2571   72.8609  222.9712 H   0  0  0  0  0  0  0  0  0  0  0  0
  135.4782   72.6112  222.9712 H   0  0  0  0  0  0  0  0  0  0  0  0
  136.3935   70.0438  223.2799 H   0  0  0  0  0  0  0  0  0  0  0  0
  135.9619   70.8159  221.7024 H   0  0  0  0  0  0  0  0  0  0  0  0
  140.5149   72.8690  224.5206 H   0  0  0  0  0  0  0  0  0  0  0  0
  141.4349   72.0212  226.6587 H   0  0  0  0  0  0  0  0  0  0  0  0
  141.0354   69.6481  227.3134 H   0  0  0  0  0  0  0  0  0  0  0  0
  139.7303   68.1351  225.8430 H   0  0  0  0  0  0  0  0  0  0  0  0
  138.8222   69.0058  223.7062 H   0  0  0  0  0  0  0  0  0  0  0  0
  139.2027   73.4680  222.7362 H   0  0  0  0  0  0  0  0  0  0  0  0
  138.5251   71.8840  220.3541 H   0  0  0  0  0  0  0  0  0  0  0  0
  138.0876   73.5723  220.8172 H   0  0  0  0  0  0  0  0  0  0  0  0
  140.5623   72.5487  219.4105 H   0  0  0  0  0  0  0  0  0  0  0  0
  139.3850   73.8564  218.9277 H   0  0  0  0  0  0  0  0  0  0  0  0
  142.5767   76.4024  220.8507 H   0  0  0  0  0  0  0  0  0  0  0  0
  142.8740   78.2920  219.3430 H   0  0  0  0  0  0  0  0  0  0  0  0
  141.7770   77.4590  218.2880 H   0  0  0  0  0  0  0  0  0  0  0  0
  140.0850   77.9450  220.0718 H   0  0  0  0  0  0  0  0  0  0  0  0
  142.4674   80.4349  220.5326 H   0  0  0  0  0  0  0  0  0  0  0  0
  143.1637   81.5848  222.5905 H   0  0  0  0  0  0  0  0  0  0  0  0
  142.5979   80.6596  224.8318 H   0  0  0  0  0  0  0  0  0  0  0  0
  141.2889   78.5267  224.9307 H   0  0  0  0  0  0  0  0  0  0  0  0
  140.7124   76.1532  222.5166 H   0  0  0  0  0  0  0  0  0  0  0  0
  139.0481   74.9722  222.2262 H   0  0  0  0  0  0  0  0  0  0  0  0
  136.6442   74.6655  222.6294 H   0  0  0  0  0  0  0  0  0  0  0  0
  135.1701   76.6210  223.0951 H   0  0  0  0  0  0  0  0  0  0  0  0
  136.2058   78.8942  223.1427 H   0  0  0  0  0  0  0  0  0  0  0  0
  138.6290   79.1961  222.7372 H   0  0  0  0  0  0  0  0  0  0  0  0
  142.5480   74.0860  221.4454 H   0  0  0  0  0  0  0  0  0  0  0  0
  141.1808   74.7633  222.3715 H   0  0  0  0  0  0  0  0  0  0  0  0
  141.3444   71.9323  221.1870 H   0  0  0  0  0  0  0  0  0  0  0  0
  141.4985   72.3465  222.9152 H   0  0  0  0  0  0  0  0  0  0  0  0
  1  2  1  0
  2  3  1  0
  3  4  2  0
  3  5  1  0
  5  6  1  0
  6  7  2  0
  7  8  1  0
  8  9  2  0
  9 10  1  0
 10 11  2  0
  5 12  1  0
 12 13  1  0
 13 14  1  0
 14 15  1  0
 15 16  1  0
 16 17  2  0
 16 18  1  0
 18 19  1  0
 18 20  1  0
 20 21  1  0
 21 22  2  0
 22 23  1  0
 23 24  2  0
 24 25  1  0
 25 26  2  0
 26 27  1  0
 27 28  1  0
 28 29  2  0
 29 30  1  0
 30 31  2  0
 31 32  1  0
 32 33  2  0
 15 34  1  0
 34 35  1  0
 11  6  1  0
 35 12  1  0
 27 20  1  0
 33 28  1  0
 26 21  1  0
  1 36  1  0
  1 37  1  0
  1 38  1  0
  2 39  1  0
  2 40  1  0
  7 41  1  0
  8 42  1  0
  9 43  1  0
 10 44  1  0
 11 45  1  0
 12 46  1  0
 13 47  1  0
 13 48  1  0
 14 49  1  0
 14 50  1  0
 18 51  1  1
 19 52  1  0
 19 53  1  0
 20 54  1  6
 22 55  1  0
 23 56  1  0
 24 57  1  0
 25 58  1  0
 27 59  1  1
 29 60  1  0
 30 61  1  0
 31 62  1  0
 32 63  1  0
 33 64  1  0
 34 65  1  0
 34 66  1  0
 35 67  1  0
 35 68  1  0
M  END
>  <smiles>  (141) 
CCC(=O)N(c1ccccc1)C1CCN(C(=O)[C@@H](N)C2c3ccccc3C2c2ccccc2)CC1

>  <score_type>  (141) 
oracle

>  <origin>  (141) 
autodockgpu

>  <m_score__min__energy>  (141) 
-9.1199999999999992

>  <m_primary>  (141) 
energy

>  <rmsd>  (141) 
8.558318714900887

>  <m_score__min__rmsd>  (141) 
8.558318714900887

>  <meeko>  (141) 
{"free_energy": -7.57, "intermolecular_energy": -9.96, "internal_energy": -3.68, "cluster_size": 30, "cluster_id": 3, "rank_in_cluster": 29}

>  <energy>  (141) 
-8.18

>  <cluster_rmsd>  (141) 
0.1

>  <cluster>  (141) 
4

$$$$

     RDKit          3D

 68 72  0  0  0  0  0  0  0  0999 V2000
  138.8350   67.3320  223.0590 C   0  0  0  0  0  0  0  0  0  0  0  0
  138.1730   68.6640  222.8270 C   0  0  0  0  0  0  0  0  0  0  0  0
  137.9380   69.3780  224.1180 C   0  0  0  0  0  0  0  0  0  0  0  0
  136.8800   69.1150  224.7250 O   0  0  0  0  0  0  0  0  0  0  0  0
  138.9170   70.3020  224.5730 N   0  0  0  0  0  0  0  0  0  0  0  0
  139.6460   70.0670  225.7850 C   0  0  0  0  0  0  0  0  0  0  0  0
  139.6880   68.8350  226.4000 C   0  0  0  0  0  0  0  0  0  0  0  0
  140.4010   68.6610  227.5620 C   0  0  0  0  0  0  0  0  0  0  0  0
  141.0810   69.7480  228.1130 C   0  0  0  0  0  0  0  0  0  0  0  0
  141.0480   70.9870  227.5090 C   0  0  0  0  0  0  0  0  0  0  0  0
  140.3280   71.1410  226.3460 C   0  0  0  0  0  0  0  0  0  0  0  0
  139.1470   71.4830  223.7680 C   0  0  0  0  0  0  0  0  0  0  0  0
  137.9430   71.8760  222.9390 C   0  0  0  0  0  0  0  0  0  0  0  0
  138.3730   72.3430  221.5650 C   0  0  0  0  0  0  0  0  0  0  0  0
  139.5500   73.1820  221.5920 N   0  0  0  0  0  0  0  0  0  0  0  0
  139.5280   74.4420  220.9470 C   0  0  0  0  0  0  0  0  0  0  0  0
  138.4590   74.7730  220.3730 O   0  0  0  0  0  0  0  0  0  0  0  0
  140.6610   75.3900  220.9010 C   0  0  1  0  0  0  0  0  0  0  0  0
  140.7160   76.0460  219.6350 N   0  0  0  0  0  0  0  0  0  0  0  0
  140.3910   76.4060  222.0380 C   0  0  2  0  0  0  0  0  0  0  0  0
  138.9910   76.5310  222.3900 C   0  0  0  0  0  0  0  0  0  0  0  0
  137.8490   75.9890  222.9700 C   0  0  0  0  0  0  0  0  0  0  0  0
  136.6600   76.6890  222.9900 C   0  0  0  0  0  0  0  0  0  0  0  0
  136.5550   77.9500  222.4390 C   0  0  0  0  0  0  0  0  0  0  0  0
  137.6970   78.4870  221.8630 C   0  0  0  0  0  0  0  0  0  0  0  0
  138.8980   77.7700  221.8460 C   0  0  0  0  0  0  0  0  0  0  0  0
  140.2950   77.7710  221.4470 C   0  0  1  0  0  0  0  0  0  0  0  0
  141.1620   78.7630  222.1190 C   0  0  0  0  0  0  0  0  0  0  0  0
  141.3590   78.5930  223.4920 C   0  0  0  0  0  0  0  0  0  0  0  0
  142.1550   79.4540  224.2180 C   0  0  0  0  0  0  0  0  0  0  0  0
  142.7900   80.5200  223.6140 C   0  0  0  0  0  0  0  0  0  0  0  0
  142.5930   80.6870  222.2490 C   0  0  0  0  0  0  0  0  0  0  0  0
  141.7870   79.8120  221.5190 C   0  0  0  0  0  0  0  0  0  0  0  0
  140.7100   72.6580  222.2970 C   0  0  0  0  0  0  0  0  0  0  0  0
  140.3390   71.2960  222.8590 C   0  0  0  0  0  0  0  0  0  0  0  0
  138.9251   67.1507  224.1402 H   0  0  0  0  0  0  0  0  0  0  0  0
  138.2275   66.5363  222.6032 H   0  0  0  0  0  0  0  0  0  0  0  0
  139.8361   67.3357  222.6032 H   0  0  0  0  0  0  0  0  0  0  0  0
  138.8212   69.2812  222.1876 H   0  0  0  0  0  0  0  0  0  0  0  0
  137.2017   68.4922  222.3401 H   0  0  0  0  0  0  0  0  0  0  0  0
  139.1474   67.9850  225.9582 H   0  0  0  0  0  0  0  0  0  0  0  0
  140.4353   67.6767  228.0519 H   0  0  0  0  0  0  0  0  0  0  0  0
  141.6521   69.6142  229.0436 H   0  0  0  0  0  0  0  0  0  0  0  0
  141.5881   71.8382  227.9492 H   0  0  0  0  0  0  0  0  0  0  0  0
  140.2918   72.1246  225.8549 H   0  0  0  0  0  0  0  0  0  0  0  0
  139.3451   72.2983  224.4794 H   0  0  0  0  0  0  0  0  0  0  0  0
  137.2771   71.0068  222.8336 H   0  0  0  0  0  0  0  0  0  0  0  0
  137.4167   72.6988  223.4451 H   0  0  0  0  0  0  0  0  0  0  0  0
  138.5877   71.4591  220.9465 H   0  0  0  0  0  0  0  0  0  0  0  0
  137.5508   72.9459  221.1521 H   0  0  0  0  0  0  0  0  0  0  0  0
  141.6277   74.8817  221.0315 H   0  0  0  0  0  0  0  0  0  0  0  0
  139.7950   76.1020  219.1780 H   0  0  0  0  0  0  0  0  0  0  0  0
  141.4410   75.5650  219.0600 H   0  0  0  0  0  0  0  0  0  0  0  0
  141.1263   76.1090  222.8003 H   0  0  0  0  0  0  0  0  0  0  0  0
  137.8943   74.9863  223.4200 H   0  0  0  0  0  0  0  0  0  0  0  0
  135.7750   76.2312  223.4561 H   0  0  0  0  0  0  0  0  0  0  0  0
  135.6058   78.5057  222.4558 H   0  0  0  0  0  0  0  0  0  0  0  0
  137.6576   79.4902  221.4136 H   0  0  0  0  0  0  0  0  0  0  0  0
  140.5816   77.9975  220.4094 H   0  0  0  0  0  0  0  0  0  0  0  0
  140.8679   77.7532  224.0055 H   0  0  0  0  0  0  0  0  0  0  0  0
  142.2860   79.2881  225.2975 H   0  0  0  0  0  0  0  0  0  0  0  0
  143.4258   81.2089  224.1895 H   0  0  0  0  0  0  0  0  0  0  0  0
  143.0823   81.5261  221.7328 H   0  0  0  0  0  0  0  0  0  0  0  0
  141.6547   79.9735  220.4390 H   0  0  0  0  0  0  0  0  0  0  0  0
  141.5562   72.5574  221.6014 H   0  0  0  0  0  0  0  0  0  0  0  0
  141.0056   73.3396  223.1082 H   0  0  0  0  0  0  0  0  0  0  0  0
  140.0806   70.6101  222.0388 H   0  0  0  0  0  0  0  0  0  0  0  0
  141.1844   70.8660  223.4161 H   0  0  0  0  0  0  0  0  0  0  0  0
  1  2  1  0
  2  3  1  0
  3  4  2  0
  3  5  1  0
  5  6  1  0
  6  7  2  0
  7  8  1  0
  8  9  2  0
  9 10  1  0
 10 11  2  0
  5 12  1  0
 12 13  1  0
 13 14  1  0
 14 15  1  0
 15 16  1  0
 16 17  2  0
 16 18  1  0
 18 19  1  0
 18 20  1  0
 20 21  1  0
 21 22  2  0
 22 23  1  0
 23 24  2  0
 24 25  1  0
 25 26  2  0
 26 27  1  0
 27 28  1  0
 28 29  2  0
 29 30  1  0
 30 31  2  0
 31 32  1  0
 32 33  2  0
 15 34  1  0
 34 35  1  0
 11  6  1  0
 35 12  1  0
 27 20  1  0
 33 28  1  0
 26 21  1  0
  1 36  1  0
  1 37  1  0
  1 38  1  0
  2 39  1  0
  2 40  1  0
  7 41  1  0
  8 42  1  0
  9 43  1  0
 10 44  1  0
 11 45  1  0
 12 46  1  0
 13 47  1  0
 13 48  1  0
 14 49  1  0
 14 50  1  0
 18 51  1  1
 19 52  1  0
 19 53  1  0
 20 54  1  1
 22 55  1  0
 23 56  1  0
 24 57  1  0
 25 58  1  0
 27 59  1  6
 29 60  1  0
 30 61  1  0
 31 62  1  0
 32 63  1  0
 33 64  1  0
 34 65  1  0
 34 66  1  0
 35 67  1  0
 35 68  1  0
M  END
>  <smiles>  (142) 
CCC(=O)N(c1ccccc1)C1CCN(C(=O)[C@@H](N)C2c3ccccc3C2c2ccccc2)CC1

>  <score_type>  (142) 
oracle

>  <origin>  (142) 
autodockgpu

>  <m_score__min__energy>  (142) 
-9.1199999999999992

>  <m_primary>  (142) 
energy

>  <rmsd>  (142) 
7.570866805136336

>  <m_score__min__rmsd>  (142) 
7.570866805136336

>  <meeko>  (142) 
{"free_energy": -8.57, "intermolecular_energy": -10.96, "internal_energy": -2.92, "cluster_size": 30, "cluster_id": 3, "rank_in_cluster": 1}

>  <energy>  (142) 
-8.09

>  <cluster_rmsd>  (142) 
0.31

>  <cluster>  (142) 
4

$$$$

     RDKit          3D

 68 72  0  0  0  0  0  0  0  0999 V2000
  142.7760   77.0280  217.7650 C   0  0  0  0  0  0  0  0  0  0  0  0
  142.5400   78.2520  218.6100 C   0  0  0  0  0  0  0  0  0  0  0  0
  141.2620   78.1380  219.3750 C   0  0  0  0  0  0  0  0  0  0  0  0
  140.2030   78.2000  218.7190 O   0  0  0  0  0  0  0  0  0  0  0  0
  141.3250   77.9690  220.7850 N   0  0  0  0  0  0  0  0  0  0  0  0
  141.6180   79.0760  221.6480 C   0  0  0  0  0  0  0  0  0  0  0  0
  141.6280   80.3810  221.2060 C   0  0  0  0  0  0  0  0  0  0  0  0
  141.9150   81.4070  222.0730 C   0  0  0  0  0  0  0  0  0  0  0  0
  142.1960   81.1130  223.4080 C   0  0  0  0  0  0  0  0  0  0  0  0
  142.1900   79.8120  223.8660 C   0  0  0  0  0  0  0  0  0  0  0  0
  141.9000   78.7980  222.9810 C   0  0  0  0  0  0  0  0  0  0  0  0
  141.0850   76.6420  221.3100 C   0  0  0  0  0  0  0  0  0  0  0  0
  142.0370   75.6060  220.7540 C   0  0  0  0  0  0  0  0  0  0  0  0
  141.3100   74.3060  220.4820 C   0  0  0  0  0  0  0  0  0  0  0  0
  140.3670   73.9540  221.5200 N   0  0  0  0  0  0  0  0  0  0  0  0
  140.4250   72.6700  222.1130 C   0  0  0  0  0  0  0  0  0  0  0  0
  141.3160   71.8860  221.6960 O   0  0  0  0  0  0  0  0  0  0  0  0
  139.5220   72.1880  223.1800 C   0  0  1  0  0  0  0  0  0  0  0  0
  138.1700   72.1780  222.7260 N   0  0  0  0  0  0  0  0  0  0  0  0
  140.0050   70.7540  223.5060 C   0  0  2  0  0  0  0  0  0  0  0  0
  139.5600   69.7560  222.5550 C   0  0  0  0  0  0  0  0  0  0  0  0
  139.6320   69.1990  221.2820 C   0  0  0  0  0  0  0  0  0  0  0  0
  138.8480   68.1190  220.9320 C   0  0  0  0  0  0  0  0  0  0  0  0
  137.9640   67.5490  221.8250 C   0  0  0  0  0  0  0  0  0  0  0  0
  137.8960   68.1070  223.0940 C   0  0  0  0  0  0  0  0  0  0  0  0
  138.6950   69.2030  223.4400 C   0  0  0  0  0  0  0  0  0  0  0  0
  139.0620   70.1430  224.4850 C   0  0  1  0  0  0  0  0  0  0  0  0
  139.7360   69.5680  225.6700 C   0  0  0  0  0  0  0  0  0  0  0  0
  140.2310   70.4770  226.6100 C   0  0  0  0  0  0  0  0  0  0  0  0
  140.8700   70.0520  227.7560 C   0  0  0  0  0  0  0  0  0  0  0  0
  141.0460   68.7090  228.0190 C   0  0  0  0  0  0  0  0  0  0  0  0
  140.5540   67.8080  227.0840 C   0  0  0  0  0  0  0  0  0  0  0  0
  139.9070   68.2430  225.9250 C   0  0  0  0  0  0  0  0  0  0  0  0
  139.3950   74.9700  221.8930 C   0  0  0  0  0  0  0  0  0  0  0  0
  139.6630   76.2040  221.0480 C   0  0  0  0  0  0  0  0  0  0  0  0
  142.9436   76.1586  218.4177 H   0  0  0  0  0  0  0  0  0  0  0  0
  141.8965   76.8456  217.1300 H   0  0  0  0  0  0  0  0  0  0  0  0
  143.6603   77.1857  217.1300 H   0  0  0  0  0  0  0  0  0  0  0  0
  143.3739   78.3661  219.3182 H   0  0  0  0  0  0  0  0  0  0  0  0
  142.4739   79.1273  217.9470 H   0  0  0  0  0  0  0  0  0  0  0  0
  141.4047   80.6026  220.1519 H   0  0  0  0  0  0  0  0  0  0  0  0
  141.9232   82.4485  221.7191 H   0  0  0  0  0  0  0  0  0  0  0  0
  142.4259   81.9316  224.1059 H   0  0  0  0  0  0  0  0  0  0  0  0
  142.4130   79.5885  224.9197 H   0  0  0  0  0  0  0  0  0  0  0  0
  141.8913   77.7557  223.3325 H   0  0  0  0  0  0  0  0  0  0  0  0
  141.2602   76.7112  222.3937 H   0  0  0  0  0  0  0  0  0  0  0  0
  142.4711   75.9807  219.8153 H   0  0  0  0  0  0  0  0  0  0  0  0
  142.8306   75.4207  221.4928 H   0  0  0  0  0  0  0  0  0  0  0  0
  140.7644   74.4025  219.5318 H   0  0  0  0  0  0  0  0  0  0  0  0
  142.0674   73.5092  220.4438 H   0  0  0  0  0  0  0  0  0  0  0  0
  139.5490   72.8378  224.0671 H   0  0  0  0  0  0  0  0  0  0  0  0
  138.0700   72.5470  221.7690 H   0  0  0  0  0  0  0  0  0  0  0  0
  137.5940   72.6850  223.4330 H   0  0  0  0  0  0  0  0  0  0  0  0
  141.0799   70.9021  223.6865 H   0  0  0  0  0  0  0  0  0  0  0  0
  140.3252   69.6266  220.5427 H   0  0  0  0  0  0  0  0  0  0  0  0
  138.9296   67.7026  219.9172 H   0  0  0  0  0  0  0  0  0  0  0  0
  137.3394   66.6885  221.5430 H   0  0  0  0  0  0  0  0  0  0  0  0
  137.2053   67.6825  223.8374 H   0  0  0  0  0  0  0  0  0  0  0  0
  138.2908   70.7204  225.0159 H   0  0  0  0  0  0  0  0  0  0  0  0
  140.1080   71.5554  226.4315 H   0  0  0  0  0  0  0  0  0  0  0  0
  141.2459   70.7968  228.4729 H   0  0  0  0  0  0  0  0  0  0  0  0
  141.5551   68.3662  228.9318 H   0  0  0  0  0  0  0  0  0  0  0  0
  140.6763   66.7290  227.2597 H   0  0  0  0  0  0  0  0  0  0  0  0
  139.5292   67.5011  225.2061 H   0  0  0  0  0  0  0  0  0  0  0  0
  138.3764   74.6007  221.7029 H   0  0  0  0  0  0  0  0  0  0  0  0
  139.4834   75.2110  222.9626 H   0  0  0  0  0  0  0  0  0  0  0  0
  139.5359   75.9628  219.9823 H   0  0  0  0  0  0  0  0  0  0  0  0
  138.9588   77.0082  221.3075 H   0  0  0  0  0  0  0  0  0  0  0  0
  1  2  1  0
  2  3  1  0
  3  4  2  0
  3  5  1  0
  5  6  1  0
  6  7  2  0
  7  8  1  0
  8  9  2  0
  9 10  1  0
 10 11  2  0
  5 12  1  0
 12 13  1  0
 13 14  1  0
 14 15  1  0
 15 16  1  0
 16 17  2  0
 16 18  1  0
 18 19  1  0
 18 20  1  0
 20 21  1  0
 21 22  2  0
 22 23  1  0
 23 24  2  0
 24 25  1  0
 25 26  2  0
 26 27  1  0
 27 28  1  0
 28 29  2  0
 29 30  1  0
 30 31  2  0
 31 32  1  0
 32 33  2  0
 15 34  1  0
 34 35  1  0
 11  6  1  0
 35 12  1  0
 27 20  1  0
 33 28  1  0
 26 21  1  0
  1 36  1  0
  1 37  1  0
  1 38  1  0
  2 39  1  0
  2 40  1  0
  7 41  1  0
  8 42  1  0
  9 43  1  0
 10 44  1  0
 11 45  1  0
 12 46  1  0
 13 47  1  0
 13 48  1  0
 14 49  1  0
 14 50  1  0
 18 51  1  1
 19 52  1  0
 19 53  1  0
 20 54  1  1
 22 55  1  0
 23 56  1  0
 24 57  1  0
 25 58  1  0
 27 59  1  1
 29 60  1  0
 30 61  1  0
 31 62  1  0
 32 63  1  0
 33 64  1  0
 34 65  1  0
 34 66  1  0
 35 67  1  0
 35 68  1  0
M  END
>  <smiles>  (143) 
CCC(=O)N(c1ccccc1)C1CCN(C(=O)[C@@H](N)C2c3ccccc3C2c2ccccc2)CC1

>  <score_type>  (143) 
oracle

>  <origin>  (143) 
autodockgpu

>  <m_score__min__energy>  (143) 
-9.1199999999999992

>  <m_primary>  (143) 
energy

>  <rmsd>  (143) 
4.326636344442593

>  <m_score__min__rmsd>  (143) 
4.326636344442593

>  <meeko>  (143) 
{"free_energy": -8.95, "intermolecular_energy": -11.33, "internal_energy": -2.16, "cluster_size": 1, "cluster_id": 2, "rank_in_cluster": 1}

>  <energy>  (143) 
-8.04

>  <cluster_rmsd>  (143) 
0.35

>  <cluster>  (143) 
4

$$$$

     RDKit          3D

 68 72  0  0  0  0  0  0  0  0999 V2000
  140.8530   69.8270  219.7820 C   0  0  0  0  0  0  0  0  0  0  0  0
  139.8570   69.3440  220.8030 C   0  0  0  0  0  0  0  0  0  0  0  0
  139.0080   70.4680  221.2980 C   0  0  0  0  0  0  0  0  0  0  0  0
  137.8250   70.5000  220.9040 O   0  0  0  0  0  0  0  0  0  0  0  0
  139.5870   71.4230  222.1770 N   0  0  0  0  0  0  0  0  0  0  0  0
  139.7740   71.1280  223.5680 C   0  0  0  0  0  0  0  0  0  0  0  0
  140.6480   71.8350  224.3660 C   0  0  0  0  0  0  0  0  0  0  0  0
  140.7920   71.5130  225.6940 C   0  0  0  0  0  0  0  0  0  0  0  0
  140.0430   70.4620  226.2250 C   0  0  0  0  0  0  0  0  0  0  0  0
  139.1650   69.7460  225.4390 C   0  0  0  0  0  0  0  0  0  0  0  0
  139.0350   70.0830  224.1110 C   0  0  0  0  0  0  0  0  0  0  0  0
  139.9770   72.6990  221.6140 C   0  0  0  0  0  0  0  0  0  0  0  0
  139.3550   72.9620  220.2600 C   0  0  0  0  0  0  0  0  0  0  0  0
  140.3520   73.6270  219.3360 C   0  0  0  0  0  0  0  0  0  0  0  0
  141.1420   74.6450  219.9900 N   0  0  0  0  0  0  0  0  0  0  0  0
  141.2240   75.9400  219.4250 C   0  0  0  0  0  0  0  0  0  0  0  0
  140.5880   76.1400  218.3580 O   0  0  0  0  0  0  0  0  0  0  0  0
  141.9950   77.0660  219.9920 C   0  0  1  0  0  0  0  0  0  0  0  0
  142.5890   77.8430  218.9530 N   0  0  0  0  0  0  0  0  0  0  0  0
  140.9680   77.9050  220.7900 C   0  0  2  0  0  0  0  0  0  0  0  0
  141.5620   78.9710  221.5700 C   0  0  0  0  0  0  0  0  0  0  0  0
  142.2020   80.2050  221.6190 C   0  0  0  0  0  0  0  0  0  0  0  0
  142.5690   80.7690  222.8240 C   0  0  0  0  0  0  0  0  0  0  0  0
  142.3190   80.1360  224.0240 C   0  0  0  0  0  0  0  0  0  0  0  0
  141.6800   78.9050  223.9700 C   0  0  0  0  0  0  0  0  0  0  0  0
  141.3110   78.3410  222.7440 C   0  0  0  0  0  0  0  0  0  0  0  0
  140.6820   77.2130  222.0790 C   0  0  1  0  0  0  0  0  0  0  0  0
  139.2370   77.0280  222.3380 C   0  0  0  0  0  0  0  0  0  0  0  0
  138.7410   75.7270  222.2160 C   0  0  0  0  0  0  0  0  0  0  0  0
  137.4120   75.4380  222.4420 C   0  0  0  0  0  0  0  0  0  0  0  0
  136.5180   76.4260  222.8000 C   0  0  0  0  0  0  0  0  0  0  0  0
  137.0120   77.7180  222.9210 C   0  0  0  0  0  0  0  0  0  0  0  0
  138.3590   78.0050  222.6910 C   0  0  0  0  0  0  0  0  0  0  0  0
  141.8200   74.2590  221.2180 C   0  0  0  0  0  0  0  0  0  0  0  0
  141.4800   72.8060  221.5020 C   0  0  0  0  0  0  0  0  0  0  0  0
  141.7282   70.2514  220.2957 H   0  0  0  0  0  0  0  0  0  0  0  0
  141.1711   68.9831  219.1522 H   0  0  0  0  0  0  0  0  0  0  0  0
  140.3873   70.5993  219.1522 H   0  0  0  0  0  0  0  0  0  0  0  0
  139.2114   68.5816  220.3426 H   0  0  0  0  0  0  0  0  0  0  0  0
  140.4078   68.9199  221.6555 H   0  0  0  0  0  0  0  0  0  0  0  0
  141.2334   72.6616  223.9371 H   0  0  0  0  0  0  0  0  0  0  0  0
  141.4893   72.0769  226.3310 H   0  0  0  0  0  0  0  0  0  0  0  0
  140.1548   70.2006  227.2876 H   0  0  0  0  0  0  0  0  0  0  0  0
  138.5783   68.9194  225.8662 H   0  0  0  0  0  0  0  0  0  0  0  0
  138.3389   69.5195  223.4723 H   0  0  0  0  0  0  0  0  0  0  0  0
  139.5999   73.4626  222.3102 H   0  0  0  0  0  0  0  0  0  0  0  0
  139.0336   72.0073  219.8182 H   0  0  0  0  0  0  0  0  0  0  0  0
  138.4914   73.6308  220.3903 H   0  0  0  0  0  0  0  0  0  0  0  0
  141.0312   72.8568  218.9417 H   0  0  0  0  0  0  0  0  0  0  0  0
  139.7791   74.1204  218.5370 H   0  0  0  0  0  0  0  0  0  0  0  0
  142.8196   76.7179  220.6314 H   0  0  0  0  0  0  0  0  0  0  0  0
  142.3140   77.5230  218.0140 H   0  0  0  0  0  0  0  0  0  0  0  0
  143.6200   77.8470  219.1100 H   0  0  0  0  0  0  0  0  0  0  0  0
  140.2102   78.1372  220.0272 H   0  0  0  0  0  0  0  0  0  0  0  0
  142.4190   80.7398  220.6826 H   0  0  0  0  0  0  0  0  0  0  0  0
  143.0730   81.7468  222.8277 H   0  0  0  0  0  0  0  0  0  0  0  0
  142.6135   80.5876  224.9828 H   0  0  0  0  0  0  0  0  0  0  0  0
  141.4608   78.3658  224.9034 H   0  0  0  0  0  0  0  0  0  0  0  0
  141.0064   76.1839  222.2929 H   0  0  0  0  0  0  0  0  0  0  0  0
  139.4269   74.9149  221.9331 H   0  0  0  0  0  0  0  0  0  0  0  0
  137.0584   74.4019  222.3350 H   0  0  0  0  0  0  0  0  0  0  0  0
  135.4571   76.1994  222.9821 H   0  0  0  0  0  0  0  0  0  0  0  0
  136.3283   78.5320  223.2038 H   0  0  0  0  0  0  0  0  0  0  0  0
  138.7165   79.0398  222.7972 H   0  0  0  0  0  0  0  0  0  0  0  0
  142.9074   74.3714  221.0958 H   0  0  0  0  0  0  0  0  0  0  0  0
  141.4957   74.8986  222.0521 H   0  0  0  0  0  0  0  0  0  0  0  0
  141.8407   72.1694  220.6806 H   0  0  0  0  0  0  0  0  0  0  0  0
  141.9603   72.4731  222.4339 H   0  0  0  0  0  0  0  0  0  0  0  0
  1  2  1  0
  2  3  1  0
  3  4  2  0
  3  5  1  0
  5  6  1  0
  6  7  2  0
  7  8  1  0
  8  9  2  0
  9 10  1  0
 10 11  2  0
  5 12  1  0
 12 13  1  0
 13 14  1  0
 14 15  1  0
 15 16  1  0
 16 17  2  0
 16 18  1  0
 18 19  1  0
 18 20  1  0
 20 21  1  0
 21 22  2  0
 22 23  1  0
 23 24  2  0
 24 25  1  0
 25 26  2  0
 26 27  1  0
 27 28  1  0
 28 29  2  0
 29 30  1  0
 30 31  2  0
 31 32  1  0
 32 33  2  0
 15 34  1  0
 34 35  1  0
 11  6  1  0
 35 12  1  0
 27 20  1  0
 33 28  1  0
 26 21  1  0
  1 36  1  0
  1 37  1  0
  1 38  1  0
  2 39  1  0
  2 40  1  0
  7 41  1  0
  8 42  1  0
  9 43  1  0
 10 44  1  0
 11 45  1  0
 12 46  1  0
 13 47  1  0
 13 48  1  0
 14 49  1  0
 14 50  1  0
 18 51  1  1
 19 52  1  0
 19 53  1  0
 20 54  1  6
 22 55  1  0
 23 56  1  0
 24 57  1  0
 25 58  1  0
 27 59  1  6
 29 60  1  0
 30 61  1  0
 31 62  1  0
 32 63  1  0
 33 64  1  0
 34 65  1  0
 34 66  1  0
 35 67  1  0
 35 68  1  0
M  END
>  <smiles>  (144) 
CCC(=O)N(c1ccccc1)C1CCN(C(=O)[C@@H](N)C2c3ccccc3C2c2ccccc2)CC1

>  <score_type>  (144) 
oracle

>  <origin>  (144) 
autodockgpu

>  <m_score__min__energy>  (144) 
-9.1199999999999992

>  <m_primary>  (144) 
energy

>  <rmsd>  (144) 
8.703611105838572

>  <m_score__min__rmsd>  (144) 
8.703611105838572

>  <meeko>  (144) 
{"free_energy": -7.56, "intermolecular_energy": -9.94, "internal_energy": -3.64, "cluster_size": 30, "cluster_id": 3, "rank_in_cluster": 30}

>  <energy>  (144) 
-7.89

>  <cluster_rmsd>  (144) 
0.43

>  <cluster>  (144) 
4

$$$$

     RDKit          3D

 68 72  0  0  0  0  0  0  0  0999 V2000
  139.0060   68.7500  221.6110 C   0  0  0  0  0  0  0  0  0  0  0  0
  138.8030   68.4710  223.0770 C   0  0  0  0  0  0  0  0  0  0  0  0
  138.2480   69.6660  223.7790 C   0  0  0  0  0  0  0  0  0  0  0  0
  137.0090   69.7140  223.9210 O   0  0  0  0  0  0  0  0  0  0  0  0
  139.1480   70.6650  224.2380 N   0  0  0  0  0  0  0  0  0  0  0  0
  139.7960   70.5450  225.5120 C   0  0  0  0  0  0  0  0  0  0  0  0
  140.4900   71.5840  226.0930 C   0  0  0  0  0  0  0  0  0  0  0  0
  141.0950   71.4190  227.3160 C   0  0  0  0  0  0  0  0  0  0  0  0
  140.9970   70.1860  227.9630 C   0  0  0  0  0  0  0  0  0  0  0  0
  140.3060   69.1370  227.3950 C   0  0  0  0  0  0  0  0  0  0  0  0
  139.7070   69.3230  226.1680 C   0  0  0  0  0  0  0  0  0  0  0  0
  139.3820   71.8020  223.3740 C   0  0  0  0  0  0  0  0  0  0  0  0
  138.2730   72.0160  222.3670 C   0  0  0  0  0  0  0  0  0  0  0  0
  138.8440   72.4250  221.0260 C   0  0  0  0  0  0  0  0  0  0  0  0
  139.9290   73.3730  221.1340 N   0  0  0  0  0  0  0  0  0  0  0  0
  139.8860   74.5760  220.3900 C   0  0  0  0  0  0  0  0  0  0  0  0
  138.8810   74.7600  219.6560 O   0  0  0  0  0  0  0  0  0  0  0  0
  140.9280   75.6240  220.4110 C   0  0  1  0  0  0  0  0  0  0  0  0
  140.8390   76.4440  219.2470 N   0  0  0  0  0  0  0  0  0  0  0  0
  140.6500   76.4500  221.6910 C   0  0  2  0  0  0  0  0  0  0  0  0
  139.2730   76.3940  222.1370 C   0  0  0  0  0  0  0  0  0  0  0  0
  138.2260   75.6720  222.7010 C   0  0  0  0  0  0  0  0  0  0  0  0
  136.9850   76.2460  222.8870 C   0  0  0  0  0  0  0  0  0  0  0  0
  136.7320   77.5520  222.5220 C   0  0  0  0  0  0  0  0  0  0  0  0
  137.7790   78.2680  221.9600 C   0  0  0  0  0  0  0  0  0  0  0  0
  139.0340   77.6780  221.7750 C   0  0  0  0  0  0  0  0  0  0  0  0
  140.3940   77.8660  221.3000 C   0  0  1  0  0  0  0  0  0  0  0  0
  141.2170   78.8400  222.0510 C   0  0  0  0  0  0  0  0  0  0  0  0
  141.3990   78.5850  223.4140 C   0  0  0  0  0  0  0  0  0  0  0  0
  142.1540   79.4220  224.2080 C   0  0  0  0  0  0  0  0  0  0  0  0
  142.7600   80.5460  223.6880 C   0  0  0  0  0  0  0  0  0  0  0  0
  142.5780   80.7970  222.3340 C   0  0  0  0  0  0  0  0  0  0  0  0
  141.8130   79.9470  221.5330 C   0  0  0  0  0  0  0  0  0  0  0  0
  141.0240   73.0170  222.0250 C   0  0  0  0  0  0  0  0  0  0  0  0
  140.6990   71.6690  222.6460 C   0  0  0  0  0  0  0  0  0  0  0  0
  139.6494   69.6342  221.4917 H   0  0  0  0  0  0  0  0  0  0  0  0
  139.4847   67.8814  221.1353 H   0  0  0  0  0  0  0  0  0  0  0  0
  138.0322   68.9382  221.1353 H   0  0  0  0  0  0  0  0  0  0  0  0
  138.1022   67.6306  223.1892 H   0  0  0  0  0  0  0  0  0  0  0  0
  139.7772   68.2239  223.5241 H   0  0  0  0  0  0  0  0  0  0  0  0
  140.5603   72.5517  225.5747 H   0  0  0  0  0  0  0  0  0  0  0  0
  141.6496   72.2483  227.7792 H   0  0  0  0  0  0  0  0  0  0  0  0
  141.4791   70.0491  228.9422 H   0  0  0  0  0  0  0  0  0  0  0  0
  140.2341   68.1688  227.9120 H   0  0  0  0  0  0  0  0  0  0  0  0
  139.1522   68.4950  225.7026 H   0  0  0  0  0  0  0  0  0  0  0  0
  139.4094   72.6811  224.0346 H   0  0  0  0  0  0  0  0  0  0  0  0
  137.7064   71.0806  222.2487 H   0  0  0  0  0  0  0  0  0  0  0  0
  137.6126   72.8169  222.7309 H   0  0  0  0  0  0  0  0  0  0  0  0
  139.2161   71.5246  220.5153 H   0  0  0  0  0  0  0  0  0  0  0  0
  138.0363   72.9157  220.4630 H   0  0  0  0  0  0  0  0  0  0  0  0
  141.9416   75.1967  220.4148 H   0  0  0  0  0  0  0  0  0  0  0  0
  141.3870   77.3120  219.3320 H   0  0  0  0  0  0  0  0  0  0  0  0
  139.8280   76.6040  219.0480 H   0  0  0  0  0  0  0  0  0  0  0  0
  141.4595   76.1258  222.3615 H   0  0  0  0  0  0  0  0  0  0  0  0
  138.3900   74.6272  223.0034 H   0  0  0  0  0  0  0  0  0  0  0  0
  136.1786   75.6482  223.3368 H   0  0  0  0  0  0  0  0  0  0  0  0
  135.7414   78.0068  222.6704 H   0  0  0  0  0  0  0  0  0  0  0  0
  137.6204   79.3132  221.6559 H   0  0  0  0  0  0  0  0  0  0  0  0
  140.5861   78.2541  220.2888 H   0  0  0  0  0  0  0  0  0  0  0  0
  140.9295   77.6971  223.8625 H   0  0  0  0  0  0  0  0  0  0  0  0
  142.2751   79.1887  225.2761 H   0  0  0  0  0  0  0  0  0  0  0  0
  143.3624   81.2160  224.3190 H   0  0  0  0  0  0  0  0  0  0  0  0
  143.0465   81.6843  221.8833 H   0  0  0  0  0  0  0  0  0  0  0  0
  141.6903   80.1768  220.4643 H   0  0  0  0  0  0  0  0  0  0  0  0
  141.9628   72.9500  221.4557 H   0  0  0  0  0  0  0  0  0  0  0  0
  141.1462   73.7806  222.8073 H   0  0  0  0  0  0  0  0  0  0  0  0
  140.6163   70.9047  221.8593 H   0  0  0  0  0  0  0  0  0  0  0  0
  141.4942   71.3648  223.3425 H   0  0  0  0  0  0  0  0  0  0  0  0
  1  2  1  0
  2  3  1  0
  3  4  2  0
  3  5  1  0
  5  6  1  0
  6  7  2  0
  7  8  1  0
  8  9  2  0
  9 10  1  0
 10 11  2  0
  5 12  1  0
 12 13  1  0
 13 14  1  0
 14 15  1  0
 15 16  1  0
 16 17  2  0
 16 18  1  0
 18 19  1  0
 18 20  1  0
 20 21  1  0
 21 22  2  0
 22 23  1  0
 23 24  2  0
 24 25  1  0
 25 26  2  0
 26 27  1  0
 27 28  1  0
 28 29  2  0
 29 30  1  0
 30 31  2  0
 31 32  1  0
 32 33  2  0
 15 34  1  0
 34 35  1  0
 11  6  1  0
 35 12  1  0
 27 20  1  0
 33 28  1  0
 26 21  1  0
  1 36  1  0
  1 37  1  0
  1 38  1  0
  2 39  1  0
  2 40  1  0
  7 41  1  0
  8 42  1  0
  9 43  1  0
 10 44  1  0
 11 45  1  0
 12 46  1  0
 13 47  1  0
 13 48  1  0
 14 49  1  0
 14 50  1  0
 18 51  1  1
 19 52  1  0
 19 53  1  0
 20 54  1  1
 22 55  1  0
 23 56  1  0
 24 57  1  0
 25 58  1  0
 27 59  1  6
 29 60  1  0
 30 61  1  0
 31 62  1  0
 32 63  1  0
 33 64  1  0
 34 65  1  0
 34 66  1  0
 35 67  1  0
 35 68  1  0
M  END
>  <smiles>  (145) 
CCC(=O)N(c1ccccc1)C1CCN(C(=O)[C@@H](N)C2c3ccccc3C2c2ccccc2)CC1

>  <score_type>  (145) 
oracle

>  <origin>  (145) 
autodockgpu

>  <m_score__min__energy>  (145) 
-9.1199999999999992

>  <m_primary>  (145) 
energy

>  <rmsd>  (145) 
7.528243722080969

>  <m_score__min__rmsd>  (145) 
7.528243722080969

>  <meeko>  (145) 
{"free_energy": -8.23, "intermolecular_energy": -10.61, "internal_energy": -3.25, "cluster_size": 30, "cluster_id": 3, "rank_in_cluster": 19}

>  <energy>  (145) 
-8.07

>  <cluster_rmsd>  (145) 
0.0

>  <cluster>  (145) 
5

$$$$

     RDKit          3D

 68 72  0  0  0  0  0  0  0  0999 V2000
  138.7840   67.4130  223.1170 C   0  0  0  0  0  0  0  0  0  0  0  0
  138.6540   68.7970  222.5380 C   0  0  0  0  0  0  0  0  0  0  0  0
  138.1620   69.7640  223.5640 C   0  0  0  0  0  0  0  0  0  0  0  0
  136.9780   69.6410  223.9360 O   0  0  0  0  0  0  0  0  0  0  0  0
  139.0580   70.7550  224.0500 N   0  0  0  0  0  0  0  0  0  0  0  0
  139.6770   70.6210  225.3360 C   0  0  0  0  0  0  0  0  0  0  0  0
  140.5180   71.5800  225.8590 C   0  0  0  0  0  0  0  0  0  0  0  0
  141.0880   71.4060  227.0970 C   0  0  0  0  0  0  0  0  0  0  0  0
  140.8050   70.2460  227.8200 C   0  0  0  0  0  0  0  0  0  0  0  0
  139.9650   69.2780  227.3110 C   0  0  0  0  0  0  0  0  0  0  0  0
  139.4040   69.4710  226.0680 C   0  0  0  0  0  0  0  0  0  0  0  0
  139.3160   71.8970  223.2000 C   0  0  0  0  0  0  0  0  0  0  0  0
  138.2450   72.1080  222.1520 C   0  0  0  0  0  0  0  0  0  0  0  0
  138.8630   72.5260  220.8350 C   0  0  0  0  0  0  0  0  0  0  0  0
  139.9370   73.4820  220.9890 N   0  0  0  0  0  0  0  0  0  0  0  0
  139.9130   74.6880  220.2480 C   0  0  0  0  0  0  0  0  0  0  0  0
  138.9350   74.8680  219.4780 O   0  0  0  0  0  0  0  0  0  0  0  0
  140.9460   75.7430  220.3140 C   0  0  1  0  0  0  0  0  0  0  0  0
  140.8560   76.6050  219.1800 N   0  0  0  0  0  0  0  0  0  0  0  0
  140.6560   76.5180  221.6210 C   0  0  2  0  0  0  0  0  0  0  0  0
  139.2860   76.4000  222.0800 C   0  0  0  0  0  0  0  0  0  0  0  0
  138.2720   75.6250  222.6330 C   0  0  0  0  0  0  0  0  0  0  0  0
  137.0140   76.1500  222.8500 C   0  0  0  0  0  0  0  0  0  0  0  0
  136.7120   77.4580  222.5300 C   0  0  0  0  0  0  0  0  0  0  0  0
  137.7270   78.2270  221.9790 C   0  0  0  0  0  0  0  0  0  0  0  0
  139.0000   77.6860  221.7620 C   0  0  0  0  0  0  0  0  0  0  0  0
  140.3470   77.9360  221.2790 C   0  0  1  0  0  0  0  0  0  0  0  0
  141.1440   78.9130  222.0510 C   0  0  0  0  0  0  0  0  0  0  0  0
  141.3010   78.6530  223.4160 C   0  0  0  0  0  0  0  0  0  0  0  0
  142.0320   79.4930  224.2300 C   0  0  0  0  0  0  0  0  0  0  0  0
  142.6370   80.6260  223.7270 C   0  0  0  0  0  0  0  0  0  0  0  0
  142.4810   80.8820  222.3710 C   0  0  0  0  0  0  0  0  0  0  0  0
  141.7400   80.0290  221.5510 C   0  0  0  0  0  0  0  0  0  0  0  0
  140.9990   73.1290  221.9190 C   0  0  0  0  0  0  0  0  0  0  0  0
  140.6610   71.7760  222.5220 C   0  0  0  0  0  0  0  0  0  0  0  0
  138.7784   67.4730  224.2154 H   0  0  0  0  0  0  0  0  0  0  0  0
  137.9401   66.7935  222.7793 H   0  0  0  0  0  0  0  0  0  0  0  0
  139.7285   66.9615  222.7793 H   0  0  0  0  0  0  0  0  0  0  0  0
  139.6379   69.1284  222.1744 H   0  0  0  0  0  0  0  0  0  0  0  0
  137.9282   68.7639  221.7121 H   0  0  0  0  0  0  0  0  0  0  0  0
  140.7342   72.4907  225.2812 H   0  0  0  0  0  0  0  0  0  0  0  0
  141.7592   72.1716  227.5133 H   0  0  0  0  0  0  0  0  0  0  0  0
  141.2592   70.1017  228.8114 H   0  0  0  0  0  0  0  0  0  0  0  0
  139.7467   68.3672  227.8879 H   0  0  0  0  0  0  0  0  0  0  0  0
  138.7325   68.7067  225.6498 H   0  0  0  0  0  0  0  0  0  0  0  0
  139.3112   72.7734  223.8648 H   0  0  0  0  0  0  0  0  0  0  0  0
  137.6894   71.1695  222.0088 H   0  0  0  0  0  0  0  0  0  0  0  0
  137.5665   72.9036  222.4936 H   0  0  0  0  0  0  0  0  0  0  0  0
  139.2608   71.6304  220.3354 H   0  0  0  0  0  0  0  0  0  0  0  0
  138.0739   73.0126  220.2429 H   0  0  0  0  0  0  0  0  0  0  0  0
  141.9631   75.3240  220.3079 H   0  0  0  0  0  0  0  0  0  0  0  0
  139.8940   76.6890  218.8230 H   0  0  0  0  0  0  0  0  0  0  0  0
  141.5400   76.2660  218.4690 H   0  0  0  0  0  0  0  0  0  0  0  0
  141.4845   76.2014  222.2716 H   0  0  0  0  0  0  0  0  0  0  0  0
  138.4757   74.5779  222.9014 H   0  0  0  0  0  0  0  0  0  0  0  0
  136.2337   75.5106  223.2884 H   0  0  0  0  0  0  0  0  0  0  0  0
  135.7086   77.8736  222.7045 H   0  0  0  0  0  0  0  0  0  0  0  0
  137.5291   79.2749  221.7093 H   0  0  0  0  0  0  0  0  0  0  0  0
  140.5139   78.3625  220.2789 H   0  0  0  0  0  0  0  0  0  0  0  0
  140.8309   77.7584  223.8504 H   0  0  0  0  0  0  0  0  0  0  0  0
  142.1343   79.2552  225.2991 H   0  0  0  0  0  0  0  0  0  0  0  0
  143.2192   81.2992  224.3735 H   0  0  0  0  0  0  0  0  0  0  0  0
  142.9510   81.7754  221.9340 H   0  0  0  0  0  0  0  0  0  0  0  0
  141.6362   80.2635  220.4813 H   0  0  0  0  0  0  0  0  0  0  0  0
  141.9591   73.0710  221.3854 H   0  0  0  0  0  0  0  0  0  0  0  0
  141.0853   73.8898  222.7088 H   0  0  0  0  0  0  0  0  0  0  0  0
  140.6138   71.0143  221.7298 H   0  0  0  0  0  0  0  0  0  0  0  0
  141.4315   71.4744  223.2468 H   0  0  0  0  0  0  0  0  0  0  0  0
  1  2  1  0
  2  3  1  0
  3  4  2  0
  3  5  1  0
  5  6  1  0
  6  7  2  0
  7  8  1  0
  8  9  2  0
  9 10  1  0
 10 11  2  0
  5 12  1  0
 12 13  1  0
 13 14  1  0
 14 15  1  0
 15 16  1  0
 16 17  2  0
 16 18  1  0
 18 19  1  0
 18 20  1  0
 20 21  1  0
 21 22  2  0
 22 23  1  0
 23 24  2  0
 24 25  1  0
 25 26  2  0
 26 27  1  0
 27 28  1  0
 28 29  2  0
 29 30  1  0
 30 31  2  0
 31 32  1  0
 32 33  2  0
 15 34  1  0
 34 35  1  0
 11  6  1  0
 35 12  1  0
 27 20  1  0
 33 28  1  0
 26 21  1  0
  1 36  1  0
  1 37  1  0
  1 38  1  0
  2 39  1  0
  2 40  1  0
  7 41  1  0
  8 42  1  0
  9 43  1  0
 10 44  1  0
 11 45  1  0
 12 46  1  0
 13 47  1  0
 13 48  1  0
 14 49  1  0
 14 50  1  0
 18 51  1  1
 19 52  1  0
 19 53  1  0
 20 54  1  1
 22 55  1  0
 23 56  1  0
 24 57  1  0
 25 58  1  0
 27 59  1  6
 29 60  1  0
 30 61  1  0
 31 62  1  0
 32 63  1  0
 33 64  1  0
 34 65  1  0
 34 66  1  0
 35 67  1  0
 35 68  1  0
M  END
>  <smiles>  (146) 
CCC(=O)N(c1ccccc1)C1CCN(C(=O)[C@@H](N)C2c3ccccc3C2c2ccccc2)CC1

>  <score_type>  (146) 
oracle

>  <origin>  (146) 
autodockgpu

>  <m_score__min__energy>  (146) 
-9.1199999999999992

>  <m_primary>  (146) 
energy

>  <rmsd>  (146) 
7.549467013868981

>  <m_score__min__rmsd>  (146) 
7.549467013868981

>  <meeko>  (146) 
{"free_energy": -8.1, "intermolecular_energy": -10.48, "internal_energy": -3.3, "cluster_size": 30, "cluster_id": 3, "rank_in_cluster": 22}

>  <energy>  (146) 
-7.9

>  <cluster_rmsd>  (146) 
0.0

>  <cluster>  (146) 
6

$$$$

     RDKit          3D

 68 72  0  0  0  0  0  0  0  0999 V2000
  138.8170   67.1940  222.7570 C   0  0  0  0  0  0  0  0  0  0  0  0
  138.8360   68.6790  222.5080 C   0  0  0  0  0  0  0  0  0  0  0  0
  138.3940   69.4320  223.7190 C   0  0  0  0  0  0  0  0  0  0  0  0
  137.2940   69.1130  224.2130 O   0  0  0  0  0  0  0  0  0  0  0  0
  139.2390   70.4540  224.2310 N   0  0  0  0  0  0  0  0  0  0  0  0
  139.8540   70.3250  225.5200 C   0  0  0  0  0  0  0  0  0  0  0  0
  139.8770   69.1370  226.2170 C   0  0  0  0  0  0  0  0  0  0  0  0
  140.4790   69.0650  227.4500 C   0  0  0  0  0  0  0  0  0  0  0  0
  141.0670   70.2100  227.9890 C   0  0  0  0  0  0  0  0  0  0  0  0
  141.0520   71.4070  227.3030 C   0  0  0  0  0  0  0  0  0  0  0  0
  140.4430   71.4580  226.0690 C   0  0  0  0  0  0  0  0  0  0  0  0
  139.4500   71.6230  223.4040 C   0  0  0  0  0  0  0  0  0  0  0  0
  138.3020   71.8910  222.4560 C   0  0  0  0  0  0  0  0  0  0  0  0
  138.8200   72.3480  221.1090 C   0  0  0  0  0  0  0  0  0  0  0  0
  139.9210   73.2780  221.2080 N   0  0  0  0  0  0  0  0  0  0  0  0
  139.8620   74.5110  220.5160 C   0  0  0  0  0  0  0  0  0  0  0  0
  138.8280   74.7370  219.8350 O   0  0  0  0  0  0  0  0  0  0  0  0
  140.9180   75.5450  220.5340 C   0  0  1  0  0  0  0  0  0  0  0  0
  140.8810   76.3220  219.3380 N   0  0  0  0  0  0  0  0  0  0  0  0
  140.6110   76.4220  221.7720 C   0  0  2  0  0  0  0  0  0  0  0  0
  139.2180   76.4030  222.1710 C   0  0  0  0  0  0  0  0  0  0  0  0
  138.1400   75.7190  222.7240 C   0  0  0  0  0  0  0  0  0  0  0  0
  136.9030   76.3190  222.8460 C   0  0  0  0  0  0  0  0  0  0  0  0
  136.6850   77.6150  222.4250 C   0  0  0  0  0  0  0  0  0  0  0  0
  137.7630   78.2930  221.8750 C   0  0  0  0  0  0  0  0  0  0  0  0
  139.0140   77.6770  221.7550 C   0  0  0  0  0  0  0  0  0  0  0  0
  140.3930   77.8260  221.3220 C   0  0  1  0  0  0  0  0  0  0  0  0
  141.2050   78.8130  222.0660 C   0  0  0  0  0  0  0  0  0  0  0  0
  141.3880   78.5720  223.4310 C   0  0  0  0  0  0  0  0  0  0  0  0
  142.1340   79.4220  224.2190 C   0  0  0  0  0  0  0  0  0  0  0  0
  142.7300   80.5480  223.6900 C   0  0  0  0  0  0  0  0  0  0  0  0
  142.5470   80.7860  222.3340 C   0  0  0  0  0  0  0  0  0  0  0  0
  141.7920   79.9220  221.5390 C   0  0  0  0  0  0  0  0  0  0  0  0
  141.0480   72.8720  222.0340 C   0  0  0  0  0  0  0  0  0  0  0  0
  140.7320   71.5040  222.6140 C   0  0  0  0  0  0  0  0  0  0  0  0
  138.8146   67.0039  223.8404 H   0  0  0  0  0  0  0  0  0  0  0  0
  137.9132   66.7582  222.3062 H   0  0  0  0  0  0  0  0  0  0  0  0
  139.7094   66.7352  222.3062 H   0  0  0  0  0  0  0  0  0  0  0  0
  139.8594   68.9866  222.2472 H   0  0  0  0  0  0  0  0  0  0  0  0
  138.1431   68.9043  221.6839 H   0  0  0  0  0  0  0  0  0  0  0  0
  139.4103   68.2401  225.7836 H   0  0  0  0  0  0  0  0  0  0  0  0
  140.4972   68.1159  228.0057 H   0  0  0  0  0  0  0  0  0  0  0  0
  141.5499   70.1574  228.9759 H   0  0  0  0  0  0  0  0  0  0  0  0
  141.5184   72.3050  227.7343 H   0  0  0  0  0  0  0  0  0  0  0  0
  140.4224   72.4060  225.5115 H   0  0  0  0  0  0  0  0  0  0  0  0
  139.5171   72.4739  224.0978 H   0  0  0  0  0  0  0  0  0  0  0  0
  137.7183   70.9679  222.3248 H   0  0  0  0  0  0  0  0  0  0  0  0
  137.6688   72.6840  222.8805 H   0  0  0  0  0  0  0  0  0  0  0  0
  139.1577   71.4651  220.5465 H   0  0  0  0  0  0  0  0  0  0  0  0
  137.9955   72.8706  220.6020 H   0  0  0  0  0  0  0  0  0  0  0  0
  141.9242   75.1038  220.5883 H   0  0  0  0  0  0  0  0  0  0  0  0
  140.0830   76.0810  218.7340 H   0  0  0  0  0  0  0  0  0  0  0  0
  141.8070   76.2270  218.8680 H   0  0  0  0  0  0  0  0  0  0  0  0
  141.3917   76.1108  222.4817 H   0  0  0  0  0  0  0  0  0  0  0  0
  138.2757   74.6835  223.0695 H   0  0  0  0  0  0  0  0  0  0  0  0
  136.0717   75.7510  223.2890 H   0  0  0  0  0  0  0  0  0  0  0  0
  135.6978   78.0905  222.5215 H   0  0  0  0  0  0  0  0  0  0  0  0
  137.6328   79.3288  221.5285 H   0  0  0  0  0  0  0  0  0  0  0  0
  140.6269   78.1738  220.3050 H   0  0  0  0  0  0  0  0  0  0  0  0
  140.9260   77.6837  223.8865 H   0  0  0  0  0  0  0  0  0  0  0  0
  142.2563   79.1984  225.2891 H   0  0  0  0  0  0  0  0  0  0  0  0
  143.3253   81.2289  224.3160 H   0  0  0  0  0  0  0  0  0  0  0  0
  143.0069   81.6745  221.8767 H   0  0  0  0  0  0  0  0  0  0  0  0
  141.6694   80.1413  220.4681 H   0  0  0  0  0  0  0  0  0  0  0  0
  141.9599   72.8167  221.4213 H   0  0  0  0  0  0  0  0  0  0  0  0
  141.2147   73.6012  222.8405 H   0  0  0  0  0  0  0  0  0  0  0  0
  140.6046   70.7734  221.8016 H   0  0  0  0  0  0  0  0  0  0  0  0
  141.5526   71.1622  223.2619 H   0  0  0  0  0  0  0  0  0  0  0  0
  1  2  1  0
  2  3  1  0
  3  4  2  0
  3  5  1  0
  5  6  1  0
  6  7  2  0
  7  8  1  0
  8  9  2  0
  9 10  1  0
 10 11  2  0
  5 12  1  0
 12 13  1  0
 13 14  1  0
 14 15  1  0
 15 16  1  0
 16 17  2  0
 16 18  1  0
 18 19  1  0
 18 20  1  0
 20 21  1  0
 21 22  2  0
 22 23  1  0
 23 24  2  0
 24 25  1  0
 25 26  2  0
 26 27  1  0
 27 28  1  0
 28 29  2  0
 29 30  1  0
 30 31  2  0
 31 32  1  0
 32 33  2  0
 15 34  1  0
 34 35  1  0
 11  6  1  0
 35 12  1  0
 27 20  1  0
 33 28  1  0
 26 21  1  0
  1 36  1  0
  1 37  1  0
  1 38  1  0
  2 39  1  0
  2 40  1  0
  7 41  1  0
  8 42  1  0
  9 43  1  0
 10 44  1  0
 11 45  1  0
 12 46  1  0
 13 47  1  0
 13 48  1  0
 14 49  1  0
 14 50  1  0
 18 51  1  1
 19 52  1  0
 19 53  1  0
 20 54  1  1
 22 55  1  0
 23 56  1  0
 24 57  1  0
 25 58  1  0
 27 59  1  6
 29 60  1  0
 30 61  1  0
 31 62  1  0
 32 63  1  0
 33 64  1  0
 34 65  1  0
 34 66  1  0
 35 67  1  0
 35 68  1  0
M  END
>  <smiles>  (147) 
CCC(=O)N(c1ccccc1)C1CCN(C(=O)[C@@H](N)C2c3ccccc3C2c2ccccc2)CC1

>  <score_type>  (147) 
oracle

>  <origin>  (147) 
autodockgpu

>  <m_score__min__energy>  (147) 
-9.1199999999999992

>  <m_primary>  (147) 
energy

>  <rmsd>  (147) 
7.5370828943234995

>  <m_score__min__rmsd>  (147) 
7.5370828943234995

>  <meeko>  (147) 
{"free_energy": -8.45, "intermolecular_energy": -10.84, "internal_energy": -3.14, "cluster_size": 30, "cluster_id": 3, "rank_in_cluster": 7}

>  <energy>  (147) 
-7.39

>  <cluster_rmsd>  (147) 
0.0

>  <cluster>  (147) 
7

$$$$

     RDKit          3D

 68 72  0  0  0  0  0  0  0  0999 V2000
  138.6650   68.4470  221.9730 C   0  0  0  0  0  0  0  0  0  0  0  0
  138.7280   68.1890  223.4560 C   0  0  0  0  0  0  0  0  0  0  0  0
  138.1570   69.3350  224.2240 C   0  0  0  0  0  0  0  0  0  0  0  0
  136.9240   69.3290  224.4170 O   0  0  0  0  0  0  0  0  0  0  0  0
  139.0370   70.3510  224.6850 N   0  0  0  0  0  0  0  0  0  0  0  0
  139.7150   70.2260  225.9420 C   0  0  0  0  0  0  0  0  0  0  0  0
  139.7740   69.0390  226.6390 C   0  0  0  0  0  0  0  0  0  0  0  0
  140.4370   68.9690  227.8410 C   0  0  0  0  0  0  0  0  0  0  0  0
  141.0510   70.1160  228.3470 C   0  0  0  0  0  0  0  0  0  0  0  0
  141.0020   71.3110  227.6610 C   0  0  0  0  0  0  0  0  0  0  0  0
  140.3320   71.3600  226.4590 C   0  0  0  0  0  0  0  0  0  0  0  0
  139.2170   71.5130  223.8400 C   0  0  0  0  0  0  0  0  0  0  0  0
  137.9930   71.8350  223.0110 C   0  0  0  0  0  0  0  0  0  0  0  0
  138.3940   72.2730  221.6180 C   0  0  0  0  0  0  0  0  0  0  0  0
  139.5410   73.1520  221.6060 N   0  0  0  0  0  0  0  0  0  0  0  0
  139.4680   74.3890  220.9210 C   0  0  0  0  0  0  0  0  0  0  0  0
  138.3830   74.6630  220.3470 O   0  0  0  0  0  0  0  0  0  0  0  0
  140.5660   75.3750  220.8330 C   0  0  1  0  0  0  0  0  0  0  0  0
  140.5430   76.0410  219.5710 N   0  0  0  0  0  0  0  0  0  0  0  0
  140.3130   76.3730  221.9890 C   0  0  2  0  0  0  0  0  0  0  0  0
  138.9160   76.5120  222.3480 C   0  0  0  0  0  0  0  0  0  0  0  0
  137.7690   75.9740  222.9210 C   0  0  0  0  0  0  0  0  0  0  0  0
  136.5900   76.6900  222.9590 C   0  0  0  0  0  0  0  0  0  0  0  0
  136.5000   77.9620  222.4310 C   0  0  0  0  0  0  0  0  0  0  0  0
  137.6480   78.4940  221.8610 C   0  0  0  0  0  0  0  0  0  0  0  0
  138.8390   77.7610  221.8270 C   0  0  0  0  0  0  0  0  0  0  0  0
  140.2350   77.7500  221.4240 C   0  0  1  0  0  0  0  0  0  0  0  0
  141.1170   78.7180  222.1100 C   0  0  0  0  0  0  0  0  0  0  0  0
  141.2800   78.5470  223.4890 C   0  0  0  0  0  0  0  0  0  0  0  0
  142.0860   79.3870  224.2280 C   0  0  0  0  0  0  0  0  0  0  0  0
  142.7660   80.4300  223.6340 C   0  0  0  0  0  0  0  0  0  0  0  0
  142.6040   80.5970  222.2650 C   0  0  0  0  0  0  0  0  0  0  0  0
  141.7860   79.7450  221.5210 C   0  0  0  0  0  0  0  0  0  0  0  0
  140.7250   72.6940  222.3170 C   0  0  0  0  0  0  0  0  0  0  0  0
  140.4070   71.3390  222.9260 C   0  0  0  0  0  0  0  0  0  0  0  0
  138.4075   69.5015  221.7949 H   0  0  0  0  0  0  0  0  0  0  0  0
  139.6433   68.2270  221.5207 H   0  0  0  0  0  0  0  0  0  0  0  0
  137.8982   67.8009  221.5207 H   0  0  0  0  0  0  0  0  0  0  0  0
  138.1542   67.2795  223.6874 H   0  0  0  0  0  0  0  0  0  0  0  0
  139.7819   68.0642  223.7452 H   0  0  0  0  0  0  0  0  0  0  0  0
  139.2871   68.1411  226.2307 H   0  0  0  0  0  0  0  0  0  0  0  0
  140.4832   68.0211  228.3972 H   0  0  0  0  0  0  0  0  0  0  0  0
  141.5826   70.0656  229.3087 H   0  0  0  0  0  0  0  0  0  0  0  0
  141.4897   72.2096  228.0668 H   0  0  0  0  0  0  0  0  0  0  0  0
  140.2843   72.3070  225.9013 H   0  0  0  0  0  0  0  0  0  0  0  0
  139.3914   72.3578  224.5225 H   0  0  0  0  0  0  0  0  0  0  0  0
  137.3585   70.9393  222.9399 H   0  0  0  0  0  0  0  0  0  0  0  0
  137.4414   72.6540  223.4957 H   0  0  0  0  0  0  0  0  0  0  0  0
  138.6333   71.3778  221.0253 H   0  0  0  0  0  0  0  0  0  0  0  0
  137.5476   72.8341  221.1953 H   0  0  0  0  0  0  0  0  0  0  0  0
  141.5541   74.8989  220.9165 H   0  0  0  0  0  0  0  0  0  0  0  0
  141.1070   76.9020  219.5680 H   0  0  0  0  0  0  0  0  0  0  0  0
  139.5450   76.1920  219.3110 H   0  0  0  0  0  0  0  0  0  0  0  0
  141.0458   76.0507  222.7434 H   0  0  0  0  0  0  0  0  0  0  0  0
  137.8020   74.9619  223.3507 H   0  0  0  0  0  0  0  0  0  0  0  0
  135.7008   76.2362  223.4210 H   0  0  0  0  0  0  0  0  0  0  0  0
  135.5584   78.5299  222.4607 H   0  0  0  0  0  0  0  0  0  0  0  0
  137.6211   79.5057  221.4301 H   0  0  0  0  0  0  0  0  0  0  0  0
  140.5227   77.9913  220.3901 H   0  0  0  0  0  0  0  0  0  0  0  0
  140.7535   77.7242  223.9949 H   0  0  0  0  0  0  0  0  0  0  0  0
  142.1886   79.2225  225.3108 H   0  0  0  0  0  0  0  0  0  0  0  0
  143.4100   81.1017  224.2206 H   0  0  0  0  0  0  0  0  0  0  0  0
  143.1311   81.4176  221.7563 H   0  0  0  0  0  0  0  0  0  0  0  0
  141.6806   79.9074  220.4382 H   0  0  0  0  0  0  0  0  0  0  0  0
  141.5688   72.6009  221.6174 H   0  0  0  0  0  0  0  0  0  0  0  0
  141.0028   73.4122  223.1025 H   0  0  0  0  0  0  0  0  0  0  0  0
  140.1661   70.6183  222.1307 H   0  0  0  0  0  0  0  0  0  0  0  0
  141.2718   70.9574  223.4886 H   0  0  0  0  0  0  0  0  0  0  0  0
  1  2  1  0
  2  3  1  0
  3  4  2  0
  3  5  1  0
  5  6  1  0
  6  7  2  0
  7  8  1  0
  8  9  2  0
  9 10  1  0
 10 11  2  0
  5 12  1  0
 12 13  1  0
 13 14  1  0
 14 15  1  0
 15 16  1  0
 16 17  2  0
 16 18  1  0
 18 19  1  0
 18 20  1  0
 20 21  1  0
 21 22  2  0
 22 23  1  0
 23 24  2  0
 24 25  1  0
 25 26  2  0
 26 27  1  0
 27 28  1  0
 28 29  2  0
 29 30  1  0
 30 31  2  0
 31 32  1  0
 32 33  2  0
 15 34  1  0
 34 35  1  0
 11  6  1  0
 35 12  1  0
 27 20  1  0
 33 28  1  0
 26 21  1  0
  1 36  1  0
  1 37  1  0
  1 38  1  0
  2 39  1  0
  2 40  1  0
  7 41  1  0
  8 42  1  0
  9 43  1  0
 10 44  1  0
 11 45  1  0
 12 46  1  0
 13 47  1  0
 13 48  1  0
 14 49  1  0
 14 50  1  0
 18 51  1  1
 19 52  1  0
 19 53  1  0
 20 54  1  1
 22 55  1  0
 23 56  1  0
 24 57  1  0
 25 58  1  0
 27 59  1  6
 29 60  1  0
 30 61  1  0
 31 62  1  0
 32 63  1  0
 33 64  1  0
 34 65  1  0
 34 66  1  0
 35 67  1  0
 35 68  1  0
M  END
>  <smiles>  (148) 
CCC(=O)N(c1ccccc1)C1CCN(C(=O)[C@@H](N)C2c3ccccc3C2c2ccccc2)CC1

>  <score_type>  (148) 
oracle

>  <origin>  (148) 
autodockgpu

>  <m_score__min__energy>  (148) 
-9.1199999999999992

>  <m_primary>  (148) 
energy

>  <rmsd>  (148) 
7.580855882331082

>  <m_score__min__rmsd>  (148) 
7.580855882331082

>  <meeko>  (148) 
{"free_energy": -8.51, "intermolecular_energy": -10.89, "internal_energy": -3.01, "cluster_size": 30, "cluster_id": 3, "rank_in_cluster": 5}

>  <energy>  (148) 
-7.25

>  <cluster_rmsd>  (148) 
1.69

>  <cluster>  (148) 
7

$$$$

     RDKit          3D

 68 72  0  0  0  0  0  0  0  0999 V2000
  139.2720   68.1550  221.2100 C   0  0  0  0  0  0  0  0  0  0  0  0
  139.6630   69.5150  220.6930 C   0  0  0  0  0  0  0  0  0  0  0  0
  138.8570   70.5890  221.3450 C   0  0  0  0  0  0  0  0  0  0  0  0
  137.6360   70.6150  221.0890 O   0  0  0  0  0  0  0  0  0  0  0  0
  139.5160   71.5060  222.2080 N   0  0  0  0  0  0  0  0  0  0  0  0
  139.7650   71.1790  223.5810 C   0  0  0  0  0  0  0  0  0  0  0  0
  140.6780   71.8640  224.3540 C   0  0  0  0  0  0  0  0  0  0  0  0
  140.8820   71.5120  225.6660 C   0  0  0  0  0  0  0  0  0  0  0  0
  140.1530   70.4510  226.2080 C   0  0  0  0  0  0  0  0  0  0  0  0
  139.2360   69.7570  225.4470 C   0  0  0  0  0  0  0  0  0  0  0  0
  139.0470   70.1250  224.1340 C   0  0  0  0  0  0  0  0  0  0  0  0
  139.9210   72.7780  221.6460 C   0  0  0  0  0  0  0  0  0  0  0  0
  139.2700   73.0690  220.3120 C   0  0  0  0  0  0  0  0  0  0  0  0
  140.2590   73.7190  219.3680 C   0  0  0  0  0  0  0  0  0  0  0  0
  141.0890   74.7120  220.0110 N   0  0  0  0  0  0  0  0  0  0  0  0
  141.1870   76.0110  219.4550 C   0  0  0  0  0  0  0  0  0  0  0  0
  140.5280   76.2360  218.4070 O   0  0  0  0  0  0  0  0  0  0  0  0
  141.9990   77.1120  220.0120 C   0  0  1  0  0  0  0  0  0  0  0  0
  142.6000   77.8730  218.9650 N   0  0  0  0  0  0  0  0  0  0  0  0
  141.0090   77.9790  220.8270 C   0  0  2  0  0  0  0  0  0  0  0  0
  141.6480   79.0110  221.6180 C   0  0  0  0  0  0  0  0  0  0  0  0
  142.3350   80.2190  221.6790 C   0  0  0  0  0  0  0  0  0  0  0  0
  142.7300   80.7530  222.8890 C   0  0  0  0  0  0  0  0  0  0  0  0
  142.4620   80.1130  224.0820 C   0  0  0  0  0  0  0  0  0  0  0  0
  141.7750   78.9090  224.0160 C   0  0  0  0  0  0  0  0  0  0  0  0
  141.3790   78.3760  222.7840 C   0  0  0  0  0  0  0  0  0  0  0  0
  140.7030   77.2820  222.1080 C   0  0  1  0  0  0  0  0  0  0  0  0
  139.2540   77.1500  222.3730 C   0  0  0  0  0  0  0  0  0  0  0  0
  138.7300   75.8530  222.3510 C   0  0  0  0  0  0  0  0  0  0  0  0
  137.3940   75.6130  222.5920 C   0  0  0  0  0  0  0  0  0  0  0  0
  136.5200   76.6450  222.8650 C   0  0  0  0  0  0  0  0  0  0  0  0
  137.0420   77.9310  222.8870 C   0  0  0  0  0  0  0  0  0  0  0  0
  138.3960   78.1700  222.6420 C   0  0  0  0  0  0  0  0  0  0  0  0
  141.7900   74.2980  221.2170 C   0  0  0  0  0  0  0  0  0  0  0  0
  141.4220   72.8510  221.4960 C   0  0  0  0  0  0  0  0  0  0  0  0
  139.2752   68.1661  222.3099 H   0  0  0  0  0  0  0  0  0  0  0  0
  138.2645   67.9011  220.8488 H   0  0  0  0  0  0  0  0  0  0  0  0
  139.9909   67.4048  220.8488 H   0  0  0  0  0  0  0  0  0  0  0  0
  140.7287   69.6870  220.9042 H   0  0  0  0  0  0  0  0  0  0  0  0
  139.4742   69.5449  219.6097 H   0  0  0  0  0  0  0  0  0  0  0  0
  141.2469   72.6980  223.9173 H   0  0  0  0  0  0  0  0  0  0  0  0
  141.6106   72.0591  226.2823 H   0  0  0  0  0  0  0  0  0  0  0  0
  140.3128   70.1646  227.2580 H   0  0  0  0  0  0  0  0  0  0  0  0
  138.6651   68.9233  225.8818 H   0  0  0  0  0  0  0  0  0  0  0  0
  138.3196   69.5788  223.5155 H   0  0  0  0  0  0  0  0  0  0  0  0
  139.5801   73.5436  222.3584 H   0  0  0  0  0  0  0  0  0  0  0  0
  138.9139   72.1267  219.8701 H   0  0  0  0  0  0  0  0  0  0  0  0
  138.4264   73.7568  220.4711 H   0  0  0  0  0  0  0  0  0  0  0  0
  140.9096   72.9368  218.9498 H   0  0  0  0  0  0  0  0  0  0  0  0
  139.6782   74.2328  218.5878 H   0  0  0  0  0  0  0  0  0  0  0  0
  142.8226   76.7389  220.6384 H   0  0  0  0  0  0  0  0  0  0  0  0
  142.3060   77.5590  218.0290 H   0  0  0  0  0  0  0  0  0  0  0  0
  143.6320   77.8530  219.1100 H   0  0  0  0  0  0  0  0  0  0  0  0
  140.2568   78.2502  220.0715 H   0  0  0  0  0  0  0  0  0  0  0  0
  142.5672   80.7572  220.7482 H   0  0  0  0  0  0  0  0  0  0  0  0
  143.2708   81.7108  222.9027 H   0  0  0  0  0  0  0  0  0  0  0  0
  142.7797   80.5394  225.0449 H   0  0  0  0  0  0  0  0  0  0  0  0
  141.5388   78.3669  224.9435 H   0  0  0  0  0  0  0  0  0  0  0  0
  140.9881   76.2383  222.3065 H   0  0  0  0  0  0  0  0  0  0  0  0
  139.3986   75.0062  222.1367 H   0  0  0  0  0  0  0  0  0  0  0  0
  137.0179   74.5796  222.5661 H   0  0  0  0  0  0  0  0  0  0  0  0
  135.4535   76.4565  223.0573 H   0  0  0  0  0  0  0  0  0  0  0  0
  136.3755   78.7793  223.1018 H   0  0  0  0  0  0  0  0  0  0  0  0
  138.7753   79.2022  222.6671 H   0  0  0  0  0  0  0  0  0  0  0  0
  142.8762   74.3853  221.0668 H   0  0  0  0  0  0  0  0  0  0  0  0
  141.5041   74.9370  222.0655 H   0  0  0  0  0  0  0  0  0  0  0  0
  141.7460   72.2143  220.6595 H   0  0  0  0  0  0  0  0  0  0  0  0
  141.9177   72.4979  222.4123 H   0  0  0  0  0  0  0  0  0  0  0  0
  1  2  1  0
  2  3  1  0
  3  4  2  0
  3  5  1  0
  5  6  1  0
  6  7  2  0
  7  8  1  0
  8  9  2  0
  9 10  1  0
 10 11  2  0
  5 12  1  0
 12 13  1  0
 13 14  1  0
 14 15  1  0
 15 16  1  0
 16 17  2  0
 16 18  1  0
 18 19  1  0
 18 20  1  0
 20 21  1  0
 21 22  2  0
 22 23  1  0
 23 24  2  0
 24 25  1  0
 25 26  2  0
 26 27  1  0
 27 28  1  0
 28 29  2  0
 29 30  1  0
 30 31  2  0
 31 32  1  0
 32 33  2  0
 15 34  1  0
 34 35  1  0
 11  6  1  0
 35 12  1  0
 27 20  1  0
 33 28  1  0
 26 21  1  0
  1 36  1  0
  1 37  1  0
  1 38  1  0
  2 39  1  0
  2 40  1  0
  7 41  1  0
  8 42  1  0
  9 43  1  0
 10 44  1  0
 11 45  1  0
 12 46  1  0
 13 47  1  0
 13 48  1  0
 14 49  1  0
 14 50  1  0
 18 51  1  1
 19 52  1  0
 19 53  1  0
 20 54  1  6
 22 55  1  0
 23 56  1  0
 24 57  1  0
 25 58  1  0
 27 59  1  6
 29 60  1  0
 30 61  1  0
 31 62  1  0
 32 63  1  0
 33 64  1  0
 34 65  1  0
 34 66  1  0
 35 67  1  0
 35 68  1  0
M  END
>  <smiles>  (149) 
CCC(=O)N(c1ccccc1)C1CCN(C(=O)[C@@H](N)C2c3ccccc3C2c2ccccc2)CC1

>  <score_type>  (149) 
oracle

>  <origin>  (149) 
autodockgpu

>  <m_score__min__energy>  (149) 
-9.1199999999999992

>  <m_primary>  (149) 
energy

>  <rmsd>  (149) 
8.716003174006005

>  <m_score__min__rmsd>  (149) 
8.716003174006005

>  <meeko>  (149) 
{"free_energy": -7.62, "intermolecular_energy": -10.01, "internal_energy": -3.57, "cluster_size": 30, "cluster_id": 3, "rank_in_cluster": 26}

>  <energy>  (149) 
-7.19

>  <cluster_rmsd>  (149) 
1.7

>  <cluster>  (149) 
7

$$$$

     RDKit          3D

 68 72  0  0  0  0  0  0  0  0999 V2000
  136.3260   69.3850  224.9500 C   0  0  0  0  0  0  0  0  0  0  0  0
  137.2780   69.1470  223.8080 C   0  0  0  0  0  0  0  0  0  0  0  0
  138.6740   68.9590  224.3020 C   0  0  0  0  0  0  0  0  0  0  0  0
  139.0150   67.7980  224.6070 O   0  0  0  0  0  0  0  0  0  0  0  0
  139.5210   70.0960  224.3960 N   0  0  0  0  0  0  0  0  0  0  0  0
  140.0310   70.5330  225.6620 C   0  0  0  0  0  0  0  0  0  0  0  0
  139.7100   69.9100  226.8480 C   0  0  0  0  0  0  0  0  0  0  0  0
  140.2250   70.3680  228.0370 C   0  0  0  0  0  0  0  0  0  0  0  0
  141.0780   71.4730  228.0290 C   0  0  0  0  0  0  0  0  0  0  0  0
  141.4090   72.1070  226.8500 C   0  0  0  0  0  0  0  0  0  0  0  0
  140.8820   71.6330  225.6700 C   0  0  0  0  0  0  0  0  0  0  0  0
  139.8450   70.7900  223.1680 C   0  0  0  0  0  0  0  0  0  0  0  0
  138.8610   71.8890  222.8340 C   0  0  0  0  0  0  0  0  0  0  0  0
  138.5820   71.9200  221.3460 C   0  0  0  0  0  0  0  0  0  0  0  0
  139.7660   71.7260  220.5410 N   0  0  0  0  0  0  0  0  0  0  0  0
  140.0760   72.6530  219.5160 C   0  0  0  0  0  0  0  0  0  0  0  0
  139.2850   73.6180  219.3580 O   0  0  0  0  0  0  0  0  0  0  0  0
  141.2530   72.5690  218.6250 C   0  0  1  0  0  0  0  0  0  0  0  0
  140.8490   72.6000  217.2570 N   0  0  0  0  0  0  0  0  0  0  0  0
  142.1180   73.8040  218.9740 C   0  0  2  0  0  0  0  0  0  0  0  0
  143.5360   73.5190  219.0620 C   0  0  0  0  0  0  0  0  0  0  0  0
  144.7340   73.1940  218.4330 C   0  0  0  0  0  0  0  0  0  0  0  0
  145.8960   73.0300  219.1580 C   0  0  0  0  0  0  0  0  0  0  0  0
  145.9200   73.1800  220.5290 C   0  0  0  0  0  0  0  0  0  0  0  0
  144.7230   73.5050  221.1520 C   0  0  0  0  0  0  0  0  0  0  0  0
  143.5480   73.6690  220.4090 C   0  0  0  0  0  0  0  0  0  0  0  0
  142.1300   73.9790  220.4540 C   0  0  1  0  0  0  0  0  0  0  0  0
  141.7770   75.3480  220.8860 C   0  0  0  0  0  0  0  0  0  0  0  0
  142.2550   76.3970  220.0940 C   0  0  0  0  0  0  0  0  0  0  0  0
  141.9790   77.7130  220.3980 C   0  0  0  0  0  0  0  0  0  0  0  0
  141.2190   78.0470  221.5000 C   0  0  0  0  0  0  0  0  0  0  0  0
  140.7450   77.0050  222.2850 C   0  0  0  0  0  0  0  0  0  0  0  0
  141.0260   75.6730  221.9730 C   0  0  0  0  0  0  0  0  0  0  0  0
  140.5810   70.5600  220.8450 C   0  0  0  0  0  0  0  0  0  0  0  0
  139.9310   69.8270  222.0060 C   0  0  0  0  0  0  0  0  0  0  0  0
  136.8573   69.2522  225.9040 H   0  0  0  0  0  0  0  0  0  0  0  0
  135.9305   70.4097  224.8901 H   0  0  0  0  0  0  0  0  0  0  0  0
  135.4948   68.6670  224.8901 H   0  0  0  0  0  0  0  0  0  0  0  0
  136.9656   68.2446  223.2620 H   0  0  0  0  0  0  0  0  0  0  0  0
  137.2569   70.0258  223.1468 H   0  0  0  0  0  0  0  0  0  0  0  0
  139.0369   69.0400  226.8433 H   0  0  0  0  0  0  0  0  0  0  0  0
  139.9682   69.8699  228.9835 H   0  0  0  0  0  0  0  0  0  0  0  0
  141.4926   71.8438  228.9780 H   0  0  0  0  0  0  0  0  0  0  0  0
  142.0826   72.9766  226.8524 H   0  0  0  0  0  0  0  0  0  0  0  0
  141.1369   72.1300  224.7224 H   0  0  0  0  0  0  0  0  0  0  0  0
  140.8260   71.2579  223.3372 H   0  0  0  0  0  0  0  0  0  0  0  0
  137.9202   71.7085  223.3746 H   0  0  0  0  0  0  0  0  0  0  0  0
  139.2928   72.8551  223.1342 H   0  0  0  0  0  0  0  0  0  0  0  0
  137.8630   71.1221  221.1084 H   0  0  0  0  0  0  0  0  0  0  0  0
  138.1850   72.9180  221.1085 H   0  0  0  0  0  0  0  0  0  0  0  0
  141.8099   71.6308  218.7649 H   0  0  0  0  0  0  0  0  0  0  0  0
  141.5440   73.0580  216.6500 H   0  0  0  0  0  0  0  0  0  0  0  0
  139.9030   73.0350  217.2150 H   0  0  0  0  0  0  0  0  0  0  0  0
  141.7504   74.5578  218.2622 H   0  0  0  0  0  0  0  0  0  0  0  0
  144.7547   73.0659  217.3407 H   0  0  0  0  0  0  0  0  0  0  0  0
  146.8262   72.7733  218.6299 H   0  0  0  0  0  0  0  0  0  0  0  0
  146.8483   73.0477  221.1041 H   0  0  0  0  0  0  0  0  0  0  0  0
  144.6974   73.6354  222.2439 H   0  0  0  0  0  0  0  0  0  0  0  0
  141.4570   73.4300  221.1290 H   0  0  0  0  0  0  0  0  0  0  0  0
  142.8652   76.1667  219.2082 H   0  0  0  0  0  0  0  0  0  0  0  0
  142.3716   78.5109  219.7505 H   0  0  0  0  0  0  0  0  0  0  0  0
  140.9978   79.0960  221.7464 H   0  0  0  0  0  0  0  0  0  0  0  0
  140.1351   77.2332  223.1716 H   0  0  0  0  0  0  0  0  0  0  0  0
  140.6333   74.8726  222.6174 H   0  0  0  0  0  0  0  0  0  0  0  0
  140.6310   69.8995  219.9668 H   0  0  0  0  0  0  0  0  0  0  0  0
  141.6042   70.8655  221.1089 H   0  0  0  0  0  0  0  0  0  0  0  0
  138.9224   69.4933  221.7207 H   0  0  0  0  0  0  0  0  0  0  0  0
  140.5229   68.9420  222.2824 H   0  0  0  0  0  0  0  0  0  0  0  0
  1  2  1  0
  2  3  1  0
  3  4  2  0
  3  5  1  0
  5  6  1  0
  6  7  2  0
  7  8  1  0
  8  9  2  0
  9 10  1  0
 10 11  2  0
  5 12  1  0
 12 13  1  0
 13 14  1  0
 14 15  1  0
 15 16  1  0
 16 17  2  0
 16 18  1  0
 18 19  1  0
 18 20  1  0
 20 21  1  0
 21 22  2  0
 22 23  1  0
 23 24  2  0
 24 25  1  0
 25 26  2  0
 26 27  1  0
 27 28  1  0
 28 29  2  0
 29 30  1  0
 30 31  2  0
 31 32  1  0
 32 33  2  0
 15 34  1  0
 34 35  1  0
 11  6  1  0
 35 12  1  0
 27 20  1  0
 33 28  1  0
 26 21  1  0
  1 36  1  0
  1 37  1  0
  1 38  1  0
  2 39  1  0
  2 40  1  0
  7 41  1  0
  8 42  1  0
  9 43  1  0
 10 44  1  0
 11 45  1  0
 12 46  1  0
 13 47  1  0
 13 48  1  0
 14 49  1  0
 14 50  1  0
 18 51  1  6
 19 52  1  0
 19 53  1  0
 20 54  1  6
 22 55  1  0
 23 56  1  0
 24 57  1  0
 25 58  1  0
 27 59  1  1
 29 60  1  0
 30 61  1  0
 31 62  1  0
 32 63  1  0
 33 64  1  0
 34 65  1  0
 34 66  1  0
 35 67  1  0
 35 68  1  0
M  END
>  <smiles>  (150) 
CCC(=O)N(c1ccccc1)C1CCN(C(=O)[C@@H](N)C2c3ccccc3C2c2ccccc2)CC1

>  <score_type>  (150) 
oracle

>  <origin>  (150) 
autodockgpu

>  <m_score__min__energy>  (150) 
-9.1199999999999992

>  <m_primary>  (150) 
energy

>  <rmsd>  (150) 
7.222825934607498

>  <m_score__min__rmsd>  (150) 
7.222825934607498

>  <meeko>  (150) 
{"free_energy": -8.09, "intermolecular_energy": -10.48, "internal_energy": -3.29, "cluster_size": 5, "cluster_id": 4, "rank_in_cluster": 3}

>  <energy>  (150) 
-7.14

>  <cluster_rmsd>  (150) 
0.42

>  <cluster>  (150) 
7

$$$$

     RDKit          3D

 68 72  0  0  0  0  0  0  0  0999 V2000
  144.2510   82.8240  215.6840 C   0  0  0  0  0  0  0  0  0  0  0  0
  143.7930   83.1150  217.1010 C   0  0  0  0  0  0  0  0  0  0  0  0
  142.3040   83.1960  217.1280 C   0  0  0  0  0  0  0  0  0  0  0  0
  141.7950   84.0400  216.3160 O   0  0  0  0  0  0  0  0  0  0  0  0
  141.5020   82.3950  217.9900 N   0  0  0  0  0  0  0  0  0  0  0  0
  140.7860   83.0550  219.0230 C   0  0  0  0  0  0  0  0  0  0  0  0
  139.7880   83.9780  218.7980 C   0  0  0  0  0  0  0  0  0  0  0  0
  139.1420   84.5740  219.8850 C   0  0  0  0  0  0  0  0  0  0  0  0
  139.4790   84.2640  221.1920 C   0  0  0  0  0  0  0  0  0  0  0  0
  140.4850   83.3350  221.4200 C   0  0  0  0  0  0  0  0  0  0  0  0
  141.0990   82.7660  220.3310 C   0  0  0  0  0  0  0  0  0  0  0  0
  141.4660   80.9830  217.7520 C   0  0  0  0  0  0  0  0  0  0  0  0
  140.2440   80.2790  218.2160 C   0  0  0  0  0  0  0  0  0  0  0  0
  140.4210   79.6250  219.6090 C   0  0  0  0  0  0  0  0  0  0  0  0
  141.4230   78.6040  219.5130 N   0  0  0  0  0  0  0  0  0  0  0  0
  141.6250   77.4550  220.2630 C   0  0  0  0  0  0  0  0  0  0  0  0
  142.6700   76.7410  219.9030 O   0  0  0  0  0  0  0  0  0  0  0  0
  140.9060   76.8720  221.3880 C   0  0  1  0  0  0  0  0  0  0  0  0
  141.3430   75.4620  221.4610 N   0  0  0  0  0  0  0  0  0  0  0  0
  140.9030   77.5330  222.7020 C   0  0  1  0  0  0  0  0  0  0  0  0
  141.6990   78.7430  222.8760 C   0  0  0  0  0  0  0  0  0  0  0  0
  142.9300   79.3970  222.8350 C   0  0  0  0  0  0  0  0  0  0  0  0
  143.0200   80.7190  223.1720 C   0  0  0  0  0  0  0  0  0  0  0  0
  141.9360   81.4790  223.5650 C   0  0  0  0  0  0  0  0  0  0  0  0
  140.7000   80.8320  223.6080 C   0  0  0  0  0  0  0  0  0  0  0  0
  140.6250   79.5020  223.2650 C   0  0  0  0  0  0  0  0  0  0  0  0
  139.7140   78.3300  223.0930 C   0  0  1  0  0  0  0  0  0  0  0  0
  138.6440   78.6040  222.1380 C   0  0  0  0  0  0  0  0  0  0  0  0
  137.9420   77.6570  221.4260 C   0  0  0  0  0  0  0  0  0  0  0  0
  136.9350   77.9850  220.5400 C   0  0  0  0  0  0  0  0  0  0  0  0
  136.5940   79.3110  220.3400 C   0  0  0  0  0  0  0  0  0  0  0  0
  137.2760   80.2880  221.0400 C   0  0  0  0  0  0  0  0  0  0  0  0
  138.2760   79.9330  221.9140 C   0  0  0  0  0  0  0  0  0  0  0  0
  142.4130   78.8620  218.4170 C   0  0  0  0  0  0  0  0  0  0  0  0
  142.6510   80.3580  218.4920 C   0  0  0  0  0  0  0  0  0  0  0  0
  145.1791   82.2343  215.7125 H   0  0  0  0  0  0  0  0  0  0  0  0
  143.4713   82.2553  215.1561 H   0  0  0  0  0  0  0  0  0  0  0  0
  144.4346   83.7714  215.1561 H   0  0  0  0  0  0  0  0  0  0  0  0
  144.1298   82.3089  217.7694 H   0  0  0  0  0  0  0  0  0  0  0  0
  144.2213   84.0701  217.4391 H   0  0  0  0  0  0  0  0  0  0  0  0
  139.5015   84.2441  217.7698 H   0  0  0  0  0  0  0  0  0  0  0  0
  138.3450   85.3086  219.6973 H   0  0  0  0  0  0  0  0  0  0  0  0
  138.9592   84.7449  222.0338 H   0  0  0  0  0  0  0  0  0  0  0  0
  140.7819   83.0623  222.4435 H   0  0  0  0  0  0  0  0  0  0  0  0
  141.8946   82.0296  220.5174 H   0  0  0  0  0  0  0  0  0  0  0  0
  141.4929   80.8657  216.6586 H   0  0  0  0  0  0  0  0  0  0  0  0
  139.4194   81.0050  218.2707 H   0  0  0  0  0  0  0  0  0  0  0  0
  140.0318   79.4743  217.4967 H   0  0  0  0  0  0  0  0  0  0  0  0
  140.7365   80.3860  220.3379 H   0  0  0  0  0  0  0  0  0  0  0  0
  139.4686   79.1858  219.9408 H   0  0  0  0  0  0  0  0  0  0  0  0
  139.8399   77.0135  221.1570 H   0  0  0  0  0  0  0  0  0  0  0  0
  141.3630   75.0620  220.5000 H   0  0  0  0  0  0  0  0  0  0  0  0
  142.1940   75.3330  222.0150 H   0  0  0  0  0  0  0  0  0  0  0  0
  141.1613   76.5987  223.2220 H   0  0  0  0  0  0  0  0  0  0  0  0
  143.8325   78.8469  222.5302 H   0  0  0  0  0  0  0  0  0  0  0  0
  144.0071   81.2023  223.1278 H   0  0  0  0  0  0  0  0  0  0  0  0
  142.0414   82.5412  223.8309 H   0  0  0  0  0  0  0  0  0  0  0  0
  139.7960   81.3796  223.9128 H   0  0  0  0  0  0  0  0  0  0  0  0
  139.0580   77.9093  223.8693 H   0  0  0  0  0  0  0  0  0  0  0  0
  138.1938   76.5958  221.5690 H   0  0  0  0  0  0  0  0  0  0  0  0
  136.4038   77.1921  219.9931 H   0  0  0  0  0  0  0  0  0  0  0  0
  135.7938   79.5828  219.6359 H   0  0  0  0  0  0  0  0  0  0  0  0
  137.0191   81.3481  220.8981 H   0  0  0  0  0  0  0  0  0  0  0  0
  138.8077   80.7271  222.4588 H   0  0  0  0  0  0  0  0  0  0  0  0
  143.3463   78.3071  218.5929 H   0  0  0  0  0  0  0  0  0  0  0  0
  142.0509   78.5370  217.4305 H   0  0  0  0  0  0  0  0  0  0  0  0
  142.6742   80.6942  219.5391 H   0  0  0  0  0  0  0  0  0  0  0  0
  143.6152   80.6466  218.0481 H   0  0  0  0  0  0  0  0  0  0  0  0
  1  2  1  0
  2  3  1  0
  3  4  2  0
  3  5  1  0
  5  6  1  0
  6  7  2  0
  7  8  1  0
  8  9  2  0
  9 10  1  0
 10 11  2  0
  5 12  1  0
 12 13  1  0
 13 14  1  0
 14 15  1  0
 15 16  1  0
 16 17  2  0
 16 18  1  0
 18 19  1  0
 18 20  1  0
 20 21  1  0
 21 22  2  0
 22 23  1  0
 23 24  2  0
 24 25  1  0
 25 26  2  0
 26 27  1  0
 27 28  1  0
 28 29  2  0
 29 30  1  0
 30 31  2  0
 31 32  1  0
 32 33  2  0
 15 34  1  0
 34 35  1  0
 11  6  1  0
 35 12  1  0
 27 20  1  0
 33 28  1  0
 26 21  1  0
  1 36  1  0
  1 37  1  0
  1 38  1  0
  2 39  1  0
  2 40  1  0
  7 41  1  0
  8 42  1  0
  9 43  1  0
 10 44  1  0
 11 45  1  0
 12 46  1  0
 13 47  1  0
 13 48  1  0
 14 49  1  0
 14 50  1  0
 18 51  1  6
 19 52  1  0
 19 53  1  0
 20 54  1  1
 22 55  1  0
 23 56  1  0
 24 57  1  0
 25 58  1  0
 27 59  1  1
 29 60  1  0
 30 61  1  0
 31 62  1  0
 32 63  1  0
 33 64  1  0
 34 65  1  0
 34 66  1  0
 35 67  1  0
 35 68  1  0
M  END
>  <smiles>  (151) 
CCC(=O)N(c1ccccc1)C1CCN(C(=O)[C@@H](N)C2c3ccccc3C2c2ccccc2)CC1

>  <score_type>  (151) 
oracle

>  <origin>  (151) 
autodockgpu

>  <m_score__min__energy>  (151) 
-9.6500000000000004

>  <m_primary>  (151) 
energy

>  <rmsd>  (151) 
9.26250913983483

>  <m_score__min__rmsd>  (151) 
9.26250913983483

>  <meeko>  (151) 
{"free_energy": -6.52, "intermolecular_energy": -8.9, "internal_energy": -4.76, "cluster_size": 11, "cluster_id": 3, "rank_in_cluster": 6}

>  <energy>  (151) 
-9.65

>  <cluster_rmsd>  (151) 
0.0

>  <cluster>  (151) 
1

$$$$

     RDKit          3D

 68 72  0  0  0  0  0  0  0  0999 V2000
  144.3920   83.1100  215.6330 C   0  0  0  0  0  0  0  0  0  0  0  0
  143.9270   82.9890  217.0720 C   0  0  0  0  0  0  0  0  0  0  0  0
  142.4400   83.1020  217.1180 C   0  0  0  0  0  0  0  0  0  0  0  0
  141.9380   83.9460  216.3020 O   0  0  0  0  0  0  0  0  0  0  0  0
  141.6340   82.3310  218.0020 N   0  0  0  0  0  0  0  0  0  0  0  0
  140.9660   83.0160  219.0500 C   0  0  0  0  0  0  0  0  0  0  0  0
  141.1460   82.7360  220.3880 C   0  0  0  0  0  0  0  0  0  0  0  0
  140.4390   83.4680  221.3460 C   0  0  0  0  0  0  0  0  0  0  0  0
  139.5550   84.4740  220.9900 C   0  0  0  0  0  0  0  0  0  0  0  0
  139.3730   84.7550  219.6430 C   0  0  0  0  0  0  0  0  0  0  0  0
  140.0830   84.0200  218.7260 C   0  0  0  0  0  0  0  0  0  0  0  0
  141.5450   80.9200  217.7680 C   0  0  0  0  0  0  0  0  0  0  0  0
  140.3060   80.2610  218.2520 C   0  0  0  0  0  0  0  0  0  0  0  0
  140.4800   79.6050  219.6440 C   0  0  0  0  0  0  0  0  0  0  0  0
  141.4440   78.5490  219.5380 N   0  0  0  0  0  0  0  0  0  0  0  0
  141.6160   77.3950  220.2890 C   0  0  0  0  0  0  0  0  0  0  0  0
  142.6300   76.6440  219.9150 O   0  0  0  0  0  0  0  0  0  0  0  0
  140.8930   76.8410  221.4250 C   0  0  1  0  0  0  0  0  0  0  0  0
  141.3320   75.4340  221.5370 N   0  0  0  0  0  0  0  0  0  0  0  0
  140.8850   77.5360  222.7220 C   0  0  1  0  0  0  0  0  0  0  0  0
  141.6770   78.7530  222.8660 C   0  0  0  0  0  0  0  0  0  0  0  0
  142.9060   79.4080  222.8120 C   0  0  0  0  0  0  0  0  0  0  0  0
  142.9920   80.7390  223.1150 C   0  0  0  0  0  0  0  0  0  0  0  0
  141.9040   81.5060  223.4840 C   0  0  0  0  0  0  0  0  0  0  0  0
  140.6700   80.8570  223.5410 C   0  0  0  0  0  0  0  0  0  0  0  0
  140.5990   79.5180  223.2330 C   0  0  0  0  0  0  0  0  0  0  0  0
  139.6930   78.3390  223.0890 C   0  0  1  0  0  0  0  0  0  0  0  0
  138.6240   78.5850  222.1240 C   0  0  0  0  0  0  0  0  0  0  0  0
  137.9320   77.6180  221.4300 C   0  0  0  0  0  0  0  0  0  0  0  0
  136.9260   77.9200  220.5340 C   0  0  0  0  0  0  0  0  0  0  0  0
  136.5770   79.2380  220.3030 C   0  0  0  0  0  0  0  0  0  0  0  0
  137.2500   80.2350  220.9840 C   0  0  0  0  0  0  0  0  0  0  0  0
  138.2480   79.9060  221.8700 C   0  0  0  0  0  0  0  0  0  0  0  0
  142.4260   78.7690  218.4260 C   0  0  0  0  0  0  0  0  0  0  0  0
  142.7180   80.2560  218.4930 C   0  0  0  0  0  0  0  0  0  0  0  0
  145.4564   83.3870  215.6137 H   0  0  0  0  0  0  0  0  0  0  0  0
  144.2546   82.1462  215.1210 H   0  0  0  0  0  0  0  0  0  0  0  0
  143.8022   83.8846  215.1210 H   0  0  0  0  0  0  0  0  0  0  0  0
  144.2346   82.0138  217.4773 H   0  0  0  0  0  0  0  0  0  0  0  0
  144.3775   83.7913  217.6748 H   0  0  0  0  0  0  0  0  0  0  0  0
  141.8410   81.9422  220.6992 H   0  0  0  0  0  0  0  0  0  0  0  0
  140.5884   83.2393  222.4115 H   0  0  0  0  0  0  0  0  0  0  0  0
  139.0084   85.0387  221.7596 H   0  0  0  0  0  0  0  0  0  0  0  0
  138.6791   85.5447  219.3191 H   0  0  0  0  0  0  0  0  0  0  0  0
  139.9358   84.2494  217.6603 H   0  0  0  0  0  0  0  0  0  0  0  0
  141.5519   80.7987  216.6747 H   0  0  0  0  0  0  0  0  0  0  0  0
  139.5085   81.0159  218.3164 H   0  0  0  0  0  0  0  0  0  0  0  0
  140.0551   79.4624  217.5384 H   0  0  0  0  0  0  0  0  0  0  0  0
  140.8323   80.3566  220.3658 H   0  0  0  0  0  0  0  0  0  0  0  0
  139.5176   79.2001  219.9901 H   0  0  0  0  0  0  0  0  0  0  0  0
  139.8277   76.9749  221.1857 H   0  0  0  0  0  0  0  0  0  0  0  0
  141.3170   74.9970  220.5920 H   0  0  0  0  0  0  0  0  0  0  0  0
  142.2020   75.3240  222.0640 H   0  0  0  0  0  0  0  0  0  0  0  0
  141.1450   76.6166  223.2670 H   0  0  0  0  0  0  0  0  0  0  0  0
  143.8107   78.8522  222.5245 H   0  0  0  0  0  0  0  0  0  0  0  0
  143.9781   81.2235  223.0622 H   0  0  0  0  0  0  0  0  0  0  0  0
  142.0054   82.5753  223.7211 H   0  0  0  0  0  0  0  0  0  0  0  0
  139.7638   81.4100  223.8291 H   0  0  0  0  0  0  0  0  0  0  0  0
  139.0365   77.9362  223.8743 H   0  0  0  0  0  0  0  0  0  0  0  0
  138.1912   76.5620  221.5961 H   0  0  0  0  0  0  0  0  0  0  0  0
  136.4016   77.1116  220.0034 H   0  0  0  0  0  0  0  0  0  0  0  0
  135.7779   79.4886  219.5898 H   0  0  0  0  0  0  0  0  0  0  0  0
  136.9873   81.2901  220.8171 H   0  0  0  0  0  0  0  0  0  0  0  0
  138.7714   80.7153  222.4001 H   0  0  0  0  0  0  0  0  0  0  0  0
  143.3416   78.1817  218.5894 H   0  0  0  0  0  0  0  0  0  0  0  0
  142.0377   78.4546  217.4460 H   0  0  0  0  0  0  0  0  0  0  0  0
  142.7682   80.5939  219.5386 H   0  0  0  0  0  0  0  0  0  0  0  0
  143.6854   80.5094  218.0347 H   0  0  0  0  0  0  0  0  0  0  0  0
  1  2  1  0
  2  3  1  0
  3  4  2  0
  3  5  1  0
  5  6  1  0
  6  7  2  0
  7  8  1  0
  8  9  2  0
  9 10  1  0
 10 11  2  0
  5 12  1  0
 12 13  1  0
 13 14  1  0
 14 15  1  0
 15 16  1  0
 16 17  2  0
 16 18  1  0
 18 19  1  0
 18 20  1  0
 20 21  1  0
 21 22  2  0
 22 23  1  0
 23 24  2  0
 24 25  1  0
 25 26  2  0
 26 27  1  0
 27 28  1  0
 28 29  2  0
 29 30  1  0
 30 31  2  0
 31 32  1  0
 32 33  2  0
 15 34  1  0
 34 35  1  0
 11  6  1  0
 35 12  1  0
 27 20  1  0
 33 28  1  0
 26 21  1  0
  1 36  1  0
  1 37  1  0
  1 38  1  0
  2 39  1  0
  2 40  1  0
  7 41  1  0
  8 42  1  0
  9 43  1  0
 10 44  1  0
 11 45  1  0
 12 46  1  0
 13 47  1  0
 13 48  1  0
 14 49  1  0
 14 50  1  0
 18 51  1  6
 19 52  1  0
 19 53  1  0
 20 54  1  1
 22 55  1  0
 23 56  1  0
 24 57  1  0
 25 58  1  0
 27 59  1  1
 29 60  1  0
 30 61  1  0
 31 62  1  0
 32 63  1  0
 33 64  1  0
 34 65  1  0
 34 66  1  0
 35 67  1  0
 35 68  1  0
M  END
>  <smiles>  (152) 
CCC(=O)N(c1ccccc1)C1CCN(C(=O)[C@@H](N)C2c3ccccc3C2c2ccccc2)CC1

>  <score_type>  (152) 
oracle

>  <origin>  (152) 
autodockgpu

>  <m_score__min__energy>  (152) 
-9.6500000000000004

>  <m_primary>  (152) 
energy

>  <rmsd>  (152) 
9.269309005012218

>  <m_score__min__rmsd>  (152) 
9.269309005012218

>  <meeko>  (152) 
{"free_energy": -6.56, "intermolecular_energy": -8.94, "internal_energy": -4.73, "cluster_size": 11, "cluster_id": 3, "rank_in_cluster": 2}

>  <energy>  (152) 
-9.48

>  <cluster_rmsd>  (152) 
0.61

>  <cluster>  (152) 
1

$$$$

     RDKit          3D

 68 72  0  0  0  0  0  0  0  0999 V2000
  135.9060   80.9350  224.9650 C   0  0  0  0  0  0  0  0  0  0  0  0
  136.4860   80.1390  223.8110 C   0  0  0  0  0  0  0  0  0  0  0  0
  137.9750   80.1600  223.9000 C   0  0  0  0  0  0  0  0  0  0  0  0
  138.4500   80.9240  224.8060 O   0  0  0  0  0  0  0  0  0  0  0  0
  138.8110   79.3900  223.0430 N   0  0  0  0  0  0  0  0  0  0  0  0
  140.1980   79.6900  223.0340 C   0  0  0  0  0  0  0  0  0  0  0  0
  141.1720   78.8350  223.5020 C   0  0  0  0  0  0  0  0  0  0  0  0
  142.5140   79.2230  223.4500 C   0  0  0  0  0  0  0  0  0  0  0  0
  142.8970   80.4520  222.9390 C   0  0  0  0  0  0  0  0  0  0  0  0
  141.9170   81.3140  222.4680 C   0  0  0  0  0  0  0  0  0  0  0  0
  140.6080   80.9030  222.5310 C   0  0  0  0  0  0  0  0  0  0  0  0
  138.1970   78.3610  222.2560 C   0  0  0  0  0  0  0  0  0  0  0  0
  138.4240   76.9690  222.7210 C   0  0  0  0  0  0  0  0  0  0  0  0
  139.5910   76.2720  221.9780 C   0  0  0  0  0  0  0  0  0  0  0  0
  139.2460   76.1490  220.5920 N   0  0  0  0  0  0  0  0  0  0  0  0
  139.6600   75.2420  219.6290 C   0  0  0  0  0  0  0  0  0  0  0  0
  139.1440   75.4360  218.4330 O   0  0  0  0  0  0  0  0  0  0  0  0
  140.5670   74.1030  219.6710 C   0  0  1  0  0  0  0  0  0  0  0  0
  141.0750   73.9370  218.2930 N   0  0  0  0  0  0  0  0  0  0  0  0
  141.6350   74.0300  220.6800 C   0  0  1  0  0  0  0  0  0  0  0  0
  142.8010   73.1970  220.4030 C   0  0  0  0  0  0  0  0  0  0  0  0
  143.3530   71.9540  220.1010 C   0  0  0  0  0  0  0  0  0  0  0  0
  144.7070   71.8150  219.9630 C   0  0  0  0  0  0  0  0  0  0  0  0
  145.5970   72.8620  220.1080 C   0  0  0  0  0  0  0  0  0  0  0  0
  145.0510   74.1100  220.4110 C   0  0  0  0  0  0  0  0  0  0  0  0
  143.6880   74.2340  220.5460 C   0  0  0  0  0  0  0  0  0  0  0  0
  142.5630   75.1800  220.8160 C   0  0  1  0  0  0  0  0  0  0  0  0
  142.5370   76.2850  219.8610 C   0  0  0  0  0  0  0  0  0  0  0  0
  142.9830   76.2330  218.5590 C   0  0  0  0  0  0  0  0  0  0  0  0
  142.9240   77.3160  217.7060 C   0  0  0  0  0  0  0  0  0  0  0  0
  142.3990   78.5170  218.1490 C   0  0  0  0  0  0  0  0  0  0  0  0
  141.9400   78.6060  219.4500 C   0  0  0  0  0  0  0  0  0  0  0  0
  142.0130   77.5120  220.2780 C   0  0  0  0  0  0  0  0  0  0  0  0
  138.2840   77.2060  220.1370 C   0  0  0  0  0  0  0  0  0  0  0  0
  138.7680   78.4600  220.8400 C   0  0  0  0  0  0  0  0  0  0  0  0
  136.2304   80.4898  225.9171 H   0  0  0  0  0  0  0  0  0  0  0  0
  136.2595   81.9751  224.9073 H   0  0  0  0  0  0  0  0  0  0  0  0
  134.8077   80.9173  224.9073 H   0  0  0  0  0  0  0  0  0  0  0  0
  136.1288   79.1000  223.8645 H   0  0  0  0  0  0  0  0  0  0  0  0
  136.1664   80.5844  222.8573 H   0  0  0  0  0  0  0  0  0  0  0  0
  140.8953   77.8533  223.9139 H   0  0  0  0  0  0  0  0  0  0  0  0
  143.2857   78.5344  223.8246 H   0  0  0  0  0  0  0  0  0  0  0  0
  143.9583   80.7394  222.9071 H   0  0  0  0  0  0  0  0  0  0  0  0
  142.1811   82.2990  222.0557 H   0  0  0  0  0  0  0  0  0  0  0  0
  139.8358   81.5897  222.1540 H   0  0  0  0  0  0  0  0  0  0  0  0
  137.1135   78.5368  222.3280 H   0  0  0  0  0  0  0  0  0  0  0  0
  138.6547   76.9906  223.7963 H   0  0  0  0  0  0  0  0  0  0  0  0
  137.5085   76.3961  222.5122 H   0  0  0  0  0  0  0  0  0  0  0  0
  140.5062   76.8737  222.0795 H   0  0  0  0  0  0  0  0  0  0  0  0
  139.7681   75.2759  222.4097 H   0  0  0  0  0  0  0  0  0  0  0  0
  139.9617   73.2635  220.0437 H   0  0  0  0  0  0  0  0  0  0  0  0
  140.5590   73.1590  217.8320 H   0  0  0  0  0  0  0  0  0  0  0  0
  141.1140   74.8160  217.7700 H   0  0  0  0  0  0  0  0  0  0  0  0
  140.9239   73.7715  221.4784 H   0  0  0  0  0  0  0  0  0  0  0  0
  142.6971   71.0803  219.9729 H   0  0  0  0  0  0  0  0  0  0  0  0
  145.1077   70.8187  219.7244 H   0  0  0  0  0  0  0  0  0  0  0  0
  146.6813   72.7190  219.9905 H   0  0  0  0  0  0  0  0  0  0  0  0
  145.7041   74.9856  220.5405 H   0  0  0  0  0  0  0  0  0  0  0  0
  142.4570   75.8100  221.7115 H   0  0  0  0  0  0  0  0  0  0  0  0
  143.4039   75.2886  218.1834 H   0  0  0  0  0  0  0  0  0  0  0  0
  143.2942   77.2245  216.6742 H   0  0  0  0  0  0  0  0  0  0  0  0
  142.3477   79.3865  217.4772 H   0  0  0  0  0  0  0  0  0  0  0  0
  141.5171   79.5510  219.8216 H   0  0  0  0  0  0  0  0  0  0  0  0
  141.6444   77.6054  221.3102 H   0  0  0  0  0  0  0  0  0  0  0  0
  138.3239   77.3286  219.0446 H   0  0  0  0  0  0  0  0  0  0  0  0
  137.2382   76.9611  220.3744 H   0  0  0  0  0  0  0  0  0  0  0  0
  139.8673   78.4891  220.8669 H   0  0  0  0  0  0  0  0  0  0  0  0
  138.4428   79.3759  220.3249 H   0  0  0  0  0  0  0  0  0  0  0  0
  1  2  1  0
  2  3  1  0
  3  4  2  0
  3  5  1  0
  5  6  1  0
  6  7  2  0
  7  8  1  0
  8  9  2  0
  9 10  1  0
 10 11  2  0
  5 12  1  0
 12 13  1  0
 13 14  1  0
 14 15  1  0
 15 16  1  0
 16 17  2  0
 16 18  1  0
 18 19  1  0
 18 20  1  0
 20 21  1  0
 21 22  2  0
 22 23  1  0
 23 24  2  0
 24 25  1  0
 25 26  2  0
 26 27  1  0
 27 28  1  0
 28 29  2  0
 29 30  1  0
 30 31  2  0
 31 32  1  0
 32 33  2  0
 15 34  1  0
 34 35  1  0
 11  6  1  0
 35 12  1  0
 27 20  1  0
 33 28  1  0
 26 21  1  0
  1 36  1  0
  1 37  1  0
  1 38  1  0
  2 39  1  0
  2 40  1  0
  7 41  1  0
  8 42  1  0
  9 43  1  0
 10 44  1  0
 11 45  1  0
 12 46  1  0
 13 47  1  0
 13 48  1  0
 14 49  1  0
 14 50  1  0
 18 51  1  1
 19 52  1  0
 19 53  1  0
 20 54  1  1
 22 55  1  0
 23 56  1  0
 24 57  1  0
 25 58  1  0
 27 59  1  1
 29 60  1  0
 30 61  1  0
 31 62  1  0
 32 63  1  0
 33 64  1  0
 34 65  1  0
 34 66  1  0
 35 67  1  0
 35 68  1  0
M  END
>  <smiles>  (153) 
CCC(=O)N(c1ccccc1)C1CCN(C(=O)[C@@H](N)C2c3ccccc3C2c2ccccc2)CC1

>  <score_type>  (153) 
oracle

>  <origin>  (153) 
autodockgpu

>  <m_score__min__energy>  (153) 
-9.6500000000000004

>  <m_primary>  (153) 
energy

>  <rmsd>  (153) 
7.08664458599693

>  <m_score__min__rmsd>  (153) 
7.08664458599693

>  <meeko>  (153) 
{"free_energy": -7.04, "intermolecular_energy": -9.43, "internal_energy": -4.35, "cluster_size": 30, "cluster_id": 2, "rank_in_cluster": 5}

>  <energy>  (153) 
-9.43

>  <cluster_rmsd>  (153) 
0.68

>  <cluster>  (153) 
1

$$$$

     RDKit          3D

 68 72  0  0  0  0  0  0  0  0999 V2000
  137.0000   81.2980  225.6170 C   0  0  0  0  0  0  0  0  0  0  0  0
  138.1110   81.0540  224.6120 C   0  0  0  0  0  0  0  0  0  0  0  0
  137.6810   79.9930  223.6560 C   0  0  0  0  0  0  0  0  0  0  0  0
  136.4340   79.7240  223.6730 O   0  0  0  0  0  0  0  0  0  0  0  0
  138.5880   79.3250  222.7850 N   0  0  0  0  0  0  0  0  0  0  0  0
  139.9610   79.6790  222.8660 C   0  0  0  0  0  0  0  0  0  0  0  0
  140.4720   80.8790  222.4210 C   0  0  0  0  0  0  0  0  0  0  0  0
  141.8410   81.1330  222.5440 C   0  0  0  0  0  0  0  0  0  0  0  0
  142.7060   80.2080  223.1040 C   0  0  0  0  0  0  0  0  0  0  0  0
  142.1920   78.9990  223.5520 C   0  0  0  0  0  0  0  0  0  0  0  0
  140.8430   78.7800  223.4180 C   0  0  0  0  0  0  0  0  0  0  0  0
  138.0560   78.3370  221.8930 C   0  0  0  0  0  0  0  0  0  0  0  0
  138.1450   76.9310  222.3590 C   0  0  0  0  0  0  0  0  0  0  0  0
  139.3790   76.1870  221.7910 C   0  0  0  0  0  0  0  0  0  0  0  0
  139.2450   76.0980  220.3660 N   0  0  0  0  0  0  0  0  0  0  0  0
  139.7610   75.1830  219.4600 C   0  0  0  0  0  0  0  0  0  0  0  0
  139.4440   75.4170  218.2040 O   0  0  0  0  0  0  0  0  0  0  0  0
  140.5970   74.0010  219.6180 C   0  0  1  0  0  0  0  0  0  0  0  0
  141.1200   73.6910  218.2710 N   0  0  0  0  0  0  0  0  0  0  0  0
  141.6390   73.9520  220.6550 C   0  0  1  0  0  0  0  0  0  0  0  0
  142.8320   73.1500  220.4070 C   0  0  0  0  0  0  0  0  0  0  0  0
  143.4240   71.9220  220.1150 C   0  0  0  0  0  0  0  0  0  0  0  0
  144.7840   71.8190  220.0120 C   0  0  0  0  0  0  0  0  0  0  0  0
  145.6430   72.8870  220.1850 C   0  0  0  0  0  0  0  0  0  0  0  0
  145.0570   74.1200  220.4780 C   0  0  0  0  0  0  0  0  0  0  0  0
  143.6890   74.2080  220.5770 C   0  0  0  0  0  0  0  0  0  0  0  0
  142.5330   75.1240  220.8190 C   0  0  1  0  0  0  0  0  0  0  0  0
  142.5040   76.2330  219.8680 C   0  0  0  0  0  0  0  0  0  0  0  0
  142.0130   77.4940  220.1200 C   0  0  0  0  0  0  0  0  0  0  0  0
  142.0210   78.5000  219.1750 C   0  0  0  0  0  0  0  0  0  0  0  0
  142.5380   78.2610  217.9140 C   0  0  0  0  0  0  0  0  0  0  0  0
  143.0410   77.0060  217.6260 C   0  0  0  0  0  0  0  0  0  0  0  0
  143.0190   76.0220  218.5860 C   0  0  0  0  0  0  0  0  0  0  0  0
  138.4140   77.2060  219.7890 C   0  0  0  0  0  0  0  0  0  0  0  0
  138.8420   78.4250  220.5830 C   0  0  0  0  0  0  0  0  0  0  0  0
  137.4023   81.2096  226.6370 H   0  0  0  0  0  0  0  0  0  0  0  0
  136.5889   82.3078  225.4712 H   0  0  0  0  0  0  0  0  0  0  0  0
  136.2036   80.5533  225.4712 H   0  0  0  0  0  0  0  0  0  0  0  0
  138.3200   81.9830  224.0614 H   0  0  0  0  0  0  0  0  0  0  0  0
  139.0217   80.7315  225.1379 H   0  0  0  0  0  0  0  0  0  0  0  0
  139.8072   81.6317  221.9721 H   0  0  0  0  0  0  0  0  0  0  0  0
  142.2418   82.0930  222.1865 H   0  0  0  0  0  0  0  0  0  0  0  0
  143.7803   80.4272  223.1922 H   0  0  0  0  0  0  0  0  0  0  0  0
  142.8467   78.2379  224.0016 H   0  0  0  0  0  0  0  0  0  0  0  0
  140.4409   77.8209  223.7763 H   0  0  0  0  0  0  0  0  0  0  0  0
  136.9837   78.5649  221.8020 H   0  0  0  0  0  0  0  0  0  0  0  0
  138.2077   76.9281  223.4572 H   0  0  0  0  0  0  0  0  0  0  0  0
  137.2476   76.4058  221.9999 H   0  0  0  0  0  0  0  0  0  0  0  0
  140.2946   76.7422  222.0430 H   0  0  0  0  0  0  0  0  0  0  0  0
  139.4422   75.1785  222.2258 H   0  0  0  0  0  0  0  0  0  0  0  0
  139.9363   73.2317  220.0442 H   0  0  0  0  0  0  0  0  0  0  0  0
  140.4600   73.0450  217.7900 H   0  0  0  0  0  0  0  0  0  0  0  0
  141.3900   74.5250  217.7430 H   0  0  0  0  0  0  0  0  0  0  0  0
  140.9137   73.6732  221.4336 H   0  0  0  0  0  0  0  0  0  0  0  0
  142.7946   71.0321  219.9668 H   0  0  0  0  0  0  0  0  0  0  0  0
  145.2162   70.8346  219.7793 H   0  0  0  0  0  0  0  0  0  0  0  0
  146.7334   72.7719  220.0964 H   0  0  0  0  0  0  0  0  0  0  0  0
  145.6836   75.0116  220.6280 H   0  0  0  0  0  0  0  0  0  0  0  0
  142.3870   75.7478  221.7132 H   0  0  0  0  0  0  0  0  0  0  0  0
  141.5971   77.7088  221.1154 H   0  0  0  0  0  0  0  0  0  0  0  0
  141.6163   79.4920  219.4244 H   0  0  0  0  0  0  0  0  0  0  0  0
  142.5486   79.0560  217.1538 H   0  0  0  0  0  0  0  0  0  0  0  0
  143.4582   76.7949  216.6303 H   0  0  0  0  0  0  0  0  0  0  0  0
  143.4225   75.0299  218.3352 H   0  0  0  0  0  0  0  0  0  0  0  0
  138.6275   77.3401  218.7183 H   0  0  0  0  0  0  0  0  0  0  0  0
  137.3338   77.0096  219.8574 H   0  0  0  0  0  0  0  0  0  0  0  0
  139.9242   78.3993  220.7784 H   0  0  0  0  0  0  0  0  0  0  0  0
  138.6429   79.3622  220.0426 H   0  0  0  0  0  0  0  0  0  0  0  0
  1  2  1  0
  2  3  1  0
  3  4  2  0
  3  5  1  0
  5  6  1  0
  6  7  2  0
  7  8  1  0
  8  9  2  0
  9 10  1  0
 10 11  2  0
  5 12  1  0
 12 13  1  0
 13 14  1  0
 14 15  1  0
 15 16  1  0
 16 17  2  0
 16 18  1  0
 18 19  1  0
 18 20  1  0
 20 21  1  0
 21 22  2  0
 22 23  1  0
 23 24  2  0
 24 25  1  0
 25 26  2  0
 26 27  1  0
 27 28  1  0
 28 29  2  0
 29 30  1  0
 30 31  2  0
 31 32  1  0
 32 33  2  0
 15 34  1  0
 34 35  1  0
 11  6  1  0
 35 12  1  0
 27 20  1  0
 33 28  1  0
 26 21  1  0
  1 36  1  0
  1 37  1  0
  1 38  1  0
  2 39  1  0
  2 40  1  0
  7 41  1  0
  8 42  1  0
  9 43  1  0
 10 44  1  0
 11 45  1  0
 12 46  1  0
 13 47  1  0
 13 48  1  0
 14 49  1  0
 14 50  1  0
 18 51  1  1
 19 52  1  0
 19 53  1  0
 20 54  1  1
 22 55  1  0
 23 56  1  0
 24 57  1  0
 25 58  1  0
 27 59  1  1
 29 60  1  0
 30 61  1  0
 31 62  1  0
 32 63  1  0
 33 64  1  0
 34 65  1  0
 34 66  1  0
 35 67  1  0
 35 68  1  0
M  END
>  <smiles>  (154) 
CCC(=O)N(c1ccccc1)C1CCN(C(=O)[C@@H](N)C2c3ccccc3C2c2ccccc2)CC1

>  <score_type>  (154) 
oracle

>  <origin>  (154) 
autodockgpu

>  <m_score__min__energy>  (154) 
-9.6500000000000004

>  <m_primary>  (154) 
energy

>  <rmsd>  (154) 
7.050895414379828

>  <m_score__min__rmsd>  (154) 
7.050895414379828

>  <meeko>  (154) 
{"free_energy": -7.0, "intermolecular_energy": -9.39, "internal_energy": -4.34, "cluster_size": 30, "cluster_id": 2, "rank_in_cluster": 22}

>  <energy>  (154) 
-9.43

>  <cluster_rmsd>  (154) 
0.65

>  <cluster>  (154) 
1

$$$$

     RDKit          3D

 68 72  0  0  0  0  0  0  0  0999 V2000
  137.0320   81.3160  225.7070 C   0  0  0  0  0  0  0  0  0  0  0  0
  138.1000   81.1140  224.6490 C   0  0  0  0  0  0  0  0  0  0  0  0
  137.6760   80.0210  223.7270 C   0  0  0  0  0  0  0  0  0  0  0  0
  136.4330   79.7310  223.7700 O   0  0  0  0  0  0  0  0  0  0  0  0
  138.5810   79.3460  222.8600 N   0  0  0  0  0  0  0  0  0  0  0  0
  139.9530   79.7020  222.9350 C   0  0  0  0  0  0  0  0  0  0  0  0
  140.4610   80.9030  222.4910 C   0  0  0  0  0  0  0  0  0  0  0  0
  141.8310   81.1580  222.6090 C   0  0  0  0  0  0  0  0  0  0  0  0
  142.7000   80.2320  223.1620 C   0  0  0  0  0  0  0  0  0  0  0  0
  142.1890   79.0210  223.6090 C   0  0  0  0  0  0  0  0  0  0  0  0
  140.8390   78.8010  223.4810 C   0  0  0  0  0  0  0  0  0  0  0  0
  138.0480   78.3510  221.9770 C   0  0  0  0  0  0  0  0  0  0  0  0
  138.1740   76.9450  222.4360 C   0  0  0  0  0  0  0  0  0  0  0  0
  139.4080   76.2270  221.8370 C   0  0  0  0  0  0  0  0  0  0  0  0
  139.2440   76.1400  220.4150 N   0  0  0  0  0  0  0  0  0  0  0  0
  139.7560   75.2380  219.4940 C   0  0  0  0  0  0  0  0  0  0  0  0
  139.4060   75.4690  218.2460 O   0  0  0  0  0  0  0  0  0  0  0  0
  140.6170   74.0720  219.6290 C   0  0  1  0  0  0  0  0  0  0  0  0
  141.1450   73.7980  218.2750 N   0  0  0  0  0  0  0  0  0  0  0  0
  141.6620   74.0250  220.6640 C   0  0  1  0  0  0  0  0  0  0  0  0
  142.8460   73.2070  220.4230 C   0  0  0  0  0  0  0  0  0  0  0  0
  143.4230   71.9680  220.1470 C   0  0  0  0  0  0  0  0  0  0  0  0
  144.7820   71.8480  220.0430 C   0  0  0  0  0  0  0  0  0  0  0  0
  145.6530   72.9100  220.1980 C   0  0  0  0  0  0  0  0  0  0  0  0
  145.0820   74.1530  220.4740 C   0  0  0  0  0  0  0  0  0  0  0  0
  143.7140   74.2580  220.5760 C   0  0  0  0  0  0  0  0  0  0  0  0
  142.5700   75.1900  220.8080 C   0  0  1  0  0  0  0  0  0  0  0  0
  142.5500   76.2850  219.8410 C   0  0  0  0  0  0  0  0  0  0  0  0
  143.0020   76.2170  218.5420 C   0  0  0  0  0  0  0  0  0  0  0  0
  142.9490   77.2910  217.6770 C   0  0  0  0  0  0  0  0  0  0  0  0
  142.4250   78.4980  218.1040 C   0  0  0  0  0  0  0  0  0  0  0  0
  141.9600   78.6020  219.4010 C   0  0  0  0  0  0  0  0  0  0  0  0
  142.0270   77.5170  220.2420 C   0  0  0  0  0  0  0  0  0  0  0  0
  138.3790   77.2330  219.8610 C   0  0  0  0  0  0  0  0  0  0  0  0
  138.8010   78.4580  220.6490 C   0  0  0  0  0  0  0  0  0  0  0  0
  137.4846   81.2304  226.7059 H   0  0  0  0  0  0  0  0  0  0  0  0
  136.5854   82.3145  225.5912 H   0  0  0  0  0  0  0  0  0  0  0  0
  136.2515   80.5496  225.5912 H   0  0  0  0  0  0  0  0  0  0  0  0
  138.2339   82.0451  224.0788 H   0  0  0  0  0  0  0  0  0  0  0  0
  139.0511   80.8431  225.1308 H   0  0  0  0  0  0  0  0  0  0  0  0
  139.7937   81.6562  222.0467 H   0  0  0  0  0  0  0  0  0  0  0  0
  142.2291   82.1197  222.2531 H   0  0  0  0  0  0  0  0  0  0  0  0
  143.7746   80.4519  223.2454 H   0  0  0  0  0  0  0  0  0  0  0  0
  142.8465   78.2592  224.0531 H   0  0  0  0  0  0  0  0  0  0  0  0
  140.4393   77.8407  223.8387 H   0  0  0  0  0  0  0  0  0  0  0  0
  136.9698   78.5589  221.9116 H   0  0  0  0  0  0  0  0  0  0  0  0
  138.2621   76.9397  223.5325 H   0  0  0  0  0  0  0  0  0  0  0  0
  137.2785   76.4040  222.0962 H   0  0  0  0  0  0  0  0  0  0  0  0
  140.3183   76.7987  222.0703 H   0  0  0  0  0  0  0  0  0  0  0  0
  139.4996   75.2183  222.2661 H   0  0  0  0  0  0  0  0  0  0  0  0
  139.9729   73.2816  220.0419 H   0  0  0  0  0  0  0  0  0  0  0  0
  140.5160   73.1220  217.7960 H   0  0  0  0  0  0  0  0  0  0  0  0
  141.3680   74.6490  217.7510 H   0  0  0  0  0  0  0  0  0  0  0  0
  140.9366   73.7643  221.4487 H   0  0  0  0  0  0  0  0  0  0  0  0
  142.7831   71.0835  220.0123 H   0  0  0  0  0  0  0  0  0  0  0  0
  145.2030   70.8554  219.8248 H   0  0  0  0  0  0  0  0  0  0  0  0
  146.7418   72.7818  220.1083 H   0  0  0  0  0  0  0  0  0  0  0  0
  145.7190   75.0396  220.6086 H   0  0  0  0  0  0  0  0  0  0  0  0
  142.4341   75.8286  221.6933 H   0  0  0  0  0  0  0  0  0  0  0  0
  143.4226   75.2676  218.1789 H   0  0  0  0  0  0  0  0  0  0  0  0
  143.3235   77.1873  216.6479 H   0  0  0  0  0  0  0  0  0  0  0  0
  142.3793   79.3603  217.4226 H   0  0  0  0  0  0  0  0  0  0  0  0
  141.5368   79.5518  219.7599 H   0  0  0  0  0  0  0  0  0  0  0  0
  141.6541   77.6227  221.2715 H   0  0  0  0  0  0  0  0  0  0  0  0
  138.5654   77.3743  218.7862 H   0  0  0  0  0  0  0  0  0  0  0  0
  137.3047   77.0153  219.9534 H   0  0  0  0  0  0  0  0  0  0  0  0
  139.8878   78.4533  220.8189 H   0  0  0  0  0  0  0  0  0  0  0  0
  138.5704   79.3925  220.1165 H   0  0  0  0  0  0  0  0  0  0  0  0
  1  2  1  0
  2  3  1  0
  3  4  2  0
  3  5  1  0
  5  6  1  0
  6  7  2  0
  7  8  1  0
  8  9  2  0
  9 10  1  0
 10 11  2  0
  5 12  1  0
 12 13  1  0
 13 14  1  0
 14 15  1  0
 15 16  1  0
 16 17  2  0
 16 18  1  0
 18 19  1  0
 18 20  1  0
 20 21  1  0
 21 22  2  0
 22 23  1  0
 23 24  2  0
 24 25  1  0
 25 26  2  0
 26 27  1  0
 27 28  1  0
 28 29  2  0
 29 30  1  0
 30 31  2  0
 31 32  1  0
 32 33  2  0
 15 34  1  0
 34 35  1  0
 11  6  1  0
 35 12  1  0
 27 20  1  0
 33 28  1  0
 26 21  1  0
  1 36  1  0
  1 37  1  0
  1 38  1  0
  2 39  1  0
  2 40  1  0
  7 41  1  0
  8 42  1  0
  9 43  1  0
 10 44  1  0
 11 45  1  0
 12 46  1  0
 13 47  1  0
 13 48  1  0
 14 49  1  0
 14 50  1  0
 18 51  1  1
 19 52  1  0
 19 53  1  0
 20 54  1  1
 22 55  1  0
 23 56  1  0
 24 57  1  0
 25 58  1  0
 27 59  1  1
 29 60  1  0
 30 61  1  0
 31 62  1  0
 32 63  1  0
 33 64  1  0
 34 65  1  0
 34 66  1  0
 35 67  1  0
 35 68  1  0
M  END
>  <smiles>  (155) 
CCC(=O)N(c1ccccc1)C1CCN(C(=O)[C@@H](N)C2c3ccccc3C2c2ccccc2)CC1

>  <score_type>  (155) 
oracle

>  <origin>  (155) 
autodockgpu

>  <m_score__min__energy>  (155) 
-9.6500000000000004

>  <m_primary>  (155) 
energy

>  <rmsd>  (155) 
7.077318170082958

>  <m_score__min__rmsd>  (155) 
7.077318170082958

>  <meeko>  (155) 
{"free_energy": -7.04, "intermolecular_energy": -9.42, "internal_energy": -4.38, "cluster_size": 30, "cluster_id": 2, "rank_in_cluster": 7}

>  <energy>  (155) 
-9.38

>  <cluster_rmsd>  (155) 
0.69

>  <cluster>  (155) 
1

$$$$

     RDKit          3D

 68 72  0  0  0  0  0  0  0  0999 V2000
  145.6980   74.1430  220.8370 C   0  0  0  0  0  0  0  0  0  0  0  0
  145.9240   72.6430  220.7960 C   0  0  0  0  0  0  0  0  0  0  0  0
  145.3820   72.1010  219.5160 C   0  0  0  0  0  0  0  0  0  0  0  0
  145.9100   72.5840  218.4590 O   0  0  0  0  0  0  0  0  0  0  0  0
  144.3520   71.1200  219.4680 N   0  0  0  0  0  0  0  0  0  0  0  0
  144.7410   69.7640  219.3040 C   0  0  0  0  0  0  0  0  0  0  0  0
  146.0210   69.3660  218.9830 C   0  0  0  0  0  0  0  0  0  0  0  0
  146.3040   68.0050  218.8420 C   0  0  0  0  0  0  0  0  0  0  0  0
  145.3300   67.0360  219.0170 C   0  0  0  0  0  0  0  0  0  0  0  0
  144.0410   67.4360  219.3390 C   0  0  0  0  0  0  0  0  0  0  0  0
  143.7940   68.7810  219.4710 C   0  0  0  0  0  0  0  0  0  0  0  0
  142.9950   71.5650  219.5950 C   0  0  0  0  0  0  0  0  0  0  0  0
  142.6320   72.7680  218.8050 C   0  0  0  0  0  0  0  0  0  0  0  0
  142.7070   74.0740  219.6320 C   0  0  0  0  0  0  0  0  0  0  0  0
  141.7320   74.0110  220.6810 N   0  0  0  0  0  0  0  0  0  0  0  0
  141.0660   75.0170  221.3660 C   0  0  0  0  0  0  0  0  0  0  0  0
  140.2340   74.5920  222.2930 O   0  0  0  0  0  0  0  0  0  0  0  0
  141.1050   76.4700  221.2680 C   0  0  1  0  0  0  0  0  0  0  0  0
  142.2950   76.7890  220.4520 N   0  0  0  0  0  0  0  0  0  0  0  0
  139.9140   77.2270  220.8530 C   0  0  1  0  0  0  0  0  0  0  0  0
  138.6570   76.9900  221.5560 C   0  0  0  0  0  0  0  0  0  0  0  0
  137.6470   76.1220  221.9660 C   0  0  0  0  0  0  0  0  0  0  0  0
  136.5860   76.5910  222.6910 C   0  0  0  0  0  0  0  0  0  0  0  0
  136.4430   77.9150  223.0590 C   0  0  0  0  0  0  0  0  0  0  0  0
  137.4510   78.7910  222.6510 C   0  0  0  0  0  0  0  0  0  0  0  0
  138.5110   78.3040  221.9230 C   0  0  0  0  0  0  0  0  0  0  0  0
  139.8020   78.6510  221.2560 C   0  0  1  0  0  0  0  0  0  0  0  0
  140.7570   79.2470  222.1860 C   0  0  0  0  0  0  0  0  0  0  0  0
  141.1380   78.7130  223.3970 C   0  0  0  0  0  0  0  0  0  0  0  0
  142.0530   79.3280  224.2280 C   0  0  0  0  0  0  0  0  0  0  0  0
  142.6260   80.5310  223.8570 C   0  0  0  0  0  0  0  0  0  0  0  0
  142.2680   81.0960  222.6470 C   0  0  0  0  0  0  0  0  0  0  0  0
  141.3530   80.4620  221.8400 C   0  0  0  0  0  0  0  0  0  0  0  0
  141.4110   72.6050  221.0930 C   0  0  0  0  0  0  0  0  0  0  0  0
  142.7570   71.9070  221.0680 C   0  0  0  0  0  0  0  0  0  0  0  0
  145.6476   74.4777  221.8836 H   0  0  0  0  0  0  0  0  0  0  0  0
  146.5294   74.6531  220.3286 H   0  0  0  0  0  0  0  0  0  0  0  0
  144.7532   74.3855  220.3286 H   0  0  0  0  0  0  0  0  0  0  0  0
  147.0016   72.4313  220.8584 H   0  0  0  0  0  0  0  0  0  0  0  0
  145.4111   72.1682  221.6454 H   0  0  0  0  0  0  0  0  0  0  0  0
  146.8141   70.1145  218.8389 H   0  0  0  0  0  0  0  0  0  0  0  0
  147.3276   67.6949  218.5852 H   0  0  0  0  0  0  0  0  0  0  0  0
  145.5737   65.9694  218.9029 H   0  0  0  0  0  0  0  0  0  0  0  0
  143.2394   66.6969  219.4845 H   0  0  0  0  0  0  0  0  0  0  0  0
  142.7706   69.0923  219.7273 H   0  0  0  0  0  0  0  0  0  0  0  0
  142.3746   70.7435  219.2074 H   0  0  0  0  0  0  0  0  0  0  0  0
  143.3235   72.8510  217.9535 H   0  0  0  0  0  0  0  0  0  0  0  0
  141.5901   72.6449  218.4743 H   0  0  0  0  0  0  0  0  0  0  0  0
  143.7119   74.1795  220.0667 H   0  0  0  0  0  0  0  0  0  0  0  0
  142.5048   74.9397  218.9842 H   0  0  0  0  0  0  0  0  0  0  0  0
  141.1472   76.8312  222.3062 H   0  0  0  0  0  0  0  0  0  0  0  0
  142.4990   77.8070  220.5330 H   0  0  0  0  0  0  0  0  0  0  0  0
  143.0840   76.1620  220.6290 H   0  0  0  0  0  0  0  0  0  0  0  0
  140.0433   76.9395  219.7991 H   0  0  0  0  0  0  0  0  0  0  0  0
  137.7031   75.0548  221.7055 H   0  0  0  0  0  0  0  0  0  0  0  0
  135.8067   75.8774  222.9967 H   0  0  0  0  0  0  0  0  0  0  0  0
  135.5784   78.2617  223.6441 H   0  0  0  0  0  0  0  0  0  0  0  0
  137.3977   79.8589  222.9092 H   0  0  0  0  0  0  0  0  0  0  0  0
  139.9323   79.4095  220.4701 H   0  0  0  0  0  0  0  0  0  0  0  0
  140.6952   77.7576  223.7151 H   0  0  0  0  0  0  0  0  0  0  0  0
  142.3265   78.8611  225.1857 H   0  0  0  0  0  0  0  0  0  0  0  0
  143.3542   81.0297  224.5135 H   0  0  0  0  0  0  0  0  0  0  0  0
  142.7141   82.0504  222.3307 H   0  0  0  0  0  0  0  0  0  0  0  0
  141.0792   80.9305  220.8832 H   0  0  0  0  0  0  0  0  0  0  0  0
  140.9758   72.5819  222.1030 H   0  0  0  0  0  0  0  0  0  0  0  0
  140.6704   72.1266  220.4353 H   0  0  0  0  0  0  0  0  0  0  0  0
  143.5465   72.5749  221.4428 H   0  0  0  0  0  0  0  0  0  0  0  0
  142.7722   71.0130  221.7087 H   0  0  0  0  0  0  0  0  0  0  0  0
  1  2  1  0
  2  3  1  0
  3  4  2  0
  3  5  1  0
  5  6  1  0
  6  7  2  0
  7  8  1  0
  8  9  2  0
  9 10  1  0
 10 11  2  0
  5 12  1  0
 12 13  1  0
 13 14  1  0
 14 15  1  0
 15 16  1  0
 16 17  2  0
 16 18  1  0
 18 19  1  0
 18 20  1  0
 20 21  1  0
 21 22  2  0
 22 23  1  0
 23 24  2  0
 24 25  1  0
 25 26  2  0
 26 27  1  0
 27 28  1  0
 28 29  2  0
 29 30  1  0
 30 31  2  0
 31 32  1  0
 32 33  2  0
 15 34  1  0
 34 35  1  0
 11  6  1  0
 35 12  1  0
 27 20  1  0
 33 28  1  0
 26 21  1  0
  1 36  1  0
  1 37  1  0
  1 38  1  0
  2 39  1  0
  2 40  1  0
  7 41  1  0
  8 42  1  0
  9 43  1  0
 10 44  1  0
 11 45  1  0
 12 46  1  0
 13 47  1  0
 13 48  1  0
 14 49  1  0
 14 50  1  0
 18 51  1  1
 19 52  1  0
 19 53  1  0
 20 54  1  6
 22 55  1  0
 23 56  1  0
 24 57  1  0
 25 58  1  0
 27 59  1  6
 29 60  1  0
 30 61  1  0
 31 62  1  0
 32 63  1  0
 33 64  1  0
 34 65  1  0
 34 66  1  0
 35 67  1  0
 35 68  1  0
M  END
>  <smiles>  (156) 
CCC(=O)N(c1ccccc1)C1CCN(C(=O)[C@@H](N)C2c3ccccc3C2c2ccccc2)CC1

>  <score_type>  (156) 
oracle

>  <origin>  (156) 
autodockgpu

>  <m_score__min__energy>  (156) 
-9.6500000000000004

>  <m_primary>  (156) 
energy

>  <rmsd>  (156) 
8.239773470572546

>  <m_score__min__rmsd>  (156) 
8.239773470572546

>  <meeko>  (156) 
{"free_energy": -9.48, "intermolecular_energy": -11.86, "internal_energy": -2.21, "cluster_size": 9, "cluster_id": 1, "rank_in_cluster": 2}

>  <energy>  (156) 
-9.32

>  <cluster_rmsd>  (156) 
0.59

>  <cluster>  (156) 
1

$$$$

     RDKit          3D

 68 72  0  0  0  0  0  0  0  0999 V2000
  137.0370   81.3200  225.6520 C   0  0  0  0  0  0  0  0  0  0  0  0
  138.1130   81.1140  224.6020 C   0  0  0  0  0  0  0  0  0  0  0  0
  137.6780   80.0440  223.6580 C   0  0  0  0  0  0  0  0  0  0  0  0
  136.4270   79.7900  223.6690 O   0  0  0  0  0  0  0  0  0  0  0  0
  138.5830   79.3520  222.8040 N   0  0  0  0  0  0  0  0  0  0  0  0
  139.9570   79.7020  222.8790 C   0  0  0  0  0  0  0  0  0  0  0  0
  140.4720   80.8940  222.4180 C   0  0  0  0  0  0  0  0  0  0  0  0
  141.8420   81.1450  222.5360 C   0  0  0  0  0  0  0  0  0  0  0  0
  142.7050   80.2240  223.1070 C   0  0  0  0  0  0  0  0  0  0  0  0
  142.1870   79.0230  223.5710 C   0  0  0  0  0  0  0  0  0  0  0  0
  140.8370   78.8070  223.4410 C   0  0  0  0  0  0  0  0  0  0  0  0
  138.0480   78.3460  221.9350 C   0  0  0  0  0  0  0  0  0  0  0  0
  138.1840   76.9450  222.4070 C   0  0  0  0  0  0  0  0  0  0  0  0
  139.4180   76.2270  221.8050 C   0  0  0  0  0  0  0  0  0  0  0  0
  139.2430   76.1260  220.3860 N   0  0  0  0  0  0  0  0  0  0  0  0
  139.7530   75.2170  219.4690 C   0  0  0  0  0  0  0  0  0  0  0  0
  139.3920   75.4350  218.2220 O   0  0  0  0  0  0  0  0  0  0  0  0
  140.6210   74.0570  219.6090 C   0  0  1  0  0  0  0  0  0  0  0  0
  141.1510   73.7810  218.2570 N   0  0  0  0  0  0  0  0  0  0  0  0
  141.6660   74.0200  220.6440 C   0  0  1  0  0  0  0  0  0  0  0  0
  142.8540   73.2060  220.4080 C   0  0  0  0  0  0  0  0  0  0  0  0
  143.4380   71.9700  220.1380 C   0  0  0  0  0  0  0  0  0  0  0  0
  144.7970   71.8560  220.0340 C   0  0  0  0  0  0  0  0  0  0  0  0
  145.6620   72.9220  220.1840 C   0  0  0  0  0  0  0  0  0  0  0  0
  145.0850   74.1640  220.4540 C   0  0  0  0  0  0  0  0  0  0  0  0
  143.7170   74.2630  220.5550 C   0  0  0  0  0  0  0  0  0  0  0  0
  142.5680   75.1900  220.7830 C   0  0  1  0  0  0  0  0  0  0  0  0
  142.5430   76.2800  219.8110 C   0  0  0  0  0  0  0  0  0  0  0  0
  143.0090   76.2130  218.5170 C   0  0  0  0  0  0  0  0  0  0  0  0
  142.9490   77.2820  217.6460 C   0  0  0  0  0  0  0  0  0  0  0  0
  142.4050   78.4840  218.0620 C   0  0  0  0  0  0  0  0  0  0  0  0
  141.9260   78.5870  219.3550 C   0  0  0  0  0  0  0  0  0  0  0  0
  141.9990   77.5070  220.2010 C   0  0  0  0  0  0  0  0  0  0  0  0
  138.3690   77.2090  219.8280 C   0  0  0  0  0  0  0  0  0  0  0  0
  138.7910   78.4440  220.6010 C   0  0  0  0  0  0  0  0  0  0  0  0
  137.4818   81.2348  226.6544 H   0  0  0  0  0  0  0  0  0  0  0  0
  136.5935   82.3194  225.5313 H   0  0  0  0  0  0  0  0  0  0  0  0
  136.2557   80.5551  225.5313 H   0  0  0  0  0  0  0  0  0  0  0  0
  138.2711   82.0512  224.0483 H   0  0  0  0  0  0  0  0  0  0  0  0
  139.0534   80.8172  225.0895 H   0  0  0  0  0  0  0  0  0  0  0  0
  139.8093   81.6432  221.9601 H   0  0  0  0  0  0  0  0  0  0  0  0
  142.2455   82.0990  222.1657 H   0  0  0  0  0  0  0  0  0  0  0  0
  143.7802   80.4405  223.1910 H   0  0  0  0  0  0  0  0  0  0  0  0
  142.8393   78.2655  224.0300 H   0  0  0  0  0  0  0  0  0  0  0  0
  140.4322   77.8536  223.8114 H   0  0  0  0  0  0  0  0  0  0  0  0
  136.9683   78.5477  221.8753 H   0  0  0  0  0  0  0  0  0  0  0  0
  138.2804   76.9509  223.5027 H   0  0  0  0  0  0  0  0  0  0  0  0
  137.2886   76.3963  222.0797 H   0  0  0  0  0  0  0  0  0  0  0  0
  140.3272   76.8055  222.0257 H   0  0  0  0  0  0  0  0  0  0  0  0
  139.5185   75.2230  222.2430 H   0  0  0  0  0  0  0  0  0  0  0  0
  139.9813   73.2648  220.0251 H   0  0  0  0  0  0  0  0  0  0  0  0
  140.3580   73.5560  217.6210 H   0  0  0  0  0  0  0  0  0  0  0  0
  141.7980   74.5010  217.9240 H   0  0  0  0  0  0  0  0  0  0  0  0
  140.9414   73.7595  221.4295 H   0  0  0  0  0  0  0  0  0  0  0  0
  142.8028   71.0814  220.0078 H   0  0  0  0  0  0  0  0  0  0  0  0
  145.2227   70.8646  219.8199 H   0  0  0  0  0  0  0  0  0  0  0  0
  146.7514   72.7985  220.0952 H   0  0  0  0  0  0  0  0  0  0  0  0
  145.7178   75.0542  220.5846 H   0  0  0  0  0  0  0  0  0  0  0  0
  142.4284   75.8316  221.6656 H   0  0  0  0  0  0  0  0  0  0  0  0
  143.4473   75.2683  218.1628 H   0  0  0  0  0  0  0  0  0  0  0  0
  143.3339   77.1782  216.6208 H   0  0  0  0  0  0  0  0  0  0  0  0
  142.3544   79.3426  217.3763 H   0  0  0  0  0  0  0  0  0  0  0  0
  141.4870   79.5326  219.7059 H   0  0  0  0  0  0  0  0  0  0  0  0
  141.6140   77.6121  221.2261 H   0  0  0  0  0  0  0  0  0  0  0  0
  138.5468   77.3407  218.7505 H   0  0  0  0  0  0  0  0  0  0  0  0
  137.2965   76.9871  219.9306 H   0  0  0  0  0  0  0  0  0  0  0  0
  139.8790   78.4462  220.7632 H   0  0  0  0  0  0  0  0  0  0  0  0
  138.5524   79.3722  220.0611 H   0  0  0  0  0  0  0  0  0  0  0  0
  1  2  1  0
  2  3  1  0
  3  4  2  0
  3  5  1  0
  5  6  1  0
  6  7  2  0
  7  8  1  0
  8  9  2  0
  9 10  1  0
 10 11  2  0
  5 12  1  0
 12 13  1  0
 13 14  1  0
 14 15  1  0
 15 16  1  0
 16 17  2  0
 16 18  1  0
 18 19  1  0
 18 20  1  0
 20 21  1  0
 21 22  2  0
 22 23  1  0
 23 24  2  0
 24 25  1  0
 25 26  2  0
 26 27  1  0
 27 28  1  0
 28 29  2  0
 29 30  1  0
 30 31  2  0
 31 32  1  0
 32 33  2  0
 15 34  1  0
 34 35  1  0
 11  6  1  0
 35 12  1  0
 27 20  1  0
 33 28  1  0
 26 21  1  0
  1 36  1  0
  1 37  1  0
  1 38  1  0
  2 39  1  0
  2 40  1  0
  7 41  1  0
  8 42  1  0
  9 43  1  0
 10 44  1  0
 11 45  1  0
 12 46  1  0
 13 47  1  0
 13 48  1  0
 14 49  1  0
 14 50  1  0
 18 51  1  1
 19 52  1  0
 19 53  1  0
 20 54  1  1
 22 55  1  0
 23 56  1  0
 24 57  1  0
 25 58  1  0
 27 59  1  1
 29 60  1  0
 30 61  1  0
 31 62  1  0
 32 63  1  0
 33 64  1  0
 34 65  1  0
 34 66  1  0
 35 67  1  0
 35 68  1  0
M  END
>  <smiles>  (157) 
CCC(=O)N(c1ccccc1)C1CCN(C(=O)[C@@H](N)C2c3ccccc3C2c2ccccc2)CC1

>  <score_type>  (157) 
oracle

>  <origin>  (157) 
autodockgpu

>  <m_score__min__energy>  (157) 
-9.6500000000000004

>  <m_primary>  (157) 
energy

>  <rmsd>  (157) 
7.086382845732495

>  <m_score__min__rmsd>  (157) 
7.086382845732495

>  <meeko>  (157) 
{"free_energy": -7.03, "intermolecular_energy": -9.42, "internal_energy": -4.35, "cluster_size": 30, "cluster_id": 2, "rank_in_cluster": 9}

>  <energy>  (157) 
-8.61

>  <cluster_rmsd>  (157) 
1.76

>  <cluster>  (157) 
1

$$$$

     RDKit          3D

 68 72  0  0  0  0  0  0  0  0999 V2000
  145.5600   74.1340  220.8510 C   0  0  0  0  0  0  0  0  0  0  0  0
  145.7780   72.6330  220.8360 C   0  0  0  0  0  0  0  0  0  0  0  0
  145.2430   72.0720  219.5620 C   0  0  0  0  0  0  0  0  0  0  0  0
  145.7990   72.5170  218.5020 O   0  0  0  0  0  0  0  0  0  0  0  0
  144.1930   71.1120  219.5200 N   0  0  0  0  0  0  0  0  0  0  0  0
  144.5540   69.7480  219.3580 C   0  0  0  0  0  0  0  0  0  0  0  0
  143.6910   68.6950  219.5720 C   0  0  0  0  0  0  0  0  0  0  0  0
  144.1430   67.3850  219.3860 C   0  0  0  0  0  0  0  0  0  0  0  0
  145.4430   67.1120  218.9920 C   0  0  0  0  0  0  0  0  0  0  0  0
  146.3120   68.1720  218.7770 C   0  0  0  0  0  0  0  0  0  0  0  0
  145.8380   69.4470  218.9670 C   0  0  0  0  0  0  0  0  0  0  0  0
  142.8470   71.5850  219.6520 C   0  0  0  0  0  0  0  0  0  0  0  0
  142.4950   72.7710  218.8320 C   0  0  0  0  0  0  0  0  0  0  0  0
  142.6050   74.1000  219.6200 C   0  0  0  0  0  0  0  0  0  0  0  0
  141.6430   74.0850  220.6830 N   0  0  0  0  0  0  0  0  0  0  0  0
  141.0050   75.1220  221.3470 C   0  0  0  0  0  0  0  0  0  0  0  0
  140.1780   74.7390  222.2970 O   0  0  0  0  0  0  0  0  0  0  0  0
  141.0680   76.5700  221.2070 C   0  0  1  0  0  0  0  0  0  0  0  0
  142.2520   76.8440  220.3640 N   0  0  0  0  0  0  0  0  0  0  0  0
  139.8850   77.3370  220.7880 C   0  0  1  0  0  0  0  0  0  0  0  0
  138.6390   77.1560  221.5250 C   0  0  0  0  0  0  0  0  0  0  0  0
  137.6200   76.3270  221.9900 C   0  0  0  0  0  0  0  0  0  0  0  0
  136.5860   76.8470  222.7180 C   0  0  0  0  0  0  0  0  0  0  0  0
  136.4790   78.1870  223.0370 C   0  0  0  0  0  0  0  0  0  0  0  0
  137.4960   79.0240  222.5750 C   0  0  0  0  0  0  0  0  0  0  0  0
  138.5290   78.4860  221.8440 C   0  0  0  0  0  0  0  0  0  0  0  0
  139.8130   78.7780  221.1370 C   0  0  1  0  0  0  0  0  0  0  0  0
  140.8000   79.3880  222.0240 C   0  0  0  0  0  0  0  0  0  0  0  0
  141.5900   80.4750  221.7190 C   0  0  0  0  0  0  0  0  0  0  0  0
  142.5010   81.0060  222.6090 C   0  0  0  0  0  0  0  0  0  0  0  0
  142.6500   80.4460  223.8650 C   0  0  0  0  0  0  0  0  0  0  0  0
  141.8730   79.3550  224.2050 C   0  0  0  0  0  0  0  0  0  0  0  0
  140.9730   78.8450  223.2990 C   0  0  0  0  0  0  0  0  0  0  0  0
  141.3020   72.6970  221.1400 C   0  0  0  0  0  0  0  0  0  0  0  0
  142.6350   71.9750  221.1170 C   0  0  0  0  0  0  0  0  0  0  0  0
  145.5088   74.4867  221.8917 H   0  0  0  0  0  0  0  0  0  0  0  0
  146.3954   74.6310  220.3361 H   0  0  0  0  0  0  0  0  0  0  0  0
  144.6177   74.3728  220.3361 H   0  0  0  0  0  0  0  0  0  0  0  0
  146.8540   72.4168  220.9099 H   0  0  0  0  0  0  0  0  0  0  0  0
  145.2558   72.1754  221.6892 H   0  0  0  0  0  0  0  0  0  0  0  0
  142.6541   68.8838  219.8869 H   0  0  0  0  0  0  0  0  0  0  0  0
  143.4484   66.5493  219.5569 H   0  0  0  0  0  0  0  0  0  0  0  0
  145.7798   66.0742  218.8523 H   0  0  0  0  0  0  0  0  0  0  0  0
  147.3515   67.9962  218.4631 H   0  0  0  0  0  0  0  0  0  0  0  0
  146.5315   70.2833  218.7950 H   0  0  0  0  0  0  0  0  0  0  0  0
  142.2071   70.7636  219.2974 H   0  0  0  0  0  0  0  0  0  0  0  0
  143.1761   72.8165  217.9694 H   0  0  0  0  0  0  0  0  0  0  0  0
  141.4466   72.6576  218.5188 H   0  0  0  0  0  0  0  0  0  0  0  0
  143.6174   74.1996  220.0384 H   0  0  0  0  0  0  0  0  0  0  0  0
  142.4100   74.9503  218.9499 H   0  0  0  0  0  0  0  0  0  0  0  0
  141.1317   76.9594  222.2338 H   0  0  0  0  0  0  0  0  0  0  0  0
  142.4770   77.8590  220.4150 H   0  0  0  0  0  0  0  0  0  0  0  0
  143.0300   76.2060  220.5450 H   0  0  0  0  0  0  0  0  0  0  0  0
  139.9851   77.0058  219.7438 H   0  0  0  0  0  0  0  0  0  0  0  0
  137.6476   75.2495  221.7704 H   0  0  0  0  0  0  0  0  0  0  0  0
  135.7986   76.1631  223.0678 H   0  0  0  0  0  0  0  0  0  0  0  0
  135.6346   78.5749  223.6256 H   0  0  0  0  0  0  0  0  0  0  0  0
  137.4714   80.1019  222.7932 H   0  0  0  0  0  0  0  0  0  0  0  0
  139.9434   79.5021  220.3193 H   0  0  0  0  0  0  0  0  0  0  0  0
  141.4904   80.9380  220.7262 H   0  0  0  0  0  0  0  0  0  0  0  0
  143.1094   81.8755  222.3194 H   0  0  0  0  0  0  0  0  0  0  0  0
  143.3744   80.8619  224.5807 H   0  0  0  0  0  0  0  0  0  0  0  0
  141.9743   78.8951  225.1991 H   0  0  0  0  0  0  0  0  0  0  0  0
  140.3656   77.9753  223.5899 H   0  0  0  0  0  0  0  0  0  0  0  0
  140.8805   72.7107  222.1560 H   0  0  0  0  0  0  0  0  0  0  0  0
  140.5436   72.2134  220.5068 H   0  0  0  0  0  0  0  0  0  0  0  0
  143.4411   72.6398  221.4610 H   0  0  0  0  0  0  0  0  0  0  0  0
  142.6434   71.1000  221.7836 H   0  0  0  0  0  0  0  0  0  0  0  0
  1  2  1  0
  2  3  1  0
  3  4  2  0
  3  5  1  0
  5  6  1  0
  6  7  2  0
  7  8  1  0
  8  9  2  0
  9 10  1  0
 10 11  2  0
  5 12  1  0
 12 13  1  0
 13 14  1  0
 14 15  1  0
 15 16  1  0
 16 17  2  0
 16 18  1  0
 18 19  1  0
 18 20  1  0
 20 21  1  0
 21 22  2  0
 22 23  1  0
 23 24  2  0
 24 25  1  0
 25 26  2  0
 26 27  1  0
 27 28  1  0
 28 29  2  0
 29 30  1  0
 30 31  2  0
 31 32  1  0
 32 33  2  0
 15 34  1  0
 34 35  1  0
 11  6  1  0
 35 12  1  0
 27 20  1  0
 33 28  1  0
 26 21  1  0
  1 36  1  0
  1 37  1  0
  1 38  1  0
  2 39  1  0
  2 40  1  0
  7 41  1  0
  8 42  1  0
  9 43  1  0
 10 44  1  0
 11 45  1  0
 12 46  1  0
 13 47  1  0
 13 48  1  0
 14 49  1  0
 14 50  1  0
 18 51  1  1
 19 52  1  0
 19 53  1  0
 20 54  1  6
 22 55  1  0
 23 56  1  0
 24 57  1  0
 25 58  1  0
 27 59  1  6
 29 60  1  0
 30 61  1  0
 31 62  1  0
 32 63  1  0
 33 64  1  0
 34 65  1  0
 34 66  1  0
 35 67  1  0
 35 68  1  0
M  END
>  <smiles>  (158) 
CCC(=O)N(c1ccccc1)C1CCN(C(=O)[C@@H](N)C2c3ccccc3C2c2ccccc2)CC1

>  <score_type>  (158) 
oracle

>  <origin>  (158) 
autodockgpu

>  <m_score__min__energy>  (158) 
-9.6500000000000004

>  <m_primary>  (158) 
energy

>  <rmsd>  (158) 
8.352416262368822

>  <m_score__min__rmsd>  (158) 
8.352416262368822

>  <meeko>  (158) 
{"free_energy": -9.32, "intermolecular_energy": -11.7, "internal_energy": -2.21, "cluster_size": 9, "cluster_id": 1, "rank_in_cluster": 6}

>  <energy>  (158) 
-8.6

>  <cluster_rmsd>  (158) 
1.82

>  <cluster>  (158) 
1

$$$$

     RDKit          3D

 68 72  0  0  0  0  0  0  0  0999 V2000
  146.3490   73.0380  221.5290 C   0  0  0  0  0  0  0  0  0  0  0  0
  145.2140   73.4940  220.6310 C   0  0  0  0  0  0  0  0  0  0  0  0
  145.0700   72.5360  219.4970 C   0  0  0  0  0  0  0  0  0  0  0  0
  145.9100   72.6910  218.5490 O   0  0  0  0  0  0  0  0  0  0  0  0
  144.0720   71.5210  219.4670 N   0  0  0  0  0  0  0  0  0  0  0  0
  144.5080   70.1710  219.3970 C   0  0  0  0  0  0  0  0  0  0  0  0
  143.7110   69.0900  219.7050 C   0  0  0  0  0  0  0  0  0  0  0  0
  144.2340   67.7980  219.6060 C   0  0  0  0  0  0  0  0  0  0  0  0
  145.5400   67.5690  219.2040 C   0  0  0  0  0  0  0  0  0  0  0  0
  146.3430   68.6580  218.8940 C   0  0  0  0  0  0  0  0  0  0  0  0
  145.8000   69.9150  219.0000 C   0  0  0  0  0  0  0  0  0  0  0  0
  142.6990   71.9290  219.5160 C   0  0  0  0  0  0  0  0  0  0  0  0
  142.3900   73.2380  218.8880 C   0  0  0  0  0  0  0  0  0  0  0  0
  142.3460   74.3990  219.9120 C   0  0  0  0  0  0  0  0  0  0  0  0
  141.2690   74.1640  220.8280 N   0  0  0  0  0  0  0  0  0  0  0  0
  140.5110   75.0450  221.5860 C   0  0  0  0  0  0  0  0  0  0  0  0
  139.5980   74.4720  222.3420 O   0  0  0  0  0  0  0  0  0  0  0  0
  140.5240   76.4950  221.7190 C   0  0  1  0  0  0  0  0  0  0  0  0
  141.8190   76.9420  221.1660 N   0  0  0  0  0  0  0  0  0  0  0  0
  139.3930   77.3030  221.2370 C   0  0  1  0  0  0  0  0  0  0  0  0
  138.1530   77.2980  222.0060 C   0  0  0  0  0  0  0  0  0  0  0  0
  137.0840   76.6040  222.5700 C   0  0  0  0  0  0  0  0  0  0  0  0
  136.1090   77.2760  223.2540 C   0  0  0  0  0  0  0  0  0  0  0  0
  136.1110   78.6470  223.4300 C   0  0  0  0  0  0  0  0  0  0  0  0
  137.1790   79.3480  222.8680 C   0  0  0  0  0  0  0  0  0  0  0  0
  138.1520   78.6580  222.1840 C   0  0  0  0  0  0  0  0  0  0  0  0
  139.4390   78.7740  221.4330 C   0  0  1  0  0  0  0  0  0  0  0  0
  140.4880   79.3950  222.2370 C   0  0  0  0  0  0  0  0  0  0  0  0
  140.8660   79.0060  223.5030 C   0  0  0  0  0  0  0  0  0  0  0  0
  141.8730   79.6350  224.2060 C   0  0  0  0  0  0  0  0  0  0  0  0
  142.5490   80.7020  223.6420 C   0  0  0  0  0  0  0  0  0  0  0  0
  142.1980   81.1180  222.3720 C   0  0  0  0  0  0  0  0  0  0  0  0
  141.1900   80.4750  221.6950 C   0  0  0  0  0  0  0  0  0  0  0  0
  140.9420   72.7080  220.9800 C   0  0  0  0  0  0  0  0  0  0  0  0
  142.3010   72.0340  220.9900 C   0  0  0  0  0  0  0  0  0  0  0  0
  146.0537   73.1566  222.5820 H   0  0  0  0  0  0  0  0  0  0  0  0
  146.5732   71.9800  221.3280 H   0  0  0  0  0  0  0  0  0  0  0  0
  147.2428   73.6468  221.3280 H   0  0  0  0  0  0  0  0  0  0  0  0
  144.2780   73.5244  221.2080 H   0  0  0  0  0  0  0  0  0  0  0  0
  145.4330   74.4987  220.2402 H   0  0  0  0  0  0  0  0  0  0  0  0
  142.6702   69.2430  220.0266 H   0  0  0  0  0  0  0  0  0  0  0  0
  143.5918   66.9400  219.8538 H   0  0  0  0  0  0  0  0  0  0  0  0
  145.9329   66.5441  219.1319 H   0  0  0  0  0  0  0  0  0  0  0  0
  147.3856   68.5180  218.5723 H   0  0  0  0  0  0  0  0  0  0  0  0
  146.4406   70.7739  218.7510 H   0  0  0  0  0  0  0  0  0  0  0  0
  142.1430   71.1732  218.9418 H   0  0  0  0  0  0  0  0  0  0  0  0
  143.1639   73.4596  218.1383 H   0  0  0  0  0  0  0  0  0  0  0  0
  141.3917   73.1597  218.4328 H   0  0  0  0  0  0  0  0  0  0  0  0
  143.2972   74.4430  220.4627 H   0  0  0  0  0  0  0  0  0  0  0  0
  142.1911   75.3541  219.3889 H   0  0  0  0  0  0  0  0  0  0  0  0
  140.3901   76.6900  222.7933 H   0  0  0  0  0  0  0  0  0  0  0  0
  142.1260   77.7990  221.6700 H   0  0  0  0  0  0  0  0  0  0  0  0
  142.5110   76.1900  221.1040 H   0  0  0  0  0  0  0  0  0  0  0  0
  139.4440   76.8571  220.2327 H   0  0  0  0  0  0  0  0  0  0  0  0
  137.0243   75.5107  222.4645 H   0  0  0  0  0  0  0  0  0  0  0  0
  135.2806   76.6957  223.6863 H   0  0  0  0  0  0  0  0  0  0  0  0
  135.3114   79.1596  223.9849 H   0  0  0  0  0  0  0  0  0  0  0  0
  137.2417   80.4414  222.9712 H   0  0  0  0  0  0  0  0  0  0  0  0
  139.6071   79.3964  220.5417 H   0  0  0  0  0  0  0  0  0  0  0  0
  140.3439   78.1594  223.9728 H   0  0  0  0  0  0  0  0  0  0  0  0
  142.1384   79.2878  225.2155 H   0  0  0  0  0  0  0  0  0  0  0  0
  143.3523   81.2106  224.1952 H   0  0  0  0  0  0  0  0  0  0  0  0
  142.7247   81.9626  221.9037 H   0  0  0  0  0  0  0  0  0  0  0  0
  140.9250   80.8243  220.6861 H   0  0  0  0  0  0  0  0  0  0  0  0
  140.4052   72.5227  221.9221 H   0  0  0  0  0  0  0  0  0  0  0  0
  140.2856   72.3326  220.1811 H   0  0  0  0  0  0  0  0  0  0  0  0
  143.0304   72.6418  221.5455 H   0  0  0  0  0  0  0  0  0  0  0  0
  142.2721   71.0507  221.4823 H   0  0  0  0  0  0  0  0  0  0  0  0
  1  2  1  0
  2  3  1  0
  3  4  2  0
  3  5  1  0
  5  6  1  0
  6  7  2  0
  7  8  1  0
  8  9  2  0
  9 10  1  0
 10 11  2  0
  5 12  1  0
 12 13  1  0
 13 14  1  0
 14 15  1  0
 15 16  1  0
 16 17  2  0
 16 18  1  0
 18 19  1  0
 18 20  1  0
 20 21  1  0
 21 22  2  0
 22 23  1  0
 23 24  2  0
 24 25  1  0
 25 26  2  0
 26 27  1  0
 27 28  1  0
 28 29  2  0
 29 30  1  0
 30 31  2  0
 31 32  1  0
 32 33  2  0
 15 34  1  0
 34 35  1  0
 11  6  1  0
 35 12  1  0
 27 20  1  0
 33 28  1  0
 26 21  1  0
  1 36  1  0
  1 37  1  0
  1 38  1  0
  2 39  1  0
  2 40  1  0
  7 41  1  0
  8 42  1  0
  9 43  1  0
 10 44  1  0
 11 45  1  0
 12 46  1  0
 13 47  1  0
 13 48  1  0
 14 49  1  0
 14 50  1  0
 18 51  1  1
 19 52  1  0
 19 53  1  0
 20 54  1  6
 22 55  1  0
 23 56  1  0
 24 57  1  0
 25 58  1  0
 27 59  1  6
 29 60  1  0
 30 61  1  0
 31 62  1  0
 32 63  1  0
 33 64  1  0
 34 65  1  0
 34 66  1  0
 35 67  1  0
 35 68  1  0
M  END
>  <smiles>  (159) 
CCC(=O)N(c1ccccc1)C1CCN(C(=O)[C@@H](N)C2c3ccccc3C2c2ccccc2)CC1

>  <score_type>  (159) 
oracle

>  <origin>  (159) 
autodockgpu

>  <m_score__min__energy>  (159) 
-9.6500000000000004

>  <m_primary>  (159) 
energy

>  <rmsd>  (159) 
8.327605650745305

>  <m_score__min__rmsd>  (159) 
8.327605650745305

>  <meeko>  (159) 
{"free_energy": -9.65, "intermolecular_energy": -12.03, "internal_energy": -1.9, "cluster_size": 9, "cluster_id": 1, "rank_in_cluster": 1}

>  <energy>  (159) 
-7.92

>  <cluster_rmsd>  (159) 
1.78

>  <cluster>  (159) 
1

$$$$

     RDKit          3D

 68 72  0  0  0  0  0  0  0  0999 V2000
  135.3490   80.0700  224.2310 C   0  0  0  0  0  0  0  0  0  0  0  0
  136.4130   80.7640  223.4010 C   0  0  0  0  0  0  0  0  0  0  0  0
  137.7580   80.2810  223.8260 C   0  0  0  0  0  0  0  0  0  0  0  0
  138.0810   80.5720  225.0270 O   0  0  0  0  0  0  0  0  0  0  0  0
  138.6250   79.5500  222.9650 N   0  0  0  0  0  0  0  0  0  0  0  0
  140.0120   79.8460  223.0210 C   0  0  0  0  0  0  0  0  0  0  0  0
  140.5500   81.0700  222.6860 C   0  0  0  0  0  0  0  0  0  0  0  0
  141.9320   81.2620  222.7730 C   0  0  0  0  0  0  0  0  0  0  0  0
  142.7840   80.2520  223.1880 C   0  0  0  0  0  0  0  0  0  0  0  0
  142.2420   79.0190  223.5250 C   0  0  0  0  0  0  0  0  0  0  0  0
  140.8810   78.8620  223.4300 C   0  0  0  0  0  0  0  0  0  0  0  0
  138.0390   78.5610  222.1080 C   0  0  0  0  0  0  0  0  0  0  0  0
  138.1510   77.1550  222.5720 C   0  0  0  0  0  0  0  0  0  0  0  0
  139.3480   76.4070  221.9350 C   0  0  0  0  0  0  0  0  0  0  0  0
  139.1330   76.3150  220.5200 N   0  0  0  0  0  0  0  0  0  0  0  0
  139.5930   75.3970  219.5880 C   0  0  0  0  0  0  0  0  0  0  0  0
  139.2040   75.6290  218.3520 O   0  0  0  0  0  0  0  0  0  0  0  0
  140.4330   74.2130  219.7010 C   0  0  1  0  0  0  0  0  0  0  0  0
  140.9380   73.9430  218.3380 N   0  0  0  0  0  0  0  0  0  0  0  0
  141.4900   74.1370  220.7210 C   0  0  1  0  0  0  0  0  0  0  0  0
  142.6310   73.2600  220.4790 C   0  0  0  0  0  0  0  0  0  0  0  0
  143.1460   71.9910  220.2180 C   0  0  0  0  0  0  0  0  0  0  0  0
  144.4960   71.8060  220.0970 C   0  0  0  0  0  0  0  0  0  0  0  0
  145.4170   72.8280  220.2190 C   0  0  0  0  0  0  0  0  0  0  0  0
  144.9090   74.1020  220.4810 C   0  0  0  0  0  0  0  0  0  0  0  0
  143.5500   74.2720  220.6000 C   0  0  0  0  0  0  0  0  0  0  0  0
  142.4530   75.2610  220.8310 C   0  0  1  0  0  0  0  0  0  0  0  0
  142.4700   76.3370  219.8440 C   0  0  0  0  0  0  0  0  0  0  0  0
  142.9510   76.2400  218.5580 C   0  0  0  0  0  0  0  0  0  0  0  0
  142.9310   77.2990  217.6720 C   0  0  0  0  0  0  0  0  0  0  0  0
  142.4120   78.5200  218.0640 C   0  0  0  0  0  0  0  0  0  0  0  0
  141.9200   78.6530  219.3490 C   0  0  0  0  0  0  0  0  0  0  0  0
  141.9530   77.5830  220.2100 C   0  0  0  0  0  0  0  0  0  0  0  0
  138.2720   77.4240  219.9900 C   0  0  0  0  0  0  0  0  0  0  0  0
  138.7480   78.6440  220.7550 C   0  0  0  0  0  0  0  0  0  0  0  0
  135.5670   80.2122  225.2998 H   0  0  0  0  0  0  0  0  0  0  0  0
  134.3637   80.4996  223.9975 H   0  0  0  0  0  0  0  0  0  0  0  0
  135.3450   78.9951  223.9975 H   0  0  0  0  0  0  0  0  0  0  0  0
  136.2584   80.5329  222.3367 H   0  0  0  0  0  0  0  0  0  0  0  0
  136.3468   81.8519  223.5497 H   0  0  0  0  0  0  0  0  0  0  0  0
  139.8967   81.8898  222.3526 H   0  0  0  0  0  0  0  0  0  0  0  0
  142.3541   82.2417  222.5046 H   0  0  0  0  0  0  0  0  0  0  0  0
  143.8688   80.4234  223.2494 H   0  0  0  0  0  0  0  0  0  0  0  0
  142.8847   78.1910  223.8587 H   0  0  0  0  0  0  0  0  0  0  0  0
  140.4575   77.8831  223.6992 H   0  0  0  0  0  0  0  0  0  0  0  0
  136.9638   78.7912  222.0788 H   0  0  0  0  0  0  0  0  0  0  0  0
  138.2773   77.1544  223.6647 H   0  0  0  0  0  0  0  0  0  0  0  0
  137.2329   76.6313  222.2674 H   0  0  0  0  0  0  0  0  0  0  0  0
  140.2778   76.9604  222.1328 H   0  0  0  0  0  0  0  0  0  0  0  0
  139.4328   75.3991  222.3673 H   0  0  0  0  0  0  0  0  0  0  0  0
  139.7797   73.4306  220.1147 H   0  0  0  0  0  0  0  0  0  0  0  0
  140.3010   73.2680  217.8670 H   0  0  0  0  0  0  0  0  0  0  0  0
  141.1510   74.7950  217.8120 H   0  0  0  0  0  0  0  0  0  0  0  0
  140.7649   73.9252  221.5206 H   0  0  0  0  0  0  0  0  0  0  0  0
  142.4639   71.1349  220.1089 H   0  0  0  0  0  0  0  0  0  0  0  0
  144.8672   70.7910  219.8920 H   0  0  0  0  0  0  0  0  0  0  0  0
  146.4971   72.6473  220.1149 H   0  0  0  0  0  0  0  0  0  0  0  0
  145.5886   74.9600  220.5910 H   0  0  0  0  0  0  0  0  0  0  0  0
  142.3595   75.9208  221.7061 H   0  0  0  0  0  0  0  0  0  0  0  0
  143.3685   75.2793  218.2222 H   0  0  0  0  0  0  0  0  0  0  0  0
  143.3279   77.1717  216.6540 H   0  0  0  0  0  0  0  0  0  0  0  0
  142.3912   79.3697  217.3657 H   0  0  0  0  0  0  0  0  0  0  0  0
  141.5024   79.6147  219.6818 H   0  0  0  0  0  0  0  0  0  0  0  0
  141.5568   77.7120  221.2280 H   0  0  0  0  0  0  0  0  0  0  0  0
  138.4230   77.5554  218.9084 H   0  0  0  0  0  0  0  0  0  0  0  0
  137.1973   77.2301  220.1218 H   0  0  0  0  0  0  0  0  0  0  0  0
  139.8396   78.6161  220.8877 H   0  0  0  0  0  0  0  0  0  0  0  0
  138.5202   79.5804  220.2247 H   0  0  0  0  0  0  0  0  0  0  0  0
  1  2  1  0
  2  3  1  0
  3  4  2  0
  3  5  1  0
  5  6  1  0
  6  7  2  0
  7  8  1  0
  8  9  2  0
  9 10  1  0
 10 11  2  0
  5 12  1  0
 12 13  1  0
 13 14  1  0
 14 15  1  0
 15 16  1  0
 16 17  2  0
 16 18  1  0
 18 19  1  0
 18 20  1  0
 20 21  1  0
 21 22  2  0
 22 23  1  0
 23 24  2  0
 24 25  1  0
 25 26  2  0
 26 27  1  0
 27 28  1  0
 28 29  2  0
 29 30  1  0
 30 31  2  0
 31 32  1  0
 32 33  2  0
 15 34  1  0
 34 35  1  0
 11  6  1  0
 35 12  1  0
 27 20  1  0
 33 28  1  0
 26 21  1  0
  1 36  1  0
  1 37  1  0
  1 38  1  0
  2 39  1  0
  2 40  1  0
  7 41  1  0
  8 42  1  0
  9 43  1  0
 10 44  1  0
 11 45  1  0
 12 46  1  0
 13 47  1  0
 13 48  1  0
 14 49  1  0
 14 50  1  0
 18 51  1  1
 19 52  1  0
 19 53  1  0
 20 54  1  1
 22 55  1  0
 23 56  1  0
 24 57  1  0
 25 58  1  0
 27 59  1  1
 29 60  1  0
 30 61  1  0
 31 62  1  0
 32 63  1  0
 33 64  1  0
 34 65  1  0
 34 66  1  0
 35 67  1  0
 35 68  1  0
M  END
>  <smiles>  (160) 
CCC(=O)N(c1ccccc1)C1CCN(C(=O)[C@@H](N)C2c3ccccc3C2c2ccccc2)CC1

>  <score_type>  (160) 
oracle

>  <origin>  (160) 
autodockgpu

>  <m_score__min__energy>  (160) 
-9.6500000000000004

>  <m_primary>  (160) 
energy

>  <rmsd>  (160) 
7.028100773158402

>  <m_score__min__rmsd>  (160) 
7.028100773158402

>  <meeko>  (160) 
{"free_energy": -6.9, "intermolecular_energy": -9.29, "internal_energy": -4.41, "cluster_size": 30, "cluster_id": 2, "rank_in_cluster": 27}

>  <energy>  (160) 
-7.06

>  <cluster_rmsd>  (160) 
0.0

>  <cluster>  (160) 
2

$$$$

     RDKit          3D

 68 72  0  0  0  0  0  0  0  0999 V2000
  136.8250   81.3040  225.6100 C   0  0  0  0  0  0  0  0  0  0  0  0
  138.0800   80.8880  224.8650 C   0  0  0  0  0  0  0  0  0  0  0  0
  137.6950   80.1940  223.6030 C   0  0  0  0  0  0  0  0  0  0  0  0
  136.4780   80.3520  223.2500 O   0  0  0  0  0  0  0  0  0  0  0  0
  138.6080   79.4110  222.8420 N   0  0  0  0  0  0  0  0  0  0  0  0
  139.9940   79.6680  223.0100 C   0  0  0  0  0  0  0  0  0  0  0  0
  140.8990   78.7330  223.4630 C   0  0  0  0  0  0  0  0  0  0  0  0
  142.2460   79.0840  223.5960 C   0  0  0  0  0  0  0  0  0  0  0  0
  142.7010   80.3550  223.2830 C   0  0  0  0  0  0  0  0  0  0  0  0
  141.7900   81.2970  222.8270 C   0  0  0  0  0  0  0  0  0  0  0  0
  140.4750   80.9210  222.7070 C   0  0  0  0  0  0  0  0  0  0  0  0
  138.0680   78.4140  221.9660 C   0  0  0  0  0  0  0  0  0  0  0  0
  138.1760   77.0100  222.4380 C   0  0  0  0  0  0  0  0  0  0  0  0
  139.4050   76.2730  221.8500 C   0  0  0  0  0  0  0  0  0  0  0  0
  139.2460   76.1750  220.4290 N   0  0  0  0  0  0  0  0  0  0  0  0
  139.7520   75.2590  219.5180 C   0  0  0  0  0  0  0  0  0  0  0  0
  139.4100   75.4840  218.2670 O   0  0  0  0  0  0  0  0  0  0  0  0
  140.6000   74.0850  219.6680 C   0  0  1  0  0  0  0  0  0  0  0  0
  141.1100   73.7790  218.3140 N   0  0  0  0  0  0  0  0  0  0  0  0
  141.6550   74.0460  220.6920 C   0  0  1  0  0  0  0  0  0  0  0  0
  142.8310   73.2170  220.4500 C   0  0  0  0  0  0  0  0  0  0  0  0
  143.3980   71.9720  220.1840 C   0  0  0  0  0  0  0  0  0  0  0  0
  144.7550   71.8420  220.0680 C   0  0  0  0  0  0  0  0  0  0  0  0
  145.6340   72.9000  220.2010 C   0  0  0  0  0  0  0  0  0  0  0  0
  145.0730   74.1500  220.4670 C   0  0  0  0  0  0  0  0  0  0  0  0
  143.7080   74.2640  220.5810 C   0  0  0  0  0  0  0  0  0  0  0  0
  142.5710   75.2070  220.8130 C   0  0  1  0  0  0  0  0  0  0  0  0
  142.5480   76.2890  219.8320 C   0  0  0  0  0  0  0  0  0  0  0  0
  143.0010   76.2060  218.5340 C   0  0  0  0  0  0  0  0  0  0  0  0
  142.9440   77.2690  217.6550 C   0  0  0  0  0  0  0  0  0  0  0  0
  142.4160   78.4800  218.0670 C   0  0  0  0  0  0  0  0  0  0  0  0
  141.9510   78.5990  219.3630 C   0  0  0  0  0  0  0  0  0  0  0  0
  142.0210   77.5240  220.2170 C   0  0  0  0  0  0  0  0  0  0  0  0
  138.3960   77.2730  219.8620 C   0  0  0  0  0  0  0  0  0  0  0  0
  138.8280   78.5010  220.6410 C   0  0  0  0  0  0  0  0  0  0  0  0
  137.0050   81.2443  226.6935 H   0  0  0  0  0  0  0  0  0  0  0  0
  136.5627   82.3371  225.3382 H   0  0  0  0  0  0  0  0  0  0  0  0
  135.9976   80.6321  225.3382 H   0  0  0  0  0  0  0  0  0  0  0  0
  138.6786   81.7795  224.6265 H   0  0  0  0  0  0  0  0  0  0  0  0
  138.6741   80.2083  225.4935 H   0  0  0  0  0  0  0  0  0  0  0  0
  140.5640   77.7169  223.7184 H   0  0  0  0  0  0  0  0  0  0  0  0
  142.9626   78.3322  223.9582 H   0  0  0  0  0  0  0  0  0  0  0  0
  143.7647   80.6123  223.3940 H   0  0  0  0  0  0  0  0  0  0  0  0
  142.1123   82.3165  222.5688 H   0  0  0  0  0  0  0  0  0  0  0  0
  139.7578   81.6720  222.3442 H   0  0  0  0  0  0  0  0  0  0  0  0
  136.9924   78.6330  221.8942 H   0  0  0  0  0  0  0  0  0  0  0  0
  138.2595   77.0132  223.5348 H   0  0  0  0  0  0  0  0  0  0  0  0
  137.2758   76.4761  222.0993 H   0  0  0  0  0  0  0  0  0  0  0  0
  140.3205   76.8369  222.0819 H   0  0  0  0  0  0  0  0  0  0  0  0
  139.4838   75.2672  222.2884 H   0  0  0  0  0  0  0  0  0  0  0  0
  139.9515   73.3106  220.1037 H   0  0  0  0  0  0  0  0  0  0  0  0
  140.3060   73.5640  217.6890 H   0  0  0  0  0  0  0  0  0  0  0  0
  141.7710   74.4770  217.9660 H   0  0  0  0  0  0  0  0  0  0  0  0
  140.9357   73.8007  221.4872 H   0  0  0  0  0  0  0  0  0  0  0  0
  142.7515   71.0898  220.0668 H   0  0  0  0  0  0  0  0  0  0  0  0
  145.1675   70.8441  219.8581 H   0  0  0  0  0  0  0  0  0  0  0  0
  146.7211   72.7639  220.1022 H   0  0  0  0  0  0  0  0  0  0  0  0
  145.7164   75.0345  220.5841 H   0  0  0  0  0  0  0  0  0  0  0  0
  142.4479   75.8574  221.6916 H   0  0  0  0  0  0  0  0  0  0  0  0
  143.4256   75.2538  218.1834 H   0  0  0  0  0  0  0  0  0  0  0  0
  143.3183   77.1534  216.6271 H   0  0  0  0  0  0  0  0  0  0  0  0
  142.3672   79.3334  217.3747 H   0  0  0  0  0  0  0  0  0  0  0  0
  141.5257   79.5521  219.7105 H   0  0  0  0  0  0  0  0  0  0  0  0
  141.6470   77.6411  221.2448 H   0  0  0  0  0  0  0  0  0  0  0  0
  138.5887   77.4027  218.7868 H   0  0  0  0  0  0  0  0  0  0  0  0
  137.3190   77.0681  219.9521 H   0  0  0  0  0  0  0  0  0  0  0  0
  139.9139   78.4861  220.8160 H   0  0  0  0  0  0  0  0  0  0  0  0
  138.6101   79.4331  220.0990 H   0  0  0  0  0  0  0  0  0  0  0  0
  1  2  1  0
  2  3  1  0
  3  4  2  0
  3  5  1  0
  5  6  1  0
  6  7  2  0
  7  8  1  0
  8  9  2  0
  9 10  1  0
 10 11  2  0
  5 12  1  0
 12 13  1  0
 13 14  1  0
 14 15  1  0
 15 16  1  0
 16 17  2  0
 16 18  1  0
 18 19  1  0
 18 20  1  0
 20 21  1  0
 21 22  2  0
 22 23  1  0
 23 24  2  0
 24 25  1  0
 25 26  2  0
 26 27  1  0
 27 28  1  0
 28 29  2  0
 29 30  1  0
 30 31  2  0
 31 32  1  0
 32 33  2  0
 15 34  1  0
 34 35  1  0
 11  6  1  0
 35 12  1  0
 27 20  1  0
 33 28  1  0
 26 21  1  0
  1 36  1  0
  1 37  1  0
  1 38  1  0
  2 39  1  0
  2 40  1  0
  7 41  1  0
  8 42  1  0
  9 43  1  0
 10 44  1  0
 11 45  1  0
 12 46  1  0
 13 47  1  0
 13 48  1  0
 14 49  1  0
 14 50  1  0
 18 51  1  1
 19 52  1  0
 19 53  1  0
 20 54  1  1
 22 55  1  0
 23 56  1  0
 24 57  1  0
 25 58  1  0
 27 59  1  1
 29 60  1  0
 30 61  1  0
 31 62  1  0
 32 63  1  0
 33 64  1  0
 34 65  1  0
 34 66  1  0
 35 67  1  0
 35 68  1  0
M  END
>  <smiles>  (161) 
CCC(=O)N(c1ccccc1)C1CCN(C(=O)[C@@H](N)C2c3ccccc3C2c2ccccc2)CC1

>  <score_type>  (161) 
oracle

>  <origin>  (161) 
autodockgpu

>  <m_score__min__energy>  (161) 
-9.6500000000000004

>  <m_primary>  (161) 
energy

>  <rmsd>  (161) 
7.071051684037453

>  <m_score__min__rmsd>  (161) 
7.071051684037453

>  <meeko>  (161) 
{"free_energy": -7.02, "intermolecular_energy": -9.4, "internal_energy": -4.33, "cluster_size": 30, "cluster_id": 2, "rank_in_cluster": 17}

>  <energy>  (161) 
-7.05

>  <cluster_rmsd>  (161) 
0.78

>  <cluster>  (161) 
2

$$$$

     RDKit          3D

 68 72  0  0  0  0  0  0  0  0999 V2000
  144.0600   84.6810  217.0990 C   0  0  0  0  0  0  0  0  0  0  0  0
  143.7810   83.1900  217.0620 C   0  0  0  0  0  0  0  0  0  0  0  0
  142.3140   82.9690  216.9060 C   0  0  0  0  0  0  0  0  0  0  0  0
  141.7900   83.5280  215.8840 O   0  0  0  0  0  0  0  0  0  0  0  0
  141.5470   82.1950  217.8220 N   0  0  0  0  0  0  0  0  0  0  0  0
  140.8490   82.8870  218.8450 C   0  0  0  0  0  0  0  0  0  0  0  0
  139.7820   83.7280  218.6140 C   0  0  0  0  0  0  0  0  0  0  0  0
  139.1600   84.3660  219.6910 C   0  0  0  0  0  0  0  0  0  0  0  0
  139.5880   84.1770  220.9950 C   0  0  0  0  0  0  0  0  0  0  0  0
  140.6630   83.3310  221.2290 C   0  0  0  0  0  0  0  0  0  0  0  0
  141.2510   82.7180  220.1500 C   0  0  0  0  0  0  0  0  0  0  0  0
  141.5270   80.7730  217.6440 C   0  0  0  0  0  0  0  0  0  0  0  0
  140.3020   80.0790  218.1150 C   0  0  0  0  0  0  0  0  0  0  0  0
  140.4570   79.4870  219.5370 C   0  0  0  0  0  0  0  0  0  0  0  0
  141.4690   78.4720  219.5050 N   0  0  0  0  0  0  0  0  0  0  0  0
  141.6650   77.3580  220.3070 C   0  0  0  0  0  0  0  0  0  0  0  0
  142.7220   76.6380  219.9970 O   0  0  0  0  0  0  0  0  0  0  0  0
  140.9290   76.8170  221.4420 C   0  0  1  0  0  0  0  0  0  0  0  0
  141.3630   75.4100  221.5730 N   0  0  0  0  0  0  0  0  0  0  0  0
  140.9100   77.5250  222.7310 C   0  0  1  0  0  0  0  0  0  0  0  0
  141.7050   78.7410  222.8710 C   0  0  0  0  0  0  0  0  0  0  0  0
  142.9360   79.3920  222.8230 C   0  0  0  0  0  0  0  0  0  0  0  0
  143.0230   80.7260  223.1130 C   0  0  0  0  0  0  0  0  0  0  0  0
  141.9340   81.5000  223.4630 C   0  0  0  0  0  0  0  0  0  0  0  0
  140.6970   80.8550  223.5130 C   0  0  0  0  0  0  0  0  0  0  0  0
  140.6260   79.5140  223.2180 C   0  0  0  0  0  0  0  0  0  0  0  0
  139.7160   78.3370  223.0770 C   0  0  1  0  0  0  0  0  0  0  0  0
  138.6590   78.5760  222.0990 C   0  0  0  0  0  0  0  0  0  0  0  0
  137.9510   77.6030  221.4280 C   0  0  0  0  0  0  0  0  0  0  0  0
  136.9570   77.8990  220.5170 C   0  0  0  0  0  0  0  0  0  0  0  0
  136.6360   79.2170  220.2460 C   0  0  0  0  0  0  0  0  0  0  0  0
  137.3260   80.2200  220.9020 C   0  0  0  0  0  0  0  0  0  0  0  0
  138.3120   79.8960  221.8040 C   0  0  0  0  0  0  0  0  0  0  0  0
  142.4780   78.6910  218.4170 C   0  0  0  0  0  0  0  0  0  0  0  0
  142.7020   80.1910  218.4320 C   0  0  0  0  0  0  0  0  0  0  0  0
  144.1228   85.0164  218.1447 H   0  0  0  0  0  0  0  0  0  0  0  0
  145.0126   84.8885  216.5895 H   0  0  0  0  0  0  0  0  0  0  0  0
  143.2469   85.2189  216.5895 H   0  0  0  0  0  0  0  0  0  0  0  0
  144.3136   82.7371  216.2128 H   0  0  0  0  0  0  0  0  0  0  0  0
  144.1271   82.7260  217.9974 H   0  0  0  0  0  0  0  0  0  0  0  0
  139.4220   83.8962  217.5883 H   0  0  0  0  0  0  0  0  0  0  0  0
  138.3087   85.0354  219.4982 H   0  0  0  0  0  0  0  0  0  0  0  0
  139.0852   84.6879  221.8293 H   0  0  0  0  0  0  0  0  0  0  0  0
  141.0335   83.1564  222.2499 H   0  0  0  0  0  0  0  0  0  0  0  0
  142.1008   82.0465  220.3419 H   0  0  0  0  0  0  0  0  0  0  0  0
  141.5759   80.6091  216.5574 H   0  0  0  0  0  0  0  0  0  0  0  0
  139.4709   80.7996  218.1230 H   0  0  0  0  0  0  0  0  0  0  0  0
  140.1102   79.2424  217.4271 H   0  0  0  0  0  0  0  0  0  0  0  0
  140.7517   80.2814  220.2385 H   0  0  0  0  0  0  0  0  0  0  0  0
  139.5019   79.0534  219.8684 H   0  0  0  0  0  0  0  0  0  0  0  0
  139.8665   76.9510  221.1905 H   0  0  0  0  0  0  0  0  0  0  0  0
  141.3810   74.9710  220.6290 H   0  0  0  0  0  0  0  0  0  0  0  0
  142.2140   75.3010  222.1310 H   0  0  0  0  0  0  0  0  0  0  0  0
  141.1609   76.6104  223.2882 H   0  0  0  0  0  0  0  0  0  0  0  0
  143.8420   78.8307  222.5507 H   0  0  0  0  0  0  0  0  0  0  0  0
  144.0111   81.2070  223.0650 H   0  0  0  0  0  0  0  0  0  0  0  0
  142.0363   82.5712  223.6910 H   0  0  0  0  0  0  0  0  0  0  0  0
  139.7892   81.4134  223.7854 H   0  0  0  0  0  0  0  0  0  0  0  0
  139.0493   77.9456  223.8595 H   0  0  0  0  0  0  0  0  0  0  0  0
  138.1875   76.5472  221.6263 H   0  0  0  0  0  0  0  0  0  0  0  0
  136.4198   77.0863  220.0062 H   0  0  0  0  0  0  0  0  0  0  0  0
  135.8458   79.4629  219.5214 H   0  0  0  0  0  0  0  0  0  0  0  0
  137.0866   81.2749  220.7026 H   0  0  0  0  0  0  0  0  0  0  0  0
  138.8491   80.7095  222.3137 H   0  0  0  0  0  0  0  0  0  0  0  0
  143.4123   78.1526  218.6342 H   0  0  0  0  0  0  0  0  0  0  0  0
  142.1378   78.3203  217.4388 H   0  0  0  0  0  0  0  0  0  0  0  0
  142.7023   80.5719  219.4640 H   0  0  0  0  0  0  0  0  0  0  0  0
  143.6721   80.4690  217.9942 H   0  0  0  0  0  0  0  0  0  0  0  0
  1  2  1  0
  2  3  1  0
  3  4  2  0
  3  5  1  0
  5  6  1  0
  6  7  2  0
  7  8  1  0
  8  9  2  0
  9 10  1  0
 10 11  2  0
  5 12  1  0
 12 13  1  0
 13 14  1  0
 14 15  1  0
 15 16  1  0
 16 17  2  0
 16 18  1  0
 18 19  1  0
 18 20  1  0
 20 21  1  0
 21 22  2  0
 22 23  1  0
 23 24  2  0
 24 25  1  0
 25 26  2  0
 26 27  1  0
 27 28  1  0
 28 29  2  0
 29 30  1  0
 30 31  2  0
 31 32  1  0
 32 33  2  0
 15 34  1  0
 34 35  1  0
 11  6  1  0
 35 12  1  0
 27 20  1  0
 33 28  1  0
 26 21  1  0
  1 36  1  0
  1 37  1  0
  1 38  1  0
  2 39  1  0
  2 40  1  0
  7 41  1  0
  8 42  1  0
  9 43  1  0
 10 44  1  0
 11 45  1  0
 12 46  1  0
 13 47  1  0
 13 48  1  0
 14 49  1  0
 14 50  1  0
 18 51  1  6
 19 52  1  0
 19 53  1  0
 20 54  1  1
 22 55  1  0
 23 56  1  0
 24 57  1  0
 25 58  1  0
 27 59  1  1
 29 60  1  0
 30 61  1  0
 31 62  1  0
 32 63  1  0
 33 64  1  0
 34 65  1  0
 34 66  1  0
 35 67  1  0
 35 68  1  0
M  END
>  <smiles>  (162) 
CCC(=O)N(c1ccccc1)C1CCN(C(=O)[C@@H](N)C2c3ccccc3C2c2ccccc2)CC1

>  <score_type>  (162) 
oracle

>  <origin>  (162) 
autodockgpu

>  <m_score__min__energy>  (162) 
-9.6500000000000004

>  <m_primary>  (162) 
energy

>  <rmsd>  (162) 
9.254234894982583

>  <m_score__min__rmsd>  (162) 
9.254234894982583

>  <meeko>  (162) 
{"free_energy": -6.47, "intermolecular_energy": -8.86, "internal_energy": -4.82, "cluster_size": 11, "cluster_id": 3, "rank_in_cluster": 9}

>  <energy>  (162) 
-7.05

>  <cluster_rmsd>  (162) 
0.79

>  <cluster>  (162) 
2

$$$$

     RDKit          3D

 68 72  0  0  0  0  0  0  0  0999 V2000
  137.3170   81.2520  225.3390 C   0  0  0  0  0  0  0  0  0  0  0  0
  138.4370   80.8880  224.3820 C   0  0  0  0  0  0  0  0  0  0  0  0
  137.9870   79.7690  223.5030 C   0  0  0  0  0  0  0  0  0  0  0  0
  136.7300   79.5430  223.5190 O   0  0  0  0  0  0  0  0  0  0  0  0
  138.8840   79.0060  222.7040 N   0  0  0  0  0  0  0  0  0  0  0  0
  140.2610   79.3440  222.7540 C   0  0  0  0  0  0  0  0  0  0  0  0
  141.2010   78.6320  223.4680 C   0  0  0  0  0  0  0  0  0  0  0  0
  142.5360   79.0480  223.4550 C   0  0  0  0  0  0  0  0  0  0  0  0
  142.9460   80.1630  222.7420 C   0  0  0  0  0  0  0  0  0  0  0  0
  141.9990   80.8800  222.0240 C   0  0  0  0  0  0  0  0  0  0  0  0
  140.6970   80.4460  222.0550 C   0  0  0  0  0  0  0  0  0  0  0  0
  138.3370   77.9450  221.9100 C   0  0  0  0  0  0  0  0  0  0  0  0
  138.5780   76.5700  222.4140 C   0  0  0  0  0  0  0  0  0  0  0  0
  139.7980   75.8910  221.7430 C   0  0  0  0  0  0  0  0  0  0  0  0
  139.5240   75.7310  220.3450 N   0  0  0  0  0  0  0  0  0  0  0  0
  140.0080   74.8160  219.4220 C   0  0  0  0  0  0  0  0  0  0  0  0
  139.5460   74.9720  218.2000 O   0  0  0  0  0  0  0  0  0  0  0  0
  140.9420   73.7040  219.5320 C   0  0  1  0  0  0  0  0  0  0  0  0
  141.5110   73.5170  218.1810 N   0  0  0  0  0  0  0  0  0  0  0  0
  141.9690   73.6860  220.5860 C   0  0  1  0  0  0  0  0  0  0  0  0
  143.1960   72.9320  220.3510 C   0  0  0  0  0  0  0  0  0  0  0  0
  143.8390   71.7300  220.0610 C   0  0  0  0  0  0  0  0  0  0  0  0
  145.2030   71.6790  219.9800 C   0  0  0  0  0  0  0  0  0  0  0  0
  146.0170   72.7780  220.1740 C   0  0  0  0  0  0  0  0  0  0  0  0
  145.3810   73.9860  220.4660 C   0  0  0  0  0  0  0  0  0  0  0  0
  144.0080   74.0210  220.5430 C   0  0  0  0  0  0  0  0  0  0  0  0
  142.8150   74.8910  220.7720 C   0  0  1  0  0  0  0  0  0  0  0  0
  142.7590   76.0040  219.8290 C   0  0  0  0  0  0  0  0  0  0  0  0
  142.2160   77.2440  220.0810 C   0  0  0  0  0  0  0  0  0  0  0  0
  142.2010   78.2570  219.1430 C   0  0  0  0  0  0  0  0  0  0  0  0
  142.7470   78.0470  217.8890 C   0  0  0  0  0  0  0  0  0  0  0  0
  143.3020   76.8140  217.6010 C   0  0  0  0  0  0  0  0  0  0  0  0
  143.3020   75.8230  218.5540 C   0  0  0  0  0  0  0  0  0  0  0  0
  138.5570   76.7510  219.8220 C   0  0  0  0  0  0  0  0  0  0  0  0
  138.9720   78.0310  220.5210 C   0  0  0  0  0  0  0  0  0  0  0  0
  137.6684   81.1378  226.3751 H   0  0  0  0  0  0  0  0  0  0  0  0
  137.0130   82.2952  225.1678 H   0  0  0  0  0  0  0  0  0  0  0  0
  136.4578   80.5869  225.1678 H   0  0  0  0  0  0  0  0  0  0  0  0
  138.6915   81.7617  223.7641 H   0  0  0  0  0  0  0  0  0  0  0  0
  139.3240   80.5759  224.9528 H   0  0  0  0  0  0  0  0  0  0  0  0
  140.9031   77.7433  224.0437 H   0  0  0  0  0  0  0  0  0  0  0  0
  143.2808   78.4745  224.0263 H   0  0  0  0  0  0  0  0  0  0  0  0
  144.0012   80.4738  222.7449 H   0  0  0  0  0  0  0  0  0  0  0  0
  142.2839   81.7715  221.4460 H   0  0  0  0  0  0  0  0  0  0  0  0
  139.9520   81.0179  221.4823 H   0  0  0  0  0  0  0  0  0  0  0  0
  137.2471   78.0929  221.9266 H   0  0  0  0  0  0  0  0  0  0  0  0
  138.7553   76.6190  223.4985 H   0  0  0  0  0  0  0  0  0  0  0  0
  137.6894   75.9680  222.1731 H   0  0  0  0  0  0  0  0  0  0  0  0
  140.6908   76.5198  221.8756 H   0  0  0  0  0  0  0  0  0  0  0  0
  139.9806   74.9090  222.2038 H   0  0  0  0  0  0  0  0  0  0  0  0
  140.3442   72.8581  219.9024 H   0  0  0  0  0  0  0  0  0  0  0  0
  141.0250   72.7230  217.7140 H   0  0  0  0  0  0  0  0  0  0  0  0
  141.5630   74.3860  217.6420 H   0  0  0  0  0  0  0  0  0  0  0  0
  141.2433   73.3731  221.3511 H   0  0  0  0  0  0  0  0  0  0  0  0
  143.2464   70.8180  219.8965 H   0  0  0  0  0  0  0  0  0  0  0  0
  145.6763   70.7134  219.7485 H   0  0  0  0  0  0  0  0  0  0  0  0
  147.1122   72.7050  220.1020 H   0  0  0  0  0  0  0  0  0  0  0  0
  145.9710   74.8993  220.6326 H   0  0  0  0  0  0  0  0  0  0  0  0
  142.6310   75.5029  221.6674 H   0  0  0  0  0  0  0  0  0  0  0  0
  141.7759   77.4355  221.0708 H   0  0  0  0  0  0  0  0  0  0  0  0
  141.7550   79.2311  219.3926 H   0  0  0  0  0  0  0  0  0  0  0  0
  142.7396   78.8473  217.1344 H   0  0  0  0  0  0  0  0  0  0  0  0
  143.7429   76.6261  216.6109 H   0  0  0  0  0  0  0  0  0  0  0  0
  143.7471   74.8489  218.3030 H   0  0  0  0  0  0  0  0  0  0  0  0
  138.6468   76.8532  218.7305 H   0  0  0  0  0  0  0  0  0  0  0  0
  137.5079   76.4815  220.0135 H   0  0  0  0  0  0  0  0  0  0  0  0
  140.0675   78.0914  220.5994 H   0  0  0  0  0  0  0  0  0  0  0  0
  138.6466   78.9268  219.9718 H   0  0  0  0  0  0  0  0  0  0  0  0
  1  2  1  0
  2  3  1  0
  3  4  2  0
  3  5  1  0
  5  6  1  0
  6  7  2  0
  7  8  1  0
  8  9  2  0
  9 10  1  0
 10 11  2  0
  5 12  1  0
 12 13  1  0
 13 14  1  0
 14 15  1  0
 15 16  1  0
 16 17  2  0
 16 18  1  0
 18 19  1  0
 18 20  1  0
 20 21  1  0
 21 22  2  0
 22 23  1  0
 23 24  2  0
 24 25  1  0
 25 26  2  0
 26 27  1  0
 27 28  1  0
 28 29  2  0
 29 30  1  0
 30 31  2  0
 31 32  1  0
 32 33  2  0
 15 34  1  0
 34 35  1  0
 11  6  1  0
 35 12  1  0
 27 20  1  0
 33 28  1  0
 26 21  1  0
  1 36  1  0
  1 37  1  0
  1 38  1  0
  2 39  1  0
  2 40  1  0
  7 41  1  0
  8 42  1  0
  9 43  1  0
 10 44  1  0
 11 45  1  0
 12 46  1  0
 13 47  1  0
 13 48  1  0
 14 49  1  0
 14 50  1  0
 18 51  1  1
 19 52  1  0
 19 53  1  0
 20 54  1  1
 22 55  1  0
 23 56  1  0
 24 57  1  0
 25 58  1  0
 27 59  1  1
 29 60  1  0
 30 61  1  0
 31 62  1  0
 32 63  1  0
 33 64  1  0
 34 65  1  0
 34 66  1  0
 35 67  1  0
 35 68  1  0
M  END
>  <smiles>  (163) 
CCC(=O)N(c1ccccc1)C1CCN(C(=O)[C@@H](N)C2c3ccccc3C2c2ccccc2)CC1

>  <score_type>  (163) 
oracle

>  <origin>  (163) 
autodockgpu

>  <m_score__min__energy>  (163) 
-9.6500000000000004

>  <m_primary>  (163) 
energy

>  <rmsd>  (163) 
7.091253654153431

>  <m_score__min__rmsd>  (163) 
7.091253654153431

>  <meeko>  (163) 
{"free_energy": -7.06, "intermolecular_energy": -9.44, "internal_energy": -4.29, "cluster_size": 30, "cluster_id": 2, "rank_in_cluster": 1}

>  <energy>  (163) 
-7.05

>  <cluster_rmsd>  (163) 
0.48

>  <cluster>  (163) 
2

$$$$

     RDKit          3D

 68 72  0  0  0  0  0  0  0  0999 V2000
  137.2970   82.4950  222.6380 C   0  0  0  0  0  0  0  0  0  0  0  0
  136.7250   81.4170  223.5410 C   0  0  0  0  0  0  0  0  0  0  0  0
  137.8320   80.5400  224.0190 C   0  0  0  0  0  0  0  0  0  0  0  0
  137.9890   80.5120  225.2860 O   0  0  0  0  0  0  0  0  0  0  0  0
  138.6570   79.7860  223.1370 N   0  0  0  0  0  0  0  0  0  0  0  0
  140.0600   79.9890  223.2130 C   0  0  0  0  0  0  0  0  0  0  0  0
  140.6770   81.1910  222.9440 C   0  0  0  0  0  0  0  0  0  0  0  0
  142.0680   81.2900  223.0460 C   0  0  0  0  0  0  0  0  0  0  0  0
  142.8510   80.2060  223.4100 C   0  0  0  0  0  0  0  0  0  0  0  0
  142.2290   78.9950  223.6800 C   0  0  0  0  0  0  0  0  0  0  0  0
  140.8610   78.9310  223.5730 C   0  0  0  0  0  0  0  0  0  0  0  0
  138.0160   78.8700  222.2410 C   0  0  0  0  0  0  0  0  0  0  0  0
  138.0200   77.4450  222.6600 C   0  0  0  0  0  0  0  0  0  0  0  0
  139.1710   76.6340  222.0150 C   0  0  0  0  0  0  0  0  0  0  0  0
  138.9720   76.6020  220.5960 N   0  0  0  0  0  0  0  0  0  0  0  0
  139.3800   75.6830  219.6400 C   0  0  0  0  0  0  0  0  0  0  0  0
  139.0300   75.9810  218.4070 O   0  0  0  0  0  0  0  0  0  0  0  0
  140.1320   74.4390  219.7260 C   0  0  1  0  0  0  0  0  0  0  0  0
  140.5770   74.1380  218.3490 N   0  0  0  0  0  0  0  0  0  0  0  0
  141.2090   74.2780  220.7160 C   0  0  1  0  0  0  0  0  0  0  0  0
  142.3020   73.3600  220.4150 C   0  0  0  0  0  0  0  0  0  0  0  0
  142.7520   72.0790  220.0970 C   0  0  0  0  0  0  0  0  0  0  0  0
  144.0880   71.8380  219.9350 C   0  0  0  0  0  0  0  0  0  0  0  0
  145.0580   72.8120  220.0700 C   0  0  0  0  0  0  0  0  0  0  0  0
  144.6150   74.0970  220.3880 C   0  0  0  0  0  0  0  0  0  0  0  0
  143.2680   74.3240  220.5470 C   0  0  0  0  0  0  0  0  0  0  0  0
  142.2250   75.3530  220.8410 C   0  0  1  0  0  0  0  0  0  0  0  0
  142.2670   76.4620  219.8920 C   0  0  0  0  0  0  0  0  0  0  0  0
  142.6880   76.3830  218.5830 C   0  0  0  0  0  0  0  0  0  0  0  0
  142.6970   77.4740  217.7360 C   0  0  0  0  0  0  0  0  0  0  0  0
  142.2720   78.7080  218.1920 C   0  0  0  0  0  0  0  0  0  0  0  0
  141.8420   78.8240  219.5000 C   0  0  0  0  0  0  0  0  0  0  0  0
  141.8440   77.7220  220.3220 C   0  0  0  0  0  0  0  0  0  0  0  0
  138.2020   77.7860  220.0900 C   0  0  0  0  0  0  0  0  0  0  0  0
  138.7510   78.9440  220.9000 C   0  0  0  0  0  0  0  0  0  0  0  0
  137.7243   83.3003  223.2536 H   0  0  0  0  0  0  0  0  0  0  0  0
  138.0840   82.0619  222.0031 H   0  0  0  0  0  0  0  0  0  0  0  0
  136.4972   82.9039  222.0031 H   0  0  0  0  0  0  0  0  0  0  0  0
  136.2278   81.8850  224.4034 H   0  0  0  0  0  0  0  0  0  0  0  0
  135.9928   80.8163  222.9816 H   0  0  0  0  0  0  0  0  0  0  0  0
  140.0795   82.0668  222.6510 H   0  0  0  0  0  0  0  0  0  0  0  0
  142.5535   82.2535  222.8317 H   0  0  0  0  0  0  0  0  0  0  0  0
  143.9442   80.3035  223.4835 H   0  0  0  0  0  0  0  0  0  0  0  0
  142.8152   78.1110  223.9715 H   0  0  0  0  0  0  0  0  0  0  0  0
  140.3737   77.9689  223.7898 H   0  0  0  0  0  0  0  0  0  0  0  0
  136.9607   79.1783  222.2052 H   0  0  0  0  0  0  0  0  0  0  0  0
  138.1284   77.4004  223.7537 H   0  0  0  0  0  0  0  0  0  0  0  0
  137.0719   76.9984  222.3258 H   0  0  0  0  0  0  0  0  0  0  0  0
  140.1345   77.1134  222.2429 H   0  0  0  0  0  0  0  0  0  0  0  0
  139.1778   75.6096  222.4156 H   0  0  0  0  0  0  0  0  0  0  0  0
  139.4332   73.7066  220.1563 H   0  0  0  0  0  0  0  0  0  0  0  0
  139.7410   74.0120  217.7420 H   0  0  0  0  0  0  0  0  0  0  0  0
  141.2840   74.7920  218.0030 H   0  0  0  0  0  0  0  0  0  0  0  0
  140.4940   74.0699  221.5256 H   0  0  0  0  0  0  0  0  0  0  0  0
  142.0290   71.2589  219.9760 H   0  0  0  0  0  0  0  0  0  0  0  0
  144.4069   70.8156  219.6842 H   0  0  0  0  0  0  0  0  0  0  0  0
  146.1260   72.5864  219.9338 H   0  0  0  0  0  0  0  0  0  0  0  0
  145.3356   74.9191  220.5101 H   0  0  0  0  0  0  0  0  0  0  0  0
  142.1842   75.9845  221.7408 H   0  0  0  0  0  0  0  0  0  0  0  0
  143.0309   75.4119  218.1965 H   0  0  0  0  0  0  0  0  0  0  0  0
  143.0426   77.3609  216.6978 H   0  0  0  0  0  0  0  0  0  0  0  0
  142.2761   79.5826  217.5249 H   0  0  0  0  0  0  0  0  0  0  0  0
  141.4987   79.7964  219.8829 H   0  0  0  0  0  0  0  0  0  0  0  0
  141.4986   77.8371  221.3600 H   0  0  0  0  0  0  0  0  0  0  0  0
  138.3800   77.9396  219.0154 H   0  0  0  0  0  0  0  0  0  0  0  0
  137.1141   77.6661  220.2005 H   0  0  0  0  0  0  0  0  0  0  0  0
  139.8356   78.8340  221.0465 H   0  0  0  0  0  0  0  0  0  0  0  0
  138.5986   79.9103  220.3970 H   0  0  0  0  0  0  0  0  0  0  0  0
  1  2  1  0
  2  3  1  0
  3  4  2  0
  3  5  1  0
  5  6  1  0
  6  7  2  0
  7  8  1  0
  8  9  2  0
  9 10  1  0
 10 11  2  0
  5 12  1  0
 12 13  1  0
 13 14  1  0
 14 15  1  0
 15 16  1  0
 16 17  2  0
 16 18  1  0
 18 19  1  0
 18 20  1  0
 20 21  1  0
 21 22  2  0
 22 23  1  0
 23 24  2  0
 24 25  1  0
 25 26  2  0
 26 27  1  0
 27 28  1  0
 28 29  2  0
 29 30  1  0
 30 31  2  0
 31 32  1  0
 32 33  2  0
 15 34  1  0
 34 35  1  0
 11  6  1  0
 35 12  1  0
 27 20  1  0
 33 28  1  0
 26 21  1  0
  1 36  1  0
  1 37  1  0
  1 38  1  0
  2 39  1  0
  2 40  1  0
  7 41  1  0
  8 42  1  0
  9 43  1  0
 10 44  1  0
 11 45  1  0
 12 46  1  0
 13 47  1  0
 13 48  1  0
 14 49  1  0
 14 50  1  0
 18 51  1  1
 19 52  1  0
 19 53  1  0
 20 54  1  1
 22 55  1  0
 23 56  1  0
 24 57  1  0
 25 58  1  0
 27 59  1  1
 29 60  1  0
 30 61  1  0
 31 62  1  0
 32 63  1  0
 33 64  1  0
 34 65  1  0
 34 66  1  0
 35 67  1  0
 35 68  1  0
M  END
>  <smiles>  (164) 
CCC(=O)N(c1ccccc1)C1CCN(C(=O)[C@@H](N)C2c3ccccc3C2c2ccccc2)CC1

>  <score_type>  (164) 
oracle

>  <origin>  (164) 
autodockgpu

>  <m_score__min__energy>  (164) 
-9.6500000000000004

>  <m_primary>  (164) 
energy

>  <rmsd>  (164) 
7.046121293237798

>  <m_score__min__rmsd>  (164) 
7.046121293237798

>  <meeko>  (164) 
{"free_energy": -6.81, "intermolecular_energy": -9.19, "internal_energy": -4.45, "cluster_size": 30, "cluster_id": 2, "rank_in_cluster": 30}

>  <energy>  (164) 
-7.04

>  <cluster_rmsd>  (164) 
0.74

>  <cluster>  (164) 
2

$$$$

     RDKit          3D

 68 72  0  0  0  0  0  0  0  0999 V2000
  136.5230   82.3690  224.2830 C   0  0  0  0  0  0  0  0  0  0  0  0
  136.9080   81.3070  223.2700 C   0  0  0  0  0  0  0  0  0  0  0  0
  137.9720   80.4380  223.8510 C   0  0  0  0  0  0  0  0  0  0  0  0
  138.0740   80.4880  225.1230 O   0  0  0  0  0  0  0  0  0  0  0  0
  138.8150   79.6120  223.0550 N   0  0  0  0  0  0  0  0  0  0  0  0
  140.2180   79.8050  223.1640 C   0  0  0  0  0  0  0  0  0  0  0  0
  141.1210   78.7810  223.3460 C   0  0  0  0  0  0  0  0  0  0  0  0
  142.4850   79.0740  223.4420 C   0  0  0  0  0  0  0  0  0  0  0  0
  142.9590   80.3730  223.3600 C   0  0  0  0  0  0  0  0  0  0  0  0
  142.0490   81.4050  223.1770 C   0  0  0  0  0  0  0  0  0  0  0  0
  140.7160   81.0840  223.0850 C   0  0  0  0  0  0  0  0  0  0  0  0
  138.1920   78.6400  222.2070 C   0  0  0  0  0  0  0  0  0  0  0  0
  138.2610   77.2330  222.6760 C   0  0  0  0  0  0  0  0  0  0  0  0
  139.4290   76.4430  222.0350 C   0  0  0  0  0  0  0  0  0  0  0  0
  139.2010   76.3520  220.6220 N   0  0  0  0  0  0  0  0  0  0  0  0
  139.6250   75.4150  219.6920 C   0  0  0  0  0  0  0  0  0  0  0  0
  139.2360   75.6540  218.4570 O   0  0  0  0  0  0  0  0  0  0  0  0
  140.4270   74.2050  219.8040 C   0  0  1  0  0  0  0  0  0  0  0  0
  140.8570   73.8730  218.4290 N   0  0  0  0  0  0  0  0  0  0  0  0
  141.5280   74.1210  220.7770 C   0  0  1  0  0  0  0  0  0  0  0  0
  142.6340   73.2100  220.5020 C   0  0  0  0  0  0  0  0  0  0  0  0
  143.1050   71.9240  220.2440 C   0  0  0  0  0  0  0  0  0  0  0  0
  144.4420   71.7020  220.0650 C   0  0  0  0  0  0  0  0  0  0  0  0
  145.3930   72.7020  220.1240 C   0  0  0  0  0  0  0  0  0  0  0  0
  144.9300   73.9930  220.3820 C   0  0  0  0  0  0  0  0  0  0  0  0
  143.5820   74.2000  220.5590 C   0  0  0  0  0  0  0  0  0  0  0  0
  142.5220   75.2210  220.8200 C   0  0  1  0  0  0  0  0  0  0  0  0
  142.5200   76.2780  219.8110 C   0  0  0  0  0  0  0  0  0  0  0  0
  142.9730   76.1530  218.5170 C   0  0  0  0  0  0  0  0  0  0  0  0
  142.9370   77.1940  217.6100 C   0  0  0  0  0  0  0  0  0  0  0  0
  142.4300   78.4240  217.9890 C   0  0  0  0  0  0  0  0  0  0  0  0
  141.9650   78.5850  219.2800 C   0  0  0  0  0  0  0  0  0  0  0  0
  142.0140   77.5320  220.1630 C   0  0  0  0  0  0  0  0  0  0  0  0
  138.3740   77.4860  220.0930 C   0  0  0  0  0  0  0  0  0  0  0  0
  138.8950   78.6930  220.8480 C   0  0  0  0  0  0  0  0  0  0  0  0
  136.6659   81.9747  225.2999 H   0  0  0  0  0  0  0  0  0  0  0  0
  137.1563   83.2572  224.1417 H   0  0  0  0  0  0  0  0  0  0  0  0
  135.4676   82.6450  224.1417 H   0  0  0  0  0  0  0  0  0  0  0  0
  136.0269   80.6958  223.0248 H   0  0  0  0  0  0  0  0  0  0  0  0
  137.2827   81.7880  222.3545 H   0  0  0  0  0  0  0  0  0  0  0  0
  140.7718   77.7402  223.4153 H   0  0  0  0  0  0  0  0  0  0  0  0
  143.2005   78.2511  223.5865 H   0  0  0  0  0  0  0  0  0  0  0  0
  144.0360   80.5827  223.4384 H   0  0  0  0  0  0  0  0  0  0  0  0
  142.3853   82.4500  223.1076 H   0  0  0  0  0  0  0  0  0  0  0  0
  139.9993   81.9055  222.9383 H   0  0  0  0  0  0  0  0  0  0  0  0
  137.1249   78.9060  222.1841 H   0  0  0  0  0  0  0  0  0  0  0  0
  138.3940   77.2327  223.7679 H   0  0  0  0  0  0  0  0  0  0  0  0
  137.3244   76.7386  222.3787 H   0  0  0  0  0  0  0  0  0  0  0  0
  140.3778   76.9665  222.2240 H   0  0  0  0  0  0  0  0  0  0  0  0
  139.4842   75.4349  222.4717 H   0  0  0  0  0  0  0  0  0  0  0  0
  139.7660   73.4609  220.2724 H   0  0  0  0  0  0  0  0  0  0  0  0
  140.0150   73.6910  217.8450 H   0  0  0  0  0  0  0  0  0  0  0  0
  141.5280   74.5430  218.0450 H   0  0  0  0  0  0  0  0  0  0  0  0
  140.8353   73.9434  221.6128 H   0  0  0  0  0  0  0  0  0  0  0  0
  142.3977   71.0837  220.1841 H   0  0  0  0  0  0  0  0  0  0  0  0
  144.7777   70.6740  219.8636 H   0  0  0  0  0  0  0  0  0  0  0  0
  146.4623   72.4913  219.9750 H   0  0  0  0  0  0  0  0  0  0  0  0
  145.6350   74.8351  220.4431 H   0  0  0  0  0  0  0  0  0  0  0  0
  142.4856   75.8996  221.6850 H   0  0  0  0  0  0  0  0  0  0  0  0
  143.3804   75.1842  218.1921 H   0  0  0  0  0  0  0  0  0  0  0  0
  143.3114   77.0450  216.5865 H   0  0  0  0  0  0  0  0  0  0  0  0
  142.3976   79.2598  217.2746 H   0  0  0  0  0  0  0  0  0  0  0  0
  141.5561   79.5544  219.6011 H   0  0  0  0  0  0  0  0  0  0  0  0
  141.6402   77.6827  221.1865 H   0  0  0  0  0  0  0  0  0  0  0  0
  138.5215   77.6072  219.0097 H   0  0  0  0  0  0  0  0  0  0  0  0
  137.2945   77.3284  220.2337 H   0  0  0  0  0  0  0  0  0  0  0  0
  139.9860   78.6297  220.9737 H   0  0  0  0  0  0  0  0  0  0  0  0
  138.6949   79.6338  220.3143 H   0  0  0  0  0  0  0  0  0  0  0  0
  1  2  1  0
  2  3  1  0
  3  4  2  0
  3  5  1  0
  5  6  1  0
  6  7  2  0
  7  8  1  0
  8  9  2  0
  9 10  1  0
 10 11  2  0
  5 12  1  0
 12 13  1  0
 13 14  1  0
 14 15  1  0
 15 16  1  0
 16 17  2  0
 16 18  1  0
 18 19  1  0
 18 20  1  0
 20 21  1  0
 21 22  2  0
 22 23  1  0
 23 24  2  0
 24 25  1  0
 25 26  2  0
 26 27  1  0
 27 28  1  0
 28 29  2  0
 29 30  1  0
 30 31  2  0
 31 32  1  0
 32 33  2  0
 15 34  1  0
 34 35  1  0
 11  6  1  0
 35 12  1  0
 27 20  1  0
 33 28  1  0
 26 21  1  0
  1 36  1  0
  1 37  1  0
  1 38  1  0
  2 39  1  0
  2 40  1  0
  7 41  1  0
  8 42  1  0
  9 43  1  0
 10 44  1  0
 11 45  1  0
 12 46  1  0
 13 47  1  0
 13 48  1  0
 14 49  1  0
 14 50  1  0
 18 51  1  1
 19 52  1  0
 19 53  1  0
 20 54  1  1
 22 55  1  0
 23 56  1  0
 24 57  1  0
 25 58  1  0
 27 59  1  1
 29 60  1  0
 30 61  1  0
 31 62  1  0
 32 63  1  0
 33 64  1  0
 34 65  1  0
 34 66  1  0
 35 67  1  0
 35 68  1  0
M  END
>  <smiles>  (165) 
CCC(=O)N(c1ccccc1)C1CCN(C(=O)[C@@H](N)C2c3ccccc3C2c2ccccc2)CC1

>  <score_type>  (165) 
oracle

>  <origin>  (165) 
autodockgpu

>  <m_score__min__energy>  (165) 
-9.6500000000000004

>  <m_primary>  (165) 
energy

>  <rmsd>  (165) 
7.023960138174268

>  <m_score__min__rmsd>  (165) 
7.023960138174268

>  <meeko>  (165) 
{"free_energy": -7.01, "intermolecular_energy": -9.4, "internal_energy": -4.27, "cluster_size": 30, "cluster_id": 2, "rank_in_cluster": 20}

>  <energy>  (165) 
-7.04

>  <cluster_rmsd>  (165) 
0.7

>  <cluster>  (165) 
2

$$$$

     RDKit          3D

 68 72  0  0  0  0  0  0  0  0999 V2000
  136.8260   81.3930  225.5830 C   0  0  0  0  0  0  0  0  0  0  0  0
  138.0740   80.8910  224.8820 C   0  0  0  0  0  0  0  0  0  0  0  0
  137.6830   80.1920  223.6230 C   0  0  0  0  0  0  0  0  0  0  0  0
  136.4690   80.3640  223.2660 O   0  0  0  0  0  0  0  0  0  0  0  0
  138.5880   79.3920  222.8710 N   0  0  0  0  0  0  0  0  0  0  0  0
  139.9750   79.6540  223.0140 C   0  0  0  0  0  0  0  0  0  0  0  0
  140.8900   78.7260  223.4610 C   0  0  0  0  0  0  0  0  0  0  0  0
  142.2380   79.0830  223.5700 C   0  0  0  0  0  0  0  0  0  0  0  0
  142.6840   80.3520  223.2390 C   0  0  0  0  0  0  0  0  0  0  0  0
  141.7630   81.2870  222.7900 C   0  0  0  0  0  0  0  0  0  0  0  0
  140.4470   80.9060  222.6930 C   0  0  0  0  0  0  0  0  0  0  0  0
  138.0380   78.3720  222.0270 C   0  0  0  0  0  0  0  0  0  0  0  0
  138.2040   76.9770  222.5060 C   0  0  0  0  0  0  0  0  0  0  0  0
  139.4270   76.2670  221.8720 C   0  0  0  0  0  0  0  0  0  0  0  0
  139.2100   76.1510  220.4600 N   0  0  0  0  0  0  0  0  0  0  0  0
  139.7010   75.2410  219.5360 C   0  0  0  0  0  0  0  0  0  0  0  0
  139.3000   75.4440  218.2990 O   0  0  0  0  0  0  0  0  0  0  0  0
  140.5870   74.0910  219.6580 C   0  0  1  0  0  0  0  0  0  0  0  0
  141.1060   73.8330  218.2990 N   0  0  0  0  0  0  0  0  0  0  0  0
  141.6420   74.0620  220.6820 C   0  0  1  0  0  0  0  0  0  0  0  0
  142.8260   73.2440  220.4400 C   0  0  0  0  0  0  0  0  0  0  0  0
  143.4050   72.0040  220.1740 C   0  0  0  0  0  0  0  0  0  0  0  0
  144.7630   71.8880  220.0570 C   0  0  0  0  0  0  0  0  0  0  0  0
  145.6310   72.9540  220.1890 C   0  0  0  0  0  0  0  0  0  0  0  0
  145.0590   74.1980  220.4550 C   0  0  0  0  0  0  0  0  0  0  0  0
  143.6930   74.3000  220.5700 C   0  0  0  0  0  0  0  0  0  0  0  0
  142.5470   75.2320  220.8020 C   0  0  1  0  0  0  0  0  0  0  0  0
  142.5140   76.3130  219.8220 C   0  0  0  0  0  0  0  0  0  0  0  0
  142.9950   76.2440  218.5330 C   0  0  0  0  0  0  0  0  0  0  0  0
  142.9260   77.3060  217.6540 C   0  0  0  0  0  0  0  0  0  0  0  0
  142.3550   78.5010  218.0540 C   0  0  0  0  0  0  0  0  0  0  0  0
  141.8610   78.6060  219.3410 C   0  0  0  0  0  0  0  0  0  0  0  0
  141.9440   77.5330  220.1960 C   0  0  0  0  0  0  0  0  0  0  0  0
  138.3060   77.2210  219.9210 C   0  0  0  0  0  0  0  0  0  0  0  0
  138.7380   78.4670  220.6700 C   0  0  0  0  0  0  0  0  0  0  0  0
  136.9690   81.3355  226.6721 H   0  0  0  0  0  0  0  0  0  0  0  0
  136.6372   82.4370  225.2926 H   0  0  0  0  0  0  0  0  0  0  0  0
  135.9668   80.7705  225.2926 H   0  0  0  0  0  0  0  0  0  0  0  0
  138.7286   81.7419  224.6422 H   0  0  0  0  0  0  0  0  0  0  0  0
  138.6117   80.1927  225.5403 H   0  0  0  0  0  0  0  0  0  0  0  0
  140.5626   77.7110  223.7304 H   0  0  0  0  0  0  0  0  0  0  0  0
  142.9627   78.3368  223.9278 H   0  0  0  0  0  0  0  0  0  0  0  0
  143.7486   80.6133  223.3305 H   0  0  0  0  0  0  0  0  0  0  0  0
  142.0779   82.3055  222.5191 H   0  0  0  0  0  0  0  0  0  0  0  0
  139.7219   81.6516  222.3347 H   0  0  0  0  0  0  0  0  0  0  0  0
  136.9547   78.5610  221.9992 H   0  0  0  0  0  0  0  0  0  0  0  0
  138.3340   76.9933  223.5982 H   0  0  0  0  0  0  0  0  0  0  0  0
  137.3050   76.4159  222.2110 H   0  0  0  0  0  0  0  0  0  0  0  0
  140.3360   76.8574  222.0595 H   0  0  0  0  0  0  0  0  0  0  0  0
  139.5518   75.2681  222.3153 H   0  0  0  0  0  0  0  0  0  0  0  0
  139.9637   73.2857  220.0738 H   0  0  0  0  0  0  0  0  0  0  0  0
  140.3100   73.5930  217.6710 H   0  0  0  0  0  0  0  0  0  0  0  0
  141.7330   74.5670  217.9620 H   0  0  0  0  0  0  0  0  0  0  0  0
  140.9254   73.8099  221.4776 H   0  0  0  0  0  0  0  0  0  0  0  0
  142.7673   71.1153  220.0577 H   0  0  0  0  0  0  0  0  0  0  0  0
  145.1854   70.8943  219.8470 H   0  0  0  0  0  0  0  0  0  0  0  0
  146.7192   72.8283  220.0893 H   0  0  0  0  0  0  0  0  0  0  0  0
  145.6945   75.0883  220.5716 H   0  0  0  0  0  0  0  0  0  0  0  0
  142.4173   75.8814  221.6803 H   0  0  0  0  0  0  0  0  0  0  0  0
  143.4527   75.3043  218.1903 H   0  0  0  0  0  0  0  0  0  0  0  0
  143.3254   77.2021  216.6344 H   0  0  0  0  0  0  0  0  0  0  0  0
  142.2951   79.3526  217.3603 H   0  0  0  0  0  0  0  0  0  0  0  0
  141.4023   79.5466  219.6801 H   0  0  0  0  0  0  0  0  0  0  0  0
  141.5457   77.6388  221.2159 H   0  0  0  0  0  0  0  0  0  0  0  0
  138.4482   77.3456  218.8374 H   0  0  0  0  0  0  0  0  0  0  0  0
  137.2399   76.9883  220.0596 H   0  0  0  0  0  0  0  0  0  0  0  0
  139.8304   78.4825  220.7981 H   0  0  0  0  0  0  0  0  0  0  0  0
  138.4725   79.3880  220.1303 H   0  0  0  0  0  0  0  0  0  0  0  0
  1  2  1  0
  2  3  1  0
  3  4  2  0
  3  5  1  0
  5  6  1  0
  6  7  2  0
  7  8  1  0
  8  9  2  0
  9 10  1  0
 10 11  2  0
  5 12  1  0
 12 13  1  0
 13 14  1  0
 14 15  1  0
 15 16  1  0
 16 17  2  0
 16 18  1  0
 18 19  1  0
 18 20  1  0
 20 21  1  0
 21 22  2  0
 22 23  1  0
 23 24  2  0
 24 25  1  0
 25 26  2  0
 26 27  1  0
 27 28  1  0
 28 29  2  0
 29 30  1  0
 30 31  2  0
 31 32  1  0
 32 33  2  0
 15 34  1  0
 34 35  1  0
 11  6  1  0
 35 12  1  0
 27 20  1  0
 33 28  1  0
 26 21  1  0
  1 36  1  0
  1 37  1  0
  1 38  1  0
  2 39  1  0
  2 40  1  0
  7 41  1  0
  8 42  1  0
  9 43  1  0
 10 44  1  0
 11 45  1  0
 12 46  1  0
 13 47  1  0
 13 48  1  0
 14 49  1  0
 14 50  1  0
 18 51  1  1
 19 52  1  0
 19 53  1  0
 20 54  1  1
 22 55  1  0
 23 56  1  0
 24 57  1  0
 25 58  1  0
 27 59  1  1
 29 60  1  0
 30 61  1  0
 31 62  1  0
 32 63  1  0
 33 64  1  0
 34 65  1  0
 34 66  1  0
 35 67  1  0
 35 68  1  0
M  END
>  <smiles>  (166) 
CCC(=O)N(c1ccccc1)C1CCN(C(=O)[C@@H](N)C2c3ccccc3C2c2ccccc2)CC1

>  <score_type>  (166) 
oracle

>  <origin>  (166) 
autodockgpu

>  <m_score__min__energy>  (166) 
-9.6500000000000004

>  <m_primary>  (166) 
energy

>  <rmsd>  (166) 
7.0835648142767305

>  <m_score__min__rmsd>  (166) 
7.0835648142767305

>  <meeko>  (166) 
{"free_energy": -7.03, "intermolecular_energy": -9.42, "internal_energy": -4.29, "cluster_size": 30, "cluster_id": 2, "rank_in_cluster": 8}

>  <energy>  (166) 
-7.04

>  <cluster_rmsd>  (166) 
0.49

>  <cluster>  (166) 
2

$$$$

     RDKit          3D

 68 72  0  0  0  0  0  0  0  0999 V2000
  145.5800   74.2400  220.8500 C   0  0  0  0  0  0  0  0  0  0  0  0
  145.6330   72.7250  220.9120 C   0  0  0  0  0  0  0  0  0  0  0  0
  145.3050   72.1670  219.5680 C   0  0  0  0  0  0  0  0  0  0  0  0
  145.9200   72.7150  218.5920 O   0  0  0  0  0  0  0  0  0  0  0  0
  144.3780   71.1040  219.3780 N   0  0  0  0  0  0  0  0  0  0  0  0
  144.9030   69.8110  219.1170 C   0  0  0  0  0  0  0  0  0  0  0  0
  145.8600   69.5500  218.1600 C   0  0  0  0  0  0  0  0  0  0  0  0
  146.3130   68.2400  217.9780 C   0  0  0  0  0  0  0  0  0  0  0  0
  145.8240   67.1880  218.7360 C   0  0  0  0  0  0  0  0  0  0  0  0
  144.8600   67.4500  219.6990 C   0  0  0  0  0  0  0  0  0  0  0  0
  144.4370   68.7480  219.8540 C   0  0  0  0  0  0  0  0  0  0  0  0
  142.9810   71.4090  219.4710 C   0  0  0  0  0  0  0  0  0  0  0  0
  142.5500   72.6740  218.8240 C   0  0  0  0  0  0  0  0  0  0  0  0
  142.4550   73.8550  219.8220 C   0  0  0  0  0  0  0  0  0  0  0  0
  141.4330   73.5630  220.7840 N   0  0  0  0  0  0  0  0  0  0  0  0
  140.6380   74.4040  221.5500 C   0  0  0  0  0  0  0  0  0  0  0  0
  139.8000   73.7840  222.3530 O   0  0  0  0  0  0  0  0  0  0  0  0
  140.5450   75.8530  221.6490 C   0  0  1  0  0  0  0  0  0  0  0  0
  141.8150   76.3800  221.1050 N   0  0  0  0  0  0  0  0  0  0  0  0
  139.3680   76.5680  221.1310 C   0  0  1  0  0  0  0  0  0  0  0  0
  138.1290   76.5210  221.9000 C   0  0  0  0  0  0  0  0  0  0  0  0
  137.1030   75.7880  222.4950 C   0  0  0  0  0  0  0  0  0  0  0  0
  136.0860   76.4300  223.1480 C   0  0  0  0  0  0  0  0  0  0  0  0
  136.0040   77.8040  223.2610 C   0  0  0  0  0  0  0  0  0  0  0  0
  137.0270   78.5440  222.6670 C   0  0  0  0  0  0  0  0  0  0  0  0
  138.0430   77.8850  222.0150 C   0  0  0  0  0  0  0  0  0  0  0  0
  139.3220   78.0460  221.2590 C   0  0  1  0  0  0  0  0  0  0  0  0
  140.3290   78.7660  222.0330 C   0  0  0  0  0  0  0  0  0  0  0  0
  140.5530   78.6280  223.3840 C   0  0  0  0  0  0  0  0  0  0  0  0
  141.5290   79.3390  224.0550 C   0  0  0  0  0  0  0  0  0  0  0  0
  142.3300   80.2320  223.3670 C   0  0  0  0  0  0  0  0  0  0  0  0
  142.1340   80.3950  222.0090 C   0  0  0  0  0  0  0  0  0  0  0  0
  141.1540   79.6760  221.3670 C   0  0  0  0  0  0  0  0  0  0  0  0
  141.2240   72.0910  220.9820 C   0  0  0  0  0  0  0  0  0  0  0  0
  142.6300   71.5220  220.9560 C   0  0  0  0  0  0  0  0  0  0  0  0
  145.5657   74.6485  221.8712 H   0  0  0  0  0  0  0  0  0  0  0  0
  146.4655   74.6164  220.3169 H   0  0  0  0  0  0  0  0  0  0  0  0
  144.6703   74.5536  220.3169 H   0  0  0  0  0  0  0  0  0  0  0  0
  146.6429   72.4040  221.2071 H   0  0  0  0  0  0  0  0  0  0  0  0
  144.9050   72.3598  221.6513 H   0  0  0  0  0  0  0  0  0  0  0  0
  146.2644   70.3666  217.5439 H   0  0  0  0  0  0  0  0  0  0  0  0
  147.0776   68.0390  217.2131 H   0  0  0  0  0  0  0  0  0  0  0  0
  146.1933   66.1641  218.5772 H   0  0  0  0  0  0  0  0  0  0  0  0
  144.4464   66.6420  220.3203 H   0  0  0  0  0  0  0  0  0  0  0  0
  143.6737   68.9505  220.6197 H   0  0  0  0  0  0  0  0  0  0  0  0
  142.4635   70.5985  218.9368 H   0  0  0  0  0  0  0  0  0  0  0  0
  143.2768   72.9335  218.0401 H   0  0  0  0  0  0  0  0  0  0  0  0
  141.5448   72.5087  218.4089 H   0  0  0  0  0  0  0  0  0  0  0  0
  143.4196   73.9849  220.3346 H   0  0  0  0  0  0  0  0  0  0  0  0
  142.2087   74.7819  219.2833 H   0  0  0  0  0  0  0  0  0  0  0  0
  140.3786   76.0606  222.7163 H   0  0  0  0  0  0  0  0  0  0  0  0
  142.0230   77.2950  221.5540 H   0  0  0  0  0  0  0  0  0  0  0  0
  142.5740   75.6940  221.1200 H   0  0  0  0  0  0  0  0  0  0  0  0
  139.4497   76.0815  220.1478 H   0  0  0  0  0  0  0  0  0  0  0  0
  137.1110   74.6894  222.4393 H   0  0  0  0  0  0  0  0  0  0  0  0
  135.2933   75.8205  223.6063 H   0  0  0  0  0  0  0  0  0  0  0  0
  135.1733   78.2909  223.7929 H   0  0  0  0  0  0  0  0  0  0  0  0
  137.0209   79.6427  222.7196 H   0  0  0  0  0  0  0  0  0  0  0  0
  139.4527   78.6365  220.3402 H   0  0  0  0  0  0  0  0  0  0  0  0
  139.9293   77.9226  223.9527 H   0  0  0  0  0  0  0  0  0  0  0  0
  141.6690   79.1948  225.1365 H   0  0  0  0  0  0  0  0  0  0  0  0
  143.1100   80.8029  223.8920 H   0  0  0  0  0  0  0  0  0  0  0  0
  142.7612   81.0990  221.4425 H   0  0  0  0  0  0  0  0  0  0  0  0
  141.0137   79.8229  220.2859 H   0  0  0  0  0  0  0  0  0  0  0  0
  140.7373   71.8902  221.9478 H   0  0  0  0  0  0  0  0  0  0  0  0
  140.5698   71.6465  220.2175 H   0  0  0  0  0  0  0  0  0  0  0  0
  143.3305   72.1974  221.4690 H   0  0  0  0  0  0  0  0  0  0  0  0
  142.6942   70.5526  221.4718 H   0  0  0  0  0  0  0  0  0  0  0  0
  1  2  1  0
  2  3  1  0
  3  4  2  0
  3  5  1  0
  5  6  1  0
  6  7  2  0
  7  8  1  0
  8  9  2  0
  9 10  1  0
 10 11  2  0
  5 12  1  0
 12 13  1  0
 13 14  1  0
 14 15  1  0
 15 16  1  0
 16 17  2  0
 16 18  1  0
 18 19  1  0
 18 20  1  0
 20 21  1  0
 21 22  2  0
 22 23  1  0
 23 24  2  0
 24 25  1  0
 25 26  2  0
 26 27  1  0
 27 28  1  0
 28 29  2  0
 29 30  1  0
 30 31  2  0
 31 32  1  0
 32 33  2  0
 15 34  1  0
 34 35  1  0
 11  6  1  0
 35 12  1  0
 27 20  1  0
 33 28  1  0
 26 21  1  0
  1 36  1  0
  1 37  1  0
  1 38  1  0
  2 39  1  0
  2 40  1  0
  7 41  1  0
  8 42  1  0
  9 43  1  0
 10 44  1  0
 11 45  1  0
 12 46  1  0
 13 47  1  0
 13 48  1  0
 14 49  1  0
 14 50  1  0
 18 51  1  1
 19 52  1  0
 19 53  1  0
 20 54  1  6
 22 55  1  0
 23 56  1  0
 24 57  1  0
 25 58  1  0
 27 59  1  6
 29 60  1  0
 30 61  1  0
 31 62  1  0
 32 63  1  0
 33 64  1  0
 34 65  1  0
 34 66  1  0
 35 67  1  0
 35 68  1  0
M  END
>  <smiles>  (167) 
CCC(=O)N(c1ccccc1)C1CCN(C(=O)[C@@H](N)C2c3ccccc3C2c2ccccc2)CC1

>  <score_type>  (167) 
oracle

>  <origin>  (167) 
autodockgpu

>  <m_score__min__energy>  (167) 
-9.6500000000000004

>  <m_primary>  (167) 
energy

>  <rmsd>  (167) 
7.860476663340325

>  <m_score__min__rmsd>  (167) 
7.860476663340325

>  <meeko>  (167) 
{"free_energy": -9.38, "intermolecular_energy": -11.76, "internal_energy": -2.18, "cluster_size": 9, "cluster_id": 1, "rank_in_cluster": 5}

>  <energy>  (167) 
-7.03

>  <cluster_rmsd>  (167) 
0.57

>  <cluster>  (167) 
2

$$$$

     RDKit          3D

 68 72  0  0  0  0  0  0  0  0999 V2000
  144.4320   83.0740  215.6740 C   0  0  0  0  0  0  0  0  0  0  0  0
  143.9600   82.8080  217.0910 C   0  0  0  0  0  0  0  0  0  0  0  0
  142.4960   83.0820  217.1790 C   0  0  0  0  0  0  0  0  0  0  0  0
  142.0850   84.0550  216.4630 O   0  0  0  0  0  0  0  0  0  0  0  0
  141.6160   82.3200  217.9980 N   0  0  0  0  0  0  0  0  0  0  0  0
  140.8700   83.0140  218.9870 C   0  0  0  0  0  0  0  0  0  0  0  0
  139.8930   83.9420  218.7010 C   0  0  0  0  0  0  0  0  0  0  0  0
  139.2150   84.5740  219.7480 C   0  0  0  0  0  0  0  0  0  0  0  0
  139.4980   84.2930  221.0740 C   0  0  0  0  0  0  0  0  0  0  0  0
  140.4820   83.3580  221.3630 C   0  0  0  0  0  0  0  0  0  0  0  0
  141.1300   82.7540  220.3120 C   0  0  0  0  0  0  0  0  0  0  0  0
  141.5360   80.9080  217.7640 C   0  0  0  0  0  0  0  0  0  0  0  0
  140.3010   80.2400  218.2460 C   0  0  0  0  0  0  0  0  0  0  0  0
  140.4790   79.5850  219.6380 C   0  0  0  0  0  0  0  0  0  0  0  0
  141.4510   78.5360  219.5320 N   0  0  0  0  0  0  0  0  0  0  0  0
  141.6300   77.3830  220.2810 C   0  0  0  0  0  0  0  0  0  0  0  0
  142.6500   76.6380  219.9080 O   0  0  0  0  0  0  0  0  0  0  0  0
  140.9110   76.8230  221.4170 C   0  0  1  0  0  0  0  0  0  0  0  0
  141.3460   75.4130  221.5180 N   0  0  0  0  0  0  0  0  0  0  0  0
  140.9100   77.5090  222.7180 C   0  0  1  0  0  0  0  0  0  0  0  0
  141.7110   78.7190  222.8690 C   0  0  0  0  0  0  0  0  0  0  0  0
  142.9440   79.3670  222.8170 C   0  0  0  0  0  0  0  0  0  0  0  0
  143.0390   80.6950  223.1290 C   0  0  0  0  0  0  0  0  0  0  0  0
  141.9570   81.4670  223.5050 C   0  0  0  0  0  0  0  0  0  0  0  0
  140.7180   80.8250  223.5600 C   0  0  0  0  0  0  0  0  0  0  0  0
  140.6390   79.4900  223.2430 C   0  0  0  0  0  0  0  0  0  0  0  0
  139.7240   78.3170  223.0930 C   0  0  1  0  0  0  0  0  0  0  0  0
  138.6550   78.5770  222.1320 C   0  0  0  0  0  0  0  0  0  0  0  0
  137.9470   77.6190  221.4410 C   0  0  0  0  0  0  0  0  0  0  0  0
  136.9420   77.9330  220.5490 C   0  0  0  0  0  0  0  0  0  0  0  0
  136.6090   79.2560  220.3190 C   0  0  0  0  0  0  0  0  0  0  0  0
  137.2980   80.2450  220.9970 C   0  0  0  0  0  0  0  0  0  0  0  0
  138.2960   79.9030  221.8790 C   0  0  0  0  0  0  0  0  0  0  0  0
  142.4320   78.7630  218.4200 C   0  0  0  0  0  0  0  0  0  0  0  0
  142.7130   80.2520  218.4890 C   0  0  0  0  0  0  0  0  0  0  0  0
  145.3900   83.6139  215.7019 H   0  0  0  0  0  0  0  0  0  0  0  0
  144.5651   82.1180  215.1463 H   0  0  0  0  0  0  0  0  0  0  0  0
  143.6832   83.6829  215.1463 H   0  0  0  0  0  0  0  0  0  0  0  0
  144.1542   81.7573  217.3525 H   0  0  0  0  0  0  0  0  0  0  0  0
  144.5015   83.4621  217.7902 H   0  0  0  0  0  0  0  0  0  0  0  0
  139.6479   84.1842  217.6564 H   0  0  0  0  0  0  0  0  0  0  0  0
  138.4361   85.3140  219.5120 H   0  0  0  0  0  0  0  0  0  0  0  0
  138.9531   84.8013  221.8831 H   0  0  0  0  0  0  0  0  0  0  0  0
  140.7361   83.1074  222.4035 H   0  0  0  0  0  0  0  0  0  0  0  0
  141.9086   82.0132  220.5465 H   0  0  0  0  0  0  0  0  0  0  0  0
  141.5438   80.7871  216.6707 H   0  0  0  0  0  0  0  0  0  0  0  0
  139.4980   80.9890  218.3098 H   0  0  0  0  0  0  0  0  0  0  0  0
  140.0560   79.4401  217.5318 H   0  0  0  0  0  0  0  0  0  0  0  0
  140.8254   80.3389  220.3602 H   0  0  0  0  0  0  0  0  0  0  0  0
  139.5194   79.1731  219.9837 H   0  0  0  0  0  0  0  0  0  0  0  0
  139.8452   76.9616  221.1830 H   0  0  0  0  0  0  0  0  0  0  0  0
  141.3340   74.9850  220.5690 H   0  0  0  0  0  0  0  0  0  0  0  0
  142.2150   75.2970  222.0470 H   0  0  0  0  0  0  0  0  0  0  0  0
  141.1646   76.5841  223.2563 H   0  0  0  0  0  0  0  0  0  0  0  0
  143.8446   78.8076  222.5237 H   0  0  0  0  0  0  0  0  0  0  0  0
  144.0283   81.1733  223.0779 H   0  0  0  0  0  0  0  0  0  0  0  0
  142.0658   82.5341  223.7489 H   0  0  0  0  0  0  0  0  0  0  0  0
  139.8157   81.3814  223.8537 H   0  0  0  0  0  0  0  0  0  0  0  0
  139.0665   77.9129  223.8769 H   0  0  0  0  0  0  0  0  0  0  0  0
  138.1928   76.5597  221.6069 H   0  0  0  0  0  0  0  0  0  0  0  0
  136.4055   77.1311  220.0206 H   0  0  0  0  0  0  0  0  0  0  0  0
  135.8101   79.5167  219.6092 H   0  0  0  0  0  0  0  0  0  0  0  0
  137.0482   81.3033  220.8310 H   0  0  0  0  0  0  0  0  0  0  0  0
  138.8329   80.7054  222.4062 H   0  0  0  0  0  0  0  0  0  0  0  0
  143.3517   78.1820  218.5832 H   0  0  0  0  0  0  0  0  0  0  0  0
  142.0468   78.4462  217.4396 H   0  0  0  0  0  0  0  0  0  0  0  0
  142.7598   80.5891  219.5350 H   0  0  0  0  0  0  0  0  0  0  0  0
  143.6788   80.5131  218.0318 H   0  0  0  0  0  0  0  0  0  0  0  0
  1  2  1  0
  2  3  1  0
  3  4  2  0
  3  5  1  0
  5  6  1  0
  6  7  2  0
  7  8  1  0
  8  9  2  0
  9 10  1  0
 10 11  2  0
  5 12  1  0
 12 13  1  0
 13 14  1  0
 14 15  1  0
 15 16  1  0
 16 17  2  0
 16 18  1  0
 18 19  1  0
 18 20  1  0
 20 21  1  0
 21 22  2  0
 22 23  1  0
 23 24  2  0
 24 25  1  0
 25 26  2  0
 26 27  1  0
 27 28  1  0
 28 29  2  0
 29 30  1  0
 30 31  2  0
 31 32  1  0
 32 33  2  0
 15 34  1  0
 34 35  1  0
 11  6  1  0
 35 12  1  0
 27 20  1  0
 33 28  1  0
 26 21  1  0
  1 36  1  0
  1 37  1  0
  1 38  1  0
  2 39  1  0
  2 40  1  0
  7 41  1  0
  8 42  1  0
  9 43  1  0
 10 44  1  0
 11 45  1  0
 12 46  1  0
 13 47  1  0
 13 48  1  0
 14 49  1  0
 14 50  1  0
 18 51  1  6
 19 52  1  0
 19 53  1  0
 20 54  1  1
 22 55  1  0
 23 56  1  0
 24 57  1  0
 25 58  1  0
 27 59  1  1
 29 60  1  0
 30 61  1  0
 31 62  1  0
 32 63  1  0
 33 64  1  0
 34 65  1  0
 34 66  1  0
 35 67  1  0
 35 68  1  0
M  END
>  <smiles>  (168) 
CCC(=O)N(c1ccccc1)C1CCN(C(=O)[C@@H](N)C2c3ccccc3C2c2ccccc2)CC1

>  <score_type>  (168) 
oracle

>  <origin>  (168) 
autodockgpu

>  <m_score__min__energy>  (168) 
-9.6500000000000004

>  <m_primary>  (168) 
energy

>  <rmsd>  (168) 
9.246534436810645

>  <m_score__min__rmsd>  (168) 
9.246534436810645

>  <meeko>  (168) 
{"free_energy": -6.56, "intermolecular_energy": -8.95, "internal_energy": -4.73, "cluster_size": 11, "cluster_id": 3, "rank_in_cluster": 1}

>  <energy>  (168) 
-7.03

>  <cluster_rmsd>  (168) 
0.49

>  <cluster>  (168) 
2

$$$$

     RDKit          3D

 68 72  0  0  0  0  0  0  0  0999 V2000
  137.1460   81.4160  225.7190 C   0  0  0  0  0  0  0  0  0  0  0  0
  138.1670   81.1800  224.6220 C   0  0  0  0  0  0  0  0  0  0  0  0
  137.7180   80.0400  223.7710 C   0  0  0  0  0  0  0  0  0  0  0  0
  136.4780   79.7520  223.8650 O   0  0  0  0  0  0  0  0  0  0  0  0
  138.5990   79.3210  222.9150 N   0  0  0  0  0  0  0  0  0  0  0  0
  139.9730   79.6760  222.9360 C   0  0  0  0  0  0  0  0  0  0  0  0
  140.4740   80.8430  222.3990 C   0  0  0  0  0  0  0  0  0  0  0  0
  141.8460   81.1010  222.4700 C   0  0  0  0  0  0  0  0  0  0  0  0
  142.7250   80.2120  223.0660 C   0  0  0  0  0  0  0  0  0  0  0  0
  142.2220   79.0360  223.6060 C   0  0  0  0  0  0  0  0  0  0  0  0
  140.8690   78.8120  223.5220 C   0  0  0  0  0  0  0  0  0  0  0  0
  138.0410   78.2840  222.0970 C   0  0  0  0  0  0  0  0  0  0  0  0
  138.2780   76.8950  222.5630 C   0  0  0  0  0  0  0  0  0  0  0  0
  139.4900   76.2270  221.8660 C   0  0  0  0  0  0  0  0  0  0  0  0
  139.2050   76.1060  220.4660 N   0  0  0  0  0  0  0  0  0  0  0  0
  139.6790   75.2130  219.5160 C   0  0  0  0  0  0  0  0  0  0  0  0
  139.2090   75.4040  218.3020 O   0  0  0  0  0  0  0  0  0  0  0  0
  140.6080   74.0940  219.5910 C   0  0  1  0  0  0  0  0  0  0  0  0
  141.1660   73.9390  218.2310 N   0  0  0  0  0  0  0  0  0  0  0  0
  141.6410   74.0430  220.6360 C   0  0  1  0  0  0  0  0  0  0  0  0
  142.8330   73.2340  220.4000 C   0  0  0  0  0  0  0  0  0  0  0  0
  143.4210   72.0020  220.1180 C   0  0  0  0  0  0  0  0  0  0  0  0
  144.7810   71.8920  220.0270 C   0  0  0  0  0  0  0  0  0  0  0  0
  145.6430   72.9570  220.2030 C   0  0  0  0  0  0  0  0  0  0  0  0
  145.0620   74.1940  220.4860 C   0  0  0  0  0  0  0  0  0  0  0  0
  143.6930   74.2890  220.5730 C   0  0  0  0  0  0  0  0  0  0  0  0
  142.5400   75.2120  220.8030 C   0  0  1  0  0  0  0  0  0  0  0  0
  142.5240   76.3160  219.8480 C   0  0  0  0  0  0  0  0  0  0  0  0
  143.0040   76.2690  218.5580 C   0  0  0  0  0  0  0  0  0  0  0  0
  142.9520   77.3520  217.7030 C   0  0  0  0  0  0  0  0  0  0  0  0
  142.4020   78.5460  218.1310 C   0  0  0  0  0  0  0  0  0  0  0  0
  141.9090   78.6290  219.4200 C   0  0  0  0  0  0  0  0  0  0  0  0
  141.9740   77.5360  220.2500 C   0  0  0  0  0  0  0  0  0  0  0  0
  138.2410   77.1450  219.9770 C   0  0  0  0  0  0  0  0  0  0  0  0
  138.6680   78.4040  220.7060 C   0  0  0  0  0  0  0  0  0  0  0  0
  137.6299   81.3042  226.7005 H   0  0  0  0  0  0  0  0  0  0  0  0
  136.7362   82.4326  225.6259 H   0  0  0  0  0  0  0  0  0  0  0  0
  136.3316   80.6824  225.6259 H   0  0  0  0  0  0  0  0  0  0  0  0
  138.2598   82.0857  224.0047 H   0  0  0  0  0  0  0  0  0  0  0  0
  139.1434   80.9443  225.0704 H   0  0  0  0  0  0  0  0  0  0  0  0
  139.7987   81.5660  221.9181 H   0  0  0  0  0  0  0  0  0  0  0  0
  142.2380   82.0350  222.0411 H   0  0  0  0  0  0  0  0  0  0  0  0
  143.8015   80.4335  223.1107 H   0  0  0  0  0  0  0  0  0  0  0  0
  142.8877   78.3045  224.0874 H   0  0  0  0  0  0  0  0  0  0  0  0
  140.4758   77.8791  223.9522 H   0  0  0  0  0  0  0  0  0  0  0  0
  136.9520   78.4365  222.1247 H   0  0  0  0  0  0  0  0  0  0  0  0
  138.4629   76.9146  223.6472 H   0  0  0  0  0  0  0  0  0  0  0  0
  137.3845   76.3043  222.3123 H   0  0  0  0  0  0  0  0  0  0  0  0
  140.3873   76.8470  222.0090 H   0  0  0  0  0  0  0  0  0  0  0  0
  139.6705   75.2322  222.2994 H   0  0  0  0  0  0  0  0  0  0  0  0
  140.0088   73.2419  219.9444 H   0  0  0  0  0  0  0  0  0  0  0  0
  140.6740   73.1590  217.7480 H   0  0  0  0  0  0  0  0  0  0  0  0
  141.2170   74.8210  217.7140 H   0  0  0  0  0  0  0  0  0  0  0  0
  140.9083   73.7700  221.4097 H   0  0  0  0  0  0  0  0  0  0  0  0
  142.7884   71.1147  219.9681 H   0  0  0  0  0  0  0  0  0  0  0  0
  145.2107   70.9047  219.8021 H   0  0  0  0  0  0  0  0  0  0  0  0
  146.7335   72.8361  220.1240 H   0  0  0  0  0  0  0  0  0  0  0  0
  145.6920   75.0828  220.6377 H   0  0  0  0  0  0  0  0  0  0  0  0
  142.3903   75.8399  221.6937 H   0  0  0  0  0  0  0  0  0  0  0  0
  143.4469   75.3303  218.1939 H   0  0  0  0  0  0  0  0  0  0  0  0
  143.3485   77.2647  216.6807 H   0  0  0  0  0  0  0  0  0  0  0  0
  142.3574   79.4148  217.4578 H   0  0  0  0  0  0  0  0  0  0  0  0
  141.4653   79.5688  219.7806 H   0  0  0  0  0  0  0  0  0  0  0  0
  141.5771   77.6249  221.2720 H   0  0  0  0  0  0  0  0  0  0  0  0
  138.3240   77.2752  218.8879 H   0  0  0  0  0  0  0  0  0  0  0  0
  137.1917   76.8766  220.1692 H   0  0  0  0  0  0  0  0  0  0  0  0
  139.7643   78.4564  220.7786 H   0  0  0  0  0  0  0  0  0  0  0  0
  138.3446   79.3159  220.1827 H   0  0  0  0  0  0  0  0  0  0  0  0
  1  2  1  0
  2  3  1  0
  3  4  2  0
  3  5  1  0
  5  6  1  0
  6  7  2  0
  7  8  1  0
  8  9  2  0
  9 10  1  0
 10 11  2  0
  5 12  1  0
 12 13  1  0
 13 14  1  0
 14 15  1  0
 15 16  1  0
 16 17  2  0
 16 18  1  0
 18 19  1  0
 18 20  1  0
 20 21  1  0
 21 22  2  0
 22 23  1  0
 23 24  2  0
 24 25  1  0
 25 26  2  0
 26 27  1  0
 27 28  1  0
 28 29  2  0
 29 30  1  0
 30 31  2  0
 31 32  1  0
 32 33  2  0
 15 34  1  0
 34 35  1  0
 11  6  1  0
 35 12  1  0
 27 20  1  0
 33 28  1  0
 26 21  1  0
  1 36  1  0
  1 37  1  0
  1 38  1  0
  2 39  1  0
  2 40  1  0
  7 41  1  0
  8 42  1  0
  9 43  1  0
 10 44  1  0
 11 45  1  0
 12 46  1  0
 13 47  1  0
 13 48  1  0
 14 49  1  0
 14 50  1  0
 18 51  1  1
 19 52  1  0
 19 53  1  0
 20 54  1  1
 22 55  1  0
 23 56  1  0
 24 57  1  0
 25 58  1  0
 27 59  1  1
 29 60  1  0
 30 61  1  0
 31 62  1  0
 32 63  1  0
 33 64  1  0
 34 65  1  0
 34 66  1  0
 35 67  1  0
 35 68  1  0
M  END
>  <smiles>  (169) 
CCC(=O)N(c1ccccc1)C1CCN(C(=O)[C@@H](N)C2c3ccccc3C2c2ccccc2)CC1

>  <score_type>  (169) 
oracle

>  <origin>  (169) 
autodockgpu

>  <m_score__min__energy>  (169) 
-9.6500000000000004

>  <m_primary>  (169) 
energy

>  <rmsd>  (169) 
7.089689866409358

>  <m_score__min__rmsd>  (169) 
7.089689866409358

>  <meeko>  (169) 
{"free_energy": -7.02, "intermolecular_energy": -9.4, "internal_energy": -4.35, "cluster_size": 30, "cluster_id": 2, "rank_in_cluster": 15}

>  <energy>  (169) 
-7.03

>  <cluster_rmsd>  (169) 
0.1

>  <cluster>  (169) 
2

$$$$

     RDKit          3D

 68 72  0  0  0  0  0  0  0  0999 V2000
  137.2670   81.2680  225.3720 C   0  0  0  0  0  0  0  0  0  0  0  0
  138.4000   80.8990  224.4330 C   0  0  0  0  0  0  0  0  0  0  0  0
  137.9380   79.8260  223.5050 C   0  0  0  0  0  0  0  0  0  0  0  0
  136.6720   79.6650  223.4550 O   0  0  0  0  0  0  0  0  0  0  0  0
  138.8330   79.0350  222.7310 N   0  0  0  0  0  0  0  0  0  0  0  0
  140.2130   79.3650  222.7790 C   0  0  0  0  0  0  0  0  0  0  0  0
  141.1520   78.6400  223.4790 C   0  0  0  0  0  0  0  0  0  0  0  0
  142.4890   79.0480  223.4640 C   0  0  0  0  0  0  0  0  0  0  0  0
  142.9010   80.1700  222.7640 C   0  0  0  0  0  0  0  0  0  0  0  0
  141.9550   80.9020  222.0600 C   0  0  0  0  0  0  0  0  0  0  0  0
  140.6500   80.4740  222.0920 C   0  0  0  0  0  0  0  0  0  0  0  0
  138.2830   77.9570  221.9640 C   0  0  0  0  0  0  0  0  0  0  0  0
  138.5720   76.5910  222.4670 C   0  0  0  0  0  0  0  0  0  0  0  0
  139.7820   75.9340  221.7590 C   0  0  0  0  0  0  0  0  0  0  0  0
  139.4640   75.7590  220.3720 N   0  0  0  0  0  0  0  0  0  0  0  0
  139.9360   74.8480  219.4390 C   0  0  0  0  0  0  0  0  0  0  0  0
  139.4290   74.9850  218.2320 O   0  0  0  0  0  0  0  0  0  0  0  0
  140.8980   73.7570  219.5230 C   0  0  1  0  0  0  0  0  0  0  0  0
  141.4580   73.6050  218.1640 N   0  0  0  0  0  0  0  0  0  0  0  0
  141.9350   73.7490  220.5670 C   0  0  1  0  0  0  0  0  0  0  0  0
  143.1550   72.9830  220.3320 C   0  0  0  0  0  0  0  0  0  0  0  0
  143.7870   71.7730  220.0530 C   0  0  0  0  0  0  0  0  0  0  0  0
  145.1500   71.7120  219.9600 C   0  0  0  0  0  0  0  0  0  0  0  0
  145.9730   72.8080  220.1300 C   0  0  0  0  0  0  0  0  0  0  0  0
  145.3470   74.0240  220.4090 C   0  0  0  0  0  0  0  0  0  0  0  0
  143.9760   74.0700  220.4990 C   0  0  0  0  0  0  0  0  0  0  0  0
  142.7900   74.9510  220.7270 C   0  0  1  0  0  0  0  0  0  0  0  0
  142.7320   76.0500  219.7670 C   0  0  0  0  0  0  0  0  0  0  0  0
  143.1650   75.9980  218.4610 C   0  0  0  0  0  0  0  0  0  0  0  0
  143.0760   77.0760  217.6020 C   0  0  0  0  0  0  0  0  0  0  0  0
  142.5320   78.2690  218.0440 C   0  0  0  0  0  0  0  0  0  0  0  0
  142.0860   78.3560  219.3490 C   0  0  0  0  0  0  0  0  0  0  0  0
  142.1890   77.2680  220.1830 C   0  0  0  0  0  0  0  0  0  0  0  0
  138.4570   76.7540  219.8760 C   0  0  0  0  0  0  0  0  0  0  0  0
  138.8680   78.0470  220.5530 C   0  0  0  0  0  0  0  0  0  0  0  0
  137.6035   81.1584  226.4135 H   0  0  0  0  0  0  0  0  0  0  0  0
  136.9661   82.3106  225.1917 H   0  0  0  0  0  0  0  0  0  0  0  0
  136.4099   80.6026  225.1917 H   0  0  0  0  0  0  0  0  0  0  0  0
  138.6996   81.7839  223.8523 H   0  0  0  0  0  0  0  0  0  0  0  0
  139.2605   80.5385  225.0157 H   0  0  0  0  0  0  0  0  0  0  0  0
  140.8519   77.7463  224.0458 H   0  0  0  0  0  0  0  0  0  0  0  0
  143.2337   78.4624  224.0230 H   0  0  0  0  0  0  0  0  0  0  0  0
  143.9578   80.4751  222.7660 H   0  0  0  0  0  0  0  0  0  0  0  0
  142.2421   81.7995  221.4925 H   0  0  0  0  0  0  0  0  0  0  0  0
  139.9047   81.0569  221.5309 H   0  0  0  0  0  0  0  0  0  0  0  0
  137.1914   78.0811  222.0184 H   0  0  0  0  0  0  0  0  0  0  0  0
  138.7855   76.6512  223.5444 H   0  0  0  0  0  0  0  0  0  0  0  0
  137.6892   75.9683  222.2598 H   0  0  0  0  0  0  0  0  0  0  0  0
  140.6651   76.5824  221.8573 H   0  0  0  0  0  0  0  0  0  0  0  0
  140.0012   74.9591  222.2190 H   0  0  0  0  0  0  0  0  0  0  0  0
  140.3252   72.8906  219.8853 H   0  0  0  0  0  0  0  0  0  0  0  0
  141.0130   72.7840  217.7040 H   0  0  0  0  0  0  0  0  0  0  0  0
  141.4510   74.4750  217.6260 H   0  0  0  0  0  0  0  0  0  0  0  0
  141.2146   73.4529  221.3437 H   0  0  0  0  0  0  0  0  0  0  0  0
  143.1869   70.8628  219.9069 H   0  0  0  0  0  0  0  0  0  0  0  0
  145.6148   70.7400  219.7384 H   0  0  0  0  0  0  0  0  0  0  0  0
  147.0670   72.7267  220.0496 H   0  0  0  0  0  0  0  0  0  0  0  0
  145.9445   74.9359  220.5553 H   0  0  0  0  0  0  0  0  0  0  0  0
  142.6183   75.5770  221.6151 H   0  0  0  0  0  0  0  0  0  0  0  0
  143.5996   75.0595  218.0864 H   0  0  0  0  0  0  0  0  0  0  0  0
  143.4375   76.9861  216.5670 H   0  0  0  0  0  0  0  0  0  0  0  0
  142.4558   79.1335  217.3681 H   0  0  0  0  0  0  0  0  0  0  0  0
  141.6490   79.2948  219.7201 H   0  0  0  0  0  0  0  0  0  0  0  0
  141.8297   77.3601  221.2186 H   0  0  0  0  0  0  0  0  0  0  0  0
  138.5072   76.8509  218.7814 H   0  0  0  0  0  0  0  0  0  0  0  0
  137.4211   76.4630  220.1045 H   0  0  0  0  0  0  0  0  0  0  0  0
  139.9640   78.1312  220.5933 H   0  0  0  0  0  0  0  0  0  0  0  0
  138.5045   78.9319  220.0101 H   0  0  0  0  0  0  0  0  0  0  0  0
  1  2  1  0
  2  3  1  0
  3  4  2  0
  3  5  1  0
  5  6  1  0
  6  7  2  0
  7  8  1  0
  8  9  2  0
  9 10  1  0
 10 11  2  0
  5 12  1  0
 12 13  1  0
 13 14  1  0
 14 15  1  0
 15 16  1  0
 16 17  2  0
 16 18  1  0
 18 19  1  0
 18 20  1  0
 20 21  1  0
 21 22  2  0
 22 23  1  0
 23 24  2  0
 24 25  1  0
 25 26  2  0
 26 27  1  0
 27 28  1  0
 28 29  2  0
 29 30  1  0
 30 31  2  0
 31 32  1  0
 32 33  2  0
 15 34  1  0
 34 35  1  0
 11  6  1  0
 35 12  1  0
 27 20  1  0
 33 28  1  0
 26 21  1  0
  1 36  1  0
  1 37  1  0
  1 38  1  0
  2 39  1  0
  2 40  1  0
  7 41  1  0
  8 42  1  0
  9 43  1  0
 10 44  1  0
 11 45  1  0
 12 46  1  0
 13 47  1  0
 13 48  1  0
 14 49  1  0
 14 50  1  0
 18 51  1  1
 19 52  1  0
 19 53  1  0
 20 54  1  1
 22 55  1  0
 23 56  1  0
 24 57  1  0
 25 58  1  0
 27 59  1  1
 29 60  1  0
 30 61  1  0
 31 62  1  0
 32 63  1  0
 33 64  1  0
 34 65  1  0
 34 66  1  0
 35 67  1  0
 35 68  1  0
M  END
>  <smiles>  (170) 
CCC(=O)N(c1ccccc1)C1CCN(C(=O)[C@@H](N)C2c3ccccc3C2c2ccccc2)CC1

>  <score_type>  (170) 
oracle

>  <origin>  (170) 
autodockgpu

>  <m_score__min__energy>  (170) 
-9.6500000000000004

>  <m_primary>  (170) 
energy

>  <rmsd>  (170) 
7.11276479251992

>  <m_score__min__rmsd>  (170) 
7.11276479251992

>  <meeko>  (170) 
{"free_energy": -7.01, "intermolecular_energy": -9.4, "internal_energy": -4.34, "cluster_size": 30, "cluster_id": 2, "rank_in_cluster": 18}

>  <energy>  (170) 
-7.03

>  <cluster_rmsd>  (170) 
0.11

>  <cluster>  (170) 
2

$$$$

     RDKit          3D

 68 72  0  0  0  0  0  0  0  0999 V2000
  135.8490   80.9840  224.9590 C   0  0  0  0  0  0  0  0  0  0  0  0
  136.4500   80.1530  223.8400 C   0  0  0  0  0  0  0  0  0  0  0  0
  137.9360   80.1570  223.9700 C   0  0  0  0  0  0  0  0  0  0  0  0
  138.3890   80.8380  224.9510 O   0  0  0  0  0  0  0  0  0  0  0  0
  138.7920   79.4570  223.0740 N   0  0  0  0  0  0  0  0  0  0  0  0
  140.1790   79.7550  223.1210 C   0  0  0  0  0  0  0  0  0  0  0  0
  141.1520   78.8310  223.4330 C   0  0  0  0  0  0  0  0  0  0  0  0
  142.4940   79.2230  223.4540 C   0  0  0  0  0  0  0  0  0  0  0  0
  142.8770   80.5230  223.1690 C   0  0  0  0  0  0  0  0  0  0  0  0
  141.8980   81.4540  222.8550 C   0  0  0  0  0  0  0  0  0  0  0  0
  140.5890   81.0380  222.8420 C   0  0  0  0  0  0  0  0  0  0  0  0
  138.1970   78.4970  222.1920 C   0  0  0  0  0  0  0  0  0  0  0  0
  138.2530   77.0830  222.6430 C   0  0  0  0  0  0  0  0  0  0  0  0
  139.4410   76.3040  222.0260 C   0  0  0  0  0  0  0  0  0  0  0  0
  139.2570   76.2340  220.6060 N   0  0  0  0  0  0  0  0  0  0  0  0
  139.7110   75.3110  219.6750 C   0  0  0  0  0  0  0  0  0  0  0  0
  139.3600   75.5670  218.4330 O   0  0  0  0  0  0  0  0  0  0  0  0
  140.5110   74.1000  219.7950 C   0  0  1  0  0  0  0  0  0  0  0  0
  140.9470   73.7640  218.4230 N   0  0  0  0  0  0  0  0  0  0  0  0
  141.6070   74.0170  220.7730 C   0  0  1  0  0  0  0  0  0  0  0  0
  142.7300   73.1300  220.4890 C   0  0  0  0  0  0  0  0  0  0  0  0
  143.2230   71.8560  220.2120 C   0  0  0  0  0  0  0  0  0  0  0  0
  144.5660   71.6590  220.0370 C   0  0  0  0  0  0  0  0  0  0  0  0
  145.5000   72.6740  220.1210 C   0  0  0  0  0  0  0  0  0  0  0  0
  145.0130   73.9520  220.3980 C   0  0  0  0  0  0  0  0  0  0  0  0
  143.6610   74.1340  220.5700 C   0  0  0  0  0  0  0  0  0  0  0  0
  142.5830   75.1330  220.8420 C   0  0  1  0  0  0  0  0  0  0  0  0
  142.5690   76.2070  219.8520 C   0  0  0  0  0  0  0  0  0  0  0  0
  142.9770   76.0960  218.5410 C   0  0  0  0  0  0  0  0  0  0  0  0
  142.9320   77.1530  217.6540 C   0  0  0  0  0  0  0  0  0  0  0  0
  142.4630   78.3860  218.0700 C   0  0  0  0  0  0  0  0  0  0  0  0
  142.0450   78.5340  219.3790 C   0  0  0  0  0  0  0  0  0  0  0  0
  142.1020   77.4640  220.2410 C   0  0  0  0  0  0  0  0  0  0  0  0
  138.4460   77.3740  220.0680 C   0  0  0  0  0  0  0  0  0  0  0  0
  138.9410   78.5710  220.8570 C   0  0  0  0  0  0  0  0  0  0  0  0
  136.1519   80.5652  225.9300 H   0  0  0  0  0  0  0  0  0  0  0  0
  136.2076   82.0208  224.8790 H   0  0  0  0  0  0  0  0  0  0  0  0
  134.7520   80.9682  224.8790 H   0  0  0  0  0  0  0  0  0  0  0  0
  136.0775   79.1202  223.9078 H   0  0  0  0  0  0  0  0  0  0  0  0
  136.1629   80.5796  222.8676 H   0  0  0  0  0  0  0  0  0  0  0  0
  140.8750   77.7918  223.6640 H   0  0  0  0  0  0  0  0  0  0  0  0
  143.2655   78.4796  223.7033 H   0  0  0  0  0  0  0  0  0  0  0  0
  143.9381   80.8119  223.1913 H   0  0  0  0  0  0  0  0  0  0  0  0
  142.1624   82.4962  222.6229 H   0  0  0  0  0  0  0  0  0  0  0  0
  139.8170   81.7805  222.5917 H   0  0  0  0  0  0  0  0  0  0  0  0
  137.1308   78.7624  222.1390 H   0  0  0  0  0  0  0  0  0  0  0  0
  138.3529   77.0669  223.7383 H   0  0  0  0  0  0  0  0  0  0  0  0
  137.3263   76.5921  222.3111 H   0  0  0  0  0  0  0  0  0  0  0  0
  140.3828   76.8255  222.2519 H   0  0  0  0  0  0  0  0  0  0  0  0
  139.4838   75.2894  222.4488 H   0  0  0  0  0  0  0  0  0  0  0  0
  139.8469   73.3584  220.2630 H   0  0  0  0  0  0  0  0  0  0  0  0
  140.2260   73.1610  217.9760 H   0  0  0  0  0  0  0  0  0  0  0  0
  141.2410   74.5820  217.8830 H   0  0  0  0  0  0  0  0  0  0  0  0
  140.9120   73.8129  221.6009 H   0  0  0  0  0  0  0  0  0  0  0  0
  142.5298   71.0055  220.1337 H   0  0  0  0  0  0  0  0  0  0  0  0
  144.9200   70.6407  219.8183 H   0  0  0  0  0  0  0  0  0  0  0  0
  146.5738   72.4840  219.9767 H   0  0  0  0  0  0  0  0  0  0  0  0
  145.7033   74.8047  220.4779 H   0  0  0  0  0  0  0  0  0  0  0  0
  142.5307   75.7956  221.7185 H   0  0  0  0  0  0  0  0  0  0  0  0
  143.3541   75.1254  218.1863 H   0  0  0  0  0  0  0  0  0  0  0  0
  143.2692   77.0146  216.6162 H   0  0  0  0  0  0  0  0  0  0  0  0
  142.4234   79.2343  217.3709 H   0  0  0  0  0  0  0  0  0  0  0  0
  141.6675   79.5055  219.7306 H   0  0  0  0  0  0  0  0  0  0  0  0
  141.7661   77.6041  221.2790 H   0  0  0  0  0  0  0  0  0  0  0  0
  138.6277   77.5112  218.9918 H   0  0  0  0  0  0  0  0  0  0  0  0
  137.3628   77.2131  220.1721 H   0  0  0  0  0  0  0  0  0  0  0  0
  140.0277   78.5077  221.0154 H   0  0  0  0  0  0  0  0  0  0  0  0
  138.7553   79.5192  220.3313 H   0  0  0  0  0  0  0  0  0  0  0  0
  1  2  1  0
  2  3  1  0
  3  4  2  0
  3  5  1  0
  5  6  1  0
  6  7  2  0
  7  8  1  0
  8  9  2  0
  9 10  1  0
 10 11  2  0
  5 12  1  0
 12 13  1  0
 13 14  1  0
 14 15  1  0
 15 16  1  0
 16 17  2  0
 16 18  1  0
 18 19  1  0
 18 20  1  0
 20 21  1  0
 21 22  2  0
 22 23  1  0
 23 24  2  0
 24 25  1  0
 25 26  2  0
 26 27  1  0
 27 28  1  0
 28 29  2  0
 29 30  1  0
 30 31  2  0
 31 32  1  0
 32 33  2  0
 15 34  1  0
 34 35  1  0
 11  6  1  0
 35 12  1  0
 27 20  1  0
 33 28  1  0
 26 21  1  0
  1 36  1  0
  1 37  1  0
  1 38  1  0
  2 39  1  0
  2 40  1  0
  7 41  1  0
  8 42  1  0
  9 43  1  0
 10 44  1  0
 11 45  1  0
 12 46  1  0
 13 47  1  0
 13 48  1  0
 14 49  1  0
 14 50  1  0
 18 51  1  1
 19 52  1  0
 19 53  1  0
 20 54  1  1
 22 55  1  0
 23 56  1  0
 24 57  1  0
 25 58  1  0
 27 59  1  1
 29 60  1  0
 30 61  1  0
 31 62  1  0
 32 63  1  0
 33 64  1  0
 34 65  1  0
 34 66  1  0
 35 67  1  0
 35 68  1  0
M  END
>  <smiles>  (171) 
CCC(=O)N(c1ccccc1)C1CCN(C(=O)[C@@H](N)C2c3ccccc3C2c2ccccc2)CC1

>  <score_type>  (171) 
oracle

>  <origin>  (171) 
autodockgpu

>  <m_score__min__energy>  (171) 
-9.6500000000000004

>  <m_primary>  (171) 
energy

>  <rmsd>  (171) 
7.012902989741297

>  <m_score__min__rmsd>  (171) 
7.012902989741297

>  <meeko>  (171) 
{"free_energy": -7.02, "intermolecular_energy": -9.41, "internal_energy": -4.35, "cluster_size": 30, "cluster_id": 2, "rank_in_cluster": 14}

>  <energy>  (171) 
-7.02

>  <cluster_rmsd>  (171) 
0.73

>  <cluster>  (171) 
2

$$$$

     RDKit          3D

 68 72  0  0  0  0  0  0  0  0999 V2000
  137.2670   81.2630  225.3150 C   0  0  0  0  0  0  0  0  0  0  0  0
  138.3830   80.9060  224.3510 C   0  0  0  0  0  0  0  0  0  0  0  0
  137.9370   79.7810  223.4800 C   0  0  0  0  0  0  0  0  0  0  0  0
  136.6830   79.5430  223.5050 O   0  0  0  0  0  0  0  0  0  0  0  0
  138.8360   79.0230  222.6760 N   0  0  0  0  0  0  0  0  0  0  0  0
  140.2130   79.3600  222.7320 C   0  0  0  0  0  0  0  0  0  0  0  0
  141.1530   78.6390  223.4360 C   0  0  0  0  0  0  0  0  0  0  0  0
  142.4880   79.0540  223.4290 C   0  0  0  0  0  0  0  0  0  0  0  0
  142.8980   80.1790  222.7310 C   0  0  0  0  0  0  0  0  0  0  0  0
  141.9520   80.9060  222.0230 C   0  0  0  0  0  0  0  0  0  0  0  0
  140.6490   80.4720  222.0480 C   0  0  0  0  0  0  0  0  0  0  0  0
  138.2900   77.9680  221.8740 C   0  0  0  0  0  0  0  0  0  0  0  0
  138.5180   76.5890  222.3760 C   0  0  0  0  0  0  0  0  0  0  0  0
  139.7400   75.9050  221.7140 C   0  0  0  0  0  0  0  0  0  0  0  0
  139.4780   75.7520  220.3130 N   0  0  0  0  0  0  0  0  0  0  0  0
  139.9670   74.8370  219.3920 C   0  0  0  0  0  0  0  0  0  0  0  0
  139.5170   75.0000  218.1660 O   0  0  0  0  0  0  0  0  0  0  0  0
  140.8920   73.7190  219.5070 C   0  0  1  0  0  0  0  0  0  0  0  0
  141.4370   73.5020  218.1500 N   0  0  0  0  0  0  0  0  0  0  0  0
  141.9360   73.7110  220.5440 C   0  0  1  0  0  0  0  0  0  0  0  0
  143.1520   72.9400  220.3040 C   0  0  0  0  0  0  0  0  0  0  0  0
  143.7770   71.7260  220.0270 C   0  0  0  0  0  0  0  0  0  0  0  0
  145.1400   71.6590  219.9250 C   0  0  0  0  0  0  0  0  0  0  0  0
  145.9680   72.7530  220.0840 C   0  0  0  0  0  0  0  0  0  0  0  0
  145.3480   73.9730  220.3620 C   0  0  0  0  0  0  0  0  0  0  0  0
  143.9780   74.0240  220.4610 C   0  0  0  0  0  0  0  0  0  0  0  0
  142.7970   74.9110  220.6920 C   0  0  1  0  0  0  0  0  0  0  0  0
  142.7370   76.0050  219.7280 C   0  0  0  0  0  0  0  0  0  0  0  0
  143.1630   75.9470  218.4190 C   0  0  0  0  0  0  0  0  0  0  0  0
  143.0720   77.0210  217.5570 C   0  0  0  0  0  0  0  0  0  0  0  0
  142.5340   78.2170  217.9960 C   0  0  0  0  0  0  0  0  0  0  0  0
  142.0940   78.3110  219.3030 C   0  0  0  0  0  0  0  0  0  0  0  0
  142.1990   77.2270  220.1410 C   0  0  0  0  0  0  0  0  0  0  0  0
  138.5230   76.7800  219.7840 C   0  0  0  0  0  0  0  0  0  0  0  0
  138.9390   78.0550  220.4910 C   0  0  0  0  0  0  0  0  0  0  0  0
  137.6249   81.1485  226.3488 H   0  0  0  0  0  0  0  0  0  0  0  0
  136.9572   82.3051  225.1475 H   0  0  0  0  0  0  0  0  0  0  0  0
  136.4099   80.5942  225.1475 H   0  0  0  0  0  0  0  0  0  0  0  0
  138.6249   81.7799  223.7283 H   0  0  0  0  0  0  0  0  0  0  0  0
  139.2771   80.6040  224.9161 H   0  0  0  0  0  0  0  0  0  0  0  0
  140.8549   77.7428  223.9998 H   0  0  0  0  0  0  0  0  0  0  0  0
  143.2326   78.4724  223.9923 H   0  0  0  0  0  0  0  0  0  0  0  0
  143.9532   80.4895  222.7383 H   0  0  0  0  0  0  0  0  0  0  0  0
  142.2375   81.8051  221.4572 H   0  0  0  0  0  0  0  0  0  0  0  0
  139.9040   81.0520  221.4836 H   0  0  0  0  0  0  0  0  0  0  0  0
  137.2009   78.1221  221.8811 H   0  0  0  0  0  0  0  0  0  0  0  0
  138.6855   76.6334  223.4623 H   0  0  0  0  0  0  0  0  0  0  0  0
  137.6280   75.9932  222.1250 H   0  0  0  0  0  0  0  0  0  0  0  0
  140.6354   76.5277  221.8573 H   0  0  0  0  0  0  0  0  0  0  0  0
  139.9124   74.9202  222.1728 H   0  0  0  0  0  0  0  0  0  0  0  0
  140.2929   72.8855  219.9025 H   0  0  0  0  0  0  0  0  0  0  0  0
  140.9100   72.7300  217.6920 H   0  0  0  0  0  0  0  0  0  0  0  0
  141.5230   74.3660  217.6080 H   0  0  0  0  0  0  0  0  0  0  0  0
  141.2201   73.4203  221.3269 H   0  0  0  0  0  0  0  0  0  0  0  0
  143.1722   70.8175  219.8897 H   0  0  0  0  0  0  0  0  0  0  0  0
  145.5996   70.6841  219.7052 H   0  0  0  0  0  0  0  0  0  0  0  0
  147.0611   72.6675  219.9960 H   0  0  0  0  0  0  0  0  0  0  0  0
  145.9496   74.8835  220.5003 H   0  0  0  0  0  0  0  0  0  0  0  0
  142.6335   75.5424  221.5778 H   0  0  0  0  0  0  0  0  0  0  0  0
  143.5933   75.0060  218.0456 H   0  0  0  0  0  0  0  0  0  0  0  0
  143.4275   76.9257  216.5204 H   0  0  0  0  0  0  0  0  0  0  0  0
  142.4575   79.0788  217.3167 H   0  0  0  0  0  0  0  0  0  0  0  0
  141.6604   79.2523  219.6718 H   0  0  0  0  0  0  0  0  0  0  0  0
  141.8456   77.3250  221.1781 H   0  0  0  0  0  0  0  0  0  0  0  0
  138.6243   76.8852  218.6937 H   0  0  0  0  0  0  0  0  0  0  0  0
  137.4704   76.5166  219.9645 H   0  0  0  0  0  0  0  0  0  0  0  0
  140.0341   78.1085  220.5801 H   0  0  0  0  0  0  0  0  0  0  0  0
  138.6243   78.9546  219.9418 H   0  0  0  0  0  0  0  0  0  0  0  0
  1  2  1  0
  2  3  1  0
  3  4  2  0
  3  5  1  0
  5  6  1  0
  6  7  2  0
  7  8  1  0
  8  9  2  0
  9 10  1  0
 10 11  2  0
  5 12  1  0
 12 13  1  0
 13 14  1  0
 14 15  1  0
 15 16  1  0
 16 17  2  0
 16 18  1  0
 18 19  1  0
 18 20  1  0
 20 21  1  0
 21 22  2  0
 22 23  1  0
 23 24  2  0
 24 25  1  0
 25 26  2  0
 26 27  1  0
 27 28  1  0
 28 29  2  0
 29 30  1  0
 30 31  2  0
 31 32  1  0
 32 33  2  0
 15 34  1  0
 34 35  1  0
 11  6  1  0
 35 12  1  0
 27 20  1  0
 33 28  1  0
 26 21  1  0
  1 36  1  0
  1 37  1  0
  1 38  1  0
  2 39  1  0
  2 40  1  0
  7 41  1  0
  8 42  1  0
  9 43  1  0
 10 44  1  0
 11 45  1  0
 12 46  1  0
 13 47  1  0
 13 48  1  0
 14 49  1  0
 14 50  1  0
 18 51  1  1
 19 52  1  0
 19 53  1  0
 20 54  1  1
 22 55  1  0
 23 56  1  0
 24 57  1  0
 25 58  1  0
 27 59  1  1
 29 60  1  0
 30 61  1  0
 31 62  1  0
 32 63  1  0
 33 64  1  0
 34 65  1  0
 34 66  1  0
 35 67  1  0
 35 68  1  0
M  END
>  <smiles>  (172) 
CCC(=O)N(c1ccccc1)C1CCN(C(=O)[C@@H](N)C2c3ccccc3C2c2ccccc2)CC1

>  <score_type>  (172) 
oracle

>  <origin>  (172) 
autodockgpu

>  <m_score__min__energy>  (172) 
-9.6500000000000004

>  <m_primary>  (172) 
energy

>  <rmsd>  (172) 
7.111495592855123

>  <m_score__min__rmsd>  (172) 
7.111495592855123

>  <meeko>  (172) 
{"free_energy": -7.03, "intermolecular_energy": -9.42, "internal_energy": -4.35, "cluster_size": 30, "cluster_id": 2, "rank_in_cluster": 11}

>  <energy>  (172) 
-7.02

>  <cluster_rmsd>  (172) 
0.54

>  <cluster>  (172) 
2

$$$$

     RDKit          3D

 68 72  0  0  0  0  0  0  0  0999 V2000
  135.8470   80.9620  224.9560 C   0  0  0  0  0  0  0  0  0  0  0  0
  136.4530   80.2070  223.7880 C   0  0  0  0  0  0  0  0  0  0  0  0
  137.9340   80.1540  223.9540 C   0  0  0  0  0  0  0  0  0  0  0  0
  138.3910   80.8230  224.9410 O   0  0  0  0  0  0  0  0  0  0  0  0
  138.7840   79.4160  223.0820 N   0  0  0  0  0  0  0  0  0  0  0  0
  140.1720   79.7070  223.1130 C   0  0  0  0  0  0  0  0  0  0  0  0
  141.1410   78.7940  223.4690 C   0  0  0  0  0  0  0  0  0  0  0  0
  142.4850   79.1800  223.4700 C   0  0  0  0  0  0  0  0  0  0  0  0
  142.8750   80.4630  223.1220 C   0  0  0  0  0  0  0  0  0  0  0  0
  141.9000   81.3830  222.7640 C   0  0  0  0  0  0  0  0  0  0  0  0
  140.5890   80.9730  222.7720 C   0  0  0  0  0  0  0  0  0  0  0  0
  138.1810   78.4250  222.2400 C   0  0  0  0  0  0  0  0  0  0  0  0
  138.3180   77.0190  222.6950 C   0  0  0  0  0  0  0  0  0  0  0  0
  139.5010   76.2830  222.0200 C   0  0  0  0  0  0  0  0  0  0  0  0
  139.2440   76.1940  220.6120 N   0  0  0  0  0  0  0  0  0  0  0  0
  139.6820   75.2820  219.6630 C   0  0  0  0  0  0  0  0  0  0  0  0
  139.2550   75.5140  218.4400 O   0  0  0  0  0  0  0  0  0  0  0  0
  140.5360   74.1050  219.7460 C   0  0  1  0  0  0  0  0  0  0  0  0
  141.0020   73.8440  218.3680 N   0  0  0  0  0  0  0  0  0  0  0  0
  141.6230   74.0330  220.7350 C   0  0  1  0  0  0  0  0  0  0  0  0
  142.7720   73.1800  220.4480 C   0  0  0  0  0  0  0  0  0  0  0  0
  143.3010   71.9250  220.1530 C   0  0  0  0  0  0  0  0  0  0  0  0
  144.6500   71.7660  219.9910 C   0  0  0  0  0  0  0  0  0  0  0  0
  145.5560   72.8030  220.1020 C   0  0  0  0  0  0  0  0  0  0  0  0
  145.0330   74.0630  220.3960 C   0  0  0  0  0  0  0  0  0  0  0  0
  143.6750   74.2070  220.5570 C   0  0  0  0  0  0  0  0  0  0  0  0
  142.5690   75.1730  220.8330 C   0  0  1  0  0  0  0  0  0  0  0  0
  142.5380   76.2630  219.8620 C   0  0  0  0  0  0  0  0  0  0  0  0
  143.0020   76.1990  218.5680 C   0  0  0  0  0  0  0  0  0  0  0  0
  142.9360   77.2690  217.6980 C   0  0  0  0  0  0  0  0  0  0  0  0
  142.3870   78.4680  218.1160 C   0  0  0  0  0  0  0  0  0  0  0  0
  141.9100   78.5680  219.4090 C   0  0  0  0  0  0  0  0  0  0  0  0
  141.9890   77.4870  220.2540 C   0  0  0  0  0  0  0  0  0  0  0  0
  138.3590   77.2970  220.1120 C   0  0  0  0  0  0  0  0  0  0  0  0
  138.8470   78.5180  220.8660 C   0  0  0  0  0  0  0  0  0  0  0  0
  136.2003   80.5218  225.9001 H   0  0  0  0  0  0  0  0  0  0  0  0
  136.1511   82.0180  224.9074 H   0  0  0  0  0  0  0  0  0  0  0  0
  134.7502   80.8936  224.9074 H   0  0  0  0  0  0  0  0  0  0  0  0
  136.0489   79.1843  223.7615 H   0  0  0  0  0  0  0  0  0  0  0  0
  136.2046   80.7202  222.8473 H   0  0  0  0  0  0  0  0  0  0  0  0
  140.8591   77.7686  223.7504 H   0  0  0  0  0  0  0  0  0  0  0  0
  143.2529   78.4456  223.7546 H   0  0  0  0  0  0  0  0  0  0  0  0
  143.9377   80.7470  223.1293 H   0  0  0  0  0  0  0  0  0  0  0  0
  142.1692   82.4115  222.4818 H   0  0  0  0  0  0  0  0  0  0  0  0
  139.8206   81.7065  222.4865 H   0  0  0  0  0  0  0  0  0  0  0  0
  137.1036   78.6468  222.2448 H   0  0  0  0  0  0  0  0  0  0  0  0
  138.4769   77.0157  223.7835 H   0  0  0  0  0  0  0  0  0  0  0  0
  137.3954   76.4890  222.4159 H   0  0  0  0  0  0  0  0  0  0  0  0
  140.4319   76.8433  222.1917 H   0  0  0  0  0  0  0  0  0  0  0  0
  139.6071   75.2744  222.4461 H   0  0  0  0  0  0  0  0  0  0  0  0
  139.9020   73.3155  220.1759 H   0  0  0  0  0  0  0  0  0  0  0  0
  140.1800   73.6410  217.7640 H   0  0  0  0  0  0  0  0  0  0  0  0
  141.6450   74.5590  218.0190 H   0  0  0  0  0  0  0  0  0  0  0  0
  140.9253   73.7966  221.5519 H   0  0  0  0  0  0  0  0  0  0  0  0
  142.6311   71.0586  220.0500 H   0  0  0  0  0  0  0  0  0  0  0  0
  145.0330   70.7609  219.7605 H   0  0  0  0  0  0  0  0  0  0  0  0
  146.6358   72.6435  219.9655 H   0  0  0  0  0  0  0  0  0  0  0  0
  145.7000   74.9317  220.4978 H   0  0  0  0  0  0  0  0  0  0  0  0
  142.4898   75.8195  221.7194 H   0  0  0  0  0  0  0  0  0  0  0  0
  143.4437   75.2565  218.2122 H   0  0  0  0  0  0  0  0  0  0  0  0
  143.3201   77.1681  216.6722 H   0  0  0  0  0  0  0  0  0  0  0  0
  142.3311   79.3269  217.4310 H   0  0  0  0  0  0  0  0  0  0  0  0
  141.4677   79.5115  219.7615 H   0  0  0  0  0  0  0  0  0  0  0  0
  141.6048   77.5892  221.2797 H   0  0  0  0  0  0  0  0  0  0  0  0
  138.4766   77.4330  219.0268 H   0  0  0  0  0  0  0  0  0  0  0  0
  137.2904   77.0937  220.2754 H   0  0  0  0  0  0  0  0  0  0  0  0
  139.9424   78.4994  220.9649 H   0  0  0  0  0  0  0  0  0  0  0  0
  138.5943   79.4538  220.3461 H   0  0  0  0  0  0  0  0  0  0  0  0
  1  2  1  0
  2  3  1  0
  3  4  2  0
  3  5  1  0
  5  6  1  0
  6  7  2  0
  7  8  1  0
  8  9  2  0
  9 10  1  0
 10 11  2  0
  5 12  1  0
 12 13  1  0
 13 14  1  0
 14 15  1  0
 15 16  1  0
 16 17  2  0
 16 18  1  0
 18 19  1  0
 18 20  1  0
 20 21  1  0
 21 22  2  0
 22 23  1  0
 23 24  2  0
 24 25  1  0
 25 26  2  0
 26 27  1  0
 27 28  1  0
 28 29  2  0
 29 30  1  0
 30 31  2  0
 31 32  1  0
 32 33  2  0
 15 34  1  0
 34 35  1  0
 11  6  1  0
 35 12  1  0
 27 20  1  0
 33 28  1  0
 26 21  1  0
  1 36  1  0
  1 37  1  0
  1 38  1  0
  2 39  1  0
  2 40  1  0
  7 41  1  0
  8 42  1  0
  9 43  1  0
 10 44  1  0
 11 45  1  0
 12 46  1  0
 13 47  1  0
 13 48  1  0
 14 49  1  0
 14 50  1  0
 18 51  1  1
 19 52  1  0
 19 53  1  0
 20 54  1  1
 22 55  1  0
 23 56  1  0
 24 57  1  0
 25 58  1  0
 27 59  1  1
 29 60  1  0
 30 61  1  0
 31 62  1  0
 32 63  1  0
 33 64  1  0
 34 65  1  0
 34 66  1  0
 35 67  1  0
 35 68  1  0
M  END
>  <smiles>  (173) 
CCC(=O)N(c1ccccc1)C1CCN(C(=O)[C@@H](N)C2c3ccccc3C2c2ccccc2)CC1

>  <score_type>  (173) 
oracle

>  <origin>  (173) 
autodockgpu

>  <m_score__min__energy>  (173) 
-9.6500000000000004

>  <m_primary>  (173) 
energy

>  <rmsd>  (173) 
7.059336372213171

>  <m_score__min__rmsd>  (173) 
7.059336372213171

>  <meeko>  (173) 
{"free_energy": -7.05, "intermolecular_energy": -9.43, "internal_energy": -4.32, "cluster_size": 30, "cluster_id": 2, "rank_in_cluster": 3}

>  <energy>  (173) 
-7.02

>  <cluster_rmsd>  (173) 
0.79

>  <cluster>  (173) 
2

$$$$

     RDKit          3D

 68 72  0  0  0  0  0  0  0  0999 V2000
  137.0190   81.2790  225.4550 C   0  0  0  0  0  0  0  0  0  0  0  0
  138.2100   80.8880  224.6000 C   0  0  0  0  0  0  0  0  0  0  0  0
  137.7590   79.9530  223.5290 C   0  0  0  0  0  0  0  0  0  0  0  0
  136.4940   79.8870  223.3690 O   0  0  0  0  0  0  0  0  0  0  0  0
  138.6630   79.1870  222.7400 N   0  0  0  0  0  0  0  0  0  0  0  0
  140.0460   79.4910  222.8420 C   0  0  0  0  0  0  0  0  0  0  0  0
  140.9780   78.6480  223.4080 C   0  0  0  0  0  0  0  0  0  0  0  0
  142.3190   79.0400  223.4620 C   0  0  0  0  0  0  0  0  0  0  0  0
  142.7420   80.2600  222.9620 C   0  0  0  0  0  0  0  0  0  0  0  0
  141.8040   81.1100  222.3930 C   0  0  0  0  0  0  0  0  0  0  0  0
  140.4950   80.6960  222.3530 C   0  0  0  0  0  0  0  0  0  0  0  0
  138.1170   78.1590  221.9040 C   0  0  0  0  0  0  0  0  0  0  0  0
  138.2960   76.7670  222.3900 C   0  0  0  0  0  0  0  0  0  0  0  0
  139.5210   76.0630  221.7570 C   0  0  0  0  0  0  0  0  0  0  0  0
  139.3010   75.9380  220.3460 N   0  0  0  0  0  0  0  0  0  0  0  0
  139.7950   75.0250  219.4250 C   0  0  0  0  0  0  0  0  0  0  0  0
  139.3890   75.2180  218.1880 O   0  0  0  0  0  0  0  0  0  0  0  0
  140.6900   73.8830  219.5520 C   0  0  1  0  0  0  0  0  0  0  0  0
  141.2440   73.6510  218.2010 N   0  0  0  0  0  0  0  0  0  0  0  0
  141.7210   73.8480  220.6000 C   0  0  1  0  0  0  0  0  0  0  0  0
  142.9370   73.0790  220.3570 C   0  0  0  0  0  0  0  0  0  0  0  0
  143.5630   71.8700  220.0590 C   0  0  0  0  0  0  0  0  0  0  0  0
  144.9260   71.8020  219.9720 C   0  0  0  0  0  0  0  0  0  0  0  0
  145.7550   72.8890  220.1670 C   0  0  0  0  0  0  0  0  0  0  0  0
  145.1360   74.1040  220.4650 C   0  0  0  0  0  0  0  0  0  0  0  0
  143.7640   74.1570  220.5490 C   0  0  0  0  0  0  0  0  0  0  0  0
  142.5840   75.0410  220.7870 C   0  0  1  0  0  0  0  0  0  0  0  0
  142.5380   76.1580  219.8470 C   0  0  0  0  0  0  0  0  0  0  0  0
  142.0270   77.4090  220.1120 C   0  0  0  0  0  0  0  0  0  0  0  0
  142.0200   78.4250  219.1770 C   0  0  0  0  0  0  0  0  0  0  0  0
  142.5410   78.2070  217.9140 C   0  0  0  0  0  0  0  0  0  0  0  0
  143.0630   76.9630  217.6140 C   0  0  0  0  0  0  0  0  0  0  0  0
  143.0560   75.9690  218.5640 C   0  0  0  0  0  0  0  0  0  0  0  0
  138.3880   76.9970  219.8030 C   0  0  0  0  0  0  0  0  0  0  0  0
  138.8130   78.2510  220.5440 C   0  0  0  0  0  0  0  0  0  0  0  0
  137.2864   81.1912  226.5184 H   0  0  0  0  0  0  0  0  0  0  0  0
  136.7337   82.3180  225.2332 H   0  0  0  0  0  0  0  0  0  0  0  0
  136.1734   80.6113  225.2332 H   0  0  0  0  0  0  0  0  0  0  0  0
  138.6460   81.7884  224.1427 H   0  0  0  0  0  0  0  0  0  0  0  0
  138.9683   80.3948  225.2259 H   0  0  0  0  0  0  0  0  0  0  0  0
  140.6690   77.6737  223.8144 H   0  0  0  0  0  0  0  0  0  0  0  0
  143.0575   78.3613  223.9136 H   0  0  0  0  0  0  0  0  0  0  0  0
  143.8018   80.5501  223.0148 H   0  0  0  0  0  0  0  0  0  0  0  0
  142.1005   82.0878  221.9855 H   0  0  0  0  0  0  0  0  0  0  0  0
  139.7562   81.3732  221.8996 H   0  0  0  0  0  0  0  0  0  0  0  0
  137.0323   78.3403  221.8791 H   0  0  0  0  0  0  0  0  0  0  0  0
  138.4294   76.7904  223.4816 H   0  0  0  0  0  0  0  0  0  0  0  0
  137.4006   76.1975  222.1002 H   0  0  0  0  0  0  0  0  0  0  0  0
  140.4263   76.6607  221.9389 H   0  0  0  0  0  0  0  0  0  0  0  0
  139.6540   75.0673  222.2052 H   0  0  0  0  0  0  0  0  0  0  0  0
  140.0654   73.0660  219.9424 H   0  0  0  0  0  0  0  0  0  0  0  0
  140.6560   72.9470  217.7090 H   0  0  0  0  0  0  0  0  0  0  0  0
  141.4260   74.5170  217.6870 H   0  0  0  0  0  0  0  0  0  0  0  0
  140.9943   73.5420  221.3670 H   0  0  0  0  0  0  0  0  0  0  0  0
  142.9580   70.9664  219.8931 H   0  0  0  0  0  0  0  0  0  0  0  0
  145.3857   70.8313  219.7344 H   0  0  0  0  0  0  0  0  0  0  0  0
  146.8489   72.8017  220.0913 H   0  0  0  0  0  0  0  0  0  0  0  0
  145.7386   75.0092  220.6308 H   0  0  0  0  0  0  0  0  0  0  0  0
  142.4126   75.6515  221.6858 H   0  0  0  0  0  0  0  0  0  0  0  0
  141.6072   77.6070  221.1093 H   0  0  0  0  0  0  0  0  0  0  0  0
  141.6001   79.4080  219.4364 H   0  0  0  0  0  0  0  0  0  0  0  0
  142.5398   79.0097  217.1619 H   0  0  0  0  0  0  0  0  0  0  0  0
  143.4836   76.7683  216.6164 H   0  0  0  0  0  0  0  0  0  0  0  0
  143.4750   74.9860  218.3030 H   0  0  0  0  0  0  0  0  0  0  0  0
  138.5265   77.1161  218.7183 H   0  0  0  0  0  0  0  0  0  0  0  0
  137.3240   76.7571  219.9453 H   0  0  0  0  0  0  0  0  0  0  0  0
  139.9056   78.2752  220.6691 H   0  0  0  0  0  0  0  0  0  0  0  0
  138.5393   79.1668  219.9996 H   0  0  0  0  0  0  0  0  0  0  0  0
  1  2  1  0
  2  3  1  0
  3  4  2  0
  3  5  1  0
  5  6  1  0
  6  7  2  0
  7  8  1  0
  8  9  2  0
  9 10  1  0
 10 11  2  0
  5 12  1  0
 12 13  1  0
 13 14  1  0
 14 15  1  0
 15 16  1  0
 16 17  2  0
 16 18  1  0
 18 19  1  0
 18 20  1  0
 20 21  1  0
 21 22  2  0
 22 23  1  0
 23 24  2  0
 24 25  1  0
 25 26  2  0
 26 27  1  0
 27 28  1  0
 28 29  2  0
 29 30  1  0
 30 31  2  0
 31 32  1  0
 32 33  2  0
 15 34  1  0
 34 35  1  0
 11  6  1  0
 35 12  1  0
 27 20  1  0
 33 28  1  0
 26 21  1  0
  1 36  1  0
  1 37  1  0
  1 38  1  0
  2 39  1  0
  2 40  1  0
  7 41  1  0
  8 42  1  0
  9 43  1  0
 10 44  1  0
 11 45  1  0
 12 46  1  0
 13 47  1  0
 13 48  1  0
 14 49  1  0
 14 50  1  0
 18 51  1  1
 19 52  1  0
 19 53  1  0
 20 54  1  1
 22 55  1  0
 23 56  1  0
 24 57  1  0
 25 58  1  0
 27 59  1  1
 29 60  1  0
 30 61  1  0
 31 62  1  0
 32 63  1  0
 33 64  1  0
 34 65  1  0
 34 66  1  0
 35 67  1  0
 35 68  1  0
M  END
>  <smiles>  (174) 
CCC(=O)N(c1ccccc1)C1CCN(C(=O)[C@@H](N)C2c3ccccc3C2c2ccccc2)CC1

>  <score_type>  (174) 
oracle

>  <origin>  (174) 
autodockgpu

>  <m_score__min__energy>  (174) 
-9.6500000000000004

>  <m_primary>  (174) 
energy

>  <rmsd>  (174) 
7.065091822451205

>  <m_score__min__rmsd>  (174) 
7.065091822451205

>  <meeko>  (174) 
{"free_energy": -7.02, "intermolecular_energy": -9.4, "internal_energy": -4.3, "cluster_size": 30, "cluster_id": 2, "rank_in_cluster": 16}

>  <energy>  (174) 
-7.02

>  <cluster_rmsd>  (174) 
0.49

>  <cluster>  (174) 
2

$$$$

     RDKit          3D

 68 72  0  0  0  0  0  0  0  0999 V2000
  136.0840   82.0890  224.6470 C   0  0  0  0  0  0  0  0  0  0  0  0
  136.5720   81.1940  223.5240 C   0  0  0  0  0  0  0  0  0  0  0  0
  137.8120   80.4900  223.9620 C   0  0  0  0  0  0  0  0  0  0  0  0
  138.0790   80.5910  225.2060 O   0  0  0  0  0  0  0  0  0  0  0  0
  138.6420   79.7590  223.0660 N   0  0  0  0  0  0  0  0  0  0  0  0
  140.0420   79.9850  223.1330 C   0  0  0  0  0  0  0  0  0  0  0  0
  140.6350   81.2080  222.9040 C   0  0  0  0  0  0  0  0  0  0  0  0
  142.0250   81.3280  222.9920 C   0  0  0  0  0  0  0  0  0  0  0  0
  142.8310   80.2460  223.3050 C   0  0  0  0  0  0  0  0  0  0  0  0
  142.2350   79.0140  223.5350 C   0  0  0  0  0  0  0  0  0  0  0  0
  140.8670   78.9290  223.4420 C   0  0  0  0  0  0  0  0  0  0  0  0
  138.0100   78.8400  222.1650 C   0  0  0  0  0  0  0  0  0  0  0  0
  138.0220   77.4150  222.5820 C   0  0  0  0  0  0  0  0  0  0  0  0
  139.1790   76.6120  221.9380 C   0  0  0  0  0  0  0  0  0  0  0  0
  138.9850   76.5830  220.5180 N   0  0  0  0  0  0  0  0  0  0  0  0
  139.4020   75.6680  219.5620 C   0  0  0  0  0  0  0  0  0  0  0  0
  139.0530   75.9660  218.3290 O   0  0  0  0  0  0  0  0  0  0  0  0
  140.1610   74.4280  219.6480 C   0  0  1  0  0  0  0  0  0  0  0  0
  140.6470   74.1550  218.2780 N   0  0  0  0  0  0  0  0  0  0  0  0
  141.2110   74.2590  220.6640 C   0  0  1  0  0  0  0  0  0  0  0  0
  142.3230   73.3590  220.3760 C   0  0  0  0  0  0  0  0  0  0  0  0
  142.7960   72.0910  220.0440 C   0  0  0  0  0  0  0  0  0  0  0  0
  144.1400   71.8680  219.9150 C   0  0  0  0  0  0  0  0  0  0  0  0
  145.0940   72.8500  220.0980 C   0  0  0  0  0  0  0  0  0  0  0  0
  144.6270   74.1230  220.4300 C   0  0  0  0  0  0  0  0  0  0  0  0
  143.2740   74.3310  220.5560 C   0  0  0  0  0  0  0  0  0  0  0  0
  142.2100   75.3420  220.8400 C   0  0  1  0  0  0  0  0  0  0  0  0
  142.2670   76.4710  219.9160 C   0  0  0  0  0  0  0  0  0  0  0  0
  141.8380   77.7520  220.1870 C   0  0  0  0  0  0  0  0  0  0  0  0
  141.9260   78.7780  219.2670 C   0  0  0  0  0  0  0  0  0  0  0  0
  142.4630   78.5400  218.0140 C   0  0  0  0  0  0  0  0  0  0  0  0
  142.9050   77.2660  217.7090 C   0  0  0  0  0  0  0  0  0  0  0  0
  142.8040   76.2630  218.6430 C   0  0  0  0  0  0  0  0  0  0  0  0
  138.2090   77.7620  220.0130 C   0  0  0  0  0  0  0  0  0  0  0  0
  138.7480   78.9220  220.8270 C   0  0  0  0  0  0  0  0  0  0  0  0
  136.3336   81.6312  225.6155 H   0  0  0  0  0  0  0  0  0  0  0  0
  136.5708   83.0724  224.5700 H   0  0  0  0  0  0  0  0  0  0  0  0
  134.9937   82.2125  224.5700 H   0  0  0  0  0  0  0  0  0  0  0  0
  135.7957   80.4541  223.2794 H   0  0  0  0  0  0  0  0  0  0  0  0
  136.7873   81.8025  222.6333 H   0  0  0  0  0  0  0  0  0  0  0  0
  140.0185   82.0839  222.6536 H   0  0  0  0  0  0  0  0  0  0  0  0
  142.4908   82.3074  222.8079 H   0  0  0  0  0  0  0  0  0  0  0  0
  143.9230   80.3610  223.3700 H   0  0  0  0  0  0  0  0  0  0  0  0
  142.8408   78.1305  223.7847 H   0  0  0  0  0  0  0  0  0  0  0  0
  140.4001   77.9504  223.6272 H   0  0  0  0  0  0  0  0  0  0  0  0
  136.9527   79.1411  222.1254 H   0  0  0  0  0  0  0  0  0  0  0  0
  138.1287   77.3696  223.6759 H   0  0  0  0  0  0  0  0  0  0  0  0
  137.0772   76.9631  222.2456 H   0  0  0  0  0  0  0  0  0  0  0  0
  140.1392   77.0957  222.1704 H   0  0  0  0  0  0  0  0  0  0  0  0
  139.1894   75.5864  222.3354 H   0  0  0  0  0  0  0  0  0  0  0  0
  139.4568   73.6825  220.0458 H   0  0  0  0  0  0  0  0  0  0  0  0
  139.9590   73.5450  217.7900 H   0  0  0  0  0  0  0  0  0  0  0  0
  140.9280   75.0010  217.7750 H   0  0  0  0  0  0  0  0  0  0  0  0
  140.4757   74.0266  221.4484 H   0  0  0  0  0  0  0  0  0  0  0  0
  142.0861   71.2659  219.8850 H   0  0  0  0  0  0  0  0  0  0  0  0
  144.4779   70.8547  219.6521 H   0  0  0  0  0  0  0  0  0  0  0  0
  146.1680   72.6395  219.9877 H   0  0  0  0  0  0  0  0  0  0  0  0
  145.3340   74.9506  220.5890 H   0  0  0  0  0  0  0  0  0  0  0  0
  142.1350   75.9542  221.7508 H   0  0  0  0  0  0  0  0  0  0  0  0
  141.4079   77.9661  221.1765 H   0  0  0  0  0  0  0  0  0  0  0  0
  141.5692   79.7847  219.5302 H   0  0  0  0  0  0  0  0  0  0  0  0
  142.5369   79.3502  217.2737 H   0  0  0  0  0  0  0  0  0  0  0  0
  143.3371   77.0554  216.7196 H   0  0  0  0  0  0  0  0  0  0  0  0
  143.1600   75.2565  218.3779 H   0  0  0  0  0  0  0  0  0  0  0  0
  138.3888   77.9192  218.9392 H   0  0  0  0  0  0  0  0  0  0  0  0
  137.1217   77.6345  220.1204 H   0  0  0  0  0  0  0  0  0  0  0  0
  139.8329   78.8190  220.9764 H   0  0  0  0  0  0  0  0  0  0  0  0
  138.5907   79.8884  220.3256 H   0  0  0  0  0  0  0  0  0  0  0  0
  1  2  1  0
  2  3  1  0
  3  4  2  0
  3  5  1  0
  5  6  1  0
  6  7  2  0
  7  8  1  0
  8  9  2  0
  9 10  1  0
 10 11  2  0
  5 12  1  0
 12 13  1  0
 13 14  1  0
 14 15  1  0
 15 16  1  0
 16 17  2  0
 16 18  1  0
 18 19  1  0
 18 20  1  0
 20 21  1  0
 21 22  2  0
 22 23  1  0
 23 24  2  0
 24 25  1  0
 25 26  2  0
 26 27  1  0
 27 28  1  0
 28 29  2  0
 29 30  1  0
 30 31  2  0
 31 32  1  0
 32 33  2  0
 15 34  1  0
 34 35  1  0
 11  6  1  0
 35 12  1  0
 27 20  1  0
 33 28  1  0
 26 21  1  0
  1 36  1  0
  1 37  1  0
  1 38  1  0
  2 39  1  0
  2 40  1  0
  7 41  1  0
  8 42  1  0
  9 43  1  0
 10 44  1  0
 11 45  1  0
 12 46  1  0
 13 47  1  0
 13 48  1  0
 14 49  1  0
 14 50  1  0
 18 51  1  1
 19 52  1  0
 19 53  1  0
 20 54  1  1
 22 55  1  0
 23 56  1  0
 24 57  1  0
 25 58  1  0
 27 59  1  1
 29 60  1  0
 30 61  1  0
 31 62  1  0
 32 63  1  0
 33 64  1  0
 34 65  1  0
 34 66  1  0
 35 67  1  0
 35 68  1  0
M  END
>  <smiles>  (175) 
CCC(=O)N(c1ccccc1)C1CCN(C(=O)[C@@H](N)C2c3ccccc3C2c2ccccc2)CC1

>  <score_type>  (175) 
oracle

>  <origin>  (175) 
autodockgpu

>  <m_score__min__energy>  (175) 
-9.6500000000000004

>  <m_primary>  (175) 
energy

>  <rmsd>  (175) 
7.05702814192684

>  <m_score__min__rmsd>  (175) 
7.05702814192684

>  <meeko>  (175) 
{"free_energy": -6.89, "intermolecular_energy": -9.28, "internal_energy": -4.33, "cluster_size": 30, "cluster_id": 2, "rank_in_cluster": 28}

>  <energy>  (175) 
-7.02

>  <cluster_rmsd>  (175) 
0.31

>  <cluster>  (175) 
2

$$$$

     RDKit          3D

 68 72  0  0  0  0  0  0  0  0999 V2000
  137.0650   81.3840  225.6690 C   0  0  0  0  0  0  0  0  0  0  0  0
  138.1120   81.1730  224.5910 C   0  0  0  0  0  0  0  0  0  0  0  0
  137.6920   80.0430  223.7130 C   0  0  0  0  0  0  0  0  0  0  0  0
  136.4580   79.7280  223.7940 O   0  0  0  0  0  0  0  0  0  0  0  0
  138.5930   79.3620  222.8470 N   0  0  0  0  0  0  0  0  0  0  0  0
  139.9660   79.7130  222.9170 C   0  0  0  0  0  0  0  0  0  0  0  0
  140.4770   80.9100  222.4640 C   0  0  0  0  0  0  0  0  0  0  0  0
  141.8480   81.1610  222.5770 C   0  0  0  0  0  0  0  0  0  0  0  0
  142.7150   80.2350  223.1330 C   0  0  0  0  0  0  0  0  0  0  0  0
  142.2010   79.0290  223.5880 C   0  0  0  0  0  0  0  0  0  0  0  0
  140.8510   78.8130  223.4650 C   0  0  0  0  0  0  0  0  0  0  0  0
  138.0530   78.3640  221.9710 C   0  0  0  0  0  0  0  0  0  0  0  0
  138.1830   76.9590  222.4330 C   0  0  0  0  0  0  0  0  0  0  0  0
  139.4130   76.2390  221.8270 C   0  0  0  0  0  0  0  0  0  0  0  0
  139.2400   76.1480  220.4070 N   0  0  0  0  0  0  0  0  0  0  0  0
  139.7450   75.2440  219.4850 C   0  0  0  0  0  0  0  0  0  0  0  0
  139.3870   75.4720  218.2390 O   0  0  0  0  0  0  0  0  0  0  0  0
  140.6080   74.0780  219.6170 C   0  0  1  0  0  0  0  0  0  0  0  0
  141.1270   73.8020  218.2610 N   0  0  0  0  0  0  0  0  0  0  0  0
  141.6600   74.0350  220.6450 C   0  0  1  0  0  0  0  0  0  0  0  0
  142.8360   73.2040  220.4050 C   0  0  0  0  0  0  0  0  0  0  0  0
  143.4010   71.9580  220.1390 C   0  0  0  0  0  0  0  0  0  0  0  0
  144.7570   71.8260  220.0260 C   0  0  0  0  0  0  0  0  0  0  0  0
  145.6380   72.8810  220.1630 C   0  0  0  0  0  0  0  0  0  0  0  0
  145.0790   74.1320  220.4290 C   0  0  0  0  0  0  0  0  0  0  0  0
  143.7140   74.2500  220.5390 C   0  0  0  0  0  0  0  0  0  0  0  0
  142.5780   75.1940  220.7690 C   0  0  1  0  0  0  0  0  0  0  0  0
  142.5610   76.2780  219.7900 C   0  0  0  0  0  0  0  0  0  0  0  0
  143.0130   76.1940  218.4920 C   0  0  0  0  0  0  0  0  0  0  0  0
  142.9620   77.2590  217.6150 C   0  0  0  0  0  0  0  0  0  0  0  0
  142.4390   78.4720  218.0280 C   0  0  0  0  0  0  0  0  0  0  0  0
  141.9740   78.5910  219.3240 C   0  0  0  0  0  0  0  0  0  0  0  0
  142.0390   77.5150  220.1770 C   0  0  0  0  0  0  0  0  0  0  0  0
  138.3710   77.2400  219.8560 C   0  0  0  0  0  0  0  0  0  0  0  0
  138.7980   78.4670  220.6380 C   0  0  0  0  0  0  0  0  0  0  0  0
  137.5342   81.2894  226.6594 H   0  0  0  0  0  0  0  0  0  0  0  0
  136.6284   82.3882  225.5645 H   0  0  0  0  0  0  0  0  0  0  0  0
  136.2735   80.6273  225.5645 H   0  0  0  0  0  0  0  0  0  0  0  0
  138.2106   82.0889  223.9898 H   0  0  0  0  0  0  0  0  0  0  0  0
  139.0801   80.9381  225.0574 H   0  0  0  0  0  0  0  0  0  0  0  0
  139.8111   81.6627  222.0167 H   0  0  0  0  0  0  0  0  0  0  0  0
  142.2485   82.1193  222.2147 H   0  0  0  0  0  0  0  0  0  0  0  0
  143.7906   80.4514  223.2124 H   0  0  0  0  0  0  0  0  0  0  0  0
  142.8570   78.2674  224.0347 H   0  0  0  0  0  0  0  0  0  0  0  0
  140.4495   77.8558  223.8291 H   0  0  0  0  0  0  0  0  0  0  0  0
  136.9743   78.5714  221.9128 H   0  0  0  0  0  0  0  0  0  0  0  0
  138.2792   76.9569  223.5288 H   0  0  0  0  0  0  0  0  0  0  0  0
  137.2853   76.4169  222.1010 H   0  0  0  0  0  0  0  0  0  0  0  0
  140.3250   76.8112  222.0527 H   0  0  0  0  0  0  0  0  0  0  0  0
  139.5068   75.2313  222.2580 H   0  0  0  0  0  0  0  0  0  0  0  0
  139.9676   73.2876  220.0355 H   0  0  0  0  0  0  0  0  0  0  0  0
  140.4930   73.1250  217.7860 H   0  0  0  0  0  0  0  0  0  0  0  0
  141.3470   74.6500  217.7330 H   0  0  0  0  0  0  0  0  0  0  0  0
  140.9383   73.7897  221.4380 H   0  0  0  0  0  0  0  0  0  0  0  0
  142.7531   71.0771  220.0195 H   0  0  0  0  0  0  0  0  0  0  0  0
  145.1679   70.8277  219.8150 H   0  0  0  0  0  0  0  0  0  0  0  0
  146.7250   72.7423  220.0673 H   0  0  0  0  0  0  0  0  0  0  0  0
  145.7244   75.0146  220.5494 H   0  0  0  0  0  0  0  0  0  0  0  0
  142.4525   75.8434  221.6479 H   0  0  0  0  0  0  0  0  0  0  0  0
  143.4316   75.2397  218.1396 H   0  0  0  0  0  0  0  0  0  0  0  0
  143.3373   77.1434  216.5875 H   0  0  0  0  0  0  0  0  0  0  0  0
  142.3942   79.3265  217.3367 H   0  0  0  0  0  0  0  0  0  0  0  0
  141.5525   79.5454  219.6725 H   0  0  0  0  0  0  0  0  0  0  0  0
  141.6653   77.6324  221.2049 H   0  0  0  0  0  0  0  0  0  0  0  0
  138.5502   77.3787  218.7796 H   0  0  0  0  0  0  0  0  0  0  0  0
  137.2974   77.0224  219.9563 H   0  0  0  0  0  0  0  0  0  0  0  0
  139.8858   78.4625  220.8014 H   0  0  0  0  0  0  0  0  0  0  0  0
  138.5643   79.4000  220.1043 H   0  0  0  0  0  0  0  0  0  0  0  0
  1  2  1  0
  2  3  1  0
  3  4  2  0
  3  5  1  0
  5  6  1  0
  6  7  2  0
  7  8  1  0
  8  9  2  0
  9 10  1  0
 10 11  2  0
  5 12  1  0
 12 13  1  0
 13 14  1  0
 14 15  1  0
 15 16  1  0
 16 17  2  0
 16 18  1  0
 18 19  1  0
 18 20  1  0
 20 21  1  0
 21 22  2  0
 22 23  1  0
 23 24  2  0
 24 25  1  0
 25 26  2  0
 26 27  1  0
 27 28  1  0
 28 29  2  0
 29 30  1  0
 30 31  2  0
 31 32  1  0
 32 33  2  0
 15 34  1  0
 34 35  1  0
 11  6  1  0
 35 12  1  0
 27 20  1  0
 33 28  1  0
 26 21  1  0
  1 36  1  0
  1 37  1  0
  1 38  1  0
  2 39  1  0
  2 40  1  0
  7 41  1  0
  8 42  1  0
  9 43  1  0
 10 44  1  0
 11 45  1  0
 12 46  1  0
 13 47  1  0
 13 48  1  0
 14 49  1  0
 14 50  1  0
 18 51  1  1
 19 52  1  0
 19 53  1  0
 20 54  1  1
 22 55  1  0
 23 56  1  0
 24 57  1  0
 25 58  1  0
 27 59  1  1
 29 60  1  0
 30 61  1  0
 31 62  1  0
 32 63  1  0
 33 64  1  0
 34 65  1  0
 34 66  1  0
 35 67  1  0
 35 68  1  0
M  END
>  <smiles>  (176) 
CCC(=O)N(c1ccccc1)C1CCN(C(=O)[C@@H](N)C2c3ccccc3C2c2ccccc2)CC1

>  <score_type>  (176) 
oracle

>  <origin>  (176) 
autodockgpu

>  <m_score__min__energy>  (176) 
-9.6500000000000004

>  <m_primary>  (176) 
energy

>  <rmsd>  (176) 
7.087089527048491

>  <m_score__min__rmsd>  (176) 
7.087089527048491

>  <meeko>  (176) 
{"free_energy": -7.05, "intermolecular_energy": -9.43, "internal_energy": -4.37, "cluster_size": 30, "cluster_id": 2, "rank_in_cluster": 4}

>  <energy>  (176) 
-7.02

>  <cluster_rmsd>  (176) 
0.56

>  <cluster>  (176) 
2

$$$$

     RDKit          3D

 68 72  0  0  0  0  0  0  0  0999 V2000
  137.0540   81.4740  225.6980 C   0  0  0  0  0  0  0  0  0  0  0  0
  138.0820   81.2470  224.6040 C   0  0  0  0  0  0  0  0  0  0  0  0
  137.6470   80.1030  223.7530 C   0  0  0  0  0  0  0  0  0  0  0  0
  136.4000   79.8340  223.8050 O   0  0  0  0  0  0  0  0  0  0  0  0
  138.5480   79.3600  222.9390 N   0  0  0  0  0  0  0  0  0  0  0  0
  139.9280   79.6820  223.0210 C   0  0  0  0  0  0  0  0  0  0  0  0
  140.8260   79.0150  223.8280 C   0  0  0  0  0  0  0  0  0  0  0  0
  142.1670   79.4100  223.8390 C   0  0  0  0  0  0  0  0  0  0  0  0
  142.6250   80.4590  223.0600 C   0  0  0  0  0  0  0  0  0  0  0  0
  141.7210   81.1320  222.2490 C   0  0  0  0  0  0  0  0  0  0  0  0
  140.4110   80.7190  222.2580 C   0  0  0  0  0  0  0  0  0  0  0  0
  138.0030   78.3340  222.0990 C   0  0  0  0  0  0  0  0  0  0  0  0
  138.2040   76.9400  222.5670 C   0  0  0  0  0  0  0  0  0  0  0  0
  139.4280   76.2570  221.9090 C   0  0  0  0  0  0  0  0  0  0  0  0
  139.1890   76.1440  220.5000 N   0  0  0  0  0  0  0  0  0  0  0  0
  139.6810   75.2480  219.5630 C   0  0  0  0  0  0  0  0  0  0  0  0
  139.2550   75.4490  218.3340 O   0  0  0  0  0  0  0  0  0  0  0  0
  140.5900   74.1140  219.6640 C   0  0  1  0  0  0  0  0  0  0  0  0
  141.1230   73.8990  218.3020 N   0  0  0  0  0  0  0  0  0  0  0  0
  141.6400   74.0820  220.6940 C   0  0  1  0  0  0  0  0  0  0  0  0
  142.8280   73.2700  220.4540 C   0  0  0  0  0  0  0  0  0  0  0  0
  143.4120   72.0330  220.1850 C   0  0  0  0  0  0  0  0  0  0  0  0
  144.7710   71.9220  220.0740 C   0  0  0  0  0  0  0  0  0  0  0  0
  145.6350   72.9900  220.2170 C   0  0  0  0  0  0  0  0  0  0  0  0
  145.0580   74.2320  220.4870 C   0  0  0  0  0  0  0  0  0  0  0  0
  143.6900   74.3280  220.5950 C   0  0  0  0  0  0  0  0  0  0  0  0
  142.5410   75.2550  220.8260 C   0  0  1  0  0  0  0  0  0  0  0  0
  142.5090   76.3420  219.8510 C   0  0  0  0  0  0  0  0  0  0  0  0
  142.9870   76.2770  218.5610 C   0  0  0  0  0  0  0  0  0  0  0  0
  142.9200   77.3440  217.6870 C   0  0  0  0  0  0  0  0  0  0  0  0
  142.3550   78.5390  218.0950 C   0  0  0  0  0  0  0  0  0  0  0  0
  141.8640   78.6390  219.3840 C   0  0  0  0  0  0  0  0  0  0  0  0
  141.9450   77.5610  220.2330 C   0  0  0  0  0  0  0  0  0  0  0  0
  138.2570   77.1990  219.9820 C   0  0  0  0  0  0  0  0  0  0  0  0
  138.6780   78.4490  220.7310 C   0  0  0  0  0  0  0  0  0  0  0  0
  137.5354   81.3677  226.6813 H   0  0  0  0  0  0  0  0  0  0  0  0
  136.6345   82.4864  225.6026 H   0  0  0  0  0  0  0  0  0  0  0  0
  136.2472   80.7324  225.6026 H   0  0  0  0  0  0  0  0  0  0  0  0
  138.1683   82.1531  223.9864 H   0  0  0  0  0  0  0  0  0  0  0  0
  139.0591   81.0211  225.0559 H   0  0  0  0  0  0  0  0  0  0  0  0
  140.4895   78.1786  224.4582 H   0  0  0  0  0  0  0  0  0  0  0  0
  142.8777   78.8727  224.4842 H   0  0  0  0  0  0  0  0  0  0  0  0
  143.6846   80.7535  223.0831 H   0  0  0  0  0  0  0  0  0  0  0  0
  142.0447   81.9722  221.6171 H   0  0  0  0  0  0  0  0  0  0  0  0
  139.7002   81.2540  221.6111 H   0  0  0  0  0  0  0  0  0  0  0  0
  136.9160   78.5026  222.0910 H   0  0  0  0  0  0  0  0  0  0  0  0
  138.3525   76.9531  223.6569 H   0  0  0  0  0  0  0  0  0  0  0  0
  137.3110   76.3635  222.2839 H   0  0  0  0  0  0  0  0  0  0  0  0
  140.3288   76.8635  222.0842 H   0  0  0  0  0  0  0  0  0  0  0  0
  139.5791   75.2584  222.3448 H   0  0  0  0  0  0  0  0  0  0  0  0
  139.9806   73.2869  220.0572 H   0  0  0  0  0  0  0  0  0  0  0  0
  140.5590   73.1630  217.8290 H   0  0  0  0  0  0  0  0  0  0  0  0
  141.2500   74.7680  217.7780 H   0  0  0  0  0  0  0  0  0  0  0  0
  140.9198   73.8223  221.4838 H   0  0  0  0  0  0  0  0  0  0  0  0
  142.7777   71.1429  220.0615 H   0  0  0  0  0  0  0  0  0  0  0  0
  145.1976   70.9310  219.8598 H   0  0  0  0  0  0  0  0  0  0  0  0
  146.7241   72.8679  220.1227 H   0  0  0  0  0  0  0  0  0  0  0  0
  145.6899   75.1237  220.6120 H   0  0  0  0  0  0  0  0  0  0  0  0
  142.4053   75.8992  221.7072 H   0  0  0  0  0  0  0  0  0  0  0  0
  143.4404   75.3372  218.2129 H   0  0  0  0  0  0  0  0  0  0  0  0
  143.3161   77.2437  216.6657 H   0  0  0  0  0  0  0  0  0  0  0  0
  142.2973   79.3947  217.4062 H   0  0  0  0  0  0  0  0  0  0  0  0
  141.4095   79.5794  219.7292 H   0  0  0  0  0  0  0  0  0  0  0  0
  141.5496   77.6627  221.2544 H   0  0  0  0  0  0  0  0  0  0  0  0
  138.3791   77.3319  218.8969 H   0  0  0  0  0  0  0  0  0  0  0  0
  137.1978   76.9456  220.1365 H   0  0  0  0  0  0  0  0  0  0  0  0
  139.7719   78.4844  220.8409 H   0  0  0  0  0  0  0  0  0  0  0  0
  138.3859   79.3676  220.2010 H   0  0  0  0  0  0  0  0  0  0  0  0
  1  2  1  0
  2  3  1  0
  3  4  2  0
  3  5  1  0
  5  6  1  0
  6  7  2  0
  7  8  1  0
  8  9  2  0
  9 10  1  0
 10 11  2  0
  5 12  1  0
 12 13  1  0
 13 14  1  0
 14 15  1  0
 15 16  1  0
 16 17  2  0
 16 18  1  0
 18 19  1  0
 18 20  1  0
 20 21  1  0
 21 22  2  0
 22 23  1  0
 23 24  2  0
 24 25  1  0
 25 26  2  0
 26 27  1  0
 27 28  1  0
 28 29  2  0
 29 30  1  0
 30 31  2  0
 31 32  1  0
 32 33  2  0
 15 34  1  0
 34 35  1  0
 11  6  1  0
 35 12  1  0
 27 20  1  0
 33 28  1  0
 26 21  1  0
  1 36  1  0
  1 37  1  0
  1 38  1  0
  2 39  1  0
  2 40  1  0
  7 41  1  0
  8 42  1  0
  9 43  1  0
 10 44  1  0
 11 45  1  0
 12 46  1  0
 13 47  1  0
 13 48  1  0
 14 49  1  0
 14 50  1  0
 18 51  1  1
 19 52  1  0
 19 53  1  0
 20 54  1  1
 22 55  1  0
 23 56  1  0
 24 57  1  0
 25 58  1  0
 27 59  1  1
 29 60  1  0
 30 61  1  0
 31 62  1  0
 32 63  1  0
 33 64  1  0
 34 65  1  0
 34 66  1  0
 35 67  1  0
 35 68  1  0
M  END
>  <smiles>  (177) 
CCC(=O)N(c1ccccc1)C1CCN(C(=O)[C@@H](N)C2c3ccccc3C2c2ccccc2)CC1

>  <score_type>  (177) 
oracle

>  <origin>  (177) 
autodockgpu

>  <m_score__min__energy>  (177) 
-9.6500000000000004

>  <m_primary>  (177) 
energy

>  <rmsd>  (177) 
7.084320985915799

>  <m_score__min__rmsd>  (177) 
7.084320985915799

>  <meeko>  (177) 
{"free_energy": -7.02, "intermolecular_energy": -9.41, "internal_energy": -4.35, "cluster_size": 30, "cluster_id": 2, "rank_in_cluster": 13}

>  <energy>  (177) 
-7.01

>  <cluster_rmsd>  (177) 
0.13

>  <cluster>  (177) 
2

$$$$

     RDKit          3D

 68 72  0  0  0  0  0  0  0  0999 V2000
  135.3880   79.4890  223.8570 C   0  0  0  0  0  0  0  0  0  0  0  0
  136.3560   80.5750  223.4260 C   0  0  0  0  0  0  0  0  0  0  0  0
  137.7390   80.1860  223.8260 C   0  0  0  0  0  0  0  0  0  0  0  0
  138.0690   80.5130  225.0150 O   0  0  0  0  0  0  0  0  0  0  0  0
  138.6320   79.5020  222.9530 N   0  0  0  0  0  0  0  0  0  0  0  0
  140.0130   79.8160  223.0460 C   0  0  0  0  0  0  0  0  0  0  0  0
  140.5360   81.0630  222.7800 C   0  0  0  0  0  0  0  0  0  0  0  0
  141.9140   81.2720  222.8980 C   0  0  0  0  0  0  0  0  0  0  0  0
  142.7750   80.2560  223.2770 C   0  0  0  0  0  0  0  0  0  0  0  0
  142.2490   79.0000  223.5430 C   0  0  0  0  0  0  0  0  0  0  0  0
  140.8920   78.8260  223.4190 C   0  0  0  0  0  0  0  0  0  0  0  0
  138.0770   78.5380  222.0490 C   0  0  0  0  0  0  0  0  0  0  0  0
  138.1290   77.1240  222.4990 C   0  0  0  0  0  0  0  0  0  0  0  0
  139.3450   76.3560  221.9250 C   0  0  0  0  0  0  0  0  0  0  0  0
  139.2140   76.2870  220.4990 N   0  0  0  0  0  0  0  0  0  0  0  0
  139.7080   75.3700  219.5830 C   0  0  0  0  0  0  0  0  0  0  0  0
  139.4010   75.6260  218.3290 O   0  0  0  0  0  0  0  0  0  0  0  0
  140.5140   74.1660  219.7300 C   0  0  1  0  0  0  0  0  0  0  0  0
  140.9800   73.8210  218.3700 N   0  0  0  0  0  0  0  0  0  0  0  0
  141.5900   74.0990  220.7310 C   0  0  1  0  0  0  0  0  0  0  0  0
  142.7310   73.2270  220.4710 C   0  0  0  0  0  0  0  0  0  0  0  0
  143.2490   71.9610  220.2040 C   0  0  0  0  0  0  0  0  0  0  0  0
  144.5970   71.7830  220.0580 C   0  0  0  0  0  0  0  0  0  0  0  0
  145.5140   72.8110  220.1610 C   0  0  0  0  0  0  0  0  0  0  0  0
  145.0030   74.0820  220.4280 C   0  0  0  0  0  0  0  0  0  0  0  0
  143.6460   74.2450  220.5710 C   0  0  0  0  0  0  0  0  0  0  0  0
  142.5480   75.2280  220.8200 C   0  0  1  0  0  0  0  0  0  0  0  0
  142.5400   76.3020  219.8300 C   0  0  0  0  0  0  0  0  0  0  0  0
  142.9710   76.1950  218.5260 C   0  0  0  0  0  0  0  0  0  0  0  0
  142.9310   77.2520  217.6380 C   0  0  0  0  0  0  0  0  0  0  0  0
  142.4410   78.4800  218.0460 C   0  0  0  0  0  0  0  0  0  0  0  0
  141.9980   78.6230  219.3470 C   0  0  0  0  0  0  0  0  0  0  0  0
  142.0520   77.5540  220.2110 C   0  0  0  0  0  0  0  0  0  0  0  0
  138.4130   77.4220  219.9330 C   0  0  0  0  0  0  0  0  0  0  0  0
  138.8680   78.6210  220.7420 C   0  0  0  0  0  0  0  0  0  0  0  0
  135.3501   79.4465  224.9555 H   0  0  0  0  0  0  0  0  0  0  0  0
  134.3856   79.7142  223.4640 H   0  0  0  0  0  0  0  0  0  0  0  0
  135.7265   78.5190  223.4640 H   0  0  0  0  0  0  0  0  0  0  0  0
  136.3095   80.6970  222.3338 H   0  0  0  0  0  0  0  0  0  0  0  0
  136.0848   81.5250  223.9096 H   0  0  0  0  0  0  0  0  0  0  0  0
  139.8745   81.8880  222.4771 H   0  0  0  0  0  0  0  0  0  0  0  0
  142.3245   82.2699  222.6841 H   0  0  0  0  0  0  0  0  0  0  0  0
  143.8557   80.4412  223.3655 H   0  0  0  0  0  0  0  0  0  0  0  0
  142.9005   78.1667  223.8448 H   0  0  0  0  0  0  0  0  0  0  0  0
  140.4809   77.8282  223.6323 H   0  0  0  0  0  0  0  0  0  0  0  0
  137.0110   78.7940  221.9588 H   0  0  0  0  0  0  0  0  0  0  0  0
  138.1889   77.1066  223.5972 H   0  0  0  0  0  0  0  0  0  0  0  0
  137.2194   76.6260  222.1320 H   0  0  0  0  0  0  0  0  0  0  0  0
  140.2735   76.8848  222.1862 H   0  0  0  0  0  0  0  0  0  0  0  0
  139.3805   75.3410  222.3475 H   0  0  0  0  0  0  0  0  0  0  0  0
  139.8459   73.4238  220.1912 H   0  0  0  0  0  0  0  0  0  0  0  0
  140.2630   73.2270  217.9060 H   0  0  0  0  0  0  0  0  0  0  0  0
  141.2980   74.6340  217.8360 H   0  0  0  0  0  0  0  0  0  0  0  0
  140.8808   73.8860  221.5444 H   0  0  0  0  0  0  0  0  0  0  0  0
  142.5701   71.1006  220.1102 H   0  0  0  0  0  0  0  0  0  0  0  0
  144.9701   70.7697  219.8479 H   0  0  0  0  0  0  0  0  0  0  0  0
  146.5932   72.6365  220.0387 H   0  0  0  0  0  0  0  0  0  0  0  0
  145.6794   74.9443  220.5230 H   0  0  0  0  0  0  0  0  0  0  0  0
  142.4674   75.8895  221.6952 H   0  0  0  0  0  0  0  0  0  0  0  0
  143.3631   75.2281  218.1777 H   0  0  0  0  0  0  0  0  0  0  0  0
  143.2887   77.1176  216.6065 H   0  0  0  0  0  0  0  0  0  0  0  0
  142.4047   79.3281  217.3464 H   0  0  0  0  0  0  0  0  0  0  0  0
  141.6028   79.5901  219.6912 H   0  0  0  0  0  0  0  0  0  0  0  0
  141.6967   77.6906  221.2430 H   0  0  0  0  0  0  0  0  0  0  0  0
  138.6333   77.5632  218.8646 H   0  0  0  0  0  0  0  0  0  0  0  0
  137.3281   77.2516  219.9964 H   0  0  0  0  0  0  0  0  0  0  0  0
  139.9487   78.5668  220.9397 H   0  0  0  0  0  0  0  0  0  0  0  0
  138.6927   79.5687  220.2117 H   0  0  0  0  0  0  0  0  0  0  0  0
  1  2  1  0
  2  3  1  0
  3  4  2  0
  3  5  1  0
  5  6  1  0
  6  7  2  0
  7  8  1  0
  8  9  2  0
  9 10  1  0
 10 11  2  0
  5 12  1  0
 12 13  1  0
 13 14  1  0
 14 15  1  0
 15 16  1  0
 16 17  2  0
 16 18  1  0
 18 19  1  0
 18 20  1  0
 20 21  1  0
 21 22  2  0
 22 23  1  0
 23 24  2  0
 24 25  1  0
 25 26  2  0
 26 27  1  0
 27 28  1  0
 28 29  2  0
 29 30  1  0
 30 31  2  0
 31 32  1  0
 32 33  2  0
 15 34  1  0
 34 35  1  0
 11  6  1  0
 35 12  1  0
 27 20  1  0
 33 28  1  0
 26 21  1  0
  1 36  1  0
  1 37  1  0
  1 38  1  0
  2 39  1  0
  2 40  1  0
  7 41  1  0
  8 42  1  0
  9 43  1  0
 10 44  1  0
 11 45  1  0
 12 46  1  0
 13 47  1  0
 13 48  1  0
 14 49  1  0
 14 50  1  0
 18 51  1  1
 19 52  1  0
 19 53  1  0
 20 54  1  1
 22 55  1  0
 23 56  1  0
 24 57  1  0
 25 58  1  0
 27 59  1  1
 29 60  1  0
 30 61  1  0
 31 62  1  0
 32 63  1  0
 33 64  1  0
 34 65  1  0
 34 66  1  0
 35 67  1  0
 35 68  1  0
M  END
>  <smiles>  (178) 
CCC(=O)N(c1ccccc1)C1CCN(C(=O)[C@@H](N)C2c3ccccc3C2c2ccccc2)CC1

>  <score_type>  (178) 
oracle

>  <origin>  (178) 
autodockgpu

>  <m_score__min__energy>  (178) 
-9.6500000000000004

>  <m_primary>  (178) 
energy

>  <rmsd>  (178) 
7.054152016329559

>  <m_score__min__rmsd>  (178) 
7.054152016329559

>  <meeko>  (178) 
{"free_energy": -6.87, "intermolecular_energy": -9.26, "internal_energy": -4.42, "cluster_size": 30, "cluster_id": 2, "rank_in_cluster": 29}

>  <energy>  (178) 
-7.01

>  <cluster_rmsd>  (178) 
0.8

>  <cluster>  (178) 
2

$$$$

     RDKit          3D

 68 72  0  0  0  0  0  0  0  0999 V2000
  135.9000   80.9360  224.8950 C   0  0  0  0  0  0  0  0  0  0  0  0
  136.4810   80.1030  223.7680 C   0  0  0  0  0  0  0  0  0  0  0  0
  137.9700   80.1490  223.8420 C   0  0  0  0  0  0  0  0  0  0  0  0
  138.4420   80.9510  224.7150 O   0  0  0  0  0  0  0  0  0  0  0  0
  138.8100   79.3600  223.0050 N   0  0  0  0  0  0  0  0  0  0  0  0
  140.1980   79.6550  223.0010 C   0  0  0  0  0  0  0  0  0  0  0  0
  141.1660   78.8020  223.4840 C   0  0  0  0  0  0  0  0  0  0  0  0
  142.5100   79.1850  223.4360 C   0  0  0  0  0  0  0  0  0  0  0  0
  142.9010   80.4080  222.9140 C   0  0  0  0  0  0  0  0  0  0  0  0
  141.9260   81.2680  222.4280 C   0  0  0  0  0  0  0  0  0  0  0  0
  140.6150   80.8620  222.4880 C   0  0  0  0  0  0  0  0  0  0  0  0
  138.1980   78.3200  222.2320 C   0  0  0  0  0  0  0  0  0  0  0  0
  138.4380   76.9340  222.7080 C   0  0  0  0  0  0  0  0  0  0  0  0
  139.6050   76.2380  221.9650 C   0  0  0  0  0  0  0  0  0  0  0  0
  139.2520   76.0990  220.5830 N   0  0  0  0  0  0  0  0  0  0  0  0
  139.6670   75.1850  219.6250 C   0  0  0  0  0  0  0  0  0  0  0  0
  139.1420   75.3640  218.4320 O   0  0  0  0  0  0  0  0  0  0  0  0
  140.5820   74.0530  219.6730 C   0  0  1  0  0  0  0  0  0  0  0  0
  141.1010   73.8930  218.2990 N   0  0  0  0  0  0  0  0  0  0  0  0
  141.6430   73.9870  220.6900 C   0  0  1  0  0  0  0  0  0  0  0  0
  142.8240   73.1750  220.4140 C   0  0  0  0  0  0  0  0  0  0  0  0
  143.3980   71.9440  220.1030 C   0  0  0  0  0  0  0  0  0  0  0  0
  144.7550   71.8290  219.9750 C   0  0  0  0  0  0  0  0  0  0  0  0
  145.6270   72.8880  220.1380 C   0  0  0  0  0  0  0  0  0  0  0  0
  145.0590   74.1250  220.4500 C   0  0  0  0  0  0  0  0  0  0  0  0
  143.6930   74.2250  220.5750 C   0  0  0  0  0  0  0  0  0  0  0  0
  142.5510   75.1500  220.8450 C   0  0  1  0  0  0  0  0  0  0  0  0
  142.5140   76.2650  219.9020 C   0  0  0  0  0  0  0  0  0  0  0  0
  141.9900   77.5130  220.1540 C   0  0  0  0  0  0  0  0  0  0  0  0
  141.9930   78.5260  219.2160 C   0  0  0  0  0  0  0  0  0  0  0  0
  142.5380   78.3090  217.9640 C   0  0  0  0  0  0  0  0  0  0  0  0
  143.0750   77.0670  217.6760 C   0  0  0  0  0  0  0  0  0  0  0  0
  143.0570   76.0760  218.6280 C   0  0  0  0  0  0  0  0  0  0  0  0
  138.2800   77.1450  220.1230 C   0  0  0  0  0  0  0  0  0  0  0  0
  138.7600   78.4080  220.8110 C   0  0  0  0  0  0  0  0  0  0  0  0
  136.2003   80.5054  225.8617 H   0  0  0  0  0  0  0  0  0  0  0  0
  136.2759   81.9671  224.8203 H   0  0  0  0  0  0  0  0  0  0  0  0
  134.8025   80.9395  224.8203 H   0  0  0  0  0  0  0  0  0  0  0  0
  136.1397   79.0619  223.8662 H   0  0  0  0  0  0  0  0  0  0  0  0
  136.1463   80.5052  222.8004 H   0  0  0  0  0  0  0  0  0  0  0  0
  140.8834   77.8257  223.9048 H   0  0  0  0  0  0  0  0  0  0  0  0
  143.2769   78.4977  223.8226 H   0  0  0  0  0  0  0  0  0  0  0  0
  143.9634   80.6915  222.8855 H   0  0  0  0  0  0  0  0  0  0  0  0
  142.1956   82.2476  222.0064 H   0  0  0  0  0  0  0  0  0  0  0  0
  139.8472   81.5475  222.1001 H   0  0  0  0  0  0  0  0  0  0  0  0
  137.1140   78.4903  222.3096 H   0  0  0  0  0  0  0  0  0  0  0  0
  138.6750   76.9672  223.7817 H   0  0  0  0  0  0  0  0  0  0  0  0
  137.5254   76.3529  222.5093 H   0  0  0  0  0  0  0  0  0  0  0  0
  140.5166   76.8471  222.0547 H   0  0  0  0  0  0  0  0  0  0  0  0
  139.7921   75.2476  222.4055 H   0  0  0  0  0  0  0  0  0  0  0  0
  139.9809   73.2083  220.0407 H   0  0  0  0  0  0  0  0  0  0  0  0
  140.6050   73.1020  217.8380 H   0  0  0  0  0  0  0  0  0  0  0  0
  141.1240   74.7700  217.7730 H   0  0  0  0  0  0  0  0  0  0  0  0
  140.9300   73.7095  221.4803 H   0  0  0  0  0  0  0  0  0  0  0  0
  142.7574   71.0613  219.9599 H   0  0  0  0  0  0  0  0  0  0  0  0
  145.1737   70.8419  219.7295 H   0  0  0  0  0  0  0  0  0  0  0  0
  146.7143   72.7631  220.0276 H   0  0  0  0  0  0  0  0  0  0  0  0
  145.6969   75.0095  220.5942 H   0  0  0  0  0  0  0  0  0  0  0  0
  142.4281   75.7691  221.7459 H   0  0  0  0  0  0  0  0  0  0  0  0
  141.5511   77.7110  221.1430 H   0  0  0  0  0  0  0  0  0  0  0  0
  141.5614   79.5067  219.4650 H   0  0  0  0  0  0  0  0  0  0  0  0
  142.5445   79.1099  217.2101 H   0  0  0  0  0  0  0  0  0  0  0  0
  143.5155   76.8730  216.6869 H   0  0  0  0  0  0  0  0  0  0  0  0
  143.4870   75.0950  218.3774 H   0  0  0  0  0  0  0  0  0  0  0  0
  138.3129   77.2573  219.0292 H   0  0  0  0  0  0  0  0  0  0  0  0
  137.2371   76.8956  220.3684 H   0  0  0  0  0  0  0  0  0  0  0  0
  139.8592   78.4440  220.8311 H   0  0  0  0  0  0  0  0  0  0  0  0
  138.4257   79.3167  220.2889 H   0  0  0  0  0  0  0  0  0  0  0  0
  1  2  1  0
  2  3  1  0
  3  4  2  0
  3  5  1  0
  5  6  1  0
  6  7  2  0
  7  8  1  0
  8  9  2  0
  9 10  1  0
 10 11  2  0
  5 12  1  0
 12 13  1  0
 13 14  1  0
 14 15  1  0
 15 16  1  0
 16 17  2  0
 16 18  1  0
 18 19  1  0
 18 20  1  0
 20 21  1  0
 21 22  2  0
 22 23  1  0
 23 24  2  0
 24 25  1  0
 25 26  2  0
 26 27  1  0
 27 28  1  0
 28 29  2  0
 29 30  1  0
 30 31  2  0
 31 32  1  0
 32 33  2  0
 15 34  1  0
 34 35  1  0
 11  6  1  0
 35 12  1  0
 27 20  1  0
 33 28  1  0
 26 21  1  0
  1 36  1  0
  1 37  1  0
  1 38  1  0
  2 39  1  0
  2 40  1  0
  7 41  1  0
  8 42  1  0
  9 43  1  0
 10 44  1  0
 11 45  1  0
 12 46  1  0
 13 47  1  0
 13 48  1  0
 14 49  1  0
 14 50  1  0
 18 51  1  1
 19 52  1  0
 19 53  1  0
 20 54  1  1
 22 55  1  0
 23 56  1  0
 24 57  1  0
 25 58  1  0
 27 59  1  1
 29 60  1  0
 30 61  1  0
 31 62  1  0
 32 63  1  0
 33 64  1  0
 34 65  1  0
 34 66  1  0
 35 67  1  0
 35 68  1  0
M  END
>  <smiles>  (179) 
CCC(=O)N(c1ccccc1)C1CCN(C(=O)[C@@H](N)C2c3ccccc3C2c2ccccc2)CC1

>  <score_type>  (179) 
oracle

>  <origin>  (179) 
autodockgpu

>  <m_score__min__energy>  (179) 
-9.6500000000000004

>  <m_primary>  (179) 
energy

>  <rmsd>  (179) 
7.070477233681602

>  <m_score__min__rmsd>  (179) 
7.070477233681602

>  <meeko>  (179) 
{"free_energy": -7.04, "intermolecular_energy": -9.43, "internal_energy": -4.29, "cluster_size": 30, "cluster_id": 2, "rank_in_cluster": 6}

>  <energy>  (179) 
-7.01

>  <cluster_rmsd>  (179) 
0.88

>  <cluster>  (179) 
2

$$$$

     RDKit          3D

 68 72  0  0  0  0  0  0  0  0999 V2000
  144.2500   82.8030  215.7530 C   0  0  0  0  0  0  0  0  0  0  0  0
  143.8080   83.1900  217.1520 C   0  0  0  0  0  0  0  0  0  0  0  0
  142.3180   83.2400  217.2000 C   0  0  0  0  0  0  0  0  0  0  0  0
  141.7800   84.0590  216.3820 O   0  0  0  0  0  0  0  0  0  0  0  0
  141.5470   82.4390  218.0880 N   0  0  0  0  0  0  0  0  0  0  0  0
  140.9010   83.0910  219.1710 C   0  0  0  0  0  0  0  0  0  0  0  0
  141.0940   82.7560  220.4940 C   0  0  0  0  0  0  0  0  0  0  0  0
  140.4090   83.4590  221.4900 C   0  0  0  0  0  0  0  0  0  0  0  0
  139.5350   84.4890  221.1840 C   0  0  0  0  0  0  0  0  0  0  0  0
  139.3400   84.8260  219.8520 C   0  0  0  0  0  0  0  0  0  0  0  0
  140.0280   84.1180  218.8970 C   0  0  0  0  0  0  0  0  0  0  0  0
  141.4670   81.0320  217.8230 C   0  0  0  0  0  0  0  0  0  0  0  0
  140.2420   80.3510  218.3100 C   0  0  0  0  0  0  0  0  0  0  0  0
  140.4430   79.6650  219.6840 C   0  0  0  0  0  0  0  0  0  0  0  0
  141.4150   78.6210  219.5390 N   0  0  0  0  0  0  0  0  0  0  0  0
  141.6090   77.4520  220.2610 C   0  0  0  0  0  0  0  0  0  0  0  0
  142.6240   76.7200  219.8550 O   0  0  0  0  0  0  0  0  0  0  0  0
  140.9090   76.8650  221.3950 C   0  0  1  0  0  0  0  0  0  0  0  0
  141.3650   75.4610  221.4700 N   0  0  0  0  0  0  0  0  0  0  0  0
  140.9110   77.5320  222.7060 C   0  0  1  0  0  0  0  0  0  0  0  0
  141.7140   78.7380  222.8740 C   0  0  0  0  0  0  0  0  0  0  0  0
  142.9490   79.3830  222.8310 C   0  0  0  0  0  0  0  0  0  0  0  0
  143.0480   80.7070  223.1620 C   0  0  0  0  0  0  0  0  0  0  0  0
  141.9680   81.4760  223.5510 C   0  0  0  0  0  0  0  0  0  0  0  0
  140.7280   80.8360  223.5970 C   0  0  0  0  0  0  0  0  0  0  0  0
  140.6450   79.5050  223.2610 C   0  0  0  0  0  0  0  0  0  0  0  0
  139.7270   78.3380  223.0940 C   0  0  1  0  0  0  0  0  0  0  0  0
  138.6580   78.6140  222.1370 C   0  0  0  0  0  0  0  0  0  0  0  0
  137.9750   77.6710  221.4020 C   0  0  0  0  0  0  0  0  0  0  0  0
  136.9680   78.0010  220.5170 C   0  0  0  0  0  0  0  0  0  0  0  0
  136.6080   79.3250  220.3410 C   0  0  0  0  0  0  0  0  0  0  0  0
  137.2710   80.2990  221.0640 C   0  0  0  0  0  0  0  0  0  0  0  0
  138.2710   79.9420  221.9380 C   0  0  0  0  0  0  0  0  0  0  0  0
  142.3790   78.8760  218.4190 C   0  0  0  0  0  0  0  0  0  0  0  0
  142.6570   80.3640  218.5150 C   0  0  0  0  0  0  0  0  0  0  0  0
  145.0762   82.0796  215.8165 H   0  0  0  0  0  0  0  0  0  0  0  0
  143.4055   82.3487  215.2142 H   0  0  0  0  0  0  0  0  0  0  0  0
  144.5888   83.7002  215.2142 H   0  0  0  0  0  0  0  0  0  0  0  0
  144.1744   82.4444  217.8729 H   0  0  0  0  0  0  0  0  0  0  0  0
  144.2191   84.1773  217.4093 H   0  0  0  0  0  0  0  0  0  0  0  0
  141.7820   81.9414  220.7644 H   0  0  0  0  0  0  0  0  0  0  0  0
  140.5684   83.1869  222.5438 H   0  0  0  0  0  0  0  0  0  0  0  0
  139.0053   85.0299  221.9820 H   0  0  0  0  0  0  0  0  0  0  0  0
  138.6535   85.6375  219.5689 H   0  0  0  0  0  0  0  0  0  0  0  0
  139.8703   84.3904  217.8430 H   0  0  0  0  0  0  0  0  0  0  0  0
  141.4580   80.9348  216.7273 H   0  0  0  0  0  0  0  0  0  0  0  0
  139.4389   81.0968  218.4036 H   0  0  0  0  0  0  0  0  0  0  0  0
  139.9874   79.5665  217.5821 H   0  0  0  0  0  0  0  0  0  0  0  0
  140.7993   80.4031  220.4176 H   0  0  0  0  0  0  0  0  0  0  0  0
  139.4897   79.2433  220.0353 H   0  0  0  0  0  0  0  0  0  0  0  0
  139.8389   76.9913  221.1740 H   0  0  0  0  0  0  0  0  0  0  0  0
  141.3520   75.0480  220.5150 H   0  0  0  0  0  0  0  0  0  0  0  0
  142.2390   75.3500  221.9910 H   0  0  0  0  0  0  0  0  0  0  0  0
  141.1643   76.5986  223.2301 H   0  0  0  0  0  0  0  0  0  0  0  0
  143.8479   78.8252  222.5296 H   0  0  0  0  0  0  0  0  0  0  0  0
  144.0383   81.1836  223.1161 H   0  0  0  0  0  0  0  0  0  0  0  0
  142.0795   82.5389  223.8113 H   0  0  0  0  0  0  0  0  0  0  0  0
  139.8271   81.3904  223.8987 H   0  0  0  0  0  0  0  0  0  0  0  0
  139.0686   77.9251  223.8724 H   0  0  0  0  0  0  0  0  0  0  0  0
  138.2427   76.6112  221.5250 H   0  0  0  0  0  0  0  0  0  0  0  0
  136.4519   77.2110  219.9518 H   0  0  0  0  0  0  0  0  0  0  0  0
  135.8076   79.5982  219.6376 H   0  0  0  0  0  0  0  0  0  0  0  0
  136.9992   81.3577  220.9404 H   0  0  0  0  0  0  0  0  0  0  0  0
  138.7865   80.7329  222.5026 H   0  0  0  0  0  0  0  0  0  0  0  0
  143.3027   78.2948  218.5567 H   0  0  0  0  0  0  0  0  0  0  0  0
  141.9801   78.5795  217.4377 H   0  0  0  0  0  0  0  0  0  0  0  0
  142.7197   80.6790  219.5671 H   0  0  0  0  0  0  0  0  0  0  0  0
  143.6147   80.6374  218.0480 H   0  0  0  0  0  0  0  0  0  0  0  0
  1  2  1  0
  2  3  1  0
  3  4  2  0
  3  5  1  0
  5  6  1  0
  6  7  2  0
  7  8  1  0
  8  9  2  0
  9 10  1  0
 10 11  2  0
  5 12  1  0
 12 13  1  0
 13 14  1  0
 14 15  1  0
 15 16  1  0
 16 17  2  0
 16 18  1  0
 18 19  1  0
 18 20  1  0
 20 21  1  0
 21 22  2  0
 22 23  1  0
 23 24  2  0
 24 25  1  0
 25 26  2  0
 26 27  1  0
 27 28  1  0
 28 29  2  0
 29 30  1  0
 30 31  2  0
 31 32  1  0
 32 33  2  0
 15 34  1  0
 34 35  1  0
 11  6  1  0
 35 12  1  0
 27 20  1  0
 33 28  1  0
 26 21  1  0
  1 36  1  0
  1 37  1  0
  1 38  1  0
  2 39  1  0
  2 40  1  0
  7 41  1  0
  8 42  1  0
  9 43  1  0
 10 44  1  0
 11 45  1  0
 12 46  1  0
 13 47  1  0
 13 48  1  0
 14 49  1  0
 14 50  1  0
 18 51  1  6
 19 52  1  0
 19 53  1  0
 20 54  1  1
 22 55  1  0
 23 56  1  0
 24 57  1  0
 25 58  1  0
 27 59  1  1
 29 60  1  0
 30 61  1  0
 31 62  1  0
 32 63  1  0
 33 64  1  0
 34 65  1  0
 34 66  1  0
 35 67  1  0
 35 68  1  0
M  END
>  <smiles>  (180) 
CCC(=O)N(c1ccccc1)C1CCN(C(=O)[C@@H](N)C2c3ccccc3C2c2ccccc2)CC1

>  <score_type>  (180) 
oracle

>  <origin>  (180) 
autodockgpu

>  <m_score__min__energy>  (180) 
-9.6500000000000004

>  <m_primary>  (180) 
energy

>  <rmsd>  (180) 
9.267293701748416

>  <m_score__min__rmsd>  (180) 
9.267293701748416

>  <meeko>  (180) 
{"free_energy": -6.53, "intermolecular_energy": -8.91, "internal_energy": -4.74, "cluster_size": 11, "cluster_id": 3, "rank_in_cluster": 5}

>  <energy>  (180) 
-7.01

>  <cluster_rmsd>  (180) 
0.75

>  <cluster>  (180) 
2

$$$$

     RDKit          3D

 68 72  0  0  0  0  0  0  0  0999 V2000
  135.9180   80.9820  224.9200 C   0  0  0  0  0  0  0  0  0  0  0  0
  136.4910   80.1410  223.7940 C   0  0  0  0  0  0  0  0  0  0  0  0
  137.9800   80.2160  223.8350 C   0  0  0  0  0  0  0  0  0  0  0  0
  138.4560   81.0280  224.6980 O   0  0  0  0  0  0  0  0  0  0  0  0
  138.8160   79.4440  222.9800 N   0  0  0  0  0  0  0  0  0  0  0  0
  140.2020   79.7500  222.9620 C   0  0  0  0  0  0  0  0  0  0  0  0
  141.1700   78.9580  223.5400 C   0  0  0  0  0  0  0  0  0  0  0  0
  142.5110   79.3480  223.4700 C   0  0  0  0  0  0  0  0  0  0  0  0
  142.8980   80.5160  222.8320 C   0  0  0  0  0  0  0  0  0  0  0  0
  141.9230   81.3130  222.2510 C   0  0  0  0  0  0  0  0  0  0  0  0
  140.6150   80.9030  222.3360 C   0  0  0  0  0  0  0  0  0  0  0  0
  138.2030   78.4070  222.2020 C   0  0  0  0  0  0  0  0  0  0  0  0
  138.4130   77.0210  222.6930 C   0  0  0  0  0  0  0  0  0  0  0  0
  139.5830   76.3020  221.9770 C   0  0  0  0  0  0  0  0  0  0  0  0
  139.2550   76.1590  220.5890 N   0  0  0  0  0  0  0  0  0  0  0  0
  139.6730   75.2320  219.6460 C   0  0  0  0  0  0  0  0  0  0  0  0
  139.1740   75.4100  218.4410 O   0  0  0  0  0  0  0  0  0  0  0  0
  140.5700   74.0860  219.7200 C   0  0  1  0  0  0  0  0  0  0  0  0
  141.0670   73.8720  218.3440 N   0  0  0  0  0  0  0  0  0  0  0  0
  141.6440   74.0360  220.7240 C   0  0  1  0  0  0  0  0  0  0  0  0
  142.8030   73.1890  220.4630 C   0  0  0  0  0  0  0  0  0  0  0  0
  143.3470   71.9340  220.1920 C   0  0  0  0  0  0  0  0  0  0  0  0
  144.6990   71.7850  220.0500 C   0  0  0  0  0  0  0  0  0  0  0  0
  145.5950   72.8300  220.1600 C   0  0  0  0  0  0  0  0  0  0  0  0
  145.0580   74.0890  220.4320 C   0  0  0  0  0  0  0  0  0  0  0  0
  143.6970   74.2240  220.5720 C   0  0  0  0  0  0  0  0  0  0  0  0
  142.5790   75.1840  220.8210 C   0  0  1  0  0  0  0  0  0  0  0  0
  142.5530   76.2620  219.8360 C   0  0  0  0  0  0  0  0  0  0  0  0
  142.9950   76.1720  218.5350 C   0  0  0  0  0  0  0  0  0  0  0  0
  142.9360   77.2320  217.6530 C   0  0  0  0  0  0  0  0  0  0  0  0
  142.4150   78.4460  218.0630 C   0  0  0  0  0  0  0  0  0  0  0  0
  141.9600   78.5720  219.3620 C   0  0  0  0  0  0  0  0  0  0  0  0
  142.0330   77.5010  220.2200 C   0  0  0  0  0  0  0  0  0  0  0  0
  138.3070   77.2160  220.1030 C   0  0  0  0  0  0  0  0  0  0  0  0
  138.7930   78.4770  220.7920 C   0  0  0  0  0  0  0  0  0  0  0  0
  136.2128   80.5493  225.8874 H   0  0  0  0  0  0  0  0  0  0  0  0
  136.3052   82.0088  224.8443 H   0  0  0  0  0  0  0  0  0  0  0  0
  134.8207   80.9974  224.8443 H   0  0  0  0  0  0  0  0  0  0  0  0
  136.1717   79.0955  223.9165 H   0  0  0  0  0  0  0  0  0  0  0  0
  136.1282   80.5208  222.8275 H   0  0  0  0  0  0  0  0  0  0  0  0
  140.8900   78.0259  224.0526 H   0  0  0  0  0  0  0  0  0  0  0  0
  143.2789   78.7111  223.9334 H   0  0  0  0  0  0  0  0  0  0  0  0
  143.9583   80.8053  222.7873 H   0  0  0  0  0  0  0  0  0  0  0  0
  142.1900   82.2478  221.7363 H   0  0  0  0  0  0  0  0  0  0  0  0
  139.8465   81.5391  221.8726 H   0  0  0  0  0  0  0  0  0  0  0  0
  137.1203   78.5933  222.2569 H   0  0  0  0  0  0  0  0  0  0  0  0
  138.6305   77.0590  223.7706 H   0  0  0  0  0  0  0  0  0  0  0  0
  137.4955   76.4521  222.4819 H   0  0  0  0  0  0  0  0  0  0  0  0
  140.5021   76.8975  222.0806 H   0  0  0  0  0  0  0  0  0  0  0  0
  139.7456   75.3117  222.4273 H   0  0  0  0  0  0  0  0  0  0  0  0
  139.9606   73.2642  220.1242 H   0  0  0  0  0  0  0  0  0  0  0  0
  140.5180   73.1080  217.8990 H   0  0  0  0  0  0  0  0  0  0  0  0
  141.1430   74.7380  217.8040 H   0  0  0  0  0  0  0  0  0  0  0  0
  140.9370   73.8047  221.5344 H   0  0  0  0  0  0  0  0  0  0  0  0
  142.6861   71.0604  220.0920 H   0  0  0  0  0  0  0  0  0  0  0  0
  145.0933   70.7804  219.8371 H   0  0  0  0  0  0  0  0  0  0  0  0
  146.6777   72.6777  220.0393 H   0  0  0  0  0  0  0  0  0  0  0  0
  145.7167   74.9641  220.5333 H   0  0  0  0  0  0  0  0  0  0  0  0
  142.4821   75.8403  221.6984 H   0  0  0  0  0  0  0  0  0  0  0  0
  143.4121   75.2164  218.1844 H   0  0  0  0  0  0  0  0  0  0  0  0
  143.3036   77.1113  216.6233 H   0  0  0  0  0  0  0  0  0  0  0  0
  142.3637   79.2964  217.3672 H   0  0  0  0  0  0  0  0  0  0  0  0
  141.5402   79.5279  219.7085 H   0  0  0  0  0  0  0  0  0  0  0  0
  141.6675   77.6239  221.2502 H   0  0  0  0  0  0  0  0  0  0  0  0
  138.3624   77.3201  219.0093 H   0  0  0  0  0  0  0  0  0  0  0  0
  137.2560   76.9837  220.3297 H   0  0  0  0  0  0  0  0  0  0  0  0
  139.8921   78.4968  220.8328 H   0  0  0  0  0  0  0  0  0  0  0  0
  138.4825   79.3870  220.2577 H   0  0  0  0  0  0  0  0  0  0  0  0
  1  2  1  0
  2  3  1  0
  3  4  2  0
  3  5  1  0
  5  6  1  0
  6  7  2  0
  7  8  1  0
  8  9  2  0
  9 10  1  0
 10 11  2  0
  5 12  1  0
 12 13  1  0
 13 14  1  0
 14 15  1  0
 15 16  1  0
 16 17  2  0
 16 18  1  0
 18 19  1  0
 18 20  1  0
 20 21  1  0
 21 22  2  0
 22 23  1  0
 23 24  2  0
 24 25  1  0
 25 26  2  0
 26 27  1  0
 27 28  1  0
 28 29  2  0
 29 30  1  0
 30 31  2  0
 31 32  1  0
 32 33  2  0
 15 34  1  0
 34 35  1  0
 11  6  1  0
 35 12  1  0
 27 20  1  0
 33 28  1  0
 26 21  1  0
  1 36  1  0
  1 37  1  0
  1 38  1  0
  2 39  1  0
  2 40  1  0
  7 41  1  0
  8 42  1  0
  9 43  1  0
 10 44  1  0
 11 45  1  0
 12 46  1  0
 13 47  1  0
 13 48  1  0
 14 49  1  0
 14 50  1  0
 18 51  1  1
 19 52  1  0
 19 53  1  0
 20 54  1  1
 22 55  1  0
 23 56  1  0
 24 57  1  0
 25 58  1  0
 27 59  1  1
 29 60  1  0
 30 61  1  0
 31 62  1  0
 32 63  1  0
 33 64  1  0
 34 65  1  0
 34 66  1  0
 35 67  1  0
 35 68  1  0
M  END
>  <smiles>  (181) 
CCC(=O)N(c1ccccc1)C1CCN(C(=O)[C@@H](N)C2c3ccccc3C2c2ccccc2)CC1

>  <score_type>  (181) 
oracle

>  <origin>  (181) 
autodockgpu

>  <m_score__min__energy>  (181) 
-9.6500000000000004

>  <m_primary>  (181) 
energy

>  <rmsd>  (181) 
7.057867674058572

>  <m_score__min__rmsd>  (181) 
7.057867674058572

>  <meeko>  (181) 
{"free_energy": -7.02, "intermolecular_energy": -9.41, "internal_energy": -4.35, "cluster_size": 30, "cluster_id": 2, "rank_in_cluster": 12}

>  <energy>  (181) 
-7.0

>  <cluster_rmsd>  (181) 
0.43

>  <cluster>  (181) 
2

$$$$

     RDKit          3D

 68 72  0  0  0  0  0  0  0  0999 V2000
  146.4740   73.3670  221.5230 C   0  0  0  0  0  0  0  0  0  0  0  0
  145.1010   73.4200  220.8810 C   0  0  0  0  0  0  0  0  0  0  0  0
  145.0910   72.5470  219.6720 C   0  0  0  0  0  0  0  0  0  0  0  0
  145.9570   72.8450  218.7830 O   0  0  0  0  0  0  0  0  0  0  0  0
  144.1870   71.4590  219.5130 N   0  0  0  0  0  0  0  0  0  0  0  0
  144.7400   70.1660  219.3170 C   0  0  0  0  0  0  0  0  0  0  0  0
  144.3720   69.0550  220.0450 C   0  0  0  0  0  0  0  0  0  0  0  0
  144.9780   67.8240  219.7770 C   0  0  0  0  0  0  0  0  0  0  0  0
  145.9450   67.6860  218.7950 C   0  0  0  0  0  0  0  0  0  0  0  0
  146.3170   68.8050  218.0630 C   0  0  0  0  0  0  0  0  0  0  0  0
  145.7020   69.9990  218.3480 C   0  0  0  0  0  0  0  0  0  0  0  0
  142.7820   71.7410  219.5680 C   0  0  0  0  0  0  0  0  0  0  0  0
  142.3450   72.9830  218.8840 C   0  0  0  0  0  0  0  0  0  0  0  0
  142.2080   74.1850  219.8520 C   0  0  0  0  0  0  0  0  0  0  0  0
  141.1690   73.8970  220.7980 N   0  0  0  0  0  0  0  0  0  0  0  0
  140.3440   74.7400  221.5270 C   0  0  0  0  0  0  0  0  0  0  0  0
  139.4990   74.1240  222.3260 O   0  0  0  0  0  0  0  0  0  0  0  0
  140.2230   76.1900  221.5910 C   0  0  1  0  0  0  0  0  0  0  0  0
  139.3900   76.4750  222.7780 N   0  0  0  0  0  0  0  0  0  0  0  0
  141.4170   77.0470  221.5170 C   0  0  1  0  0  0  0  0  0  0  0  0
  141.8540   77.5240  220.2090 C   0  0  0  0  0  0  0  0  0  0  0  0
  142.2750   77.2630  218.9070 C   0  0  0  0  0  0  0  0  0  0  0  0
  142.5870   78.2940  218.0630 C   0  0  0  0  0  0  0  0  0  0  0  0
  142.5090   79.6240  218.4270 C   0  0  0  0  0  0  0  0  0  0  0  0
  142.0880   79.8930  219.7300 C   0  0  0  0  0  0  0  0  0  0  0  0
  141.7780   78.8470  220.5660 C   0  0  0  0  0  0  0  0  0  0  0  0
  141.2970   78.4670  221.9300 C   0  0  1  0  0  0  0  0  0  0  0  0
  139.9950   79.0550  222.2350 C   0  0  0  0  0  0  0  0  0  0  0  0
  138.9340   79.1520  221.3630 C   0  0  0  0  0  0  0  0  0  0  0  0
  137.7250   79.7160  221.7190 C   0  0  0  0  0  0  0  0  0  0  0  0
  137.5430   80.2130  222.9970 C   0  0  0  0  0  0  0  0  0  0  0  0
  138.5880   80.1320  223.8990 C   0  0  0  0  0  0  0  0  0  0  0  0
  139.7810   79.5670  223.5170 C   0  0  0  0  0  0  0  0  0  0  0  0
  140.9810   72.4260  221.0250 C   0  0  0  0  0  0  0  0  0  0  0  0
  142.3970   71.8820  221.0420 C   0  0  0  0  0  0  0  0  0  0  0  0
  146.3673   73.3711  222.6178 H   0  0  0  0  0  0  0  0  0  0  0  0
  146.9906   72.4482  221.2084 H   0  0  0  0  0  0  0  0  0  0  0  0
  147.0599   74.2432  221.2084 H   0  0  0  0  0  0  0  0  0  0  0  0
  144.3458   73.0647  221.5976 H   0  0  0  0  0  0  0  0  0  0  0  0
  144.8682   74.4553  220.5912 H   0  0  0  0  0  0  0  0  0  0  0  0
  143.6070   69.1363  220.8312 H   0  0  0  0  0  0  0  0  0  0  0  0
  144.6789   66.9415  220.3616 H   0  0  0  0  0  0  0  0  0  0  0  0
  146.4093   66.7082  218.5990 H   0  0  0  0  0  0  0  0  0  0  0  0
  147.0831   68.7372  217.2766 H   0  0  0  0  0  0  0  0  0  0  0  0
  145.9985   70.8815  217.7620 H   0  0  0  0  0  0  0  0  0  0  0  0
  142.2901   70.9098  219.0415 H   0  0  0  0  0  0  0  0  0  0  0  0
  143.0847   73.2372  218.1105 H   0  0  0  0  0  0  0  0  0  0  0  0
  141.3519   72.7911  218.4515 H   0  0  0  0  0  0  0  0  0  0  0  0
  143.1584   74.3432  220.3827 H   0  0  0  0  0  0  0  0  0  0  0  0
  141.9587   75.0951  219.2868 H   0  0  0  0  0  0  0  0  0  0  0  0
  139.7753   76.4883  220.6315 H   0  0  0  0  0  0  0  0  0  0  0  0
  139.0490   75.5770  223.1780 H   0  0  0  0  0  0  0  0  0  0  0  0
  139.8380   77.1160  223.4390 H   0  0  0  0  0  0  0  0  0  0  0  0
  142.0209   76.3323  222.0953 H   0  0  0  0  0  0  0  0  0  0  0  0
  142.3570   76.2238  218.5558 H   0  0  0  0  0  0  0  0  0  0  0  0
  142.9169   78.0510  217.0422 H   0  0  0  0  0  0  0  0  0  0  0  0
  142.7659   80.4309  217.7249 H   0  0  0  0  0  0  0  0  0  0  0  0
  142.0051   80.9311  220.0842 H   0  0  0  0  0  0  0  0  0  0  0  0
  141.7698   78.7577  222.8797 H   0  0  0  0  0  0  0  0  0  0  0  0
  139.0544   78.7642  220.3407 H   0  0  0  0  0  0  0  0  0  0  0  0
  136.9064   79.7701  220.9862 H   0  0  0  0  0  0  0  0  0  0  0  0
  136.5839   80.6647  223.2906 H   0  0  0  0  0  0  0  0  0  0  0  0
  138.4645   80.5194  224.9211 H   0  0  0  0  0  0  0  0  0  0  0  0
  140.5999   79.5159  224.2497 H   0  0  0  0  0  0  0  0  0  0  0  0
  140.4769   72.2383  221.9845 H   0  0  0  0  0  0  0  0  0  0  0  0
  140.3513   71.9528  220.2572 H   0  0  0  0  0  0  0  0  0  0  0  0
  143.0743   72.5816  221.5537 H   0  0  0  0  0  0  0  0  0  0  0  0
  142.4670   70.9260  221.5817 H   0  0  0  0  0  0  0  0  0  0  0  0
  1  2  1  0
  2  3  1  0
  3  4  2  0
  3  5  1  0
  5  6  1  0
  6  7  2  0
  7  8  1  0
  8  9  2  0
  9 10  1  0
 10 11  2  0
  5 12  1  0
 12 13  1  0
 13 14  1  0
 14 15  1  0
 15 16  1  0
 16 17  2  0
 16 18  1  0
 18 19  1  0
 18 20  1  0
 20 21  1  0
 21 22  2  0
 22 23  1  0
 23 24  2  0
 24 25  1  0
 25 26  2  0
 26 27  1  0
 27 28  1  0
 28 29  2  0
 29 30  1  0
 30 31  2  0
 31 32  1  0
 32 33  2  0
 15 34  1  0
 34 35  1  0
 11  6  1  0
 35 12  1  0
 27 20  1  0
 33 28  1  0
 26 21  1  0
  1 36  1  0
  1 37  1  0
  1 38  1  0
  2 39  1  0
  2 40  1  0
  7 41  1  0
  8 42  1  0
  9 43  1  0
 10 44  1  0
 11 45  1  0
 12 46  1  0
 13 47  1  0
 13 48  1  0
 14 49  1  0
 14 50  1  0
 18 51  1  6
 19 52  1  0
 19 53  1  0
 20 54  1  1
 22 55  1  0
 23 56  1  0
 24 57  1  0
 25 58  1  0
 27 59  1  1
 29 60  1  0
 30 61  1  0
 31 62  1  0
 32 63  1  0
 33 64  1  0
 34 65  1  0
 34 66  1  0
 35 67  1  0
 35 68  1  0
M  END
>  <smiles>  (182) 
CCC(=O)N(c1ccccc1)C1CCN(C(=O)[C@@H](N)C2c3ccccc3C2c2ccccc2)CC1

>  <score_type>  (182) 
oracle

>  <origin>  (182) 
autodockgpu

>  <m_score__min__energy>  (182) 
-9.6500000000000004

>  <m_primary>  (182) 
energy

>  <rmsd>  (182) 
9.303259600921228

>  <m_score__min__rmsd>  (182) 
9.303259600921228

>  <meeko>  (182) 
{"free_energy": -8.6, "intermolecular_energy": -10.99, "internal_energy": -2.72, "cluster_size": 9, "cluster_id": 1, "rank_in_cluster": 8}

>  <energy>  (182) 
-6.96

>  <cluster_rmsd>  (182) 
0.81

>  <cluster>  (182) 
2

$$$$

     RDKit          3D

 68 72  0  0  0  0  0  0  0  0999 V2000
  146.6970   73.4000  221.9470 C   0  0  0  0  0  0  0  0  0  0  0  0
  145.3660   73.4530  221.2210 C   0  0  0  0  0  0  0  0  0  0  0  0
  145.5610   73.0230  219.8070 C   0  0  0  0  0  0  0  0  0  0  0  0
  146.6790   73.3580  219.2900 O   0  0  0  0  0  0  0  0  0  0  0  0
  144.5790   72.2930  219.0790 N   0  0  0  0  0  0  0  0  0  0  0  0
  144.6380   70.8750  219.1320 C   0  0  0  0  0  0  0  0  0  0  0  0
  143.5500   70.0700  219.3880 C   0  0  0  0  0  0  0  0  0  0  0  0
  143.7120   68.6820  219.4210 C   0  0  0  0  0  0  0  0  0  0  0  0
  144.9440   68.0870  219.2040 C   0  0  0  0  0  0  0  0  0  0  0  0
  146.0400   68.8970  218.9480 C   0  0  0  0  0  0  0  0  0  0  0  0
  145.8490   70.2570  218.9200 C   0  0  0  0  0  0  0  0  0  0  0  0
  143.5950   73.0370  218.3490 C   0  0  0  0  0  0  0  0  0  0  0  0
  143.9640   74.4330  218.0040 C   0  0  0  0  0  0  0  0  0  0  0  0
  143.4060   75.4680  219.0110 C   0  0  0  0  0  0  0  0  0  0  0  0
  141.9730   75.4380  218.9540 N   0  0  0  0  0  0  0  0  0  0  0  0
  141.0310   76.4130  219.2490 C   0  0  0  0  0  0  0  0  0  0  0  0
  139.7810   76.0310  219.0960 O   0  0  0  0  0  0  0  0  0  0  0  0
  141.1470   77.7910  219.7030 C   0  0  1  0  0  0  0  0  0  0  0  0
  139.7810   78.3540  219.6410 N   0  0  0  0  0  0  0  0  0  0  0  0
  141.8350   78.1130  220.9620 C   0  0  1  0  0  0  0  0  0  0  0  0
  141.7010   79.4600  221.5070 C   0  0  0  0  0  0  0  0  0  0  0  0
  141.8520   80.8390  221.3700 C   0  0  0  0  0  0  0  0  0  0  0  0
  141.5010   81.6760  222.3930 C   0  0  0  0  0  0  0  0  0  0  0  0
  140.9890   81.2320  223.5970 C   0  0  0  0  0  0  0  0  0  0  0  0
  140.8350   79.8520  223.7410 C   0  0  0  0  0  0  0  0  0  0  0  0
  141.1920   79.0240  222.7030 C   0  0  0  0  0  0  0  0  0  0  0  0
  141.2610   77.6060  222.2340 C   0  0  1  0  0  0  0  0  0  0  0  0
  139.9540   76.9550  222.2630 C   0  0  0  0  0  0  0  0  0  0  0  0
  138.7540   77.5750  222.5310 C   0  0  0  0  0  0  0  0  0  0  0  0
  137.5510   76.8980  222.5370 C   0  0  0  0  0  0  0  0  0  0  0  0
  137.5180   75.5420  222.2670 C   0  0  0  0  0  0  0  0  0  0  0  0
  138.7040   74.8870  221.9930 C   0  0  0  0  0  0  0  0  0  0  0  0
  139.8880   75.5850  221.9950 C   0  0  0  0  0  0  0  0  0  0  0  0
  141.4370   74.1090  218.5120 C   0  0  0  0  0  0  0  0  0  0  0  0
  142.3340   73.1080  219.2140 C   0  0  0  0  0  0  0  0  0  0  0  0
  146.5228   73.4069  223.0331 H   0  0  0  0  0  0  0  0  0  0  0  0
  147.2309   72.4799  221.6672 H   0  0  0  0  0  0  0  0  0  0  0  0
  147.3024   74.2748  221.6672 H   0  0  0  0  0  0  0  0  0  0  0  0
  144.6505   72.7792  221.7150 H   0  0  0  0  0  0  0  0  0  0  0  0
  144.9734   74.4803  221.2439 H   0  0  0  0  0  0  0  0  0  0  0  0
  142.5604   70.5164  219.5653 H   0  0  0  0  0  0  0  0  0  0  0  0
  142.8383   68.0455  219.6246 H   0  0  0  0  0  0  0  0  0  0  0  0
  145.0509   66.9926  219.2342 H   0  0  0  0  0  0  0  0  0  0  0  0
  147.0351   68.4624  218.7722 H   0  0  0  0  0  0  0  0  0  0  0  0
  146.7218   70.8942  218.7145 H   0  0  0  0  0  0  0  0  0  0  0  0
  143.4687   72.5064  217.3937 H   0  0  0  0  0  0  0  0  0  0  0  0
  145.0610   74.5131  217.9894 H   0  0  0  0  0  0  0  0  0  0  0  0
  143.5250   74.6580  217.0208 H   0  0  0  0  0  0  0  0  0  0  0  0
  143.7415   75.2139  220.0273 H   0  0  0  0  0  0  0  0  0  0  0  0
  143.7705   76.4739  218.7556 H   0  0  0  0  0  0  0  0  0  0  0  0
  141.8723   78.2610  219.0226 H   0  0  0  0  0  0  0  0  0  0  0  0
  139.5350   78.5410  218.6470 H   0  0  0  0  0  0  0  0  0  0  0  0
  139.0980   77.8110  220.1750 H   0  0  0  0  0  0  0  0  0  0  0  0
  142.7987   77.7437  220.5812 H   0  0  0  0  0  0  0  0  0  0  0  0
  142.2551   81.2557  220.4352 H   0  0  0  0  0  0  0  0  0  0  0  0
  141.6332   82.7586  222.2499 H   0  0  0  0  0  0  0  0  0  0  0  0
  140.7164   81.9307  224.4016 H   0  0  0  0  0  0  0  0  0  0  0  0
  140.4325   79.4317  224.6745 H   0  0  0  0  0  0  0  0  0  0  0  0
  141.7973   76.7896  222.7399 H   0  0  0  0  0  0  0  0  0  0  0  0
  138.7540   78.6532  222.7491 H   0  0  0  0  0  0  0  0  0  0  0  0
  136.6179   77.4375  222.7567 H   0  0  0  0  0  0  0  0  0  0  0  0
  136.5642   74.9941  222.2702 H   0  0  0  0  0  0  0  0  0  0  0  0
  138.7002   73.8091  221.7737 H   0  0  0  0  0  0  0  0  0  0  0  0
  140.8206   75.0439  221.7770 H   0  0  0  0  0  0  0  0  0  0  0  0
  140.3899   73.9845  218.8252 H   0  0  0  0  0  0  0  0  0  0  0  0
  141.4401   73.9905  217.4184 H   0  0  0  0  0  0  0  0  0  0  0  0
  142.5796   73.4533  220.2291 H   0  0  0  0  0  0  0  0  0  0  0  0
  141.8517   72.1257  219.3254 H   0  0  0  0  0  0  0  0  0  0  0  0
  1  2  1  0
  2  3  1  0
  3  4  2  0
  3  5  1  0
  5  6  1  0
  6  7  2  0
  7  8  1  0
  8  9  2  0
  9 10  1  0
 10 11  2  0
  5 12  1  0
 12 13  1  0
 13 14  1  0
 14 15  1  0
 15 16  1  0
 16 17  2  0
 16 18  1  0
 18 19  1  0
 18 20  1  0
 20 21  1  0
 21 22  2  0
 22 23  1  0
 23 24  2  0
 24 25  1  0
 25 26  2  0
 26 27  1  0
 27 28  1  0
 28 29  2  0
 29 30  1  0
 30 31  2  0
 31 32  1  0
 32 33  2  0
 15 34  1  0
 34 35  1  0
 11  6  1  0
 35 12  1  0
 27 20  1  0
 33 28  1  0
 26 21  1  0
  1 36  1  0
  1 37  1  0
  1 38  1  0
  2 39  1  0
  2 40  1  0
  7 41  1  0
  8 42  1  0
  9 43  1  0
 10 44  1  0
 11 45  1  0
 12 46  1  0
 13 47  1  0
 13 48  1  0
 14 49  1  0
 14 50  1  0
 18 51  1  6
 19 52  1  0
 19 53  1  0
 20 54  1  6
 22 55  1  0
 23 56  1  0
 24 57  1  0
 25 58  1  0
 27 59  1  1
 29 60  1  0
 30 61  1  0
 31 62  1  0
 32 63  1  0
 33 64  1  0
 34 65  1  0
 34 66  1  0
 35 67  1  0
 35 68  1  0
M  END
>  <smiles>  (183) 
CCC(=O)N(c1ccccc1)C1CCN(C(=O)[C@@H](N)C2c3ccccc3C2c2ccccc2)CC1

>  <score_type>  (183) 
oracle

>  <origin>  (183) 
autodockgpu

>  <m_score__min__energy>  (183) 
-9.6500000000000004

>  <m_primary>  (183) 
energy

>  <rmsd>  (183) 
9.513460706997533

>  <m_score__min__rmsd>  (183) 
9.513460706997533

>  <meeko>  (183) 
{"free_energy": -7.92, "intermolecular_energy": -10.3, "internal_energy": -3.44, "cluster_size": 9, "cluster_id": 1, "rank_in_cluster": 9}

>  <energy>  (183) 
-6.95

>  <cluster_rmsd>  (183) 
0.9

>  <cluster>  (183) 
2

$$$$

     RDKit          3D

 68 72  0  0  0  0  0  0  0  0999 V2000
  135.8320   80.9440  224.9830 C   0  0  0  0  0  0  0  0  0  0  0  0
  136.4250   80.1270  223.8500 C   0  0  0  0  0  0  0  0  0  0  0  0
  137.9130   80.1680  223.9420 C   0  0  0  0  0  0  0  0  0  0  0  0
  138.3760   80.9240  224.8600 O   0  0  0  0  0  0  0  0  0  0  0  0
  138.7610   79.4220  223.0750 N   0  0  0  0  0  0  0  0  0  0  0  0
  140.1480   79.7240  223.0920 C   0  0  0  0  0  0  0  0  0  0  0  0
  141.1230   78.8340  223.4870 C   0  0  0  0  0  0  0  0  0  0  0  0
  142.4640   79.2290  223.4690 C   0  0  0  0  0  0  0  0  0  0  0  0
  142.8460   80.4970  223.0630 C   0  0  0  0  0  0  0  0  0  0  0  0
  141.8640   81.3940  222.6660 C   0  0  0  0  0  0  0  0  0  0  0  0
  140.5560   80.9760  222.6940 C   0  0  0  0  0  0  0  0  0  0  0  0
  138.1600   78.4150  222.2520 C   0  0  0  0  0  0  0  0  0  0  0  0
  138.3410   77.0140  222.7080 C   0  0  0  0  0  0  0  0  0  0  0  0
  139.5230   76.3020  222.0040 C   0  0  0  0  0  0  0  0  0  0  0  0
  139.2310   76.2020  220.6040 N   0  0  0  0  0  0  0  0  0  0  0  0
  139.6660   75.2960  219.6470 C   0  0  0  0  0  0  0  0  0  0  0  0
  139.2010   75.5140  218.4350 O   0  0  0  0  0  0  0  0  0  0  0  0
  140.5480   74.1400  219.7120 C   0  0  1  0  0  0  0  0  0  0  0  0
  141.0390   73.9270  218.3350 N   0  0  0  0  0  0  0  0  0  0  0  0
  141.6230   74.0700  220.7140 C   0  0  1  0  0  0  0  0  0  0  0  0
  142.7810   73.2260  220.4370 C   0  0  0  0  0  0  0  0  0  0  0  0
  143.3220   71.9750  220.1430 C   0  0  0  0  0  0  0  0  0  0  0  0
  144.6730   71.8260  219.9960 C   0  0  0  0  0  0  0  0  0  0  0  0
  145.5720   72.8680  220.1240 C   0  0  0  0  0  0  0  0  0  0  0  0
  145.0370   74.1230  220.4180 C   0  0  0  0  0  0  0  0  0  0  0  0
  143.6760   74.2570  220.5620 C   0  0  0  0  0  0  0  0  0  0  0  0
  142.5600   75.2140  220.8300 C   0  0  1  0  0  0  0  0  0  0  0  0
  142.5340   76.3100  219.8650 C   0  0  0  0  0  0  0  0  0  0  0  0
  142.9950   76.2480  218.5680 C   0  0  0  0  0  0  0  0  0  0  0  0
  142.9350   77.3230  217.7040 C   0  0  0  0  0  0  0  0  0  0  0  0
  142.3950   78.5240  218.1290 C   0  0  0  0  0  0  0  0  0  0  0  0
  141.9210   78.6210  219.4240 C   0  0  0  0  0  0  0  0  0  0  0  0
  141.9950   77.5350  220.2640 C   0  0  0  0  0  0  0  0  0  0  0  0
  138.3080   77.2820  220.1240 C   0  0  0  0  0  0  0  0  0  0  0  0
  138.7880   78.5180  220.8610 C   0  0  0  0  0  0  0  0  0  0  0  0
  136.1436   80.5148  225.9467 H   0  0  0  0  0  0  0  0  0  0  0  0
  136.1882   81.9823  224.9118 H   0  0  0  0  0  0  0  0  0  0  0  0
  134.7344   80.9272  224.9118 H   0  0  0  0  0  0  0  0  0  0  0  0
  136.0802   79.0854  223.9280 H   0  0  0  0  0  0  0  0  0  0  0  0
  136.1029   80.5453  222.8850 H   0  0  0  0  0  0  0  0  0  0  0  0
  140.8483   77.8203  223.8141 H   0  0  0  0  0  0  0  0  0  0  0  0
  143.2368   78.5132  223.7859 H   0  0  0  0  0  0  0  0  0  0  0  0
  143.9069   80.7875  223.0554 H   0  0  0  0  0  0  0  0  0  0  0  0
  142.1259   82.4108  222.3382 H   0  0  0  0  0  0  0  0  0  0  0  0
  139.7823   81.6907  222.3767 H   0  0  0  0  0  0  0  0  0  0  0  0
  137.0783   78.6123  222.2835 H   0  0  0  0  0  0  0  0  0  0  0  0
  138.5286   77.0185  223.7919 H   0  0  0  0  0  0  0  0  0  0  0  0
  137.4237   76.4621  222.4552 H   0  0  0  0  0  0  0  0  0  0  0  0
  140.4451   76.8839  222.1492 H   0  0  0  0  0  0  0  0  0  0  0  0
  139.6633   75.2977  222.4304 H   0  0  0  0  0  0  0  0  0  0  0  0
  139.9288   73.3238  220.1126 H   0  0  0  0  0  0  0  0  0  0  0  0
  140.4500   73.2050  217.8710 H   0  0  0  0  0  0  0  0  0  0  0  0
  141.1670   74.7980  217.8140 H   0  0  0  0  0  0  0  0  0  0  0  0
  140.9163   73.8252  221.5206 H   0  0  0  0  0  0  0  0  0  0  0  0
  142.6592   71.1046  220.0289 H   0  0  0  0  0  0  0  0  0  0  0  0
  145.0649   70.8248  219.7638 H   0  0  0  0  0  0  0  0  0  0  0  0
  146.6544   72.7158  220.0004 H   0  0  0  0  0  0  0  0  0  0  0  0
  145.6969   74.9955  220.5333 H   0  0  0  0  0  0  0  0  0  0  0  0
  142.4658   75.8544  221.7194 H   0  0  0  0  0  0  0  0  0  0  0  0
  143.4283   75.3038  218.2064 H   0  0  0  0  0  0  0  0  0  0  0  0
  143.3167   77.2248  216.6770 H   0  0  0  0  0  0  0  0  0  0  0  0
  142.3438   79.3866  217.4483 H   0  0  0  0  0  0  0  0  0  0  0  0
  141.4853   79.5655  219.7818 H   0  0  0  0  0  0  0  0  0  0  0  0
  141.6145   77.6350  221.2912 H   0  0  0  0  0  0  0  0  0  0  0  0
  138.3936   77.4162  219.0356 H   0  0  0  0  0  0  0  0  0  0  0  0
  137.2491   77.0549  220.3165 H   0  0  0  0  0  0  0  0  0  0  0  0
  139.8857   78.5248  220.9314 H   0  0  0  0  0  0  0  0  0  0  0  0
  138.5010   79.4458  220.3446 H   0  0  0  0  0  0  0  0  0  0  0  0
  1  2  1  0
  2  3  1  0
  3  4  2  0
  3  5  1  0
  5  6  1  0
  6  7  2  0
  7  8  1  0
  8  9  2  0
  9 10  1  0
 10 11  2  0
  5 12  1  0
 12 13  1  0
 13 14  1  0
 14 15  1  0
 15 16  1  0
 16 17  2  0
 16 18  1  0
 18 19  1  0
 18 20  1  0
 20 21  1  0
 21 22  2  0
 22 23  1  0
 23 24  2  0
 24 25  1  0
 25 26  2  0
 26 27  1  0
 27 28  1  0
 28 29  2  0
 29 30  1  0
 30 31  2  0
 31 32  1  0
 32 33  2  0
 15 34  1  0
 34 35  1  0
 11  6  1  0
 35 12  1  0
 27 20  1  0
 33 28  1  0
 26 21  1  0
  1 36  1  0
  1 37  1  0
  1 38  1  0
  2 39  1  0
  2 40  1  0
  7 41  1  0
  8 42  1  0
  9 43  1  0
 10 44  1  0
 11 45  1  0
 12 46  1  0
 13 47  1  0
 13 48  1  0
 14 49  1  0
 14 50  1  0
 18 51  1  1
 19 52  1  0
 19 53  1  0
 20 54  1  1
 22 55  1  0
 23 56  1  0
 24 57  1  0
 25 58  1  0
 27 59  1  1
 29 60  1  0
 30 61  1  0
 31 62  1  0
 32 63  1  0
 33 64  1  0
 34 65  1  0
 34 66  1  0
 35 67  1  0
 35 68  1  0
M  END
>  <smiles>  (184) 
CCC(=O)N(c1ccccc1)C1CCN(C(=O)[C@@H](N)C2c3ccccc3C2c2ccccc2)CC1

>  <score_type>  (184) 
oracle

>  <origin>  (184) 
autodockgpu

>  <m_score__min__energy>  (184) 
-9.6500000000000004

>  <m_primary>  (184) 
energy

>  <rmsd>  (184) 
7.0816086305134025

>  <m_score__min__rmsd>  (184) 
7.0816086305134025

>  <meeko>  (184) 
{"free_energy": -7.05, "intermolecular_energy": -9.43, "internal_energy": -4.35, "cluster_size": 30, "cluster_id": 2, "rank_in_cluster": 2}

>  <energy>  (184) 
-6.93

>  <cluster_rmsd>  (184) 
0.91

>  <cluster>  (184) 
2

$$$$

     RDKit          3D

 68 72  0  0  0  0  0  0  0  0999 V2000
  137.3030   81.2780  225.3330 C   0  0  0  0  0  0  0  0  0  0  0  0
  138.4380   80.8910  224.4030 C   0  0  0  0  0  0  0  0  0  0  0  0
  137.9800   79.7950  223.5000 C   0  0  0  0  0  0  0  0  0  0  0  0
  136.7210   79.5850  223.5020 O   0  0  0  0  0  0  0  0  0  0  0  0
  138.8730   79.0350  222.6940 N   0  0  0  0  0  0  0  0  0  0  0  0
  140.2540   79.3600  222.7540 C   0  0  0  0  0  0  0  0  0  0  0  0
  141.1840   78.6310  223.4620 C   0  0  0  0  0  0  0  0  0  0  0  0
  142.5230   79.0350  223.4590 C   0  0  0  0  0  0  0  0  0  0  0  0
  142.9450   80.1550  222.7620 C   0  0  0  0  0  0  0  0  0  0  0  0
  142.0080   80.8900  222.0490 C   0  0  0  0  0  0  0  0  0  0  0  0
  140.7010   80.4670  222.0700 C   0  0  0  0  0  0  0  0  0  0  0  0
  138.3200   77.9900  221.8840 C   0  0  0  0  0  0  0  0  0  0  0  0
  138.5310   76.6060  222.3800 C   0  0  0  0  0  0  0  0  0  0  0  0
  139.7490   75.9130  221.7200 C   0  0  0  0  0  0  0  0  0  0  0  0
  139.4920   75.7690  220.3170 N   0  0  0  0  0  0  0  0  0  0  0  0
  139.9740   74.8530  219.3930 C   0  0  0  0  0  0  0  0  0  0  0  0
  139.5310   75.0270  218.1660 O   0  0  0  0  0  0  0  0  0  0  0  0
  140.8880   73.7250  219.5070 C   0  0  1  0  0  0  0  0  0  0  0  0
  141.4360   73.5090  218.1510 N   0  0  0  0  0  0  0  0  0  0  0  0
  141.9280   73.7020  220.5470 C   0  0  1  0  0  0  0  0  0  0  0  0
  143.1340   72.9150  220.3110 C   0  0  0  0  0  0  0  0  0  0  0  0
  143.7440   71.6930  220.0350 C   0  0  0  0  0  0  0  0  0  0  0  0
  145.1060   71.6080  219.9380 C   0  0  0  0  0  0  0  0  0  0  0  0
  145.9480   72.6910  220.1010 C   0  0  0  0  0  0  0  0  0  0  0  0
  145.3440   73.9180  220.3780 C   0  0  0  0  0  0  0  0  0  0  0  0
  143.9740   73.9870  220.4720 C   0  0  0  0  0  0  0  0  0  0  0  0
  142.8040   74.8900  220.7010 C   0  0  1  0  0  0  0  0  0  0  0  0
  142.7620   75.9870  219.7380 C   0  0  0  0  0  0  0  0  0  0  0  0
  143.1960   75.9250  218.4320 C   0  0  0  0  0  0  0  0  0  0  0  0
  143.1220   77.0020  217.5710 C   0  0  0  0  0  0  0  0  0  0  0  0
  142.5940   78.2030  218.0080 C   0  0  0  0  0  0  0  0  0  0  0  0
  142.1470   78.3000  219.3130 C   0  0  0  0  0  0  0  0  0  0  0  0
  142.2350   77.2130  220.1490 C   0  0  0  0  0  0  0  0  0  0  0  0
  138.5490   76.8090  219.7890 C   0  0  0  0  0  0  0  0  0  0  0  0
  138.9760   78.0770  220.5050 C   0  0  0  0  0  0  0  0  0  0  0  0
  137.6303   81.1664  226.3772 H   0  0  0  0  0  0  0  0  0  0  0  0
  137.0178   82.3242  225.1479 H   0  0  0  0  0  0  0  0  0  0  0  0
  136.4381   80.6240  225.1479 H   0  0  0  0  0  0  0  0  0  0  0  0
  138.7348   81.7631  223.8019 H   0  0  0  0  0  0  0  0  0  0  0  0
  139.2995   80.5471  224.9943 H   0  0  0  0  0  0  0  0  0  0  0  0
  140.8759   77.7379  224.0254 H   0  0  0  0  0  0  0  0  0  0  0  0
  143.2607   78.4475  224.0253 H   0  0  0  0  0  0  0  0  0  0  0  0
  144.0029   80.4564  222.7733 H   0  0  0  0  0  0  0  0  0  0  0  0
  142.3035   81.7858  221.4831 H   0  0  0  0  0  0  0  0  0  0  0  0
  139.9628   81.0523  221.5022 H   0  0  0  0  0  0  0  0  0  0  0  0
  137.2326   78.1557  221.8868 H   0  0  0  0  0  0  0  0  0  0  0  0
  138.6938   76.6429  223.4673 H   0  0  0  0  0  0  0  0  0  0  0  0
  137.6360   76.0208  222.1220 H   0  0  0  0  0  0  0  0  0  0  0  0
  140.6498   76.5261  221.8702 H   0  0  0  0  0  0  0  0  0  0  0  0
  139.9093   74.9244  222.1748 H   0  0  0  0  0  0  0  0  0  0  0  0
  140.2792   72.8961  219.8972 H   0  0  0  0  0  0  0  0  0  0  0  0
  140.9020   72.7440  217.6880 H   0  0  0  0  0  0  0  0  0  0  0  0
  141.5320   74.3740  217.6130 H   0  0  0  0  0  0  0  0  0  0  0  0
  141.2049   73.4199  221.3264 H   0  0  0  0  0  0  0  0  0  0  0  0
  143.1278   70.7927  219.8945 H   0  0  0  0  0  0  0  0  0  0  0  0
  145.5535   70.6273  219.7191 H   0  0  0  0  0  0  0  0  0  0  0  0
  147.0402   72.5911  220.0166 H   0  0  0  0  0  0  0  0  0  0  0  0
  145.9572   74.8202  220.5196 H   0  0  0  0  0  0  0  0  0  0  0  0
  142.6461   75.5218  221.5875 H   0  0  0  0  0  0  0  0  0  0  0  0
  143.6184   74.9798  218.0602 H   0  0  0  0  0  0  0  0  0  0  0  0
  143.4834   76.9045  216.5366 H   0  0  0  0  0  0  0  0  0  0  0  0
  142.5306   79.0663  217.3293 H   0  0  0  0  0  0  0  0  0  0  0  0
  141.7219   79.2454  219.6811 H   0  0  0  0  0  0  0  0  0  0  0  0
  141.8757   77.3127  221.1839 H   0  0  0  0  0  0  0  0  0  0  0  0
  138.6556   76.9186  218.6997 H   0  0  0  0  0  0  0  0  0  0  0  0
  137.4930   76.5554  219.9635 H   0  0  0  0  0  0  0  0  0  0  0  0
  140.0712   78.1182  220.5993 H   0  0  0  0  0  0  0  0  0  0  0  0
  138.6737   78.9828  219.9590 H   0  0  0  0  0  0  0  0  0  0  0  0
  1  2  1  0
  2  3  1  0
  3  4  2  0
  3  5  1  0
  5  6  1  0
  6  7  2  0
  7  8  1  0
  8  9  2  0
  9 10  1  0
 10 11  2  0
  5 12  1  0
 12 13  1  0
 13 14  1  0
 14 15  1  0
 15 16  1  0
 16 17  2  0
 16 18  1  0
 18 19  1  0
 18 20  1  0
 20 21  1  0
 21 22  2  0
 22 23  1  0
 23 24  2  0
 24 25  1  0
 25 26  2  0
 26 27  1  0
 27 28  1  0
 28 29  2  0
 29 30  1  0
 30 31  2  0
 31 32  1  0
 32 33  2  0
 15 34  1  0
 34 35  1  0
 11  6  1  0
 35 12  1  0
 27 20  1  0
 33 28  1  0
 26 21  1  0
  1 36  1  0
  1 37  1  0
  1 38  1  0
  2 39  1  0
  2 40  1  0
  7 41  1  0
  8 42  1  0
  9 43  1  0
 10 44  1  0
 11 45  1  0
 12 46  1  0
 13 47  1  0
 13 48  1  0
 14 49  1  0
 14 50  1  0
 18 51  1  1
 19 52  1  0
 19 53  1  0
 20 54  1  1
 22 55  1  0
 23 56  1  0
 24 57  1  0
 25 58  1  0
 27 59  1  1
 29 60  1  0
 30 61  1  0
 31 62  1  0
 32 63  1  0
 33 64  1  0
 34 65  1  0
 34 66  1  0
 35 67  1  0
 35 68  1  0
M  END
>  <smiles>  (185) 
CCC(=O)N(c1ccccc1)C1CCN(C(=O)[C@@H](N)C2c3ccccc3C2c2ccccc2)CC1

>  <score_type>  (185) 
oracle

>  <origin>  (185) 
autodockgpu

>  <m_score__min__energy>  (185) 
-9.6500000000000004

>  <m_primary>  (185) 
energy

>  <rmsd>  (185) 
7.093865065484971

>  <m_score__min__rmsd>  (185) 
7.093865065484971

>  <meeko>  (185) 
{"free_energy": -7.03, "intermolecular_energy": -9.42, "internal_energy": -4.36, "cluster_size": 30, "cluster_id": 2, "rank_in_cluster": 10}

>  <energy>  (185) 
-6.9

>  <cluster_rmsd>  (185) 
0.9

>  <cluster>  (185) 
2

$$$$

     RDKit          3D

 68 72  0  0  0  0  0  0  0  0999 V2000
  144.2830   82.8260  215.6450 C   0  0  0  0  0  0  0  0  0  0  0  0
  143.8850   83.0010  217.0990 C   0  0  0  0  0  0  0  0  0  0  0  0
  142.4090   83.1970  217.1830 C   0  0  0  0  0  0  0  0  0  0  0  0
  141.9460   84.1330  216.4480 O   0  0  0  0  0  0  0  0  0  0  0  0
  141.5710   82.4050  218.0170 N   0  0  0  0  0  0  0  0  0  0  0  0
  140.8320   83.0710  219.0300 C   0  0  0  0  0  0  0  0  0  0  0  0
  139.8570   84.0110  218.7760 C   0  0  0  0  0  0  0  0  0  0  0  0
  139.1840   84.6120  219.8450 C   0  0  0  0  0  0  0  0  0  0  0  0
  139.4720   84.2890  221.1610 C   0  0  0  0  0  0  0  0  0  0  0  0
  140.4540   83.3430  221.4170 C   0  0  0  0  0  0  0  0  0  0  0  0
  141.0950   82.7690  220.3460 C   0  0  0  0  0  0  0  0  0  0  0  0
  141.5250   80.9930  217.7730 C   0  0  0  0  0  0  0  0  0  0  0  0
  140.2960   80.2980  218.2310 C   0  0  0  0  0  0  0  0  0  0  0  0
  140.4630   79.6370  219.6220 C   0  0  0  0  0  0  0  0  0  0  0  0
  141.4580   78.6090  219.5260 N   0  0  0  0  0  0  0  0  0  0  0  0
  141.6480   77.4550  220.2720 C   0  0  0  0  0  0  0  0  0  0  0  0
  142.6890   76.7340  219.9120 O   0  0  0  0  0  0  0  0  0  0  0  0
  140.9220   76.8740  221.3920 C   0  0  1  0  0  0  0  0  0  0  0  0
  141.3520   75.4610  221.4650 N   0  0  0  0  0  0  0  0  0  0  0  0
  140.9170   77.5320  222.7080 C   0  0  1  0  0  0  0  0  0  0  0  0
  141.7150   78.7400  222.8860 C   0  0  0  0  0  0  0  0  0  0  0  0
  142.9470   79.3910  222.8510 C   0  0  0  0  0  0  0  0  0  0  0  0
  143.0400   80.7120  223.1910 C   0  0  0  0  0  0  0  0  0  0  0  0
  141.9560   81.4740  223.5810 C   0  0  0  0  0  0  0  0  0  0  0  0
  140.7180   80.8300  223.6190 C   0  0  0  0  0  0  0  0  0  0  0  0
  140.6410   79.5010  223.2740 C   0  0  0  0  0  0  0  0  0  0  0  0
  139.7280   78.3310  223.0970 C   0  0  1  0  0  0  0  0  0  0  0  0
  138.6610   78.6090  222.1400 C   0  0  0  0  0  0  0  0  0  0  0  0
  137.9490   77.6650  221.4350 C   0  0  0  0  0  0  0  0  0  0  0  0
  136.9450   77.9970  220.5470 C   0  0  0  0  0  0  0  0  0  0  0  0
  136.6200   79.3250  220.3350 C   0  0  0  0  0  0  0  0  0  0  0  0
  137.3140   80.3000  221.0270 C   0  0  0  0  0  0  0  0  0  0  0  0
  138.3090   79.9410  221.9040 C   0  0  0  0  0  0  0  0  0  0  0  0
  142.4530   78.8630  218.4330 C   0  0  0  0  0  0  0  0  0  0  0  0
  142.7020   80.3570  218.5150 C   0  0  0  0  0  0  0  0  0  0  0  0
  145.2887   82.3838  215.5908 H   0  0  0  0  0  0  0  0  0  0  0  0
  143.5629   82.1615  215.1451 H   0  0  0  0  0  0  0  0  0  0  0  0
  144.2859   83.8059  215.1451 H   0  0  0  0  0  0  0  0  0  0  0  0
  144.1701   82.1045  217.6690 H   0  0  0  0  0  0  0  0  0  0  0  0
  144.3989   83.8778  217.5199 H   0  0  0  0  0  0  0  0  0  0  0  0
  139.6097   84.2868  217.7402 H   0  0  0  0  0  0  0  0  0  0  0  0
  138.4058   85.3606  219.6352 H   0  0  0  0  0  0  0  0  0  0  0  0
  138.9320   84.7737  221.9877 H   0  0  0  0  0  0  0  0  0  0  0  0
  140.7120   83.0605  222.4483 H   0  0  0  0  0  0  0  0  0  0  0  0
  141.8706   82.0175  220.5548 H   0  0  0  0  0  0  0  0  0  0  0  0
  141.5551   80.8785  216.6794 H   0  0  0  0  0  0  0  0  0  0  0  0
  139.4776   81.0310  218.2862 H   0  0  0  0  0  0  0  0  0  0  0  0
  140.0792   79.4978  217.5080 H   0  0  0  0  0  0  0  0  0  0  0  0
  140.7812   80.3928  220.3552 H   0  0  0  0  0  0  0  0  0  0  0  0
  139.5062   79.2032  219.9481 H   0  0  0  0  0  0  0  0  0  0  0  0
  139.8578   77.0218  221.1559 H   0  0  0  0  0  0  0  0  0  0  0  0
  141.3720   75.0630  220.5030 H   0  0  0  0  0  0  0  0  0  0  0  0
  142.2000   75.3270  222.0210 H   0  0  0  0  0  0  0  0  0  0  0  0
  141.1720   76.5965  223.2274 H   0  0  0  0  0  0  0  0  0  0  0  0
  143.8491   78.8391  222.5483 H   0  0  0  0  0  0  0  0  0  0  0  0
  144.0287   81.1926  223.1519 H   0  0  0  0  0  0  0  0  0  0  0  0
  142.0629   82.5356  223.8484 H   0  0  0  0  0  0  0  0  0  0  0  0
  139.8143   81.3794  223.9215 H   0  0  0  0  0  0  0  0  0  0  0  0
  139.0688   77.9100  223.8705 H   0  0  0  0  0  0  0  0  0  0  0  0
  138.1898   76.6023  221.5853 H   0  0  0  0  0  0  0  0  0  0  0  0
  136.4036   77.2055  220.0081 H   0  0  0  0  0  0  0  0  0  0  0  0
  135.8233   79.6002  219.6282 H   0  0  0  0  0  0  0  0  0  0  0  0
  137.0700   81.3619  220.8757 H   0  0  0  0  0  0  0  0  0  0  0  0
  138.8501   80.7334  222.4418 H   0  0  0  0  0  0  0  0  0  0  0  0
  143.3816   78.3001  218.6090 H   0  0  0  0  0  0  0  0  0  0  0  0
  142.0914   78.5443  217.4442 H   0  0  0  0  0  0  0  0  0  0  0  0
  142.7235   80.6889  219.5635 H   0  0  0  0  0  0  0  0  0  0  0  0
  143.6701   80.6404  218.0764 H   0  0  0  0  0  0  0  0  0  0  0  0
  1  2  1  0
  2  3  1  0
  3  4  2  0
  3  5  1  0
  5  6  1  0
  6  7  2  0
  7  8  1  0
  8  9  2  0
  9 10  1  0
 10 11  2  0
  5 12  1  0
 12 13  1  0
 13 14  1  0
 14 15  1  0
 15 16  1  0
 16 17  2  0
 16 18  1  0
 18 19  1  0
 18 20  1  0
 20 21  1  0
 21 22  2  0
 22 23  1  0
 23 24  2  0
 24 25  1  0
 25 26  2  0
 26 27  1  0
 27 28  1  0
 28 29  2  0
 29 30  1  0
 30 31  2  0
 31 32  1  0
 32 33  2  0
 15 34  1  0
 34 35  1  0
 11  6  1  0
 35 12  1  0
 27 20  1  0
 33 28  1  0
 26 21  1  0
  1 36  1  0
  1 37  1  0
  1 38  1  0
  2 39  1  0
  2 40  1  0
  7 41  1  0
  8 42  1  0
  9 43  1  0
 10 44  1  0
 11 45  1  0
 12 46  1  0
 13 47  1  0
 13 48  1  0
 14 49  1  0
 14 50  1  0
 18 51  1  6
 19 52  1  0
 19 53  1  0
 20 54  1  1
 22 55  1  0
 23 56  1  0
 24 57  1  0
 25 58  1  0
 27 59  1  1
 29 60  1  0
 30 61  1  0
 31 62  1  0
 32 63  1  0
 33 64  1  0
 34 65  1  0
 34 66  1  0
 35 67  1  0
 35 68  1  0
M  END
>  <smiles>  (186) 
CCC(=O)N(c1ccccc1)C1CCN(C(=O)[C@@H](N)C2c3ccccc3C2c2ccccc2)CC1

>  <score_type>  (186) 
oracle

>  <origin>  (186) 
autodockgpu

>  <m_score__min__energy>  (186) 
-9.6500000000000004

>  <m_primary>  (186) 
energy

>  <rmsd>  (186) 
9.263256437620099

>  <m_score__min__rmsd>  (186) 
9.263256437620099

>  <meeko>  (186) 
{"free_energy": -6.54, "intermolecular_energy": -8.93, "internal_energy": -4.75, "cluster_size": 11, "cluster_id": 3, "rank_in_cluster": 3}

>  <energy>  (186) 
-6.9

>  <cluster_rmsd>  (186) 
0.9

>  <cluster>  (186) 
2

$$$$

     RDKit          3D

 68 72  0  0  0  0  0  0  0  0999 V2000
  135.8820   81.0850  224.8420 C   0  0  0  0  0  0  0  0  0  0  0  0
  136.4760   80.2530  223.7210 C   0  0  0  0  0  0  0  0  0  0  0  0
  137.9480   80.1310  223.9270 C   0  0  0  0  0  0  0  0  0  0  0  0
  138.3990   80.7290  224.9610 O   0  0  0  0  0  0  0  0  0  0  0  0
  138.7940   79.4050  223.0420 N   0  0  0  0  0  0  0  0  0  0  0  0
  140.1830   79.7010  223.0680 C   0  0  0  0  0  0  0  0  0  0  0  0
  141.1510   78.8050  223.4640 C   0  0  0  0  0  0  0  0  0  0  0  0
  142.4950   79.1930  223.4560 C   0  0  0  0  0  0  0  0  0  0  0  0
  142.8840   80.4620  223.0580 C   0  0  0  0  0  0  0  0  0  0  0  0
  141.9080   81.3650  222.6600 C   0  0  0  0  0  0  0  0  0  0  0  0
  140.5980   80.9530  222.6780 C   0  0  0  0  0  0  0  0  0  0  0  0
  138.1900   78.4220  222.1930 C   0  0  0  0  0  0  0  0  0  0  0  0
  138.3020   77.0140  222.6510 C   0  0  0  0  0  0  0  0  0  0  0  0
  139.4840   76.2610  221.9920 C   0  0  0  0  0  0  0  0  0  0  0  0
  139.2440   76.1740  220.5810 N   0  0  0  0  0  0  0  0  0  0  0  0
  139.6840   75.2550  219.6390 C   0  0  0  0  0  0  0  0  0  0  0  0
  139.2760   75.4920  218.4100 O   0  0  0  0  0  0  0  0  0  0  0  0
  140.5200   74.0670  219.7350 C   0  0  1  0  0  0  0  0  0  0  0  0
  140.9860   73.7870  218.3600 N   0  0  0  0  0  0  0  0  0  0  0  0
  141.6040   73.9890  220.7260 C   0  0  1  0  0  0  0  0  0  0  0  0
  142.7420   73.1190  220.4490 C   0  0  0  0  0  0  0  0  0  0  0  0
  143.2550   71.8540  220.1660 C   0  0  0  0  0  0  0  0  0  0  0  0
  144.6020   71.6760  220.0080 C   0  0  0  0  0  0  0  0  0  0  0  0
  145.5220   72.7010  220.1130 C   0  0  0  0  0  0  0  0  0  0  0  0
  145.0150   73.9710  220.3950 C   0  0  0  0  0  0  0  0  0  0  0  0
  143.6590   74.1340  220.5510 C   0  0  0  0  0  0  0  0  0  0  0  0
  142.5650   75.1170  220.8180 C   0  0  1  0  0  0  0  0  0  0  0  0
  142.5500   76.2000  219.8380 C   0  0  0  0  0  0  0  0  0  0  0  0
  142.9820   76.1070  218.5330 C   0  0  0  0  0  0  0  0  0  0  0  0
  142.9350   77.1720  217.6550 C   0  0  0  0  0  0  0  0  0  0  0  0
  142.4390   78.3930  218.0740 C   0  0  0  0  0  0  0  0  0  0  0  0
  141.9950   78.5210  219.3770 C   0  0  0  0  0  0  0  0  0  0  0  0
  142.0550   77.4450  220.2310 C   0  0  0  0  0  0  0  0  0  0  0  0
  138.3810   77.2880  220.0680 C   0  0  0  0  0  0  0  0  0  0  0  0
  138.8760   78.5040  220.8270 C   0  0  0  0  0  0  0  0  0  0  0  0
  136.1837   80.6624  225.8117 H   0  0  0  0  0  0  0  0  0  0  0  0
  136.2468   82.1198  224.7635 H   0  0  0  0  0  0  0  0  0  0  0  0
  134.7848   81.0760  224.7635 H   0  0  0  0  0  0  0  0  0  0  0  0
  136.0199   79.2520  223.7245 H   0  0  0  0  0  0  0  0  0  0  0  0
  136.2774   80.7397  222.7547 H   0  0  0  0  0  0  0  0  0  0  0  0
  140.8693   77.7911  223.7844 H   0  0  0  0  0  0  0  0  0  0  0  0
  143.2627   78.4722  223.7738 H   0  0  0  0  0  0  0  0  0  0  0  0
  143.9461   80.7483  223.0575 H   0  0  0  0  0  0  0  0  0  0  0  0
  142.1763   82.3824  222.3391 H   0  0  0  0  0  0  0  0  0  0  0  0
  139.8293   81.6724  222.3592 H   0  0  0  0  0  0  0  0  0  0  0  0
  137.1159   78.6589  222.1830 H   0  0  0  0  0  0  0  0  0  0  0  0
  138.4466   77.0095  223.7414 H   0  0  0  0  0  0  0  0  0  0  0  0
  137.3760   76.4964  222.3601 H   0  0  0  0  0  0  0  0  0  0  0  0
  140.4201   76.8088  222.1752 H   0  0  0  0  0  0  0  0  0  0  0  0
  139.5710   75.2516  222.4204 H   0  0  0  0  0  0  0  0  0  0  0  0
  139.8735   73.2910  220.1707 H   0  0  0  0  0  0  0  0  0  0  0  0
  140.3240   73.1240  217.9060 H   0  0  0  0  0  0  0  0  0  0  0  0
  141.2020   74.6340  217.8280 H   0  0  0  0  0  0  0  0  0  0  0  0
  140.9009   73.7685  221.5427 H   0  0  0  0  0  0  0  0  0  0  0  0
  142.5739   70.9956  220.0694 H   0  0  0  0  0  0  0  0  0  0  0  0
  144.9718   70.6641  219.7858 H   0  0  0  0  0  0  0  0  0  0  0  0
  146.5999   72.5255  219.9811 H   0  0  0  0  0  0  0  0  0  0  0  0
  145.6932   74.8317  220.4913 H   0  0  0  0  0  0  0  0  0  0  0  0
  142.4931   75.7708  221.6997 H   0  0  0  0  0  0  0  0  0  0  0  0
  143.3804   75.1458  218.1761 H   0  0  0  0  0  0  0  0  0  0  0  0
  143.2923   77.0490  216.6219 H   0  0  0  0  0  0  0  0  0  0  0  0
  142.3984   79.2475  217.3826 H   0  0  0  0  0  0  0  0  0  0  0  0
  141.5942   79.4826  219.7302 H   0  0  0  0  0  0  0  0  0  0  0  0
  141.6991   77.5700  221.2643 H   0  0  0  0  0  0  0  0  0  0  0  0
  138.5147   77.4207  218.9842 H   0  0  0  0  0  0  0  0  0  0  0  0
  137.3076   77.0996  220.2176 H   0  0  0  0  0  0  0  0  0  0  0  0
  139.9696   78.4706  220.9405 H   0  0  0  0  0  0  0  0  0  0  0  0
  138.6433   79.4425  220.3025 H   0  0  0  0  0  0  0  0  0  0  0  0
  1  2  1  0
  2  3  1  0
  3  4  2  0
  3  5  1  0
  5  6  1  0
  6  7  2  0
  7  8  1  0
  8  9  2  0
  9 10  1  0
 10 11  2  0
  5 12  1  0
 12 13  1  0
 13 14  1  0
 14 15  1  0
 15 16  1  0
 16 17  2  0
 16 18  1  0
 18 19  1  0
 18 20  1  0
 20 21  1  0
 21 22  2  0
 22 23  1  0
 23 24  2  0
 24 25  1  0
 25 26  2  0
 26 27  1  0
 27 28  1  0
 28 29  2  0
 29 30  1  0
 30 31  2  0
 31 32  1  0
 32 33  2  0
 15 34  1  0
 34 35  1  0
 11  6  1  0
 35 12  1  0
 27 20  1  0
 33 28  1  0
 26 21  1  0
  1 36  1  0
  1 37  1  0
  1 38  1  0
  2 39  1  0
  2 40  1  0
  7 41  1  0
  8 42  1  0
  9 43  1  0
 10 44  1  0
 11 45  1  0
 12 46  1  0
 13 47  1  0
 13 48  1  0
 14 49  1  0
 14 50  1  0
 18 51  1  1
 19 52  1  0
 19 53  1  0
 20 54  1  1
 22 55  1  0
 23 56  1  0
 24 57  1  0
 25 58  1  0
 27 59  1  1
 29 60  1  0
 30 61  1  0
 31 62  1  0
 32 63  1  0
 33 64  1  0
 34 65  1  0
 34 66  1  0
 35 67  1  0
 35 68  1  0
M  END
>  <smiles>  (187) 
CCC(=O)N(c1ccccc1)C1CCN(C(=O)[C@@H](N)C2c3ccccc3C2c2ccccc2)CC1

>  <score_type>  (187) 
oracle

>  <origin>  (187) 
autodockgpu

>  <m_score__min__energy>  (187) 
-9.6500000000000004

>  <m_primary>  (187) 
energy

>  <rmsd>  (187) 
7.022116521234108

>  <m_score__min__rmsd>  (187) 
7.022116521234108

>  <meeko>  (187) 
{"free_energy": -7.01, "intermolecular_energy": -9.4, "internal_energy": -4.37, "cluster_size": 30, "cluster_id": 2, "rank_in_cluster": 21}

>  <energy>  (187) 
-6.89

>  <cluster_rmsd>  (187) 
1.0

>  <cluster>  (187) 
2

$$$$

     RDKit          3D

 68 72  0  0  0  0  0  0  0  0999 V2000
  137.3310   82.3450  222.4920 C   0  0  0  0  0  0  0  0  0  0  0  0
  136.7810   81.1500  223.2490 C   0  0  0  0  0  0  0  0  0  0  0  0
  137.9150   80.3720  223.8260 C   0  0  0  0  0  0  0  0  0  0  0  0
  138.0740   80.5040  225.0860 O   0  0  0  0  0  0  0  0  0  0  0  0
  138.7610   79.5410  223.0390 N   0  0  0  0  0  0  0  0  0  0  0  0
  140.1610   79.7630  223.1190 C   0  0  0  0  0  0  0  0  0  0  0  0
  141.0790   78.7800  223.4200 C   0  0  0  0  0  0  0  0  0  0  0  0
  142.4390   79.1010  223.4760 C   0  0  0  0  0  0  0  0  0  0  0  0
  142.8950   80.3870  223.2370 C   0  0  0  0  0  0  0  0  0  0  0  0
  141.9710   81.3770  222.9350 C   0  0  0  0  0  0  0  0  0  0  0  0
  140.6430   81.0310  222.8870 C   0  0  0  0  0  0  0  0  0  0  0  0
  138.1450   78.5330  222.2280 C   0  0  0  0  0  0  0  0  0  0  0  0
  138.3070   77.1350  222.6980 C   0  0  0  0  0  0  0  0  0  0  0  0
  139.4780   76.3990  222.0000 C   0  0  0  0  0  0  0  0  0  0  0  0
  139.1820   76.2890  220.6010 N   0  0  0  0  0  0  0  0  0  0  0  0
  139.6030   75.3680  219.6530 C   0  0  0  0  0  0  0  0  0  0  0  0
  139.1400   75.5800  218.4390 O   0  0  0  0  0  0  0  0  0  0  0  0
  140.4690   74.1990  219.7280 C   0  0  1  0  0  0  0  0  0  0  0  0
  140.9560   73.9670  218.3530 N   0  0  0  0  0  0  0  0  0  0  0  0
  141.5430   74.1240  220.7300 C   0  0  1  0  0  0  0  0  0  0  0  0
  142.6780   73.2440  220.4710 C   0  0  0  0  0  0  0  0  0  0  0  0
  143.1860   71.9730  220.2050 C   0  0  0  0  0  0  0  0  0  0  0  0
  144.5330   71.7860  220.0600 C   0  0  0  0  0  0  0  0  0  0  0  0
  145.4580   72.8060  220.1630 C   0  0  0  0  0  0  0  0  0  0  0  0
  144.9570   74.0810  220.4300 C   0  0  0  0  0  0  0  0  0  0  0  0
  143.6000   74.2550  220.5720 C   0  0  0  0  0  0  0  0  0  0  0  0
  142.5100   75.2460  220.8200 C   0  0  1  0  0  0  0  0  0  0  0  0
  142.5110   76.3200  219.8300 C   0  0  0  0  0  0  0  0  0  0  0  0
  142.9920   76.2250  218.5430 C   0  0  0  0  0  0  0  0  0  0  0  0
  142.9570   77.2800  217.6540 C   0  0  0  0  0  0  0  0  0  0  0  0
  142.4230   78.4960  218.0430 C   0  0  0  0  0  0  0  0  0  0  0  0
  141.9290   78.6270  219.3280 C   0  0  0  0  0  0  0  0  0  0  0  0
  141.9780   77.5590  220.1930 C   0  0  0  0  0  0  0  0  0  0  0  0
  138.2740   77.3770  220.1110 C   0  0  0  0  0  0  0  0  0  0  0  0
  138.7720   78.6130  220.8340 C   0  0  0  0  0  0  0  0  0  0  0  0
  137.6801   83.1036  223.2080 H   0  0  0  0  0  0  0  0  0  0  0  0
  138.1716   82.0233  221.8597 H   0  0  0  0  0  0  0  0  0  0  0  0
  136.5399   82.7743  221.8597 H   0  0  0  0  0  0  0  0  0  0  0  0
  136.1236   81.4983  224.0592 H   0  0  0  0  0  0  0  0  0  0  0  0
  136.2049   80.5111  222.5636 H   0  0  0  0  0  0  0  0  0  0  0  0
  140.7443   77.7504  223.6148 H   0  0  0  0  0  0  0  0  0  0  0  0
  143.1660   78.3112  223.7162 H   0  0  0  0  0  0  0  0  0  0  0  0
  143.9692   80.6189  223.2857 H   0  0  0  0  0  0  0  0  0  0  0  0
  142.2933   82.4104  222.7394 H   0  0  0  0  0  0  0  0  0  0  0  0
  139.9155   81.8204  222.6470 H   0  0  0  0  0  0  0  0  0  0  0  0
  137.0661   78.7451  222.2598 H   0  0  0  0  0  0  0  0  0  0  0  0
  138.4961   77.1482  223.7815 H   0  0  0  0  0  0  0  0  0  0  0  0
  137.3817   76.5935  222.4519 H   0  0  0  0  0  0  0  0  0  0  0  0
  140.4085   76.9692  222.1379 H   0  0  0  0  0  0  0  0  0  0  0  0
  139.6051   75.3974  222.4365 H   0  0  0  0  0  0  0  0  0  0  0  0
  139.8390   73.3946  220.1355 H   0  0  0  0  0  0  0  0  0  0  0  0
  140.3570   73.2470  217.8970 H   0  0  0  0  0  0  0  0  0  0  0  0
  141.0950   74.8310  217.8230 H   0  0  0  0  0  0  0  0  0  0  0  0
  140.8312   73.9162  221.5425 H   0  0  0  0  0  0  0  0  0  0  0  0
  142.5008   71.1176  220.1114 H   0  0  0  0  0  0  0  0  0  0  0  0
  144.8986   70.7699  219.8504 H   0  0  0  0  0  0  0  0  0  0  0  0
  146.5357   72.6229  220.0407 H   0  0  0  0  0  0  0  0  0  0  0  0
  145.6402   74.9378  220.5258 H   0  0  0  0  0  0  0  0  0  0  0  0
  142.4339   75.9080  221.6952 H   0  0  0  0  0  0  0  0  0  0  0  0
  143.4218   75.2688  218.2099 H   0  0  0  0  0  0  0  0  0  0  0  0
  143.3537   77.1543  216.6358 H   0  0  0  0  0  0  0  0  0  0  0  0
  142.3920   79.3435  217.3424 H   0  0  0  0  0  0  0  0  0  0  0  0
  141.4977   79.5837  219.6576 H   0  0  0  0  0  0  0  0  0  0  0  0
  141.5817   77.6855  221.2113 H   0  0  0  0  0  0  0  0  0  0  0  0
  138.3600   77.4986  219.0211 H   0  0  0  0  0  0  0  0  0  0  0  0
  137.2122   77.1670  220.3072 H   0  0  0  0  0  0  0  0  0  0  0  0
  139.8698   78.6054  220.9024 H   0  0  0  0  0  0  0  0  0  0  0  0
  138.4967   79.5393  220.3085 H   0  0  0  0  0  0  0  0  0  0  0  0
  1  2  1  0
  2  3  1  0
  3  4  2  0
  3  5  1  0
  5  6  1  0
  6  7  2  0
  7  8  1  0
  8  9  2  0
  9 10  1  0
 10 11  2  0
  5 12  1  0
 12 13  1  0
 13 14  1  0
 14 15  1  0
 15 16  1  0
 16 17  2  0
 16 18  1  0
 18 19  1  0
 18 20  1  0
 20 21  1  0
 21 22  2  0
 22 23  1  0
 23 24  2  0
 24 25  1  0
 25 26  2  0
 26 27  1  0
 27 28  1  0
 28 29  2  0
 29 30  1  0
 30 31  2  0
 31 32  1  0
 32 33  2  0
 15 34  1  0
 34 35  1  0
 11  6  1  0
 35 12  1  0
 27 20  1  0
 33 28  1  0
 26 21  1  0
  1 36  1  0
  1 37  1  0
  1 38  1  0
  2 39  1  0
  2 40  1  0
  7 41  1  0
  8 42  1  0
  9 43  1  0
 10 44  1  0
 11 45  1  0
 12 46  1  0
 13 47  1  0
 13 48  1  0
 14 49  1  0
 14 50  1  0
 18 51  1  1
 19 52  1  0
 19 53  1  0
 20 54  1  1
 22 55  1  0
 23 56  1  0
 24 57  1  0
 25 58  1  0
 27 59  1  1
 29 60  1  0
 30 61  1  0
 31 62  1  0
 32 63  1  0
 33 64  1  0
 34 65  1  0
 34 66  1  0
 35 67  1  0
 35 68  1  0
M  END
>  <smiles>  (188) 
CCC(=O)N(c1ccccc1)C1CCN(C(=O)[C@@H](N)C2c3ccccc3C2c2ccccc2)CC1

>  <score_type>  (188) 
oracle

>  <origin>  (188) 
autodockgpu

>  <m_score__min__energy>  (188) 
-9.6500000000000004

>  <m_primary>  (188) 
energy

>  <rmsd>  (188) 
7.049151494270643

>  <m_score__min__rmsd>  (188) 
7.049151494270643

>  <meeko>  (188) 
{"free_energy": -6.95, "intermolecular_energy": -9.33, "internal_energy": -4.4, "cluster_size": 30, "cluster_id": 2, "rank_in_cluster": 24}

>  <energy>  (188) 
-6.87

>  <cluster_rmsd>  (188) 
0.87

>  <cluster>  (188) 
2

$$$$

     RDKit          3D

 68 72  0  0  0  0  0  0  0  0999 V2000
  144.3380   83.0480  215.6540 C   0  0  0  0  0  0  0  0  0  0  0  0
  143.8390   83.0370  217.0870 C   0  0  0  0  0  0  0  0  0  0  0  0
  142.3500   83.1250  217.0880 C   0  0  0  0  0  0  0  0  0  0  0  0
  141.8580   83.9600  216.2560 O   0  0  0  0  0  0  0  0  0  0  0  0
  141.5300   82.3420  217.9490 N   0  0  0  0  0  0  0  0  0  0  0  0
  140.8070   83.0190  218.9660 C   0  0  0  0  0  0  0  0  0  0  0  0
  139.8230   83.9510  218.7180 C   0  0  0  0  0  0  0  0  0  0  0  0
  139.1690   84.5650  219.7900 C   0  0  0  0  0  0  0  0  0  0  0  0
  139.4830   84.2630  221.1050 C   0  0  0  0  0  0  0  0  0  0  0  0
  140.4750   83.3250  221.3550 C   0  0  0  0  0  0  0  0  0  0  0  0
  141.0980   82.7390  220.2810 C   0  0  0  0  0  0  0  0  0  0  0  0
  141.4840   80.9270  217.7250 C   0  0  0  0  0  0  0  0  0  0  0  0
  140.2590   80.2360  218.2020 C   0  0  0  0  0  0  0  0  0  0  0  0
  140.4380   79.5960  219.6010 C   0  0  0  0  0  0  0  0  0  0  0  0
  141.4330   78.5680  219.5120 N   0  0  0  0  0  0  0  0  0  0  0  0
  141.6300   77.4250  220.2730 C   0  0  0  0  0  0  0  0  0  0  0  0
  142.6690   76.7000  219.9160 O   0  0  0  0  0  0  0  0  0  0  0  0
  140.9120   76.8580  221.4060 C   0  0  1  0  0  0  0  0  0  0  0  0
  141.3480   75.4490  221.4990 N   0  0  0  0  0  0  0  0  0  0  0  0
  140.9120   77.5370  222.7110 C   0  0  1  0  0  0  0  0  0  0  0  0
  141.7050   78.7520  222.8660 C   0  0  0  0  0  0  0  0  0  0  0  0
  142.9340   79.4080  222.8120 C   0  0  0  0  0  0  0  0  0  0  0  0
  143.0220   80.7350  223.1310 C   0  0  0  0  0  0  0  0  0  0  0  0
  141.9360   81.4980  223.5160 C   0  0  0  0  0  0  0  0  0  0  0  0
  140.7030   80.8470  223.5720 C   0  0  0  0  0  0  0  0  0  0  0  0
  140.6300   79.5130  223.2490 C   0  0  0  0  0  0  0  0  0  0  0  0
  139.7220   78.3360  223.0960 C   0  0  1  0  0  0  0  0  0  0  0  0
  138.6480   78.5930  222.1410 C   0  0  0  0  0  0  0  0  0  0  0  0
  137.9380   77.6340  221.4530 C   0  0  0  0  0  0  0  0  0  0  0  0
  136.9270   77.9480  220.5660 C   0  0  0  0  0  0  0  0  0  0  0  0
  136.5910   79.2700  220.3390 C   0  0  0  0  0  0  0  0  0  0  0  0
  137.2830   80.2590  221.0130 C   0  0  0  0  0  0  0  0  0  0  0  0
  138.2850   79.9190  221.8890 C   0  0  0  0  0  0  0  0  0  0  0  0
  142.4200   78.8080  218.4090 C   0  0  0  0  0  0  0  0  0  0  0  0
  142.6680   80.3030  218.4670 C   0  0  0  0  0  0  0  0  0  0  0  0
  145.4377   83.0722  215.6489 H   0  0  0  0  0  0  0  0  0  0  0  0
  143.9888   82.1419  215.1372 H   0  0  0  0  0  0  0  0  0  0  0  0
  143.9492   83.9378  215.1372 H   0  0  0  0  0  0  0  0  0  0  0  0
  144.1529   82.1045  217.5788 H   0  0  0  0  0  0  0  0  0  0  0  0
  144.2605   83.8946  217.6319 H   0  0  0  0  0  0  0  0  0  0  0  0
  139.5539   84.2101  217.6834 H   0  0  0  0  0  0  0  0  0  0  0  0
  138.3842   85.3077  219.5839 H   0  0  0  0  0  0  0  0  0  0  0  0
  138.9564   84.7570  221.9349 H   0  0  0  0  0  0  0  0  0  0  0  0
  140.7543   83.0585  222.3850 H   0  0  0  0  0  0  0  0  0  0  0  0
  141.8826   81.9957  220.4858 H   0  0  0  0  0  0  0  0  0  0  0  0
  141.5056   80.7975  216.6329 H   0  0  0  0  0  0  0  0  0  0  0  0
  139.4395   80.9680  218.2525 H   0  0  0  0  0  0  0  0  0  0  0  0
  140.0382   79.4251  217.4923 H   0  0  0  0  0  0  0  0  0  0  0  0
  140.7613   80.3629  220.3203 H   0  0  0  0  0  0  0  0  0  0  0  0
  139.4844   79.1662  219.9414 H   0  0  0  0  0  0  0  0  0  0  0  0
  139.8459   76.9967  221.1733 H   0  0  0  0  0  0  0  0  0  0  0  0
  141.3560   75.0320  220.5440 H   0  0  0  0  0  0  0  0  0  0  0  0
  142.2050   75.3280  222.0440 H   0  0  0  0  0  0  0  0  0  0  0  0
  141.1752   76.6105  223.2423 H   0  0  0  0  0  0  0  0  0  0  0  0
  143.8367   78.8559  222.5115 H   0  0  0  0  0  0  0  0  0  0  0  0
  144.0079   81.2199  223.0784 H   0  0  0  0  0  0  0  0  0  0  0  0
  142.0383   82.5644  223.7657 H   0  0  0  0  0  0  0  0  0  0  0  0
  139.7982   81.3961  223.8718 H   0  0  0  0  0  0  0  0  0  0  0  0
  139.0702   77.9245  223.8807 H   0  0  0  0  0  0  0  0  0  0  0  0
  138.1863   76.5750  221.6167 H   0  0  0  0  0  0  0  0  0  0  0  0
  136.3887   77.1459  220.0398 H   0  0  0  0  0  0  0  0  0  0  0  0
  135.7872   79.5301  219.6345 H   0  0  0  0  0  0  0  0  0  0  0  0
  137.0315   81.3171  220.8480 H   0  0  0  0  0  0  0  0  0  0  0  0
  138.8232   80.7225  222.4131 H   0  0  0  0  0  0  0  0  0  0  0  0
  143.3505   78.2489  218.5868 H   0  0  0  0  0  0  0  0  0  0  0  0
  142.0516   78.4749  217.4275 H   0  0  0  0  0  0  0  0  0  0  0  0
  142.6976   80.6503  219.5103 H   0  0  0  0  0  0  0  0  0  0  0  0
  143.6323   80.5808  218.0165 H   0  0  0  0  0  0  0  0  0  0  0  0
  1  2  1  0
  2  3  1  0
  3  4  2  0
  3  5  1  0
  5  6  1  0
  6  7  2  0
  7  8  1  0
  8  9  2  0
  9 10  1  0
 10 11  2  0
  5 12  1  0
 12 13  1  0
 13 14  1  0
 14 15  1  0
 15 16  1  0
 16 17  2  0
 16 18  1  0
 18 19  1  0
 18 20  1  0
 20 21  1  0
 21 22  2  0
 22 23  1  0
 23 24  2  0
 24 25  1  0
 25 26  2  0
 26 27  1  0
 27 28  1  0
 28 29  2  0
 29 30  1  0
 30 31  2  0
 31 32  1  0
 32 33  2  0
 15 34  1  0
 34 35  1  0
 11  6  1  0
 35 12  1  0
 27 20  1  0
 33 28  1  0
 26 21  1  0
  1 36  1  0
  1 37  1  0
  1 38  1  0
  2 39  1  0
  2 40  1  0
  7 41  1  0
  8 42  1  0
  9 43  1  0
 10 44  1  0
 11 45  1  0
 12 46  1  0
 13 47  1  0
 13 48  1  0
 14 49  1  0
 14 50  1  0
 18 51  1  6
 19 52  1  0
 19 53  1  0
 20 54  1  1
 22 55  1  0
 23 56  1  0
 24 57  1  0
 25 58  1  0
 27 59  1  1
 29 60  1  0
 30 61  1  0
 31 62  1  0
 32 63  1  0
 33 64  1  0
 34 65  1  0
 34 66  1  0
 35 67  1  0
 35 68  1  0
M  END
>  <smiles>  (189) 
CCC(=O)N(c1ccccc1)C1CCN(C(=O)[C@@H](N)C2c3ccccc3C2c2ccccc2)CC1

>  <score_type>  (189) 
oracle

>  <origin>  (189) 
autodockgpu

>  <m_score__min__energy>  (189) 
-9.6500000000000004

>  <m_primary>  (189) 
energy

>  <rmsd>  (189) 
9.269936376625203

>  <m_score__min__rmsd>  (189) 
9.269936376625203

>  <meeko>  (189) 
{"free_energy": -6.54, "intermolecular_energy": -8.92, "internal_energy": -4.75, "cluster_size": 11, "cluster_id": 3, "rank_in_cluster": 4}

>  <energy>  (189) 
-6.81

>  <cluster_rmsd>  (189) 
1.09

>  <cluster>  (189) 
2

$$$$

     RDKit          3D

 68 72  0  0  0  0  0  0  0  0999 V2000
  146.3490   73.3570  221.6050 C   0  0  0  0  0  0  0  0  0  0  0  0
  145.1370   73.7110  220.7630 C   0  0  0  0  0  0  0  0  0  0  0  0
  145.0890   72.8130  219.5720 C   0  0  0  0  0  0  0  0  0  0  0  0
  145.9500   73.0720  218.6660 O   0  0  0  0  0  0  0  0  0  0  0  0
  144.1550   71.7460  219.4470 N   0  0  0  0  0  0  0  0  0  0  0  0
  144.6700   70.4260  219.3700 C   0  0  0  0  0  0  0  0  0  0  0  0
  145.9480   70.1240  218.9530 C   0  0  0  0  0  0  0  0  0  0  0  0
  146.3620   68.7890  218.9110 C   0  0  0  0  0  0  0  0  0  0  0  0
  145.5180   67.7530  219.2760 C   0  0  0  0  0  0  0  0  0  0  0  0
  144.2310   68.0560  219.6940 C   0  0  0  0  0  0  0  0  0  0  0  0
  143.8550   69.3770  219.7270 C   0  0  0  0  0  0  0  0  0  0  0  0
  142.7600   72.0770  219.4160 C   0  0  0  0  0  0  0  0  0  0  0  0
  142.4220   73.4020  218.8390 C   0  0  0  0  0  0  0  0  0  0  0  0
  142.2370   74.4970  219.9190 C   0  0  0  0  0  0  0  0  0  0  0  0
  141.1120   74.1500  220.7370 N   0  0  0  0  0  0  0  0  0  0  0  0
  140.2520   74.9420  221.4830 C   0  0  0  0  0  0  0  0  0  0  0  0
  139.3210   74.2770  222.1350 O   0  0  0  0  0  0  0  0  0  0  0  0
  140.1700   76.3800  221.6970 C   0  0  1  0  0  0  0  0  0  0  0  0
  139.4170   76.5610  222.9560 N   0  0  0  0  0  0  0  0  0  0  0  0
  141.3780   77.2180  221.6350 C   0  0  1  0  0  0  0  0  0  0  0  0
  141.7700   77.7830  220.3480 C   0  0  0  0  0  0  0  0  0  0  0  0
  142.1310   77.6120  219.0130 C   0  0  0  0  0  0  0  0  0  0  0  0
  142.4290   78.6960  218.2340 C   0  0  0  0  0  0  0  0  0  0  0  0
  142.3950   79.9970  218.6980 C   0  0  0  0  0  0  0  0  0  0  0  0
  142.0340   80.1770  220.0340 C   0  0  0  0  0  0  0  0  0  0  0  0
  141.7370   79.0770  220.8040 C   0  0  0  0  0  0  0  0  0  0  0  0
  141.3050   78.6060  222.1560 C   0  0  1  0  0  0  0  0  0  0  0  0
  140.0300   79.1940  222.5590 C   0  0  0  0  0  0  0  0  0  0  0  0
  139.6960   79.5880  223.8350 C   0  0  0  0  0  0  0  0  0  0  0  0
  138.4710   80.1430  224.1480 C   0  0  0  0  0  0  0  0  0  0  0  0
  137.5210   80.3240  223.1590 C   0  0  0  0  0  0  0  0  0  0  0  0
  137.8230   79.9400  221.8650 C   0  0  0  0  0  0  0  0  0  0  0  0
  139.0500   79.3890  221.5830 C   0  0  0  0  0  0  0  0  0  0  0  0
  140.8600   72.6720  220.7830 C   0  0  0  0  0  0  0  0  0  0  0  0
  142.2510   72.0730  220.8590 C   0  0  0  0  0  0  0  0  0  0  0  0
  146.0895   73.4328  222.6713 H   0  0  0  0  0  0  0  0  0  0  0  0
  146.6662   72.3287  221.3770 H   0  0  0  0  0  0  0  0  0  0  0  0
  147.1698   74.0529  221.3770 H   0  0  0  0  0  0  0  0  0  0  0  0
  144.2227   73.5794  221.3603 H   0  0  0  0  0  0  0  0  0  0  0  0
  145.2080   74.7583  220.4342 H   0  0  0  0  0  0  0  0  0  0  0  0
  146.6378   70.9274  218.6552 H   0  0  0  0  0  0  0  0  0  0  0  0
  147.3845   68.5554  218.5795 H   0  0  0  0  0  0  0  0  0  0  0  0
  145.8624   66.7091  219.2350 H   0  0  0  0  0  0  0  0  0  0  0  0
  143.5309   67.2611  219.9908 H   0  0  0  0  0  0  0  0  0  0  0  0
  142.8336   69.6115  220.0614 H   0  0  0  0  0  0  0  0  0  0  0  0
  142.2912   71.3275  218.7614 H   0  0  0  0  0  0  0  0  0  0  0  0
  143.2339   73.7085  218.1631 H   0  0  0  0  0  0  0  0  0  0  0  0
  141.4654   73.2971  218.3061 H   0  0  0  0  0  0  0  0  0  0  0  0
  143.1419   74.5598  220.5413 H   0  0  0  0  0  0  0  0  0  0  0  0
  142.0651   75.4717  219.4390 H   0  0  0  0  0  0  0  0  0  0  0  0
  139.6726   76.7797  220.8010 H   0  0  0  0  0  0  0  0  0  0  0  0
  138.5910   77.1680  222.7730 H   0  0  0  0  0  0  0  0  0  0  0  0
  139.2230   75.6790  223.4390 H   0  0  0  0  0  0  0  0  0  0  0  0
  141.9903   76.4516  222.1327 H   0  0  0  0  0  0  0  0  0  0  0  0
  142.1765   76.6003  218.5836 H   0  0  0  0  0  0  0  0  0  0  0  0
  142.7100   78.5232  217.1846 H   0  0  0  0  0  0  0  0  0  0  0  0
  142.6403   80.8487  218.0466 H   0  0  0  0  0  0  0  0  0  0  0  0
  141.9875   81.1874  220.4663 H   0  0  0  0  0  0  0  0  0  0  0  0
  141.8225   78.8166  223.1036 H   0  0  0  0  0  0  0  0  0  0  0  0
  140.4355   79.4552  224.6384 H   0  0  0  0  0  0  0  0  0  0  0  0
  138.2506   80.4411  225.1836 H   0  0  0  0  0  0  0  0  0  0  0  0
  136.5422   80.7657  223.3975 H   0  0  0  0  0  0  0  0  0  0  0  0
  137.0824   80.0754  221.0630 H   0  0  0  0  0  0  0  0  0  0  0  0
  139.2691   79.0896  220.5474 H   0  0  0  0  0  0  0  0  0  0  0  0
  140.2677   72.4024  221.6699 H   0  0  0  0  0  0  0  0  0  0  0  0
  140.2864   72.3100  219.9170 H   0  0  0  0  0  0  0  0  0  0  0  0
  142.9016   72.6853  221.5007 H   0  0  0  0  0  0  0  0  0  0  0  0
  142.2438   71.0623  221.2930 H   0  0  0  0  0  0  0  0  0  0  0  0
  1  2  1  0
  2  3  1  0
  3  4  2  0
  3  5  1  0
  5  6  1  0
  6  7  2  0
  7  8  1  0
  8  9  2  0
  9 10  1  0
 10 11  2  0
  5 12  1  0
 12 13  1  0
 13 14  1  0
 14 15  1  0
 15 16  1  0
 16 17  2  0
 16 18  1  0
 18 19  1  0
 18 20  1  0
 20 21  1  0
 21 22  2  0
 22 23  1  0
 23 24  2  0
 24 25  1  0
 25 26  2  0
 26 27  1  0
 27 28  1  0
 28 29  2  0
 29 30  1  0
 30 31  2  0
 31 32  1  0
 32 33  2  0
 15 34  1  0
 34 35  1  0
 11  6  1  0
 35 12  1  0
 27 20  1  0
 33 28  1  0
 26 21  1  0
  1 36  1  0
  1 37  1  0
  1 38  1  0
  2 39  1  0
  2 40  1  0
  7 41  1  0
  8 42  1  0
  9 43  1  0
 10 44  1  0
 11 45  1  0
 12 46  1  0
 13 47  1  0
 13 48  1  0
 14 49  1  0
 14 50  1  0
 18 51  1  6
 19 52  1  0
 19 53  1  0
 20 54  1  1
 22 55  1  0
 23 56  1  0
 24 57  1  0
 25 58  1  0
 27 59  1  1
 29 60  1  0
 30 61  1  0
 31 62  1  0
 32 63  1  0
 33 64  1  0
 34 65  1  0
 34 66  1  0
 35 67  1  0
 35 68  1  0
M  END
>  <smiles>  (190) 
CCC(=O)N(c1ccccc1)C1CCN(C(=O)[C@@H](N)C2c3ccccc3C2c2ccccc2)CC1

>  <score_type>  (190) 
oracle

>  <origin>  (190) 
autodockgpu

>  <m_score__min__energy>  (190) 
-9.6500000000000004

>  <m_primary>  (190) 
energy

>  <rmsd>  (190) 
9.383708120002932

>  <m_score__min__rmsd>  (190) 
9.383708120002932

>  <meeko>  (190) 
{"free_energy": -8.61, "intermolecular_energy": -11.0, "internal_energy": -2.84, "cluster_size": 9, "cluster_id": 1, "rank_in_cluster": 7}

>  <energy>  (190) 
-6.56

>  <cluster_rmsd>  (190) 
0.0

>  <cluster>  (190) 
3

$$$$

     RDKit          3D

 68 72  0  0  0  0  0  0  0  0999 V2000
  145.6690   74.0950  220.8400 C   0  0  0  0  0  0  0  0  0  0  0  0
  146.0560   72.6390  220.6590 C   0  0  0  0  0  0  0  0  0  0  0  0
  145.4650   72.1290  219.3880 C   0  0  0  0  0  0  0  0  0  0  0  0
  145.9280   72.6640  218.3250 O   0  0  0  0  0  0  0  0  0  0  0  0
  144.4600   71.1210  219.3520 N   0  0  0  0  0  0  0  0  0  0  0  0
  144.8820   69.7760  219.1850 C   0  0  0  0  0  0  0  0  0  0  0  0
  144.4200   68.7260  219.9480 C   0  0  0  0  0  0  0  0  0  0  0  0
  144.8990   67.4350  219.7060 C   0  0  0  0  0  0  0  0  0  0  0  0
  145.8320   67.1780  218.7140 C   0  0  0  0  0  0  0  0  0  0  0  0
  146.2980   68.2350  217.9460 C   0  0  0  0  0  0  0  0  0  0  0  0
  145.8070   69.4910  218.2070 C   0  0  0  0  0  0  0  0  0  0  0  0
  143.0950   71.5320  219.4950 C   0  0  0  0  0  0  0  0  0  0  0  0
  142.7010   72.7460  218.7370 C   0  0  0  0  0  0  0  0  0  0  0  0
  142.7500   74.0330  219.5980 C   0  0  0  0  0  0  0  0  0  0  0  0
  141.7800   73.9200  220.6480 N   0  0  0  0  0  0  0  0  0  0  0  0
  141.0940   74.8930  221.3610 C   0  0  0  0  0  0  0  0  0  0  0  0
  140.2760   74.4250  222.2790 O   0  0  0  0  0  0  0  0  0  0  0  0
  141.1000   76.3480  221.3010 C   0  0  1  0  0  0  0  0  0  0  0  0
  142.3070   76.7170  220.5310 N   0  0  0  0  0  0  0  0  0  0  0  0
  139.9040   77.0870  220.8670 C   0  0  1  0  0  0  0  0  0  0  0  0
  138.6670   76.9180  221.6240 C   0  0  0  0  0  0  0  0  0  0  0  0
  137.6620   76.0950  222.1290 C   0  0  0  0  0  0  0  0  0  0  0  0
  136.6300   76.6300  222.8500 C   0  0  0  0  0  0  0  0  0  0  0  0
  136.5120   77.9790  223.1210 C   0  0  0  0  0  0  0  0  0  0  0  0
  137.5150   78.8100  222.6190 C   0  0  0  0  0  0  0  0  0  0  0  0
  138.5460   78.2570  221.8960 C   0  0  0  0  0  0  0  0  0  0  0  0
  139.8190   78.5380  221.1650 C   0  0  1  0  0  0  0  0  0  0  0  0
  140.8080   79.1900  222.0190 C   0  0  0  0  0  0  0  0  0  0  0  0
  141.6450   80.2160  221.6400 C   0  0  0  0  0  0  0  0  0  0  0  0
  142.5560   80.7930  222.5010 C   0  0  0  0  0  0  0  0  0  0  0  0
  142.6550   80.3430  223.8060 C   0  0  0  0  0  0  0  0  0  0  0  0
  141.8310   79.3150  224.2220 C   0  0  0  0  0  0  0  0  0  0  0  0
  140.9330   78.7580  223.3420 C   0  0  0  0  0  0  0  0  0  0  0  0
  141.4930   72.4970  221.0240 C   0  0  0  0  0  0  0  0  0  0  0  0
  142.8540   71.8310  220.9770 C   0  0  0  0  0  0  0  0  0  0  0  0
  145.6073   74.3273  221.9134 H   0  0  0  0  0  0  0  0  0  0  0  0
  146.4276   74.7373  220.3689 H   0  0  0  0  0  0  0  0  0  0  0  0
  144.6916   74.2759  220.3689 H   0  0  0  0  0  0  0  0  0  0  0  0
  147.1517   72.5521  220.6162 H   0  0  0  0  0  0  0  0  0  0  0  0
  145.6775   72.0479  221.5060 H   0  0  0  0  0  0  0  0  0  0  0  0
  143.6794   68.9022  220.7421 H   0  0  0  0  0  0  0  0  0  0  0  0
  144.5256   66.6015  220.3190 H   0  0  0  0  0  0  0  0  0  0  0  0
  146.1962   66.1549  218.5389 H   0  0  0  0  0  0  0  0  0  0  0  0
  147.0399   68.0719  217.1504 H   0  0  0  0  0  0  0  0  0  0  0  0
  146.1781   70.3249  217.5930 H   0  0  0  0  0  0  0  0  0  0  0  0
  142.4925   70.7063  219.0884 H   0  0  0  0  0  0  0  0  0  0  0  0
  143.3866   72.8666  217.8853 H   0  0  0  0  0  0  0  0  0  0  0  0
  141.6609   72.6075  218.4069 H   0  0  0  0  0  0  0  0  0  0  0  0
  143.7539   74.1500  220.0323 H   0  0  0  0  0  0  0  0  0  0  0  0
  142.5265   74.9107  218.9737 H   0  0  0  0  0  0  0  0  0  0  0  0
  141.1008   76.6826  222.3489 H   0  0  0  0  0  0  0  0  0  0  0  0
  142.6420   77.6490  220.8520 H   0  0  0  0  0  0  0  0  0  0  0  0
  143.0100   75.9750  220.5060 H   0  0  0  0  0  0  0  0  0  0  0  0
  139.9974   76.7204  219.8341 H   0  0  0  0  0  0  0  0  0  0  0  0
  137.6988   75.0108  221.9470 H   0  0  0  0  0  0  0  0  0  0  0  0
  135.8543   75.9509  223.2336 H   0  0  0  0  0  0  0  0  0  0  0  0
  135.6691   78.3790  223.7037 H   0  0  0  0  0  0  0  0  0  0  0  0
  137.4812   79.8945  222.7996 H   0  0  0  0  0  0  0  0  0  0  0  0
  139.9323   79.2338  220.3206 H   0  0  0  0  0  0  0  0  0  0  0  0
  141.5848   80.5912  220.6077 H   0  0  0  0  0  0  0  0  0  0  0  0
  143.2033   81.6103  222.1502 H   0  0  0  0  0  0  0  0  0  0  0  0
  143.3777   80.7962  224.5005 H   0  0  0  0  0  0  0  0  0  0  0  0
  141.8931   78.9428  225.2552 H   0  0  0  0  0  0  0  0  0  0  0  0
  140.2873   77.9398  223.6936 H   0  0  0  0  0  0  0  0  0  0  0  0
  141.0620   72.4376  222.0343 H   0  0  0  0  0  0  0  0  0  0  0  0
  140.7614   72.0190  220.3560 H   0  0  0  0  0  0  0  0  0  0  0  0
  143.6294   72.5070  221.3665 H   0  0  0  0  0  0  0  0  0  0  0  0
  142.8916   70.9214  221.5945 H   0  0  0  0  0  0  0  0  0  0  0  0
  1  2  1  0
  2  3  1  0
  3  4  2  0
  3  5  1  0
  5  6  1  0
  6  7  2  0
  7  8  1  0
  8  9  2  0
  9 10  1  0
 10 11  2  0
  5 12  1  0
 12 13  1  0
 13 14  1  0
 14 15  1  0
 15 16  1  0
 16 17  2  0
 16 18  1  0
 18 19  1  0
 18 20  1  0
 20 21  1  0
 21 22  2  0
 22 23  1  0
 23 24  2  0
 24 25  1  0
 25 26  2  0
 26 27  1  0
 27 28  1  0
 28 29  2  0
 29 30  1  0
 30 31  2  0
 31 32  1  0
 32 33  2  0
 15 34  1  0
 34 35  1  0
 11  6  1  0
 35 12  1  0
 27 20  1  0
 33 28  1  0
 26 21  1  0
  1 36  1  0
  1 37  1  0
  1 38  1  0
  2 39  1  0
  2 40  1  0
  7 41  1  0
  8 42  1  0
  9 43  1  0
 10 44  1  0
 11 45  1  0
 12 46  1  0
 13 47  1  0
 13 48  1  0
 14 49  1  0
 14 50  1  0
 18 51  1  1
 19 52  1  0
 19 53  1  0
 20 54  1  6
 22 55  1  0
 23 56  1  0
 24 57  1  0
 25 58  1  0
 27 59  1  6
 29 60  1  0
 30 61  1  0
 31 62  1  0
 32 63  1  0
 33 64  1  0
 34 65  1  0
 34 66  1  0
 35 67  1  0
 35 68  1  0
M  END
>  <smiles>  (191) 
CCC(=O)N(c1ccccc1)C1CCN(C(=O)[C@@H](N)C2c3ccccc3C2c2ccccc2)CC1

>  <score_type>  (191) 
oracle

>  <origin>  (191) 
autodockgpu

>  <m_score__min__energy>  (191) 
-9.6500000000000004

>  <m_primary>  (191) 
energy

>  <rmsd>  (191) 
8.178321616302297

>  <m_score__min__rmsd>  (191) 
8.178321616302297

>  <meeko>  (191) 
{"free_energy": -9.43, "intermolecular_energy": -11.82, "internal_energy": -2.21, "cluster_size": 9, "cluster_id": 1, "rank_in_cluster": 3}

>  <energy>  (191) 
-6.56

>  <cluster_rmsd>  (191) 
0.09

>  <cluster>  (191) 
3

$$$$

     RDKit          3D

 68 72  0  0  0  0  0  0  0  0999 V2000
  144.1250   84.6160  217.0930 C   0  0  0  0  0  0  0  0  0  0  0  0
  143.7140   83.1550  217.0670 C   0  0  0  0  0  0  0  0  0  0  0  0
  142.2270   83.0660  216.9930 C   0  0  0  0  0  0  0  0  0  0  0  0
  141.6900   83.7540  216.0620 O   0  0  0  0  0  0  0  0  0  0  0  0
  141.4560   82.2740  217.8900 N   0  0  0  0  0  0  0  0  0  0  0  0
  140.7490   82.9460  218.9220 C   0  0  0  0  0  0  0  0  0  0  0  0
  139.6820   83.7880  218.6980 C   0  0  0  0  0  0  0  0  0  0  0  0
  139.0520   84.4060  219.7840 C   0  0  0  0  0  0  0  0  0  0  0  0
  139.4730   84.1960  221.0860 C   0  0  0  0  0  0  0  0  0  0  0  0
  140.5490   83.3490  221.3120 C   0  0  0  0  0  0  0  0  0  0  0  0
  141.1460   82.7560  220.2250 C   0  0  0  0  0  0  0  0  0  0  0  0
  141.4390   80.8550  217.6860 C   0  0  0  0  0  0  0  0  0  0  0  0
  140.2220   80.1480  218.1600 C   0  0  0  0  0  0  0  0  0  0  0  0
  140.3980   79.5310  219.5700 C   0  0  0  0  0  0  0  0  0  0  0  0
  141.4130   78.5200  219.5050 N   0  0  0  0  0  0  0  0  0  0  0  0
  141.6240   77.3920  220.2840 C   0  0  0  0  0  0  0  0  0  0  0  0
  142.6800   76.6830  219.9480 O   0  0  0  0  0  0  0  0  0  0  0  0
  140.9060   76.8280  221.4190 C   0  0  1  0  0  0  0  0  0  0  0  0
  141.3520   75.4230  221.5220 N   0  0  0  0  0  0  0  0  0  0  0  0
  140.8950   77.5160  222.7190 C   0  0  1  0  0  0  0  0  0  0  0  0
  141.6860   78.7320  222.8710 C   0  0  0  0  0  0  0  0  0  0  0  0
  142.9150   79.3890  222.8230 C   0  0  0  0  0  0  0  0  0  0  0  0
  142.9990   80.7180  223.1330 C   0  0  0  0  0  0  0  0  0  0  0  0
  141.9100   81.4830  223.5040 C   0  0  0  0  0  0  0  0  0  0  0  0
  140.6760   80.8320  223.5550 C   0  0  0  0  0  0  0  0  0  0  0  0
  140.6070   79.4950  223.2400 C   0  0  0  0  0  0  0  0  0  0  0  0
  139.7010   78.3170  223.0880 C   0  0  1  0  0  0  0  0  0  0  0  0
  138.6340   78.5670  222.1230 C   0  0  0  0  0  0  0  0  0  0  0  0
  137.9390   77.6030  221.4270 C   0  0  0  0  0  0  0  0  0  0  0  0
  136.9350   77.9090  220.5310 C   0  0  0  0  0  0  0  0  0  0  0  0
  136.5900   79.2290  220.3020 C   0  0  0  0  0  0  0  0  0  0  0  0
  137.2670   80.2230  220.9840 C   0  0  0  0  0  0  0  0  0  0  0  0
  138.2630   79.8900  221.8700 C   0  0  0  0  0  0  0  0  0  0  0  0
  142.4070   78.7640  218.4080 C   0  0  0  0  0  0  0  0  0  0  0  0
  142.6260   80.2640  218.4480 C   0  0  0  0  0  0  0  0  0  0  0  0
  144.2195   84.9518  218.1362 H   0  0  0  0  0  0  0  0  0  0  0  0
  145.0913   84.7342  216.5808 H   0  0  0  0  0  0  0  0  0  0  0  0
  143.3621   85.2207  216.5808 H   0  0  0  0  0  0  0  0  0  0  0  0
  144.1563   82.6638  216.1878 H   0  0  0  0  0  0  0  0  0  0  0  0
  144.0696   82.6544  217.9796 H   0  0  0  0  0  0  0  0  0  0  0  0
  139.3279   83.9732  217.6732 H   0  0  0  0  0  0  0  0  0  0  0  0
  138.1998   85.0763  219.5982 H   0  0  0  0  0  0  0  0  0  0  0  0
  138.9641   84.6914  221.9260 H   0  0  0  0  0  0  0  0  0  0  0  0
  140.9137   83.1577  222.3320 H   0  0  0  0  0  0  0  0  0  0  0  0
  141.9978   82.0849  220.4096 H   0  0  0  0  0  0  0  0  0  0  0  0
  141.4747   80.7105  216.5961 H   0  0  0  0  0  0  0  0  0  0  0  0
  139.3886   80.8652  218.1916 H   0  0  0  0  0  0  0  0  0  0  0  0
  140.0238   79.3233  217.4596 H   0  0  0  0  0  0  0  0  0  0  0  0
  140.6998   80.3136  220.2817 H   0  0  0  0  0  0  0  0  0  0  0  0
  139.4489   79.0887  219.9072 H   0  0  0  0  0  0  0  0  0  0  0  0
  139.8395   76.9579  221.1828 H   0  0  0  0  0  0  0  0  0  0  0  0
  141.3810   75.0040  220.5700 H   0  0  0  0  0  0  0  0  0  0  0  0
  142.2000   75.3100  222.0840 H   0  0  0  0  0  0  0  0  0  0  0  0
  141.1543   76.5938  223.2597 H   0  0  0  0  0  0  0  0  0  0  0  0
  143.8208   78.8357  222.5345 H   0  0  0  0  0  0  0  0  0  0  0  0
  143.9849   81.2034  223.0845 H   0  0  0  0  0  0  0  0  0  0  0  0
  142.0102   82.5511  223.7470 H   0  0  0  0  0  0  0  0  0  0  0  0
  139.7686   81.3825  223.8440 H   0  0  0  0  0  0  0  0  0  0  0  0
  139.0427   77.9103  223.8698 H   0  0  0  0  0  0  0  0  0  0  0  0
  138.1946   76.5459  221.5920 H   0  0  0  0  0  0  0  0  0  0  0  0
  136.4088   77.1030  219.9987 H   0  0  0  0  0  0  0  0  0  0  0  0
  135.7911   79.4832  219.5899 H   0  0  0  0  0  0  0  0  0  0  0  0
  137.0086   81.2792  220.8175 H   0  0  0  0  0  0  0  0  0  0  0  0
  138.7891   80.6969  222.4011 H   0  0  0  0  0  0  0  0  0  0  0  0
  143.3460   78.2252  218.6027 H   0  0  0  0  0  0  0  0  0  0  0  0
  142.0549   78.4107  217.4276 H   0  0  0  0  0  0  0  0  0  0  0  0
  142.6381   80.6259  219.4867 H   0  0  0  0  0  0  0  0  0  0  0  0
  143.5895   80.5540  218.0035 H   0  0  0  0  0  0  0  0  0  0  0  0
  1  2  1  0
  2  3  1  0
  3  4  2  0
  3  5  1  0
  5  6  1  0
  6  7  2  0
  7  8  1  0
  8  9  2  0
  9 10  1  0
 10 11  2  0
  5 12  1  0
 12 13  1  0
 13 14  1  0
 14 15  1  0
 15 16  1  0
 16 17  2  0
 16 18  1  0
 18 19  1  0
 18 20  1  0
 20 21  1  0
 21 22  2  0
 22 23  1  0
 23 24  2  0
 24 25  1  0
 25 26  2  0
 26 27  1  0
 27 28  1  0
 28 29  2  0
 29 30  1  0
 30 31  2  0
 31 32  1  0
 32 33  2  0
 15 34  1  0
 34 35  1  0
 11  6  1  0
 35 12  1  0
 27 20  1  0
 33 28  1  0
 26 21  1  0
  1 36  1  0
  1 37  1  0
  1 38  1  0
  2 39  1  0
  2 40  1  0
  7 41  1  0
  8 42  1  0
  9 43  1  0
 10 44  1  0
 11 45  1  0
 12 46  1  0
 13 47  1  0
 13 48  1  0
 14 49  1  0
 14 50  1  0
 18 51  1  6
 19 52  1  0
 19 53  1  0
 20 54  1  1
 22 55  1  0
 23 56  1  0
 24 57  1  0
 25 58  1  0
 27 59  1  1
 29 60  1  0
 30 61  1  0
 31 62  1  0
 32 63  1  0
 33 64  1  0
 34 65  1  0
 34 66  1  0
 35 67  1  0
 35 68  1  0
M  END
>  <smiles>  (192) 
CCC(=O)N(c1ccccc1)C1CCN(C(=O)[C@@H](N)C2c3ccccc3C2c2ccccc2)CC1

>  <score_type>  (192) 
oracle

>  <origin>  (192) 
autodockgpu

>  <m_score__min__energy>  (192) 
-9.6500000000000004

>  <m_primary>  (192) 
energy

>  <rmsd>  (192) 
9.243921624686338

>  <m_score__min__rmsd>  (192) 
9.243921624686338

>  <meeko>  (192) 
{"free_energy": -6.47, "intermolecular_energy": -8.85, "internal_energy": -4.82, "cluster_size": 11, "cluster_id": 3, "rank_in_cluster": 10}

>  <energy>  (192) 
-6.54

>  <cluster_rmsd>  (192) 
0.1

>  <cluster>  (192) 
3

$$$$

     RDKit          3D

 68 72  0  0  0  0  0  0  0  0999 V2000
  144.0980   84.5130  217.0850 C   0  0  0  0  0  0  0  0  0  0  0  0
  143.8280   83.0280  216.9280 C   0  0  0  0  0  0  0  0  0  0  0  0
  142.3560   82.8030  216.8450 C   0  0  0  0  0  0  0  0  0  0  0  0
  141.7920   83.2980  215.8130 O   0  0  0  0  0  0  0  0  0  0  0  0
  141.6260   82.0900  217.8380 N   0  0  0  0  0  0  0  0  0  0  0  0
  141.0490   82.8400  218.8960 C   0  0  0  0  0  0  0  0  0  0  0  0
  141.3360   82.6360  220.2280 C   0  0  0  0  0  0  0  0  0  0  0  0
  140.7120   83.4280  221.1970 C   0  0  0  0  0  0  0  0  0  0  0  0
  139.8070   84.4190  220.8550 C   0  0  0  0  0  0  0  0  0  0  0  0
  139.5170   84.6250  219.5140 C   0  0  0  0  0  0  0  0  0  0  0  0
  140.1460   83.8320  218.5860 C   0  0  0  0  0  0  0  0  0  0  0  0
  141.5180   80.6680  217.6980 C   0  0  0  0  0  0  0  0  0  0  0  0
  140.2690   80.0600  218.2230 C   0  0  0  0  0  0  0  0  0  0  0  0
  140.4340   79.4940  219.6560 C   0  0  0  0  0  0  0  0  0  0  0  0
  141.3840   78.4210  219.6200 N   0  0  0  0  0  0  0  0  0  0  0  0
  141.5400   77.3170  220.4450 C   0  0  0  0  0  0  0  0  0  0  0  0
  142.5440   76.5280  220.1230 O   0  0  0  0  0  0  0  0  0  0  0  0
  140.8100   76.8480  221.6150 C   0  0  1  0  0  0  0  0  0  0  0  0
  141.2180   75.4410  221.8100 N   0  0  0  0  0  0  0  0  0  0  0  0
  140.8230   77.6200  222.8670 C   0  0  1  0  0  0  0  0  0  0  0  0
  141.6820   78.7960  222.9530 C   0  0  0  0  0  0  0  0  0  0  0  0
  142.9470   79.3760  222.8820 C   0  0  0  0  0  0  0  0  0  0  0  0
  143.1050   80.7160  223.1060 C   0  0  0  0  0  0  0  0  0  0  0  0
  142.0580   81.5650  223.4090 C   0  0  0  0  0  0  0  0  0  0  0  0
  140.7880   80.9920  223.4810 C   0  0  0  0  0  0  0  0  0  0  0  0
  140.6450   79.6430  223.2530 C   0  0  0  0  0  0  0  0  0  0  0  0
  139.6730   78.5110  223.1630 C   0  0  1  0  0  0  0  0  0  0  0  0
  138.6350   78.7580  222.1660 C   0  0  0  0  0  0  0  0  0  0  0  0
  137.9370   77.7910  221.4770 C   0  0  0  0  0  0  0  0  0  0  0  0
  136.9620   78.0940  220.5490 C   0  0  0  0  0  0  0  0  0  0  0  0
  136.6510   79.4150  220.2780 C   0  0  0  0  0  0  0  0  0  0  0  0
  137.3310   80.4120  220.9510 C   0  0  0  0  0  0  0  0  0  0  0  0
  138.2990   80.0810  221.8700 C   0  0  0  0  0  0  0  0  0  0  0  0
  142.3690   78.5530  218.4970 C   0  0  0  0  0  0  0  0  0  0  0  0
  142.6810   80.0370  218.4660 C   0  0  0  0  0  0  0  0  0  0  0  0
  144.1441   84.7662  218.1545 H   0  0  0  0  0  0  0  0  0  0  0  0
  145.0565   84.7639  216.6072 H   0  0  0  0  0  0  0  0  0  0  0  0
  143.2892   85.0853  216.6072 H   0  0  0  0  0  0  0  0  0  0  0  0
  144.3085   82.6619  216.0087 H   0  0  0  0  0  0  0  0  0  0  0  0
  144.2366   82.4847  217.7928 H   0  0  0  0  0  0  0  0  0  0  0  0
  142.0511   81.8555  220.5272 H   0  0  0  0  0  0  0  0  0  0  0  0
  140.9461   83.2595  222.2585 H   0  0  0  0  0  0  0  0  0  0  0  0
  139.3269   85.0316  221.6324 H   0  0  0  0  0  0  0  0  0  0  0  0
  138.8031   85.4019  219.2028 H   0  0  0  0  0  0  0  0  0  0  0  0
  139.9129   84.0006  217.5243 H   0  0  0  0  0  0  0  0  0  0  0  0
  141.5243   80.4743  216.6152 H   0  0  0  0  0  0  0  0  0  0  0  0
  139.4825   80.8289  218.2371 H   0  0  0  0  0  0  0  0  0  0  0  0
  140.0062   79.2202  217.5630 H   0  0  0  0  0  0  0  0  0  0  0  0
  140.7960   80.2865  220.3275 H   0  0  0  0  0  0  0  0  0  0  0  0
  139.4663   79.1254  220.0270 H   0  0  0  0  0  0  0  0  0  0  0  0
  139.7467   76.9903  221.3717 H   0  0  0  0  0  0  0  0  0  0  0  0
  140.8220   74.8620  221.0400 H   0  0  0  0  0  0  0  0  0  0  0  0
  142.2210   75.3320  221.9780 H   0  0  0  0  0  0  0  0  0  0  0  0
  141.0213   76.7222  223.4708 H   0  0  0  0  0  0  0  0  0  0  0  0
  143.8223   78.7535  222.6448 H   0  0  0  0  0  0  0  0  0  0  0  0
  144.1181   81.1397  223.0416 H   0  0  0  0  0  0  0  0  0  0  0  0
  142.2177   82.6391  223.5847 H   0  0  0  0  0  0  0  0  0  0  0  0
  139.9107   81.6121  223.7175 H   0  0  0  0  0  0  0  0  0  0  0  0
  138.9819   78.1952  223.9584 H   0  0  0  0  0  0  0  0  0  0  0  0
  138.1663   76.7335  221.6748 H   0  0  0  0  0  0  0  0  0  0  0  0
  136.4318   77.2855  220.0245 H   0  0  0  0  0  0  0  0  0  0  0  0
  135.8757   79.6670  219.5395 H   0  0  0  0  0  0  0  0  0  0  0  0
  137.0984   81.4686  220.7520 H   0  0  0  0  0  0  0  0  0  0  0  0
  138.8298   80.8903  222.3927 H   0  0  0  0  0  0  0  0  0  0  0  0
  143.2765   77.9654  218.6999 H   0  0  0  0  0  0  0  0  0  0  0  0
  141.9769   78.1794  217.5395 H   0  0  0  0  0  0  0  0  0  0  0  0
  142.7357   80.4424  219.4871 H   0  0  0  0  0  0  0  0  0  0  0  0
  143.6517   80.2462  217.9927 H   0  0  0  0  0  0  0  0  0  0  0  0
  1  2  1  0
  2  3  1  0
  3  4  2  0
  3  5  1  0
  5  6  1  0
  6  7  2  0
  7  8  1  0
  8  9  2  0
  9 10  1  0
 10 11  2  0
  5 12  1  0
 12 13  1  0
 13 14  1  0
 14 15  1  0
 15 16  1  0
 16 17  2  0
 16 18  1  0
 18 19  1  0
 18 20  1  0
 20 21  1  0
 21 22  2  0
 22 23  1  0
 23 24  2  0
 24 25  1  0
 25 26  2  0
 26 27  1  0
 27 28  1  0
 28 29  2  0
 29 30  1  0
 30 31  2  0
 31 32  1  0
 32 33  2  0
 15 34  1  0
 34 35  1  0
 11  6  1  0
 35 12  1  0
 27 20  1  0
 33 28  1  0
 26 21  1  0
  1 36  1  0
  1 37  1  0
  1 38  1  0
  2 39  1  0
  2 40  1  0
  7 41  1  0
  8 42  1  0
  9 43  1  0
 10 44  1  0
 11 45  1  0
 12 46  1  0
 13 47  1  0
 13 48  1  0
 14 49  1  0
 14 50  1  0
 18 51  1  6
 19 52  1  0
 19 53  1  0
 20 54  1  1
 22 55  1  0
 23 56  1  0
 24 57  1  0
 25 58  1  0
 27 59  1  1
 29 60  1  0
 30 61  1  0
 31 62  1  0
 32 63  1  0
 33 64  1  0
 34 65  1  0
 34 66  1  0
 35 67  1  0
 35 68  1  0
M  END
>  <smiles>  (193) 
CCC(=O)N(c1ccccc1)C1CCN(C(=O)[C@@H](N)C2c3ccccc3C2c2ccccc2)CC1

>  <score_type>  (193) 
oracle

>  <origin>  (193) 
autodockgpu

>  <m_score__min__energy>  (193) 
-9.6500000000000004

>  <m_primary>  (193) 
energy

>  <rmsd>  (193) 
9.289980027717133

>  <m_score__min__rmsd>  (193) 
9.289980027717133

>  <meeko>  (193) 
{"free_energy": -6.48, "intermolecular_energy": -8.86, "internal_energy": -4.77, "cluster_size": 11, "cluster_id": 3, "rank_in_cluster": 8}

>  <energy>  (193) 
-6.54

>  <cluster_rmsd>  (193) 
0.09

>  <cluster>  (193) 
3

$$$$

     RDKit          3D

 68 72  0  0  0  0  0  0  0  0999 V2000
  136.1900   82.0350  224.1750 C   0  0  0  0  0  0  0  0  0  0  0  0
  136.5690   80.8390  223.3220 C   0  0  0  0  0  0  0  0  0  0  0  0
  137.8290   80.2400  223.8490 C   0  0  0  0  0  0  0  0  0  0  0  0
  138.0810   80.5030  225.0730 O   0  0  0  0  0  0  0  0  0  0  0  0
  138.6930   79.4340  223.0550 N   0  0  0  0  0  0  0  0  0  0  0  0
  140.0860   79.6970  223.1220 C   0  0  0  0  0  0  0  0  0  0  0  0
  141.0330   78.7480  223.4410 C   0  0  0  0  0  0  0  0  0  0  0  0
  142.3830   79.1080  223.4830 C   0  0  0  0  0  0  0  0  0  0  0  0
  142.8010   80.4010  223.2110 C   0  0  0  0  0  0  0  0  0  0  0  0
  141.8480   81.3570  222.8910 C   0  0  0  0  0  0  0  0  0  0  0  0
  140.5300   80.9720  222.8580 C   0  0  0  0  0  0  0  0  0  0  0  0
  138.0990   78.4080  222.2490 C   0  0  0  0  0  0  0  0  0  0  0  0
  138.3090   77.0150  222.7180 C   0  0  0  0  0  0  0  0  0  0  0  0
  139.4950   76.3160  222.0070 C   0  0  0  0  0  0  0  0  0  0  0  0
  139.1880   76.1960  220.6110 N   0  0  0  0  0  0  0  0  0  0  0  0
  139.6270   75.2890  219.6580 C   0  0  0  0  0  0  0  0  0  0  0  0
  139.1450   75.4860  218.4500 O   0  0  0  0  0  0  0  0  0  0  0  0
  140.5300   74.1480  219.7250 C   0  0  1  0  0  0  0  0  0  0  0  0
  141.0330   73.9490  218.3490 N   0  0  0  0  0  0  0  0  0  0  0  0
  141.6000   74.0930  220.7320 C   0  0  1  0  0  0  0  0  0  0  0  0
  142.7600   73.2480  220.4720 C   0  0  0  0  0  0  0  0  0  0  0  0
  143.3050   71.9940  220.1980 C   0  0  0  0  0  0  0  0  0  0  0  0
  144.6580   71.8450  220.0600 C   0  0  0  0  0  0  0  0  0  0  0  0
  145.5540   72.8910  220.1780 C   0  0  0  0  0  0  0  0  0  0  0  0
  145.0150   74.1490  220.4530 C   0  0  0  0  0  0  0  0  0  0  0  0
  143.6530   74.2830  220.5880 C   0  0  0  0  0  0  0  0  0  0  0  0
  142.5340   75.2410  220.8380 C   0  0  1  0  0  0  0  0  0  0  0  0
  142.5110   76.3230  219.8570 C   0  0  0  0  0  0  0  0  0  0  0  0
  142.9870   76.2480  218.5670 C   0  0  0  0  0  0  0  0  0  0  0  0
  142.9290   77.3100  217.6880 C   0  0  0  0  0  0  0  0  0  0  0  0
  142.3750   78.5130  218.0900 C   0  0  0  0  0  0  0  0  0  0  0  0
  141.8860   78.6240  219.3780 C   0  0  0  0  0  0  0  0  0  0  0  0
  141.9580   77.5500  220.2330 C   0  0  0  0  0  0  0  0  0  0  0  0
  138.2420   77.2560  220.1310 C   0  0  0  0  0  0  0  0  0  0  0  0
  138.7090   78.5070  220.8500 C   0  0  0  0  0  0  0  0  0  0  0  0
  136.2745   81.7682  225.2388 H   0  0  0  0  0  0  0  0  0  0  0  0
  136.8665   82.8733  223.9523 H   0  0  0  0  0  0  0  0  0  0  0  0
  135.1541   82.3307  223.9523 H   0  0  0  0  0  0  0  0  0  0  0  0
  135.7630   80.0913  223.3581 H   0  0  0  0  0  0  0  0  0  0  0  0
  136.7201   81.1607  222.2810 H   0  0  0  0  0  0  0  0  0  0  0  0
  140.7286   77.7141  223.6611 H   0  0  0  0  0  0  0  0  0  0  0  0
  143.1331   78.3451  223.7386 H   0  0  0  0  0  0  0  0  0  0  0  0
  143.8684   80.6643  223.2481 H   0  0  0  0  0  0  0  0  0  0  0  0
  142.1398   82.3943  222.6699 H   0  0  0  0  0  0  0  0  0  0  0  0
  139.7790   81.7344  222.6034 H   0  0  0  0  0  0  0  0  0  0  0  0
  137.0145   78.5872  222.2906 H   0  0  0  0  0  0  0  0  0  0  0  0
  138.5093   77.0344  223.7994 H   0  0  0  0  0  0  0  0  0  0  0  0
  137.3983   76.4448  222.4826 H   0  0  0  0  0  0  0  0  0  0  0  0
  140.4085   76.9153  222.1350 H   0  0  0  0  0  0  0  0  0  0  0  0
  139.6579   75.3189  222.4421 H   0  0  0  0  0  0  0  0  0  0  0  0
  139.9232   73.3200  220.1202 H   0  0  0  0  0  0  0  0  0  0  0  0
  140.4790   73.1970  217.8900 H   0  0  0  0  0  0  0  0  0  0  0  0
  141.1210   74.8220  217.8230 H   0  0  0  0  0  0  0  0  0  0  0  0
  140.8900   73.8570  221.5383 H   0  0  0  0  0  0  0  0  0  0  0  0
  142.6443   71.1209  220.0924 H   0  0  0  0  0  0  0  0  0  0  0  0
  145.0531   70.8414  219.8441 H   0  0  0  0  0  0  0  0  0  0  0  0
  146.6373   72.7397  220.0611 H   0  0  0  0  0  0  0  0  0  0  0  0
  145.6729   75.0240  220.5606 H   0  0  0  0  0  0  0  0  0  0  0  0
  142.4337   75.8929  221.7183 H   0  0  0  0  0  0  0  0  0  0  0  0
  143.4318   75.3025  218.2231 H   0  0  0  0  0  0  0  0  0  0  0  0
  143.3234   77.2005  216.6670 H   0  0  0  0  0  0  0  0  0  0  0  0
  142.3248   79.3656  217.3967 H   0  0  0  0  0  0  0  0  0  0  0  0
  141.4400   79.5702  219.7183 H   0  0  0  0  0  0  0  0  0  0  0  0
  141.5645   77.6609  221.2542 H   0  0  0  0  0  0  0  0  0  0  0  0
  138.3133   77.3807  219.0404 H   0  0  0  0  0  0  0  0  0  0  0  0
  137.1893   77.0133  220.3379 H   0  0  0  0  0  0  0  0  0  0  0  0
  139.8072   78.5331  220.9076 H   0  0  0  0  0  0  0  0  0  0  0  0
  138.4001   79.4244  220.3276 H   0  0  0  0  0  0  0  0  0  0  0  0
  1  2  1  0
  2  3  1  0
  3  4  2  0
  3  5  1  0
  5  6  1  0
  6  7  2  0
  7  8  1  0
  8  9  2  0
  9 10  1  0
 10 11  2  0
  5 12  1  0
 12 13  1  0
 13 14  1  0
 14 15  1  0
 15 16  1  0
 16 17  2  0
 16 18  1  0
 18 19  1  0
 18 20  1  0
 20 21  1  0
 21 22  2  0
 22 23  1  0
 23 24  2  0
 24 25  1  0
 25 26  2  0
 26 27  1  0
 27 28  1  0
 28 29  2  0
 29 30  1  0
 30 31  2  0
 31 32  1  0
 32 33  2  0
 15 34  1  0
 34 35  1  0
 11  6  1  0
 35 12  1  0
 27 20  1  0
 33 28  1  0
 26 21  1  0
  1 36  1  0
  1 37  1  0
  1 38  1  0
  2 39  1  0
  2 40  1  0
  7 41  1  0
  8 42  1  0
  9 43  1  0
 10 44  1  0
 11 45  1  0
 12 46  1  0
 13 47  1  0
 13 48  1  0
 14 49  1  0
 14 50  1  0
 18 51  1  1
 19 52  1  0
 19 53  1  0
 20 54  1  1
 22 55  1  0
 23 56  1  0
 24 57  1  0
 25 58  1  0
 27 59  1  1
 29 60  1  0
 30 61  1  0
 31 62  1  0
 32 63  1  0
 33 64  1  0
 34 65  1  0
 34 66  1  0
 35 67  1  0
 35 68  1  0
M  END
>  <smiles>  (194) 
CCC(=O)N(c1ccccc1)C1CCN(C(=O)[C@@H](N)C2c3ccccc3C2c2ccccc2)CC1

>  <score_type>  (194) 
oracle

>  <origin>  (194) 
autodockgpu

>  <m_score__min__energy>  (194) 
-9.6500000000000004

>  <m_primary>  (194) 
energy

>  <rmsd>  (194) 
7.062595285446109

>  <m_score__min__rmsd>  (194) 
7.062595285446109

>  <meeko>  (194) 
{"free_energy": -7.01, "intermolecular_energy": -9.4, "internal_energy": -4.32, "cluster_size": 30, "cluster_id": 2, "rank_in_cluster": 19}

>  <energy>  (194) 
-6.53

>  <cluster_rmsd>  (194) 
0.16

>  <cluster>  (194) 
3

$$$$

     RDKit          3D

 68 72  0  0  0  0  0  0  0  0999 V2000
  145.6860   74.1200  220.8420 C   0  0  0  0  0  0  0  0  0  0  0  0
  146.0490   72.6570  220.6690 C   0  0  0  0  0  0  0  0  0  0  0  0
  145.4570   72.1510  219.3970 C   0  0  0  0  0  0  0  0  0  0  0  0
  145.9260   72.6820  218.3350 O   0  0  0  0  0  0  0  0  0  0  0  0
  144.4440   71.1520  219.3600 N   0  0  0  0  0  0  0  0  0  0  0  0
  144.8550   69.8040  219.1880 C   0  0  0  0  0  0  0  0  0  0  0  0
  145.9710   69.4270  218.4720 C   0  0  0  0  0  0  0  0  0  0  0  0
  146.2910   68.0700  218.3590 C   0  0  0  0  0  0  0  0  0  0  0  0
  145.5140   67.0870  218.9480 C   0  0  0  0  0  0  0  0  0  0  0  0
  144.3890   67.4660  219.6680 C   0  0  0  0  0  0  0  0  0  0  0  0
  144.1020   68.8060  219.7620 C   0  0  0  0  0  0  0  0  0  0  0  0
  143.0820   71.5730  219.5080 C   0  0  0  0  0  0  0  0  0  0  0  0
  142.6890   72.7760  218.7320 C   0  0  0  0  0  0  0  0  0  0  0  0
  142.7520   74.0770  219.5700 C   0  0  0  0  0  0  0  0  0  0  0  0
  141.7900   73.9880  220.6290 N   0  0  0  0  0  0  0  0  0  0  0  0
  141.1160   74.9770  221.3310 C   0  0  0  0  0  0  0  0  0  0  0  0
  140.3030   74.5300  222.2640 O   0  0  0  0  0  0  0  0  0  0  0  0
  141.1290   76.4300  221.2450 C   0  0  1  0  0  0  0  0  0  0  0  0
  142.3250   76.7790  220.4500 N   0  0  0  0  0  0  0  0  0  0  0  0
  139.9310   77.1690  220.8180 C   0  0  1  0  0  0  0  0  0  0  0  0
  138.6950   76.9900  221.5730 C   0  0  0  0  0  0  0  0  0  0  0  0
  137.6920   76.1600  222.0720 C   0  0  0  0  0  0  0  0  0  0  0  0
  136.6590   76.6860  222.7970 C   0  0  0  0  0  0  0  0  0  0  0  0
  136.5360   78.0320  223.0790 C   0  0  0  0  0  0  0  0  0  0  0  0
  137.5360   78.8700  222.5830 C   0  0  0  0  0  0  0  0  0  0  0  0
  138.5690   78.3270  221.8560 C   0  0  0  0  0  0  0  0  0  0  0  0
  139.8410   78.6170  221.1280 C   0  0  1  0  0  0  0  0  0  0  0  0
  140.8290   79.2660  221.9870 C   0  0  0  0  0  0  0  0  0  0  0  0
  141.6600   80.2990  221.6160 C   0  0  0  0  0  0  0  0  0  0  0  0
  142.5700   80.8720  222.4820 C   0  0  0  0  0  0  0  0  0  0  0  0
  142.6720   80.4100  223.7820 C   0  0  0  0  0  0  0  0  0  0  0  0
  141.8520   79.3750  224.1890 C   0  0  0  0  0  0  0  0  0  0  0  0
  140.9570   78.8220  223.3050 C   0  0  0  0  0  0  0  0  0  0  0  0
  141.4980   72.5730  221.0320 C   0  0  0  0  0  0  0  0  0  0  0  0
  142.8560   71.8990  220.9850 C   0  0  0  0  0  0  0  0  0  0  0  0
  145.6268   74.3588  221.9141 H   0  0  0  0  0  0  0  0  0  0  0  0
  146.4558   74.7472  220.3686 H   0  0  0  0  0  0  0  0  0  0  0  0
  144.7123   74.3147  220.3686 H   0  0  0  0  0  0  0  0  0  0  0  0
  147.1433   72.5514  220.6329 H   0  0  0  0  0  0  0  0  0  0  0  0
  145.6552   72.0763  221.5162 H   0  0  0  0  0  0  0  0  0  0  0  0
  146.6051   70.1876  217.9931 H   0  0  0  0  0  0  0  0  0  0  0  0
  147.1835   67.7761  217.7871 H   0  0  0  0  0  0  0  0  0  0  0  0
  145.7831   66.0252  218.8474 H   0  0  0  0  0  0  0  0  0  0  0  0
  143.7459   66.7146  220.1494 H   0  0  0  0  0  0  0  0  0  0  0  0
  143.2103   69.1008  220.3346 H   0  0  0  0  0  0  0  0  0  0  0  0
  142.4710   70.7438  219.1219 H   0  0  0  0  0  0  0  0  0  0  0  0
  143.3686   72.8778  217.8731 H   0  0  0  0  0  0  0  0  0  0  0  0
  141.6456   72.6379  218.4122 H   0  0  0  0  0  0  0  0  0  0  0  0
  143.7599   74.1956  219.9944 H   0  0  0  0  0  0  0  0  0  0  0  0
  142.5285   74.9450  218.9323 H   0  0  0  0  0  0  0  0  0  0  0  0
  141.1481   76.7818  222.2870 H   0  0  0  0  0  0  0  0  0  0  0  0
  142.5280   77.7930  220.5680 H   0  0  0  0  0  0  0  0  0  0  0  0
  143.1130   76.1460  220.6100 H   0  0  0  0  0  0  0  0  0  0  0  0
  140.0259   76.8114  219.7821 H   0  0  0  0  0  0  0  0  0  0  0  0
  137.7319   75.0773  221.8816 H   0  0  0  0  0  0  0  0  0  0  0  0
  135.8857   76.0012  223.1753 H   0  0  0  0  0  0  0  0  0  0  0  0
  135.6920   78.4244  223.6653 H   0  0  0  0  0  0  0  0  0  0  0  0
  137.4980   79.9530  222.7717 H   0  0  0  0  0  0  0  0  0  0  0  0
  139.9520   79.3200  220.2893 H   0  0  0  0  0  0  0  0  0  0  0  0
  141.5964   80.6837  220.5874 H   0  0  0  0  0  0  0  0  0  0  0  0
  143.2135   81.6953  222.1385 H   0  0  0  0  0  0  0  0  0  0  0  0
  143.3938   80.8591  224.4800 H   0  0  0  0  0  0  0  0  0  0  0  0
  141.9156   78.9943  225.2191 H   0  0  0  0  0  0  0  0  0  0  0  0
  140.3160   77.9969  223.6490 H   0  0  0  0  0  0  0  0  0  0  0  0
  141.0752   72.5333  222.0467 H   0  0  0  0  0  0  0  0  0  0  0  0
  140.7580   72.0875  220.3788 H   0  0  0  0  0  0  0  0  0  0  0  0
  143.6381   72.5779  221.3557 H   0  0  0  0  0  0  0  0  0  0  0  0
  142.8947   71.0004  221.6182 H   0  0  0  0  0  0  0  0  0  0  0  0
  1  2  1  0
  2  3  1  0
  3  4  2  0
  3  5  1  0
  5  6  1  0
  6  7  2  0
  7  8  1  0
  8  9  2  0
  9 10  1  0
 10 11  2  0
  5 12  1  0
 12 13  1  0
 13 14  1  0
 14 15  1  0
 15 16  1  0
 16 17  2  0
 16 18  1  0
 18 19  1  0
 18 20  1  0
 20 21  1  0
 21 22  2  0
 22 23  1  0
 23 24  2  0
 24 25  1  0
 25 26  2  0
 26 27  1  0
 27 28  1  0
 28 29  2  0
 29 30  1  0
 30 31  2  0
 31 32  1  0
 32 33  2  0
 15 34  1  0
 34 35  1  0
 11  6  1  0
 35 12  1  0
 27 20  1  0
 33 28  1  0
 26 21  1  0
  1 36  1  0
  1 37  1  0
  1 38  1  0
  2 39  1  0
  2 40  1  0
  7 41  1  0
  8 42  1  0
  9 43  1  0
 10 44  1  0
 11 45  1  0
 12 46  1  0
 13 47  1  0
 13 48  1  0
 14 49  1  0
 14 50  1  0
 18 51  1  1
 19 52  1  0
 19 53  1  0
 20 54  1  6
 22 55  1  0
 23 56  1  0
 24 57  1  0
 25 58  1  0
 27 59  1  6
 29 60  1  0
 30 61  1  0
 31 62  1  0
 32 63  1  0
 33 64  1  0
 34 65  1  0
 34 66  1  0
 35 67  1  0
 35 68  1  0
M  END
>  <smiles>  (195) 
CCC(=O)N(c1ccccc1)C1CCN(C(=O)[C@@H](N)C2c3ccccc3C2c2ccccc2)CC1

>  <score_type>  (195) 
oracle

>  <origin>  (195) 
autodockgpu

>  <m_score__min__energy>  (195) 
-9.6500000000000004

>  <m_primary>  (195) 
energy

>  <rmsd>  (195) 
8.241492168469229

>  <m_score__min__rmsd>  (195) 
8.241492168469229

>  <meeko>  (195) 
{"free_energy": -9.43, "intermolecular_energy": -11.81, "internal_energy": -2.26, "cluster_size": 9, "cluster_id": 1, "rank_in_cluster": 4}

>  <energy>  (195) 
-6.52

>  <cluster_rmsd>  (195) 
0.13

>  <cluster>  (195) 
3

$$$$

     RDKit          3D

 68 72  0  0  0  0  0  0  0  0999 V2000
  136.3450   82.1160  223.6240 C   0  0  0  0  0  0  0  0  0  0  0  0
  136.4720   80.6230  223.3850 C   0  0  0  0  0  0  0  0  0  0  0  0
  137.8140   80.1650  223.8480 C   0  0  0  0  0  0  0  0  0  0  0  0
  138.1190   80.5060  225.0400 O   0  0  0  0  0  0  0  0  0  0  0  0
  138.6950   79.4040  223.0290 N   0  0  0  0  0  0  0  0  0  0  0  0
  140.0860   79.6700  223.1340 C   0  0  0  0  0  0  0  0  0  0  0  0
  141.0330   78.7080  223.4100 C   0  0  0  0  0  0  0  0  0  0  0  0
  142.3800   79.0720  223.4940 C   0  0  0  0  0  0  0  0  0  0  0  0
  142.7950   80.3800  223.3080 C   0  0  0  0  0  0  0  0  0  0  0  0
  141.8420   81.3490  223.0310 C   0  0  0  0  0  0  0  0  0  0  0  0
  140.5270   80.9610  222.9530 C   0  0  0  0  0  0  0  0  0  0  0  0
  138.1210   78.4180  222.1610 C   0  0  0  0  0  0  0  0  0  0  0  0
  138.2410   77.0100  222.6140 C   0  0  0  0  0  0  0  0  0  0  0  0
  139.4460   76.2760  221.9750 C   0  0  0  0  0  0  0  0  0  0  0  0
  139.2370   76.1940  220.5590 N   0  0  0  0  0  0  0  0  0  0  0  0
  139.7070   75.2870  219.6200 C   0  0  0  0  0  0  0  0  0  0  0  0
  139.3210   75.5260  218.3850 O   0  0  0  0  0  0  0  0  0  0  0  0
  140.5560   74.1090  219.7260 C   0  0  1  0  0  0  0  0  0  0  0  0
  141.0410   73.8340  218.3570 N   0  0  0  0  0  0  0  0  0  0  0  0
  141.6300   74.0440  220.7300 C   0  0  1  0  0  0  0  0  0  0  0  0
  142.7870   73.1970  220.4600 C   0  0  0  0  0  0  0  0  0  0  0  0
  143.3270   71.9440  220.1760 C   0  0  0  0  0  0  0  0  0  0  0  0
  144.6780   71.7920  220.0320 C   0  0  0  0  0  0  0  0  0  0  0  0
  145.5780   72.8330  220.1540 C   0  0  0  0  0  0  0  0  0  0  0  0
  145.0440   74.0910  220.4390 C   0  0  0  0  0  0  0  0  0  0  0  0
  143.6830   74.2280  220.5800 C   0  0  0  0  0  0  0  0  0  0  0  0
  142.5680   75.1890  220.8400 C   0  0  1  0  0  0  0  0  0  0  0  0
  142.5450   76.2780  219.8670 C   0  0  0  0  0  0  0  0  0  0  0  0
  142.9940   76.2020  218.5680 C   0  0  0  0  0  0  0  0  0  0  0  0
  142.9380   77.2720  217.6960 C   0  0  0  0  0  0  0  0  0  0  0  0
  142.4140   78.4810  218.1170 C   0  0  0  0  0  0  0  0  0  0  0  0
  141.9520   78.5920  219.4150 C   0  0  0  0  0  0  0  0  0  0  0  0
  142.0220   77.5110  220.2620 C   0  0  0  0  0  0  0  0  0  0  0  0
  138.3700   77.3010  220.0340 C   0  0  0  0  0  0  0  0  0  0  0  0
  138.8340   78.5180  220.8110 C   0  0  0  0  0  0  0  0  0  0  0  0
  136.3282   82.3140  224.7059 H   0  0  0  0  0  0  0  0  0  0  0  0
  137.2023   82.6343  223.1697 H   0  0  0  0  0  0  0  0  0  0  0  0
  135.4125   82.4820  223.1697 H   0  0  0  0  0  0  0  0  0  0  0  0
  135.6884   80.0926  223.9459 H   0  0  0  0  0  0  0  0  0  0  0  0
  136.3583   80.4093  222.3120 H   0  0  0  0  0  0  0  0  0  0  0  0
  140.7313   77.6613  223.5631 H   0  0  0  0  0  0  0  0  0  0  0  0
  143.1306   78.2985  223.7138 H   0  0  0  0  0  0  0  0  0  0  0  0
  143.8601   80.6455  223.3786 H   0  0  0  0  0  0  0  0  0  0  0  0
  142.1315   82.3991  222.8781 H   0  0  0  0  0  0  0  0  0  0  0  0
  139.7761   81.7336  222.7311 H   0  0  0  0  0  0  0  0  0  0  0  0
  137.0442   78.6404  222.1287 H   0  0  0  0  0  0  0  0  0  0  0  0
  138.3634   77.0015  223.7071 H   0  0  0  0  0  0  0  0  0  0  0  0
  137.3277   76.4822  222.3022 H   0  0  0  0  0  0  0  0  0  0  0  0
  140.3710   76.8346  222.1808 H   0  0  0  0  0  0  0  0  0  0  0  0
  139.5366   75.2652  222.3993 H   0  0  0  0  0  0  0  0  0  0  0  0
  139.9136   73.3257  220.1546 H   0  0  0  0  0  0  0  0  0  0  0  0
  140.3870   73.1690  217.8930 H   0  0  0  0  0  0  0  0  0  0  0  0
  141.2610   74.6830  217.8300 H   0  0  0  0  0  0  0  0  0  0  0  0
  140.9224   73.8047  221.5374 H   0  0  0  0  0  0  0  0  0  0  0  0
  142.6633   71.0735  220.0672 H   0  0  0  0  0  0  0  0  0  0  0  0
  145.0687   70.7886  219.8073 H   0  0  0  0  0  0  0  0  0  0  0  0
  146.6603   72.6785  220.0328 H   0  0  0  0  0  0  0  0  0  0  0  0
  145.7049   74.9633  220.5496 H   0  0  0  0  0  0  0  0  0  0  0  0
  142.4730   75.8360  221.7245 H   0  0  0  0  0  0  0  0  0  0  0  0
  143.4144   75.2507  218.2098 H   0  0  0  0  0  0  0  0  0  0  0  0
  143.3102   77.1626  216.6667 H   0  0  0  0  0  0  0  0  0  0  0  0
  142.3658   79.3393  217.4307 H   0  0  0  0  0  0  0  0  0  0  0  0
  141.5291   79.5434  219.7698 H   0  0  0  0  0  0  0  0  0  0  0  0
  141.6513   77.6220  221.2917 H   0  0  0  0  0  0  0  0  0  0  0  0
  138.5247   77.4423  218.9541 H   0  0  0  0  0  0  0  0  0  0  0  0
  137.2961   77.0983  220.1594 H   0  0  0  0  0  0  0  0  0  0  0  0
  139.9253   78.4973  220.9472 H   0  0  0  0  0  0  0  0  0  0  0  0
  138.6008   79.4571  220.2879 H   0  0  0  0  0  0  0  0  0  0  0  0
  1  2  1  0
  2  3  1  0
  3  4  2  0
  3  5  1  0
  5  6  1  0
  6  7  2  0
  7  8  1  0
  8  9  2  0
  9 10  1  0
 10 11  2  0
  5 12  1  0
 12 13  1  0
 13 14  1  0
 14 15  1  0
 15 16  1  0
 16 17  2  0
 16 18  1  0
 18 19  1  0
 18 20  1  0
 20 21  1  0
 21 22  2  0
 22 23  1  0
 23 24  2  0
 24 25  1  0
 25 26  2  0
 26 27  1  0
 27 28  1  0
 28 29  2  0
 29 30  1  0
 30 31  2  0
 31 32  1  0
 32 33  2  0
 15 34  1  0
 34 35  1  0
 11  6  1  0
 35 12  1  0
 27 20  1  0
 33 28  1  0
 26 21  1  0
  1 36  1  0
  1 37  1  0
  1 38  1  0
  2 39  1  0
  2 40  1  0
  7 41  1  0
  8 42  1  0
  9 43  1  0
 10 44  1  0
 11 45  1  0
 12 46  1  0
 13 47  1  0
 13 48  1  0
 14 49  1  0
 14 50  1  0
 18 51  1  1
 19 52  1  0
 19 53  1  0
 20 54  1  1
 22 55  1  0
 23 56  1  0
 24 57  1  0
 25 58  1  0
 27 59  1  1
 29 60  1  0
 30 61  1  0
 31 62  1  0
 32 63  1  0
 33 64  1  0
 34 65  1  0
 34 66  1  0
 35 67  1  0
 35 68  1  0
M  END
>  <smiles>  (196) 
CCC(=O)N(c1ccccc1)C1CCN(C(=O)[C@@H](N)C2c3ccccc3C2c2ccccc2)CC1

>  <score_type>  (196) 
oracle

>  <origin>  (196) 
autodockgpu

>  <m_score__min__energy>  (196) 
-9.6500000000000004

>  <m_primary>  (196) 
energy

>  <rmsd>  (196) 
7.056110677654008

>  <m_score__min__rmsd>  (196) 
7.056110677654008

>  <meeko>  (196) 
{"free_energy": -6.96, "intermolecular_energy": -9.35, "internal_energy": -4.37, "cluster_size": 30, "cluster_id": 2, "rank_in_cluster": 23}

>  <energy>  (196) 
-6.5

>  <cluster_rmsd>  (196) 
0.35

>  <cluster>  (196) 
3

$$$$

     RDKit          3D

 68 72  0  0  0  0  0  0  0  0999 V2000
  144.0660   84.7060  217.0930 C   0  0  0  0  0  0  0  0  0  0  0  0
  143.7530   83.2220  217.0750 C   0  0  0  0  0  0  0  0  0  0  0  0
  142.2770   83.0330  216.9820 C   0  0  0  0  0  0  0  0  0  0  0  0
  141.7180   83.6250  215.9980 O   0  0  0  0  0  0  0  0  0  0  0  0
  141.5380   82.2530  217.9150 N   0  0  0  0  0  0  0  0  0  0  0  0
  140.9030   82.9340  218.9870 C   0  0  0  0  0  0  0  0  0  0  0  0
  141.1670   82.6900  220.3170 C   0  0  0  0  0  0  0  0  0  0  0  0
  140.4860   83.4150  221.2990 C   0  0  0  0  0  0  0  0  0  0  0  0
  139.5460   84.3790  220.9740 C   0  0  0  0  0  0  0  0  0  0  0  0
  139.2790   84.6250  219.6340 C   0  0  0  0  0  0  0  0  0  0  0  0
  139.9650   83.8970  218.6930 C   0  0  0  0  0  0  0  0  0  0  0  0
  141.4780   80.8360  217.7060 C   0  0  0  0  0  0  0  0  0  0  0  0
  140.2500   80.1610  218.1950 C   0  0  0  0  0  0  0  0  0  0  0  0
  140.4300   79.5330  219.5990 C   0  0  0  0  0  0  0  0  0  0  0  0
  141.4150   78.4950  219.5160 N   0  0  0  0  0  0  0  0  0  0  0  0
  141.6060   77.3580  220.2880 C   0  0  0  0  0  0  0  0  0  0  0  0
  142.6370   76.6210  219.9320 O   0  0  0  0  0  0  0  0  0  0  0  0
  140.8890   76.8090  221.4300 C   0  0  1  0  0  0  0  0  0  0  0  0
  141.3350   75.4050  221.5520 N   0  0  0  0  0  0  0  0  0  0  0  0
  140.8800   77.5130  222.7210 C   0  0  1  0  0  0  0  0  0  0  0  0
  141.6810   78.7260  222.8600 C   0  0  0  0  0  0  0  0  0  0  0  0
  142.9150   79.3720  222.8060 C   0  0  0  0  0  0  0  0  0  0  0  0
  143.0090   80.7040  223.0990 C   0  0  0  0  0  0  0  0  0  0  0  0
  141.9250   81.4820  223.4580 C   0  0  0  0  0  0  0  0  0  0  0  0
  140.6860   80.8420  223.5140 C   0  0  0  0  0  0  0  0  0  0  0  0
  140.6070   79.5020  223.2160 C   0  0  0  0  0  0  0  0  0  0  0  0
  139.6920   78.3280  223.0770 C   0  0  1  0  0  0  0  0  0  0  0  0
  138.6300   78.5750  222.1050 C   0  0  0  0  0  0  0  0  0  0  0  0
  137.9360   77.6080  221.4130 C   0  0  0  0  0  0  0  0  0  0  0  0
  136.9360   77.9100  220.5100 C   0  0  0  0  0  0  0  0  0  0  0  0
  136.5950   79.2290  220.2710 C   0  0  0  0  0  0  0  0  0  0  0  0
  137.2700   80.2260  220.9500 C   0  0  0  0  0  0  0  0  0  0  0  0
  138.2620   79.8970  221.8420 C   0  0  0  0  0  0  0  0  0  0  0  0
  142.3990   78.7150  218.4060 C   0  0  0  0  0  0  0  0  0  0  0  0
  142.6600   80.2090  218.4480 C   0  0  0  0  0  0  0  0  0  0  0  0
  144.1391   85.0527  218.1344 H   0  0  0  0  0  0  0  0  0  0  0  0
  145.0217   84.8854  216.5788 H   0  0  0  0  0  0  0  0  0  0  0  0
  143.2641   85.2561  216.5788 H   0  0  0  0  0  0  0  0  0  0  0  0
  144.2392   82.7540  216.2063 H   0  0  0  0  0  0  0  0  0  0  0  0
  144.1280   82.7542  217.9972 H   0  0  0  0  0  0  0  0  0  0  0  0
  141.9086   81.9299  220.6041 H   0  0  0  0  0  0  0  0  0  0  0  0
  140.7024   83.2145  222.3587 H   0  0  0  0  0  0  0  0  0  0  0  0
  139.0213   84.9387  221.7623 H   0  0  0  0  0  0  0  0  0  0  0  0
  138.5389   85.3816  219.3345 H   0  0  0  0  0  0  0  0  0  0  0  0
  139.7502   84.0972  217.6329 H   0  0  0  0  0  0  0  0  0  0  0  0
  141.4928   80.6953  216.6151 H   0  0  0  0  0  0  0  0  0  0  0  0
  139.4373   80.9008  218.2423 H   0  0  0  0  0  0  0  0  0  0  0  0
  140.0186   79.3454  217.4942 H   0  0  0  0  0  0  0  0  0  0  0  0
  140.7637   80.3039  220.3092 H   0  0  0  0  0  0  0  0  0  0  0  0
  139.4741   79.1151  219.9477 H   0  0  0  0  0  0  0  0  0  0  0  0
  139.8227   76.9362  221.1917 H   0  0  0  0  0  0  0  0  0  0  0  0
  141.3220   74.9610  220.6100 H   0  0  0  0  0  0  0  0  0  0  0  0
  142.2060   75.3030  222.0790 H   0  0  0  0  0  0  0  0  0  0  0  0
  141.1303   76.5955  223.2737 H   0  0  0  0  0  0  0  0  0  0  0  0
  143.8169   78.8077  222.5265 H   0  0  0  0  0  0  0  0  0  0  0  0
  143.9988   81.1811  223.0462 H   0  0  0  0  0  0  0  0  0  0  0  0
  142.0332   82.5522  223.6881 H   0  0  0  0  0  0  0  0  0  0  0  0
  139.7824   81.4035  223.7936 H   0  0  0  0  0  0  0  0  0  0  0  0
  139.0291   77.9362  223.8625 H   0  0  0  0  0  0  0  0  0  0  0  0
  138.1885   76.5515  221.5866 H   0  0  0  0  0  0  0  0  0  0  0  0
  136.4105   77.1015  219.9806 H   0  0  0  0  0  0  0  0  0  0  0  0
  135.8004   79.4802  219.5530 H   0  0  0  0  0  0  0  0  0  0  0  0
  137.0133   81.2815  220.7765 H   0  0  0  0  0  0  0  0  0  0  0  0
  138.7873   80.7065  222.3700 H   0  0  0  0  0  0  0  0  0  0  0  0
  143.3255   78.1497  218.5853 H   0  0  0  0  0  0  0  0  0  0  0  0
  142.0234   78.3750  217.4296 H   0  0  0  0  0  0  0  0  0  0  0  0
  142.6978   80.5662  219.4877 H   0  0  0  0  0  0  0  0  0  0  0  0
  143.6243   80.4740  217.9898 H   0  0  0  0  0  0  0  0  0  0  0  0
  1  2  1  0
  2  3  1  0
  3  4  2  0
  3  5  1  0
  5  6  1  0
  6  7  2  0
  7  8  1  0
  8  9  2  0
  9 10  1  0
 10 11  2  0
  5 12  1  0
 12 13  1  0
 13 14  1  0
 14 15  1  0
 15 16  1  0
 16 17  2  0
 16 18  1  0
 18 19  1  0
 18 20  1  0
 20 21  1  0
 21 22  2  0
 22 23  1  0
 23 24  2  0
 24 25  1  0
 25 26  2  0
 26 27  1  0
 27 28  1  0
 28 29  2  0
 29 30  1  0
 30 31  2  0
 31 32  1  0
 32 33  2  0
 15 34  1  0
 34 35  1  0
 11  6  1  0
 35 12  1  0
 27 20  1  0
 33 28  1  0
 26 21  1  0
  1 36  1  0
  1 37  1  0
  1 38  1  0
  2 39  1  0
  2 40  1  0
  7 41  1  0
  8 42  1  0
  9 43  1  0
 10 44  1  0
 11 45  1  0
 12 46  1  0
 13 47  1  0
 13 48  1  0
 14 49  1  0
 14 50  1  0
 18 51  1  6
 19 52  1  0
 19 53  1  0
 20 54  1  1
 22 55  1  0
 23 56  1  0
 24 57  1  0
 25 58  1  0
 27 59  1  1
 29 60  1  0
 30 61  1  0
 31 62  1  0
 32 63  1  0
 33 64  1  0
 34 65  1  0
 34 66  1  0
 35 67  1  0
 35 68  1  0
M  END
>  <smiles>  (197) 
CCC(=O)N(c1ccccc1)C1CCN(C(=O)[C@@H](N)C2c3ccccc3C2c2ccccc2)CC1

>  <score_type>  (197) 
oracle

>  <origin>  (197) 
autodockgpu

>  <m_score__min__energy>  (197) 
-9.6500000000000004

>  <m_primary>  (197) 
energy

>  <rmsd>  (197) 
9.244301289091709

>  <m_score__min__rmsd>  (197) 
9.244301289091709

>  <meeko>  (197) 
{"free_energy": -6.5, "intermolecular_energy": -8.88, "internal_energy": -4.79, "cluster_size": 11, "cluster_id": 3, "rank_in_cluster": 7}

>  <energy>  (197) 
-6.48

>  <cluster_rmsd>  (197) 
0.42

>  <cluster>  (197) 
3

$$$$

     RDKit          3D

 68 72  0  0  0  0  0  0  0  0999 V2000
  135.3220   79.7840  224.0840 C   0  0  0  0  0  0  0  0  0  0  0  0
  136.3600   80.6700  223.4220 C   0  0  0  0  0  0  0  0  0  0  0  0
  137.7220   80.2230  223.8360 C   0  0  0  0  0  0  0  0  0  0  0  0
  138.0570   80.5470  225.0250 O   0  0  0  0  0  0  0  0  0  0  0  0
  138.5890   79.4900  222.9780 N   0  0  0  0  0  0  0  0  0  0  0  0
  139.9730   79.8050  223.0150 C   0  0  0  0  0  0  0  0  0  0  0  0
  140.4900   81.0340  222.6700 C   0  0  0  0  0  0  0  0  0  0  0  0
  141.8710   81.2450  222.7400 C   0  0  0  0  0  0  0  0  0  0  0  0
  142.7410   80.2470  223.1470 C   0  0  0  0  0  0  0  0  0  0  0  0
  142.2200   79.0090  223.4930 C   0  0  0  0  0  0  0  0  0  0  0  0
  140.8600   78.8330  223.4160 C   0  0  0  0  0  0  0  0  0  0  0  0
  138.0080   78.4810  222.1420 C   0  0  0  0  0  0  0  0  0  0  0  0
  138.1680   77.0820  222.6110 C   0  0  0  0  0  0  0  0  0  0  0  0
  139.3680   76.3600  221.9490 C   0  0  0  0  0  0  0  0  0  0  0  0
  139.1200   76.2530  220.5410 N   0  0  0  0  0  0  0  0  0  0  0  0
  139.5800   75.3410  219.6020 C   0  0  0  0  0  0  0  0  0  0  0  0
  139.1550   75.5540  218.3750 O   0  0  0  0  0  0  0  0  0  0  0  0
  140.4530   74.1800  219.7010 C   0  0  1  0  0  0  0  0  0  0  0  0
  140.9690   73.9430  218.3360 N   0  0  0  0  0  0  0  0  0  0  0  0
  141.5090   74.1190  220.7230 C   0  0  1  0  0  0  0  0  0  0  0  0
  142.6670   73.2650  220.4800 C   0  0  0  0  0  0  0  0  0  0  0  0
  143.2070   72.0070  220.2150 C   0  0  0  0  0  0  0  0  0  0  0  0
  144.5600   71.8480  220.0950 C   0  0  0  0  0  0  0  0  0  0  0  0
  145.4610   72.8870  220.2240 C   0  0  0  0  0  0  0  0  0  0  0  0
  144.9290   74.1500  220.4900 C   0  0  0  0  0  0  0  0  0  0  0  0
  143.5660   74.2940  220.6070 C   0  0  0  0  0  0  0  0  0  0  0  0
  142.4510   75.2610  220.8400 C   0  0  1  0  0  0  0  0  0  0  0  0
  142.4490   76.3420  219.8580 C   0  0  0  0  0  0  0  0  0  0  0  0
  142.9320   76.2580  218.5710 C   0  0  0  0  0  0  0  0  0  0  0  0
  142.8940   77.3200  217.6900 C   0  0  0  0  0  0  0  0  0  0  0  0
  142.3540   78.5300  218.0870 C   0  0  0  0  0  0  0  0  0  0  0  0
  141.8590   78.6500  219.3720 C   0  0  0  0  0  0  0  0  0  0  0  0
  141.9100   77.5760  220.2290 C   0  0  0  0  0  0  0  0  0  0  0  0
  138.2180   77.3360  220.0250 C   0  0  0  0  0  0  0  0  0  0  0  0
  138.6810   78.5730  220.7700 C   0  0  0  0  0  0  0  0  0  0  0  0
  135.4154   79.8637  225.1771 H   0  0  0  0  0  0  0  0  0  0  0  0
  134.3158   80.1060  223.7775 H   0  0  0  0  0  0  0  0  0  0  0  0
  135.4820   78.7398  223.7775 H   0  0  0  0  0  0  0  0  0  0  0  0
  136.2646   80.5949  222.3287 H   0  0  0  0  0  0  0  0  0  0  0  0
  136.2045   81.7147  223.7292 H   0  0  0  0  0  0  0  0  0  0  0  0
  139.8218   81.8438  222.3418 H   0  0  0  0  0  0  0  0  0  0  0  0
  142.2769   82.2296  222.4645 H   0  0  0  0  0  0  0  0  0  0  0  0
  143.8242   80.4327  223.1949 H   0  0  0  0  0  0  0  0  0  0  0  0
  142.8780   78.1905  223.8201 H   0  0  0  0  0  0  0  0  0  0  0  0
  140.4530   77.8494  223.6934 H   0  0  0  0  0  0  0  0  0  0  0  0
  136.9268   78.6837  222.1385 H   0  0  0  0  0  0  0  0  0  0  0  0
  138.3213   77.0919  223.7002 H   0  0  0  0  0  0  0  0  0  0  0  0
  137.2565   76.5331  222.3319 H   0  0  0  0  0  0  0  0  0  0  0  0
  140.2880   76.9382  222.1199 H   0  0  0  0  0  0  0  0  0  0  0  0
  139.4896   75.3576  222.3855 H   0  0  0  0  0  0  0  0  0  0  0  0
  139.8207   73.3742  220.1021 H   0  0  0  0  0  0  0  0  0  0  0  0
  140.3750   73.2280  217.8680 H   0  0  0  0  0  0  0  0  0  0  0  0
  141.1240   74.8070  217.8090 H   0  0  0  0  0  0  0  0  0  0  0  0
  140.7862   73.8897  221.5198 H   0  0  0  0  0  0  0  0  0  0  0  0
  142.5416   71.1384  220.1019 H   0  0  0  0  0  0  0  0  0  0  0  0
  144.9507   70.8414  219.8851 H   0  0  0  0  0  0  0  0  0  0  0  0
  146.5445   72.7271  220.1221 H   0  0  0  0  0  0  0  0  0  0  0  0
  145.5922   75.0201  220.6047 H   0  0  0  0  0  0  0  0  0  0  0  0
  142.3441   75.9152  221.7178 H   0  0  0  0  0  0  0  0  0  0  0  0
  143.3657   75.3059  218.2313 H   0  0  0  0  0  0  0  0  0  0  0  0
  143.2934   77.2040  216.6716 H   0  0  0  0  0  0  0  0  0  0  0  0
  142.3191   79.3820  217.3921 H   0  0  0  0  0  0  0  0  0  0  0  0
  141.4250   79.6031  219.7084 H   0  0  0  0  0  0  0  0  0  0  0  0
  141.5105   77.6932  221.2472 H   0  0  0  0  0  0  0  0  0  0  0  0
  138.3392   77.4635  218.9391 H   0  0  0  0  0  0  0  0  0  0  0  0
  137.1521   77.1157  220.1844 H   0  0  0  0  0  0  0  0  0  0  0  0
  139.7760   78.5743  220.8753 H   0  0  0  0  0  0  0  0  0  0  0  0
  138.4157   79.4995  220.2397 H   0  0  0  0  0  0  0  0  0  0  0  0
  1  2  1  0
  2  3  1  0
  3  4  2  0
  3  5  1  0
  5  6  1  0
  6  7  2  0
  7  8  1  0
  8  9  2  0
  9 10  1  0
 10 11  2  0
  5 12  1  0
 12 13  1  0
 13 14  1  0
 14 15  1  0
 15 16  1  0
 16 17  2  0
 16 18  1  0
 18 19  1  0
 18 20  1  0
 20 21  1  0
 21 22  2  0
 22 23  1  0
 23 24  2  0
 24 25  1  0
 25 26  2  0
 26 27  1  0
 27 28  1  0
 28 29  2  0
 29 30  1  0
 30 31  2  0
 31 32  1  0
 32 33  2  0
 15 34  1  0
 34 35  1  0
 11  6  1  0
 35 12  1  0
 27 20  1  0
 33 28  1  0
 26 21  1  0
  1 36  1  0
  1 37  1  0
  1 38  1  0
  2 39  1  0
  2 40  1  0
  7 41  1  0
  8 42  1  0
  9 43  1  0
 10 44  1  0
 11 45  1  0
 12 46  1  0
 13 47  1  0
 13 48  1  0
 14 49  1  0
 14 50  1  0
 18 51  1  1
 19 52  1  0
 19 53  1  0
 20 54  1  1
 22 55  1  0
 23 56  1  0
 24 57  1  0
 25 58  1  0
 27 59  1  1
 29 60  1  0
 30 61  1  0
 31 62  1  0
 32 63  1  0
 33 64  1  0
 34 65  1  0
 34 66  1  0
 35 67  1  0
 35 68  1  0
M  END
>  <smiles>  (198) 
CCC(=O)N(c1ccccc1)C1CCN(C(=O)[C@@H](N)C2c3ccccc3C2c2ccccc2)CC1

>  <score_type>  (198) 
oracle

>  <origin>  (198) 
autodockgpu

>  <m_score__min__energy>  (198) 
-9.6500000000000004

>  <m_primary>  (198) 
energy

>  <rmsd>  (198) 
7.033177981432131

>  <m_score__min__rmsd>  (198) 
7.033177981432131

>  <meeko>  (198) 
{"free_energy": -6.9, "intermolecular_energy": -9.29, "internal_energy": -4.4, "cluster_size": 30, "cluster_id": 2, "rank_in_cluster": 26}

>  <energy>  (198) 
-6.47

>  <cluster_rmsd>  (198) 
0.37

>  <cluster>  (198) 
3

$$$$

     RDKit          3D

 68 72  0  0  0  0  0  0  0  0999 V2000
  137.3290   82.3060  222.3980 C   0  0  0  0  0  0  0  0  0  0  0  0
  136.7810   81.1560  223.2230 C   0  0  0  0  0  0  0  0  0  0  0  0
  137.9170   80.3830  223.8020 C   0  0  0  0  0  0  0  0  0  0  0  0
  138.0720   80.5120  225.0620 O   0  0  0  0  0  0  0  0  0  0  0  0
  138.7710   79.5590  223.0150 N   0  0  0  0  0  0  0  0  0  0  0  0
  140.1700   79.7770  223.1140 C   0  0  0  0  0  0  0  0  0  0  0  0
  141.0850   78.7850  223.3930 C   0  0  0  0  0  0  0  0  0  0  0  0
  142.4440   79.1020  223.4700 C   0  0  0  0  0  0  0  0  0  0  0  0
  142.9030   80.3940  223.2740 C   0  0  0  0  0  0  0  0  0  0  0  0
  141.9830   81.3940  222.9940 C   0  0  0  0  0  0  0  0  0  0  0  0
  140.6550   81.0500  222.9230 C   0  0  0  0  0  0  0  0  0  0  0  0
  138.1620   78.5620  222.1850 C   0  0  0  0  0  0  0  0  0  0  0  0
  138.2820   77.1610  222.6620 C   0  0  0  0  0  0  0  0  0  0  0  0
  139.4600   76.4030  222.0020 C   0  0  0  0  0  0  0  0  0  0  0  0
  139.2080   76.2950  220.5950 N   0  0  0  0  0  0  0  0  0  0  0  0
  139.6410   75.3650  219.6620 C   0  0  0  0  0  0  0  0  0  0  0  0
  139.2210   75.5840  218.4340 O   0  0  0  0  0  0  0  0  0  0  0  0
  140.4820   74.1800  219.7660 C   0  0  1  0  0  0  0  0  0  0  0  0
  140.9470   73.8910  218.3930 N   0  0  0  0  0  0  0  0  0  0  0  0
  141.5670   74.1140  220.7580 C   0  0  1  0  0  0  0  0  0  0  0  0
  142.7020   73.2370  220.4910 C   0  0  0  0  0  0  0  0  0  0  0  0
  143.2120   71.9670  220.2260 C   0  0  0  0  0  0  0  0  0  0  0  0
  144.5580   71.7830  220.0690 C   0  0  0  0  0  0  0  0  0  0  0  0
  145.4810   72.8080  220.1580 C   0  0  0  0  0  0  0  0  0  0  0  0
  144.9770   74.0830  220.4230 C   0  0  0  0  0  0  0  0  0  0  0  0
  143.6210   74.2510  220.5790 C   0  0  0  0  0  0  0  0  0  0  0  0
  142.5300   75.2400  220.8320 C   0  0  1  0  0  0  0  0  0  0  0  0
  142.5170   76.3090  219.8370 C   0  0  0  0  0  0  0  0  0  0  0  0
  142.9860   76.2090  218.5460 C   0  0  0  0  0  0  0  0  0  0  0  0
  142.9380   77.2610  217.6520 C   0  0  0  0  0  0  0  0  0  0  0  0
  142.4030   78.4760  218.0400 C   0  0  0  0  0  0  0  0  0  0  0  0
  141.9220   78.6110  219.3290 C   0  0  0  0  0  0  0  0  0  0  0  0
  141.9830   77.5480  220.1990 C   0  0  0  0  0  0  0  0  0  0  0  0
  138.3370   77.4000  220.0750 C   0  0  0  0  0  0  0  0  0  0  0  0
  138.8350   78.6280  220.8130 C   0  0  0  0  0  0  0  0  0  0  0  0
  137.7039   83.0928  223.0692 H   0  0  0  0  0  0  0  0  0  0  0  0
  138.1509   81.9430  221.7634 H   0  0  0  0  0  0  0  0  0  0  0  0
  136.5293   82.7157  221.7634 H   0  0  0  0  0  0  0  0  0  0  0  0
  136.1537   81.5520  224.0352 H   0  0  0  0  0  0  0  0  0  0  0  0
  136.1745   80.4982  222.5831 H   0  0  0  0  0  0  0  0  0  0  0  0
  140.7479   77.7504  223.5541 H   0  0  0  0  0  0  0  0  0  0  0  0
  143.1682   78.3044  223.6921 H   0  0  0  0  0  0  0  0  0  0  0  0
  143.9769   80.6230  223.3391 H   0  0  0  0  0  0  0  0  0  0  0  0
  142.3077   82.4326  222.8334 H   0  0  0  0  0  0  0  0  0  0  0  0
  139.9303   81.8464  222.6982 H   0  0  0  0  0  0  0  0  0  0  0  0
  137.0869   78.7947  222.1811 H   0  0  0  0  0  0  0  0  0  0  0  0
  138.4369   77.1722  223.7510 H   0  0  0  0  0  0  0  0  0  0  0  0
  137.3547   76.6365  222.3880 H   0  0  0  0  0  0  0  0  0  0  0  0
  140.3959   76.9565  222.1688 H   0  0  0  0  0  0  0  0  0  0  0  0
  139.5538   75.3999  222.4435 H   0  0  0  0  0  0  0  0  0  0  0  0
  139.8394   73.4041  220.2076 H   0  0  0  0  0  0  0  0  0  0  0  0
  140.1230   73.6860  217.7910 H   0  0  0  0  0  0  0  0  0  0  0  0
  141.5980   74.5940  218.0330 H   0  0  0  0  0  0  0  0  0  0  0  0
  140.8651   73.9077  221.5794 H   0  0  0  0  0  0  0  0  0  0  0  0
  142.5287   71.1090  220.1428 H   0  0  0  0  0  0  0  0  0  0  0  0
  144.9250   70.7670  219.8612 H   0  0  0  0  0  0  0  0  0  0  0  0
  146.5583   72.6284  220.0267 H   0  0  0  0  0  0  0  0  0  0  0  0
  145.6571   74.9436  220.5061 H   0  0  0  0  0  0  0  0  0  0  0  0
  142.4601   75.9071  221.7039 H   0  0  0  0  0  0  0  0  0  0  0  0
  143.4162   75.2528  218.2133 H   0  0  0  0  0  0  0  0  0  0  0  0
  143.3256   77.1323  216.6306 H   0  0  0  0  0  0  0  0  0  0  0  0
  142.3610   79.3198  217.3355 H   0  0  0  0  0  0  0  0  0  0  0  0
  141.4909   79.5679  219.6583 H   0  0  0  0  0  0  0  0  0  0  0  0
  141.5960   77.6784  221.2204 H   0  0  0  0  0  0  0  0  0  0  0  0
  138.4605   77.5185  218.9884 H   0  0  0  0  0  0  0  0  0  0  0  0
  137.2657   77.2105  220.2372 H   0  0  0  0  0  0  0  0  0  0  0  0
  139.9297   78.5996  220.9171 H   0  0  0  0  0  0  0  0  0  0  0  0
  138.5947   79.5586  220.2781 H   0  0  0  0  0  0  0  0  0  0  0  0
  1  2  1  0
  2  3  1  0
  3  4  2  0
  3  5  1  0
  5  6  1  0
  6  7  2  0
  7  8  1  0
  8  9  2  0
  9 10  1  0
 10 11  2  0
  5 12  1  0
 12 13  1  0
 13 14  1  0
 14 15  1  0
 15 16  1  0
 16 17  2  0
 16 18  1  0
 18 19  1  0
 18 20  1  0
 20 21  1  0
 21 22  2  0
 22 23  1  0
 23 24  2  0
 24 25  1  0
 25 26  2  0
 26 27  1  0
 27 28  1  0
 28 29  2  0
 29 30  1  0
 30 31  2  0
 31 32  1  0
 32 33  2  0
 15 34  1  0
 34 35  1  0
 11  6  1  0
 35 12  1  0
 27 20  1  0
 33 28  1  0
 26 21  1  0
  1 36  1  0
  1 37  1  0
  1 38  1  0
  2 39  1  0
  2 40  1  0
  7 41  1  0
  8 42  1  0
  9 43  1  0
 10 44  1  0
 11 45  1  0
 12 46  1  0
 13 47  1  0
 13 48  1  0
 14 49  1  0
 14 50  1  0
 18 51  1  1
 19 52  1  0
 19 53  1  0
 20 54  1  1
 22 55  1  0
 23 56  1  0
 24 57  1  0
 25 58  1  0
 27 59  1  1
 29 60  1  0
 30 61  1  0
 31 62  1  0
 32 63  1  0
 33 64  1  0
 34 65  1  0
 34 66  1  0
 35 67  1  0
 35 68  1  0
M  END
>  <smiles>  (199) 
CCC(=O)N(c1ccccc1)C1CCN(C(=O)[C@@H](N)C2c3ccccc3C2c2ccccc2)CC1

>  <score_type>  (199) 
oracle

>  <origin>  (199) 
autodockgpu

>  <m_score__min__energy>  (199) 
-9.6500000000000004

>  <m_primary>  (199) 
energy

>  <rmsd>  (199) 
7.047426236170787

>  <m_score__min__rmsd>  (199) 
7.047426236170787

>  <meeko>  (199) 
{"free_energy": -6.93, "intermolecular_energy": -9.32, "internal_energy": -4.36, "cluster_size": 30, "cluster_id": 2, "rank_in_cluster": 25}

>  <energy>  (199) 
-6.47

>  <cluster_rmsd>  (199) 
0.34

>  <cluster>  (199) 
3

$$$$

     RDKit          3D

 68 72  0  0  0  0  0  0  0  0999 V2000
  144.2340   83.8690  217.1310 C   0  0  0  0  0  0  0  0  0  0  0  0
  143.3980   82.8470  216.3830 C   0  0  0  0  0  0  0  0  0  0  0  0
  141.9710   82.9860  216.7930 C   0  0  0  0  0  0  0  0  0  0  0  0
  141.3140   83.8810  216.1630 O   0  0  0  0  0  0  0  0  0  0  0  0
  141.3780   82.1870  217.8110 N   0  0  0  0  0  0  0  0  0  0  0  0
  140.8110   82.8560  218.9270 C   0  0  0  0  0  0  0  0  0  0  0  0
  141.2690   82.7170  220.2200 C   0  0  0  0  0  0  0  0  0  0  0  0
  140.6410   83.4200  221.2520 C   0  0  0  0  0  0  0  0  0  0  0  0
  139.5620   84.2560  221.0140 C   0  0  0  0  0  0  0  0  0  0  0  0
  139.1000   84.3940  219.7130 C   0  0  0  0  0  0  0  0  0  0  0  0
  139.7390   83.6930  218.7200 C   0  0  0  0  0  0  0  0  0  0  0  0
  141.3870   80.7640  217.6360 C   0  0  0  0  0  0  0  0  0  0  0  0
  140.1800   80.0460  218.1150 C   0  0  0  0  0  0  0  0  0  0  0  0
  140.3570   79.4600  219.5380 C   0  0  0  0  0  0  0  0  0  0  0  0
  141.3900   78.4660  219.5010 N   0  0  0  0  0  0  0  0  0  0  0  0
  141.6150   77.3580  220.3040 C   0  0  0  0  0  0  0  0  0  0  0  0
  142.6860   76.6600  219.9890 O   0  0  0  0  0  0  0  0  0  0  0  0
  140.8980   76.8040  221.4440 C   0  0  1  0  0  0  0  0  0  0  0  0
  141.3490   75.4010  221.5640 N   0  0  0  0  0  0  0  0  0  0  0  0
  140.8850   77.5060  222.7370 C   0  0  1  0  0  0  0  0  0  0  0  0
  141.6740   78.7260  222.8760 C   0  0  0  0  0  0  0  0  0  0  0  0
  142.9020   79.3840  222.8220 C   0  0  0  0  0  0  0  0  0  0  0  0
  142.9840   80.7170  223.1170 C   0  0  0  0  0  0  0  0  0  0  0  0
  141.8930   81.4830  223.4790 C   0  0  0  0  0  0  0  0  0  0  0  0
  140.6610   80.8320  223.5350 C   0  0  0  0  0  0  0  0  0  0  0  0
  140.5940   79.4910  223.2360 C   0  0  0  0  0  0  0  0  0  0  0  0
  139.6900   78.3100  223.0960 C   0  0  1  0  0  0  0  0  0  0  0  0
  138.6240   78.5470  222.1260 C   0  0  0  0  0  0  0  0  0  0  0  0
  137.9250   77.5740  221.4470 C   0  0  0  0  0  0  0  0  0  0  0  0
  136.9220   77.8690  220.5450 C   0  0  0  0  0  0  0  0  0  0  0  0
  136.5820   79.1860  220.2950 C   0  0  0  0  0  0  0  0  0  0  0  0
  137.2610   80.1890  220.9600 C   0  0  0  0  0  0  0  0  0  0  0  0
  138.2570   79.8670  221.8520 C   0  0  0  0  0  0  0  0  0  0  0  0
  142.3870   78.7050  218.4060 C   0  0  0  0  0  0  0  0  0  0  0  0
  142.5800   80.2090  218.4170 C   0  0  0  0  0  0  0  0  0  0  0  0
  144.1123   83.7203  218.2141 H   0  0  0  0  0  0  0  0  0  0  0  0
  145.2930   83.7451  216.8606 H   0  0  0  0  0  0  0  0  0  0  0  0
  143.9026   84.8824  216.8606 H   0  0  0  0  0  0  0  0  0  0  0  0
  143.4882   83.0194  215.3003 H   0  0  0  0  0  0  0  0  0  0  0  0
  143.7537   81.8335  216.6205 H   0  0  0  0  0  0  0  0  0  0  0  0
  142.1222   82.0578  220.4378 H   0  0  0  0  0  0  0  0  0  0  0  0
  141.0134   83.3065  222.2808 H   0  0  0  0  0  0  0  0  0  0  0  0
  139.0810   84.7997  221.8404 H   0  0  0  0  0  0  0  0  0  0  0  0
  138.2452   85.0471  219.4832 H   0  0  0  0  0  0  0  0  0  0  0  0
  139.3691   83.8084  217.6905 H   0  0  0  0  0  0  0  0  0  0  0  0
  141.4325   80.5981  216.5495 H   0  0  0  0  0  0  0  0  0  0  0  0
  139.3341   80.7491  218.1269 H   0  0  0  0  0  0  0  0  0  0  0  0
  140.0007   79.2045  217.4296 H   0  0  0  0  0  0  0  0  0  0  0  0
  140.6398   80.2618  220.2359 H   0  0  0  0  0  0  0  0  0  0  0  0
  139.4134   79.0073  219.8768 H   0  0  0  0  0  0  0  0  0  0  0  0
  139.8315   76.9275  221.2045 H   0  0  0  0  0  0  0  0  0  0  0  0
  141.3980   74.9780  220.6150 H   0  0  0  0  0  0  0  0  0  0  0  0
  142.1880   75.2960  222.1420 H   0  0  0  0  0  0  0  0  0  0  0  0
  141.1450   76.5901  223.2880 H   0  0  0  0  0  0  0  0  0  0  0  0
  143.8089   78.8286  222.5409 H   0  0  0  0  0  0  0  0  0  0  0  0
  143.9689   81.2039  223.0632 H   0  0  0  0  0  0  0  0  0  0  0  0
  141.9912   82.5536  223.7116 H   0  0  0  0  0  0  0  0  0  0  0  0
  139.7524   81.3850  223.8153 H   0  0  0  0  0  0  0  0  0  0  0  0
  139.0315   77.9120  223.8821 H   0  0  0  0  0  0  0  0  0  0  0  0
  138.1759   76.5189  221.6307 H   0  0  0  0  0  0  0  0  0  0  0  0
  136.3933   77.0564  220.0252 H   0  0  0  0  0  0  0  0  0  0  0  0
  135.7841   79.4310  219.5785 H   0  0  0  0  0  0  0  0  0  0  0  0
  137.0054   81.2430  220.7763 H   0  0  0  0  0  0  0  0  0  0  0  0
  138.7855   80.6807  222.3702 H   0  0  0  0  0  0  0  0  0  0  0  0
  143.3338   78.1865  218.6176 H   0  0  0  0  0  0  0  0  0  0  0  0
  142.0477   78.3261  217.4307 H   0  0  0  0  0  0  0  0  0  0  0  0
  142.5795   80.5918  219.4482 H   0  0  0  0  0  0  0  0  0  0  0  0
  143.5411   80.5067  217.9724 H   0  0  0  0  0  0  0  0  0  0  0  0
  1  2  1  0
  2  3  1  0
  3  4  2  0
  3  5  1  0
  5  6  1  0
  6  7  2  0
  7  8  1  0
  8  9  2  0
  9 10  1  0
 10 11  2  0
  5 12  1  0
 12 13  1  0
 13 14  1  0
 14 15  1  0
 15 16  1  0
 16 17  2  0
 16 18  1  0
 18 19  1  0
 18 20  1  0
 20 21  1  0
 21 22  2  0
 22 23  1  0
 23 24  2  0
 24 25  1  0
 25 26  2  0
 26 27  1  0
 27 28  1  0
 28 29  2  0
 29 30  1  0
 30 31  2  0
 31 32  1  0
 32 33  2  0
 15 34  1  0
 34 35  1  0
 11  6  1  0
 35 12  1  0
 27 20  1  0
 33 28  1  0
 26 21  1  0
  1 36  1  0
  1 37  1  0
  1 38  1  0
  2 39  1  0
  2 40  1  0
  7 41  1  0
  8 42  1  0
  9 43  1  0
 10 44  1  0
 11 45  1  0
 12 46  1  0
 13 47  1  0
 13 48  1  0
 14 49  1  0
 14 50  1  0
 18 51  1  6
 19 52  1  0
 19 53  1  0
 20 54  1  1
 22 55  1  0
 23 56  1  0
 24 57  1  0
 25 58  1  0
 27 59  1  1
 29 60  1  0
 30 61  1  0
 31 62  1  0
 32 63  1  0
 33 64  1  0
 34 65  1  0
 34 66  1  0
 35 67  1  0
 35 68  1  0
M  END
>  <smiles>  (200) 
CCC(=O)N(c1ccccc1)C1CCN(C(=O)[C@@H](N)C2c3ccccc3C2c2ccccc2)CC1

>  <score_type>  (200) 
oracle

>  <origin>  (200) 
autodockgpu

>  <m_score__min__energy>  (200) 
-9.6500000000000004

>  <m_primary>  (200) 
energy

>  <rmsd>  (200) 
9.228311526229874

>  <m_score__min__rmsd>  (200) 
9.228311526229874

>  <meeko>  (200) 
{"free_energy": -6.41, "intermolecular_energy": -8.8, "internal_energy": -4.82, "cluster_size": 11, "cluster_id": 3, "rank_in_cluster": 11}

>  <energy>  (200) 
-6.41

>  <cluster_rmsd>  (200) 
0.32

>  <cluster>  (200) 
3

$$$$
