
     RDKit          3D

 56 59  0  0  0  0  0  0  0  0999 V2000
  140.3070   72.9430  222.4180 O   0  0  0  0  0  0  0  0  0  0  0  0
  139.6620   71.9020  222.7860 C   0  0  0  0  0  0  0  0  0  0  0  0
  138.5950   71.3740  221.9770 N   0  0  0  0  0  0  0  0  0  0  0  0
  138.1950   71.9660  220.7540 C   0  0  0  0  0  0  0  0  0  0  0  0
  138.0380   73.4070  220.6710 C   0  0  0  0  0  0  0  0  0  0  0  0
  138.5670   73.9530  219.6160 O   0  0  0  0  0  0  0  0  0  0  0  0
  137.4000   74.2930  221.5530 N   0  0  0  0  0  0  0  0  0  0  0  0
  136.5400   74.0830  222.7020 C   0  0  0  0  0  0  0  0  0  0  0  0
  135.6390   75.3000  222.8150 C   0  0  0  0  0  0  0  0  0  0  0  0
  136.0610   76.1480  221.6480 C   0  0  0  0  0  0  0  0  0  0  0  0
  137.4940   75.7560  221.4650 C   0  0  1  0  0  0  0  0  0  0  0  0
  138.3520   76.3250  222.5690 C   0  0  0  0  0  0  0  0  0  0  0  0
  139.5190   75.5270  222.7290 N   0  0  0  0  0  0  0  0  0  0  0  0
  140.7040   75.9890  222.0780 C   0  0  0  0  0  0  0  0  0  0  0  0
  140.9280   77.4450  222.1510 C   0  0  0  0  0  0  0  0  0  0  0  0
  141.3990   78.1130  223.2500 C   0  0  0  0  0  0  0  0  0  0  0  0
  141.5900   79.4840  223.2630 C   0  0  0  0  0  0  0  0  0  0  0  0
  141.3020   80.2330  222.1380 C   0  0  0  0  0  0  0  0  0  0  0  0
  141.5260   81.9820  222.0990 Cl  0  0  0  0  0  0  0  0  0  0  0  0
  140.8260   79.5690  221.0250 C   0  0  0  0  0  0  0  0  0  0  0  0
  140.6400   78.1950  221.0280 C   0  0  0  0  0  0  0  0  0  0  0  0
  140.0090   71.2360  224.0460 C   0  0  0  0  0  0  0  0  0  0  0  0
  140.8270   71.8880  224.9460 C   0  0  0  0  0  0  0  0  0  0  0  0
  141.1330   71.2170  226.1320 C   0  0  0  0  0  0  0  0  0  0  0  0
  140.6280   69.9420  226.3870 C   0  0  0  0  0  0  0  0  0  0  0  0
  140.9190   69.2640  227.5540 C   0  0  0  0  0  0  0  0  0  0  0  0
  140.4030   67.9950  227.7840 C   0  0  0  0  0  0  0  0  0  0  0  0
  139.5780   67.3900  226.8290 C   0  0  0  0  0  0  0  0  0  0  0  0
  139.2810   68.0590  225.6580 C   0  0  0  0  0  0  0  0  0  0  0  0
  139.8090   69.3370  225.4450 C   0  0  0  0  0  0  0  0  0  0  0  0
  139.5410   70.0110  224.3230 N   0  0  0  0  0  0  0  0  0  0  0  0
  138.1280   70.5040  222.3640 H   0  0  0  0  0  0  0  0  0  0  0  0
  138.9459   71.6829  220.0017 H   0  0  0  0  0  0  0  0  0  0  0  0
  137.1725   71.5876  220.6080 H   0  0  0  0  0  0  0  0  0  0  0  0
  135.9334   73.1767  222.5584 H   0  0  0  0  0  0  0  0  0  0  0  0
  137.1356   73.9510  223.6173 H   0  0  0  0  0  0  0  0  0  0  0  0
  134.5795   75.0156  222.7335 H   0  0  0  0  0  0  0  0  0  0  0  0
  135.7320   75.8179  223.7810 H   0  0  0  0  0  0  0  0  0  0  0  0
  135.4674   75.9148  220.7518 H   0  0  0  0  0  0  0  0  0  0  0  0
  135.9188   77.2260  221.8147 H   0  0  0  0  0  0  0  0  0  0  0  0
  137.9552   76.1198  220.5349 H   0  0  0  0  0  0  0  0  0  0  0  0
  138.6448   77.3535  222.3113 H   0  0  0  0  0  0  0  0  0  0  0  0
  137.7811   76.3281  223.5092 H   0  0  0  0  0  0  0  0  0  0  0  0
  139.3550   74.5010  222.6150 H   0  0  0  0  0  0  0  0  0  0  0  0
  141.5660   75.4874  222.5422 H   0  0  0  0  0  0  0  0  0  0  0  0
  140.5819   75.7498  221.0113 H   0  0  0  0  0  0  0  0  0  0  0  0
  141.6347   77.5378  224.1575 H   0  0  0  0  0  0  0  0  0  0  0  0
  141.9712   79.9774  224.1692 H   0  0  0  0  0  0  0  0  0  0  0  0
  140.5893   80.1422  220.1165 H   0  0  0  0  0  0  0  0  0  0  0  0
  140.2584   77.6964  220.1248 H   0  0  0  0  0  0  0  0  0  0  0  0
  141.2213   72.8936  224.7381 H   0  0  0  0  0  0  0  0  0  0  0  0
  141.7821   71.7013  226.8764 H   0  0  0  0  0  0  0  0  0  0  0  0
  141.5662   69.7336  228.3094 H   0  0  0  0  0  0  0  0  0  0  0  0
  140.6430   67.4651  228.7176 H   0  0  0  0  0  0  0  0  0  0  0  0
  139.1678   66.3856  227.0104 H   0  0  0  0  0  0  0  0  0  0  0  0
  138.6354   67.5915  224.8999 H   0  0  0  0  0  0  0  0  0  0  0  0
  1  2  2  0
  2  3  1  0
  3  4  1  0
  4  5  1  0
  5  6  2  0
  5  7  1  0
  7  8  1  0
  8  9  1  0
  9 10  1  0
 10 11  1  0
 11 12  1  0
 12 13  1  0
 13 14  1  0
 14 15  1  0
 15 16  2  0
 16 17  1  0
 17 18  2  0
 18 19  1  0
 18 20  1  0
 20 21  2  0
  2 22  1  0
 22 23  2  0
 23 24  1  0
 24 25  2  0
 25 26  1  0
 26 27  2  0
 27 28  1  0
 28 29  2  0
 29 30  1  0
 30 31  2  0
 11  7  1  0
 21 15  1  0
 31 22  1  0
 30 25  1  0
  3 32  1  0
  4 33  1  0
  4 34  1  0
  8 35  1  0
  8 36  1  0
  9 37  1  0
  9 38  1  0
 10 39  1  0
 10 40  1  0
 11 41  1  6
 12 42  1  0
 12 43  1  0
 13 44  1  0
 14 45  1  0
 14 46  1  0
 16 47  1  0
 17 48  1  0
 20 49  1  0
 21 50  1  0
 23 51  1  0
 24 52  1  0
 26 53  1  0
 27 54  1  0
 28 55  1  0
 29 56  1  0
M  END
>  <smiles>  (1) 
O=C(NCC(=O)N1CCC[C@H]1CNCc1ccc(Cl)cc1)c1ccc2ccccc2n1

>  <score_type>  (1) 
oracle

>  <origin>  (1) 
autodockgpu

>  <m_score__min__energy>  (1) 
-8.8800000000000008

>  <m_primary>  (1) 
energy

>  <rmsd>  (1) 
4.014675044551367

>  <m_score__min__rmsd>  (1) 
4.014675044551367

>  <meeko>  (1) 
{"free_energy": -7.91, "intermolecular_energy": -10.3, "internal_energy": -2.96, "cluster_size": 4, "cluster_id": 3, "rank_in_cluster": 3}

>  <energy>  (1) 
-8.88

>  <cluster_rmsd>  (1) 
0.0

>  <cluster>  (1) 
1

$$$$

     RDKit          3D

 56 59  0  0  0  0  0  0  0  0999 V2000
  139.9600   73.7380  222.7160 O   0  0  0  0  0  0  0  0  0  0  0  0
  140.3320   72.5210  222.5940 C   0  0  0  0  0  0  0  0  0  0  0  0
  140.8960   72.0450  221.3580 N   0  0  0  0  0  0  0  0  0  0  0  0
  141.0630   72.8750  220.2220 C   0  0  0  0  0  0  0  0  0  0  0  0
  139.9320   73.1340  219.3500 C   0  0  0  0  0  0  0  0  0  0  0  0
  139.7640   72.2610  218.4010 O   0  0  0  0  0  0  0  0  0  0  0  0
  138.9960   74.1790  219.3800 N   0  0  0  0  0  0  0  0  0  0  0  0
  137.9160   74.5530  218.4870 C   0  0  0  0  0  0  0  0  0  0  0  0
  137.7220   76.0540  218.6250 C   0  0  0  0  0  0  0  0  0  0  0  0
  138.7740   76.4450  219.6240 C   0  0  0  0  0  0  0  0  0  0  0  0
  138.9290   75.1970  220.4370 C   0  0  1  0  0  0  0  0  0  0  0  0
  137.7330   74.9890  221.3340 C   0  0  0  0  0  0  0  0  0  0  0  0
  137.9600   75.6140  222.5910 N   0  0  0  0  0  0  0  0  0  0  0  0
  137.7770   77.0300  222.6430 C   0  0  0  0  0  0  0  0  0  0  0  0
  139.0160   77.8120  222.8200 C   0  0  0  0  0  0  0  0  0  0  0  0
  140.2790   77.3500  222.5670 C   0  0  0  0  0  0  0  0  0  0  0  0
  141.4080   78.1290  222.7510 C   0  0  0  0  0  0  0  0  0  0  0  0
  141.2860   79.4270  223.2080 C   0  0  0  0  0  0  0  0  0  0  0  0
  142.6900   80.4640  223.4620 Cl  0  0  0  0  0  0  0  0  0  0  0  0
  140.0150   79.9030  223.4670 C   0  0  0  0  0  0  0  0  0  0  0  0
  138.8940   79.1090  223.2770 C   0  0  0  0  0  0  0  0  0  0  0  0
  140.1830   71.5950  223.7220 C   0  0  0  0  0  0  0  0  0  0  0  0
  139.5550   70.3850  223.5180 C   0  0  0  0  0  0  0  0  0  0  0  0
  139.4330   69.5350  224.6190 C   0  0  0  0  0  0  0  0  0  0  0  0
  139.9300   69.9040  225.8700 C   0  0  0  0  0  0  0  0  0  0  0  0
  139.8200   69.0770  226.9700 C   0  0  0  0  0  0  0  0  0  0  0  0
  140.3220   69.4690  228.2040 C   0  0  0  0  0  0  0  0  0  0  0  0
  140.9490   70.7120  228.3440 C   0  0  0  0  0  0  0  0  0  0  0  0
  141.0650   71.5470  227.2500 C   0  0  0  0  0  0  0  0  0  0  0  0
  140.5530   71.1350  226.0150 C   0  0  0  0  0  0  0  0  0  0  0  0
  140.6490   71.9190  224.9370 N   0  0  0  0  0  0  0  0  0  0  0  0
  141.1810   71.0230  221.3600 H   0  0  0  0  0  0  0  0  0  0  0  0
  141.4138   73.8511  220.5885 H   0  0  0  0  0  0  0  0  0  0  0  0
  141.7529   72.3024  219.5847 H   0  0  0  0  0  0  0  0  0  0  0  0
  138.1797   74.3004  217.4494 H   0  0  0  0  0  0  0  0  0  0  0  0
  136.9920   74.0135  218.7424 H   0  0  0  0  0  0  0  0  0  0  0  0
  137.8828   76.5627  217.6631 H   0  0  0  0  0  0  0  0  0  0  0  0
  136.7047   76.3307  218.9388 H   0  0  0  0  0  0  0  0  0  0  0  0
  139.7165   76.7135  219.1243 H   0  0  0  0  0  0  0  0  0  0  0  0
  138.5038   77.3275  220.2226 H   0  0  0  0  0  0  0  0  0  0  0  0
  139.7939   75.1943  221.1167 H   0  0  0  0  0  0  0  0  0  0  0  0
  136.8419   75.4293  220.8627 H   0  0  0  0  0  0  0  0  0  0  0  0
  137.5765   73.9110  221.4870 H   0  0  0  0  0  0  0  0  0  0  0  0
  138.8250   75.2890  223.0800 H   0  0  0  0  0  0  0  0  0  0  0  0
  137.3041   77.3479  221.7021 H   0  0  0  0  0  0  0  0  0  0  0  0
  137.1585   77.2281  223.5308 H   0  0  0  0  0  0  0  0  0  0  0  0
  140.4017   76.3192  222.2032 H   0  0  0  0  0  0  0  0  0  0  0  0
  142.4033   77.7143  222.5332 H   0  0  0  0  0  0  0  0  0  0  0  0
  139.8897   80.9333  223.8315 H   0  0  0  0  0  0  0  0  0  0  0  0
  137.8957   79.5175  223.4930 H   0  0  0  0  0  0  0  0  0  0  0  0
  139.1661   70.1009  222.5290 H   0  0  0  0  0  0  0  0  0  0  0  0
  138.9379   68.5601  224.4987 H   0  0  0  0  0  0  0  0  0  0  0  0
  139.3297   68.0976  226.8679 H   0  0  0  0  0  0  0  0  0  0  0  0
  140.2266   68.8012  229.0729 H   0  0  0  0  0  0  0  0  0  0  0  0
  141.3477   71.0228  229.3210 H   0  0  0  0  0  0  0  0  0  0  0  0
  141.5553   72.5267  227.3488 H   0  0  0  0  0  0  0  0  0  0  0  0
  1  2  2  0
  2  3  1  0
  3  4  1  0
  4  5  1  0
  5  6  2  0
  5  7  1  0
  7  8  1  0
  8  9  1  0
  9 10  1  0
 10 11  1  0
 11 12  1  0
 12 13  1  0
 13 14  1  0
 14 15  1  0
 15 16  2  0
 16 17  1  0
 17 18  2  0
 18 19  1  0
 18 20  1  0
 20 21  2  0
  2 22  1  0
 22 23  2  0
 23 24  1  0
 24 25  2  0
 25 26  1  0
 26 27  2  0
 27 28  1  0
 28 29  2  0
 29 30  1  0
 30 31  2  0
 11  7  1  0
 21 15  1  0
 31 22  1  0
 30 25  1  0
  3 32  1  0
  4 33  1  0
  4 34  1  0
  8 35  1  0
  8 36  1  0
  9 37  1  0
  9 38  1  0
 10 39  1  0
 10 40  1  0
 11 41  1  1
 12 42  1  0
 12 43  1  0
 13 44  1  0
 14 45  1  0
 14 46  1  0
 16 47  1  0
 17 48  1  0
 20 49  1  0
 21 50  1  0
 23 51  1  0
 24 52  1  0
 26 53  1  0
 27 54  1  0
 28 55  1  0
 29 56  1  0
M  END
>  <smiles>  (2) 
O=C(NCC(=O)N1CCC[C@H]1CNCc1ccc(Cl)cc1)c1ccc2ccccc2n1

>  <score_type>  (2) 
oracle

>  <origin>  (2) 
autodockgpu

>  <m_score__min__energy>  (2) 
-8.8800000000000008

>  <m_primary>  (2) 
energy

>  <rmsd>  (2) 
3.141824608813104

>  <m_score__min__rmsd>  (2) 
3.141824608813104

>  <meeko>  (2) 
{"free_energy": -7.89, "intermolecular_energy": -10.28, "internal_energy": -2.4, "cluster_size": 4, "cluster_id": 3, "rank_in_cluster": 4}

>  <energy>  (2) 
-8.46

>  <cluster_rmsd>  (2) 
0.0

>  <cluster>  (2) 
2

$$$$

     RDKit          3D

 56 59  0  0  0  0  0  0  0  0999 V2000
  138.7790   75.1230  221.8510 O   0  0  0  0  0  0  0  0  0  0  0  0
  139.9610   75.5930  221.9770 C   0  0  0  0  0  0  0  0  0  0  0  0
  141.1130   74.7680  221.7230 N   0  0  0  0  0  0  0  0  0  0  0  0
  141.0110   73.4100  221.3340 C   0  0  0  0  0  0  0  0  0  0  0  0
  142.1810   72.7200  220.8190 C   0  0  0  0  0  0  0  0  0  0  0  0
  142.1460   71.4260  220.9360 O   0  0  0  0  0  0  0  0  0  0  0  0
  143.3360   73.2400  220.2140 N   0  0  0  0  0  0  0  0  0  0  0  0
  144.1260   72.8070  219.0770 C   0  0  0  0  0  0  0  0  0  0  0  0
  145.5460   73.2950  219.3080 C   0  0  0  0  0  0  0  0  0  0  0  0
  145.4570   73.9900  220.6380 C   0  0  0  0  0  0  0  0  0  0  0  0
  144.0330   74.4500  220.6690 C   0  0  1  0  0  0  0  0  0  0  0  0
  143.8210   75.6040  219.7190 C   0  0  0  0  0  0  0  0  0  0  0  0
  142.5930   76.2550  220.0210 N   0  0  0  0  0  0  0  0  0  0  0  0
  141.9070   76.8670  218.9280 C   0  0  0  0  0  0  0  0  0  0  0  0
  141.6500   78.3120  219.0830 C   0  0  0  0  0  0  0  0  0  0  0  0
  140.5510   78.8530  219.6950 C   0  0  0  0  0  0  0  0  0  0  0  0
  140.3600   80.2180  219.8130 C   0  0  0  0  0  0  0  0  0  0  0  0
  141.3000   81.0940  219.3020 C   0  0  0  0  0  0  0  0  0  0  0  0
  141.1080   82.8430  219.4230 Cl  0  0  0  0  0  0  0  0  0  0  0  0
  142.4120   80.5580  218.6830 C   0  0  0  0  0  0  0  0  0  0  0  0
  142.5870   79.1870  218.5740 C   0  0  0  0  0  0  0  0  0  0  0  0
  140.1510   76.9900  222.3860 C   0  0  0  0  0  0  0  0  0  0  0  0
  139.0440   77.7600  222.6760 C   0  0  0  0  0  0  0  0  0  0  0  0
  139.2690   79.0830  223.0600 C   0  0  0  0  0  0  0  0  0  0  0  0
  140.5650   79.5960  223.1440 C   0  0  0  0  0  0  0  0  0  0  0  0
  140.8080   80.9010  223.5220 C   0  0  0  0  0  0  0  0  0  0  0  0
  142.1060   81.3870  223.5970 C   0  0  0  0  0  0  0  0  0  0  0  0
  143.1860   80.5520  223.2900 C   0  0  0  0  0  0  0  0  0  0  0  0
  142.9550   79.2450  222.9110 C   0  0  0  0  0  0  0  0  0  0  0  0
  141.6400   78.7730  222.8400 C   0  0  0  0  0  0  0  0  0  0  0  0
  141.3810   77.5140  222.4770 N   0  0  0  0  0  0  0  0  0  0  0  0
  142.0480   75.2530  221.8470 H   0  0  0  0  0  0  0  0  0  0  0  0
  140.6731   72.8493  222.2180 H   0  0  0  0  0  0  0  0  0  0  0  0
  140.3305   73.4409  220.4703 H   0  0  0  0  0  0  0  0  0  0  0  0
  144.1114   71.7096  219.0034 H   0  0  0  0  0  0  0  0  0  0  0  0
  143.7195   73.2147  218.1397 H   0  0  0  0  0  0  0  0  0  0  0  0
  146.2512   72.4518  219.3497 H   0  0  0  0  0  0  0  0  0  0  0  0
  145.9145   73.9481  218.5032 H   0  0  0  0  0  0  0  0  0  0  0  0
  145.6684   73.2954  221.4643 H   0  0  0  0  0  0  0  0  0  0  0  0
  146.1842   74.8070  220.7552 H   0  0  0  0  0  0  0  0  0  0  0  0
  143.6908   74.8232  221.6455 H   0  0  0  0  0  0  0  0  0  0  0  0
  144.6495   76.3200  219.8230 H   0  0  0  0  0  0  0  0  0  0  0  0
  143.7876   75.2245  218.6871 H   0  0  0  0  0  0  0  0  0  0  0  0
  142.6270   76.8540  220.8780 H   0  0  0  0  0  0  0  0  0  0  0  0
  142.5132   76.7236  218.0214 H   0  0  0  0  0  0  0  0  0  0  0  0
  140.9204   76.3834  218.8749 H   0  0  0  0  0  0  0  0  0  0  0  0
  139.7899   78.1754  220.1092 H   0  0  0  0  0  0  0  0  0  0  0  0
  139.4606   80.6065  220.3132 H   0  0  0  0  0  0  0  0  0  0  0  0
  143.1749   81.2329  218.2677 H   0  0  0  0  0  0  0  0  0  0  0  0
  143.4844   78.7920  218.0753 H   0  0  0  0  0  0  0  0  0  0  0  0
  138.0261   77.3486  222.6075 H   0  0  0  0  0  0  0  0  0  0  0  0
  138.4130   79.7308  223.2999 H   0  0  0  0  0  0  0  0  0  0  0  0
  139.9641   81.5629  223.7664 H   0  0  0  0  0  0  0  0  0  0  0  0
  142.2858   82.4296  223.8981 H   0  0  0  0  0  0  0  0  0  0  0  0
  144.2152   80.9357  223.3504 H   0  0  0  0  0  0  0  0  0  0  0  0
  143.7971   78.5807  222.6670 H   0  0  0  0  0  0  0  0  0  0  0  0
  1  2  2  0
  2  3  1  0
  3  4  1  0
  4  5  1  0
  5  6  2  0
  5  7  1  0
  7  8  1  0
  8  9  1  0
  9 10  1  0
 10 11  1  0
 11 12  1  0
 12 13  1  0
 13 14  1  0
 14 15  1  0
 15 16  2  0
 16 17  1  0
 17 18  2  0
 18 19  1  0
 18 20  1  0
 20 21  2  0
  2 22  1  0
 22 23  2  0
 23 24  1  0
 24 25  2  0
 25 26  1  0
 26 27  2  0
 27 28  1  0
 28 29  2  0
 29 30  1  0
 30 31  2  0
 11  7  1  0
 21 15  1  0
 31 22  1  0
 30 25  1  0
  3 32  1  0
  4 33  1  0
  4 34  1  0
  8 35  1  0
  8 36  1  0
  9 37  1  0
  9 38  1  0
 10 39  1  0
 10 40  1  0
 11 41  1  1
 12 42  1  0
 12 43  1  0
 13 44  1  0
 14 45  1  0
 14 46  1  0
 16 47  1  0
 17 48  1  0
 20 49  1  0
 21 50  1  0
 23 51  1  0
 24 52  1  0
 26 53  1  0
 27 54  1  0
 28 55  1  0
 29 56  1  0
M  END
>  <smiles>  (3) 
O=C(NCC(=O)N1CCC[C@H]1CNCc1ccc(Cl)cc1)c1ccc2ccccc2n1

>  <score_type>  (3) 
oracle

>  <origin>  (3) 
autodockgpu

>  <m_score__min__energy>  (3) 
-8.8800000000000008

>  <m_primary>  (3) 
energy

>  <rmsd>  (3) 
6.852128554236318

>  <m_score__min__rmsd>  (3) 
6.852128554236318

>  <meeko>  (3) 
{"free_energy": -7.39, "intermolecular_energy": -9.77, "internal_energy": -4.71, "cluster_size": 23, "cluster_id": 5, "rank_in_cluster": 6}

>  <energy>  (3) 
-7.69

>  <cluster_rmsd>  (3) 
1.52

>  <cluster>  (3) 
2

$$$$

     RDKit          3D

 56 59  0  0  0  0  0  0  0  0999 V2000
  139.2440   74.8600  222.2450 O   0  0  0  0  0  0  0  0  0  0  0  0
  140.2880   75.5750  222.0640 C   0  0  0  0  0  0  0  0  0  0  0  0
  141.4690   75.0130  221.4630 N   0  0  0  0  0  0  0  0  0  0  0  0
  141.5500   73.6600  221.0520 C   0  0  0  0  0  0  0  0  0  0  0  0
  140.4400   73.0600  220.3340 C   0  0  0  0  0  0  0  0  0  0  0  0
  139.8800   73.8330  219.4500 O   0  0  0  0  0  0  0  0  0  0  0  0
  139.8860   71.7750  220.4470 N   0  0  0  0  0  0  0  0  0  0  0  0
  140.4120   70.4530  220.1670 C   0  0  0  0  0  0  0  0  0  0  0  0
  139.2300   69.5670  219.8140 C   0  0  0  0  0  0  0  0  0  0  0  0
  138.0590   70.5050  219.9060 C   0  0  0  0  0  0  0  0  0  0  0  0
  138.5220   71.5030  220.9210 C   0  0  1  0  0  0  0  0  0  0  0  0
  138.5260   70.8990  222.3050 C   0  0  0  0  0  0  0  0  0  0  0  0
  138.9270   71.8790  223.2550 N   0  0  0  0  0  0  0  0  0  0  0  0
  140.2680   71.7910  223.7380 C   0  0  0  0  0  0  0  0  0  0  0  0
  140.4310   71.0250  224.9890 C   0  0  0  0  0  0  0  0  0  0  0  0
  140.9010   71.5370  226.1680 C   0  0  0  0  0  0  0  0  0  0  0  0
  141.0330   70.7720  227.3130 C   0  0  0  0  0  0  0  0  0  0  0  0
  140.6860   69.4340  227.2940 C   0  0  0  0  0  0  0  0  0  0  0  0
  140.8350   68.4110  228.7230 Cl  0  0  0  0  0  0  0  0  0  0  0  0
  140.2110   68.9070  226.1090 C   0  0  0  0  0  0  0  0  0  0  0  0
  140.0840   69.6890  224.9710 C   0  0  0  0  0  0  0  0  0  0  0  0
  140.2880   76.9840  222.4730 C   0  0  0  0  0  0  0  0  0  0  0  0
  139.0840   77.6170  222.6990 C   0  0  0  0  0  0  0  0  0  0  0  0
  139.1300   78.9580  223.0850 C   0  0  0  0  0  0  0  0  0  0  0  0
  140.3480   79.6210  223.2340 C   0  0  0  0  0  0  0  0  0  0  0  0
  140.4140   80.9460  223.6160 C   0  0  0  0  0  0  0  0  0  0  0  0
  141.6400   81.5830  223.7570 C   0  0  0  0  0  0  0  0  0  0  0  0
  142.8260   80.8830  223.5130 C   0  0  0  0  0  0  0  0  0  0  0  0
  142.7730   79.5570  223.1310 C   0  0  0  0  0  0  0  0  0  0  0  0
  141.5280   78.9320  222.9940 C   0  0  0  0  0  0  0  0  0  0  0  0
  141.4410   77.6510  222.6260 N   0  0  0  0  0  0  0  0  0  0  0  0
  142.2790   75.6880  221.3490 H   0  0  0  0  0  0  0  0  0  0  0  0
  142.4334   73.5762  220.4019 H   0  0  0  0  0  0  0  0  0  0  0  0
  141.5723   73.1043  222.0010 H   0  0  0  0  0  0  0  0  0  0  0  0
  141.1153   70.4979  219.3224 H   0  0  0  0  0  0  0  0  0  0  0  0
  140.9532   70.0547  221.0379 H   0  0  0  0  0  0  0  0  0  0  0  0
  139.3312   69.1609  218.7967 H   0  0  0  0  0  0  0  0  0  0  0  0
  139.1347   68.6916  220.4732 H   0  0  0  0  0  0  0  0  0  0  0  0
  137.8586   70.9867  218.9376 H   0  0  0  0  0  0  0  0  0  0  0  0
  137.1178   70.0057  220.1797 H   0  0  0  0  0  0  0  0  0  0  0  0
  137.8901   72.3993  221.0066 H   0  0  0  0  0  0  0  0  0  0  0  0
  137.5148   70.5431  222.5515 H   0  0  0  0  0  0  0  0  0  0  0  0
  139.2315   70.0554  222.3321 H   0  0  0  0  0  0  0  0  0  0  0  0
  138.2250   72.0560  224.0090 H   0  0  0  0  0  0  0  0  0  0  0  0
  140.8798   71.3096  222.9609 H   0  0  0  0  0  0  0  0  0  0  0  0
  140.5814   72.8207  223.9648 H   0  0  0  0  0  0  0  0  0  0  0  0
  141.1851   72.5990  226.2067 H   0  0  0  0  0  0  0  0  0  0  0  0
  141.4141   71.2283  228.2385 H   0  0  0  0  0  0  0  0  0  0  0  0
  139.9276   67.8450  226.0671 H   0  0  0  0  0  0  0  0  0  0  0  0
  139.7021   69.2393  224.0426 H   0  0  0  0  0  0  0  0  0  0  0  0
  138.1272   77.0875  222.5801 H   0  0  0  0  0  0  0  0  0  0  0  0
  138.1916   79.4997  223.2745 H   0  0  0  0  0  0  0  0  0  0  0  0
  139.4857   81.5031  223.8107 H   0  0  0  0  0  0  0  0  0  0  0  0
  141.6783   82.6395  224.0610 H   0  0  0  0  0  0  0  0  0  0  0  0
  143.7974   81.3868  223.6250 H   0  0  0  0  0  0  0  0  0  0  0  0
  143.6999   78.9975  222.9363 H   0  0  0  0  0  0  0  0  0  0  0  0
  1  2  2  0
  2  3  1  0
  3  4  1  0
  4  5  1  0
  5  6  2  0
  5  7  1  0
  7  8  1  0
  8  9  1  0
  9 10  1  0
 10 11  1  0
 11 12  1  0
 12 13  1  0
 13 14  1  0
 14 15  1  0
 15 16  2  0
 16 17  1  0
 17 18  2  0
 18 19  1  0
 18 20  1  0
 20 21  2  0
  2 22  1  0
 22 23  2  0
 23 24  1  0
 24 25  2  0
 25 26  1  0
 26 27  2  0
 27 28  1  0
 28 29  2  0
 29 30  1  0
 30 31  2  0
 11  7  1  0
 21 15  1  0
 31 22  1  0
 30 25  1  0
  3 32  1  0
  4 33  1  0
  4 34  1  0
  8 35  1  0
  8 36  1  0
  9 37  1  0
  9 38  1  0
 10 39  1  0
 10 40  1  0
 11 41  1  1
 12 42  1  0
 12 43  1  0
 13 44  1  0
 14 45  1  0
 14 46  1  0
 16 47  1  0
 17 48  1  0
 20 49  1  0
 21 50  1  0
 23 51  1  0
 24 52  1  0
 26 53  1  0
 27 54  1  0
 28 55  1  0
 29 56  1  0
M  END
>  <smiles>  (4) 
O=C(NCC(=O)N1CCC[C@H]1CNCc1ccc(Cl)cc1)c1ccc2ccccc2n1

>  <score_type>  (4) 
oracle

>  <origin>  (4) 
autodockgpu

>  <m_score__min__energy>  (4) 
-8.8800000000000008

>  <m_primary>  (4) 
energy

>  <rmsd>  (4) 
9.130223604099378

>  <m_score__min__rmsd>  (4) 
9.130223604099378

>  <meeko>  (4) 
{"free_energy": -8.46, "intermolecular_energy": -10.85, "internal_energy": -2.02, "cluster_size": 2, "cluster_id": 2, "rank_in_cluster": 1}

>  <energy>  (4) 
-8.38

>  <cluster_rmsd>  (4) 
0.0

>  <cluster>  (4) 
3

$$$$

     RDKit          3D

 56 59  0  0  0  0  0  0  0  0999 V2000
  138.7520   75.1310  221.9800 O   0  0  0  0  0  0  0  0  0  0  0  0
  139.9330   75.6130  222.0650 C   0  0  0  0  0  0  0  0  0  0  0  0
  141.0830   74.7970  221.7750 N   0  0  0  0  0  0  0  0  0  0  0  0
  140.9810   73.4370  221.3930 C   0  0  0  0  0  0  0  0  0  0  0  0
  142.1450   72.7500  220.8640 C   0  0  0  0  0  0  0  0  0  0  0  0
  142.1080   71.4550  220.9680 O   0  0  0  0  0  0  0  0  0  0  0  0
  143.2970   73.2730  220.2550 N   0  0  0  0  0  0  0  0  0  0  0  0
  144.1030   72.8250  219.1360 C   0  0  0  0  0  0  0  0  0  0  0  0
  145.5130   73.3400  219.3660 C   0  0  0  0  0  0  0  0  0  0  0  0
  145.4030   74.0650  220.6780 C   0  0  0  0  0  0  0  0  0  0  0  0
  143.9720   74.5040  220.6860 C   0  0  1  0  0  0  0  0  0  0  0  0
  143.7500   75.6310  219.7070 C   0  0  0  0  0  0  0  0  0  0  0  0
  142.5400   76.3100  220.0220 N   0  0  0  0  0  0  0  0  0  0  0  0
  141.8660   76.9520  218.9390 C   0  0  0  0  0  0  0  0  0  0  0  0
  141.5290   78.3700  219.1680 C   0  0  0  0  0  0  0  0  0  0  0  0
  140.3470   78.8230  219.6900 C   0  0  0  0  0  0  0  0  0  0  0  0
  140.0830   80.1670  219.8830 C   0  0  0  0  0  0  0  0  0  0  0  0
  141.0320   81.1130  219.5440 C   0  0  0  0  0  0  0  0  0  0  0  0
  140.7510   82.8400  219.7670 Cl  0  0  0  0  0  0  0  0  0  0  0  0
  142.2290   80.6670  219.0160 C   0  0  0  0  0  0  0  0  0  0  0  0
  142.4760   79.3160  218.8300 C   0  0  0  0  0  0  0  0  0  0  0  0
  140.1230   77.0120  222.4650 C   0  0  0  0  0  0  0  0  0  0  0  0
  139.0170   77.7840  222.7510 C   0  0  0  0  0  0  0  0  0  0  0  0
  139.2440   79.1100  223.1250 C   0  0  0  0  0  0  0  0  0  0  0  0
  140.5390   79.6230  223.2040 C   0  0  0  0  0  0  0  0  0  0  0  0
  140.7830   80.9300  223.5730 C   0  0  0  0  0  0  0  0  0  0  0  0
  142.0820   81.4170  223.6430 C   0  0  0  0  0  0  0  0  0  0  0  0
  143.1610   80.5800  223.3400 C   0  0  0  0  0  0  0  0  0  0  0  0
  142.9290   79.2690  222.9700 C   0  0  0  0  0  0  0  0  0  0  0  0
  141.6130   78.7980  222.9050 C   0  0  0  0  0  0  0  0  0  0  0  0
  141.3540   77.5360  222.5500 N   0  0  0  0  0  0  0  0  0  0  0  0
  142.0170   75.2910  221.8670 H   0  0  0  0  0  0  0  0  0  0  0  0
  140.6585   72.8786  222.2842 H   0  0  0  0  0  0  0  0  0  0  0  0
  140.2879   73.4617  220.5392 H   0  0  0  0  0  0  0  0  0  0  0  0
  144.1058   71.7260  219.0892 H   0  0  0  0  0  0  0  0  0  0  0  0
  143.6983   73.2037  218.1859 H   0  0  0  0  0  0  0  0  0  0  0  0
  146.2306   72.5090  219.4333 H   0  0  0  0  0  0  0  0  0  0  0  0
  145.8778   73.9794  218.5486 H   0  0  0  0  0  0  0  0  0  0  0  0
  145.6177   73.3936  221.5225 H   0  0  0  0  0  0  0  0  0  0  0  0
  146.1172   74.8952  220.7817 H   0  0  0  0  0  0  0  0  0  0  0  0
  143.6165   74.8957  221.6505 H   0  0  0  0  0  0  0  0  0  0  0  0
  144.5913   76.3372  219.7658 H   0  0  0  0  0  0  0  0  0  0  0  0
  143.6822   75.2203  218.6888 H   0  0  0  0  0  0  0  0  0  0  0  0
  142.5920   76.8970  220.8850 H   0  0  0  0  0  0  0  0  0  0  0  0
  142.5134   76.8940  218.0516 H   0  0  0  0  0  0  0  0  0  0  0  0
  140.9088   76.4242  218.8161 H   0  0  0  0  0  0  0  0  0  0  0  0
  139.5764   78.0886  219.9670 H   0  0  0  0  0  0  0  0  0  0  0  0
  139.1180   80.4829  220.3061 H   0  0  0  0  0  0  0  0  0  0  0  0
  143.0013   81.3992  218.7378 H   0  0  0  0  0  0  0  0  0  0  0  0
  143.4390   78.9933  218.4076 H   0  0  0  0  0  0  0  0  0  0  0  0
  137.9988   77.3727  222.6873 H   0  0  0  0  0  0  0  0  0  0  0  0
  138.3886   79.7601  223.3610 H   0  0  0  0  0  0  0  0  0  0  0  0
  139.9396   81.5936  223.8144 H   0  0  0  0  0  0  0  0  0  0  0  0
  142.2623   82.4616  223.9369 H   0  0  0  0  0  0  0  0  0  0  0  0
  144.1903   80.9640  223.3960 H   0  0  0  0  0  0  0  0  0  0  0  0
  143.7702   78.6025  222.7290 H   0  0  0  0  0  0  0  0  0  0  0  0
  1  2  2  0
  2  3  1  0
  3  4  1  0
  4  5  1  0
  5  6  2  0
  5  7  1  0
  7  8  1  0
  8  9  1  0
  9 10  1  0
 10 11  1  0
 11 12  1  0
 12 13  1  0
 13 14  1  0
 14 15  1  0
 15 16  2  0
 16 17  1  0
 17 18  2  0
 18 19  1  0
 18 20  1  0
 20 21  2  0
  2 22  1  0
 22 23  2  0
 23 24  1  0
 24 25  2  0
 25 26  1  0
 26 27  2  0
 27 28  1  0
 28 29  2  0
 29 30  1  0
 30 31  2  0
 11  7  1  0
 21 15  1  0
 31 22  1  0
 30 25  1  0
  3 32  1  0
  4 33  1  0
  4 34  1  0
  8 35  1  0
  8 36  1  0
  9 37  1  0
  9 38  1  0
 10 39  1  0
 10 40  1  0
 11 41  1  1
 12 42  1  0
 12 43  1  0
 13 44  1  0
 14 45  1  0
 14 46  1  0
 16 47  1  0
 17 48  1  0
 20 49  1  0
 21 50  1  0
 23 51  1  0
 24 52  1  0
 26 53  1  0
 27 54  1  0
 28 55  1  0
 29 56  1  0
M  END
>  <smiles>  (5) 
O=C(NCC(=O)N1CCC[C@H]1CNCc1ccc(Cl)cc1)c1ccc2ccccc2n1

>  <score_type>  (5) 
oracle

>  <origin>  (5) 
autodockgpu

>  <m_score__min__energy>  (5) 
-8.8800000000000008

>  <m_primary>  (5) 
energy

>  <rmsd>  (5) 
6.824706097776725

>  <m_score__min__rmsd>  (5) 
6.824706097776725

>  <meeko>  (5) 
{"free_energy": -7.25, "intermolecular_energy": -9.63, "internal_energy": -4.82, "cluster_size": 23, "cluster_id": 5, "rank_in_cluster": 11}

>  <energy>  (5) 
-8.28

>  <cluster_rmsd>  (5) 
1.93

>  <cluster>  (5) 
3

$$$$

     RDKit          3D

 56 59  0  0  0  0  0  0  0  0999 V2000
  138.5780   75.5060  222.1580 O   0  0  0  0  0  0  0  0  0  0  0  0
  139.7820   75.9330  222.2210 C   0  0  0  0  0  0  0  0  0  0  0  0
  140.8860   75.0730  221.8850 N   0  0  0  0  0  0  0  0  0  0  0  0
  140.7120   73.7260  221.4810 C   0  0  0  0  0  0  0  0  0  0  0  0
  141.4270   73.2260  220.3210 C   0  0  0  0  0  0  0  0  0  0  0  0
  141.1850   71.9840  220.0250 O   0  0  0  0  0  0  0  0  0  0  0  0
  142.3330   73.8820  219.4730 N   0  0  0  0  0  0  0  0  0  0  0  0
  142.2210   74.3760  218.1140 C   0  0  0  0  0  0  0  0  0  0  0  0
  143.6150   74.3450  217.5100 C   0  0  0  0  0  0  0  0  0  0  0  0
  144.4570   73.7870  218.6230 C   0  0  0  0  0  0  0  0  0  0  0  0
  143.7120   74.2260  219.8450 C   0  0  1  0  0  0  0  0  0  0  0  0
  143.8730   75.7100  220.0680 C   0  0  0  0  0  0  0  0  0  0  0  0
  142.5940   76.3320  220.1030 N   0  0  0  0  0  0  0  0  0  0  0  0
  142.2890   77.2300  219.0350 C   0  0  0  0  0  0  0  0  0  0  0  0
  141.5770   78.4580  219.4370 C   0  0  0  0  0  0  0  0  0  0  0  0
  142.1690   79.6720  219.6610 C   0  0  0  0  0  0  0  0  0  0  0  0
  141.4510   80.7930  220.0370 C   0  0  0  0  0  0  0  0  0  0  0  0
  140.0810   80.7140  220.2010 C   0  0  0  0  0  0  0  0  0  0  0  0
  139.1160   82.1110  220.6800 Cl  0  0  0  0  0  0  0  0  0  0  0  0
  139.4740   79.4940  219.9770 C   0  0  0  0  0  0  0  0  0  0  0  0
  140.2090   78.3800  219.6000 C   0  0  0  0  0  0  0  0  0  0  0  0
  140.0460   77.3140  222.6400 C   0  0  0  0  0  0  0  0  0  0  0  0
  138.9860   78.1180  223.0040 C   0  0  0  0  0  0  0  0  0  0  0  0
  139.2820   79.4260  223.3950 C   0  0  0  0  0  0  0  0  0  0  0  0
  140.5980   79.8900  223.4140 C   0  0  0  0  0  0  0  0  0  0  0  0
  140.9100   81.1780  223.7990 C   0  0  0  0  0  0  0  0  0  0  0  0
  142.2280   81.6150  223.8090 C   0  0  0  0  0  0  0  0  0  0  0  0
  143.2570   80.7470  223.4280 C   0  0  0  0  0  0  0  0  0  0  0  0
  142.9570   79.4560  223.0420 C   0  0  0  0  0  0  0  0  0  0  0  0
  141.6230   79.0340  223.0380 C   0  0  0  0  0  0  0  0  0  0  0  0
  141.2980   77.7910  222.6700 N   0  0  0  0  0  0  0  0  0  0  0  0
  141.8440   75.5220  221.9600 H   0  0  0  0  0  0  0  0  0  0  0  0
  141.0069   73.0965  222.3335 H   0  0  0  0  0  0  0  0  0  0  0  0
  139.6578   73.6856  221.1696 H   0  0  0  0  0  0  0  0  0  0  0  0
  141.5440   73.7323  217.5333 H   0  0  0  0  0  0  0  0  0  0  0  0
  141.8119   75.3970  218.1014 H   0  0  0  0  0  0  0  0  0  0  0  0
  143.6474   73.6924  216.6251 H   0  0  0  0  0  0  0  0  0  0  0  0
  143.9571   75.3307  217.1617 H   0  0  0  0  0  0  0  0  0  0  0  0
  144.5152   72.6900  218.5657 H   0  0  0  0  0  0  0  0  0  0  0  0
  145.5010   74.1327  218.5984 H   0  0  0  0  0  0  0  0  0  0  0  0
  144.0521   73.7623  220.7827 H   0  0  0  0  0  0  0  0  0  0  0  0
  144.3894   75.8821  221.0239 H   0  0  0  0  0  0  0  0  0  0  0  0
  144.4642   76.1395  219.2458 H   0  0  0  0  0  0  0  0  0  0  0  0
  142.3220   76.6990  221.0430 H   0  0  0  0  0  0  0  0  0  0  0  0
  143.2346   77.5249  218.5566 H   0  0  0  0  0  0  0  0  0  0  0  0
  141.6095   76.6872  218.3615 H   0  0  0  0  0  0  0  0  0  0  0  0
  143.2585   79.7594  219.5371 H   0  0  0  0  0  0  0  0  0  0  0  0
  141.9707   81.7477  220.2055 H   0  0  0  0  0  0  0  0  0  0  0  0
  138.3846   79.4039  220.1002 H   0  0  0  0  0  0  0  0  0  0  0  0
  139.6952   77.4226  219.4288 H   0  0  0  0  0  0  0  0  0  0  0  0
  137.9513   77.7450  222.9871 H   0  0  0  0  0  0  0  0  0  0  0  0
  138.4655   80.1004  223.6924 H   0  0  0  0  0  0  0  0  0  0  0  0
  140.1063   81.8656  224.1011 H   0  0  0  0  0  0  0  0  0  0  0  0
  142.4633   82.6445  224.1168 H   0  0  0  0  0  0  0  0  0  0  0  0
  144.3014   81.0921  223.4360 H   0  0  0  0  0  0  0  0  0  0  0  0
  143.7588   78.7659  222.7406 H   0  0  0  0  0  0  0  0  0  0  0  0
  1  2  2  0
  2  3  1  0
  3  4  1  0
  4  5  1  0
  5  6  2  0
  5  7  1  0
  7  8  1  0
  8  9  1  0
  9 10  1  0
 10 11  1  0
 11 12  1  0
 12 13  1  0
 13 14  1  0
 14 15  1  0
 15 16  2  0
 16 17  1  0
 17 18  2  0
 18 19  1  0
 18 20  1  0
 20 21  2  0
  2 22  1  0
 22 23  2  0
 23 24  1  0
 24 25  2  0
 25 26  1  0
 26 27  2  0
 27 28  1  0
 28 29  2  0
 29 30  1  0
 30 31  2  0
 11  7  1  0
 21 15  1  0
 31 22  1  0
 30 25  1  0
  3 32  1  0
  4 33  1  0
  4 34  1  0
  8 35  1  0
  8 36  1  0
  9 37  1  0
  9 38  1  0
 10 39  1  0
 10 40  1  0
 11 41  1  1
 12 42  1  0
 12 43  1  0
 13 44  1  0
 14 45  1  0
 14 46  1  0
 16 47  1  0
 17 48  1  0
 20 49  1  0
 21 50  1  0
 23 51  1  0
 24 52  1  0
 26 53  1  0
 27 54  1  0
 28 55  1  0
 29 56  1  0
M  END
>  <smiles>  (6) 
O=C(NCC(=O)N1CCC[C@H]1CNCc1ccc(Cl)cc1)c1ccc2ccccc2n1

>  <score_type>  (6) 
oracle

>  <origin>  (6) 
autodockgpu

>  <m_score__min__energy>  (6) 
-8.8800000000000008

>  <m_primary>  (6) 
energy

>  <rmsd>  (6) 
6.719743449691297

>  <m_score__min__rmsd>  (6) 
6.719743449691297

>  <meeko>  (6) 
{"free_energy": -6.26, "intermolecular_energy": -8.65, "internal_energy": -4.88, "cluster_size": 23, "cluster_id": 5, "rank_in_cluster": 22}

>  <energy>  (6) 
-7.91

>  <cluster_rmsd>  (6) 
0.95

>  <cluster>  (6) 
3

$$$$

     RDKit          3D

 56 59  0  0  0  0  0  0  0  0999 V2000
  139.2710   73.9260  222.2270 O   0  0  0  0  0  0  0  0  0  0  0  0
  140.3250   74.5520  221.8650 C   0  0  0  0  0  0  0  0  0  0  0  0
  140.4080   75.9840  221.9850 N   0  0  0  0  0  0  0  0  0  0  0  0
  139.3460   76.7730  222.4930 C   0  0  0  0  0  0  0  0  0  0  0  0
  139.5250   78.2050  222.6460 C   0  0  0  0  0  0  0  0  0  0  0  0
  138.4230   78.8960  222.6490 O   0  0  0  0  0  0  0  0  0  0  0  0
  140.7040   78.9520  222.7960 N   0  0  0  0  0  0  0  0  0  0  0  0
  141.8310   78.8330  223.7010 C   0  0  0  0  0  0  0  0  0  0  0  0
  142.4150   80.2250  223.8740 C   0  0  0  0  0  0  0  0  0  0  0  0
  141.5180   81.0800  223.0250 C   0  0  0  0  0  0  0  0  0  0  0  0
  141.0520   80.1200  221.9750 C   0  0  1  0  0  0  0  0  0  0  0  0
  142.1640   79.8050  221.0040 C   0  0  0  0  0  0  0  0  0  0  0  0
  142.2010   78.4050  220.7550 N   0  0  0  0  0  0  0  0  0  0  0  0
  141.2970   77.9070  219.7670 C   0  0  0  0  0  0  0  0  0  0  0  0
  141.8080   76.7760  218.9680 C   0  0  0  0  0  0  0  0  0  0  0  0
  141.0510   75.7300  218.5140 C   0  0  0  0  0  0  0  0  0  0  0  0
  141.5840   74.6940  217.7670 C   0  0  0  0  0  0  0  0  0  0  0  0
  142.9290   74.6890  217.4520 C   0  0  0  0  0  0  0  0  0  0  0  0
  143.6620   73.3950  216.5040 Cl  0  0  0  0  0  0  0  0  0  0  0  0
  143.7020   75.7400  217.9060 C   0  0  0  0  0  0  0  0  0  0  0  0
  143.1520   76.7710  218.6530 C   0  0  0  0  0  0  0  0  0  0  0  0
  141.4650   73.8070  221.3200 C   0  0  0  0  0  0  0  0  0  0  0  0
  141.2810   72.5030  220.9120 C   0  0  0  0  0  0  0  0  0  0  0  0
  142.3930   71.8310  220.4000 C   0  0  0  0  0  0  0  0  0  0  0  0
  143.6340   72.4610  220.3100 C   0  0  0  0  0  0  0  0  0  0  0  0
  144.7450   71.8140  219.8070 C   0  0  0  0  0  0  0  0  0  0  0  0
  145.9690   72.4640  219.7280 C   0  0  0  0  0  0  0  0  0  0  0  0
  146.0890   73.7890  220.1590 C   0  0  0  0  0  0  0  0  0  0  0  0
  144.9840   74.4470  220.6640 C   0  0  0  0  0  0  0  0  0  0  0  0
  143.7590   73.7760  220.7360 C   0  0  0  0  0  0  0  0  0  0  0  0
  142.6720   74.3830  221.2190 N   0  0  0  0  0  0  0  0  0  0  0  0
  141.3260   76.4090  221.6670 H   0  0  0  0  0  0  0  0  0  0  0  0
  138.4898   76.6287  221.8177 H   0  0  0  0  0  0  0  0  0  0  0  0
  139.2334   76.4164  223.5275 H   0  0  0  0  0  0  0  0  0  0  0  0
  141.4949   78.4416  224.6725 H   0  0  0  0  0  0  0  0  0  0  0  0
  142.5844   78.1399  223.2985 H   0  0  0  0  0  0  0  0  0  0  0  0
  142.3791   80.5399  224.9273 H   0  0  0  0  0  0  0  0  0  0  0  0
  143.4740   80.2883  223.5831 H   0  0  0  0  0  0  0  0  0  0  0  0
  140.6721   81.4709  223.6095 H   0  0  0  0  0  0  0  0  0  0  0  0
  142.0200   81.9685  222.6144 H   0  0  0  0  0  0  0  0  0  0  0  0
  140.2270   80.4885  221.3476 H   0  0  0  0  0  0  0  0  0  0  0  0
  141.9868   80.3398  220.0592 H   0  0  0  0  0  0  0  0  0  0  0  0
  143.1247   80.1239  221.4345 H   0  0  0  0  0  0  0  0  0  0  0  0
  142.2370   77.8170  221.6180 H   0  0  0  0  0  0  0  0  0  0  0  0
  140.3805   77.5772  220.2782 H   0  0  0  0  0  0  0  0  0  0  0  0
  141.1293   78.7325  219.0595 H   0  0  0  0  0  0  0  0  0  0  0  0
  139.9772   75.7121  218.7521 H   0  0  0  0  0  0  0  0  0  0  0  0
  140.9361   73.8739  217.4238 H   0  0  0  0  0  0  0  0  0  0  0  0
  144.7762   75.7596  217.6701 H   0  0  0  0  0  0  0  0  0  0  0  0
  143.7943   77.5944  218.9985 H   0  0  0  0  0  0  0  0  0  0  0  0
  140.2993   72.0124  220.9866 H   0  0  0  0  0  0  0  0  0  0  0  0
  142.2885   70.7892  220.0626 H   0  0  0  0  0  0  0  0  0  0  0  0
  144.6593   70.7720  219.4651 H   0  0  0  0  0  0  0  0  0  0  0  0
  146.8461   71.9359  219.3257 H   0  0  0  0  0  0  0  0  0  0  0  0
  147.0585   74.3049  220.0963 H   0  0  0  0  0  0  0  0  0  0  0  0
  145.0670   75.4891  221.0063 H   0  0  0  0  0  0  0  0  0  0  0  0
  1  2  2  0
  2  3  1  0
  3  4  1  0
  4  5  1  0
  5  6  2  0
  5  7  1  0
  7  8  1  0
  8  9  1  0
  9 10  1  0
 10 11  1  0
 11 12  1  0
 12 13  1  0
 13 14  1  0
 14 15  1  0
 15 16  2  0
 16 17  1  0
 17 18  2  0
 18 19  1  0
 18 20  1  0
 20 21  2  0
  2 22  1  0
 22 23  2  0
 23 24  1  0
 24 25  2  0
 25 26  1  0
 26 27  2  0
 27 28  1  0
 28 29  2  0
 29 30  1  0
 30 31  2  0
 11  7  1  0
 21 15  1  0
 31 22  1  0
 30 25  1  0
  3 32  1  0
  4 33  1  0
  4 34  1  0
  8 35  1  0
  8 36  1  0
  9 37  1  0
  9 38  1  0
 10 39  1  0
 10 40  1  0
 11 41  1  6
 12 42  1  0
 12 43  1  0
 13 44  1  0
 14 45  1  0
 14 46  1  0
 16 47  1  0
 17 48  1  0
 20 49  1  0
 21 50  1  0
 23 51  1  0
 24 52  1  0
 26 53  1  0
 27 54  1  0
 28 55  1  0
 29 56  1  0
M  END
>  <smiles>  (7) 
O=C(NCC(=O)N1CCC[C@H]1CNCc1ccc(Cl)cc1)c1ccc2ccccc2n1

>  <score_type>  (7) 
oracle

>  <origin>  (7) 
autodockgpu

>  <m_score__min__energy>  (7) 
-8.8800000000000008

>  <m_primary>  (7) 
energy

>  <rmsd>  (7) 
6.483589319927115

>  <m_score__min__rmsd>  (7) 
6.483589319927115

>  <meeko>  (7) 
{"free_energy": -6.21, "intermolecular_energy": -8.6, "internal_energy": -4.15, "cluster_size": 1, "cluster_id": 8, "rank_in_cluster": 1}

>  <energy>  (7) 
-7.89

>  <cluster_rmsd>  (7) 
1.7

>  <cluster>  (7) 
3

$$$$

     RDKit          3D

 56 59  0  0  0  0  0  0  0  0999 V2000
  138.6300   75.4940  221.7790 O   0  0  0  0  0  0  0  0  0  0  0  0
  139.8280   75.8880  221.9860 C   0  0  0  0  0  0  0  0  0  0  0  0
  140.9430   75.0080  221.7530 N   0  0  0  0  0  0  0  0  0  0  0  0
  140.7850   73.6760  221.2980 C   0  0  0  0  0  0  0  0  0  0  0  0
  141.9460   72.9270  220.8510 C   0  0  0  0  0  0  0  0  0  0  0  0
  141.9630   71.6790  221.2140 O   0  0  0  0  0  0  0  0  0  0  0  0
  143.0460   73.3470  220.0860 N   0  0  0  0  0  0  0  0  0  0  0  0
  143.4240   73.1160  218.7050 C   0  0  0  0  0  0  0  0  0  0  0  0
  144.9390   73.1990  218.6360 C   0  0  0  0  0  0  0  0  0  0  0  0
  145.3320   73.4660  220.0620 C   0  0  0  0  0  0  0  0  0  0  0  0
  144.1360   74.1880  220.5980 C   0  0  1  0  0  0  0  0  0  0  0  0
  144.0610   75.5910  220.0450 C   0  0  0  0  0  0  0  0  0  0  0  0
  142.7240   76.0700  220.1300 N   0  0  0  0  0  0  0  0  0  0  0  0
  142.2150   76.7510  218.9830 C   0  0  0  0  0  0  0  0  0  0  0  0
  141.4660   77.9890  219.2750 C   0  0  0  0  0  0  0  0  0  0  0  0
  140.1030   78.0790  219.3680 C   0  0  0  0  0  0  0  0  0  0  0  0
  139.4520   79.2680  219.6440 C   0  0  0  0  0  0  0  0  0  0  0  0
  140.1810   80.4260  219.8380 C   0  0  0  0  0  0  0  0  0  0  0  0
  139.4040   81.9690  220.1920 Cl  0  0  0  0  0  0  0  0  0  0  0  0
  141.5570   80.3460  219.7460 C   0  0  0  0  0  0  0  0  0  0  0  0
  142.1930   79.1460  219.4690 C   0  0  0  0  0  0  0  0  0  0  0  0
  140.0750   77.2520  222.4690 C   0  0  0  0  0  0  0  0  0  0  0  0
  139.0030   78.0330  222.8460 C   0  0  0  0  0  0  0  0  0  0  0  0
  139.2820   79.3250  223.2970 C   0  0  0  0  0  0  0  0  0  0  0  0
  140.5950   79.7950  223.3610 C   0  0  0  0  0  0  0  0  0  0  0  0
  140.8910   81.0680  223.8050 C   0  0  0  0  0  0  0  0  0  0  0  0
  142.2050   81.5130  223.8580 C   0  0  0  0  0  0  0  0  0  0  0  0
  143.2480   80.6680  223.4600 C   0  0  0  0  0  0  0  0  0  0  0  0
  142.9630   79.3920  223.0150 C   0  0  0  0  0  0  0  0  0  0  0  0
  141.6320   78.9630  222.9690 C   0  0  0  0  0  0  0  0  0  0  0  0
  141.3230   77.7350  222.5420 N   0  0  0  0  0  0  0  0  0  0  0  0
  141.8960   75.4310  221.9460 H   0  0  0  0  0  0  0  0  0  0  0  0
  140.3374   73.1068  222.1260 H   0  0  0  0  0  0  0  0  0  0  0  0
  140.1835   73.7868  220.3837 H   0  0  0  0  0  0  0  0  0  0  0  0
  143.0857   72.1201  218.3829 H   0  0  0  0  0  0  0  0  0  0  0  0
  142.9608   73.8620  218.0426 H   0  0  0  0  0  0  0  0  0  0  0  0
  145.3703   72.2524  218.2783 H   0  0  0  0  0  0  0  0  0  0  0  0
  145.2981   73.9691  217.9375 H   0  0  0  0  0  0  0  0  0  0  0  0
  145.5076   72.5275  220.6083 H   0  0  0  0  0  0  0  0  0  0  0  0
  146.2680   74.0355  220.1595 H   0  0  0  0  0  0  0  0  0  0  0  0
  144.1283   74.3162  221.6905 H   0  0  0  0  0  0  0  0  0  0  0  0
  144.7227   76.2492  220.6272 H   0  0  0  0  0  0  0  0  0  0  0  0
  144.3790   75.5846  218.9920 H   0  0  0  0  0  0  0  0  0  0  0  0
  142.4990   76.5480  221.0320 H   0  0  0  0  0  0  0  0  0  0  0  0
  143.0651   77.0110  218.3352 H   0  0  0  0  0  0  0  0  0  0  0  0
  141.4996   76.0630  218.5088 H   0  0  0  0  0  0  0  0  0  0  0  0
  139.5019   77.1701  219.2173 H   0  0  0  0  0  0  0  0  0  0  0  0
  138.3542   79.2918  219.7091 H   0  0  0  0  0  0  0  0  0  0  0  0
  142.1605   81.2534  219.8957 H   0  0  0  0  0  0  0  0  0  0  0  0
  143.2906   79.1155  219.4030 H   0  0  0  0  0  0  0  0  0  0  0  0
  137.9715   77.6544  222.7937 H   0  0  0  0  0  0  0  0  0  0  0  0
  138.4554   79.9816  223.6062 H   0  0  0  0  0  0  0  0  0  0  0  0
  140.0769   81.7372  224.1203 H   0  0  0  0  0  0  0  0  0  0  0  0
  142.4268   82.5302  224.2130 H   0  0  0  0  0  0  0  0  0  0  0  0
  144.2897   81.0188  223.5016 H   0  0  0  0  0  0  0  0  0  0  0  0
  143.7745   78.7196  222.6998 H   0  0  0  0  0  0  0  0  0  0  0  0
  1  2  2  0
  2  3  1  0
  3  4  1  0
  4  5  1  0
  5  6  2  0
  5  7  1  0
  7  8  1  0
  8  9  1  0
  9 10  1  0
 10 11  1  0
 11 12  1  0
 12 13  1  0
 13 14  1  0
 14 15  1  0
 15 16  2  0
 16 17  1  0
 17 18  2  0
 18 19  1  0
 18 20  1  0
 20 21  2  0
  2 22  1  0
 22 23  2  0
 23 24  1  0
 24 25  2  0
 25 26  1  0
 26 27  2  0
 27 28  1  0
 28 29  2  0
 29 30  1  0
 30 31  2  0
 11  7  1  0
 21 15  1  0
 31 22  1  0
 30 25  1  0
  3 32  1  0
  4 33  1  0
  4 34  1  0
  8 35  1  0
  8 36  1  0
  9 37  1  0
  9 38  1  0
 10 39  1  0
 10 40  1  0
 11 41  1  1
 12 42  1  0
 12 43  1  0
 13 44  1  0
 14 45  1  0
 14 46  1  0
 16 47  1  0
 17 48  1  0
 20 49  1  0
 21 50  1  0
 23 51  1  0
 24 52  1  0
 26 53  1  0
 27 54  1  0
 28 55  1  0
 29 56  1  0
M  END
>  <smiles>  (8) 
O=C(NCC(=O)N1CCC[C@H]1CNCc1ccc(Cl)cc1)c1ccc2ccccc2n1

>  <score_type>  (8) 
oracle

>  <origin>  (8) 
autodockgpu

>  <m_score__min__energy>  (8) 
-8.8800000000000008

>  <m_primary>  (8) 
energy

>  <rmsd>  (8) 
6.84402416021911

>  <m_score__min__rmsd>  (8) 
6.84402416021911

>  <meeko>  (8) 
{"free_energy": -6.87, "intermolecular_energy": -9.25, "internal_energy": -4.9, "cluster_size": 23, "cluster_id": 5, "rank_in_cluster": 20}

>  <energy>  (8) 
-8.33

>  <cluster_rmsd>  (8) 
0.0

>  <cluster>  (8) 
4

$$$$

     RDKit          3D

 56 59  0  0  0  0  0  0  0  0999 V2000
  141.7400   78.8690  216.7590 O   0  0  0  0  0  0  0  0  0  0  0  0
  142.2730   78.4440  217.8410 C   0  0  0  0  0  0  0  0  0  0  0  0
  142.4260   79.3140  218.9770 N   0  0  0  0  0  0  0  0  0  0  0  0
  142.0140   80.6700  218.9650 C   0  0  0  0  0  0  0  0  0  0  0  0
  141.4060   81.2460  220.1510 C   0  0  0  0  0  0  0  0  0  0  0  0
  140.6560   82.2850  219.9290 O   0  0  0  0  0  0  0  0  0  0  0  0
  141.5020   80.8480  221.4940 N   0  0  0  0  0  0  0  0  0  0  0  0
  140.7780   81.2420  222.6870 C   0  0  0  0  0  0  0  0  0  0  0  0
  141.7140   81.0390  223.8660 C   0  0  0  0  0  0  0  0  0  0  0  0
  142.9750   80.5370  223.2190 C   0  0  0  0  0  0  0  0  0  0  0  0
  142.4590   79.8520  221.9930 C   0  0  1  0  0  0  0  0  0  0  0  0
  141.7740   78.5550  222.3500 C   0  0  0  0  0  0  0  0  0  0  0  0
  141.6840   77.7260  221.1970 N   0  0  0  0  0  0  0  0  0  0  0  0
  140.4600   77.0130  221.0160 C   0  0  0  0  0  0  0  0  0  0  0  0
  140.6140   75.5770  220.7130 C   0  0  0  0  0  0  0  0  0  0  0  0
  141.0900   74.6360  221.5870 C   0  0  0  0  0  0  0  0  0  0  0  0
  141.2140   73.3010  221.2480 C   0  0  0  0  0  0  0  0  0  0  0  0
  140.8510   72.8700  219.9860 C   0  0  0  0  0  0  0  0  0  0  0  0
  140.9890   71.1800  219.5010 Cl  0  0  0  0  0  0  0  0  0  0  0  0
  140.3700   73.8120  219.0970 C   0  0  0  0  0  0  0  0  0  0  0  0
  140.2520   75.1460  219.4530 C   0  0  0  0  0  0  0  0  0  0  0  0
  142.7350   77.0550  217.9300 C   0  0  0  0  0  0  0  0  0  0  0  0
  142.6090   76.2350  216.8280 C   0  0  0  0  0  0  0  0  0  0  0  0
  143.0600   74.9190  216.9560 C   0  0  0  0  0  0  0  0  0  0  0  0
  143.6150   74.4640  218.1530 C   0  0  0  0  0  0  0  0  0  0  0  0
  144.0670   73.1680  218.2980 C   0  0  0  0  0  0  0  0  0  0  0  0
  144.6150   72.7390  219.5000 C   0  0  0  0  0  0  0  0  0  0  0  0
  144.7150   73.6230  220.5800 C   0  0  0  0  0  0  0  0  0  0  0  0
  144.2660   74.9220  220.4460 C   0  0  0  0  0  0  0  0  0  0  0  0
  143.7170   75.3350  219.2270 C   0  0  0  0  0  0  0  0  0  0  0  0
  143.2730   76.5850  219.0640 N   0  0  0  0  0  0  0  0  0  0  0  0
  142.8720   78.8660  219.8290 H   0  0  0  0  0  0  0  0  0  0  0  0
  142.9059   81.2727  218.7386 H   0  0  0  0  0  0  0  0  0  0  0  0
  141.1994   80.6845  218.2259 H   0  0  0  0  0  0  0  0  0  0  0  0
  140.4831   82.2994  222.6172 H   0  0  0  0  0  0  0  0  0  0  0  0
  139.8636   80.6421  222.8057 H   0  0  0  0  0  0  0  0  0  0  0  0
  141.8924   81.9862  224.3960 H   0  0  0  0  0  0  0  0  0  0  0  0
  141.3124   80.3489  224.6226 H   0  0  0  0  0  0  0  0  0  0  0  0
  143.6458   81.3686  222.9572 H   0  0  0  0  0  0  0  0  0  0  0  0
  143.5709   79.8806  223.8702 H   0  0  0  0  0  0  0  0  0  0  0  0
  143.2331   79.5702  221.2641 H   0  0  0  0  0  0  0  0  0  0  0  0
  142.3543   78.0373  223.1280 H   0  0  0  0  0  0  0  0  0  0  0  0
  140.7620   78.7689  222.7243 H   0  0  0  0  0  0  0  0  0  0  0  0
  142.5340   77.1430  221.0220 H   0  0  0  0  0  0  0  0  0  0  0  0
  139.8712   77.1055  221.9406 H   0  0  0  0  0  0  0  0  0  0  0  0
  139.9696   77.4614  220.1394 H   0  0  0  0  0  0  0  0  0  0  0  0
  141.3851   74.9545  222.5977 H   0  0  0  0  0  0  0  0  0  0  0  0
  141.6021   72.5812  221.9837 H   0  0  0  0  0  0  0  0  0  0  0  0
  140.0745   73.4964  218.0855 H   0  0  0  0  0  0  0  0  0  0  0  0
  139.8648   75.8708  218.7218 H   0  0  0  0  0  0  0  0  0  0  0  0
  142.1717   76.6019  215.8877 H   0  0  0  0  0  0  0  0  0  0  0  0
  142.9765   74.2317  216.1012 H   0  0  0  0  0  0  0  0  0  0  0  0
  143.9925   72.4677  217.4530 H   0  0  0  0  0  0  0  0  0  0  0  0
  144.9708   71.7032  219.6030 H   0  0  0  0  0  0  0  0  0  0  0  0
  145.1496   73.2845  221.5321 H   0  0  0  0  0  0  0  0  0  0  0  0
  144.3392   75.6249  221.2890 H   0  0  0  0  0  0  0  0  0  0  0  0
  1  2  2  0
  2  3  1  0
  3  4  1  0
  4  5  1  0
  5  6  2  0
  5  7  1  0
  7  8  1  0
  8  9  1  0
  9 10  1  0
 10 11  1  0
 11 12  1  0
 12 13  1  0
 13 14  1  0
 14 15  1  0
 15 16  2  0
 16 17  1  0
 17 18  2  0
 18 19  1  0
 18 20  1  0
 20 21  2  0
  2 22  1  0
 22 23  2  0
 23 24  1  0
 24 25  2  0
 25 26  1  0
 26 27  2  0
 27 28  1  0
 28 29  2  0
 29 30  1  0
 30 31  2  0
 11  7  1  0
 21 15  1  0
 31 22  1  0
 30 25  1  0
  3 32  1  0
  4 33  1  0
  4 34  1  0
  8 35  1  0
  8 36  1  0
  9 37  1  0
  9 38  1  0
 10 39  1  0
 10 40  1  0
 11 41  1  6
 12 42  1  0
 12 43  1  0
 13 44  1  0
 14 45  1  0
 14 46  1  0
 16 47  1  0
 17 48  1  0
 20 49  1  0
 21 50  1  0
 23 51  1  0
 24 52  1  0
 26 53  1  0
 27 54  1  0
 28 55  1  0
 29 56  1  0
M  END
>  <smiles>  (9) 
O=C(NCC(=O)N1CCC[C@H]1CNCc1ccc(Cl)cc1)c1ccc2ccccc2n1

>  <score_type>  (9) 
oracle

>  <origin>  (9) 
autodockgpu

>  <m_score__min__energy>  (9) 
-8.8800000000000008

>  <m_primary>  (9) 
energy

>  <rmsd>  (9) 
8.076194703982285

>  <m_score__min__rmsd>  (9) 
8.076194703982285

>  <meeko>  (9) 
{"free_energy": -5.81, "intermolecular_energy": -8.2, "internal_energy": -5.0, "cluster_size": 6, "cluster_id": 6, "rank_in_cluster": 5}

>  <energy>  (9) 
-8.0

>  <cluster_rmsd>  (9) 
1.95

>  <cluster>  (9) 
4

$$$$

     RDKit          3D

 56 59  0  0  0  0  0  0  0  0999 V2000
  140.6960   73.4390  222.3430 O   0  0  0  0  0  0  0  0  0  0  0  0
  140.5760   72.1660  222.3330 C   0  0  0  0  0  0  0  0  0  0  0  0
  140.7050   71.4250  221.1060 N   0  0  0  0  0  0  0  0  0  0  0  0
  140.9570   72.0470  219.8580 C   0  0  0  0  0  0  0  0  0  0  0  0
  141.9170   73.1330  219.7780 C   0  0  0  0  0  0  0  0  0  0  0  0
  143.0980   72.8520  220.2420 O   0  0  0  0  0  0  0  0  0  0  0  0
  141.7620   74.4330  219.2710 N   0  0  0  0  0  0  0  0  0  0  0  0
  140.7450   75.0460  218.4380 C   0  0  0  0  0  0  0  0  0  0  0  0
  141.4130   76.1770  217.6770 C   0  0  0  0  0  0  0  0  0  0  0  0
  142.8400   76.1090  218.1430 C   0  0  0  0  0  0  0  0  0  0  0  0
  142.7040   75.5330  219.5180 C   0  0  1  0  0  0  0  0  0  0  0  0
  142.1310   76.5520  220.4730 C   0  0  0  0  0  0  0  0  0  0  0  0
  141.4300   75.8890  221.5180 N   0  0  0  0  0  0  0  0  0  0  0  0
  140.5740   76.6970  222.3270 C   0  0  0  0  0  0  0  0  0  0  0  0
  140.7110   78.1520  222.1190 C   0  0  0  0  0  0  0  0  0  0  0  0
  139.9880   78.8870  221.2180 C   0  0  0  0  0  0  0  0  0  0  0  0
  140.1570   80.2510  221.0630 C   0  0  0  0  0  0  0  0  0  0  0  0
  141.0860   80.9250  221.8340 C   0  0  0  0  0  0  0  0  0  0  0  0
  141.3440   82.6620  221.6790 Cl  0  0  0  0  0  0  0  0  0  0  0  0
  141.8210   80.1920  222.7460 C   0  0  0  0  0  0  0  0  0  0  0  0
  141.6380   78.8250  222.8880 C   0  0  0  0  0  0  0  0  0  0  0  0
  140.3050   71.4480  223.5830 C   0  0  0  0  0  0  0  0  0  0  0  0
  139.5600   70.2880  223.5430 C   0  0  0  0  0  0  0  0  0  0  0  0
  139.3240   69.6380  224.7550 C   0  0  0  0  0  0  0  0  0  0  0  0
  139.8250   70.1490  225.9530 C   0  0  0  0  0  0  0  0  0  0  0  0
  139.6030   69.5200  227.1620 C   0  0  0  0  0  0  0  0  0  0  0  0
  140.1130   70.0490  228.3400 C   0  0  0  0  0  0  0  0  0  0  0  0
  140.8610   71.2310  228.3130 C   0  0  0  0  0  0  0  0  0  0  0  0
  141.0900   71.8680  227.1090 C   0  0  0  0  0  0  0  0  0  0  0  0
  140.5690   71.3190  225.9330 C   0  0  0  0  0  0  0  0  0  0  0  0
  140.7710   71.9110  224.7520 N   0  0  0  0  0  0  0  0  0  0  0  0
  140.5980   70.3740  221.2030 H   0  0  0  0  0  0  0  0  0  0  0  0
  141.3075   71.2600  219.1740 H   0  0  0  0  0  0  0  0  0  0  0  0
  140.0000   72.5318  219.6148 H   0  0  0  0  0  0  0  0  0  0  0  0
  140.3380   74.3059  217.7333 H   0  0  0  0  0  0  0  0  0  0  0  0
  139.9131   75.4240  219.0504 H   0  0  0  0  0  0  0  0  0  0  0  0
  141.3447   76.0160  216.5910 H   0  0  0  0  0  0  0  0  0  0  0  0
  140.9455   77.1556  217.8608 H   0  0  0  0  0  0  0  0  0  0  0  0
  143.4392   75.4529  217.4945 H   0  0  0  0  0  0  0  0  0  0  0  0
  143.3548   77.0809  218.1234 H   0  0  0  0  0  0  0  0  0  0  0  0
  143.6506   75.2163  219.9802 H   0  0  0  0  0  0  0  0  0  0  0  0
  142.9480   77.1501  220.9029 H   0  0  0  0  0  0  0  0  0  0  0  0
  141.4373   77.2105  219.9298 H   0  0  0  0  0  0  0  0  0  0  0  0
  142.0160   75.2220  222.0700 H   0  0  0  0  0  0  0  0  0  0  0  0
  139.5330   76.4173  222.1076 H   0  0  0  0  0  0  0  0  0  0  0  0
  140.8665   76.5064  223.3701 H   0  0  0  0  0  0  0  0  0  0  0  0
  139.2435   78.3724  220.5928 H   0  0  0  0  0  0  0  0  0  0  0  0
  139.5521   80.7997  220.3261 H   0  0  0  0  0  0  0  0  0  0  0  0
  142.5667   80.7036  223.3723 H   0  0  0  0  0  0  0  0  0  0  0  0
  142.2395   78.2700  223.6230 H   0  0  0  0  0  0  0  0  0  0  0  0
  139.1680   69.8916  222.5947 H   0  0  0  0  0  0  0  0  0  0  0  0
  138.7345   68.7094  224.7662 H   0  0  0  0  0  0  0  0  0  0  0  0
  139.0160   68.5902  227.1921 H   0  0  0  0  0  0  0  0  0  0  0  0
  139.9286   69.5378  229.2964 H   0  0  0  0  0  0  0  0  0  0  0  0
  141.2647   71.6510  229.2461 H   0  0  0  0  0  0  0  0  0  0  0  0
  141.6764   72.7980  227.0755 H   0  0  0  0  0  0  0  0  0  0  0  0
  1  2  2  0
  2  3  1  0
  3  4  1  0
  4  5  1  0
  5  6  2  0
  5  7  1  0
  7  8  1  0
  8  9  1  0
  9 10  1  0
 10 11  1  0
 11 12  1  0
 12 13  1  0
 13 14  1  0
 14 15  1  0
 15 16  2  0
 16 17  1  0
 17 18  2  0
 18 19  1  0
 18 20  1  0
 20 21  2  0
  2 22  1  0
 22 23  2  0
 23 24  1  0
 24 25  2  0
 25 26  1  0
 26 27  2  0
 27 28  1  0
 28 29  2  0
 29 30  1  0
 30 31  2  0
 11  7  1  0
 21 15  1  0
 31 22  1  0
 30 25  1  0
  3 32  1  0
  4 33  1  0
  4 34  1  0
  8 35  1  0
  8 36  1  0
  9 37  1  0
  9 38  1  0
 10 39  1  0
 10 40  1  0
 11 41  1  1
 12 42  1  0
 12 43  1  0
 13 44  1  0
 14 45  1  0
 14 46  1  0
 16 47  1  0
 17 48  1  0
 20 49  1  0
 21 50  1  0
 23 51  1  0
 24 52  1  0
 26 53  1  0
 27 54  1  0
 28 55  1  0
 29 56  1  0
M  END
>  <smiles>  (10) 
O=C(NCC(=O)N1CCC[C@H]1CNCc1ccc(Cl)cc1)c1ccc2ccccc2n1

>  <score_type>  (10) 
oracle

>  <origin>  (10) 
autodockgpu

>  <m_score__min__energy>  (10) 
-8.8800000000000008

>  <m_primary>  (10) 
energy

>  <rmsd>  (10) 
2.5432343983338965

>  <m_score__min__rmsd>  (10) 
2.5432343983338965

>  <meeko>  (10) 
{"free_energy": -8.0, "intermolecular_energy": -10.38, "internal_energy": -2.29, "cluster_size": 12, "cluster_id": 4, "rank_in_cluster": 2}

>  <energy>  (10) 
-7.68

>  <cluster_rmsd>  (10) 
1.74

>  <cluster>  (10) 
4

$$$$

     RDKit          3D

 56 59  0  0  0  0  0  0  0  0999 V2000
  138.6020   75.4640  222.0500 O   0  0  0  0  0  0  0  0  0  0  0  0
  139.7870   75.9400  221.9920 C   0  0  0  0  0  0  0  0  0  0  0  0
  140.8680   75.1590  221.4510 N   0  0  0  0  0  0  0  0  0  0  0  0
  140.6930   73.8390  220.9670 C   0  0  0  0  0  0  0  0  0  0  0  0
  141.4100   73.4080  219.7810 C   0  0  0  0  0  0  0  0  0  0  0  0
  140.7570   72.5810  219.0200 O   0  0  0  0  0  0  0  0  0  0  0  0
  142.6950   73.7520  219.3330 N   0  0  0  0  0  0  0  0  0  0  0  0
  143.2910   73.8040  218.0120 C   0  0  0  0  0  0  0  0  0  0  0  0
  144.7810   73.5620  218.1840 C   0  0  0  0  0  0  0  0  0  0  0  0
  144.9260   73.3610  219.6670 C   0  0  0  0  0  0  0  0  0  0  0  0
  143.7930   74.1700  220.2160 C   0  0  1  0  0  0  0  0  0  0  0  0
  144.0760   75.6470  220.0890 C   0  0  0  0  0  0  0  0  0  0  0  0
  142.8540   76.3750  220.1250 N   0  0  0  0  0  0  0  0  0  0  0  0
  142.6140   77.2760  219.0420 C   0  0  0  0  0  0  0  0  0  0  0  0
  141.6570   78.3600  219.3350 C   0  0  0  0  0  0  0  0  0  0  0  0
  140.2960   78.2160  219.3770 C   0  0  0  0  0  0  0  0  0  0  0  0
  139.4440   79.2690  219.6560 C   0  0  0  0  0  0  0  0  0  0  0  0
  139.9580   80.5280  219.9070 C   0  0  0  0  0  0  0  0  0  0  0  0
  138.9190   81.9060  220.2680 Cl  0  0  0  0  0  0  0  0  0  0  0  0
  141.3300   80.6830  219.8670 C   0  0  0  0  0  0  0  0  0  0  0  0
  142.1700   79.6170  219.5850 C   0  0  0  0  0  0  0  0  0  0  0  0
  140.0530   77.2970  222.4830 C   0  0  0  0  0  0  0  0  0  0  0  0
  138.9940   78.0860  222.8800 C   0  0  0  0  0  0  0  0  0  0  0  0
  139.2910   79.3710  223.3390 C   0  0  0  0  0  0  0  0  0  0  0  0
  140.6090   79.8280  223.3900 C   0  0  0  0  0  0  0  0  0  0  0  0
  140.9230   81.0940  223.8410 C   0  0  0  0  0  0  0  0  0  0  0  0
  142.2420   81.5250  223.8820 C   0  0  0  0  0  0  0  0  0  0  0  0
  143.2710   80.6740  223.4650 C   0  0  0  0  0  0  0  0  0  0  0  0
  142.9690   79.4050  223.0120 C   0  0  0  0  0  0  0  0  0  0  0  0
  141.6330   78.9880  222.9780 C   0  0  0  0  0  0  0  0  0  0  0  0
  141.3070   77.7670  222.5450 N   0  0  0  0  0  0  0  0  0  0  0  0
  141.8110   75.6460  221.4390 H   0  0  0  0  0  0  0  0  0  0  0  0
  140.9848   73.1592  221.7811 H   0  0  0  0  0  0  0  0  0  0  0  0
  139.6395   73.8190  220.6513 H   0  0  0  0  0  0  0  0  0  0  0  0
  142.8539   73.0251  217.3700 H   0  0  0  0  0  0  0  0  0  0  0  0
  143.1050   74.7785  217.5368 H   0  0  0  0  0  0  0  0  0  0  0  0
  145.1019   72.6668  217.6311 H   0  0  0  0  0  0  0  0  0  0  0  0
  145.3998   74.3851  217.7971 H   0  0  0  0  0  0  0  0  0  0  0  0
  144.8234   72.2994  219.9362 H   0  0  0  0  0  0  0  0  0  0  0  0
  145.9094   73.6631  220.0563 H   0  0  0  0  0  0  0  0  0  0  0  0
  143.5920   74.0137  221.2861 H   0  0  0  0  0  0  0  0  0  0  0  0
  144.7180   75.9691  220.9221 H   0  0  0  0  0  0  0  0  0  0  0  0
  144.5860   75.8390  219.1335 H   0  0  0  0  0  0  0  0  0  0  0  0
  142.6250   76.7800  221.0610 H   0  0  0  0  0  0  0  0  0  0  0  0
  143.5734   77.7344  218.7601 H   0  0  0  0  0  0  0  0  0  0  0  0
  142.1638   76.6769  218.2368 H   0  0  0  0  0  0  0  0  0  0  0  0
  139.8633   77.2238  219.1811 H   0  0  0  0  0  0  0  0  0  0  0  0
  138.3565   79.1049  219.6783 H   0  0  0  0  0  0  0  0  0  0  0  0
  141.7655   81.6739  220.0632 H   0  0  0  0  0  0  0  0  0  0  0  0
  143.2584   79.7746  219.5601 H   0  0  0  0  0  0  0  0  0  0  0  0
  137.9581   77.7184  222.8369 H   0  0  0  0  0  0  0  0  0  0  0  0
  138.4748   80.0324  223.6650 H   0  0  0  0  0  0  0  0  0  0  0  0
  140.1196   81.7687  224.1715 H   0  0  0  0  0  0  0  0  0  0  0  0
  142.4783   82.5369  224.2428 H   0  0  0  0  0  0  0  0  0  0  0  0
  144.3165   81.0144  223.4978 H   0  0  0  0  0  0  0  0  0  0  0  0
  143.7705   78.7282  222.6810 H   0  0  0  0  0  0  0  0  0  0  0  0
  1  2  2  0
  2  3  1  0
  3  4  1  0
  4  5  1  0
  5  6  2  0
  5  7  1  0
  7  8  1  0
  8  9  1  0
  9 10  1  0
 10 11  1  0
 11 12  1  0
 12 13  1  0
 13 14  1  0
 14 15  1  0
 15 16  2  0
 16 17  1  0
 17 18  2  0
 18 19  1  0
 18 20  1  0
 20 21  2  0
  2 22  1  0
 22 23  2  0
 23 24  1  0
 24 25  2  0
 25 26  1  0
 26 27  2  0
 27 28  1  0
 28 29  2  0
 29 30  1  0
 30 31  2  0
 11  7  1  0
 21 15  1  0
 31 22  1  0
 30 25  1  0
  3 32  1  0
  4 33  1  0
  4 34  1  0
  8 35  1  0
  8 36  1  0
  9 37  1  0
  9 38  1  0
 10 39  1  0
 10 40  1  0
 11 41  1  1
 12 42  1  0
 12 43  1  0
 13 44  1  0
 14 45  1  0
 14 46  1  0
 16 47  1  0
 17 48  1  0
 20 49  1  0
 21 50  1  0
 23 51  1  0
 24 52  1  0
 26 53  1  0
 27 54  1  0
 28 55  1  0
 29 56  1  0
M  END
>  <smiles>  (11) 
O=C(NCC(=O)N1CCC[C@H]1CNCc1ccc(Cl)cc1)c1ccc2ccccc2n1

>  <score_type>  (11) 
oracle

>  <origin>  (11) 
autodockgpu

>  <m_score__min__energy>  (11) 
-8.8800000000000008

>  <m_primary>  (11) 
energy

>  <rmsd>  (11) 
6.776980654398188

>  <m_score__min__rmsd>  (11) 
6.776980654398188

>  <meeko>  (11) 
{"free_energy": -6.28, "intermolecular_energy": -8.67, "internal_energy": -5.03, "cluster_size": 23, "cluster_id": 5, "rank_in_cluster": 21}

>  <energy>  (11) 
-7.14

>  <cluster_rmsd>  (11) 
1.99

>  <cluster>  (11) 
4

$$$$

     RDKit          3D

 56 59  0  0  0  0  0  0  0  0999 V2000
  139.0610   75.0780  221.8980 O   0  0  0  0  0  0  0  0  0  0  0  0
  140.1880   75.6770  221.9720 C   0  0  0  0  0  0  0  0  0  0  0  0
  141.4050   75.0020  221.6060 N   0  0  0  0  0  0  0  0  0  0  0  0
  141.4320   73.6580  221.1590 C   0  0  0  0  0  0  0  0  0  0  0  0
  141.7170   73.3690  219.7660 C   0  0  0  0  0  0  0  0  0  0  0  0
  141.4540   72.1510  219.3960 O   0  0  0  0  0  0  0  0  0  0  0  0
  142.2290   74.2070  218.7610 N   0  0  0  0  0  0  0  0  0  0  0  0
  141.7040   74.6290  217.4770 C   0  0  0  0  0  0  0  0  0  0  0  0
  142.8960   74.9230  216.5820 C   0  0  0  0  0  0  0  0  0  0  0  0
  144.0720   74.6110  217.4650 C   0  0  0  0  0  0  0  0  0  0  0  0
  143.5310   74.8830  218.8340 C   0  0  1  0  0  0  0  0  0  0  0  0
  143.3740   76.3660  219.0650 C   0  0  0  0  0  0  0  0  0  0  0  0
  142.1840   76.6140  219.8040 N   0  0  0  0  0  0  0  0  0  0  0  0
  141.1480   77.3270  219.1270 C   0  0  0  0  0  0  0  0  0  0  0  0
  141.0230   78.7490  219.5010 C   0  0  0  0  0  0  0  0  0  0  0  0
  142.0680   79.6280  219.6070 C   0  0  0  0  0  0  0  0  0  0  0  0
  141.8940   80.9540  219.9620 C   0  0  0  0  0  0  0  0  0  0  0  0
  140.6270   81.4370  220.2280 C   0  0  0  0  0  0  0  0  0  0  0  0
  140.3460   83.1170  220.6860 Cl  0  0  0  0  0  0  0  0  0  0  0  0
  139.5660   80.5590  220.1240 C   0  0  0  0  0  0  0  0  0  0  0  0
  139.7590   79.2330  219.7660 C   0  0  0  0  0  0  0  0  0  0  0  0
  140.2460   77.0680  222.4350 C   0  0  0  0  0  0  0  0  0  0  0  0
  139.0710   77.7260  222.7310 C   0  0  0  0  0  0  0  0  0  0  0  0
  139.1720   79.0490  223.1680 C   0  0  0  0  0  0  0  0  0  0  0  0
  140.4150   79.6700  223.2950 C   0  0  0  0  0  0  0  0  0  0  0  0
  140.5350   80.9760  223.7260 C   0  0  0  0  0  0  0  0  0  0  0  0
  141.7830   81.5710  223.8440 C   0  0  0  0  0  0  0  0  0  0  0  0
  142.9380   80.8480  223.5270 C   0  0  0  0  0  0  0  0  0  0  0  0
  142.8300   79.5400  223.0960 C   0  0  0  0  0  0  0  0  0  0  0  0
  141.5630   78.9580  222.9830 C   0  0  0  0  0  0  0  0  0  0  0  0
  141.4240   77.6950  222.5690 N   0  0  0  0  0  0  0  0  0  0  0  0
  142.2860   75.5870  221.6940 H   0  0  0  0  0  0  0  0  0  0  0  0
  142.1968   73.1389  221.7553 H   0  0  0  0  0  0  0  0  0  0  0  0
  140.3903   73.3266  221.2813 H   0  0  0  0  0  0  0  0  0  0  0  0
  141.0911   73.8279  217.0382 H   0  0  0  0  0  0  0  0  0  0  0  0
  141.0682   75.5198  217.5875 H   0  0  0  0  0  0  0  0  0  0  0  0
  142.8892   74.2778  215.6911 H   0  0  0  0  0  0  0  0  0  0  0  0
  142.9048   75.9542  216.1993 H   0  0  0  0  0  0  0  0  0  0  0  0
  144.3795   73.5600  217.3608 H   0  0  0  0  0  0  0  0  0  0  0  0
  144.9697   75.1992  217.2236 H   0  0  0  0  0  0  0  0  0  0  0  0
  144.1708   74.5364  219.6590 H   0  0  0  0  0  0  0  0  0  0  0  0
  144.2399   76.7415  219.6299 H   0  0  0  0  0  0  0  0  0  0  0  0
  143.3136   76.8809  218.0948 H   0  0  0  0  0  0  0  0  0  0  0  0
  142.3490   76.9480  220.7800 H   0  0  0  0  0  0  0  0  0  0  0  0
  141.3474   77.2745  218.0465 H   0  0  0  0  0  0  0  0  0  0  0  0
  140.2024   76.8476  219.4202 H   0  0  0  0  0  0  0  0  0  0  0  0
  143.0860   79.2654  219.4017 H   0  0  0  0  0  0  0  0  0  0  0  0
  142.7640   81.6234  220.0325 H   0  0  0  0  0  0  0  0  0  0  0  0
  138.5470   80.9187  220.3293 H   0  0  0  0  0  0  0  0  0  0  0  0
  138.8929   78.5588  219.6925 H   0  0  0  0  0  0  0  0  0  0  0  0
  138.0947   77.2298  222.6274 H   0  0  0  0  0  0  0  0  0  0  0  0
  138.2583   79.6093  223.4156 H   0  0  0  0  0  0  0  0  0  0  0  0
  139.6319   81.5510  223.9785 H   0  0  0  0  0  0  0  0  0  0  0  0
  141.8643   82.6129  224.1873 H   0  0  0  0  0  0  0  0  0  0  0  0
  143.9277   81.3189  223.6205 H   0  0  0  0  0  0  0  0  0  0  0  0
  143.7313   78.9619  222.8442 H   0  0  0  0  0  0  0  0  0  0  0  0
  1  2  2  0
  2  3  1  0
  3  4  1  0
  4  5  1  0
  5  6  2  0
  5  7  1  0
  7  8  1  0
  8  9  1  0
  9 10  1  0
 10 11  1  0
 11 12  1  0
 12 13  1  0
 13 14  1  0
 14 15  1  0
 15 16  2  0
 16 17  1  0
 17 18  2  0
 18 19  1  0
 18 20  1  0
 20 21  2  0
  2 22  1  0
 22 23  2  0
 23 24  1  0
 24 25  2  0
 25 26  1  0
 26 27  2  0
 27 28  1  0
 28 29  2  0
 29 30  1  0
 30 31  2  0
 11  7  1  0
 21 15  1  0
 31 22  1  0
 30 25  1  0
  3 32  1  0
  4 33  1  0
  4 34  1  0
  8 35  1  0
  8 36  1  0
  9 37  1  0
  9 38  1  0
 10 39  1  0
 10 40  1  0
 11 41  1  1
 12 42  1  0
 12 43  1  0
 13 44  1  0
 14 45  1  0
 14 46  1  0
 16 47  1  0
 17 48  1  0
 20 49  1  0
 21 50  1  0
 23 51  1  0
 24 52  1  0
 26 53  1  0
 27 54  1  0
 28 55  1  0
 29 56  1  0
M  END
>  <smiles>  (12) 
O=C(NCC(=O)N1CCC[C@H]1CNCc1ccc(Cl)cc1)c1ccc2ccccc2n1

>  <score_type>  (12) 
oracle

>  <origin>  (12) 
autodockgpu

>  <m_score__min__energy>  (12) 
-8.8800000000000008

>  <m_primary>  (12) 
energy

>  <rmsd>  (12) 
6.556259674967212

>  <m_score__min__rmsd>  (12) 
6.556259674967212

>  <meeko>  (12) 
{"free_energy": -6.23, "intermolecular_energy": -8.61, "internal_energy": -4.93, "cluster_size": 23, "cluster_id": 5, "rank_in_cluster": 23}

>  <energy>  (12) 
-7.1

>  <cluster_rmsd>  (12) 
1.99

>  <cluster>  (12) 
4

$$$$

     RDKit          3D

 56 59  0  0  0  0  0  0  0  0999 V2000
  138.7530   75.1880  221.9490 O   0  0  0  0  0  0  0  0  0  0  0  0
  139.9250   75.6810  222.0820 C   0  0  0  0  0  0  0  0  0  0  0  0
  141.0930   74.8710  221.8610 N   0  0  0  0  0  0  0  0  0  0  0  0
  141.0200   73.5030  221.4970 C   0  0  0  0  0  0  0  0  0  0  0  0
  141.5510   73.0710  220.2170 C   0  0  0  0  0  0  0  0  0  0  0  0
  140.8940   72.1010  219.6540 O   0  0  0  0  0  0  0  0  0  0  0  0
  142.6600   73.5450  219.4980 N   0  0  0  0  0  0  0  0  0  0  0  0
  142.9940   73.5250  218.0870 C   0  0  0  0  0  0  0  0  0  0  0  0
  144.5100   73.5280  217.9870 C   0  0  0  0  0  0  0  0  0  0  0  0
  144.9480   73.5300  219.4240 C   0  0  0  0  0  0  0  0  0  0  0  0
  143.8120   74.2230  220.1090 C   0  0  1  0  0  0  0  0  0  0  0  0
  143.8160   75.7000  219.7970 C   0  0  0  0  0  0  0  0  0  0  0  0
  142.5440   76.2590  220.1000 N   0  0  0  0  0  0  0  0  0  0  0  0
  141.8240   76.8380  219.0120 C   0  0  0  0  0  0  0  0  0  0  0  0
  141.6830   78.3060  219.0690 C   0  0  0  0  0  0  0  0  0  0  0  0
  142.5710   79.2010  218.5330 C   0  0  0  0  0  0  0  0  0  0  0  0
  142.3890   80.5700  218.6160 C   0  0  0  0  0  0  0  0  0  0  0  0
  141.2780   81.0830  219.2590 C   0  0  0  0  0  0  0  0  0  0  0  0
  140.9970   82.8190  219.3950 Cl  0  0  0  0  0  0  0  0  0  0  0  0
  140.3770   80.1880  219.8030 C   0  0  0  0  0  0  0  0  0  0  0  0
  140.5740   78.8190  219.7100 C   0  0  0  0  0  0  0  0  0  0  0  0
  140.0850   77.0880  222.4670 C   0  0  0  0  0  0  0  0  0  0  0  0
  138.9600   77.8460  222.7170 C   0  0  0  0  0  0  0  0  0  0  0  0
  139.1580   79.1810  223.0790 C   0  0  0  0  0  0  0  0  0  0  0  0
  140.4440   79.7140  223.1810 C   0  0  0  0  0  0  0  0  0  0  0  0
  140.6590   81.0300  223.5380 C   0  0  0  0  0  0  0  0  0  0  0  0
  141.9480   81.5370  223.6320 C   0  0  0  0  0  0  0  0  0  0  0  0
  143.0470   80.7120  223.3660 C   0  0  0  0  0  0  0  0  0  0  0  0
  142.8430   79.3940  223.0080 C   0  0  0  0  0  0  0  0  0  0  0  0
  141.5370   78.9020  222.9190 C   0  0  0  0  0  0  0  0  0  0  0  0
  141.3050   77.6310  222.5750 N   0  0  0  0  0  0  0  0  0  0  0  0
  142.0190   75.3740  221.9890 H   0  0  0  0  0  0  0  0  0  0  0  0
  141.5569   72.9372  222.2726 H   0  0  0  0  0  0  0  0  0  0  0  0
  139.9395   73.3202  221.4014 H   0  0  0  0  0  0  0  0  0  0  0  0
  142.5865   72.6185  217.6156 H   0  0  0  0  0  0  0  0  0  0  0  0
  142.5657   74.3968  217.5708 H   0  0  0  0  0  0  0  0  0  0  0  0
  144.8728   72.6302  217.4652 H   0  0  0  0  0  0  0  0  0  0  0  0
  144.9032   74.3811  217.4147 H   0  0  0  0  0  0  0  0  0  0  0  0
  145.0742   72.5049  219.8023 H   0  0  0  0  0  0  0  0  0  0  0  0
  145.9203   74.0186  219.5850 H   0  0  0  0  0  0  0  0  0  0  0  0
  143.8345   74.1680  221.2074 H   0  0  0  0  0  0  0  0  0  0  0  0
  144.5877   76.1990  220.4015 H   0  0  0  0  0  0  0  0  0  0  0  0
  144.0316   75.8452  218.7282 H   0  0  0  0  0  0  0  0  0  0  0  0
  142.5300   76.8440  220.9660 H   0  0  0  0  0  0  0  0  0  0  0  0
  142.3492   76.5815  218.0801 H   0  0  0  0  0  0  0  0  0  0  0  0
  140.8044   76.4287  219.0652 H   0  0  0  0  0  0  0  0  0  0  0  0
  143.4630   78.8164  218.0168 H   0  0  0  0  0  0  0  0  0  0  0  0
  143.1290   81.2508  218.1700 H   0  0  0  0  0  0  0  0  0  0  0  0
  139.4847   80.5697  220.3207 H   0  0  0  0  0  0  0  0  0  0  0  0
  139.8369   78.1330  220.1528 H   0  0  0  0  0  0  0  0  0  0  0  0
  137.9501   77.4178  222.6349 H   0  0  0  0  0  0  0  0  0  0  0  0
  138.2879   79.8211  223.2866 H   0  0  0  0  0  0  0  0  0  0  0  0
  139.8001   81.6837  223.7502 H   0  0  0  0  0  0  0  0  0  0  0  0
  142.1058   82.5880  223.9158 H   0  0  0  0  0  0  0  0  0  0  0  0
  144.0689   81.1119  223.4418 H   0  0  0  0  0  0  0  0  0  0  0  0
  143.6995   78.7375  222.7949 H   0  0  0  0  0  0  0  0  0  0  0  0
  1  2  2  0
  2  3  1  0
  3  4  1  0
  4  5  1  0
  5  6  2  0
  5  7  1  0
  7  8  1  0
  8  9  1  0
  9 10  1  0
 10 11  1  0
 11 12  1  0
 12 13  1  0
 13 14  1  0
 14 15  1  0
 15 16  2  0
 16 17  1  0
 17 18  2  0
 18 19  1  0
 18 20  1  0
 20 21  2  0
  2 22  1  0
 22 23  2  0
 23 24  1  0
 24 25  2  0
 25 26  1  0
 26 27  2  0
 27 28  1  0
 28 29  2  0
 29 30  1  0
 30 31  2  0
 11  7  1  0
 21 15  1  0
 31 22  1  0
 30 25  1  0
  3 32  1  0
  4 33  1  0
  4 34  1  0
  8 35  1  0
  8 36  1  0
  9 37  1  0
  9 38  1  0
 10 39  1  0
 10 40  1  0
 11 41  1  1
 12 42  1  0
 12 43  1  0
 13 44  1  0
 14 45  1  0
 14 46  1  0
 16 47  1  0
 17 48  1  0
 20 49  1  0
 21 50  1  0
 23 51  1  0
 24 52  1  0
 26 53  1  0
 27 54  1  0
 28 55  1  0
 29 56  1  0
M  END
>  <smiles>  (13) 
O=C(NCC(=O)N1CCC[C@H]1CNCc1ccc(Cl)cc1)c1ccc2ccccc2n1

>  <score_type>  (13) 
oracle

>  <origin>  (13) 
autodockgpu

>  <m_score__min__energy>  (13) 
-8.8800000000000008

>  <m_primary>  (13) 
energy

>  <rmsd>  (13) 
6.830182581006937

>  <m_score__min__rmsd>  (13) 
6.830182581006937

>  <meeko>  (13) 
{"free_energy": -6.89, "intermolecular_energy": -9.27, "internal_energy": -4.76, "cluster_size": 23, "cluster_id": 5, "rank_in_cluster": 19}

>  <energy>  (13) 
-7.06

>  <cluster_rmsd>  (13) 
1.97

>  <cluster>  (13) 
4

$$$$

     RDKit          3D

 56 59  0  0  0  0  0  0  0  0999 V2000
  138.6440   75.1410  221.9460 O   0  0  0  0  0  0  0  0  0  0  0  0
  139.8300   75.6180  221.9740 C   0  0  0  0  0  0  0  0  0  0  0  0
  140.9580   74.8080  221.5960 N   0  0  0  0  0  0  0  0  0  0  0  0
  140.8290   73.4570  221.1870 C   0  0  0  0  0  0  0  0  0  0  0  0
  141.8190   72.8790  220.2970 C   0  0  0  0  0  0  0  0  0  0  0  0
  141.4980   71.7200  219.8030 O   0  0  0  0  0  0  0  0  0  0  0  0
  143.0640   73.3830  219.8890 N   0  0  0  0  0  0  0  0  0  0  0  0
  143.9780   72.9990  218.8310 C   0  0  0  0  0  0  0  0  0  0  0  0
  145.3740   73.3930  219.2800 C   0  0  0  0  0  0  0  0  0  0  0  0
  145.1410   73.9860  220.6410 C   0  0  0  0  0  0  0  0  0  0  0  0
  143.7460   74.5160  220.5290 C   0  0  1  0  0  0  0  0  0  0  0  0
  143.7080   75.7500  219.6590 C   0  0  0  0  0  0  0  0  0  0  0  0
  142.5740   76.5400  219.9960 N   0  0  0  0  0  0  0  0  0  0  0  0
  141.9680   77.2760  218.9320 C   0  0  0  0  0  0  0  0  0  0  0  0
  141.3660   78.5630  219.3290 C   0  0  0  0  0  0  0  0  0  0  0  0
  140.0340   78.7630  219.5790 C   0  0  0  0  0  0  0  0  0  0  0  0
  139.5220   79.9940  219.9480 C   0  0  0  0  0  0  0  0  0  0  0  0
  140.3640   81.0830  220.0780 C   0  0  0  0  0  0  0  0  0  0  0  0
  139.7660   82.6750  220.5450 Cl  0  0  0  0  0  0  0  0  0  0  0  0
  141.7090   80.8910  219.8280 C   0  0  0  0  0  0  0  0  0  0  0  0
  142.2050   79.6500  219.4590 C   0  0  0  0  0  0  0  0  0  0  0  0
  140.0480   77.0060  222.3970 C   0  0  0  0  0  0  0  0  0  0  0  0
  138.9600   77.7840  222.7320 C   0  0  0  0  0  0  0  0  0  0  0  0
  139.2130   79.0990  223.1270 C   0  0  0  0  0  0  0  0  0  0  0  0
  140.5160   79.5950  223.1780 C   0  0  0  0  0  0  0  0  0  0  0  0
  140.7860   80.8920  223.5670 C   0  0  0  0  0  0  0  0  0  0  0  0
  142.0920   81.3620  223.6100 C   0  0  0  0  0  0  0  0  0  0  0  0
  143.1520   80.5200  223.2570 C   0  0  0  0  0  0  0  0  0  0  0  0
  142.8940   79.2210  222.8670 C   0  0  0  0  0  0  0  0  0  0  0  0
  141.5720   78.7650  222.8310 C   0  0  0  0  0  0  0  0  0  0  0  0
  141.2870   77.5140  222.4570 N   0  0  0  0  0  0  0  0  0  0  0  0
  141.8980   75.2970  221.6450 H   0  0  0  0  0  0  0  0  0  0  0  0
  140.8259   72.8455  222.1014 H   0  0  0  0  0  0  0  0  0  0  0  0
  139.9099   73.4583  220.5826 H   0  0  0  0  0  0  0  0  0  0  0  0
  143.9278   71.9127  218.6652 H   0  0  0  0  0  0  0  0  0  0  0  0
  143.7154   73.4989  217.8870 H   0  0  0  0  0  0  0  0  0  0  0  0
  146.0321   72.5137  219.3400 H   0  0  0  0  0  0  0  0  0  0  0  0
  145.8712   74.0867  218.5860 H   0  0  0  0  0  0  0  0  0  0  0  0
  145.2130   73.2192  221.4264 H   0  0  0  0  0  0  0  0  0  0  0  0
  145.8802   74.7521  220.9179 H   0  0  0  0  0  0  0  0  0  0  0  0
  143.2955   74.8297  221.4822 H   0  0  0  0  0  0  0  0  0  0  0  0
  144.6237   76.3382  219.8186 H   0  0  0  0  0  0  0  0  0  0  0  0
  143.6413   75.4491  218.6031 H   0  0  0  0  0  0  0  0  0  0  0  0
  142.6870   77.0960  220.8740 H   0  0  0  0  0  0  0  0  0  0  0  0
  142.7395   77.4792  218.1747 H   0  0  0  0  0  0  0  0  0  0  0  0
  141.1426   76.6526  218.5577 H   0  0  0  0  0  0  0  0  0  0  0  0
  139.3445   77.9113  219.4825 H   0  0  0  0  0  0  0  0  0  0  0  0
  138.4444   80.1066  220.1381 H   0  0  0  0  0  0  0  0  0  0  0  0
  142.4011   81.7406  219.9237 H   0  0  0  0  0  0  0  0  0  0  0  0
  143.2816   79.5308  219.2674 H   0  0  0  0  0  0  0  0  0  0  0  0
  137.9357   77.3853  222.6898 H   0  0  0  0  0  0  0  0  0  0  0  0
  138.3728   79.7535  223.4020 H   0  0  0  0  0  0  0  0  0  0  0  0
  139.9578   81.5601  223.8458 H   0  0  0  0  0  0  0  0  0  0  0  0
  142.2933   82.3975  223.9219 H   0  0  0  0  0  0  0  0  0  0  0  0
  144.1869   80.8914  223.2901 H   0  0  0  0  0  0  0  0  0  0  0  0
  143.7202   78.5509  222.5872 H   0  0  0  0  0  0  0  0  0  0  0  0
  1  2  2  0
  2  3  1  0
  3  4  1  0
  4  5  1  0
  5  6  2  0
  5  7  1  0
  7  8  1  0
  8  9  1  0
  9 10  1  0
 10 11  1  0
 11 12  1  0
 12 13  1  0
 13 14  1  0
 14 15  1  0
 15 16  2  0
 16 17  1  0
 17 18  2  0
 18 19  1  0
 18 20  1  0
 20 21  2  0
  2 22  1  0
 22 23  2  0
 23 24  1  0
 24 25  2  0
 25 26  1  0
 26 27  2  0
 27 28  1  0
 28 29  2  0
 29 30  1  0
 30 31  2  0
 11  7  1  0
 21 15  1  0
 31 22  1  0
 30 25  1  0
  3 32  1  0
  4 33  1  0
  4 34  1  0
  8 35  1  0
  8 36  1  0
  9 37  1  0
  9 38  1  0
 10 39  1  0
 10 40  1  0
 11 41  1  1
 12 42  1  0
 12 43  1  0
 13 44  1  0
 14 45  1  0
 14 46  1  0
 16 47  1  0
 17 48  1  0
 20 49  1  0
 21 50  1  0
 23 51  1  0
 24 52  1  0
 26 53  1  0
 27 54  1  0
 28 55  1  0
 29 56  1  0
M  END
>  <smiles>  (14) 
O=C(NCC(=O)N1CCC[C@H]1CNCc1ccc(Cl)cc1)c1ccc2ccccc2n1

>  <score_type>  (14) 
oracle

>  <origin>  (14) 
autodockgpu

>  <m_score__min__energy>  (14) 
-8.8800000000000008

>  <m_primary>  (14) 
energy

>  <rmsd>  (14) 
6.740290910483304

>  <m_score__min__rmsd>  (14) 
6.740290910483304

>  <meeko>  (14) 
{"free_energy": -7.0, "intermolecular_energy": -9.39, "internal_energy": -4.99, "cluster_size": 23, "cluster_id": 5, "rank_in_cluster": 15}

>  <energy>  (14) 
-7.01

>  <cluster_rmsd>  (14) 
1.97

>  <cluster>  (14) 
4

$$$$

     RDKit          3D

 56 59  0  0  0  0  0  0  0  0999 V2000
  138.5930   75.4340  222.1550 O   0  0  0  0  0  0  0  0  0  0  0  0
  139.7880   75.8900  222.1430 C   0  0  0  0  0  0  0  0  0  0  0  0
  140.8830   75.0730  221.6920 N   0  0  0  0  0  0  0  0  0  0  0  0
  140.7120   73.7380  221.2500 C   0  0  0  0  0  0  0  0  0  0  0  0
  141.8760   72.9300  220.9370 C   0  0  0  0  0  0  0  0  0  0  0  0
  141.8170   71.7020  221.3590 O   0  0  0  0  0  0  0  0  0  0  0  0
  143.0490   73.2740  220.2470 N   0  0  0  0  0  0  0  0  0  0  0  0
  143.6850   72.7280  219.0630 C   0  0  0  0  0  0  0  0  0  0  0  0
  145.1740   73.0020  219.1880 C   0  0  0  0  0  0  0  0  0  0  0  0
  145.2830   73.7020  220.5130 C   0  0  0  0  0  0  0  0  0  0  0  0
  143.9480   74.3680  220.6390 C   0  0  1  0  0  0  0  0  0  0  0  0
  143.8400   75.5400  219.6940 C   0  0  0  0  0  0  0  0  0  0  0  0
  142.7410   76.3600  220.0690 N   0  0  0  0  0  0  0  0  0  0  0  0
  142.5100   77.5240  219.2730 C   0  0  0  0  0  0  0  0  0  0  0  0
  141.1900   78.1560  219.4630 C   0  0  0  0  0  0  0  0  0  0  0  0
  139.9860   77.5270  219.2930 C   0  0  0  0  0  0  0  0  0  0  0  0
  138.7760   78.1700  219.4840 C   0  0  0  0  0  0  0  0  0  0  0  0
  138.7510   79.5000  219.8620 C   0  0  0  0  0  0  0  0  0  0  0  0
  137.2390   80.3690  220.1200 Cl  0  0  0  0  0  0  0  0  0  0  0  0
  139.9610   80.1440  220.0360 C   0  0  0  0  0  0  0  0  0  0  0  0
  141.1640   79.4840  219.8400 C   0  0  0  0  0  0  0  0  0  0  0  0
  140.0490   77.2610  222.5950 C   0  0  0  0  0  0  0  0  0  0  0  0
  138.9880   78.0580  222.9700 C   0  0  0  0  0  0  0  0  0  0  0  0
  139.2810   79.3560  223.3920 C   0  0  0  0  0  0  0  0  0  0  0  0
  140.5980   79.8180  223.4310 C   0  0  0  0  0  0  0  0  0  0  0  0
  140.9080   81.0980  223.8470 C   0  0  0  0  0  0  0  0  0  0  0  0
  142.2260   81.5330  223.8760 C   0  0  0  0  0  0  0  0  0  0  0  0
  143.2580   80.6730  223.4830 C   0  0  0  0  0  0  0  0  0  0  0  0
  142.9590   79.3910  223.0660 C   0  0  0  0  0  0  0  0  0  0  0  0
  141.6250   78.9710  223.0440 C   0  0  0  0  0  0  0  0  0  0  0  0
  141.3020   77.7370  222.6450 N   0  0  0  0  0  0  0  0  0  0  0  0
  141.8330   75.5450  221.7130 H   0  0  0  0  0  0  0  0  0  0  0  0
  140.1592   73.2086  222.0401 H   0  0  0  0  0  0  0  0  0  0  0  0
  140.2103   73.8522  220.2778 H   0  0  0  0  0  0  0  0  0  0  0  0
  143.5046   71.6445  219.0036 H   0  0  0  0  0  0  0  0  0  0  0  0
  143.2774   73.1901  218.1518 H   0  0  0  0  0  0  0  0  0  0  0  0
  145.7491   72.0643  219.1885 H   0  0  0  0  0  0  0  0  0  0  0  0
  145.5758   73.5940  218.3525 H   0  0  0  0  0  0  0  0  0  0  0  0
  145.4474   72.9837  221.3297 H   0  0  0  0  0  0  0  0  0  0  0  0
  146.1293   74.4023  220.5704 H   0  0  0  0  0  0  0  0  0  0  0  0
  143.7361   74.7882  221.6333 H   0  0  0  0  0  0  0  0  0  0  0  0
  144.7673   76.1301  219.7363 H   0  0  0  0  0  0  0  0  0  0  0  0
  143.6840   75.1686  218.6704 H   0  0  0  0  0  0  0  0  0  0  0  0
  142.6710   76.5390  221.0960 H   0  0  0  0  0  0  0  0  0  0  0  0
  143.2829   78.2663  219.5211 H   0  0  0  0  0  0  0  0  0  0  0  0
  142.5446   77.1922  218.2248 H   0  0  0  0  0  0  0  0  0  0  0  0
  139.9804   76.4688  218.9928 H   0  0  0  0  0  0  0  0  0  0  0  0
  137.8333   77.6230  219.3351 H   0  0  0  0  0  0  0  0  0  0  0  0
  139.9698   81.2022  220.3362 H   0  0  0  0  0  0  0  0  0  0  0  0
  142.1103   80.0253  219.9867 H   0  0  0  0  0  0  0  0  0  0  0  0
  137.9532   77.6862  222.9379 H   0  0  0  0  0  0  0  0  0  0  0  0
  138.4627   80.0243  223.6981 H   0  0  0  0  0  0  0  0  0  0  0  0
  140.1026   81.7795  224.1584 H   0  0  0  0  0  0  0  0  0  0  0  0
  142.4597   82.5552  224.2084 H   0  0  0  0  0  0  0  0  0  0  0  0
  144.3026   81.0168  223.5062 H   0  0  0  0  0  0  0  0  0  0  0  0
  143.7619   78.7069  222.7542 H   0  0  0  0  0  0  0  0  0  0  0  0
  1  2  2  0
  2  3  1  0
  3  4  1  0
  4  5  1  0
  5  6  2  0
  5  7  1  0
  7  8  1  0
  8  9  1  0
  9 10  1  0
 10 11  1  0
 11 12  1  0
 12 13  1  0
 13 14  1  0
 14 15  1  0
 15 16  2  0
 16 17  1  0
 17 18  2  0
 18 19  1  0
 18 20  1  0
 20 21  2  0
  2 22  1  0
 22 23  2  0
 23 24  1  0
 24 25  2  0
 25 26  1  0
 26 27  2  0
 27 28  1  0
 28 29  2  0
 29 30  1  0
 30 31  2  0
 11  7  1  0
 21 15  1  0
 31 22  1  0
 30 25  1  0
  3 32  1  0
  4 33  1  0
  4 34  1  0
  8 35  1  0
  8 36  1  0
  9 37  1  0
  9 38  1  0
 10 39  1  0
 10 40  1  0
 11 41  1  1
 12 42  1  0
 12 43  1  0
 13 44  1  0
 14 45  1  0
 14 46  1  0
 16 47  1  0
 17 48  1  0
 20 49  1  0
 21 50  1  0
 23 51  1  0
 24 52  1  0
 26 53  1  0
 27 54  1  0
 28 55  1  0
 29 56  1  0
M  END
>  <smiles>  (15) 
O=C(NCC(=O)N1CCC[C@H]1CNCc1ccc(Cl)cc1)c1ccc2ccccc2n1

>  <score_type>  (15) 
oracle

>  <origin>  (15) 
autodockgpu

>  <m_score__min__energy>  (15) 
-8.8800000000000008

>  <m_primary>  (15) 
energy

>  <rmsd>  (15) 
6.875992178675298

>  <m_score__min__rmsd>  (15) 
6.875992178675298

>  <meeko>  (15) 
{"free_energy": -6.68, "intermolecular_energy": -9.06, "internal_energy": -4.62, "cluster_size": 12, "cluster_id": 4, "rank_in_cluster": 11}

>  <energy>  (15) 
-6.99

>  <cluster_rmsd>  (15) 
2.0

>  <cluster>  (15) 
4

$$$$

     RDKit          3D

 56 59  0  0  0  0  0  0  0  0999 V2000
  140.9470   77.4980  217.5580 O   0  0  0  0  0  0  0  0  0  0  0  0
  141.8120   77.3620  218.4900 C   0  0  0  0  0  0  0  0  0  0  0  0
  142.2450   78.4960  219.2630 N   0  0  0  0  0  0  0  0  0  0  0  0
  141.7580   79.8070  219.0390 C   0  0  0  0  0  0  0  0  0  0  0  0
  141.6420   80.7310  220.1540 C   0  0  0  0  0  0  0  0  0  0  0  0
  141.7130   81.9880  219.8300 O   0  0  0  0  0  0  0  0  0  0  0  0
  141.4620   80.4700  221.5210 N   0  0  0  0  0  0  0  0  0  0  0  0
  140.4370   80.8660  222.4670 C   0  0  0  0  0  0  0  0  0  0  0  0
  141.0850   80.8980  223.8410 C   0  0  0  0  0  0  0  0  0  0  0  0
  142.5100   80.5160  223.5570 C   0  0  0  0  0  0  0  0  0  0  0  0
  142.3790   79.6610  222.3350 C   0  0  1  0  0  0  0  0  0  0  0  0
  141.7780   78.3200  222.6800 C   0  0  0  0  0  0  0  0  0  0  0  0
  141.4740   77.6080  221.4870 N   0  0  0  0  0  0  0  0  0  0  0  0
  140.1370   77.1230  221.3550 C   0  0  0  0  0  0  0  0  0  0  0  0
  139.9760   75.6730  221.5790 C   0  0  0  0  0  0  0  0  0  0  0  0
  138.7790   75.0350  221.7640 C   0  0  0  0  0  0  0  0  0  0  0  0
  138.6860   73.6700  221.9710 C   0  0  0  0  0  0  0  0  0  0  0  0
  139.8310   72.8950  221.9980 C   0  0  0  0  0  0  0  0  0  0  0  0
  139.7720   71.1520  222.2580 Cl  0  0  0  0  0  0  0  0  0  0  0  0
  141.0440   73.5290  221.8120 C   0  0  0  0  0  0  0  0  0  0  0  0
  141.1180   74.8980  221.6060 C   0  0  0  0  0  0  0  0  0  0  0  0
  142.3730   76.0370  218.7770 C   0  0  0  0  0  0  0  0  0  0  0  0
  141.8100   74.9280  218.1820 C   0  0  0  0  0  0  0  0  0  0  0  0
  142.3740   73.6860  218.4840 C   0  0  0  0  0  0  0  0  0  0  0  0
  143.4620   73.5830  219.3510 C   0  0  0  0  0  0  0  0  0  0  0  0
  144.0330   72.3650  219.6610 C   0  0  0  0  0  0  0  0  0  0  0  0
  145.1150   72.2900  220.5280 C   0  0  0  0  0  0  0  0  0  0  0  0
  145.6400   73.4560  221.0980 C   0  0  0  0  0  0  0  0  0  0  0  0
  145.0760   74.6790  220.7950 C   0  0  0  0  0  0  0  0  0  0  0  0
  143.9870   74.7350  219.9190 C   0  0  0  0  0  0  0  0  0  0  0  0
  143.4180   75.9030  219.6060 N   0  0  0  0  0  0  0  0  0  0  0  0
  142.9590   78.2790  220.0170 H   0  0  0  0  0  0  0  0  0  0  0  0
  142.4294   80.2758  218.3045 H   0  0  0  0  0  0  0  0  0  0  0  0
  140.7146   79.6440  218.7312 H   0  0  0  0  0  0  0  0  0  0  0  0
  140.0503   81.8629  222.2089 H   0  0  0  0  0  0  0  0  0  0  0  0
  139.5935   80.1602  222.4484 H   0  0  0  0  0  0  0  0  0  0  0  0
  141.0266   81.9043  224.2814 H   0  0  0  0  0  0  0  0  0  0  0  0
  140.5952   80.2300  224.5648 H   0  0  0  0  0  0  0  0  0  0  0  0
  143.1272   81.4042  223.3564 H   0  0  0  0  0  0  0  0  0  0  0  0
  143.0032   80.0064  224.3979 H   0  0  0  0  0  0  0  0  0  0  0  0
  143.3300   79.4236  221.8359 H   0  0  0  0  0  0  0  0  0  0  0  0
  142.4966   77.7406  223.2782 H   0  0  0  0  0  0  0  0  0  0  0  0
  140.8543   78.4733  223.2573 H   0  0  0  0  0  0  0  0  0  0  0  0
  142.1990   76.9090  221.2090 H   0  0  0  0  0  0  0  0  0  0  0  0
  139.5077   77.6533  222.0849 H   0  0  0  0  0  0  0  0  0  0  0  0
  139.8439   77.3079  220.3110 H   0  0  0  0  0  0  0  0  0  0  0  0
  137.8546   75.6310  221.7475 H   0  0  0  0  0  0  0  0  0  0  0  0
  137.7012   73.2013  222.1141 H   0  0  0  0  0  0  0  0  0  0  0  0
  141.9701   72.9356  221.8276 H   0  0  0  0  0  0  0  0  0  0  0  0
  142.0997   75.3729  221.4622 H   0  0  0  0  0  0  0  0  0  0  0  0
  140.9529   75.0173  217.4984 H   0  0  0  0  0  0  0  0  0  0  0  0
  141.9539   72.7757  218.0314 H   0  0  0  0  0  0  0  0  0  0  0  0
  143.6267   71.4444  219.2166 H   0  0  0  0  0  0  0  0  0  0  0  0
  145.5603   71.3131  220.7673 H   0  0  0  0  0  0  0  0  0  0  0  0
  146.4979   73.3979  221.7841 H   0  0  0  0  0  0  0  0  0  0  0  0
  145.4794   75.6013  221.2385 H   0  0  0  0  0  0  0  0  0  0  0  0
  1  2  2  0
  2  3  1  0
  3  4  1  0
  4  5  1  0
  5  6  2  0
  5  7  1  0
  7  8  1  0
  8  9  1  0
  9 10  1  0
 10 11  1  0
 11 12  1  0
 12 13  1  0
 13 14  1  0
 14 15  1  0
 15 16  2  0
 16 17  1  0
 17 18  2  0
 18 19  1  0
 18 20  1  0
 20 21  2  0
  2 22  1  0
 22 23  2  0
 23 24  1  0
 24 25  2  0
 25 26  1  0
 26 27  2  0
 27 28  1  0
 28 29  2  0
 29 30  1  0
 30 31  2  0
 11  7  1  0
 21 15  1  0
 31 22  1  0
 30 25  1  0
  3 32  1  0
  4 33  1  0
  4 34  1  0
  8 35  1  0
  8 36  1  0
  9 37  1  0
  9 38  1  0
 10 39  1  0
 10 40  1  0
 11 41  1  6
 12 42  1  0
 12 43  1  0
 13 44  1  0
 14 45  1  0
 14 46  1  0
 16 47  1  0
 17 48  1  0
 20 49  1  0
 21 50  1  0
 23 51  1  0
 24 52  1  0
 26 53  1  0
 27 54  1  0
 28 55  1  0
 29 56  1  0
M  END
>  <smiles>  (16) 
O=C(NCC(=O)N1CCC[C@H]1CNCc1ccc(Cl)cc1)c1ccc2ccccc2n1

>  <score_type>  (16) 
oracle

>  <origin>  (16) 
autodockgpu

>  <m_score__min__energy>  (16) 
-8.8800000000000008

>  <m_primary>  (16) 
energy

>  <rmsd>  (16) 
7.419256048643671

>  <m_score__min__rmsd>  (16) 
7.419256048643671

>  <meeko>  (16) 
{"free_energy": -6.75, "intermolecular_energy": -9.14, "internal_energy": -4.2, "cluster_size": 6, "cluster_id": 6, "rank_in_cluster": 2}

>  <energy>  (16) 
-6.97

>  <cluster_rmsd>  (16) 
1.99

>  <cluster>  (16) 
4

$$$$

     RDKit          3D

 56 59  0  0  0  0  0  0  0  0999 V2000
  138.6510   74.8570  222.0000 O   0  0  0  0  0  0  0  0  0  0  0  0
  139.7990   75.4190  221.9550 C   0  0  0  0  0  0  0  0  0  0  0  0
  140.9680   74.6740  221.5670 N   0  0  0  0  0  0  0  0  0  0  0  0
  140.9220   73.3000  221.2250 C   0  0  0  0  0  0  0  0  0  0  0  0
  142.0920   72.6650  220.6450 C   0  0  0  0  0  0  0  0  0  0  0  0
  142.0700   71.3650  220.6600 O   0  0  0  0  0  0  0  0  0  0  0  0
  143.2350   73.2420  220.0700 N   0  0  0  0  0  0  0  0  0  0  0  0
  143.9950   72.9280  218.8760 C   0  0  0  0  0  0  0  0  0  0  0  0
  145.4230   73.3860  219.1220 C   0  0  0  0  0  0  0  0  0  0  0  0
  145.3700   73.9380  220.5180 C   0  0  0  0  0  0  0  0  0  0  0  0
  143.9490   74.3960  220.6320 C   0  0  1  0  0  0  0  0  0  0  0  0
  143.7200   75.6430  219.8130 C   0  0  0  0  0  0  0  0  0  0  0  0
  142.5170   76.2770  220.2290 N   0  0  0  0  0  0  0  0  0  0  0  0
  141.6380   76.7230  219.1960 C   0  0  0  0  0  0  0  0  0  0  0  0
  141.8980   78.0900  218.7040 C   0  0  0  0  0  0  0  0  0  0  0  0
  142.2520   78.4090  217.4200 C   0  0  0  0  0  0  0  0  0  0  0  0
  142.4840   79.7100  217.0120 C   0  0  0  0  0  0  0  0  0  0  0  0
  142.3630   80.7500  217.9150 C   0  0  0  0  0  0  0  0  0  0  0  0
  142.6480   82.4270  217.4510 Cl  0  0  0  0  0  0  0  0  0  0  0  0
  142.0070   80.4390  219.2130 C   0  0  0  0  0  0  0  0  0  0  0  0
  141.7770   79.1290  219.6040 C   0  0  0  0  0  0  0  0  0  0  0  0
  139.9310   76.8370  222.3050 C   0  0  0  0  0  0  0  0  0  0  0  0
  138.7920   77.6000  222.4550 C   0  0  0  0  0  0  0  0  0  0  0  0
  138.9630   78.9460  222.7870 C   0  0  0  0  0  0  0  0  0  0  0  0
  140.2380   79.4860  222.9570 C   0  0  0  0  0  0  0  0  0  0  0  0
  140.4270   80.8140  223.2860 C   0  0  0  0  0  0  0  0  0  0  0  0
  141.7070   81.3280  223.4500 C   0  0  0  0  0  0  0  0  0  0  0  0
  142.8220   80.4990  223.2830 C   0  0  0  0  0  0  0  0  0  0  0  0
  142.6440   79.1700  222.9540 C   0  0  0  0  0  0  0  0  0  0  0  0
  141.3470   78.6700  222.7940 C   0  0  0  0  0  0  0  0  0  0  0  0
  141.1410   77.3890  222.4760 N   0  0  0  0  0  0  0  0  0  0  0  0
  141.8700   75.2310  221.5540 H   0  0  0  0  0  0  0  0  0  0  0  0
  140.6838   72.7493  222.1469 H   0  0  0  0  0  0  0  0  0  0  0  0
  140.1803   73.2619  220.4136 H   0  0  0  0  0  0  0  0  0  0  0  0
  143.9732   71.8442  218.6890 H   0  0  0  0  0  0  0  0  0  0  0  0
  143.5682   73.4321  217.9964 H   0  0  0  0  0  0  0  0  0  0  0  0
  146.1248   72.5414  219.0581 H   0  0  0  0  0  0  0  0  0  0  0  0
  145.7749   74.1189  218.3811 H   0  0  0  0  0  0  0  0  0  0  0  0
  145.5978   73.1603  221.2618 H   0  0  0  0  0  0  0  0  0  0  0  0
  146.1040   74.7364  220.7019 H   0  0  0  0  0  0  0  0  0  0  0  0
  143.6325   74.6659  221.6503 H   0  0  0  0  0  0  0  0  0  0  0  0
  144.5647   76.3333  219.9545 H   0  0  0  0  0  0  0  0  0  0  0  0
  143.6388   75.3704  218.7504 H   0  0  0  0  0  0  0  0  0  0  0  0
  142.6450   76.9760  220.9960 H   0  0  0  0  0  0  0  0  0  0  0  0
  141.7310   76.0308  218.3461 H   0  0  0  0  0  0  0  0  0  0  0  0
  140.6300   76.7407  219.6359 H   0  0  0  0  0  0  0  0  0  0  0  0
  142.3560   77.5982  216.6839 H   0  0  0  0  0  0  0  0  0  0  0  0
  142.7648   79.9174  215.9689 H   0  0  0  0  0  0  0  0  0  0  0  0
  141.9039   81.2476  219.9516 H   0  0  0  0  0  0  0  0  0  0  0  0
  141.4943   78.9150  220.6453 H   0  0  0  0  0  0  0  0  0  0  0  0
  137.7902   77.1665  222.3188 H   0  0  0  0  0  0  0  0  0  0  0  0
  138.0800   79.5891  222.9162 H   0  0  0  0  0  0  0  0  0  0  0  0
  139.5551   81.4713  223.4195 H   0  0  0  0  0  0  0  0  0  0  0  0
  141.8443   82.3876  223.7114 H   0  0  0  0  0  0  0  0  0  0  0  0
  143.8362   80.9046  223.4133 H   0  0  0  0  0  0  0  0  0  0  0  0
  143.5138   78.5103  222.8189 H   0  0  0  0  0  0  0  0  0  0  0  0
  1  2  2  0
  2  3  1  0
  3  4  1  0
  4  5  1  0
  5  6  2  0
  5  7  1  0
  7  8  1  0
  8  9  1  0
  9 10  1  0
 10 11  1  0
 11 12  1  0
 12 13  1  0
 13 14  1  0
 14 15  1  0
 15 16  2  0
 16 17  1  0
 17 18  2  0
 18 19  1  0
 18 20  1  0
 20 21  2  0
  2 22  1  0
 22 23  2  0
 23 24  1  0
 24 25  2  0
 25 26  1  0
 26 27  2  0
 27 28  1  0
 28 29  2  0
 29 30  1  0
 30 31  2  0
 11  7  1  0
 21 15  1  0
 31 22  1  0
 30 25  1  0
  3 32  1  0
  4 33  1  0
  4 34  1  0
  8 35  1  0
  8 36  1  0
  9 37  1  0
  9 38  1  0
 10 39  1  0
 10 40  1  0
 11 41  1  1
 12 42  1  0
 12 43  1  0
 13 44  1  0
 14 45  1  0
 14 46  1  0
 16 47  1  0
 17 48  1  0
 20 49  1  0
 21 50  1  0
 23 51  1  0
 24 52  1  0
 26 53  1  0
 27 54  1  0
 28 55  1  0
 29 56  1  0
M  END
>  <smiles>  (17) 
O=C(NCC(=O)N1CCC[C@H]1CNCc1ccc(Cl)cc1)c1ccc2ccccc2n1

>  <score_type>  (17) 
oracle

>  <origin>  (17) 
autodockgpu

>  <m_score__min__energy>  (17) 
-8.8800000000000008

>  <m_primary>  (17) 
energy

>  <rmsd>  (17) 
6.940368534691478

>  <m_score__min__rmsd>  (17) 
6.940368534691478

>  <meeko>  (17) 
{"free_energy": -7.38, "intermolecular_energy": -9.76, "internal_energy": -4.16, "cluster_size": 23, "cluster_id": 5, "rank_in_cluster": 7}

>  <energy>  (17) 
-6.73

>  <cluster_rmsd>  (17) 
1.98

>  <cluster>  (17) 
4

$$$$

     RDKit          3D

 56 59  0  0  0  0  0  0  0  0999 V2000
  140.8120   71.5950  221.2940 O   0  0  0  0  0  0  0  0  0  0  0  0
  140.3310   72.1440  222.3440 C   0  0  0  0  0  0  0  0  0  0  0  0
  139.9280   73.5250  222.3340 N   0  0  0  0  0  0  0  0  0  0  0  0
  140.0430   74.3490  221.1870 C   0  0  0  0  0  0  0  0  0  0  0  0
  140.2400   75.7780  221.3460 C   0  0  0  0  0  0  0  0  0  0  0  0
  140.0690   76.2210  222.5570 O   0  0  0  0  0  0  0  0  0  0  0  0
  140.5910   76.7480  220.3940 N   0  0  0  0  0  0  0  0  0  0  0  0
  139.8640   77.3450  219.2900 C   0  0  0  0  0  0  0  0  0  0  0  0
  140.8910   77.7620  218.2520 C   0  0  0  0  0  0  0  0  0  0  0  0
  142.1930   77.3320  218.8660 C   0  0  0  0  0  0  0  0  0  0  0  0
  141.9010   77.4090  220.3320 C   0  0  1  0  0  0  0  0  0  0  0  0
  141.8190   78.8460  220.7890 C   0  0  0  0  0  0  0  0  0  0  0  0
  142.5240   79.0010  222.0150 N   0  0  0  0  0  0  0  0  0  0  0  0
  142.2490   80.1840  222.7660 C   0  0  0  0  0  0  0  0  0  0  0  0
  140.8180   80.4520  223.0050 C   0  0  0  0  0  0  0  0  0  0  0  0
  140.1120   81.4930  222.4640 C   0  0  0  0  0  0  0  0  0  0  0  0
  138.7690   81.6970  222.7240 C   0  0  0  0  0  0  0  0  0  0  0  0
  138.0870   80.8330  223.5590 C   0  0  0  0  0  0  0  0  0  0  0  0
  136.3750   81.0450  223.9250 Cl  0  0  0  0  0  0  0  0  0  0  0  0
  138.7900   79.7790  224.1100 C   0  0  0  0  0  0  0  0  0  0  0  0
  140.1360   79.5890  223.8390 C   0  0  0  0  0  0  0  0  0  0  0  0
  140.1880   71.3600  223.5770 C   0  0  0  0  0  0  0  0  0  0  0  0
  139.5960   70.1160  223.5160 C   0  0  0  0  0  0  0  0  0  0  0  0
  139.4790   69.4050  224.7120 C   0  0  0  0  0  0  0  0  0  0  0  0
  139.9460   69.9390  225.9130 C   0  0  0  0  0  0  0  0  0  0  0  0
  139.8400   69.2510  227.1050 C   0  0  0  0  0  0  0  0  0  0  0  0
  140.3130   69.8050  228.2880 C   0  0  0  0  0  0  0  0  0  0  0  0
  140.9050   71.0730  228.2810 C   0  0  0  0  0  0  0  0  0  0  0  0
  141.0160   71.7700  227.0940 C   0  0  0  0  0  0  0  0  0  0  0  0
  140.5340   71.1950  225.9130 C   0  0  0  0  0  0  0  0  0  0  0  0
  140.6260   71.8430  224.7480 N   0  0  0  0  0  0  0  0  0  0  0  0
  139.5340   73.8840  223.2520 H   0  0  0  0  0  0  0  0  0  0  0  0
  140.8982   73.9715  220.6073 H   0  0  0  0  0  0  0  0  0  0  0  0
  139.0500   74.2775  220.7192 H   0  0  0  0  0  0  0  0  0  0  0  0
  139.1665   76.6125  218.8576 H   0  0  0  0  0  0  0  0  0  0  0  0
  139.2777   78.2112  219.6304 H   0  0  0  0  0  0  0  0  0  0  0  0
  140.7168   77.2472  217.2956 H   0  0  0  0  0  0  0  0  0  0  0  0
  140.8576   78.8366  218.0193 H   0  0  0  0  0  0  0  0  0  0  0  0
  142.4544   76.3065  218.5661 H   0  0  0  0  0  0  0  0  0  0  0  0
  143.0489   77.9496  218.5564 H   0  0  0  0  0  0  0  0  0  0  0  0
  142.6651   76.9512  220.9775 H   0  0  0  0  0  0  0  0  0  0  0  0
  142.2666   79.4986  220.0250 H   0  0  0  0  0  0  0  0  0  0  0  0
  140.7644   79.1208  220.9383 H   0  0  0  0  0  0  0  0  0  0  0  0
  143.5430   78.7750  221.9540 H   0  0  0  0  0  0  0  0  0  0  0  0
  142.7467   80.0916  223.7426 H   0  0  0  0  0  0  0  0  0  0  0  0
  142.6228   81.0248  222.1632 H   0  0  0  0  0  0  0  0  0  0  0  0
  140.6335   82.1946  221.7963 H   0  0  0  0  0  0  0  0  0  0  0  0
  138.2435   82.5477  222.2657 H   0  0  0  0  0  0  0  0  0  0  0  0
  138.2707   79.0759  224.7777 H   0  0  0  0  0  0  0  0  0  0  0  0
  140.6672   78.7401  224.2941 H   0  0  0  0  0  0  0  0  0  0  0  0
  139.2311   69.7011  222.5648 H   0  0  0  0  0  0  0  0  0  0  0  0
  139.0117   68.4092  224.7070 H   0  0  0  0  0  0  0  0  0  0  0  0
  139.3762   68.2537  227.1184 H   0  0  0  0  0  0  0  0  0  0  0  0
  140.2221   69.2463  229.2312 H   0  0  0  0  0  0  0  0  0  0  0  0
  141.2803   71.5126  229.2169 H   0  0  0  0  0  0  0  0  0  0  0  0
  141.4789   72.7677  227.0771 H   0  0  0  0  0  0  0  0  0  0  0  0
  1  2  2  0
  2  3  1  0
  3  4  1  0
  4  5  1  0
  5  6  2  0
  5  7  1  0
  7  8  1  0
  8  9  1  0
  9 10  1  0
 10 11  1  0
 11 12  1  0
 12 13  1  0
 13 14  1  0
 14 15  1  0
 15 16  2  0
 16 17  1  0
 17 18  2  0
 18 19  1  0
 18 20  1  0
 20 21  2  0
  2 22  1  0
 22 23  2  0
 23 24  1  0
 24 25  2  0
 25 26  1  0
 26 27  2  0
 27 28  1  0
 28 29  2  0
 29 30  1  0
 30 31  2  0
 11  7  1  0
 21 15  1  0
 31 22  1  0
 30 25  1  0
  3 32  1  0
  4 33  1  0
  4 34  1  0
  8 35  1  0
  8 36  1  0
  9 37  1  0
  9 38  1  0
 10 39  1  0
 10 40  1  0
 11 41  1  1
 12 42  1  0
 12 43  1  0
 13 44  1  0
 14 45  1  0
 14 46  1  0
 16 47  1  0
 17 48  1  0
 20 49  1  0
 21 50  1  0
 23 51  1  0
 24 52  1  0
 26 53  1  0
 27 54  1  0
 28 55  1  0
 29 56  1  0
M  END
>  <smiles>  (18) 
O=C(NCC(=O)N1CCC[C@H]1CNCc1ccc(Cl)cc1)c1ccc2ccccc2n1

>  <score_type>  (18) 
oracle

>  <origin>  (18) 
autodockgpu

>  <m_score__min__energy>  (18) 
-8.8800000000000008

>  <m_primary>  (18) 
energy

>  <rmsd>  (18) 
2.229901739825445

>  <m_score__min__rmsd>  (18) 
2.229901739825445

>  <meeko>  (18) 
{"free_energy": -8.88, "intermolecular_energy": -11.27, "internal_energy": -1.89, "cluster_size": 1, "cluster_id": 1, "rank_in_cluster": 1}

>  <energy>  (18) 
-6.68

>  <cluster_rmsd>  (18) 
1.95

>  <cluster>  (18) 
4

$$$$

     RDKit          3D

 56 59  0  0  0  0  0  0  0  0999 V2000
  138.6540   75.3460  222.1130 O   0  0  0  0  0  0  0  0  0  0  0  0
  139.8420   75.8170  222.1100 C   0  0  0  0  0  0  0  0  0  0  0  0
  140.9510   75.0150  221.6660 N   0  0  0  0  0  0  0  0  0  0  0  0
  140.8000   73.6780  221.2220 C   0  0  0  0  0  0  0  0  0  0  0  0
  141.6370   73.1790  220.1460 C   0  0  0  0  0  0  0  0  0  0  0  0
  141.1070   72.2230  219.4420 O   0  0  0  0  0  0  0  0  0  0  0  0
  142.9240   73.5760  219.7510 N   0  0  0  0  0  0  0  0  0  0  0  0
  143.7620   73.2050  218.6270 C   0  0  0  0  0  0  0  0  0  0  0  0
  145.2050   73.3820  219.0680 C   0  0  0  0  0  0  0  0  0  0  0  0
  145.0740   73.8450  220.4920 C   0  0  0  0  0  0  0  0  0  0  0  0
  143.7510   74.5440  220.4840 C   0  0  1  0  0  0  0  0  0  0  0  0
  143.8430   75.8610  219.7530 C   0  0  0  0  0  0  0  0  0  0  0  0
  142.6610   76.6200  219.9800 N   0  0  0  0  0  0  0  0  0  0  0  0
  142.2700   77.5200  218.9420 C   0  0  0  0  0  0  0  0  0  0  0  0
  141.5700   78.7350  219.4030 C   0  0  0  0  0  0  0  0  0  0  0  0
  142.1700   79.9430  219.6420 C   0  0  0  0  0  0  0  0  0  0  0  0
  141.4650   81.0520  220.0740 C   0  0  0  0  0  0  0  0  0  0  0  0
  140.1010   80.9670  220.2810 C   0  0  0  0  0  0  0  0  0  0  0  0
  139.1520   82.3480  220.8310 Cl  0  0  0  0  0  0  0  0  0  0  0  0
  139.4860   79.7530  220.0420 C   0  0  0  0  0  0  0  0  0  0  0  0
  140.2090   78.6510  219.6090 C   0  0  0  0  0  0  0  0  0  0  0  0
  140.0830   77.1920  222.5640 C   0  0  0  0  0  0  0  0  0  0  0  0
  139.0110   77.9660  222.9550 C   0  0  0  0  0  0  0  0  0  0  0  0
  139.2850   79.2680  223.3790 C   0  0  0  0  0  0  0  0  0  0  0  0
  140.5920   79.7560  223.4020 C   0  0  0  0  0  0  0  0  0  0  0  0
  140.8830   81.0390  223.8190 C   0  0  0  0  0  0  0  0  0  0  0  0
  142.1930   81.5000  223.8330 C   0  0  0  0  0  0  0  0  0  0  0  0
  143.2360   80.6620  223.4240 C   0  0  0  0  0  0  0  0  0  0  0  0
  142.9570   79.3760  223.0060 C   0  0  0  0  0  0  0  0  0  0  0  0
  141.6310   78.9290  222.9990 C   0  0  0  0  0  0  0  0  0  0  0  0
  141.3270   77.6910  222.5990 N   0  0  0  0  0  0  0  0  0  0  0  0
  141.8950   75.4990  221.6930 H   0  0  0  0  0  0  0  0  0  0  0  0
  140.9799   73.0304  222.0928 H   0  0  0  0  0  0  0  0  0  0  0  0
  139.7894   73.6647  220.7878 H   0  0  0  0  0  0  0  0  0  0  0  0
  143.5782   72.1566  218.3492 H   0  0  0  0  0  0  0  0  0  0  0  0
  143.5409   73.8315  217.7503 H   0  0  0  0  0  0  0  0  0  0  0  0
  145.7544   72.4307  219.0114 H   0  0  0  0  0  0  0  0  0  0  0  0
  145.7665   74.0853  218.4354 H   0  0  0  0  0  0  0  0  0  0  0  0
  145.0696   72.9934  221.1882 H   0  0  0  0  0  0  0  0  0  0  0  0
  145.9058   74.4837  220.8241 H   0  0  0  0  0  0  0  0  0  0  0  0
  143.3618   74.8020  221.4800 H   0  0  0  0  0  0  0  0  0  0  0  0
  144.7144   76.4229  220.1205 H   0  0  0  0  0  0  0  0  0  0  0  0
  143.9527   75.6720  218.6749 H   0  0  0  0  0  0  0  0  0  0  0  0
  142.5980   77.0360  220.9370 H   0  0  0  0  0  0  0  0  0  0  0  0
  143.1757   77.8320  218.4013 H   0  0  0  0  0  0  0  0  0  0  0  0
  141.5537   76.9718  218.3124 H   0  0  0  0  0  0  0  0  0  0  0  0
  143.2548   80.0348  219.4842 H   0  0  0  0  0  0  0  0  0  0  0  0
  141.9901   82.0019  220.2529 H   0  0  0  0  0  0  0  0  0  0  0  0
  138.4013   79.6584  220.1982 H   0  0  0  0  0  0  0  0  0  0  0  0
  139.6901   77.6982  219.4277 H   0  0  0  0  0  0  0  0  0  0  0  0
  137.9833   77.5744  222.9338 H   0  0  0  0  0  0  0  0  0  0  0  0
  138.4581   79.9186  223.6997 H   0  0  0  0  0  0  0  0  0  0  0  0
  140.0688   81.7035  224.1437 H   0  0  0  0  0  0  0  0  0  0  0  0
  142.4108   82.5255  224.1661 H   0  0  0  0  0  0  0  0  0  0  0  0
  144.2739   81.0261  223.4354 H   0  0  0  0  0  0  0  0  0  0  0  0
  143.7694   78.7091  222.6815 H   0  0  0  0  0  0  0  0  0  0  0  0
  1  2  2  0
  2  3  1  0
  3  4  1  0
  4  5  1  0
  5  6  2  0
  5  7  1  0
  7  8  1  0
  8  9  1  0
  9 10  1  0
 10 11  1  0
 11 12  1  0
 12 13  1  0
 13 14  1  0
 14 15  1  0
 15 16  2  0
 16 17  1  0
 17 18  2  0
 18 19  1  0
 18 20  1  0
 20 21  2  0
  2 22  1  0
 22 23  2  0
 23 24  1  0
 24 25  2  0
 25 26  1  0
 26 27  2  0
 27 28  1  0
 28 29  2  0
 29 30  1  0
 30 31  2  0
 11  7  1  0
 21 15  1  0
 31 22  1  0
 30 25  1  0
  3 32  1  0
  4 33  1  0
  4 34  1  0
  8 35  1  0
  8 36  1  0
  9 37  1  0
  9 38  1  0
 10 39  1  0
 10 40  1  0
 11 41  1  1
 12 42  1  0
 12 43  1  0
 13 44  1  0
 14 45  1  0
 14 46  1  0
 16 47  1  0
 17 48  1  0
 20 49  1  0
 21 50  1  0
 23 51  1  0
 24 52  1  0
 26 53  1  0
 27 54  1  0
 28 55  1  0
 29 56  1  0
M  END
>  <smiles>  (19) 
O=C(NCC(=O)N1CCC[C@H]1CNCc1ccc(Cl)cc1)c1ccc2ccccc2n1

>  <score_type>  (19) 
oracle

>  <origin>  (19) 
autodockgpu

>  <m_score__min__energy>  (19) 
-8.8800000000000008

>  <m_primary>  (19) 
energy

>  <rmsd>  (19) 
6.834429159235307

>  <m_score__min__rmsd>  (19) 
6.834429159235307

>  <meeko>  (19) 
{"free_energy": -6.99, "intermolecular_energy": -9.38, "internal_energy": -5.03, "cluster_size": 12, "cluster_id": 4, "rank_in_cluster": 8}

>  <energy>  (19) 
-6.51

>  <cluster_rmsd>  (19) 
1.98

>  <cluster>  (19) 
4

$$$$

     RDKit          3D

 56 59  0  0  0  0  0  0  0  0999 V2000
  140.1260   73.0520  221.8920 O   0  0  0  0  0  0  0  0  0  0  0  0
  140.3790   71.8160  222.1010 C   0  0  0  0  0  0  0  0  0  0  0  0
  140.8120   70.9620  221.0270 N   0  0  0  0  0  0  0  0  0  0  0  0
  140.9720   71.4240  219.6970 C   0  0  0  0  0  0  0  0  0  0  0  0
  141.4750   72.7640  219.4580 C   0  0  0  0  0  0  0  0  0  0  0  0
  140.5620   73.6490  219.1870 O   0  0  0  0  0  0  0  0  0  0  0  0
  142.7940   73.2460  219.4800 N   0  0  0  0  0  0  0  0  0  0  0  0
  143.9830   72.8810  218.7350 C   0  0  0  0  0  0  0  0  0  0  0  0
  145.1790   73.2080  219.6130 C   0  0  0  0  0  0  0  0  0  0  0  0
  144.5460   73.7460  220.8660 C   0  0  0  0  0  0  0  0  0  0  0  0
  143.2630   74.3260  220.3580 C   0  0  1  0  0  0  0  0  0  0  0  0
  143.5170   75.5980  219.5860 C   0  0  0  0  0  0  0  0  0  0  0  0
  142.5670   75.7190  218.5340 N   0  0  0  0  0  0  0  0  0  0  0  0
  141.5510   76.7090  218.7000 C   0  0  0  0  0  0  0  0  0  0  0  0
  141.4730   77.3010  220.0500 C   0  0  0  0  0  0  0  0  0  0  0  0
  141.0440   76.6430  221.1720 C   0  0  0  0  0  0  0  0  0  0  0  0
  140.9900   77.2480  222.4150 C   0  0  0  0  0  0  0  0  0  0  0  0
  141.3780   78.5670  222.5600 C   0  0  0  0  0  0  0  0  0  0  0  0
  141.3300   79.3880  224.1200 Cl  0  0  0  0  0  0  0  0  0  0  0  0
  141.8120   79.2390  221.4340 C   0  0  0  0  0  0  0  0  0  0  0  0
  141.8590   78.6180  220.1950 C   0  0  0  0  0  0  0  0  0  0  0  0
  140.2280   71.2590  223.4500 C   0  0  0  0  0  0  0  0  0  0  0  0
  139.5250   70.0830  223.6140 C   0  0  0  0  0  0  0  0  0  0  0  0
  139.4040   69.5890  224.9150 C   0  0  0  0  0  0  0  0  0  0  0  0
  139.9750   70.2620  225.9950 C   0  0  0  0  0  0  0  0  0  0  0  0
  139.8670   69.7890  227.2870 C   0  0  0  0  0  0  0  0  0  0  0  0
  140.4440   70.4780  228.3460 C   0  0  0  0  0  0  0  0  0  0  0  0
  141.1450   71.6660  228.1100 C   0  0  0  0  0  0  0  0  0  0  0  0
  141.2600   72.1490  226.8210 C   0  0  0  0  0  0  0  0  0  0  0  0
  140.6720   71.4400  225.7680 C   0  0  0  0  0  0  0  0  0  0  0  0
  140.7640   71.8800  224.5100 N   0  0  0  0  0  0  0  0  0  0  0  0
  141.0050   69.9560  221.3030 H   0  0  0  0  0  0  0  0  0  0  0  0
  141.6646   70.7295  219.1990 H   0  0  0  0  0  0  0  0  0  0  0  0
  139.9417   71.4645  219.3138 H   0  0  0  0  0  0  0  0  0  0  0  0
  143.9678   71.8057  218.5035 H   0  0  0  0  0  0  0  0  0  0  0  0
  144.0334   73.4318  217.7842 H   0  0  0  0  0  0  0  0  0  0  0  0
  145.7709   72.3056  219.8259 H   0  0  0  0  0  0  0  0  0  0  0  0
  145.8787   73.9156  219.1442 H   0  0  0  0  0  0  0  0  0  0  0  0
  144.3584   72.9423  221.5932 H   0  0  0  0  0  0  0  0  0  0  0  0
  145.1761   74.4742  221.3976 H   0  0  0  0  0  0  0  0  0  0  0  0
  142.5448   74.6109  221.1410 H   0  0  0  0  0  0  0  0  0  0  0  0
  143.4252   76.4606  220.2624 H   0  0  0  0  0  0  0  0  0  0  0  0
  144.5306   75.5687  219.1596 H   0  0  0  0  0  0  0  0  0  0  0  0
  142.2020   74.8060  218.1800 H   0  0  0  0  0  0  0  0  0  0  0  0
  141.7438   77.5199  217.9822 H   0  0  0  0  0  0  0  0  0  0  0  0
  140.5919   76.1971  218.5324 H   0  0  0  0  0  0  0  0  0  0  0  0
  140.7302   75.5926  221.0813 H   0  0  0  0  0  0  0  0  0  0  0  0
  140.6382   76.6793  223.2884 H   0  0  0  0  0  0  0  0  0  0  0  0
  142.1271   80.2892  221.5220 H   0  0  0  0  0  0  0  0  0  0  0  0
  142.2081   79.1818  219.3174 H   0  0  0  0  0  0  0  0  0  0  0  0
  139.0790   69.5571  222.7570 H   0  0  0  0  0  0  0  0  0  0  0  0
  138.8500   68.6550  225.0904 H   0  0  0  0  0  0  0  0  0  0  0  0
  139.3177   68.8558  227.4803 H   0  0  0  0  0  0  0  0  0  0  0  0
  140.3499   70.0896  229.3708 H   0  0  0  0  0  0  0  0  0  0  0  0
  141.6026   72.2129  228.9476 H   0  0  0  0  0  0  0  0  0  0  0  0
  141.8085   73.0820  226.6244 H   0  0  0  0  0  0  0  0  0  0  0  0
  1  2  2  0
  2  3  1  0
  3  4  1  0
  4  5  1  0
  5  6  2  0
  5  7  1  0
  7  8  1  0
  8  9  1  0
  9 10  1  0
 10 11  1  0
 11 12  1  0
 12 13  1  0
 13 14  1  0
 14 15  1  0
 15 16  2  0
 16 17  1  0
 17 18  2  0
 18 19  1  0
 18 20  1  0
 20 21  2  0
  2 22  1  0
 22 23  2  0
 23 24  1  0
 24 25  2  0
 25 26  1  0
 26 27  2  0
 27 28  1  0
 28 29  2  0
 29 30  1  0
 30 31  2  0
 11  7  1  0
 21 15  1  0
 31 22  1  0
 30 25  1  0
  3 32  1  0
  4 33  1  0
  4 34  1  0
  8 35  1  0
  8 36  1  0
  9 37  1  0
  9 38  1  0
 10 39  1  0
 10 40  1  0
 11 41  1  1
 12 42  1  0
 12 43  1  0
 13 44  1  0
 14 45  1  0
 14 46  1  0
 16 47  1  0
 17 48  1  0
 20 49  1  0
 21 50  1  0
 23 51  1  0
 24 52  1  0
 26 53  1  0
 27 54  1  0
 28 55  1  0
 29 56  1  0
M  END
>  <smiles>  (20) 
O=C(NCC(=O)N1CCC[C@H]1CNCc1ccc(Cl)cc1)c1ccc2ccccc2n1

>  <score_type>  (20) 
oracle

>  <origin>  (20) 
autodockgpu

>  <m_score__min__energy>  (20) 
-8.8800000000000008

>  <m_primary>  (20) 
energy

>  <rmsd>  (20) 
3.891119622616482

>  <m_score__min__rmsd>  (20) 
3.891119622616482

>  <meeko>  (20) 
{"free_energy": -7.68, "intermolecular_energy": -10.07, "internal_energy": -2.42, "cluster_size": 12, "cluster_id": 4, "rank_in_cluster": 3}

>  <energy>  (20) 
-7.78

>  <cluster_rmsd>  (20) 
0.0

>  <cluster>  (20) 
5

$$$$

     RDKit          3D

 56 59  0  0  0  0  0  0  0  0999 V2000
  138.8570   74.9470  221.8780 O   0  0  0  0  0  0  0  0  0  0  0  0
  140.0220   75.4680  221.9650 C   0  0  0  0  0  0  0  0  0  0  0  0
  141.2000   74.6840  221.7000 N   0  0  0  0  0  0  0  0  0  0  0  0
  141.1440   73.3140  221.3430 C   0  0  0  0  0  0  0  0  0  0  0  0
  142.1490   72.7630  220.4520 C   0  0  0  0  0  0  0  0  0  0  0  0
  141.8450   71.6110  219.9330 O   0  0  0  0  0  0  0  0  0  0  0  0
  143.3920   73.2890  220.0650 N   0  0  0  0  0  0  0  0  0  0  0  0
  144.3040   72.9560  218.9870 C   0  0  0  0  0  0  0  0  0  0  0  0
  145.7000   73.3320  219.4510 C   0  0  0  0  0  0  0  0  0  0  0  0
  145.4700   73.8600  220.8390 C   0  0  0  0  0  0  0  0  0  0  0  0
  144.0730   74.3920  220.7550 C   0  0  1  0  0  0  0  0  0  0  0  0
  144.0310   75.6650  219.9450 C   0  0  0  0  0  0  0  0  0  0  0  0
  142.7330   76.2410  220.0230 N   0  0  0  0  0  0  0  0  0  0  0  0
  142.2200   76.8270  218.8260 C   0  0  0  0  0  0  0  0  0  0  0  0
  141.9610   78.2780  218.9040 C   0  0  0  0  0  0  0  0  0  0  0  0
  140.9560   78.8580  219.6300 C   0  0  0  0  0  0  0  0  0  0  0  0
  140.7580   80.2270  219.6670 C   0  0  0  0  0  0  0  0  0  0  0  0
  141.5920   81.0660  218.9530 C   0  0  0  0  0  0  0  0  0  0  0  0
  141.3870   82.8170  218.9630 Cl  0  0  0  0  0  0  0  0  0  0  0  0
  142.6100   80.4900  218.2160 C   0  0  0  0  0  0  0  0  0  0  0  0
  142.7930   79.1160  218.1910 C   0  0  0  0  0  0  0  0  0  0  0  0
  140.1640   76.8790  222.3400 C   0  0  0  0  0  0  0  0  0  0  0  0
  139.0300   77.6320  222.5620 C   0  0  0  0  0  0  0  0  0  0  0  0
  139.2110   78.9700  222.9160 C   0  0  0  0  0  0  0  0  0  0  0  0
  140.4900   79.5150  223.0360 C   0  0  0  0  0  0  0  0  0  0  0  0
  140.6890   80.8350  223.3850 C   0  0  0  0  0  0  0  0  0  0  0  0
  141.9720   81.3530  223.4980 C   0  0  0  0  0  0  0  0  0  0  0  0
  143.0820   80.5350  223.2590 C   0  0  0  0  0  0  0  0  0  0  0  0
  142.8950   79.2120  222.9100 C   0  0  0  0  0  0  0  0  0  0  0  0
  141.5940   78.7090  222.8010 C   0  0  0  0  0  0  0  0  0  0  0  0
  141.3780   77.4340  222.4640 N   0  0  0  0  0  0  0  0  0  0  0  0
  142.1170   75.2090  221.7910 H   0  0  0  0  0  0  0  0  0  0  0  0
  141.1962   72.7378  222.2786 H   0  0  0  0  0  0  0  0  0  0  0  0
  140.2143   73.2382  220.7600 H   0  0  0  0  0  0  0  0  0  0  0  0
  144.2556   71.8785  218.7711 H   0  0  0  0  0  0  0  0  0  0  0  0
  144.0378   73.4979  218.0675 H   0  0  0  0  0  0  0  0  0  0  0  0
  146.3603   72.4524  219.4680 H   0  0  0  0  0  0  0  0  0  0  0  0
  146.1933   74.0591  218.7892 H   0  0  0  0  0  0  0  0  0  0  0  0
  145.5456   73.0574  221.5874 H   0  0  0  0  0  0  0  0  0  0  0  0
  146.2086   74.6135  221.1499 H   0  0  0  0  0  0  0  0  0  0  0  0
  143.6235   74.6598  221.7226 H   0  0  0  0  0  0  0  0  0  0  0  0
  144.7707   76.3756  220.3423 H   0  0  0  0  0  0  0  0  0  0  0  0
  144.2651   75.4361  218.8949 H   0  0  0  0  0  0  0  0  0  0  0  0
  142.5760   76.8280  220.8730 H   0  0  0  0  0  0  0  0  0  0  0  0
  142.9493   76.6532  218.0211 H   0  0  0  0  0  0  0  0  0  0  0  0
  141.2459   76.3499  218.6428 H   0  0  0  0  0  0  0  0  0  0  0  0
  140.2792   78.2104  220.2067 H   0  0  0  0  0  0  0  0  0  0  0  0
  139.9362   80.6476  220.2652 H   0  0  0  0  0  0  0  0  0  0  0  0
  143.2883   81.1347  217.6379 H   0  0  0  0  0  0  0  0  0  0  0  0
  143.6125   78.6884  217.5947 H   0  0  0  0  0  0  0  0  0  0  0  0
  138.0247   77.1963  222.4641 H   0  0  0  0  0  0  0  0  0  0  0  0
  138.3321   79.6044  223.1032 H   0  0  0  0  0  0  0  0  0  0  0  0
  139.8216   81.4840  223.5758 H   0  0  0  0  0  0  0  0  0  0  0  0
  142.1163   82.4075  223.7757 H   0  0  0  0  0  0  0  0  0  0  0  0
  144.0991   80.9441  223.3487 H   0  0  0  0  0  0  0  0  0  0  0  0
  143.7603   78.5601  222.7196 H   0  0  0  0  0  0  0  0  0  0  0  0
  1  2  2  0
  2  3  1  0
  3  4  1  0
  4  5  1  0
  5  6  2  0
  5  7  1  0
  7  8  1  0
  8  9  1  0
  9 10  1  0
 10 11  1  0
 11 12  1  0
 12 13  1  0
 13 14  1  0
 14 15  1  0
 15 16  2  0
 16 17  1  0
 17 18  2  0
 18 19  1  0
 18 20  1  0
 20 21  2  0
  2 22  1  0
 22 23  2  0
 23 24  1  0
 24 25  2  0
 25 26  1  0
 26 27  2  0
 27 28  1  0
 28 29  2  0
 29 30  1  0
 30 31  2  0
 11  7  1  0
 21 15  1  0
 31 22  1  0
 30 25  1  0
  3 32  1  0
  4 33  1  0
  4 34  1  0
  8 35  1  0
  8 36  1  0
  9 37  1  0
  9 38  1  0
 10 39  1  0
 10 40  1  0
 11 41  1  1
 12 42  1  0
 12 43  1  0
 13 44  1  0
 14 45  1  0
 14 46  1  0
 16 47  1  0
 17 48  1  0
 20 49  1  0
 21 50  1  0
 23 51  1  0
 24 52  1  0
 26 53  1  0
 27 54  1  0
 28 55  1  0
 29 56  1  0
M  END
>  <smiles>  (21) 
O=C(NCC(=O)N1CCC[C@H]1CNCc1ccc(Cl)cc1)c1ccc2ccccc2n1

>  <score_type>  (21) 
oracle

>  <origin>  (21) 
autodockgpu

>  <m_score__min__energy>  (21) 
-8.8800000000000008

>  <m_primary>  (21) 
energy

>  <rmsd>  (21) 
6.89041041458018

>  <m_score__min__rmsd>  (21) 
6.89041041458018

>  <meeko>  (21) 
{"free_energy": -7.35, "intermolecular_energy": -9.73, "internal_energy": -4.58, "cluster_size": 23, "cluster_id": 5, "rank_in_cluster": 9}

>  <energy>  (21) 
-7.72

>  <cluster_rmsd>  (21) 
0.34

>  <cluster>  (21) 
5

$$$$

     RDKit          3D

 56 59  0  0  0  0  0  0  0  0999 V2000
  138.6150   75.3230  222.1330 O   0  0  0  0  0  0  0  0  0  0  0  0
  139.8000   75.7990  222.0720 C   0  0  0  0  0  0  0  0  0  0  0  0
  140.8850   75.0080  221.5530 N   0  0  0  0  0  0  0  0  0  0  0  0
  140.7130   73.6780  221.0950 C   0  0  0  0  0  0  0  0  0  0  0  0
  141.8640   72.9230  220.6350 C   0  0  0  0  0  0  0  0  0  0  0  0
  141.7130   71.6320  220.6570 O   0  0  0  0  0  0  0  0  0  0  0  0
  143.1080   73.3760  220.1680 N   0  0  0  0  0  0  0  0  0  0  0  0
  144.0500   72.8360  219.2060 C   0  0  0  0  0  0  0  0  0  0  0  0
  145.4300   73.3300  219.6060 C   0  0  0  0  0  0  0  0  0  0  0  0
  145.1590   74.1410  220.8420 C   0  0  0  0  0  0  0  0  0  0  0  0
  143.7570   74.6150  220.6170 C   0  0  1  0  0  0  0  0  0  0  0  0
  143.7150   75.6820  219.5490 C   0  0  0  0  0  0  0  0  0  0  0  0
  142.6890   76.6200  219.8480 N   0  0  0  0  0  0  0  0  0  0  0  0
  142.5110   77.6910  218.9200 C   0  0  0  0  0  0  0  0  0  0  0  0
  141.6910   78.8140  219.4130 C   0  0  0  0  0  0  0  0  0  0  0  0
  142.1670   80.0610  219.7150 C   0  0  0  0  0  0  0  0  0  0  0  0
  141.3510   81.0790  220.1760 C   0  0  0  0  0  0  0  0  0  0  0  0
  139.9980   80.8560  220.3480 C   0  0  0  0  0  0  0  0  0  0  0  0
  138.9110   82.1170  220.9320 Cl  0  0  0  0  0  0  0  0  0  0  0  0
  139.5070   79.6010  220.0460 C   0  0  0  0  0  0  0  0  0  0  0  0
  140.3400   78.5920  219.5850 C   0  0  0  0  0  0  0  0  0  0  0  0
  140.0620   77.1660  222.5360 C   0  0  0  0  0  0  0  0  0  0  0  0
  139.0090   77.9340  222.9870 C   0  0  0  0  0  0  0  0  0  0  0  0
  139.3030   79.2290  223.4180 C   0  0  0  0  0  0  0  0  0  0  0  0
  140.6100   79.7160  223.3920 C   0  0  0  0  0  0  0  0  0  0  0  0
  140.9200   80.9930  223.8150 C   0  0  0  0  0  0  0  0  0  0  0  0
  142.2300   81.4530  223.7780 C   0  0  0  0  0  0  0  0  0  0  0  0
  143.2530   80.6220  223.3090 C   0  0  0  0  0  0  0  0  0  0  0  0
  142.9540   79.3420  222.8840 C   0  0  0  0  0  0  0  0  0  0  0  0
  141.6290   78.8960  222.9290 C   0  0  0  0  0  0  0  0  0  0  0  0
  141.3060   77.6640  222.5240 N   0  0  0  0  0  0  0  0  0  0  0  0
  141.8270   75.4950  221.5360 H   0  0  0  0  0  0  0  0  0  0  0  0
  140.2691   73.1092  221.9254 H   0  0  0  0  0  0  0  0  0  0  0  0
  140.1034   73.7958  220.1869 H   0  0  0  0  0  0  0  0  0  0  0  0
  144.0221   71.7366  219.2269 H   0  0  0  0  0  0  0  0  0  0  0  0
  143.7980   73.1619  218.1860 H   0  0  0  0  0  0  0  0  0  0  0  0
  146.1021   72.4875  219.8264 H   0  0  0  0  0  0  0  0  0  0  0  0
  145.9289   73.9060  218.8127 H   0  0  0  0  0  0  0  0  0  0  0  0
  145.2284   73.5207  221.7477 H   0  0  0  0  0  0  0  0  0  0  0  0
  145.8788   74.9582  220.9970 H   0  0  0  0  0  0  0  0  0  0  0  0
  143.2817   75.0767  221.4950 H   0  0  0  0  0  0  0  0  0  0  0  0
  144.6845   76.2003  219.5117 H   0  0  0  0  0  0  0  0  0  0  0  0
  143.5081   75.2143  218.5751 H   0  0  0  0  0  0  0  0  0  0  0  0
  142.6690   76.9290  220.8470 H   0  0  0  0  0  0  0  0  0  0  0  0
  143.5045   78.0835  218.6574 H   0  0  0  0  0  0  0  0  0  0  0  0
  141.9679   77.2673  218.0624 H   0  0  0  0  0  0  0  0  0  0  0  0
  143.2408   80.2620  219.5862 H   0  0  0  0  0  0  0  0  0  0  0  0
  141.7793   82.0659  220.4056 H   0  0  0  0  0  0  0  0  0  0  0  0
  138.4336   79.3973  220.1736 H   0  0  0  0  0  0  0  0  0  0  0  0
  139.9183   77.6027  219.3537 H   0  0  0  0  0  0  0  0  0  0  0  0
  137.9811   77.5428  223.0063 H   0  0  0  0  0  0  0  0  0  0  0  0
  138.4915   79.8753  223.7837 H   0  0  0  0  0  0  0  0  0  0  0  0
  140.1215   81.6528  224.1851 H   0  0  0  0  0  0  0  0  0  0  0  0
  142.4636   82.4727  224.1181 H   0  0  0  0  0  0  0  0  0  0  0  0
  144.2906   80.9861  223.2788 H   0  0  0  0  0  0  0  0  0  0  0  0
  143.7504   78.6797  222.5137 H   0  0  0  0  0  0  0  0  0  0  0  0
  1  2  2  0
  2  3  1  0
  3  4  1  0
  4  5  1  0
  5  6  2  0
  5  7  1  0
  7  8  1  0
  8  9  1  0
  9 10  1  0
 10 11  1  0
 11 12  1  0
 12 13  1  0
 13 14  1  0
 14 15  1  0
 15 16  2  0
 16 17  1  0
 17 18  2  0
 18 19  1  0
 18 20  1  0
 20 21  2  0
  2 22  1  0
 22 23  2  0
 23 24  1  0
 24 25  2  0
 25 26  1  0
 26 27  2  0
 27 28  1  0
 28 29  2  0
 29 30  1  0
 30 31  2  0
 11  7  1  0
 21 15  1  0
 31 22  1  0
 30 25  1  0
  3 32  1  0
  4 33  1  0
  4 34  1  0
  8 35  1  0
  8 36  1  0
  9 37  1  0
  9 38  1  0
 10 39  1  0
 10 40  1  0
 11 41  1  1
 12 42  1  0
 12 43  1  0
 13 44  1  0
 14 45  1  0
 14 46  1  0
 16 47  1  0
 17 48  1  0
 20 49  1  0
 21 50  1  0
 23 51  1  0
 24 52  1  0
 26 53  1  0
 27 54  1  0
 28 55  1  0
 29 56  1  0
M  END
>  <smiles>  (22) 
O=C(NCC(=O)N1CCC[C@H]1CNCc1ccc(Cl)cc1)c1ccc2ccccc2n1

>  <score_type>  (22) 
oracle

>  <origin>  (22) 
autodockgpu

>  <m_score__min__energy>  (22) 
-8.8800000000000008

>  <m_primary>  (22) 
energy

>  <rmsd>  (22) 
6.862640982666

>  <m_score__min__rmsd>  (22) 
6.862640982666

>  <meeko>  (22) 
{"free_energy": -7.06, "intermolecular_energy": -9.45, "internal_energy": -4.84, "cluster_size": 12, "cluster_id": 4, "rank_in_cluster": 6}

>  <energy>  (22) 
-7.59

>  <cluster_rmsd>  (22) 
0.56

>  <cluster>  (22) 
5

$$$$

     RDKit          3D

 56 59  0  0  0  0  0  0  0  0999 V2000
  143.6530   77.2510  218.9380 O   0  0  0  0  0  0  0  0  0  0  0  0
  142.6100   77.0130  219.6390 C   0  0  0  0  0  0  0  0  0  0  0  0
  141.6680   78.0590  219.9360 N   0  0  0  0  0  0  0  0  0  0  0  0
  141.8380   79.3930  219.4880 C   0  0  0  0  0  0  0  0  0  0  0  0
  141.6430   80.4920  220.4150 C   0  0  0  0  0  0  0  0  0  0  0  0
  141.2280   81.5980  219.8710 O   0  0  0  0  0  0  0  0  0  0  0  0
  141.8300   80.5390  221.8060 N   0  0  0  0  0  0  0  0  0  0  0  0
  141.3310   81.4330  222.8330 C   0  0  0  0  0  0  0  0  0  0  0  0
  142.3530   81.4390  223.9560 C   0  0  0  0  0  0  0  0  0  0  0  0
  143.4240   80.5150  223.4490 C   0  0  0  0  0  0  0  0  0  0  0  0
  142.6570   79.5870  222.5600 C   0  0  1  0  0  0  0  0  0  0  0  0
  141.8100   78.6390  223.3740 C   0  0  0  0  0  0  0  0  0  0  0  0
  141.1160   77.7500  222.5080 N   0  0  0  0  0  0  0  0  0  0  0  0
  139.6970   77.6860  222.6600 C   0  0  0  0  0  0  0  0  0  0  0  0
  139.0290   78.9900  222.8370 C   0  0  0  0  0  0  0  0  0  0  0  0
  138.8790   79.6390  224.0330 C   0  0  0  0  0  0  0  0  0  0  0  0
  138.2420   80.8630  224.1420 C   0  0  0  0  0  0  0  0  0  0  0  0
  137.7290   81.4770  223.0160 C   0  0  0  0  0  0  0  0  0  0  0  0
  136.9080   83.0360  223.0950 Cl  0  0  0  0  0  0  0  0  0  0  0  0
  137.8750   80.8300  221.8040 C   0  0  0  0  0  0  0  0  0  0  0  0
  138.5160   79.6040  221.7130 C   0  0  0  0  0  0  0  0  0  0  0  0
  142.3680   75.6580  220.1490 C   0  0  0  0  0  0  0  0  0  0  0  0
  143.3250   74.6860  219.9490 C   0  0  0  0  0  0  0  0  0  0  0  0
  143.0540   73.4100  220.4500 C   0  0  0  0  0  0  0  0  0  0  0  0
  141.8610   73.1420  221.1230 C   0  0  0  0  0  0  0  0  0  0  0  0
  141.5750   71.8890  221.6260 C   0  0  0  0  0  0  0  0  0  0  0  0
  140.3810   71.6480  222.2920 C   0  0  0  0  0  0  0  0  0  0  0  0
  139.4520   72.6800  222.4610 C   0  0  0  0  0  0  0  0  0  0  0  0
  139.7270   73.9380  221.9620 C   0  0  0  0  0  0  0  0  0  0  0  0
  140.9360   74.1610  221.2950 C   0  0  0  0  0  0  0  0  0  0  0  0
  141.2330   75.3670  220.8000 N   0  0  0  0  0  0  0  0  0  0  0  0
  140.8330   77.7590  220.5170 H   0  0  0  0  0  0  0  0  0  0  0  0
  142.8676   79.4738  219.1093 H   0  0  0  0  0  0  0  0  0  0  0  0
  141.0246   79.5246  218.7593 H   0  0  0  0  0  0  0  0  0  0  0  0
  141.2130   82.4477  222.4250 H   0  0  0  0  0  0  0  0  0  0  0  0
  140.3492   81.0986  223.1994 H   0  0  0  0  0  0  0  0  0  0  0  0
  142.7510   82.4510  224.1220 H   0  0  0  0  0  0  0  0  0  0  0  0
  141.9337   81.1246  224.9231 H   0  0  0  0  0  0  0  0  0  0  0  0
  144.1892   81.0662  222.8827 H   0  0  0  0  0  0  0  0  0  0  0  0
  143.9741   79.9999  224.2503 H   0  0  0  0  0  0  0  0  0  0  0  0
  143.2794   78.9356  221.9289 H   0  0  0  0  0  0  0  0  0  0  0  0
  142.4564   78.0602  224.0501 H   0  0  0  0  0  0  0  0  0  0  0  0
  141.0815   79.2161  223.9624 H   0  0  0  0  0  0  0  0  0  0  0  0
  141.5660   76.8120  222.4080 H   0  0  0  0  0  0  0  0  0  0  0  0
  139.2789   77.2076  221.7621 H   0  0  0  0  0  0  0  0  0  0  0  0
  139.5122   77.1181  223.5838 H   0  0  0  0  0  0  0  0  0  0  0  0
  139.2804   79.1693  224.9431 H   0  0  0  0  0  0  0  0  0  0  0  0
  138.1443   81.3467  225.1251 H   0  0  0  0  0  0  0  0  0  0  0  0
  137.4744   81.2973  220.8923 H   0  0  0  0  0  0  0  0  0  0  0  0
  138.6168   79.1149  220.7329 H   0  0  0  0  0  0  0  0  0  0  0  0
  144.2626   74.9057  219.4173 H   0  0  0  0  0  0  0  0  0  0  0  0
  143.7913   72.6054  220.3120 H   0  0  0  0  0  0  0  0  0  0  0  0
  142.3009   71.0725  221.4978 H   0  0  0  0  0  0  0  0  0  0  0  0
  140.1652   70.6444  222.6873 H   0  0  0  0  0  0  0  0  0  0  0  0
  138.5060   72.4903  222.9893 H   0  0  0  0  0  0  0  0  0  0  0  0
  139.0027   74.7562  222.0878 H   0  0  0  0  0  0  0  0  0  0  0  0
  1  2  2  0
  2  3  1  0
  3  4  1  0
  4  5  1  0
  5  6  2  0
  5  7  1  0
  7  8  1  0
  8  9  1  0
  9 10  1  0
 10 11  1  0
 11 12  1  0
 12 13  1  0
 13 14  1  0
 14 15  1  0
 15 16  2  0
 16 17  1  0
 17 18  2  0
 18 19  1  0
 18 20  1  0
 20 21  2  0
  2 22  1  0
 22 23  2  0
 23 24  1  0
 24 25  2  0
 25 26  1  0
 26 27  2  0
 27 28  1  0
 28 29  2  0
 29 30  1  0
 30 31  2  0
 11  7  1  0
 21 15  1  0
 31 22  1  0
 30 25  1  0
  3 32  1  0
  4 33  1  0
  4 34  1  0
  8 35  1  0
  8 36  1  0
  9 37  1  0
  9 38  1  0
 10 39  1  0
 10 40  1  0
 11 41  1  6
 12 42  1  0
 12 43  1  0
 13 44  1  0
 14 45  1  0
 14 46  1  0
 16 47  1  0
 17 48  1  0
 20 49  1  0
 21 50  1  0
 23 51  1  0
 24 52  1  0
 26 53  1  0
 27 54  1  0
 28 55  1  0
 29 56  1  0
M  END
>  <smiles>  (23) 
O=C(NCC(=O)N1CCC[C@H]1CNCc1ccc(Cl)cc1)c1ccc2ccccc2n1

>  <score_type>  (23) 
oracle

>  <origin>  (23) 
autodockgpu

>  <m_score__min__energy>  (23) 
-8.8800000000000008

>  <m_primary>  (23) 
energy

>  <rmsd>  (23) 
6.098287474366551

>  <m_score__min__rmsd>  (23) 
6.098287474366551

>  <meeko>  (23) 
{"free_energy": -6.42, "intermolecular_energy": -8.81, "internal_energy": -4.32, "cluster_size": 1, "cluster_id": 7, "rank_in_cluster": 1}

>  <energy>  (23) 
-7.49

>  <cluster_rmsd>  (23) 
0.45

>  <cluster>  (23) 
5

$$$$

     RDKit          3D

 56 59  0  0  0  0  0  0  0  0999 V2000
  138.7480   75.1390  221.9930 O   0  0  0  0  0  0  0  0  0  0  0  0
  139.9180   75.6500  222.0490 C   0  0  0  0  0  0  0  0  0  0  0  0
  141.0850   74.8490  221.7870 N   0  0  0  0  0  0  0  0  0  0  0  0
  141.0120   73.4720  221.4640 C   0  0  0  0  0  0  0  0  0  0  0  0
  141.8350   72.9390  220.3940 C   0  0  0  0  0  0  0  0  0  0  0  0
  141.3780   71.8560  219.8410 O   0  0  0  0  0  0  0  0  0  0  0  0
  143.0440   73.4210  219.8670 N   0  0  0  0  0  0  0  0  0  0  0  0
  143.7990   73.0800  218.6760 C   0  0  0  0  0  0  0  0  0  0  0  0
  145.2580   73.3800  218.9710 C   0  0  0  0  0  0  0  0  0  0  0  0
  145.2270   73.8780  220.3890 C   0  0  0  0  0  0  0  0  0  0  0  0
  143.8570   74.4730  220.4920 C   0  0  1  0  0  0  0  0  0  0  0  0
  143.7750   75.7690  219.7230 C   0  0  0  0  0  0  0  0  0  0  0  0
  142.5620   76.4400  220.0420 N   0  0  0  0  0  0  0  0  0  0  0  0
  141.8400   77.0100  218.9490 C   0  0  0  0  0  0  0  0  0  0  0  0
  141.5830   78.4590  219.0600 C   0  0  0  0  0  0  0  0  0  0  0  0
  140.4630   79.0180  219.6150 C   0  0  0  0  0  0  0  0  0  0  0  0
  140.2730   80.3870  219.6930 C   0  0  0  0  0  0  0  0  0  0  0  0
  141.2360   81.2470  219.1990 C   0  0  0  0  0  0  0  0  0  0  0  0
  141.0470   82.9990  219.2720 Cl  0  0  0  0  0  0  0  0  0  0  0  0
  142.3690   80.6930  218.6370 C   0  0  0  0  0  0  0  0  0  0  0  0
  142.5430   79.3190  218.5670 C   0  0  0  0  0  0  0  0  0  0  0  0
  140.0790   77.0690  222.3870 C   0  0  0  0  0  0  0  0  0  0  0  0
  138.9550   77.8380  222.6070 C   0  0  0  0  0  0  0  0  0  0  0  0
  139.1530   79.1830  222.9240 C   0  0  0  0  0  0  0  0  0  0  0  0
  140.4390   79.7180  223.0130 C   0  0  0  0  0  0  0  0  0  0  0  0
  140.6550   81.0450  223.3260 C   0  0  0  0  0  0  0  0  0  0  0  0
  141.9450   81.5530  223.4070 C   0  0  0  0  0  0  0  0  0  0  0  0
  143.0440   80.7180  223.1720 C   0  0  0  0  0  0  0  0  0  0  0  0
  142.8390   79.3890  222.8590 C   0  0  0  0  0  0  0  0  0  0  0  0
  141.5320   78.8960  222.7820 C   0  0  0  0  0  0  0  0  0  0  0  0
  141.3000   77.6150  222.4800 N   0  0  0  0  0  0  0  0  0  0  0  0
  142.0080   75.3670  221.8500 H   0  0  0  0  0  0  0  0  0  0  0  0
  141.2755   72.9162  222.3760 H   0  0  0  0  0  0  0  0  0  0  0  0
  139.9873   73.3529  221.0821 H   0  0  0  0  0  0  0  0  0  0  0  0
  143.6731   72.0125  218.4422 H   0  0  0  0  0  0  0  0  0  0  0  0
  143.4473   73.6602  217.8101 H   0  0  0  0  0  0  0  0  0  0  0  0
  145.8725   72.4717  218.8854 H   0  0  0  0  0  0  0  0  0  0  0  0
  145.6998   74.1031  218.2696 H   0  0  0  0  0  0  0  0  0  0  0  0
  145.3566   73.0519  221.1037 H   0  0  0  0  0  0  0  0  0  0  0  0
  146.0332   74.5890  220.6224 H   0  0  0  0  0  0  0  0  0  0  0  0
  143.5440   74.7324  221.5141 H   0  0  0  0  0  0  0  0  0  0  0  0
  144.6284   76.4086  219.9924 H   0  0  0  0  0  0  0  0  0  0  0  0
  143.7999   75.5547  218.6444 H   0  0  0  0  0  0  0  0  0  0  0  0
  142.6290   77.0740  220.8700 H   0  0  0  0  0  0  0  0  0  0  0  0
  142.4183   76.8353  218.0297 H   0  0  0  0  0  0  0  0  0  0  0  0
  140.8541   76.5222  218.9437 H   0  0  0  0  0  0  0  0  0  0  0  0
  139.6833   78.3529  220.0147 H   0  0  0  0  0  0  0  0  0  0  0  0
  139.3562   80.7903  220.1478 H   0  0  0  0  0  0  0  0  0  0  0  0
  143.1502   81.3556  218.2363 H   0  0  0  0  0  0  0  0  0  0  0  0
  143.4575   78.9096  218.1129 H   0  0  0  0  0  0  0  0  0  0  0  0
  137.9446   77.4091  222.5356 H   0  0  0  0  0  0  0  0  0  0  0  0
  138.2828   79.8306  223.1063 H   0  0  0  0  0  0  0  0  0  0  0  0
  139.7966   81.7069  223.5132 H   0  0  0  0  0  0  0  0  0  0  0  0
  142.1035   82.6126  223.6561 H   0  0  0  0  0  0  0  0  0  0  0  0
  144.0663   81.1190  223.2365 H   0  0  0  0  0  0  0  0  0  0  0  0
  143.6951   78.7241  222.6719 H   0  0  0  0  0  0  0  0  0  0  0  0
  1  2  2  0
  2  3  1  0
  3  4  1  0
  4  5  1  0
  5  6  2  0
  5  7  1  0
  7  8  1  0
  8  9  1  0
  9 10  1  0
 10 11  1  0
 11 12  1  0
 12 13  1  0
 13 14  1  0
 14 15  1  0
 15 16  2  0
 16 17  1  0
 17 18  2  0
 18 19  1  0
 18 20  1  0
 20 21  2  0
  2 22  1  0
 22 23  2  0
 23 24  1  0
 24 25  2  0
 25 26  1  0
 26 27  2  0
 27 28  1  0
 28 29  2  0
 29 30  1  0
 30 31  2  0
 11  7  1  0
 21 15  1  0
 31 22  1  0
 30 25  1  0
  3 32  1  0
  4 33  1  0
  4 34  1  0
  8 35  1  0
  8 36  1  0
  9 37  1  0
  9 38  1  0
 10 39  1  0
 10 40  1  0
 11 41  1  1
 12 42  1  0
 12 43  1  0
 13 44  1  0
 14 45  1  0
 14 46  1  0
 16 47  1  0
 17 48  1  0
 20 49  1  0
 21 50  1  0
 23 51  1  0
 24 52  1  0
 26 53  1  0
 27 54  1  0
 28 55  1  0
 29 56  1  0
M  END
>  <smiles>  (24) 
O=C(NCC(=O)N1CCC[C@H]1CNCc1ccc(Cl)cc1)c1ccc2ccccc2n1

>  <score_type>  (24) 
oracle

>  <origin>  (24) 
autodockgpu

>  <m_score__min__energy>  (24) 
-8.8800000000000008

>  <m_primary>  (24) 
energy

>  <rmsd>  (24) 
6.844900438894919

>  <m_score__min__rmsd>  (24) 
6.844900438894919

>  <meeko>  (24) 
{"free_energy": -7.19, "intermolecular_energy": -9.58, "internal_energy": -4.79, "cluster_size": 23, "cluster_id": 5, "rank_in_cluster": 12}

>  <energy>  (24) 
-7.44

>  <cluster_rmsd>  (24) 
0.47

>  <cluster>  (24) 
5

$$$$

     RDKit          3D

 56 59  0  0  0  0  0  0  0  0999 V2000
  138.6750   75.4270  221.9690 O   0  0  0  0  0  0  0  0  0  0  0  0
  139.8660   75.8910  222.0000 C   0  0  0  0  0  0  0  0  0  0  0  0
  140.9820   75.0800  221.5900 N   0  0  0  0  0  0  0  0  0  0  0  0
  140.8360   73.7430  221.1450 C   0  0  0  0  0  0  0  0  0  0  0  0
  141.6640   73.2530  220.0580 C   0  0  0  0  0  0  0  0  0  0  0  0
  141.1050   72.3480  219.3120 O   0  0  0  0  0  0  0  0  0  0  0  0
  142.9710   73.6130  219.6910 N   0  0  0  0  0  0  0  0  0  0  0  0
  143.8020   73.2610  218.5560 C   0  0  0  0  0  0  0  0  0  0  0  0
  145.2470   73.3550  219.0150 C   0  0  0  0  0  0  0  0  0  0  0  0
  145.1230   73.7550  220.4580 C   0  0  0  0  0  0  0  0  0  0  0  0
  143.8310   74.5100  220.4750 C   0  0  1  0  0  0  0  0  0  0  0  0
  143.9850   75.8550  219.8080 C   0  0  0  0  0  0  0  0  0  0  0  0
  142.7850   76.6050  219.9570 N   0  0  0  0  0  0  0  0  0  0  0  0
  142.4880   77.5470  218.9250 C   0  0  0  0  0  0  0  0  0  0  0  0
  141.6120   78.6620  219.3340 C   0  0  0  0  0  0  0  0  0  0  0  0
  140.2540   78.5760  219.4950 C   0  0  0  0  0  0  0  0  0  0  0  0
  139.4800   79.6560  219.8800 C   0  0  0  0  0  0  0  0  0  0  0  0
  140.0720   80.8820  220.1190 C   0  0  0  0  0  0  0  0  0  0  0  0
  139.1340   82.2920  220.6120 Cl  0  0  0  0  0  0  0  0  0  0  0  0
  141.4410   80.9790  219.9590 C   0  0  0  0  0  0  0  0  0  0  0  0
  142.2020   79.8870  219.5730 C   0  0  0  0  0  0  0  0  0  0  0  0
  140.1020   77.2640  222.4590 C   0  0  0  0  0  0  0  0  0  0  0  0
  139.0270   78.0380  222.8420 C   0  0  0  0  0  0  0  0  0  0  0  0
  139.2960   79.3390  223.2710 C   0  0  0  0  0  0  0  0  0  0  0  0
  140.6030   79.8270  223.3060 C   0  0  0  0  0  0  0  0  0  0  0  0
  140.8890   81.1100  223.7270 C   0  0  0  0  0  0  0  0  0  0  0  0
  142.1980   81.5720  223.7530 C   0  0  0  0  0  0  0  0  0  0  0  0
  143.2460   80.7350  223.3510 C   0  0  0  0  0  0  0  0  0  0  0  0
  142.9710   79.4500  222.9280 C   0  0  0  0  0  0  0  0  0  0  0  0
  141.6450   79.0030  222.9090 C   0  0  0  0  0  0  0  0  0  0  0  0
  141.3450   77.7650  222.5050 N   0  0  0  0  0  0  0  0  0  0  0  0
  141.9280   75.5580  221.6450 H   0  0  0  0  0  0  0  0  0  0  0  0
  141.0313   73.0949  222.0121 H   0  0  0  0  0  0  0  0  0  0  0  0
  139.8204   73.7226  220.7230 H   0  0  0  0  0  0  0  0  0  0  0  0
  143.5765   72.2360  218.2266 H   0  0  0  0  0  0  0  0  0  0  0  0
  143.6152   73.9374  217.7089 H   0  0  0  0  0  0  0  0  0  0  0  0
  145.7560   72.3848  218.9169 H   0  0  0  0  0  0  0  0  0  0  0  0
  145.8434   74.0628  218.4207 H   0  0  0  0  0  0  0  0  0  0  0  0
  145.0762   72.8722  221.1126 H   0  0  0  0  0  0  0  0  0  0  0  0
  145.9782   74.3411  220.8256 H   0  0  0  0  0  0  0  0  0  0  0  0
  143.4442   74.7377  221.4793 H   0  0  0  0  0  0  0  0  0  0  0  0
  144.8179   76.4013  220.2748 H   0  0  0  0  0  0  0  0  0  0  0  0
  144.1925   75.7089  218.7377 H   0  0  0  0  0  0  0  0  0  0  0  0
  142.6330   76.9820  220.9200 H   0  0  0  0  0  0  0  0  0  0  0  0
  143.4373   77.9720  218.5670 H   0  0  0  0  0  0  0  0  0  0  0  0
  141.9391   76.9921  218.1498 H   0  0  0  0  0  0  0  0  0  0  0  0
  139.7600   77.6106  219.3109 H   0  0  0  0  0  0  0  0  0  0  0  0
  138.3924   79.5390  219.9961 H   0  0  0  0  0  0  0  0  0  0  0  0
  141.9374   81.9434  220.1419 H   0  0  0  0  0  0  0  0  0  0  0  0
  143.2901   79.9977  219.4555 H   0  0  0  0  0  0  0  0  0  0  0  0
  137.9995   77.6464  222.8108 H   0  0  0  0  0  0  0  0  0  0  0  0
  138.4660   79.9886  223.5859 H   0  0  0  0  0  0  0  0  0  0  0  0
  140.0713   81.7734  224.0452 H   0  0  0  0  0  0  0  0  0  0  0  0
  142.4121   82.5970  224.0899 H   0  0  0  0  0  0  0  0  0  0  0  0
  144.2836   81.0996  223.3721 H   0  0  0  0  0  0  0  0  0  0  0  0
  143.7862   78.7839  222.6090 H   0  0  0  0  0  0  0  0  0  0  0  0
  1  2  2  0
  2  3  1  0
  3  4  1  0
  4  5  1  0
  5  6  2  0
  5  7  1  0
  7  8  1  0
  8  9  1  0
  9 10  1  0
 10 11  1  0
 11 12  1  0
 12 13  1  0
 13 14  1  0
 14 15  1  0
 15 16  2  0
 16 17  1  0
 17 18  2  0
 18 19  1  0
 18 20  1  0
 20 21  2  0
  2 22  1  0
 22 23  2  0
 23 24  1  0
 24 25  2  0
 25 26  1  0
 26 27  2  0
 27 28  1  0
 28 29  2  0
 29 30  1  0
 30 31  2  0
 11  7  1  0
 21 15  1  0
 31 22  1  0
 30 25  1  0
  3 32  1  0
  4 33  1  0
  4 34  1  0
  8 35  1  0
  8 36  1  0
  9 37  1  0
  9 38  1  0
 10 39  1  0
 10 40  1  0
 11 41  1  1
 12 42  1  0
 12 43  1  0
 13 44  1  0
 14 45  1  0
 14 46  1  0
 16 47  1  0
 17 48  1  0
 20 49  1  0
 21 50  1  0
 23 51  1  0
 24 52  1  0
 26 53  1  0
 27 54  1  0
 28 55  1  0
 29 56  1  0
M  END
>  <smiles>  (25) 
O=C(NCC(=O)N1CCC[C@H]1CNCc1ccc(Cl)cc1)c1ccc2ccccc2n1

>  <score_type>  (25) 
oracle

>  <origin>  (25) 
autodockgpu

>  <m_score__min__energy>  (25) 
-8.8800000000000008

>  <m_primary>  (25) 
energy

>  <rmsd>  (25) 
6.827100810100473

>  <m_score__min__rmsd>  (25) 
6.827100810100473

>  <meeko>  (25) 
{"free_energy": -6.89, "intermolecular_energy": -9.27, "internal_energy": -5.05, "cluster_size": 23, "cluster_id": 5, "rank_in_cluster": 18}

>  <energy>  (25) 
-7.39

>  <cluster_rmsd>  (25) 
0.52

>  <cluster>  (25) 
5

$$$$

     RDKit          3D

 56 59  0  0  0  0  0  0  0  0999 V2000
  138.7350   74.8140  222.1780 O   0  0  0  0  0  0  0  0  0  0  0  0
  139.8480   75.4180  222.0040 C   0  0  0  0  0  0  0  0  0  0  0  0
  140.9700   74.7390  221.4120 N   0  0  0  0  0  0  0  0  0  0  0  0
  140.9150   73.3840  221.0020 C   0  0  0  0  0  0  0  0  0  0  0  0
  142.1460   72.6740  220.7010 C   0  0  0  0  0  0  0  0  0  0  0  0
  142.1110   71.3970  220.9420 O   0  0  0  0  0  0  0  0  0  0  0  0
  143.3590   73.1570  220.1880 N   0  0  0  0  0  0  0  0  0  0  0  0
  144.1520   72.7850  219.0320 C   0  0  0  0  0  0  0  0  0  0  0  0
  145.5970   73.1250  219.3530 C   0  0  0  0  0  0  0  0  0  0  0  0
  145.5170   73.6770  220.7480 C   0  0  0  0  0  0  0  0  0  0  0  0
  144.1350   74.2490  220.7910 C   0  0  1  0  0  0  0  0  0  0  0  0
  144.0490   75.5120  219.9690 C   0  0  0  0  0  0  0  0  0  0  0  0
  142.7750   76.1180  220.1510 N   0  0  0  0  0  0  0  0  0  0  0  0
  142.1880   76.7300  219.0020 C   0  0  0  0  0  0  0  0  0  0  0  0
  141.5390   78.0310  219.2510 C   0  0  0  0  0  0  0  0  0  0  0  0
  142.2010   79.2090  219.4730 C   0  0  0  0  0  0  0  0  0  0  0  0
  141.5410   80.4030  219.7030 C   0  0  0  0  0  0  0  0  0  0  0  0
  140.1600   80.4380  219.7160 C   0  0  0  0  0  0  0  0  0  0  0  0
  139.2660   81.9310  220.0040 Cl  0  0  0  0  0  0  0  0  0  0  0  0
  139.4820   79.2550  219.4930 C   0  0  0  0  0  0  0  0  0  0  0  0
  140.1600   78.0670  219.2640 C   0  0  0  0  0  0  0  0  0  0  0  0
  139.9890   76.8210  222.4120 C   0  0  0  0  0  0  0  0  0  0  0  0
  138.8570   77.5480  222.7140 C   0  0  0  0  0  0  0  0  0  0  0  0
  139.0350   78.8790  223.0960 C   0  0  0  0  0  0  0  0  0  0  0  0
  140.3110   79.4400  223.1670 C   0  0  0  0  0  0  0  0  0  0  0  0
  140.5080   80.7540  223.5440 C   0  0  0  0  0  0  0  0  0  0  0  0
  141.7880   81.2890  223.6070 C   0  0  0  0  0  0  0  0  0  0  0  0
  142.8960   80.4960  223.2880 C   0  0  0  0  0  0  0  0  0  0  0  0
  142.7110   79.1800  222.9110 C   0  0  0  0  0  0  0  0  0  0  0  0
  141.4130   78.6600  222.8530 C   0  0  0  0  0  0  0  0  0  0  0  0
  141.1990   77.3910  222.4910 N   0  0  0  0  0  0  0  0  0  0  0  0
  141.8460   75.3280  221.3030 H   0  0  0  0  0  0  0  0  0  0  0  0
  140.4138   72.8269  221.8072 H   0  0  0  0  0  0  0  0  0  0  0  0
  140.4012   73.4303  220.0305 H   0  0  0  0  0  0  0  0  0  0  0  0
  144.0524   71.7070  218.8373 H   0  0  0  0  0  0  0  0  0  0  0  0
  143.8131   73.3241  218.1351 H   0  0  0  0  0  0  0  0  0  0  0  0
  146.2305   72.2264  219.3199 H   0  0  0  0  0  0  0  0  0  0  0  0
  146.0448   73.8283  218.6354 H   0  0  0  0  0  0  0  0  0  0  0  0
  145.6417   72.8820  221.4979 H   0  0  0  0  0  0  0  0  0  0  0  0
  146.3032   74.4122  220.9745 H   0  0  0  0  0  0  0  0  0  0  0  0
  143.7902   74.5433  221.7933 H   0  0  0  0  0  0  0  0  0  0  0  0
  144.8354   76.2111  220.2898 H   0  0  0  0  0  0  0  0  0  0  0  0
  144.1854   75.2642  218.9060 H   0  0  0  0  0  0  0  0  0  0  0  0
  142.6990   76.7000  221.0160 H   0  0  0  0  0  0  0  0  0  0  0  0
  142.9802   76.8816  218.2541 H   0  0  0  0  0  0  0  0  0  0  0  0
  141.3924   76.0495  218.6642 H   0  0  0  0  0  0  0  0  0  0  0  0
  143.3010   79.2058  219.4683 H   0  0  0  0  0  0  0  0  0  0  0  0
  142.1160   81.3247  219.8756 H   0  0  0  0  0  0  0  0  0  0  0  0
  138.3820   79.2554  219.4972 H   0  0  0  0  0  0  0  0  0  0  0  0
  139.5910   77.1417  219.0906 H   0  0  0  0  0  0  0  0  0  0  0  0
  137.8550   77.0979  222.6563 H   0  0  0  0  0  0  0  0  0  0  0  0
  138.1575   79.4940  223.3444 H   0  0  0  0  0  0  0  0  0  0  0  0
  139.6420   81.3833  223.7970 H   0  0  0  0  0  0  0  0  0  0  0  0
  141.9311   82.3373  223.9080 H   0  0  0  0  0  0  0  0  0  0  0  0
  143.9103   80.9189  223.3373 H   0  0  0  0  0  0  0  0  0  0  0  0
  143.5749   78.5474  222.6590 H   0  0  0  0  0  0  0  0  0  0  0  0
  1  2  2  0
  2  3  1  0
  3  4  1  0
  4  5  1  0
  5  6  2  0
  5  7  1  0
  7  8  1  0
  8  9  1  0
  9 10  1  0
 10 11  1  0
 11 12  1  0
 12 13  1  0
 13 14  1  0
 14 15  1  0
 15 16  2  0
 16 17  1  0
 17 18  2  0
 18 19  1  0
 18 20  1  0
 20 21  2  0
  2 22  1  0
 22 23  2  0
 23 24  1  0
 24 25  2  0
 25 26  1  0
 26 27  2  0
 27 28  1  0
 28 29  2  0
 29 30  1  0
 30 31  2  0
 11  7  1  0
 21 15  1  0
 31 22  1  0
 30 25  1  0
  3 32  1  0
  4 33  1  0
  4 34  1  0
  8 35  1  0
  8 36  1  0
  9 37  1  0
  9 38  1  0
 10 39  1  0
 10 40  1  0
 11 41  1  1
 12 42  1  0
 12 43  1  0
 13 44  1  0
 14 45  1  0
 14 46  1  0
 16 47  1  0
 17 48  1  0
 20 49  1  0
 21 50  1  0
 23 51  1  0
 24 52  1  0
 26 53  1  0
 27 54  1  0
 28 55  1  0
 29 56  1  0
M  END
>  <smiles>  (26) 
O=C(NCC(=O)N1CCC[C@H]1CNCc1ccc(Cl)cc1)c1ccc2ccccc2n1

>  <score_type>  (26) 
oracle

>  <origin>  (26) 
autodockgpu

>  <m_score__min__energy>  (26) 
-8.8800000000000008

>  <m_primary>  (26) 
energy

>  <rmsd>  (26) 
6.868660862206521

>  <m_score__min__rmsd>  (26) 
6.868660862206521

>  <meeko>  (26) 
{"free_energy": -6.73, "intermolecular_energy": -9.11, "internal_energy": -4.93, "cluster_size": 12, "cluster_id": 4, "rank_in_cluster": 10}

>  <energy>  (26) 
-7.38

>  <cluster_rmsd>  (26) 
0.7

>  <cluster>  (26) 
5

$$$$

     RDKit          3D

 56 59  0  0  0  0  0  0  0  0999 V2000
  138.7050   75.2490  221.8670 O   0  0  0  0  0  0  0  0  0  0  0  0
  139.8940   75.7050  221.9800 C   0  0  0  0  0  0  0  0  0  0  0  0
  141.0320   74.8710  221.6930 N   0  0  0  0  0  0  0  0  0  0  0  0
  140.9080   73.5200  221.2850 C   0  0  0  0  0  0  0  0  0  0  0  0
  142.0670   72.8170  220.7650 C   0  0  0  0  0  0  0  0  0  0  0  0
  142.0280   71.5250  220.9010 O   0  0  0  0  0  0  0  0  0  0  0  0
  143.2170   73.3220  220.1370 N   0  0  0  0  0  0  0  0  0  0  0  0
  143.9740   72.8830  218.9810 C   0  0  0  0  0  0  0  0  0  0  0  0
  145.4060   73.3470  219.1820 C   0  0  0  0  0  0  0  0  0  0  0  0
  145.3590   74.0350  220.5180 C   0  0  0  0  0  0  0  0  0  0  0  0
  143.9440   74.5180  220.5830 C   0  0  1  0  0  0  0  0  0  0  0  0
  143.7290   75.6810  219.6450 C   0  0  0  0  0  0  0  0  0  0  0  0
  142.5340   76.3680  219.9970 N   0  0  0  0  0  0  0  0  0  0  0  0
  141.8170   76.9910  218.9310 C   0  0  0  0  0  0  0  0  0  0  0  0
  141.6130   78.4450  219.0840 C   0  0  0  0  0  0  0  0  0  0  0  0
  142.4860   79.4090  218.6540 C   0  0  0  0  0  0  0  0  0  0  0  0
  142.2450   80.7610  218.8240 C   0  0  0  0  0  0  0  0  0  0  0  0
  141.0860   81.1840  219.4480 C   0  0  0  0  0  0  0  0  0  0  0  0
  140.7280   82.8930  219.6910 Cl  0  0  0  0  0  0  0  0  0  0  0  0
  140.2000   80.2190  219.8850 C   0  0  0  0  0  0  0  0  0  0  0  0
  140.4570   78.8680  219.7070 C   0  0  0  0  0  0  0  0  0  0  0  0
  140.1070   77.0920  222.4070 C   0  0  0  0  0  0  0  0  0  0  0  0
  139.0150   77.8650  222.7430 C   0  0  0  0  0  0  0  0  0  0  0  0
  139.2620   79.1800  223.1430 C   0  0  0  0  0  0  0  0  0  0  0  0
  140.5640   79.6810  223.1980 C   0  0  0  0  0  0  0  0  0  0  0  0
  140.8280   80.9770  223.5920 C   0  0  0  0  0  0  0  0  0  0  0  0
  142.1320   81.4520  223.6380 C   0  0  0  0  0  0  0  0  0  0  0  0
  143.1960   80.6150  223.2850 C   0  0  0  0  0  0  0  0  0  0  0  0
  142.9430   79.3160  222.8900 C   0  0  0  0  0  0  0  0  0  0  0  0
  141.6230   78.8560  222.8500 C   0  0  0  0  0  0  0  0  0  0  0  0
  141.3440   77.6050  222.4720 N   0  0  0  0  0  0  0  0  0  0  0  0
  141.9750   75.3430  221.8080 H   0  0  0  0  0  0  0  0  0  0  0  0
  140.5571   72.9533  222.1601 H   0  0  0  0  0  0  0  0  0  0  0  0
  140.2315   73.5746  220.4193 H   0  0  0  0  0  0  0  0  0  0  0  0
  143.9403   71.7863  218.9023 H   0  0  0  0  0  0  0  0  0  0  0  0
  143.5530   73.3023  218.0553 H   0  0  0  0  0  0  0  0  0  0  0  0
  146.0985   72.4926  219.2023 H   0  0  0  0  0  0  0  0  0  0  0  0
  145.7660   73.9994  218.3729 H   0  0  0  0  0  0  0  0  0  0  0  0
  145.5771   73.3318  221.3353 H   0  0  0  0  0  0  0  0  0  0  0  0
  146.1024   74.8388  220.6241 H   0  0  0  0  0  0  0  0  0  0  0  0
  143.6302   74.8911  221.5691 H   0  0  0  0  0  0  0  0  0  0  0  0
  144.5823   76.3714  219.7175 H   0  0  0  0  0  0  0  0  0  0  0  0
  143.6429   75.3060  218.6145 H   0  0  0  0  0  0  0  0  0  0  0  0
  142.6220   76.9700  220.8470 H   0  0  0  0  0  0  0  0  0  0  0  0
  142.3753   76.8207  217.9986 H   0  0  0  0  0  0  0  0  0  0  0  0
  140.8146   76.5380  218.9280 H   0  0  0  0  0  0  0  0  0  0  0  0
  143.4146   79.0963  218.1542 H   0  0  0  0  0  0  0  0  0  0  0  0
  142.9758   81.4994  218.4626 H   0  0  0  0  0  0  0  0  0  0  0  0
  139.2704   80.5287  220.3850 H   0  0  0  0  0  0  0  0  0  0  0  0
  139.7304   78.1246  220.0669 H   0  0  0  0  0  0  0  0  0  0  0  0
  137.9923   77.4624  222.6977 H   0  0  0  0  0  0  0  0  0  0  0  0
  138.4187   79.8303  223.4187 H   0  0  0  0  0  0  0  0  0  0  0  0
  139.9968   81.6406  223.8725 H   0  0  0  0  0  0  0  0  0  0  0  0
  142.3287   82.4876  223.9524 H   0  0  0  0  0  0  0  0  0  0  0  0
  144.2295   80.9898  223.3219 H   0  0  0  0  0  0  0  0  0  0  0  0
  143.7719   78.6495  222.6095 H   0  0  0  0  0  0  0  0  0  0  0  0
  1  2  2  0
  2  3  1  0
  3  4  1  0
  4  5  1  0
  5  6  2  0
  5  7  1  0
  7  8  1  0
  8  9  1  0
  9 10  1  0
 10 11  1  0
 11 12  1  0
 12 13  1  0
 13 14  1  0
 14 15  1  0
 15 16  2  0
 16 17  1  0
 17 18  2  0
 18 19  1  0
 18 20  1  0
 20 21  2  0
  2 22  1  0
 22 23  2  0
 23 24  1  0
 24 25  2  0
 25 26  1  0
 26 27  2  0
 27 28  1  0
 28 29  2  0
 29 30  1  0
 30 31  2  0
 11  7  1  0
 21 15  1  0
 31 22  1  0
 30 25  1  0
  3 32  1  0
  4 33  1  0
  4 34  1  0
  8 35  1  0
  8 36  1  0
  9 37  1  0
  9 38  1  0
 10 39  1  0
 10 40  1  0
 11 41  1  1
 12 42  1  0
 12 43  1  0
 13 44  1  0
 14 45  1  0
 14 46  1  0
 16 47  1  0
 17 48  1  0
 20 49  1  0
 21 50  1  0
 23 51  1  0
 24 52  1  0
 26 53  1  0
 27 54  1  0
 28 55  1  0
 29 56  1  0
M  END
>  <smiles>  (27) 
O=C(NCC(=O)N1CCC[C@H]1CNCc1ccc(Cl)cc1)c1ccc2ccccc2n1

>  <score_type>  (27) 
oracle

>  <origin>  (27) 
autodockgpu

>  <m_score__min__energy>  (27) 
-8.8800000000000008

>  <m_primary>  (27) 
energy

>  <rmsd>  (27) 
6.918816221860763

>  <m_score__min__rmsd>  (27) 
6.918816221860763

>  <meeko>  (27) 
{"free_energy": -7.37, "intermolecular_energy": -9.76, "internal_energy": -4.75, "cluster_size": 23, "cluster_id": 5, "rank_in_cluster": 8}

>  <energy>  (27) 
-7.37

>  <cluster_rmsd>  (27) 
0.55

>  <cluster>  (27) 
5

$$$$

     RDKit          3D

 56 59  0  0  0  0  0  0  0  0999 V2000
  138.5860   75.5220  222.3390 O   0  0  0  0  0  0  0  0  0  0  0  0
  139.7560   76.0140  222.1890 C   0  0  0  0  0  0  0  0  0  0  0  0
  140.8160   75.2300  221.6130 N   0  0  0  0  0  0  0  0  0  0  0  0
  140.6350   73.8890  221.1920 C   0  0  0  0  0  0  0  0  0  0  0  0
  141.7610   72.9720  221.2120 C   0  0  0  0  0  0  0  0  0  0  0  0
  141.5920   71.9180  221.9530 O   0  0  0  0  0  0  0  0  0  0  0  0
  142.9960   73.0520  220.5500 N   0  0  0  0  0  0  0  0  0  0  0  0
  143.5980   72.2530  219.5000 C   0  0  0  0  0  0  0  0  0  0  0  0
  145.1040   72.3490  219.6730 C   0  0  0  0  0  0  0  0  0  0  0  0
  145.2550   73.2260  220.8840 C   0  0  0  0  0  0  0  0  0  0  0  0
  144.0190   74.0690  220.8290 C   0  0  1  0  0  0  0  0  0  0  0  0
  144.1100   75.0850  219.7170 C   0  0  0  0  0  0  0  0  0  0  0  0
  143.1670   76.1270  219.9390 N   0  0  0  0  0  0  0  0  0  0  0  0
  142.5770   76.7140  218.7790 C   0  0  0  0  0  0  0  0  0  0  0  0
  142.2900   78.1580  218.8890 C   0  0  0  0  0  0  0  0  0  0  0  0
  142.9140   79.1400  218.1680 C   0  0  0  0  0  0  0  0  0  0  0  0
  142.6040   80.4810  218.3120 C   0  0  0  0  0  0  0  0  0  0  0  0
  141.6310   80.8730  219.2120 C   0  0  0  0  0  0  0  0  0  0  0  0
  141.1960   82.5670  219.4380 Cl  0  0  0  0  0  0  0  0  0  0  0  0
  140.9960   79.8890  219.9450 C   0  0  0  0  0  0  0  0  0  0  0  0
  141.3180   78.5500  219.7870 C   0  0  0  0  0  0  0  0  0  0  0  0
  140.0260   77.3940  222.6100 C   0  0  0  0  0  0  0  0  0  0  0  0
  138.9670   78.2190  222.9260 C   0  0  0  0  0  0  0  0  0  0  0  0
  139.2690   79.5240  223.3200 C   0  0  0  0  0  0  0  0  0  0  0  0
  140.5910   79.9650  223.3890 C   0  0  0  0  0  0  0  0  0  0  0  0
  140.9090   81.2510  223.7770 C   0  0  0  0  0  0  0  0  0  0  0  0
  142.2330   81.6650  223.8380 C   0  0  0  0  0  0  0  0  0  0  0  0
  143.2620   80.7780  223.5050 C   0  0  0  0  0  0  0  0  0  0  0  0
  142.9550   79.4890  223.1160 C   0  0  0  0  0  0  0  0  0  0  0  0
  141.6160   79.0900  223.0610 C   0  0  0  0  0  0  0  0  0  0  0  0
  141.2840   77.8500  222.6880 N   0  0  0  0  0  0  0  0  0  0  0  0
  141.7470   75.7310  221.5240 H   0  0  0  0  0  0  0  0  0  0  0  0
  139.8574   73.4540  221.8371 H   0  0  0  0  0  0  0  0  0  0  0  0
  140.4010   73.9852  220.1215 H   0  0  0  0  0  0  0  0  0  0  0  0
  143.2739   71.2057  219.5901 H   0  0  0  0  0  0  0  0  0  0  0  0
  143.2940   72.6176  218.5077 H   0  0  0  0  0  0  0  0  0  0  0  0
  145.5451   71.3565  219.8472 H   0  0  0  0  0  0  0  0  0  0  0  0
  145.6158   72.7479  218.7848 H   0  0  0  0  0  0  0  0  0  0  0  0
  145.2876   72.6278  221.8066 H   0  0  0  0  0  0  0  0  0  0  0  0
  146.1859   73.8120  220.8880 H   0  0  0  0  0  0  0  0  0  0  0  0
  143.8259   74.6616  221.7354 H   0  0  0  0  0  0  0  0  0  0  0  0
  145.1245   75.5095  219.6921 H   0  0  0  0  0  0  0  0  0  0  0  0
  143.8904   74.5943  218.7573 H   0  0  0  0  0  0  0  0  0  0  0  0
  143.4660   76.8280  220.6540 H   0  0  0  0  0  0  0  0  0  0  0  0
  143.2653   76.5661  217.9338 H   0  0  0  0  0  0  0  0  0  0  0  0
  141.6055   76.2165  218.6425 H   0  0  0  0  0  0  0  0  0  0  0  0
  143.6923   78.8520  217.4459 H   0  0  0  0  0  0  0  0  0  0  0  0
  143.1321   81.2352  217.7100 H   0  0  0  0  0  0  0  0  0  0  0  0
  140.2186   80.1741  220.6692 H   0  0  0  0  0  0  0  0  0  0  0  0
  140.7924   77.7906  220.3846 H   0  0  0  0  0  0  0  0  0  0  0  0
  137.9275   77.8636  222.8699 H   0  0  0  0  0  0  0  0  0  0  0  0
  138.4530   80.2144  223.5798 H   0  0  0  0  0  0  0  0  0  0  0  0
  140.1057   81.9547  224.0404 H   0  0  0  0  0  0  0  0  0  0  0  0
  142.4731   82.6925  224.1488 H   0  0  0  0  0  0  0  0  0  0  0  0
  144.3110   81.1057  223.5528 H   0  0  0  0  0  0  0  0  0  0  0  0
  143.7561   78.7830  222.8519 H   0  0  0  0  0  0  0  0  0  0  0  0
  1  2  2  0
  2  3  1  0
  3  4  1  0
  4  5  1  0
  5  6  2  0
  5  7  1  0
  7  8  1  0
  8  9  1  0
  9 10  1  0
 10 11  1  0
 11 12  1  0
 12 13  1  0
 13 14  1  0
 14 15  1  0
 15 16  2  0
 16 17  1  0
 17 18  2  0
 18 19  1  0
 18 20  1  0
 20 21  2  0
  2 22  1  0
 22 23  2  0
 23 24  1  0
 24 25  2  0
 25 26  1  0
 26 27  2  0
 27 28  1  0
 28 29  2  0
 29 30  1  0
 30 31  2  0
 11  7  1  0
 21 15  1  0
 31 22  1  0
 30 25  1  0
  3 32  1  0
  4 33  1  0
  4 34  1  0
  8 35  1  0
  8 36  1  0
  9 37  1  0
  9 38  1  0
 10 39  1  0
 10 40  1  0
 11 41  1  1
 12 42  1  0
 12 43  1  0
 13 44  1  0
 14 45  1  0
 14 46  1  0
 16 47  1  0
 17 48  1  0
 20 49  1  0
 21 50  1  0
 23 51  1  0
 24 52  1  0
 26 53  1  0
 27 54  1  0
 28 55  1  0
 29 56  1  0
M  END
>  <smiles>  (28) 
O=C(NCC(=O)N1CCC[C@H]1CNCc1ccc(Cl)cc1)c1ccc2ccccc2n1

>  <score_type>  (28) 
oracle

>  <origin>  (28) 
autodockgpu

>  <m_score__min__energy>  (28) 
-8.8800000000000008

>  <m_primary>  (28) 
energy

>  <rmsd>  (28) 
7.14295181334029

>  <m_score__min__rmsd>  (28) 
7.14295181334029

>  <meeko>  (28) 
{"free_energy": -7.72, "intermolecular_energy": -10.11, "internal_energy": -3.77, "cluster_size": 23, "cluster_id": 5, "rank_in_cluster": 2}

>  <energy>  (28) 
-7.35

>  <cluster_rmsd>  (28) 
0.57

>  <cluster>  (28) 
5

$$$$

     RDKit          3D

 56 59  0  0  0  0  0  0  0  0999 V2000
  141.2410   77.9050  217.3230 O   0  0  0  0  0  0  0  0  0  0  0  0
  141.9550   77.6670  218.3570 C   0  0  0  0  0  0  0  0  0  0  0  0
  142.3420   78.7320  219.2450 N   0  0  0  0  0  0  0  0  0  0  0  0
  141.9710   80.0830  219.0280 C   0  0  0  0  0  0  0  0  0  0  0  0
  141.3980   80.8530  220.1160 C   0  0  0  0  0  0  0  0  0  0  0  0
  140.7700   81.9310  219.7500 O   0  0  0  0  0  0  0  0  0  0  0  0
  141.4160   80.6080  221.4980 N   0  0  0  0  0  0  0  0  0  0  0  0
  140.5760   81.0690  222.5870 C   0  0  0  0  0  0  0  0  0  0  0  0
  141.4290   81.0630  223.8430 C   0  0  0  0  0  0  0  0  0  0  0  0
  142.7670   80.5930  223.3470 C   0  0  0  0  0  0  0  0  0  0  0  0
  142.3960   79.7440  222.1700 C   0  0  1  0  0  0  0  0  0  0  0  0
  141.7750   78.4440  222.6200 C   0  0  0  0  0  0  0  0  0  0  0  0
  141.4820   77.6350  221.4880 N   0  0  0  0  0  0  0  0  0  0  0  0
  140.1450   77.1450  221.3800 C   0  0  0  0  0  0  0  0  0  0  0  0
  139.9940   75.6930  221.5960 C   0  0  0  0  0  0  0  0  0  0  0  0
  138.8010   75.0450  221.7750 C   0  0  0  0  0  0  0  0  0  0  0  0
  138.7180   73.6780  221.9740 C   0  0  0  0  0  0  0  0  0  0  0  0
  139.8680   72.9120  221.9980 C   0  0  0  0  0  0  0  0  0  0  0  0
  139.8210   71.1670  222.2480 Cl  0  0  0  0  0  0  0  0  0  0  0  0
  141.0770   73.5560  221.8180 C   0  0  0  0  0  0  0  0  0  0  0  0
  141.1420   74.9260  221.6200 C   0  0  0  0  0  0  0  0  0  0  0  0
  142.3880   76.2960  218.6450 C   0  0  0  0  0  0  0  0  0  0  0  0
  141.7320   75.2440  218.0400 C   0  0  0  0  0  0  0  0  0  0  0  0
  142.1760   73.9550  218.3440 C   0  0  0  0  0  0  0  0  0  0  0  0
  143.2400   73.7500  219.2240 C   0  0  0  0  0  0  0  0  0  0  0  0
  143.6930   72.4840  219.5350 C   0  0  0  0  0  0  0  0  0  0  0  0
  144.7530   72.3070  220.4140 C   0  0  0  0  0  0  0  0  0  0  0  0
  145.3760   73.4180  220.9940 C   0  0  0  0  0  0  0  0  0  0  0  0
  144.9320   74.6890  220.6890 C   0  0  0  0  0  0  0  0  0  0  0  0
  143.8620   74.8470  219.8010 C   0  0  0  0  0  0  0  0  0  0  0  0
  143.4070   76.0630  219.4860 N   0  0  0  0  0  0  0  0  0  0  0  0
  142.9260   78.4330  220.0770 H   0  0  0  0  0  0  0  0  0  0  0  0
  142.8774   80.6148  218.7031 H   0  0  0  0  0  0  0  0  0  0  0  0
  141.1469   80.0099  218.3031 H   0  0  0  0  0  0  0  0  0  0  0  0
  140.2159   82.0877  222.3805 H   0  0  0  0  0  0  0  0  0  0  0  0
  139.6982   80.4170  222.7071 H   0  0  0  0  0  0  0  0  0  0  0  0
  141.5009   82.0717  224.2758 H   0  0  0  0  0  0  0  0  0  0  0  0
  141.0173   80.4277  224.6411 H   0  0  0  0  0  0  0  0  0  0  0  0
  143.3983   81.4408  223.0425 H   0  0  0  0  0  0  0  0  0  0  0  0
  143.3530   80.0564  224.1076 H   0  0  0  0  0  0  0  0  0  0  0  0
  143.2413   79.4453  221.5326 H   0  0  0  0  0  0  0  0  0  0  0  0
  142.4778   77.9116  223.2777 H   0  0  0  0  0  0  0  0  0  0  0  0
  140.8444   78.6553  223.1671 H   0  0  0  0  0  0  0  0  0  0  0  0
  142.2070   76.9110  221.2800 H   0  0  0  0  0  0  0  0  0  0  0  0
  139.5288   77.6671  222.1268 H   0  0  0  0  0  0  0  0  0  0  0  0
  139.8301   77.3362  220.3435 H   0  0  0  0  0  0  0  0  0  0  0  0
  137.8722   75.6342  221.7600 H   0  0  0  0  0  0  0  0  0  0  0  0
  137.7366   73.2011  222.1131 H   0  0  0  0  0  0  0  0  0  0  0  0
  142.0072   72.9691  221.8321 H   0  0  0  0  0  0  0  0  0  0  0  0
  142.1205   75.4086  221.4802 H   0  0  0  0  0  0  0  0  0  0  0  0
  140.8944   75.4132  217.3473 H   0  0  0  0  0  0  0  0  0  0  0  0
  141.6797   73.0883  217.8830 H   0  0  0  0  0  0  0  0  0  0  0  0
  143.2092   71.6062  219.0818 H   0  0  0  0  0  0  0  0  0  0  0  0
  145.1036   71.2925  220.6548 H   0  0  0  0  0  0  0  0  0  0  0  0
  146.2162   73.2789  221.6902 H   0  0  0  0  0  0  0  0  0  0  0  0
  145.4145   75.5689  221.1395 H   0  0  0  0  0  0  0  0  0  0  0  0
  1  2  2  0
  2  3  1  0
  3  4  1  0
  4  5  1  0
  5  6  2  0
  5  7  1  0
  7  8  1  0
  8  9  1  0
  9 10  1  0
 10 11  1  0
 11 12  1  0
 12 13  1  0
 13 14  1  0
 14 15  1  0
 15 16  2  0
 16 17  1  0
 17 18  2  0
 18 19  1  0
 18 20  1  0
 20 21  2  0
  2 22  1  0
 22 23  2  0
 23 24  1  0
 24 25  2  0
 25 26  1  0
 26 27  2  0
 27 28  1  0
 28 29  2  0
 29 30  1  0
 30 31  2  0
 11  7  1  0
 21 15  1  0
 31 22  1  0
 30 25  1  0
  3 32  1  0
  4 33  1  0
  4 34  1  0
  8 35  1  0
  8 36  1  0
  9 37  1  0
  9 38  1  0
 10 39  1  0
 10 40  1  0
 11 41  1  6
 12 42  1  0
 12 43  1  0
 13 44  1  0
 14 45  1  0
 14 46  1  0
 16 47  1  0
 17 48  1  0
 20 49  1  0
 21 50  1  0
 23 51  1  0
 24 52  1  0
 26 53  1  0
 27 54  1  0
 28 55  1  0
 29 56  1  0
M  END
>  <smiles>  (29) 
O=C(NCC(=O)N1CCC[C@H]1CNCc1ccc(Cl)cc1)c1ccc2ccccc2n1

>  <score_type>  (29) 
oracle

>  <origin>  (29) 
autodockgpu

>  <m_score__min__energy>  (29) 
-8.8800000000000008

>  <m_primary>  (29) 
energy

>  <rmsd>  (29) 
7.521342768943596

>  <m_score__min__rmsd>  (29) 
7.521342768943596

>  <meeko>  (29) 
{"free_energy": -6.66, "intermolecular_energy": -9.04, "internal_energy": -4.26, "cluster_size": 6, "cluster_id": 6, "rank_in_cluster": 3}

>  <energy>  (29) 
-7.31

>  <cluster_rmsd>  (29) 
0.61

>  <cluster>  (29) 
5

$$$$

     RDKit          3D

 56 59  0  0  0  0  0  0  0  0999 V2000
  138.5960   75.5050  221.8870 O   0  0  0  0  0  0  0  0  0  0  0  0
  139.8000   75.9160  222.0090 C   0  0  0  0  0  0  0  0  0  0  0  0
  140.9090   75.0460  221.7170 N   0  0  0  0  0  0  0  0  0  0  0  0
  140.7390   73.7050  221.2930 C   0  0  0  0  0  0  0  0  0  0  0  0
  141.8790   72.9610  220.7900 C   0  0  0  0  0  0  0  0  0  0  0  0
  141.9620   71.7360  221.2150 O   0  0  0  0  0  0  0  0  0  0  0  0
  142.8980   73.3650  219.9120 N   0  0  0  0  0  0  0  0  0  0  0  0
  142.9950   73.3820  218.4650 C   0  0  0  0  0  0  0  0  0  0  0  0
  144.4670   73.2490  218.1140 C   0  0  0  0  0  0  0  0  0  0  0  0
  145.1310   73.1400  219.4580 C   0  0  0  0  0  0  0  0  0  0  0  0
  144.1960   73.9010  220.3440 C   0  0  1  0  0  0  0  0  0  0  0  0
  144.2970   75.3850  220.0850 C   0  0  0  0  0  0  0  0  0  0  0  0
  142.9960   75.9590  220.0620 N   0  0  0  0  0  0  0  0  0  0  0  0
  142.6630   76.7450  218.9170 C   0  0  0  0  0  0  0  0  0  0  0  0
  141.7650   77.8850  219.1840 C   0  0  0  0  0  0  0  0  0  0  0  0
  142.1750   79.1680  219.4310 C   0  0  0  0  0  0  0  0  0  0  0  0
  141.2870   80.2000  219.6760 C   0  0  0  0  0  0  0  0  0  0  0  0
  139.9270   79.9560  219.6780 C   0  0  0  0  0  0  0  0  0  0  0  0
  138.7500   81.2340  219.9850 Cl  0  0  0  0  0  0  0  0  0  0  0  0
  139.5020   78.6660  219.4300 C   0  0  0  0  0  0  0  0  0  0  0  0
  140.4060   77.6430  219.1860 C   0  0  0  0  0  0  0  0  0  0  0  0
  140.0600   77.2910  222.4530 C   0  0  0  0  0  0  0  0  0  0  0  0
  138.9950   78.0960  222.7980 C   0  0  0  0  0  0  0  0  0  0  0  0
  139.2870   79.3970  223.2140 C   0  0  0  0  0  0  0  0  0  0  0  0
  140.6040   79.8530  223.2750 C   0  0  0  0  0  0  0  0  0  0  0  0
  140.9130   81.1350  223.6850 C   0  0  0  0  0  0  0  0  0  0  0  0
  142.2320   81.5640  223.7370 C   0  0  0  0  0  0  0  0  0  0  0  0
  143.2670   80.6950  223.3740 C   0  0  0  0  0  0  0  0  0  0  0  0
  142.9700   79.4100  222.9630 C   0  0  0  0  0  0  0  0  0  0  0  0
  141.6350   78.9960  222.9170 C   0  0  0  0  0  0  0  0  0  0  0  0
  141.3130   77.7600  222.5240 N   0  0  0  0  0  0  0  0  0  0  0  0
  141.8670   75.4830  221.8420 H   0  0  0  0  0  0  0  0  0  0  0  0
  140.3474   73.1449  222.1549 H   0  0  0  0  0  0  0  0  0  0  0  0
  140.0832   73.7948  220.4144 H   0  0  0  0  0  0  0  0  0  0  0  0
  142.4281   72.5411  218.0390 H   0  0  0  0  0  0  0  0  0  0  0  0
  142.5777   74.3139  218.0557 H   0  0  0  0  0  0  0  0  0  0  0  0
  144.6488   72.3479  217.5098 H   0  0  0  0  0  0  0  0  0  0  0  0
  144.8450   74.0888  217.5125 H   0  0  0  0  0  0  0  0  0  0  0  0
  145.2143   72.0903  219.7762 H   0  0  0  0  0  0  0  0  0  0  0  0
  146.1604   73.5275  219.4712 H   0  0  0  0  0  0  0  0  0  0  0  0
  144.3910   73.7896  221.4208 H   0  0  0  0  0  0  0  0  0  0  0  0
  144.8898   75.8556  220.8832 H   0  0  0  0  0  0  0  0  0  0  0  0
  144.7852   75.5520  219.1135 H   0  0  0  0  0  0  0  0  0  0  0  0
  142.7060   76.3970  220.9650 H   0  0  0  0  0  0  0  0  0  0  0  0
  143.5970   77.1389  218.4899 H   0  0  0  0  0  0  0  0  0  0  0  0
  142.1181   76.0775  218.2333 H   0  0  0  0  0  0  0  0  0  0  0  0
  143.2531   79.3866  219.4347 H   0  0  0  0  0  0  0  0  0  0  0  0
  141.6637   81.2152  219.8693 H   0  0  0  0  0  0  0  0  0  0  0  0
  138.4244   78.4452  219.4258 H   0  0  0  0  0  0  0  0  0  0  0  0
  140.0353   76.6257  218.9916 H   0  0  0  0  0  0  0  0  0  0  0  0
  137.9592   77.7291  222.7477 H   0  0  0  0  0  0  0  0  0  0  0  0
  138.4662   80.0721  223.4978 H   0  0  0  0  0  0  0  0  0  0  0  0
  140.1051   81.8236  223.9735 H   0  0  0  0  0  0  0  0  0  0  0  0
  142.4640   82.5883  224.0640 H   0  0  0  0  0  0  0  0  0  0  0  0
  144.3127   81.0337  223.4157 H   0  0  0  0  0  0  0  0  0  0  0  0
  143.7759   78.7190  222.6747 H   0  0  0  0  0  0  0  0  0  0  0  0
  1  2  2  0
  2  3  1  0
  3  4  1  0
  4  5  1  0
  5  6  2  0
  5  7  1  0
  7  8  1  0
  8  9  1  0
  9 10  1  0
 10 11  1  0
 11 12  1  0
 12 13  1  0
 13 14  1  0
 14 15  1  0
 15 16  2  0
 16 17  1  0
 17 18  2  0
 18 19  1  0
 18 20  1  0
 20 21  2  0
  2 22  1  0
 22 23  2  0
 23 24  1  0
 24 25  2  0
 25 26  1  0
 26 27  2  0
 27 28  1  0
 28 29  2  0
 29 30  1  0
 30 31  2  0
 11  7  1  0
 21 15  1  0
 31 22  1  0
 30 25  1  0
  3 32  1  0
  4 33  1  0
  4 34  1  0
  8 35  1  0
  8 36  1  0
  9 37  1  0
  9 38  1  0
 10 39  1  0
 10 40  1  0
 11 41  1  1
 12 42  1  0
 12 43  1  0
 13 44  1  0
 14 45  1  0
 14 46  1  0
 16 47  1  0
 17 48  1  0
 20 49  1  0
 21 50  1  0
 23 51  1  0
 24 52  1  0
 26 53  1  0
 27 54  1  0
 28 55  1  0
 29 56  1  0
M  END
>  <smiles>  (30) 
O=C(NCC(=O)N1CCC[C@H]1CNCc1ccc(Cl)cc1)c1ccc2ccccc2n1

>  <score_type>  (30) 
oracle

>  <origin>  (30) 
autodockgpu

>  <m_score__min__energy>  (30) 
-8.8800000000000008

>  <m_primary>  (30) 
energy

>  <rmsd>  (30) 
6.940355479674577

>  <m_score__min__rmsd>  (30) 
6.940355479674577

>  <meeko>  (30) 
{"free_energy": -6.51, "intermolecular_energy": -8.9, "internal_energy": -4.7, "cluster_size": 12, "cluster_id": 4, "rank_in_cluster": 12}

>  <energy>  (30) 
-7.25

>  <cluster_rmsd>  (30) 
0.58

>  <cluster>  (30) 
5

$$$$

     RDKit          3D

 56 59  0  0  0  0  0  0  0  0999 V2000
  142.0470   77.8590  217.0270 O   0  0  0  0  0  0  0  0  0  0  0  0
  142.5440   77.4940  218.1470 C   0  0  0  0  0  0  0  0  0  0  0  0
  142.5360   78.3800  219.2800 N   0  0  0  0  0  0  0  0  0  0  0  0
  141.9950   79.6890  219.2260 C   0  0  0  0  0  0  0  0  0  0  0  0
  141.5290   80.3250  220.4450 C   0  0  0  0  0  0  0  0  0  0  0  0
  141.5790   81.6240  220.4350 O   0  0  0  0  0  0  0  0  0  0  0  0
  141.0310   79.7490  221.6240 N   0  0  0  0  0  0  0  0  0  0  0  0
  139.8300   79.9910  222.4010 C   0  0  0  0  0  0  0  0  0  0  0  0
  140.1460   79.6180  223.8390 C   0  0  0  0  0  0  0  0  0  0  0  0
  141.5840   79.1880  223.7740 C   0  0  0  0  0  0  0  0  0  0  0  0
  141.7070   78.6800  222.3710 C   0  0  1  0  0  0  0  0  0  0  0  0
  140.9960   77.3580  222.2140 C   0  0  0  0  0  0  0  0  0  0  0  0
  141.4820   76.6860  221.0580 N   0  0  0  0  0  0  0  0  0  0  0  0
  140.5710   75.8040  220.4000 C   0  0  0  0  0  0  0  0  0  0  0  0
  140.2740   74.5570  221.1310 C   0  0  0  0  0  0  0  0  0  0  0  0
  139.0520   74.2250  221.6520 C   0  0  0  0  0  0  0  0  0  0  0  0
  138.8290   73.0400  222.3300 C   0  0  0  0  0  0  0  0  0  0  0  0
  139.8610   72.1370  222.5030 C   0  0  0  0  0  0  0  0  0  0  0  0
  139.6340   70.6110  223.3580 Cl  0  0  0  0  0  0  0  0  0  0  0  0
  141.0980   72.4630  221.9800 C   0  0  0  0  0  0  0  0  0  0  0  0
  141.3040   73.6550  221.3040 C   0  0  0  0  0  0  0  0  0  0  0  0
  143.1330   76.1560  218.2810 C   0  0  0  0  0  0  0  0  0  0  0  0
  143.1040   75.2990  217.2010 C   0  0  0  0  0  0  0  0  0  0  0  0
  143.6740   74.0360  217.3740 C   0  0  0  0  0  0  0  0  0  0  0  0
  144.2460   73.6660  218.5910 C   0  0  0  0  0  0  0  0  0  0  0  0
  144.8150   72.4230  218.7800 C   0  0  0  0  0  0  0  0  0  0  0  0
  145.3780   72.0790  220.0020 C   0  0  0  0  0  0  0  0  0  0  0  0
  145.3740   72.9970  221.0590 C   0  0  0  0  0  0  0  0  0  0  0  0
  144.8090   74.2440  220.8810 C   0  0  0  0  0  0  0  0  0  0  0  0
  144.2470   74.5710  219.6420 C   0  0  0  0  0  0  0  0  0  0  0  0
  143.6910   75.7690  219.4370 N   0  0  0  0  0  0  0  0  0  0  0  0
  142.9650   77.9810  220.1650 H   0  0  0  0  0  0  0  0  0  0  0  0
  142.7755   80.3397  218.8048 H   0  0  0  0  0  0  0  0  0  0  0  0
  141.0757   79.5623  218.6353 H   0  0  0  0  0  0  0  0  0  0  0  0
  139.5484   81.0526  222.3397 H   0  0  0  0  0  0  0  0  0  0  0  0
  138.9888   79.3949  222.0176 H   0  0  0  0  0  0  0  0  0  0  0  0
  140.0228   80.4831  224.5071 H   0  0  0  0  0  0  0  0  0  0  0  0
  139.4804   78.8388  224.2388 H   0  0  0  0  0  0  0  0  0  0  0  0
  142.2611   80.0368  223.9503 H   0  0  0  0  0  0  0  0  0  0  0  0
  141.8535   78.4417  224.5359 H   0  0  0  0  0  0  0  0  0  0  0  0
  142.7381   78.4856  222.0408 H   0  0  0  0  0  0  0  0  0  0  0  0
  141.1798   76.7363  223.1026 H   0  0  0  0  0  0  0  0  0  0  0  0
  139.9161   77.5362  222.1045 H   0  0  0  0  0  0  0  0  0  0  0  0
  142.4420   76.2850  221.1680 H   0  0  0  0  0  0  0  0  0  0  0  0
  139.6247   76.3432  220.2461 H   0  0  0  0  0  0  0  0  0  0  0  0
  141.0585   75.5020  219.4613 H   0  0  0  0  0  0  0  0  0  0  0  0
  138.2152   74.9278  221.5265 H   0  0  0  0  0  0  0  0  0  0  0  0
  137.8297   72.8162  222.7317 H   0  0  0  0  0  0  0  0  0  0  0  0
  141.9365   71.7617  222.1029 H   0  0  0  0  0  0  0  0  0  0  0  0
  142.3010   73.8851  220.9002 H   0  0  0  0  0  0  0  0  0  0  0  0
  142.6512   75.5976  216.2440 H   0  0  0  0  0  0  0  0  0  0  0  0
  143.6718   73.3218  216.5374 H   0  0  0  0  0  0  0  0  0  0  0  0
  144.8227   71.6968  217.9538 H   0  0  0  0  0  0  0  0  0  0  0  0
  145.8275   71.0845  220.1395 H   0  0  0  0  0  0  0  0  0  0  0  0
  145.8193   72.7257  222.0276 H   0  0  0  0  0  0  0  0  0  0  0  0
  144.8007   74.9730  221.7047 H   0  0  0  0  0  0  0  0  0  0  0  0
  1  2  2  0
  2  3  1  0
  3  4  1  0
  4  5  1  0
  5  6  2  0
  5  7  1  0
  7  8  1  0
  8  9  1  0
  9 10  1  0
 10 11  1  0
 11 12  1  0
 12 13  1  0
 13 14  1  0
 14 15  1  0
 15 16  2  0
 16 17  1  0
 17 18  2  0
 18 19  1  0
 18 20  1  0
 20 21  2  0
  2 22  1  0
 22 23  2  0
 23 24  1  0
 24 25  2  0
 25 26  1  0
 26 27  2  0
 27 28  1  0
 28 29  2  0
 29 30  1  0
 30 31  2  0
 11  7  1  0
 21 15  1  0
 31 22  1  0
 30 25  1  0
  3 32  1  0
  4 33  1  0
  4 34  1  0
  8 35  1  0
  8 36  1  0
  9 37  1  0
  9 38  1  0
 10 39  1  0
 10 40  1  0
 11 41  1  6
 12 42  1  0
 12 43  1  0
 13 44  1  0
 14 45  1  0
 14 46  1  0
 16 47  1  0
 17 48  1  0
 20 49  1  0
 21 50  1  0
 23 51  1  0
 24 52  1  0
 26 53  1  0
 27 54  1  0
 28 55  1  0
 29 56  1  0
M  END
>  <smiles>  (31) 
O=C(NCC(=O)N1CCC[C@H]1CNCc1ccc(Cl)cc1)c1ccc2ccccc2n1

>  <score_type>  (31) 
oracle

>  <origin>  (31) 
autodockgpu

>  <m_score__min__energy>  (31) 
-8.8800000000000008

>  <m_primary>  (31) 
energy

>  <rmsd>  (31) 
7.772465583154618

>  <m_score__min__rmsd>  (31) 
7.772465583154618

>  <meeko>  (31) 
{"free_energy": -6.66, "intermolecular_energy": -9.04, "internal_energy": -4.11, "cluster_size": 6, "cluster_id": 6, "rank_in_cluster": 4}

>  <energy>  (31) 
-7.19

>  <cluster_rmsd>  (31) 
0.63

>  <cluster>  (31) 
5

$$$$

     RDKit          3D

 56 59  0  0  0  0  0  0  0  0999 V2000
  138.6750   75.2730  222.2330 O   0  0  0  0  0  0  0  0  0  0  0  0
  139.8470   75.7700  222.1160 C   0  0  0  0  0  0  0  0  0  0  0  0
  140.9210   74.9990  221.5480 N   0  0  0  0  0  0  0  0  0  0  0  0
  140.7520   73.6650  221.1000 C   0  0  0  0  0  0  0  0  0  0  0  0
  141.9070   72.9040  220.6590 C   0  0  0  0  0  0  0  0  0  0  0  0
  141.7690   71.6130  220.7280 O   0  0  0  0  0  0  0  0  0  0  0  0
  143.1430   73.3520  220.1660 N   0  0  0  0  0  0  0  0  0  0  0  0
  144.0670   72.8030  219.1920 C   0  0  0  0  0  0  0  0  0  0  0  0
  145.4540   73.2990  219.5630 C   0  0  0  0  0  0  0  0  0  0  0  0
  145.2060   74.1200  220.7960 C   0  0  0  0  0  0  0  0  0  0  0  0
  143.8000   74.5940  220.5920 C   0  0  1  0  0  0  0  0  0  0  0  0
  143.7410   75.6520  219.5160 C   0  0  0  0  0  0  0  0  0  0  0  0
  142.8180   76.6670  219.8920 N   0  0  0  0  0  0  0  0  0  0  0  0
  142.5910   77.7080  218.9410 C   0  0  0  0  0  0  0  0  0  0  0  0
  141.7420   78.8160  219.4210 C   0  0  0  0  0  0  0  0  0  0  0  0
  142.1910   80.0700  219.7370 C   0  0  0  0  0  0  0  0  0  0  0  0
  141.3490   81.0730  220.1830 C   0  0  0  0  0  0  0  0  0  0  0  0
  139.9970   80.8270  220.3260 C   0  0  0  0  0  0  0  0  0  0  0  0
  138.8770   82.0670  220.8910 Cl  0  0  0  0  0  0  0  0  0  0  0  0
  139.5330   79.5650  220.0100 C   0  0  0  0  0  0  0  0  0  0  0  0
  140.3910   78.5720  219.5630 C   0  0  0  0  0  0  0  0  0  0  0  0
  140.1050   77.1420  222.5670 C   0  0  0  0  0  0  0  0  0  0  0  0
  139.0480   77.9180  222.9950 C   0  0  0  0  0  0  0  0  0  0  0  0
  139.3390   79.2180  223.4140 C   0  0  0  0  0  0  0  0  0  0  0  0
  140.6470   79.7030  223.3960 C   0  0  0  0  0  0  0  0  0  0  0  0
  140.9540   80.9850  223.8070 C   0  0  0  0  0  0  0  0  0  0  0  0
  142.2640   81.4430  223.7790 C   0  0  0  0  0  0  0  0  0  0  0  0
  143.2920   80.6040  223.3330 C   0  0  0  0  0  0  0  0  0  0  0  0
  142.9960   79.3200  222.9210 C   0  0  0  0  0  0  0  0  0  0  0  0
  141.6700   78.8760  222.9560 C   0  0  0  0  0  0  0  0  0  0  0  0
  141.3500   77.6390  222.5630 N   0  0  0  0  0  0  0  0  0  0  0  0
  141.8520   75.5020  221.4870 H   0  0  0  0  0  0  0  0  0  0  0  0
  140.2984   73.1043  221.9306 H   0  0  0  0  0  0  0  0  0  0  0  0
  140.1525   73.7756  220.1844 H   0  0  0  0  0  0  0  0  0  0  0  0
  144.0386   71.7038  219.2228 H   0  0  0  0  0  0  0  0  0  0  0  0
  143.7970   73.1204  218.1740 H   0  0  0  0  0  0  0  0  0  0  0  0
  146.1293   72.4578  219.7784 H   0  0  0  0  0  0  0  0  0  0  0  0
  145.9390   73.8679  218.7561 H   0  0  0  0  0  0  0  0  0  0  0  0
  145.2909   73.5071  221.7055 H   0  0  0  0  0  0  0  0  0  0  0  0
  145.9293   74.9377  220.9314 H   0  0  0  0  0  0  0  0  0  0  0  0
  143.3398   75.0640  221.4737 H   0  0  0  0  0  0  0  0  0  0  0  0
  144.7389   76.0957  219.3843 H   0  0  0  0  0  0  0  0  0  0  0  0
  143.4133   75.1932  218.5715 H   0  0  0  0  0  0  0  0  0  0  0  0
  142.9410   77.0170  220.8690 H   0  0  0  0  0  0  0  0  0  0  0  0
  143.5669   78.1258  218.6527 H   0  0  0  0  0  0  0  0  0  0  0  0
  142.0493   77.2461  218.1024 H   0  0  0  0  0  0  0  0  0  0  0  0
  143.2639   80.2888  219.6321 H   0  0  0  0  0  0  0  0  0  0  0  0
  141.7559   82.0662  220.4237 H   0  0  0  0  0  0  0  0  0  0  0  0
  138.4607   79.3433  220.1151 H   0  0  0  0  0  0  0  0  0  0  0  0
  139.9901   77.5773  219.3185 H   0  0  0  0  0  0  0  0  0  0  0  0
  138.0191   77.5292  223.0058 H   0  0  0  0  0  0  0  0  0  0  0  0
  138.5245   79.8695  223.7636 H   0  0  0  0  0  0  0  0  0  0  0  0
  140.1522   81.6501  224.1602 H   0  0  0  0  0  0  0  0  0  0  0  0
  142.4948   82.4670  224.1079 H   0  0  0  0  0  0  0  0  0  0  0  0
  144.3305   80.9660  223.3109 H   0  0  0  0  0  0  0  0  0  0  0  0
  143.7957   78.6521  222.5684 H   0  0  0  0  0  0  0  0  0  0  0  0
  1  2  2  0
  2  3  1  0
  3  4  1  0
  4  5  1  0
  5  6  2  0
  5  7  1  0
  7  8  1  0
  8  9  1  0
  9 10  1  0
 10 11  1  0
 11 12  1  0
 12 13  1  0
 13 14  1  0
 14 15  1  0
 15 16  2  0
 16 17  1  0
 17 18  2  0
 18 19  1  0
 18 20  1  0
 20 21  2  0
  2 22  1  0
 22 23  2  0
 23 24  1  0
 24 25  2  0
 25 26  1  0
 26 27  2  0
 27 28  1  0
 28 29  2  0
 29 30  1  0
 30 31  2  0
 11  7  1  0
 21 15  1  0
 31 22  1  0
 30 25  1  0
  3 32  1  0
  4 33  1  0
  4 34  1  0
  8 35  1  0
  8 36  1  0
  9 37  1  0
  9 38  1  0
 10 39  1  0
 10 40  1  0
 11 41  1  1
 12 42  1  0
 12 43  1  0
 13 44  1  0
 14 45  1  0
 14 46  1  0
 16 47  1  0
 17 48  1  0
 20 49  1  0
 21 50  1  0
 23 51  1  0
 24 52  1  0
 26 53  1  0
 27 54  1  0
 28 55  1  0
 29 56  1  0
M  END
>  <smiles>  (32) 
O=C(NCC(=O)N1CCC[C@H]1CNCc1ccc(Cl)cc1)c1ccc2ccccc2n1

>  <score_type>  (32) 
oracle

>  <origin>  (32) 
autodockgpu

>  <m_score__min__energy>  (32) 
-8.8800000000000008

>  <m_primary>  (32) 
energy

>  <rmsd>  (32) 
6.864184385448815

>  <m_score__min__rmsd>  (32) 
6.864184385448815

>  <meeko>  (32) 
{"free_energy": -7.01, "intermolecular_energy": -9.4, "internal_energy": -4.71, "cluster_size": 12, "cluster_id": 4, "rank_in_cluster": 7}

>  <energy>  (32) 
-7.15

>  <cluster_rmsd>  (32) 
1.13

>  <cluster>  (32) 
5

$$$$

     RDKit          3D

 56 59  0  0  0  0  0  0  0  0999 V2000
  138.5490   75.5050  222.0370 O   0  0  0  0  0  0  0  0  0  0  0  0
  139.7550   75.9130  222.1510 C   0  0  0  0  0  0  0  0  0  0  0  0
  140.8600   75.0380  221.8600 N   0  0  0  0  0  0  0  0  0  0  0  0
  140.6840   73.6940  221.4470 C   0  0  0  0  0  0  0  0  0  0  0  0
  141.8370   72.9100  221.0430 C   0  0  0  0  0  0  0  0  0  0  0  0
  141.9210   71.7380  221.5990 O   0  0  0  0  0  0  0  0  0  0  0  0
  142.8670   73.2240  220.1430 N   0  0  0  0  0  0  0  0  0  0  0  0
  143.0480   72.9570  218.7290 C   0  0  0  0  0  0  0  0  0  0  0  0
  144.5440   72.9000  218.4730 C   0  0  0  0  0  0  0  0  0  0  0  0
  145.1340   73.1320  219.8350 C   0  0  0  0  0  0  0  0  0  0  0  0
  144.0840   73.9620  220.5060 C   0  0  1  0  0  0  0  0  0  0  0  0
  144.0700   75.3650  219.9480 C   0  0  0  0  0  0  0  0  0  0  0  0
  142.7700   75.9250  220.0880 N   0  0  0  0  0  0  0  0  0  0  0  0
  142.1890   76.4950  218.9150 C   0  0  0  0  0  0  0  0  0  0  0  0
  142.0560   77.9640  218.9360 C   0  0  0  0  0  0  0  0  0  0  0  0
  142.8240   78.8330  218.2080 C   0  0  0  0  0  0  0  0  0  0  0  0
  142.6560   80.2050  218.2660 C   0  0  0  0  0  0  0  0  0  0  0  0
  141.6840   80.7480  219.0840 C   0  0  0  0  0  0  0  0  0  0  0  0
  141.4260   82.4890  219.1980 Cl  0  0  0  0  0  0  0  0  0  0  0  0
  140.9030   79.8810  219.8230 C   0  0  0  0  0  0  0  0  0  0  0  0
  141.0850   78.5080  219.7520 C   0  0  0  0  0  0  0  0  0  0  0  0
  140.0210   77.2900  222.5840 C   0  0  0  0  0  0  0  0  0  0  0  0
  138.9600   78.1050  222.9170 C   0  0  0  0  0  0  0  0  0  0  0  0
  139.2580   79.4080  223.3230 C   0  0  0  0  0  0  0  0  0  0  0  0
  140.5780   79.8560  223.3860 C   0  0  0  0  0  0  0  0  0  0  0  0
  140.8930   81.1390  223.7850 C   0  0  0  0  0  0  0  0  0  0  0  0
  142.2140   81.5610  223.8390 C   0  0  0  0  0  0  0  0  0  0  0  0
  143.2460   80.6820  223.4880 C   0  0  0  0  0  0  0  0  0  0  0  0
  142.9430   79.3960  223.0880 C   0  0  0  0  0  0  0  0  0  0  0  0
  141.6050   78.9900  223.0400 C   0  0  0  0  0  0  0  0  0  0  0  0
  141.2780   77.7520  222.6560 N   0  0  0  0  0  0  0  0  0  0  0  0
  141.8200   75.4720  221.9770 H   0  0  0  0  0  0  0  0  0  0  0  0
  140.2139   73.1610  222.2866 H   0  0  0  0  0  0  0  0  0  0  0  0
  140.0980   73.7848  220.5205 H   0  0  0  0  0  0  0  0  0  0  0  0
  142.5830   71.9960  218.4640 H   0  0  0  0  0  0  0  0  0  0  0  0
  142.5761   73.7413  218.1190 H   0  0  0  0  0  0  0  0  0  0  0  0
  144.8394   71.9170  218.0773 H   0  0  0  0  0  0  0  0  0  0  0  0
  144.8822   73.6329  217.7257 H   0  0  0  0  0  0  0  0  0  0  0  0
  145.2904   72.1823  220.3675 H   0  0  0  0  0  0  0  0  0  0  0  0
  146.1227   73.6134  219.8084 H   0  0  0  0  0  0  0  0  0  0  0  0
  144.2229   74.0919  221.5894 H   0  0  0  0  0  0  0  0  0  0  0  0
  144.7954   75.9837  220.4966 H   0  0  0  0  0  0  0  0  0  0  0  0
  144.3404   75.3352  218.8822 H   0  0  0  0  0  0  0  0  0  0  0  0
  142.6490   76.5170  220.9410 H   0  0  0  0  0  0  0  0  0  0  0  0
  142.8182   76.2216  218.0551 H   0  0  0  0  0  0  0  0  0  0  0  0
  141.1664   76.0946  218.8527 H   0  0  0  0  0  0  0  0  0  0  0  0
  143.6056   78.4239  217.5509 H   0  0  0  0  0  0  0  0  0  0  0  0
  143.2964   80.8636  217.6608 H   0  0  0  0  0  0  0  0  0  0  0  0
  140.1210   80.2877  220.4810 H   0  0  0  0  0  0  0  0  0  0  0  0
  140.4472   77.8440  220.3539 H   0  0  0  0  0  0  0  0  0  0  0  0
  137.9221   77.7443  222.8652 H   0  0  0  0  0  0  0  0  0  0  0  0
  138.4402   80.0908  223.5970 H   0  0  0  0  0  0  0  0  0  0  0  0
  140.0880   81.8350  224.0634 H   0  0  0  0  0  0  0  0  0  0  0  0
  142.4506   82.5869  224.1578 H   0  0  0  0  0  0  0  0  0  0  0  0
  144.2936   81.0148  223.5308 H   0  0  0  0  0  0  0  0  0  0  0  0
  143.7457   78.6973  222.8097 H   0  0  0  0  0  0  0  0  0  0  0  0
  1  2  2  0
  2  3  1  0
  3  4  1  0
  4  5  1  0
  5  6  2  0
  5  7  1  0
  7  8  1  0
  8  9  1  0
  9 10  1  0
 10 11  1  0
 11 12  1  0
 12 13  1  0
 13 14  1  0
 14 15  1  0
 15 16  2  0
 16 17  1  0
 17 18  2  0
 18 19  1  0
 18 20  1  0
 20 21  2  0
  2 22  1  0
 22 23  2  0
 23 24  1  0
 24 25  2  0
 25 26  1  0
 26 27  2  0
 27 28  1  0
 28 29  2  0
 29 30  1  0
 30 31  2  0
 11  7  1  0
 21 15  1  0
 31 22  1  0
 30 25  1  0
  3 32  1  0
  4 33  1  0
  4 34  1  0
  8 35  1  0
  8 36  1  0
  9 37  1  0
  9 38  1  0
 10 39  1  0
 10 40  1  0
 11 41  1  1
 12 42  1  0
 12 43  1  0
 13 44  1  0
 14 45  1  0
 14 46  1  0
 16 47  1  0
 17 48  1  0
 20 49  1  0
 21 50  1  0
 23 51  1  0
 24 52  1  0
 26 53  1  0
 27 54  1  0
 28 55  1  0
 29 56  1  0
M  END
>  <smiles>  (33) 
O=C(NCC(=O)N1CCC[C@H]1CNCc1ccc(Cl)cc1)c1ccc2ccccc2n1

>  <score_type>  (33) 
oracle

>  <origin>  (33) 
autodockgpu

>  <m_score__min__energy>  (33) 
-8.8800000000000008

>  <m_primary>  (33) 
energy

>  <rmsd>  (33) 
6.993240642522449

>  <m_score__min__rmsd>  (33) 
6.993240642522449

>  <meeko>  (33) 
{"free_energy": -7.49, "intermolecular_energy": -9.87, "internal_energy": -4.12, "cluster_size": 23, "cluster_id": 5, "rank_in_cluster": 4}

>  <energy>  (33) 
-7.0

>  <cluster_rmsd>  (33) 
0.62

>  <cluster>  (33) 
5

$$$$

     RDKit          3D

 56 59  0  0  0  0  0  0  0  0999 V2000
  138.5930   75.3460  221.9700 O   0  0  0  0  0  0  0  0  0  0  0  0
  139.7910   75.7880  222.0340 C   0  0  0  0  0  0  0  0  0  0  0  0
  140.9020   74.9610  221.6410 N   0  0  0  0  0  0  0  0  0  0  0  0
  140.7420   73.6320  221.1780 C   0  0  0  0  0  0  0  0  0  0  0  0
  141.9010   72.8840  220.7270 C   0  0  0  0  0  0  0  0  0  0  0  0
  141.7760   71.5910  220.7950 O   0  0  0  0  0  0  0  0  0  0  0  0
  143.1290   73.3450  220.2270 N   0  0  0  0  0  0  0  0  0  0  0  0
  144.0110   72.8520  219.1870 C   0  0  0  0  0  0  0  0  0  0  0  0
  145.4180   73.2960  219.5460 C   0  0  0  0  0  0  0  0  0  0  0  0
  145.2250   74.0300  220.8430 C   0  0  0  0  0  0  0  0  0  0  0  0
  143.8240   74.5410  220.7200 C   0  0  1  0  0  0  0  0  0  0  0  0
  143.7510   75.6750  219.7260 C   0  0  0  0  0  0  0  0  0  0  0  0
  142.6160   76.4860  220.0050 N   0  0  0  0  0  0  0  0  0  0  0  0
  142.1710   77.3460  218.9550 C   0  0  0  0  0  0  0  0  0  0  0  0
  141.5210   78.5920  219.4050 C   0  0  0  0  0  0  0  0  0  0  0  0
  142.1700   79.7730  219.6480 C   0  0  0  0  0  0  0  0  0  0  0  0
  141.5100   80.9140  220.0690 C   0  0  0  0  0  0  0  0  0  0  0  0
  140.1410   80.8900  220.2610 C   0  0  0  0  0  0  0  0  0  0  0  0
  139.2480   82.3130  220.7960 Cl  0  0  0  0  0  0  0  0  0  0  0  0
  139.4770   79.7030  220.0180 C   0  0  0  0  0  0  0  0  0  0  0  0
  140.1540   78.5690  219.5960 C   0  0  0  0  0  0  0  0  0  0  0  0
  140.0410   77.1520  222.5130 C   0  0  0  0  0  0  0  0  0  0  0  0
  138.9760   77.9220  222.9310 C   0  0  0  0  0  0  0  0  0  0  0  0
  139.2590   79.2140  223.3780 C   0  0  0  0  0  0  0  0  0  0  0  0
  140.5680   79.6970  223.3970 C   0  0  0  0  0  0  0  0  0  0  0  0
  140.8680   80.9710  223.8360 C   0  0  0  0  0  0  0  0  0  0  0  0
  142.1790   81.4280  223.8450 C   0  0  0  0  0  0  0  0  0  0  0  0
  143.2150   80.5950  223.4080 C   0  0  0  0  0  0  0  0  0  0  0  0
  142.9270   79.3180  222.9670 C   0  0  0  0  0  0  0  0  0  0  0  0
  141.6000   78.8760  222.9650 C   0  0  0  0  0  0  0  0  0  0  0  0
  141.2870   77.6470  222.5450 N   0  0  0  0  0  0  0  0  0  0  0  0
  141.8540   75.4210  221.7230 H   0  0  0  0  0  0  0  0  0  0  0  0
  140.2932   73.0587  222.0025 H   0  0  0  0  0  0  0  0  0  0  0  0
  140.1410   73.7494  220.2642 H   0  0  0  0  0  0  0  0  0  0  0  0
  143.9623   71.7541  219.1403 H   0  0  0  0  0  0  0  0  0  0  0  0
  143.7152   73.2466  218.2037 H   0  0  0  0  0  0  0  0  0  0  0  0
  146.0835   72.4301  219.6779 H   0  0  0  0  0  0  0  0  0  0  0  0
  145.8881   73.9134  218.7663 H   0  0  0  0  0  0  0  0  0  0  0  0
  145.3267   73.3515  221.7028 H   0  0  0  0  0  0  0  0  0  0  0  0
  145.9680   74.8232  221.0130 H   0  0  0  0  0  0  0  0  0  0  0  0
  143.4019   74.9531  221.6484 H   0  0  0  0  0  0  0  0  0  0  0  0
  144.6633   76.2852  219.8000 H   0  0  0  0  0  0  0  0  0  0  0  0
  143.6630   75.2631  218.7098 H   0  0  0  0  0  0  0  0  0  0  0  0
  142.6430   76.9520  220.9400 H   0  0  0  0  0  0  0  0  0  0  0  0
  143.0438   77.6178  218.3431 H   0  0  0  0  0  0  0  0  0  0  0  0
  141.4069   76.7833  218.3987 H   0  0  0  0  0  0  0  0  0  0  0  0
  143.2595   79.8164  219.5027 H   0  0  0  0  0  0  0  0  0  0  0  0
  142.0746   81.8403  220.2510 H   0  0  0  0  0  0  0  0  0  0  0  0
  138.3875   79.6566  220.1625 H   0  0  0  0  0  0  0  0  0  0  0  0
  139.5951   77.6398  219.4111 H   0  0  0  0  0  0  0  0  0  0  0  0
  137.9467   77.5345  222.9130 H   0  0  0  0  0  0  0  0  0  0  0  0
  138.4378   79.8609  223.7203 H   0  0  0  0  0  0  0  0  0  0  0  0
  140.0594   81.6314  224.1825 H   0  0  0  0  0  0  0  0  0  0  0  0
  142.4035   82.4460  224.1960 H   0  0  0  0  0  0  0  0  0  0  0  0
  144.2542   80.9555  223.4156 H   0  0  0  0  0  0  0  0  0  0  0  0
  143.7336   78.6551  222.6207 H   0  0  0  0  0  0  0  0  0  0  0  0
  1  2  2  0
  2  3  1  0
  3  4  1  0
  4  5  1  0
  5  6  2  0
  5  7  1  0
  7  8  1  0
  8  9  1  0
  9 10  1  0
 10 11  1  0
 11 12  1  0
 12 13  1  0
 13 14  1  0
 14 15  1  0
 15 16  2  0
 16 17  1  0
 17 18  2  0
 18 19  1  0
 18 20  1  0
 20 21  2  0
  2 22  1  0
 22 23  2  0
 23 24  1  0
 24 25  2  0
 25 26  1  0
 26 27  2  0
 27 28  1  0
 28 29  2  0
 29 30  1  0
 30 31  2  0
 11  7  1  0
 21 15  1  0
 31 22  1  0
 30 25  1  0
  3 32  1  0
  4 33  1  0
  4 34  1  0
  8 35  1  0
  8 36  1  0
  9 37  1  0
  9 38  1  0
 10 39  1  0
 10 40  1  0
 11 41  1  1
 12 42  1  0
 12 43  1  0
 13 44  1  0
 14 45  1  0
 14 46  1  0
 16 47  1  0
 17 48  1  0
 20 49  1  0
 21 50  1  0
 23 51  1  0
 24 52  1  0
 26 53  1  0
 27 54  1  0
 28 55  1  0
 29 56  1  0
M  END
>  <smiles>  (34) 
O=C(NCC(=O)N1CCC[C@H]1CNCc1ccc(Cl)cc1)c1ccc2ccccc2n1

>  <score_type>  (34) 
oracle

>  <origin>  (34) 
autodockgpu

>  <m_score__min__energy>  (34) 
-8.8800000000000008

>  <m_primary>  (34) 
energy

>  <rmsd>  (34) 
6.862175578410587

>  <m_score__min__rmsd>  (34) 
6.862175578410587

>  <meeko>  (34) 
{"free_energy": -7.1, "intermolecular_energy": -9.49, "internal_energy": -4.97, "cluster_size": 12, "cluster_id": 4, "rank_in_cluster": 5}

>  <energy>  (34) 
-7.0

>  <cluster_rmsd>  (34) 
0.86

>  <cluster>  (34) 
5

$$$$

     RDKit          3D

 56 59  0  0  0  0  0  0  0  0999 V2000
  138.6700   75.3120  222.0590 O   0  0  0  0  0  0  0  0  0  0  0  0
  139.8620   75.7730  222.0900 C   0  0  0  0  0  0  0  0  0  0  0  0
  140.9810   74.9460  221.7230 N   0  0  0  0  0  0  0  0  0  0  0  0
  140.8360   73.5950  221.3200 C   0  0  0  0  0  0  0  0  0  0  0  0
  141.6830   73.0640  220.2680 C   0  0  0  0  0  0  0  0  0  0  0  0
  141.1970   72.0320  219.6450 O   0  0  0  0  0  0  0  0  0  0  0  0
  142.9410   73.5000  219.8220 N   0  0  0  0  0  0  0  0  0  0  0  0
  143.7640   73.1230  218.6890 C   0  0  0  0  0  0  0  0  0  0  0  0
  145.2090   73.3770  219.0810 C   0  0  0  0  0  0  0  0  0  0  0  0
  145.0970   73.8890  220.4900 C   0  0  0  0  0  0  0  0  0  0  0  0
  143.7440   74.5300  220.4940 C   0  0  1  0  0  0  0  0  0  0  0  0
  143.7590   75.8210  219.7120 C   0  0  0  0  0  0  0  0  0  0  0  0
  142.6160   76.5990  220.0470 N   0  0  0  0  0  0  0  0  0  0  0  0
  142.0050   77.3290  218.9830 C   0  0  0  0  0  0  0  0  0  0  0  0
  141.3760   78.6030  219.3820 C   0  0  0  0  0  0  0  0  0  0  0  0
  140.0340   78.7900  219.5770 C   0  0  0  0  0  0  0  0  0  0  0  0
  139.4970   80.0090  219.9520 C   0  0  0  0  0  0  0  0  0  0  0  0
  140.3250   81.0990  220.1440 C   0  0  0  0  0  0  0  0  0  0  0  0
  139.6970   82.6760  220.6220 Cl  0  0  0  0  0  0  0  0  0  0  0  0
  141.6820   80.9210  219.9510 C   0  0  0  0  0  0  0  0  0  0  0  0
  142.2020   79.6920  219.5750 C   0  0  0  0  0  0  0  0  0  0  0  0
  140.0960   77.1600  222.5060 C   0  0  0  0  0  0  0  0  0  0  0  0
  139.0170   77.9520  222.8410 C   0  0  0  0  0  0  0  0  0  0  0  0
  139.2860   79.2660  223.2300 C   0  0  0  0  0  0  0  0  0  0  0  0
  140.5940   79.7480  223.2750 C   0  0  0  0  0  0  0  0  0  0  0  0
  140.8790   81.0440  223.6580 C   0  0  0  0  0  0  0  0  0  0  0  0
  142.1900   81.5000  223.6950 C   0  0  0  0  0  0  0  0  0  0  0  0
  143.2400   80.6440  223.3430 C   0  0  0  0  0  0  0  0  0  0  0  0
  142.9670   79.3460  222.9590 C   0  0  0  0  0  0  0  0  0  0  0  0
  141.6400   78.9050  222.9280 C   0  0  0  0  0  0  0  0  0  0  0  0
  141.3410   77.6550  222.5610 N   0  0  0  0  0  0  0  0  0  0  0  0
  141.9270   75.4230  221.7730 H   0  0  0  0  0  0  0  0  0  0  0  0
  141.0092   72.9755  222.2123 H   0  0  0  0  0  0  0  0  0  0  0  0
  139.8293   73.5661  220.8776 H   0  0  0  0  0  0  0  0  0  0  0  0
  143.6184   72.0581  218.4549 H   0  0  0  0  0  0  0  0  0  0  0  0
  143.4925   73.7067  217.7970 H   0  0  0  0  0  0  0  0  0  0  0  0
  145.7969   72.4480  219.0443 H   0  0  0  0  0  0  0  0  0  0  0  0
  145.7224   74.0780  218.4065 H   0  0  0  0  0  0  0  0  0  0  0  0
  145.1492   73.0657  221.2177 H   0  0  0  0  0  0  0  0  0  0  0  0
  145.9087   74.5752  220.7735 H   0  0  0  0  0  0  0  0  0  0  0  0
  143.3703   74.8092  221.4902 H   0  0  0  0  0  0  0  0  0  0  0  0
  144.6704   76.3861  219.9571 H   0  0  0  0  0  0  0  0  0  0  0  0
  143.7423   75.5946  218.6357 H   0  0  0  0  0  0  0  0  0  0  0  0
  142.7200   77.1550  220.9260 H   0  0  0  0  0  0  0  0  0  0  0  0
  142.7784   77.5504  218.2328 H   0  0  0  0  0  0  0  0  0  0  0  0
  141.1941   76.6925  218.5992 H   0  0  0  0  0  0  0  0  0  0  0  0
  139.3552   77.9370  219.4297 H   0  0  0  0  0  0  0  0  0  0  0  0
  138.4114   80.1105  220.0973 H   0  0  0  0  0  0  0  0  0  0  0  0
  142.3634   81.7718  220.0988 H   0  0  0  0  0  0  0  0  0  0  0  0
  143.2868   79.5833  219.4286 H   0  0  0  0  0  0  0  0  0  0  0  0
  137.9881   77.5647  222.8033 H   0  0  0  0  0  0  0  0  0  0  0  0
  138.4539   79.9308  223.5050 H   0  0  0  0  0  0  0  0  0  0  0  0
  140.0589   81.7220  223.9366 H   0  0  0  0  0  0  0  0  0  0  0  0
  142.4036   82.5347  224.0012 H   0  0  0  0  0  0  0  0  0  0  0  0
  144.2790   81.0040  223.3722 H   0  0  0  0  0  0  0  0  0  0  0  0
  143.7851   78.6655  222.6802 H   0  0  0  0  0  0  0  0  0  0  0  0
  1  2  2  0
  2  3  1  0
  3  4  1  0
  4  5  1  0
  5  6  2  0
  5  7  1  0
  7  8  1  0
  8  9  1  0
  9 10  1  0
 10 11  1  0
 11 12  1  0
 12 13  1  0
 13 14  1  0
 14 15  1  0
 15 16  2  0
 16 17  1  0
 17 18  2  0
 18 19  1  0
 18 20  1  0
 20 21  2  0
  2 22  1  0
 22 23  2  0
 23 24  1  0
 24 25  2  0
 25 26  1  0
 26 27  2  0
 27 28  1  0
 28 29  2  0
 29 30  1  0
 30 31  2  0
 11  7  1  0
 21 15  1  0
 31 22  1  0
 30 25  1  0
  3 32  1  0
  4 33  1  0
  4 34  1  0
  8 35  1  0
  8 36  1  0
  9 37  1  0
  9 38  1  0
 10 39  1  0
 10 40  1  0
 11 41  1  1
 12 42  1  0
 12 43  1  0
 13 44  1  0
 14 45  1  0
 14 46  1  0
 16 47  1  0
 17 48  1  0
 20 49  1  0
 21 50  1  0
 23 51  1  0
 24 52  1  0
 26 53  1  0
 27 54  1  0
 28 55  1  0
 29 56  1  0
M  END
>  <smiles>  (35) 
O=C(NCC(=O)N1CCC[C@H]1CNCc1ccc(Cl)cc1)c1ccc2ccccc2n1

>  <score_type>  (35) 
oracle

>  <origin>  (35) 
autodockgpu

>  <m_score__min__energy>  (35) 
-8.8800000000000008

>  <m_primary>  (35) 
energy

>  <rmsd>  (35) 
6.773207942517365

>  <m_score__min__rmsd>  (35) 
6.773207942517365

>  <meeko>  (35) 
{"free_energy": -6.99, "intermolecular_energy": -9.37, "internal_energy": -5.01, "cluster_size": 23, "cluster_id": 5, "rank_in_cluster": 16}

>  <energy>  (35) 
-6.99

>  <cluster_rmsd>  (35) 
0.89

>  <cluster>  (35) 
5

$$$$

     RDKit          3D

 56 59  0  0  0  0  0  0  0  0999 V2000
  138.7200   75.1540  221.9470 O   0  0  0  0  0  0  0  0  0  0  0  0
  139.8950   75.6570  221.9670 C   0  0  0  0  0  0  0  0  0  0  0  0
  141.0400   74.8680  221.5940 N   0  0  0  0  0  0  0  0  0  0  0  0
  140.9380   73.5110  221.1970 C   0  0  0  0  0  0  0  0  0  0  0  0
  141.8620   72.9800  220.2110 C   0  0  0  0  0  0  0  0  0  0  0  0
  141.4440   71.9180  219.5880 O   0  0  0  0  0  0  0  0  0  0  0  0
  143.1310   73.4430  219.8280 N   0  0  0  0  0  0  0  0  0  0  0  0
  144.0280   73.0640  218.7530 C   0  0  0  0  0  0  0  0  0  0  0  0
  145.4400   73.3700  219.2220 C   0  0  0  0  0  0  0  0  0  0  0  0
  145.2320   73.9100  220.6090 C   0  0  0  0  0  0  0  0  0  0  0  0
  143.8640   74.5110  220.5200 C   0  0  1  0  0  0  0  0  0  0  0  0
  143.8880   75.7840  219.7090 C   0  0  0  0  0  0  0  0  0  0  0  0
  142.6870   76.5150  219.9270 N   0  0  0  0  0  0  0  0  0  0  0  0
  142.2230   77.3210  218.8430 C   0  0  0  0  0  0  0  0  0  0  0  0
  141.5590   78.5770  219.2410 C   0  0  0  0  0  0  0  0  0  0  0  0
  142.1920   79.7770  219.4220 C   0  0  0  0  0  0  0  0  0  0  0  0
  141.5180   80.9260  219.7970 C   0  0  0  0  0  0  0  0  0  0  0  0
  140.1520   80.8900  220.0030 C   0  0  0  0  0  0  0  0  0  0  0  0
  139.2420   82.3230  220.4820 Cl  0  0  0  0  0  0  0  0  0  0  0  0
  139.5030   79.6840  219.8230 C   0  0  0  0  0  0  0  0  0  0  0  0
  140.1940   78.5420  219.4470 C   0  0  0  0  0  0  0  0  0  0  0  0
  140.0850   77.0530  222.3770 C   0  0  0  0  0  0  0  0  0  0  0  0
  138.9800   77.8150  222.6940 C   0  0  0  0  0  0  0  0  0  0  0  0
  139.2060   79.1380  223.0770 C   0  0  0  0  0  0  0  0  0  0  0  0
  140.4990   79.6590  223.1330 C   0  0  0  0  0  0  0  0  0  0  0  0
  140.7430   80.9650  223.5100 C   0  0  0  0  0  0  0  0  0  0  0  0
  142.0390   81.4590  223.5580 C   0  0  0  0  0  0  0  0  0  0  0  0
  143.1180   80.6320  223.2240 C   0  0  0  0  0  0  0  0  0  0  0  0
  142.8860   79.3240  222.8460 C   0  0  0  0  0  0  0  0  0  0  0  0
  141.5730   78.8440  222.8040 C   0  0  0  0  0  0  0  0  0  0  0  0
  141.3140   77.5840  222.4420 N   0  0  0  0  0  0  0  0  0  0  0  0
  141.9690   75.3770  221.6360 H   0  0  0  0  0  0  0  0  0  0  0  0
  141.0565   72.9027  222.1058 H   0  0  0  0  0  0  0  0  0  0  0  0
  139.9643   73.4650  220.6874 H   0  0  0  0  0  0  0  0  0  0  0  0
  143.9263   71.9902  218.5374 H   0  0  0  0  0  0  0  0  0  0  0  0
  143.7922   73.6177  217.8322 H   0  0  0  0  0  0  0  0  0  0  0  0
  146.0553   72.4584  219.2418 H   0  0  0  0  0  0  0  0  0  0  0  0
  145.9714   74.0709  218.5615 H   0  0  0  0  0  0  0  0  0  0  0  0
  145.2648   73.1052  221.3581 H   0  0  0  0  0  0  0  0  0  0  0  0
  146.0063   74.6259  220.9219 H   0  0  0  0  0  0  0  0  0  0  0  0
  143.4255   74.8016  221.4861 H   0  0  0  0  0  0  0  0  0  0  0  0
  144.7492   76.3962  220.0150 H   0  0  0  0  0  0  0  0  0  0  0  0
  143.9730   75.5337  218.6412 H   0  0  0  0  0  0  0  0  0  0  0  0
  142.6420   76.9980  220.8520 H   0  0  0  0  0  0  0  0  0  0  0  0
  143.0878   77.5767  218.2131 H   0  0  0  0  0  0  0  0  0  0  0  0
  141.4628   76.7236  218.3185 H   0  0  0  0  0  0  0  0  0  0  0  0
  143.2792   79.8302  219.2631 H   0  0  0  0  0  0  0  0  0  0  0  0
  142.0697   81.8682  219.9311 H   0  0  0  0  0  0  0  0  0  0  0  0
  138.4159   79.6283  219.9811 H   0  0  0  0  0  0  0  0  0  0  0  0
  139.6481   77.5967  219.3112 H   0  0  0  0  0  0  0  0  0  0  0  0
  137.9633   77.3976  222.6470 H   0  0  0  0  0  0  0  0  0  0  0  0
  138.3517   79.7796  223.3387 H   0  0  0  0  0  0  0  0  0  0  0  0
  139.9007   81.6210  223.7752 H   0  0  0  0  0  0  0  0  0  0  0  0
  142.2186   82.5017  223.8589 H   0  0  0  0  0  0  0  0  0  0  0  0
  144.1458   81.0221  223.2624 H   0  0  0  0  0  0  0  0  0  0  0  0
  143.7263   78.6657  222.5804 H   0  0  0  0  0  0  0  0  0  0  0  0
  1  2  2  0
  2  3  1  0
  3  4  1  0
  4  5  1  0
  5  6  2  0
  5  7  1  0
  7  8  1  0
  8  9  1  0
  9 10  1  0
 10 11  1  0
 11 12  1  0
 12 13  1  0
 13 14  1  0
 14 15  1  0
 15 16  2  0
 16 17  1  0
 17 18  2  0
 18 19  1  0
 18 20  1  0
 20 21  2  0
  2 22  1  0
 22 23  2  0
 23 24  1  0
 24 25  2  0
 25 26  1  0
 26 27  2  0
 27 28  1  0
 28 29  2  0
 29 30  1  0
 30 31  2  0
 11  7  1  0
 21 15  1  0
 31 22  1  0
 30 25  1  0
  3 32  1  0
  4 33  1  0
  4 34  1  0
  8 35  1  0
  8 36  1  0
  9 37  1  0
  9 38  1  0
 10 39  1  0
 10 40  1  0
 11 41  1  1
 12 42  1  0
 12 43  1  0
 13 44  1  0
 14 45  1  0
 14 46  1  0
 16 47  1  0
 17 48  1  0
 20 49  1  0
 21 50  1  0
 23 51  1  0
 24 52  1  0
 26 53  1  0
 27 54  1  0
 28 55  1  0
 29 56  1  0
M  END
>  <smiles>  (36) 
O=C(NCC(=O)N1CCC[C@H]1CNCc1ccc(Cl)cc1)c1ccc2ccccc2n1

>  <score_type>  (36) 
oracle

>  <origin>  (36) 
autodockgpu

>  <m_score__min__energy>  (36) 
-8.8800000000000008

>  <m_primary>  (36) 
energy

>  <rmsd>  (36) 
6.875611808439658

>  <m_score__min__rmsd>  (36) 
6.875611808439658

>  <meeko>  (36) 
{"free_energy": -6.97, "intermolecular_energy": -9.36, "internal_energy": -5.02, "cluster_size": 12, "cluster_id": 4, "rank_in_cluster": 9}

>  <energy>  (36) 
-6.98

>  <cluster_rmsd>  (36) 
0.91

>  <cluster>  (36) 
5

$$$$

     RDKit          3D

 56 59  0  0  0  0  0  0  0  0999 V2000
  138.7320   75.2500  221.8500 O   0  0  0  0  0  0  0  0  0  0  0  0
  139.9170   75.7050  222.0090 C   0  0  0  0  0  0  0  0  0  0  0  0
  141.0640   74.8670  221.7770 N   0  0  0  0  0  0  0  0  0  0  0  0
  140.9550   73.5120  221.3760 C   0  0  0  0  0  0  0  0  0  0  0  0
  142.1310   72.8060  220.9020 C   0  0  0  0  0  0  0  0  0  0  0  0
  142.1760   71.5460  221.2180 O   0  0  0  0  0  0  0  0  0  0  0  0
  143.2210   73.2790  220.1530 N   0  0  0  0  0  0  0  0  0  0  0  0
  143.7900   72.8650  218.8850 C   0  0  0  0  0  0  0  0  0  0  0  0
  145.2640   73.2300  218.9170 C   0  0  0  0  0  0  0  0  0  0  0  0
  145.4370   73.8370  220.2800 C   0  0  0  0  0  0  0  0  0  0  0  0
  144.0780   74.4000  220.5590 C   0  0  1  0  0  0  0  0  0  0  0  0
  143.8220   75.6270  219.7190 C   0  0  0  0  0  0  0  0  0  0  0  0
  142.5640   76.1930  220.0660 N   0  0  0  0  0  0  0  0  0  0  0  0
  141.8180   76.7930  219.0070 C   0  0  0  0  0  0  0  0  0  0  0  0
  141.7070   78.2630  219.0780 C   0  0  0  0  0  0  0  0  0  0  0  0
  142.6060   79.1450  218.5420 C   0  0  0  0  0  0  0  0  0  0  0  0
  142.4530   80.5170  218.6380 C   0  0  0  0  0  0  0  0  0  0  0  0
  141.3590   81.0450  219.2960 C   0  0  0  0  0  0  0  0  0  0  0  0
  141.1130   82.7850  219.4500 Cl  0  0  0  0  0  0  0  0  0  0  0  0
  140.4450   80.1640  219.8410 C   0  0  0  0  0  0  0  0  0  0  0  0
  140.6140   78.7920  219.7340 C   0  0  0  0  0  0  0  0  0  0  0  0
  140.1130   77.0950  222.4320 C   0  0  0  0  0  0  0  0  0  0  0  0
  139.0110   77.8660  222.7390 C   0  0  0  0  0  0  0  0  0  0  0  0
  139.2440   79.1840  223.1360 C   0  0  0  0  0  0  0  0  0  0  0  0
  140.5410   79.6910  223.2180 C   0  0  0  0  0  0  0  0  0  0  0  0
  140.7910   80.9910  223.6090 C   0  0  0  0  0  0  0  0  0  0  0  0
  142.0910   81.4720  223.6820 C   0  0  0  0  0  0  0  0  0  0  0  0
  143.1670   80.6370  223.3570 C   0  0  0  0  0  0  0  0  0  0  0  0
  142.9290   79.3350  222.9640 C   0  0  0  0  0  0  0  0  0  0  0  0
  141.6110   78.8690  222.8980 C   0  0  0  0  0  0  0  0  0  0  0  0
  141.3460   77.6140  222.5210 N   0  0  0  0  0  0  0  0  0  0  0  0
  142.0020   75.3390  221.9280 H   0  0  0  0  0  0  0  0  0  0  0  0
  140.5748   72.9522  222.2432 H   0  0  0  0  0  0  0  0  0  0  0  0
  140.3086   73.5589  220.4872 H   0  0  0  0  0  0  0  0  0  0  0  0
  143.6729   71.7790  218.7554 H   0  0  0  0  0  0  0  0  0  0  0  0
  143.2813   73.3628  218.0463 H   0  0  0  0  0  0  0  0  0  0  0  0
  145.8945   72.3362  218.8002 H   0  0  0  0  0  0  0  0  0  0  0  0
  145.5587   73.9076  218.1021 H   0  0  0  0  0  0  0  0  0  0  0  0
  145.7113   73.0738  221.0231 H   0  0  0  0  0  0  0  0  0  0  0  0
  146.2404   74.5869  220.3273 H   0  0  0  0  0  0  0  0  0  0  0  0
  143.9210   74.7319  221.5959 H   0  0  0  0  0  0  0  0  0  0  0  0
  144.6171   76.3655  219.8990 H   0  0  0  0  0  0  0  0  0  0  0  0
  143.8131   75.3447  218.6559 H   0  0  0  0  0  0  0  0  0  0  0  0
  142.5790   76.7660  220.9400 H   0  0  0  0  0  0  0  0  0  0  0  0
  142.3058   76.5330  218.0560 H   0  0  0  0  0  0  0  0  0  0  0  0
  140.7932   76.4026  219.0929 H   0  0  0  0  0  0  0  0  0  0  0  0
  143.4852   78.7474  218.0139 H   0  0  0  0  0  0  0  0  0  0  0  0
  143.2021   81.1869  218.1906 H   0  0  0  0  0  0  0  0  0  0  0  0
  139.5655   80.5590  220.3705 H   0  0  0  0  0  0  0  0  0  0  0  0
  139.8675   78.1166  220.1775 H   0  0  0  0  0  0  0  0  0  0  0  0
  137.9911   77.4592  222.6737 H   0  0  0  0  0  0  0  0  0  0  0  0
  138.3920   79.8325  223.3880 H   0  0  0  0  0  0  0  0  0  0  0  0
  139.9508   81.6530  223.8655 H   0  0  0  0  0  0  0  0  0  0  0  0
  142.2761   82.5100  223.9955 H   0  0  0  0  0  0  0  0  0  0  0  0
  144.1978   81.0168  223.4145 H   0  0  0  0  0  0  0  0  0  0  0  0
  143.7668   78.6707  222.7054 H   0  0  0  0  0  0  0  0  0  0  0  0
  1  2  2  0
  2  3  1  0
  3  4  1  0
  4  5  1  0
  5  6  2  0
  5  7  1  0
  7  8  1  0
  8  9  1  0
  9 10  1  0
 10 11  1  0
 11 12  1  0
 12 13  1  0
 13 14  1  0
 14 15  1  0
 15 16  2  0
 16 17  1  0
 17 18  2  0
 18 19  1  0
 18 20  1  0
 20 21  2  0
  2 22  1  0
 22 23  2  0
 23 24  1  0
 24 25  2  0
 25 26  1  0
 26 27  2  0
 27 28  1  0
 28 29  2  0
 29 30  1  0
 30 31  2  0
 11  7  1  0
 21 15  1  0
 31 22  1  0
 30 25  1  0
  3 32  1  0
  4 33  1  0
  4 34  1  0
  8 35  1  0
  8 36  1  0
  9 37  1  0
  9 38  1  0
 10 39  1  0
 10 40  1  0
 11 41  1  1
 12 42  1  0
 12 43  1  0
 13 44  1  0
 14 45  1  0
 14 46  1  0
 16 47  1  0
 17 48  1  0
 20 49  1  0
 21 50  1  0
 23 51  1  0
 24 52  1  0
 26 53  1  0
 27 54  1  0
 28 55  1  0
 29 56  1  0
M  END
>  <smiles>  (37) 
O=C(NCC(=O)N1CCC[C@H]1CNCc1ccc(Cl)cc1)c1ccc2ccccc2n1

>  <score_type>  (37) 
oracle

>  <origin>  (37) 
autodockgpu

>  <m_score__min__energy>  (37) 
-8.8800000000000008

>  <m_primary>  (37) 
energy

>  <rmsd>  (37) 
6.936899134615387

>  <m_score__min__rmsd>  (37) 
6.936899134615387

>  <meeko>  (37) 
{"free_energy": -7.44, "intermolecular_energy": -9.83, "internal_energy": -4.63, "cluster_size": 23, "cluster_id": 5, "rank_in_cluster": 5}

>  <energy>  (37) 
-6.89

>  <cluster_rmsd>  (37) 
0.98

>  <cluster>  (37) 
5

$$$$

     RDKit          3D

 56 59  0  0  0  0  0  0  0  0999 V2000
  138.6600   75.3760  222.1290 O   0  0  0  0  0  0  0  0  0  0  0  0
  139.8520   75.8360  222.1520 C   0  0  0  0  0  0  0  0  0  0  0  0
  140.9680   75.0060  221.7800 N   0  0  0  0  0  0  0  0  0  0  0  0
  140.8190   73.6540  221.3820 C   0  0  0  0  0  0  0  0  0  0  0  0
  141.6050   73.1400  220.2760 C   0  0  0  0  0  0  0  0  0  0  0  0
  141.0750   72.1290  219.6530 O   0  0  0  0  0  0  0  0  0  0  0  0
  142.8450   73.5710  219.7780 N   0  0  0  0  0  0  0  0  0  0  0  0
  143.5880   73.2390  218.5780 C   0  0  0  0  0  0  0  0  0  0  0  0
  145.0600   73.4390  218.8940 C   0  0  0  0  0  0  0  0  0  0  0  0
  145.0460   73.8750  220.3320 C   0  0  0  0  0  0  0  0  0  0  0  0
  143.7130   74.5450  220.4540 C   0  0  1  0  0  0  0  0  0  0  0  0
  143.7130   75.8760  219.7430 C   0  0  0  0  0  0  0  0  0  0  0  0
  142.5200   76.5860  220.0520 N   0  0  0  0  0  0  0  0  0  0  0  0
  141.9290   77.3360  218.9890 C   0  0  0  0  0  0  0  0  0  0  0  0
  141.3340   78.6250  219.3930 C   0  0  0  0  0  0  0  0  0  0  0  0
  140.0040   78.8310  219.6460 C   0  0  0  0  0  0  0  0  0  0  0  0
  139.4990   80.0630  220.0210 C   0  0  0  0  0  0  0  0  0  0  0  0
  140.3480   81.1470  220.1530 C   0  0  0  0  0  0  0  0  0  0  0  0
  139.7590   82.7400  220.6290 Cl  0  0  0  0  0  0  0  0  0  0  0  0
  141.6910   80.9490  219.9000 C   0  0  0  0  0  0  0  0  0  0  0  0
  142.1800   79.7070  219.5250 C   0  0  0  0  0  0  0  0  0  0  0  0
  140.0910   77.2240  222.5620 C   0  0  0  0  0  0  0  0  0  0  0  0
  139.0140   78.0250  222.8770 C   0  0  0  0  0  0  0  0  0  0  0  0
  139.2860   79.3400  223.2610 C   0  0  0  0  0  0  0  0  0  0  0  0
  140.5980   79.8130  223.3210 C   0  0  0  0  0  0  0  0  0  0  0  0
  140.8870   81.1090  223.6990 C   0  0  0  0  0  0  0  0  0  0  0  0
  142.2010   81.5560  223.7510 C   0  0  0  0  0  0  0  0  0  0  0  0
  143.2490   80.6900  223.4190 C   0  0  0  0  0  0  0  0  0  0  0  0
  142.9720   79.3920  223.0400 C   0  0  0  0  0  0  0  0  0  0  0  0
  141.6420   78.9600  222.9940 C   0  0  0  0  0  0  0  0  0  0  0  0
  141.3390   77.7100  222.6310 N   0  0  0  0  0  0  0  0  0  0  0  0
  141.9150   75.4820  221.8240 H   0  0  0  0  0  0  0  0  0  0  0  0
  141.0591   73.0349  222.2590 H   0  0  0  0  0  0  0  0  0  0  0  0
  139.7865   73.6100  221.0051 H   0  0  0  0  0  0  0  0  0  0  0  0
  143.4015   72.1922  218.2963 H   0  0  0  0  0  0  0  0  0  0  0  0
  143.2781   73.8766  217.7369 H   0  0  0  0  0  0  0  0  0  0  0  0
  145.6208   72.5006  218.7717 H   0  0  0  0  0  0  0  0  0  0  0  0
  145.5496   74.1646  218.2278 H   0  0  0  0  0  0  0  0  0  0  0  0
  145.1207   73.0119  221.0099 H   0  0  0  0  0  0  0  0  0  0  0  0
  145.8906   74.5263  220.6012 H   0  0  0  0  0  0  0  0  0  0  0  0
  143.4078   74.7775  221.4849 H   0  0  0  0  0  0  0  0  0  0  0  0
  144.5833   76.4644  220.0691 H   0  0  0  0  0  0  0  0  0  0  0  0
  143.7655   75.7083  218.6571 H   0  0  0  0  0  0  0  0  0  0  0  0
  142.5530   77.1050  220.9580 H   0  0  0  0  0  0  0  0  0  0  0  0
  142.7085   77.5394  218.2400 H   0  0  0  0  0  0  0  0  0  0  0  0
  141.1020   76.7227  218.6018 H   0  0  0  0  0  0  0  0  0  0  0  0
  139.3099   77.9834  219.5471 H   0  0  0  0  0  0  0  0  0  0  0  0
  138.4225   80.1806  220.2142 H   0  0  0  0  0  0  0  0  0  0  0  0
  142.3876   81.7946  219.9981 H   0  0  0  0  0  0  0  0  0  0  0  0
  143.2555   79.5827  219.3303 H   0  0  0  0  0  0  0  0  0  0  0  0
  137.9832   77.6442  222.8279 H   0  0  0  0  0  0  0  0  0  0  0  0
  138.4547   80.0124  223.5198 H   0  0  0  0  0  0  0  0  0  0  0  0
  140.0680   81.7948  223.9617 H   0  0  0  0  0  0  0  0  0  0  0  0
  142.4180   82.5911  224.0533 H   0  0  0  0  0  0  0  0  0  0  0  0
  144.2901   81.0426  223.4600 H   0  0  0  0  0  0  0  0  0  0  0  0
  143.7889   78.7040  222.7767 H   0  0  0  0  0  0  0  0  0  0  0  0
  1  2  2  0
  2  3  1  0
  3  4  1  0
  4  5  1  0
  5  6  2  0
  5  7  1  0
  7  8  1  0
  8  9  1  0
  9 10  1  0
 10 11  1  0
 11 12  1  0
 12 13  1  0
 13 14  1  0
 14 15  1  0
 15 16  2  0
 16 17  1  0
 17 18  2  0
 18 19  1  0
 18 20  1  0
 20 21  2  0
  2 22  1  0
 22 23  2  0
 23 24  1  0
 24 25  2  0
 25 26  1  0
 26 27  2  0
 27 28  1  0
 28 29  2  0
 29 30  1  0
 30 31  2  0
 11  7  1  0
 21 15  1  0
 31 22  1  0
 30 25  1  0
  3 32  1  0
  4 33  1  0
  4 34  1  0
  8 35  1  0
  8 36  1  0
  9 37  1  0
  9 38  1  0
 10 39  1  0
 10 40  1  0
 11 41  1  1
 12 42  1  0
 12 43  1  0
 13 44  1  0
 14 45  1  0
 14 46  1  0
 16 47  1  0
 17 48  1  0
 20 49  1  0
 21 50  1  0
 23 51  1  0
 24 52  1  0
 26 53  1  0
 27 54  1  0
 28 55  1  0
 29 56  1  0
M  END
>  <smiles>  (38) 
O=C(NCC(=O)N1CCC[C@H]1CNCc1ccc(Cl)cc1)c1ccc2ccccc2n1

>  <score_type>  (38) 
oracle

>  <origin>  (38) 
autodockgpu

>  <m_score__min__energy>  (38) 
-8.8800000000000008

>  <m_primary>  (38) 
energy

>  <rmsd>  (38) 
6.764467712534859

>  <m_score__min__rmsd>  (38) 
6.764467712534859

>  <meeko>  (38) 
{"free_energy": -6.98, "intermolecular_energy": -9.37, "internal_energy": -5.05, "cluster_size": 23, "cluster_id": 5, "rank_in_cluster": 17}

>  <energy>  (38) 
-6.89

>  <cluster_rmsd>  (38) 
0.8

>  <cluster>  (38) 
5

$$$$

     RDKit          3D

 56 59  0  0  0  0  0  0  0  0999 V2000
  138.6110   75.4360  222.0800 O   0  0  0  0  0  0  0  0  0  0  0  0
  139.8010   75.9030  222.0670 C   0  0  0  0  0  0  0  0  0  0  0  0
  140.9050   75.0900  221.6300 N   0  0  0  0  0  0  0  0  0  0  0  0
  140.7470   73.7480  221.2040 C   0  0  0  0  0  0  0  0  0  0  0  0
  141.9150   72.8970  221.0610 C   0  0  0  0  0  0  0  0  0  0  0  0
  141.8330   71.7520  221.6700 O   0  0  0  0  0  0  0  0  0  0  0  0
  143.1110   73.1240  220.3620 N   0  0  0  0  0  0  0  0  0  0  0  0
  143.7300   72.4540  219.2350 C   0  0  0  0  0  0  0  0  0  0  0  0
  145.2300   72.6600  219.3600 C   0  0  0  0  0  0  0  0  0  0  0  0
  145.3610   73.4580  220.6270 C   0  0  0  0  0  0  0  0  0  0  0  0
  144.0620   74.1980  220.6790 C   0  0  1  0  0  0  0  0  0  0  0  0
  144.0260   75.2950  219.6430 C   0  0  0  0  0  0  0  0  0  0  0  0
  143.1680   76.3420  220.0810 N   0  0  0  0  0  0  0  0  0  0  0  0
  142.1540   76.7630  219.1670 C   0  0  0  0  0  0  0  0  0  0  0  0
  141.9720   78.2240  219.0690 C   0  0  0  0  0  0  0  0  0  0  0  0
  141.0430   78.9480  219.7670 C   0  0  0  0  0  0  0  0  0  0  0  0
  140.9160   80.3200  219.6360 C   0  0  0  0  0  0  0  0  0  0  0  0
  141.7440   81.0120  218.7720 C   0  0  0  0  0  0  0  0  0  0  0  0
  141.6250   82.7590  218.5650 Cl  0  0  0  0  0  0  0  0  0  0  0  0
  142.6830   80.2900  218.0620 C   0  0  0  0  0  0  0  0  0  0  0  0
  142.7980   78.9160  218.2070 C   0  0  0  0  0  0  0  0  0  0  0  0
  140.0490   77.2810  222.5040 C   0  0  0  0  0  0  0  0  0  0  0  0
  138.9760   78.0910  222.8100 C   0  0  0  0  0  0  0  0  0  0  0  0
  139.2570   79.3960  223.2200 C   0  0  0  0  0  0  0  0  0  0  0  0
  140.5730   79.8520  223.3130 C   0  0  0  0  0  0  0  0  0  0  0  0
  140.8710   81.1380  223.7180 C   0  0  0  0  0  0  0  0  0  0  0  0
  142.1880   81.5670  223.8020 C   0  0  0  0  0  0  0  0  0  0  0  0
  143.2330   80.6940  223.4770 C   0  0  0  0  0  0  0  0  0  0  0  0
  142.9460   79.4050  223.0720 C   0  0  0  0  0  0  0  0  0  0  0  0
  141.6120   78.9910  222.9930 C   0  0  0  0  0  0  0  0  0  0  0  0
  141.3010   77.7510  222.6050 N   0  0  0  0  0  0  0  0  0  0  0  0
  141.8510   75.5700  221.6490 H   0  0  0  0  0  0  0  0  0  0  0  0
  140.0825   73.2584  221.9312 H   0  0  0  0  0  0  0  0  0  0  0  0
  140.3749   73.8481  220.1737 H   0  0  0  0  0  0  0  0  0  0  0  0
  143.4936   71.3800  219.2586 H   0  0  0  0  0  0  0  0  0  0  0  0
  143.3571   72.8627  218.2842 H   0  0  0  0  0  0  0  0  0  0  0  0
  145.7550   71.6970  219.4439 H   0  0  0  0  0  0  0  0  0  0  0  0
  145.6715   73.1613  218.4861 H   0  0  0  0  0  0  0  0  0  0  0  0
  145.4791   72.8002  221.5007 H   0  0  0  0  0  0  0  0  0  0  0  0
  146.2419   74.1167  220.6414 H   0  0  0  0  0  0  0  0  0  0  0  0
  143.8611   74.7063  221.6336 H   0  0  0  0  0  0  0  0  0  0  0  0
  145.0412   75.6920  219.4958 H   0  0  0  0  0  0  0  0  0  0  0  0
  143.6470   74.8871  218.6943 H   0  0  0  0  0  0  0  0  0  0  0  0
  143.6650   77.1360  220.5440 H   0  0  0  0  0  0  0  0  0  0  0  0
  142.4158   76.3837  218.1682 H   0  0  0  0  0  0  0  0  0  0  0  0
  141.2058   76.3597  219.5519 H   0  0  0  0  0  0  0  0  0  0  0  0
  140.3714   78.4187  220.4589 H   0  0  0  0  0  0  0  0  0  0  0  0
  140.1559   80.8600  220.2196 H   0  0  0  0  0  0  0  0  0  0  0  0
  143.3538   80.8161  217.3668 H   0  0  0  0  0  0  0  0  0  0  0  0
  143.5574   78.3705  217.6275 H   0  0  0  0  0  0  0  0  0  0  0  0
  137.9416   77.7245  222.7343 H   0  0  0  0  0  0  0  0  0  0  0  0
  138.4291   80.0746  223.4734 H   0  0  0  0  0  0  0  0  0  0  0  0
  140.0558   81.8297  223.9768 H   0  0  0  0  0  0  0  0  0  0  0  0
  142.4112   82.5947  224.1245 H   0  0  0  0  0  0  0  0  0  0  0  0
  144.2774   81.0328  223.5438 H   0  0  0  0  0  0  0  0  0  0  0  0
  143.7589   78.7103  222.8140 H   0  0  0  0  0  0  0  0  0  0  0  0
  1  2  2  0
  2  3  1  0
  3  4  1  0
  4  5  1  0
  5  6  2  0
  5  7  1  0
  7  8  1  0
  8  9  1  0
  9 10  1  0
 10 11  1  0
 11 12  1  0
 12 13  1  0
 13 14  1  0
 14 15  1  0
 15 16  2  0
 16 17  1  0
 17 18  2  0
 18 19  1  0
 18 20  1  0
 20 21  2  0
  2 22  1  0
 22 23  2  0
 23 24  1  0
 24 25  2  0
 25 26  1  0
 26 27  2  0
 27 28  1  0
 28 29  2  0
 29 30  1  0
 30 31  2  0
 11  7  1  0
 21 15  1  0
 31 22  1  0
 30 25  1  0
  3 32  1  0
  4 33  1  0
  4 34  1  0
  8 35  1  0
  8 36  1  0
  9 37  1  0
  9 38  1  0
 10 39  1  0
 10 40  1  0
 11 41  1  1
 12 42  1  0
 12 43  1  0
 13 44  1  0
 14 45  1  0
 14 46  1  0
 16 47  1  0
 17 48  1  0
 20 49  1  0
 21 50  1  0
 23 51  1  0
 24 52  1  0
 26 53  1  0
 27 54  1  0
 28 55  1  0
 29 56  1  0
M  END
>  <smiles>  (39) 
O=C(NCC(=O)N1CCC[C@H]1CNCc1ccc(Cl)cc1)c1ccc2ccccc2n1

>  <score_type>  (39) 
oracle

>  <origin>  (39) 
autodockgpu

>  <m_score__min__energy>  (39) 
-8.8800000000000008

>  <m_primary>  (39) 
energy

>  <rmsd>  (39) 
6.986551157807754

>  <m_score__min__rmsd>  (39) 
6.986551157807754

>  <meeko>  (39) 
{"free_energy": -7.78, "intermolecular_energy": -10.17, "internal_energy": -3.77, "cluster_size": 23, "cluster_id": 5, "rank_in_cluster": 1}

>  <energy>  (39) 
-6.87

>  <cluster_rmsd>  (39) 
0.78

>  <cluster>  (39) 
5

$$$$

     RDKit          3D

 56 59  0  0  0  0  0  0  0  0999 V2000
  140.3610   73.2010  222.4010 O   0  0  0  0  0  0  0  0  0  0  0  0
  139.6510   72.1480  222.5460 C   0  0  0  0  0  0  0  0  0  0  0  0
  138.7190   71.7430  221.5270 N   0  0  0  0  0  0  0  0  0  0  0  0
  138.5280   72.4750  220.3290 C   0  0  0  0  0  0  0  0  0  0  0  0
  137.8440   73.7540  220.3710 C   0  0  0  0  0  0  0  0  0  0  0  0
  137.6270   74.2950  219.2080 O   0  0  0  0  0  0  0  0  0  0  0  0
  137.3800   74.4900  221.4730 N   0  0  0  0  0  0  0  0  0  0  0  0
  136.6430   74.1110  222.6630 C   0  0  0  0  0  0  0  0  0  0  0  0
  135.8560   75.3310  223.1090 C   0  0  0  0  0  0  0  0  0  0  0  0
  136.2070   76.3620  222.0740 C   0  0  0  0  0  0  0  0  0  0  0  0
  137.5760   75.9350  221.6430 C   0  0  1  0  0  0  0  0  0  0  0  0
  138.5950   76.2360  222.7150 C   0  0  0  0  0  0  0  0  0  0  0  0
  139.8670   75.7330  222.3230 N   0  0  0  0  0  0  0  0  0  0  0  0
  140.6480   76.5680  221.4670 C   0  0  0  0  0  0  0  0  0  0  0  0
  141.1060   77.8310  222.0770 C   0  0  0  0  0  0  0  0  0  0  0  0
  141.2540   79.0170  221.4100 C   0  0  0  0  0  0  0  0  0  0  0  0
  141.6880   80.1740  222.0330 C   0  0  0  0  0  0  0  0  0  0  0  0
  141.9910   80.1600  223.3810 C   0  0  0  0  0  0  0  0  0  0  0  0
  142.5490   81.6040  224.2270 Cl  0  0  0  0  0  0  0  0  0  0  0  0
  141.8450   78.9690  224.0640 C   0  0  0  0  0  0  0  0  0  0  0  0
  141.4080   77.8190  223.4240 C   0  0  0  0  0  0  0  0  0  0  0  0
  139.7840   71.3410  223.7640 C   0  0  0  0  0  0  0  0  0  0  0  0
  139.3480   70.0330  223.7520 C   0  0  0  0  0  0  0  0  0  0  0  0
  139.4910   69.3010  224.9330 C   0  0  0  0  0  0  0  0  0  0  0  0
  140.0550   69.8780  226.0720 C   0  0  0  0  0  0  0  0  0  0  0  0
  140.2060   69.1710  227.2470 C   0  0  0  0  0  0  0  0  0  0  0  0
  140.7700   69.7690  228.3670 C   0  0  0  0  0  0  0  0  0  0  0  0
  141.1930   71.1020  228.3120 C   0  0  0  0  0  0  0  0  0  0  0  0
  141.0470   71.8190  227.1400 C   0  0  0  0  0  0  0  0  0  0  0  0
  140.4770   71.1990  226.0230 C   0  0  0  0  0  0  0  0  0  0  0  0
  140.3210   71.8650  224.8750 N   0  0  0  0  0  0  0  0  0  0  0  0
  138.1840   70.8520  221.7370 H   0  0  0  0  0  0  0  0  0  0  0  0
  139.5261   72.6605  219.9056 H   0  0  0  0  0  0  0  0  0  0  0  0
  137.8470   71.8386  219.7449 H   0  0  0  0  0  0  0  0  0  0  0  0
  135.9567   73.2825  222.4338 H   0  0  0  0  0  0  0  0  0  0  0  0
  137.3269   73.7750  223.4564 H   0  0  0  0  0  0  0  0  0  0  0  0
  134.7755   75.1248  223.1100 H   0  0  0  0  0  0  0  0  0  0  0  0
  136.0967   75.6490  224.1341 H   0  0  0  0  0  0  0  0  0  0  0  0
  135.4994   76.3372  221.2322 H   0  0  0  0  0  0  0  0  0  0  0  0
  136.1682   77.3942  222.4523 H   0  0  0  0  0  0  0  0  0  0  0  0
  137.9554   76.4438  220.7446 H   0  0  0  0  0  0  0  0  0  0  0  0
  138.6614   77.3242  222.8610 H   0  0  0  0  0  0  0  0  0  0  0  0
  138.2873   75.7550  223.6552 H   0  0  0  0  0  0  0  0  0  0  0  0
  139.8580   74.7300  222.0300 H   0  0  0  0  0  0  0  0  0  0  0  0
  141.5355   75.9993  221.1525 H   0  0  0  0  0  0  0  0  0  0  0  0
  139.9917   76.8506  220.6307 H   0  0  0  0  0  0  0  0  0  0  0  0
  141.0186   79.0519  220.3361 H   0  0  0  0  0  0  0  0  0  0  0  0
  141.7917   81.1043  221.4553 H   0  0  0  0  0  0  0  0  0  0  0  0
  142.0802   78.9316  225.1379 H   0  0  0  0  0  0  0  0  0  0  0  0
  141.3007   76.8859  223.9966 H   0  0  0  0  0  0  0  0  0  0  0  0
  138.9060   69.5846  222.8500 H   0  0  0  0  0  0  0  0  0  0  0  0
  139.1542   68.2544  224.9659 H   0  0  0  0  0  0  0  0  0  0  0  0
  139.8764   68.1228  227.2976 H   0  0  0  0  0  0  0  0  0  0  0  0
  140.8842   69.1943  229.2979 H   0  0  0  0  0  0  0  0  0  0  0  0
  141.6397   71.5768  229.1980 H   0  0  0  0  0  0  0  0  0  0  0  0
  141.3758   72.8673  227.0858 H   0  0  0  0  0  0  0  0  0  0  0  0
  1  2  2  0
  2  3  1  0
  3  4  1  0
  4  5  1  0
  5  6  2  0
  5  7  1  0
  7  8  1  0
  8  9  1  0
  9 10  1  0
 10 11  1  0
 11 12  1  0
 12 13  1  0
 13 14  1  0
 14 15  1  0
 15 16  2  0
 16 17  1  0
 17 18  2  0
 18 19  1  0
 18 20  1  0
 20 21  2  0
  2 22  1  0
 22 23  2  0
 23 24  1  0
 24 25  2  0
 25 26  1  0
 26 27  2  0
 27 28  1  0
 28 29  2  0
 29 30  1  0
 30 31  2  0
 11  7  1  0
 21 15  1  0
 31 22  1  0
 30 25  1  0
  3 32  1  0
  4 33  1  0
  4 34  1  0
  8 35  1  0
  8 36  1  0
  9 37  1  0
  9 38  1  0
 10 39  1  0
 10 40  1  0
 11 41  1  6
 12 42  1  0
 12 43  1  0
 13 44  1  0
 14 45  1  0
 14 46  1  0
 16 47  1  0
 17 48  1  0
 20 49  1  0
 21 50  1  0
 23 51  1  0
 24 52  1  0
 26 53  1  0
 27 54  1  0
 28 55  1  0
 29 56  1  0
M  END
>  <smiles>  (40) 
O=C(NCC(=O)N1CCC[C@H]1CNCc1ccc(Cl)cc1)c1ccc2ccccc2n1

>  <score_type>  (40) 
oracle

>  <origin>  (40) 
autodockgpu

>  <m_score__min__energy>  (40) 
-8.8800000000000008

>  <m_primary>  (40) 
energy

>  <rmsd>  (40) 
3.756405523872807

>  <m_score__min__rmsd>  (40) 
3.756405523872807

>  <meeko>  (40) 
{"free_energy": -8.38, "intermolecular_energy": -10.76, "internal_energy": -2.49, "cluster_size": 4, "cluster_id": 3, "rank_in_cluster": 1}

>  <energy>  (40) 
-6.28

>  <cluster_rmsd>  (40) 
1.11

>  <cluster>  (40) 
5

$$$$

     RDKit          3D

 56 59  0  0  0  0  0  0  0  0999 V2000
  138.7480   75.2890  221.7670 O   0  0  0  0  0  0  0  0  0  0  0  0
  139.9330   75.7350  221.9450 C   0  0  0  0  0  0  0  0  0  0  0  0
  141.0770   74.8870  221.7390 N   0  0  0  0  0  0  0  0  0  0  0  0
  140.9650   73.5310  221.3430 C   0  0  0  0  0  0  0  0  0  0  0  0
  142.1250   72.8390  220.8120 C   0  0  0  0  0  0  0  0  0  0  0  0
  142.2210   71.5900  221.1590 O   0  0  0  0  0  0  0  0  0  0  0  0
  143.1510   73.3140  219.9790 N   0  0  0  0  0  0  0  0  0  0  0  0
  143.4450   73.1120  218.5740 C   0  0  0  0  0  0  0  0  0  0  0  0
  144.9470   73.2650  218.4050 C   0  0  0  0  0  0  0  0  0  0  0  0
  145.4230   73.5380  219.8040 C   0  0  0  0  0  0  0  0  0  0  0  0
  144.2340   74.2000  220.4270 C   0  0  1  0  0  0  0  0  0  0  0  0
  144.0600   75.6020  219.8960 C   0  0  0  0  0  0  0  0  0  0  0  0
  142.7140   76.0230  220.0840 N   0  0  0  0  0  0  0  0  0  0  0  0
  142.0540   76.5820  218.9480 C   0  0  0  0  0  0  0  0  0  0  0  0
  141.6350   77.9890  219.0990 C   0  0  0  0  0  0  0  0  0  0  0  0
  140.3910   78.3990  219.4980 C   0  0  0  0  0  0  0  0  0  0  0  0
  140.0510   79.7350  219.6240 C   0  0  0  0  0  0  0  0  0  0  0  0
  140.9850   80.7140  219.3420 C   0  0  0  0  0  0  0  0  0  0  0  0
  140.6070   82.4310  219.4840 Cl  0  0  0  0  0  0  0  0  0  0  0  0
  142.2430   80.3110  218.9380 C   0  0  0  0  0  0  0  0  0  0  0  0
  142.5660   78.9680  218.8180 C   0  0  0  0  0  0  0  0  0  0  0  0
  140.1330   77.1260  222.3650 C   0  0  0  0  0  0  0  0  0  0  0  0
  139.0330   77.8970  222.6800 C   0  0  0  0  0  0  0  0  0  0  0  0
  139.2690   79.2160  223.0740 C   0  0  0  0  0  0  0  0  0  0  0  0
  140.5670   79.7230  223.1430 C   0  0  0  0  0  0  0  0  0  0  0  0
  140.8200   81.0240  223.5300 C   0  0  0  0  0  0  0  0  0  0  0  0
  142.1210   81.5050  223.5910 C   0  0  0  0  0  0  0  0  0  0  0  0
  143.1940   80.6700  223.2580 C   0  0  0  0  0  0  0  0  0  0  0  0
  142.9520   79.3670  222.8690 C   0  0  0  0  0  0  0  0  0  0  0  0
  141.6350   78.9010  222.8150 C   0  0  0  0  0  0  0  0  0  0  0  0
  141.3670   77.6460  222.4420 N   0  0  0  0  0  0  0  0  0  0  0  0
  142.0160   75.3520  221.9040 H   0  0  0  0  0  0  0  0  0  0  0  0
  140.6340   72.9667  222.2273 H   0  0  0  0  0  0  0  0  0  0  0  0
  140.2758   73.5703  220.4866 H   0  0  0  0  0  0  0  0  0  0  0  0
  143.1312   72.1043  218.2640 H   0  0  0  0  0  0  0  0  0  0  0  0
  142.9049   73.8413  217.9524 H   0  0  0  0  0  0  0  0  0  0  0  0
  145.3955   72.3421  218.0086 H   0  0  0  0  0  0  0  0  0  0  0  0
  145.2229   74.0567  217.6929 H   0  0  0  0  0  0  0  0  0  0  0  0
  145.6774   72.6042  220.3267 H   0  0  0  0  0  0  0  0  0  0  0  0
  146.3368   74.1490  219.8450 H   0  0  0  0  0  0  0  0  0  0  0  0
  144.2930   74.3185  221.5190 H   0  0  0  0  0  0  0  0  0  0  0  0
  144.7348   76.2834  220.4349 H   0  0  0  0  0  0  0  0  0  0  0  0
  144.2995   75.6170  218.8225 H   0  0  0  0  0  0  0  0  0  0  0  0
  142.5550   76.5640  220.9640 H   0  0  0  0  0  0  0  0  0  0  0  0
  142.7402   76.5206  218.0904 H   0  0  0  0  0  0  0  0  0  0  0  0
  141.1308   75.9996  218.8118 H   0  0  0  0  0  0  0  0  0  0  0  0
  139.6319   77.6367  219.7275 H   0  0  0  0  0  0  0  0  0  0  0  0
  139.0384   80.0172  219.9482 H   0  0  0  0  0  0  0  0  0  0  0  0
  143.0039   81.0710  218.7068 H   0  0  0  0  0  0  0  0  0  0  0  0
  143.5770   78.6793  218.4947 H   0  0  0  0  0  0  0  0  0  0  0  0
  138.0127   77.4898  222.6232 H   0  0  0  0  0  0  0  0  0  0  0  0
  138.4192   79.8645  223.3337 H   0  0  0  0  0  0  0  0  0  0  0  0
  139.9820   81.6864  223.7927 H   0  0  0  0  0  0  0  0  0  0  0  0
  142.3088   82.5435  223.9014 H   0  0  0  0  0  0  0  0  0  0  0  0
  144.2252   81.0498  223.3059 H   0  0  0  0  0  0  0  0  0  0  0  0
  143.7875   78.7023  222.6042 H   0  0  0  0  0  0  0  0  0  0  0  0
  1  2  2  0
  2  3  1  0
  3  4  1  0
  4  5  1  0
  5  6  2  0
  5  7  1  0
  7  8  1  0
  8  9  1  0
  9 10  1  0
 10 11  1  0
 11 12  1  0
 12 13  1  0
 13 14  1  0
 14 15  1  0
 15 16  2  0
 16 17  1  0
 17 18  2  0
 18 19  1  0
 18 20  1  0
 20 21  2  0
  2 22  1  0
 22 23  2  0
 23 24  1  0
 24 25  2  0
 25 26  1  0
 26 27  2  0
 27 28  1  0
 28 29  2  0
 29 30  1  0
 30 31  2  0
 11  7  1  0
 21 15  1  0
 31 22  1  0
 30 25  1  0
  3 32  1  0
  4 33  1  0
  4 34  1  0
  8 35  1  0
  8 36  1  0
  9 37  1  0
  9 38  1  0
 10 39  1  0
 10 40  1  0
 11 41  1  1
 12 42  1  0
 12 43  1  0
 13 44  1  0
 14 45  1  0
 14 46  1  0
 16 47  1  0
 17 48  1  0
 20 49  1  0
 21 50  1  0
 23 51  1  0
 24 52  1  0
 26 53  1  0
 27 54  1  0
 28 55  1  0
 29 56  1  0
M  END
>  <smiles>  (41) 
O=C(NCC(=O)N1CCC[C@H]1CNCc1ccc(Cl)cc1)c1ccc2ccccc2n1

>  <score_type>  (41) 
oracle

>  <origin>  (41) 
autodockgpu

>  <m_score__min__energy>  (41) 
-8.8800000000000008

>  <m_primary>  (41) 
energy

>  <rmsd>  (41) 
6.863270087673138

>  <m_score__min__rmsd>  (41) 
6.863270087673138

>  <meeko>  (41) 
{"free_energy": -7.0, "intermolecular_energy": -9.39, "internal_energy": -4.8, "cluster_size": 23, "cluster_id": 5, "rank_in_cluster": 14}

>  <energy>  (41) 
-6.26

>  <cluster_rmsd>  (41) 
1.15

>  <cluster>  (41) 
5

$$$$

     RDKit          3D

 56 59  0  0  0  0  0  0  0  0999 V2000
  140.9870   77.5590  217.5330 O   0  0  0  0  0  0  0  0  0  0  0  0
  141.8400   77.4440  218.4780 C   0  0  0  0  0  0  0  0  0  0  0  0
  142.1880   78.5740  219.2980 N   0  0  0  0  0  0  0  0  0  0  0  0
  141.6260   79.8610  219.1070 C   0  0  0  0  0  0  0  0  0  0  0  0
  141.7050   80.8440  220.1710 C   0  0  0  0  0  0  0  0  0  0  0  0
  141.8440   82.0730  219.7700 O   0  0  0  0  0  0  0  0  0  0  0  0
  141.6500   80.6680  221.5630 N   0  0  0  0  0  0  0  0  0  0  0  0
  140.7970   81.2350  222.5890 C   0  0  0  0  0  0  0  0  0  0  0  0
  141.5950   81.2400  223.8820 C   0  0  0  0  0  0  0  0  0  0  0  0
  142.9200   80.6640  223.4690 C   0  0  0  0  0  0  0  0  0  0  0  0
  142.5450   79.7820  222.3190 C   0  0  1  0  0  0  0  0  0  0  0  0
  141.8240   78.5460  222.8020 C   0  0  0  0  0  0  0  0  0  0  0  0
  141.4910   77.7200  221.6930 N   0  0  0  0  0  0  0  0  0  0  0  0
  140.1980   77.1130  221.7120 C   0  0  0  0  0  0  0  0  0  0  0  0
  140.2010   75.6380  221.6720 C   0  0  0  0  0  0  0  0  0  0  0  0
  141.3230   74.8570  221.5980 C   0  0  0  0  0  0  0  0  0  0  0  0
  141.2680   73.4750  221.5630 C   0  0  0  0  0  0  0  0  0  0  0  0
  140.0460   72.8310  221.6030 C   0  0  0  0  0  0  0  0  0  0  0  0
  139.9160   71.0720  221.5610 Cl  0  0  0  0  0  0  0  0  0  0  0  0
  138.9080   73.6100  221.6780 C   0  0  0  0  0  0  0  0  0  0  0  0
  138.9820   74.9940  221.7120 C   0  0  0  0  0  0  0  0  0  0  0  0
  142.4740   76.1450  218.7330 C   0  0  0  0  0  0  0  0  0  0  0  0
  142.0250   75.0340  218.0520 C   0  0  0  0  0  0  0  0  0  0  0  0
  142.6550   73.8180  218.3270 C   0  0  0  0  0  0  0  0  0  0  0  0
  143.6960   73.7430  219.2530 C   0  0  0  0  0  0  0  0  0  0  0  0
  144.3320   72.5510  219.5370 C   0  0  0  0  0  0  0  0  0  0  0  0
  145.3660   72.5020  220.4630 C   0  0  0  0  0  0  0  0  0  0  0  0
  145.7740   73.6680  221.1200 C   0  0  0  0  0  0  0  0  0  0  0  0
  145.1450   74.8660  220.8430 C   0  0  0  0  0  0  0  0  0  0  0  0
  144.1060   74.8950  219.9070 C   0  0  0  0  0  0  0  0  0  0  0  0
  143.4770   76.0370  219.6170 N   0  0  0  0  0  0  0  0  0  0  0  0
  142.8980   78.3740  220.0600 H   0  0  0  0  0  0  0  0  0  0  0  0
  142.1238   80.2996  218.2296 H   0  0  0  0  0  0  0  0  0  0  0  0
  140.5478   79.6602  219.0228 H   0  0  0  0  0  0  0  0  0  0  0  0
  140.5122   82.2622  222.3175 H   0  0  0  0  0  0  0  0  0  0  0  0
  139.8748   80.6458  222.7007 H   0  0  0  0  0  0  0  0  0  0  0  0
  141.7128   82.2629  224.2690 H   0  0  0  0  0  0  0  0  0  0  0  0
  141.1107   80.6726  224.6904 H   0  0  0  0  0  0  0  0  0  0  0  0
  143.6162   81.4548  223.1530 H   0  0  0  0  0  0  0  0  0  0  0  0
  143.4386   80.1312  224.2796 H   0  0  0  0  0  0  0  0  0  0  0  0
  143.3962   79.4014  221.7354 H   0  0  0  0  0  0  0  0  0  0  0  0
  142.4759   77.9882  223.4904 H   0  0  0  0  0  0  0  0  0  0  0  0
  140.9025   78.8430  223.3242 H   0  0  0  0  0  0  0  0  0  0  0  0
  142.2530   77.0650  221.4050 H   0  0  0  0  0  0  0  0  0  0  0  0
  139.6865   77.4283  222.6334 H   0  0  0  0  0  0  0  0  0  0  0  0
  139.6892   77.4444  220.7948 H   0  0  0  0  0  0  0  0  0  0  0  0
  142.3070   75.3476  221.5651 H   0  0  0  0  0  0  0  0  0  0  0  0
  142.1969   72.8889  221.5033 H   0  0  0  0  0  0  0  0  0  0  0  0
  137.9226   73.1223  221.7114 H   0  0  0  0  0  0  0  0  0  0  0  0
  138.0568   75.5860  221.7717 H   0  0  0  0  0  0  0  0  0  0  0  0
  141.2047   75.1021  217.3223 H   0  0  0  0  0  0  0  0  0  0  0  0
  142.3258   72.9067  217.8062 H   0  0  0  0  0  0  0  0  0  0  0  0
  144.0165   71.6303  219.0244 H   0  0  0  0  0  0  0  0  0  0  0  0
  145.8645   71.5458  220.6800 H   0  0  0  0  0  0  0  0  0  0  0  0
  146.5924   73.6307  221.8541 H   0  0  0  0  0  0  0  0  0  0  0  0
  145.4582   75.7886  221.3537 H   0  0  0  0  0  0  0  0  0  0  0  0
  1  2  2  0
  2  3  1  0
  3  4  1  0
  4  5  1  0
  5  6  2  0
  5  7  1  0
  7  8  1  0
  8  9  1  0
  9 10  1  0
 10 11  1  0
 11 12  1  0
 12 13  1  0
 13 14  1  0
 14 15  1  0
 15 16  2  0
 16 17  1  0
 17 18  2  0
 18 19  1  0
 18 20  1  0
 20 21  2  0
  2 22  1  0
 22 23  2  0
 23 24  1  0
 24 25  2  0
 25 26  1  0
 26 27  2  0
 27 28  1  0
 28 29  2  0
 29 30  1  0
 30 31  2  0
 11  7  1  0
 21 15  1  0
 31 22  1  0
 30 25  1  0
  3 32  1  0
  4 33  1  0
  4 34  1  0
  8 35  1  0
  8 36  1  0
  9 37  1  0
  9 38  1  0
 10 39  1  0
 10 40  1  0
 11 41  1  6
 12 42  1  0
 12 43  1  0
 13 44  1  0
 14 45  1  0
 14 46  1  0
 16 47  1  0
 17 48  1  0
 20 49  1  0
 21 50  1  0
 23 51  1  0
 24 52  1  0
 26 53  1  0
 27 54  1  0
 28 55  1  0
 29 56  1  0
M  END
>  <smiles>  (42) 
O=C(NCC(=O)N1CCC[C@H]1CNCc1ccc(Cl)cc1)c1ccc2ccccc2n1

>  <score_type>  (42) 
oracle

>  <origin>  (42) 
autodockgpu

>  <m_score__min__energy>  (42) 
-8.8800000000000008

>  <m_primary>  (42) 
energy

>  <rmsd>  (42) 
7.632526070576148

>  <m_score__min__rmsd>  (42) 
7.632526070576148

>  <meeko>  (42) 
{"free_energy": -6.89, "intermolecular_energy": -9.27, "internal_energy": -4.1, "cluster_size": 6, "cluster_id": 6, "rank_in_cluster": 1}

>  <energy>  (42) 
-6.23

>  <cluster_rmsd>  (42) 
1.34

>  <cluster>  (42) 
5

$$$$

     RDKit          3D

 56 59  0  0  0  0  0  0  0  0999 V2000
  140.6390   73.5740  222.3470 O   0  0  0  0  0  0  0  0  0  0  0  0
  140.4950   72.3080  222.2390 C   0  0  0  0  0  0  0  0  0  0  0  0
  140.5620   71.6670  220.9520 N   0  0  0  0  0  0  0  0  0  0  0  0
  140.7790   72.3840  219.7500 C   0  0  0  0  0  0  0  0  0  0  0  0
  141.8870   73.3180  219.6600 C   0  0  0  0  0  0  0  0  0  0  0  0
  143.0530   72.8090  219.9270 O   0  0  0  0  0  0  0  0  0  0  0  0
  141.8870   74.6810  219.3250 N   0  0  0  0  0  0  0  0  0  0  0  0
  141.9680   75.3780  218.0560 C   0  0  0  0  0  0  0  0  0  0  0  0
  142.6020   76.7320  218.3290 C   0  0  0  0  0  0  0  0  0  0  0  0
  142.8660   76.6940  219.8080 C   0  0  0  0  0  0  0  0  0  0  0  0
  141.7970   75.7720  220.3040 C   0  0  1  0  0  0  0  0  0  0  0  0
  140.4460   76.4450  220.2630 C   0  0  0  0  0  0  0  0  0  0  0  0
  139.5290   75.7310  221.0850 N   0  0  0  0  0  0  0  0  0  0  0  0
  139.1270   76.3690  222.2980 C   0  0  0  0  0  0  0  0  0  0  0  0
  139.9440   77.5340  222.6890 C   0  0  0  0  0  0  0  0  0  0  0  0
  141.2460   77.4750  223.1090 C   0  0  0  0  0  0  0  0  0  0  0  0
  141.9660   78.6020  223.4650 C   0  0  0  0  0  0  0  0  0  0  0  0
  141.3720   79.8490  223.4050 C   0  0  0  0  0  0  0  0  0  0  0  0
  142.2420   81.3180  223.8470 Cl  0  0  0  0  0  0  0  0  0  0  0  0
  140.0590   79.9190  222.9830 C   0  0  0  0  0  0  0  0  0  0  0  0
  139.3530   78.7800  222.6300 C   0  0  0  0  0  0  0  0  0  0  0  0
  140.2560   71.4960  223.4370 C   0  0  0  0  0  0  0  0  0  0  0  0
  139.5430   70.3210  223.3210 C   0  0  0  0  0  0  0  0  0  0  0  0
  139.3380   69.5800  224.4860 C   0  0  0  0  0  0  0  0  0  0  0  0
  139.8380   70.0180  225.7130 C   0  0  0  0  0  0  0  0  0  0  0  0
  139.6460   69.2990  226.8760 C   0  0  0  0  0  0  0  0  0  0  0  0
  140.1540   69.7570  228.0840 C   0  0  0  0  0  0  0  0  0  0  0  0
  140.8700   70.9590  228.1340 C   0  0  0  0  0  0  0  0  0  0  0  0
  141.0680   71.6860  226.9770 C   0  0  0  0  0  0  0  0  0  0  0  0
  140.5490   71.2080  225.7690 C   0  0  0  0  0  0  0  0  0  0  0  0
  140.7230   71.8880  224.6320 N   0  0  0  0  0  0  0  0  0  0  0  0
  140.4380   70.6140  220.9690 H   0  0  0  0  0  0  0  0  0  0  0  0
  140.9255   71.6377  218.9553 H   0  0  0  0  0  0  0  0  0  0  0  0
  139.8921   73.0302  219.6733 H   0  0  0  0  0  0  0  0  0  0  0  0
  142.5887   74.8062  217.3505 H   0  0  0  0  0  0  0  0  0  0  0  0
  140.9694   75.4962  217.6100 H   0  0  0  0  0  0  0  0  0  0  0  0
  143.5383   76.8506  217.7639 H   0  0  0  0  0  0  0  0  0  0  0  0
  141.9654   77.5761  218.0254 H   0  0  0  0  0  0  0  0  0  0  0  0
  143.8677   76.2934  220.0229 H   0  0  0  0  0  0  0  0  0  0  0  0
  142.8447   77.6860  220.2829 H   0  0  0  0  0  0  0  0  0  0  0  0
  141.9182   75.4472  221.3479 H   0  0  0  0  0  0  0  0  0  0  0  0
  140.5403   77.4771  220.6316 H   0  0  0  0  0  0  0  0  0  0  0  0
  140.0753   76.4549  219.2274 H   0  0  0  0  0  0  0  0  0  0  0  0
  139.7610   74.7190  221.2050 H   0  0  0  0  0  0  0  0  0  0  0  0
  138.0869   76.7062  222.1780 H   0  0  0  0  0  0  0  0  0  0  0  0
  139.2541   75.6222  223.0955 H   0  0  0  0  0  0  0  0  0  0  0  0
  141.7390   76.4933  223.1656 H   0  0  0  0  0  0  0  0  0  0  0  0
  143.0107   78.5056  223.7956 H   0  0  0  0  0  0  0  0  0  0  0  0
  139.5632   80.8993  222.9259 H   0  0  0  0  0  0  0  0  0  0  0  0
  138.3080   78.8700  222.2985 H   0  0  0  0  0  0  0  0  0  0  0  0
  139.1520   69.9818  222.3504 H   0  0  0  0  0  0  0  0  0  0  0  0
  138.7740   68.6369  224.4362 H   0  0  0  0  0  0  0  0  0  0  0  0
  139.0847   68.3535  226.8450 H   0  0  0  0  0  0  0  0  0  0  0  0
  139.9937   69.1746  229.0033 H   0  0  0  0  0  0  0  0  0  0  0  0
  141.2730   71.3226  229.0908 H   0  0  0  0  0  0  0  0  0  0  0  0
  141.6285   72.6321  227.0048 H   0  0  0  0  0  0  0  0  0  0  0  0
  1  2  2  0
  2  3  1  0
  3  4  1  0
  4  5  1  0
  5  6  2  0
  5  7  1  0
  7  8  1  0
  8  9  1  0
  9 10  1  0
 10 11  1  0
 11 12  1  0
 12 13  1  0
 13 14  1  0
 14 15  1  0
 15 16  2  0
 16 17  1  0
 17 18  2  0
 18 19  1  0
 18 20  1  0
 20 21  2  0
  2 22  1  0
 22 23  2  0
 23 24  1  0
 24 25  2  0
 25 26  1  0
 26 27  2  0
 27 28  1  0
 28 29  2  0
 29 30  1  0
 30 31  2  0
 11  7  1  0
 21 15  1  0
 31 22  1  0
 30 25  1  0
  3 32  1  0
  4 33  1  0
  4 34  1  0
  8 35  1  0
  8 36  1  0
  9 37  1  0
  9 38  1  0
 10 39  1  0
 10 40  1  0
 11 41  1  1
 12 42  1  0
 12 43  1  0
 13 44  1  0
 14 45  1  0
 14 46  1  0
 16 47  1  0
 17 48  1  0
 20 49  1  0
 21 50  1  0
 23 51  1  0
 24 52  1  0
 26 53  1  0
 27 54  1  0
 28 55  1  0
 29 56  1  0
M  END
>  <smiles>  (43) 
O=C(NCC(=O)N1CCC[C@H]1CNCc1ccc(Cl)cc1)c1ccc2ccccc2n1

>  <score_type>  (43) 
oracle

>  <origin>  (43) 
autodockgpu

>  <m_score__min__energy>  (43) 
-8.8800000000000008

>  <m_primary>  (43) 
energy

>  <rmsd>  (43) 
3.0232044640869558

>  <m_score__min__rmsd>  (43) 
3.0232044640869558

>  <meeko>  (43) 
{"free_energy": -8.28, "intermolecular_energy": -10.66, "internal_energy": -2.53, "cluster_size": 4, "cluster_id": 3, "rank_in_cluster": 2}

>  <energy>  (43) 
-6.89

>  <cluster_rmsd>  (43) 
0.0

>  <cluster>  (43) 
6

$$$$

     RDKit          3D

 56 59  0  0  0  0  0  0  0  0999 V2000
  141.3950   78.1760  216.9950 O   0  0  0  0  0  0  0  0  0  0  0  0
  142.1710   77.9080  217.9750 C   0  0  0  0  0  0  0  0  0  0  0  0
  142.5690   78.9340  218.9020 N   0  0  0  0  0  0  0  0  0  0  0  0
  142.1400   80.2800  218.7850 C   0  0  0  0  0  0  0  0  0  0  0  0
  141.2190   80.8280  219.7640 C   0  0  0  0  0  0  0  0  0  0  0  0
  140.3810   81.7040  219.2930 O   0  0  0  0  0  0  0  0  0  0  0  0
  141.0960   80.5520  221.1350 N   0  0  0  0  0  0  0  0  0  0  0  0
  139.9690   80.5990  222.0460 C   0  0  0  0  0  0  0  0  0  0  0  0
  140.5260   80.8770  223.4320 C   0  0  0  0  0  0  0  0  0  0  0  0
  142.0040   80.9930  223.1890 C   0  0  0  0  0  0  0  0  0  0  0  0
  142.2060   80.1170  221.9920 C   0  0  1  0  0  0  0  0  0  0  0  0
  142.0810   78.6600  222.3660 C   0  0  0  0  0  0  0  0  0  0  0  0
  141.8410   77.8840  221.1980 N   0  0  0  0  0  0  0  0  0  0  0  0
  140.5760   77.2270  221.1150 C   0  0  0  0  0  0  0  0  0  0  0  0
  140.6430   75.7720  220.8750 C   0  0  0  0  0  0  0  0  0  0  0  0
  141.4200   74.8940  221.5830 C   0  0  0  0  0  0  0  0  0  0  0  0
  141.4450   73.5370  221.3140 C   0  0  0  0  0  0  0  0  0  0  0  0
  140.6660   73.0200  220.2960 C   0  0  0  0  0  0  0  0  0  0  0  0
  140.6590   71.2990  219.9090 Cl  0  0  0  0  0  0  0  0  0  0  0  0
  139.8800   73.8970  219.5750 C   0  0  0  0  0  0  0  0  0  0  0  0
  139.8660   75.2540  219.8590 C   0  0  0  0  0  0  0  0  0  0  0  0
  142.6670   76.5390  218.1590 C   0  0  0  0  0  0  0  0  0  0  0  0
  142.2840   75.5610  217.2650 C   0  0  0  0  0  0  0  0  0  0  0  0
  142.7770   74.2720  217.4780 C   0  0  0  0  0  0  0  0  0  0  0  0
  143.6220   73.9960  218.5530 C   0  0  0  0  0  0  0  0  0  0  0  0
  144.1210   72.7290  218.7800 C   0  0  0  0  0  0  0  0  0  0  0  0
  144.9600   72.4790  219.8580 C   0  0  0  0  0  0  0  0  0  0  0  0
  145.3110   73.5170  220.7280 C   0  0  0  0  0  0  0  0  0  0  0  0
  144.8180   74.7890  220.5110 C   0  0  0  0  0  0  0  0  0  0  0  0
  143.9740   75.0200  219.4200 C   0  0  0  0  0  0  0  0  0  0  0  0
  143.4800   76.2390  219.1810 N   0  0  0  0  0  0  0  0  0  0  0  0
  143.2080   78.6100  219.6840 H   0  0  0  0  0  0  0  0  0  0  0  0
  143.0438   80.9065  218.8113 H   0  0  0  0  0  0  0  0  0  0  0  0
  141.5556   80.2829  217.8531 H   0  0  0  0  0  0  0  0  0  0  0  0
  139.2773   81.4013  221.7494 H   0  0  0  0  0  0  0  0  0  0  0  0
  139.4133   79.6498  222.0306 H   0  0  0  0  0  0  0  0  0  0  0  0
  140.1184   81.8134  223.8407 H   0  0  0  0  0  0  0  0  0  0  0  0
  140.2684   80.0986  224.1654 H   0  0  0  0  0  0  0  0  0  0  0  0
  142.2909   82.0328  222.9734 H   0  0  0  0  0  0  0  0  0  0  0  0
  142.6149   80.6991  224.0552 H   0  0  0  0  0  0  0  0  0  0  0  0
  143.1962   80.2022  221.5205 H   0  0  0  0  0  0  0  0  0  0  0  0
  143.0133   78.3237  222.8432 H   0  0  0  0  0  0  0  0  0  0  0  0
  141.2416   78.5343  223.0657 H   0  0  0  0  0  0  0  0  0  0  0  0
  142.6440   77.2760  220.9160 H   0  0  0  0  0  0  0  0  0  0  0  0
  140.0429   77.3922  222.0629 H   0  0  0  0  0  0  0  0  0  0  0  0
  140.0620   77.6589  220.2436 H   0  0  0  0  0  0  0  0  0  0  0  0
  142.0488   75.2829  222.3974 H   0  0  0  0  0  0  0  0  0  0  0  0
  142.0848   72.8697  221.9102 H   0  0  0  0  0  0  0  0  0  0  0  0
  139.2520   73.5111  218.7585 H   0  0  0  0  0  0  0  0  0  0  0  0
  139.2275   75.9262  219.2670 H   0  0  0  0  0  0  0  0  0  0  0  0
  141.6178   75.7870  216.4193 H   0  0  0  0  0  0  0  0  0  0  0  0
  142.4950   73.4628  216.7883 H   0  0  0  0  0  0  0  0  0  0  0  0
  143.8510   71.9082  218.0993 H   0  0  0  0  0  0  0  0  0  0  0  0
  145.3489   71.4642  220.0280 H   0  0  0  0  0  0  0  0  0  0  0  0
  145.9769   73.3210  221.5813 H   0  0  0  0  0  0  0  0  0  0  0  0
  145.0866   75.6121  221.1896 H   0  0  0  0  0  0  0  0  0  0  0  0
  1  2  2  0
  2  3  1  0
  3  4  1  0
  4  5  1  0
  5  6  2  0
  5  7  1  0
  7  8  1  0
  8  9  1  0
  9 10  1  0
 10 11  1  0
 11 12  1  0
 12 13  1  0
 13 14  1  0
 14 15  1  0
 15 16  2  0
 16 17  1  0
 17 18  2  0
 18 19  1  0
 18 20  1  0
 20 21  2  0
  2 22  1  0
 22 23  2  0
 23 24  1  0
 24 25  2  0
 25 26  1  0
 26 27  2  0
 27 28  1  0
 28 29  2  0
 29 30  1  0
 30 31  2  0
 11  7  1  0
 21 15  1  0
 31 22  1  0
 30 25  1  0
  3 32  1  0
  4 33  1  0
  4 34  1  0
  8 35  1  0
  8 36  1  0
  9 37  1  0
  9 38  1  0
 10 39  1  0
 10 40  1  0
 11 41  1  6
 12 42  1  0
 12 43  1  0
 13 44  1  0
 14 45  1  0
 14 46  1  0
 16 47  1  0
 17 48  1  0
 20 49  1  0
 21 50  1  0
 23 51  1  0
 24 52  1  0
 26 53  1  0
 27 54  1  0
 28 55  1  0
 29 56  1  0
M  END
>  <smiles>  (44) 
O=C(NCC(=O)N1CCC[C@H]1CNCc1ccc(Cl)cc1)c1ccc2ccccc2n1

>  <score_type>  (44) 
oracle

>  <origin>  (44) 
autodockgpu

>  <m_score__min__energy>  (44) 
-8.8800000000000008

>  <m_primary>  (44) 
energy

>  <rmsd>  (44) 
7.743435252941252

>  <m_score__min__rmsd>  (44) 
7.743435252941252

>  <meeko>  (44) 
{"free_energy": -5.53, "intermolecular_energy": -7.91, "internal_energy": -5.06, "cluster_size": 6, "cluster_id": 6, "rank_in_cluster": 6}

>  <energy>  (44) 
-6.75

>  <cluster_rmsd>  (44) 
0.31

>  <cluster>  (44) 
6

$$$$

     RDKit          3D

 56 59  0  0  0  0  0  0  0  0999 V2000
  138.1720   76.0380  221.8410 O   0  0  0  0  0  0  0  0  0  0  0  0
  139.4130   76.3440  221.8670 C   0  0  0  0  0  0  0  0  0  0  0  0
  140.4060   75.4300  221.3670 N   0  0  0  0  0  0  0  0  0  0  0  0
  140.0790   74.1590  220.8340 C   0  0  0  0  0  0  0  0  0  0  0  0
  139.3640   73.1980  221.6540 C   0  0  0  0  0  0  0  0  0  0  0  0
  139.9130   72.9480  222.8050 O   0  0  0  0  0  0  0  0  0  0  0  0
  138.1710   72.5060  221.3930 N   0  0  0  0  0  0  0  0  0  0  0  0
  137.3990   72.3070  220.1810 C   0  0  0  0  0  0  0  0  0  0  0  0
  135.9530   72.1070  220.6010 C   0  0  0  0  0  0  0  0  0  0  0  0
  136.0100   72.2340  222.0970 C   0  0  0  0  0  0  0  0  0  0  0  0
  137.4000   71.7760  222.4080 C   0  0  1  0  0  0  0  0  0  0  0  0
  137.5260   70.2820  222.2340 C   0  0  0  0  0  0  0  0  0  0  0  0
  138.8880   69.8950  222.3780 N   0  0  0  0  0  0  0  0  0  0  0  0
  139.1890   69.0040  223.4530 C   0  0  0  0  0  0  0  0  0  0  0  0
  139.6790   69.6560  224.6830 C   0  0  0  0  0  0  0  0  0  0  0  0
  139.4040   69.2360  225.9570 C   0  0  0  0  0  0  0  0  0  0  0  0
  139.8900   69.8860  227.0770 C   0  0  0  0  0  0  0  0  0  0  0  0
  140.6870   71.0070  226.9350 C   0  0  0  0  0  0  0  0  0  0  0  0
  141.3330   71.8750  228.3270 Cl  0  0  0  0  0  0  0  0  0  0  0  0
  140.9700   71.4390  225.6530 C   0  0  0  0  0  0  0  0  0  0  0  0
  140.4750   70.7750  224.5420 C   0  0  0  0  0  0  0  0  0  0  0  0
  139.8340   77.6390  222.4140 C   0  0  0  0  0  0  0  0  0  0  0  0
  138.8770   78.5040  222.9010 C   0  0  0  0  0  0  0  0  0  0  0  0
  139.3210   79.7260  223.4100 C   0  0  0  0  0  0  0  0  0  0  0  0
  140.6790   80.0480  223.4220 C   0  0  0  0  0  0  0  0  0  0  0  0
  141.1380   81.2500  223.9230 C   0  0  0  0  0  0  0  0  0  0  0  0
  142.4940   81.5470  223.9230 C   0  0  0  0  0  0  0  0  0  0  0  0
  143.4140   80.6230  223.4130 C   0  0  0  0  0  0  0  0  0  0  0  0
  142.9670   79.4170  222.9110 C   0  0  0  0  0  0  0  0  0  0  0  0
  141.5960   79.1370  222.9190 C   0  0  0  0  0  0  0  0  0  0  0  0
  141.1300   77.9790  222.4400 N   0  0  0  0  0  0  0  0  0  0  0  0
  141.4060   75.7790  221.4250 H   0  0  0  0  0  0  0  0  0  0  0  0
  139.4629   74.3367  219.9402 H   0  0  0  0  0  0  0  0  0  0  0  0
  141.0599   73.6854  220.6804 H   0  0  0  0  0  0  0  0  0  0  0  0
  137.4843   73.1896  219.5300 H   0  0  0  0  0  0  0  0  0  0  0  0
  137.7681   71.4357  219.6200 H   0  0  0  0  0  0  0  0  0  0  0  0
  135.3046   72.8805  220.1638 H   0  0  0  0  0  0  0  0  0  0  0  0
  135.5348   71.1467  220.2650 H   0  0  0  0  0  0  0  0  0  0  0  0
  135.8545   73.2759  222.4137 H   0  0  0  0  0  0  0  0  0  0  0  0
  135.2313   71.6560  222.6162 H   0  0  0  0  0  0  0  0  0  0  0  0
  137.7266   71.9662  223.4410 H   0  0  0  0  0  0  0  0  0  0  0  0
  136.9186   69.7726  222.9967 H   0  0  0  0  0  0  0  0  0  0  0  0
  137.1718   70.0011  221.2312 H   0  0  0  0  0  0  0  0  0  0  0  0
  139.5680   70.6840  222.2880 H   0  0  0  0  0  0  0  0  0  0  0  0
  138.2731   68.4483  223.7027 H   0  0  0  0  0  0  0  0  0  0  0  0
  140.0071   68.3595  223.0991 H   0  0  0  0  0  0  0  0  0  0  0  0
  138.7717   68.3466  226.0951 H   0  0  0  0  0  0  0  0  0  0  0  0
  139.6424   69.5110  228.0810 H   0  0  0  0  0  0  0  0  0  0  0  0
  141.6014   72.3286  225.5116 H   0  0  0  0  0  0  0  0  0  0  0  0
  140.7194   71.1442  223.5351 H   0  0  0  0  0  0  0  0  0  0  0  0
  137.8086   78.2423  222.8890 H   0  0  0  0  0  0  0  0  0  0  0  0
  138.5899   80.4454  223.8073 H   0  0  0  0  0  0  0  0  0  0  0  0
  140.4212   81.9803  224.3266 H   0  0  0  0  0  0  0  0  0  0  0  0
  142.8460   82.5089  224.3240 H   0  0  0  0  0  0  0  0  0  0  0  0
  144.4888   80.8570  223.4123 H   0  0  0  0  0  0  0  0  0  0  0  0
  143.6814   78.6836  222.5088 H   0  0  0  0  0  0  0  0  0  0  0  0
  1  2  2  0
  2  3  1  0
  3  4  1  0
  4  5  1  0
  5  6  2  0
  5  7  1  0
  7  8  1  0
  8  9  1  0
  9 10  1  0
 10 11  1  0
 11 12  1  0
 12 13  1  0
 13 14  1  0
 14 15  1  0
 15 16  2  0
 16 17  1  0
 17 18  2  0
 18 19  1  0
 18 20  1  0
 20 21  2  0
  2 22  1  0
 22 23  2  0
 23 24  1  0
 24 25  2  0
 25 26  1  0
 26 27  2  0
 27 28  1  0
 28 29  2  0
 29 30  1  0
 30 31  2  0
 11  7  1  0
 21 15  1  0
 31 22  1  0
 30 25  1  0
  3 32  1  0
  4 33  1  0
  4 34  1  0
  8 35  1  0
  8 36  1  0
  9 37  1  0
  9 38  1  0
 10 39  1  0
 10 40  1  0
 11 41  1  1
 12 42  1  0
 12 43  1  0
 13 44  1  0
 14 45  1  0
 14 46  1  0
 16 47  1  0
 17 48  1  0
 20 49  1  0
 21 50  1  0
 23 51  1  0
 24 52  1  0
 26 53  1  0
 27 54  1  0
 28 55  1  0
 29 56  1  0
M  END
>  <smiles>  (45) 
O=C(NCC(=O)N1CCC[C@H]1CNCc1ccc(Cl)cc1)c1ccc2ccccc2n1

>  <score_type>  (45) 
oracle

>  <origin>  (45) 
autodockgpu

>  <m_score__min__energy>  (45) 
-8.8800000000000008

>  <m_primary>  (45) 
energy

>  <rmsd>  (45) 
9.177123505416523

>  <m_score__min__rmsd>  (45) 
9.177123505416523

>  <meeko>  (45) 
{"free_energy": -7.69, "intermolecular_energy": -10.07, "internal_energy": -2.54, "cluster_size": 2, "cluster_id": 2, "rank_in_cluster": 2}

>  <energy>  (45) 
-6.66

>  <cluster_rmsd>  (45) 
0.4

>  <cluster>  (45) 
6

$$$$

     RDKit          3D

 56 59  0  0  0  0  0  0  0  0999 V2000
  138.7460   75.2190  222.0430 O   0  0  0  0  0  0  0  0  0  0  0  0
  139.9310   75.6920  222.1130 C   0  0  0  0  0  0  0  0  0  0  0  0
  141.0740   74.8540  221.8610 N   0  0  0  0  0  0  0  0  0  0  0  0
  140.9590   73.4790  221.5360 C   0  0  0  0  0  0  0  0  0  0  0  0
  142.0590   72.8040  220.8710 C   0  0  0  0  0  0  0  0  0  0  0  0
  142.0080   71.5060  220.9140 O   0  0  0  0  0  0  0  0  0  0  0  0
  143.1620   73.3420  220.1890 N   0  0  0  0  0  0  0  0  0  0  0  0
  143.8580   72.9390  218.9820 C   0  0  0  0  0  0  0  0  0  0  0  0
  145.2920   73.4240  219.1110 C   0  0  0  0  0  0  0  0  0  0  0  0
  145.3110   74.0830  220.4610 C   0  0  0  0  0  0  0  0  0  0  0  0
  143.8940   74.5400  220.6180 C   0  0  1  0  0  0  0  0  0  0  0  0
  143.6070   75.7180  219.7180 C   0  0  0  0  0  0  0  0  0  0  0  0
  142.4600   76.4140  220.1900 N   0  0  0  0  0  0  0  0  0  0  0  0
  141.5970   76.9720  219.1980 C   0  0  0  0  0  0  0  0  0  0  0  0
  141.8110   78.4060  218.9220 C   0  0  0  0  0  0  0  0  0  0  0  0
  141.5500   79.4220  219.8020 C   0  0  0  0  0  0  0  0  0  0  0  0
  141.7690   80.7520  219.4900 C   0  0  0  0  0  0  0  0  0  0  0  0
  142.2690   81.0980  218.2490 C   0  0  0  0  0  0  0  0  0  0  0  0
  142.5670   82.7770  217.7970 Cl  0  0  0  0  0  0  0  0  0  0  0  0
  142.5350   80.0800  217.3540 C   0  0  0  0  0  0  0  0  0  0  0  0
  142.3100   78.7520  217.6830 C   0  0  0  0  0  0  0  0  0  0  0  0
  140.1340   77.1040  222.4540 C   0  0  0  0  0  0  0  0  0  0  0  0
  139.0350   77.9250  222.5940 C   0  0  0  0  0  0  0  0  0  0  0  0
  139.2740   79.2620  222.9180 C   0  0  0  0  0  0  0  0  0  0  0  0
  140.5740   79.7380  223.0910 C   0  0  0  0  0  0  0  0  0  0  0  0
  140.8300   81.0560  223.4120 C   0  0  0  0  0  0  0  0  0  0  0  0
  142.1330   81.5050  223.5780 C   0  0  0  0  0  0  0  0  0  0  0  0
  143.2060   80.6190  223.4210 C   0  0  0  0  0  0  0  0  0  0  0  0
  142.9610   79.2990  223.1010 C   0  0  0  0  0  0  0  0  0  0  0  0
  141.6410   78.8650  222.9380 C   0  0  0  0  0  0  0  0  0  0  0  0
  141.3700   77.5940  222.6270 N   0  0  0  0  0  0  0  0  0  0  0  0
  142.0130   75.3410  221.9360 H   0  0  0  0  0  0  0  0  0  0  0  0
  140.7781   72.9421  222.4789 H   0  0  0  0  0  0  0  0  0  0  0  0
  140.1544   73.4588  220.7862 H   0  0  0  0  0  0  0  0  0  0  0  0
  143.8375   71.8437  218.8823 H   0  0  0  0  0  0  0  0  0  0  0  0
  143.3777   73.3689  218.0907 H   0  0  0  0  0  0  0  0  0  0  0  0
  145.9983   72.5816  219.0733 H   0  0  0  0  0  0  0  0  0  0  0  0
  145.5940   74.0993  218.2969 H   0  0  0  0  0  0  0  0  0  0  0  0
  145.5875   73.3671  221.2490 H   0  0  0  0  0  0  0  0  0  0  0  0
  146.0460   74.8974  220.5413 H   0  0  0  0  0  0  0  0  0  0  0  0
  143.6318   74.8871  221.6283 H   0  0  0  0  0  0  0  0  0  0  0  0
  144.4723   76.3972  219.7176 H   0  0  0  0  0  0  0  0  0  0  0  0
  143.4194   75.3580  218.6957 H   0  0  0  0  0  0  0  0  0  0  0  0
  142.6510   77.0630  220.9870 H   0  0  0  0  0  0  0  0  0  0  0  0
  141.7506   76.4172  218.2606 H   0  0  0  0  0  0  0  0  0  0  0  0
  140.5747   76.8839  219.5944 H   0  0  0  0  0  0  0  0  0  0  0  0
  141.1506   79.1710  220.7957 H   0  0  0  0  0  0  0  0  0  0  0  0
  141.5450   81.5344  220.2301 H   0  0  0  0  0  0  0  0  0  0  0  0
  142.9338   80.3281  216.3593 H   0  0  0  0  0  0  0  0  0  0  0  0
  142.5320   77.9648  216.9474 H   0  0  0  0  0  0  0  0  0  0  0  0
  138.0128   77.5427  222.4562 H   0  0  0  0  0  0  0  0  0  0  0  0
  138.4245   79.9504  223.0387 H   0  0  0  0  0  0  0  0  0  0  0  0
  139.9925   81.7580  223.5376 H   0  0  0  0  0  0  0  0  0  0  0  0
  142.3229   82.5580  223.8332 H   0  0  0  0  0  0  0  0  0  0  0  0
  144.2391   80.9734  223.5521 H   0  0  0  0  0  0  0  0  0  0  0  0
  143.7963   78.5944  222.9752 H   0  0  0  0  0  0  0  0  0  0  0  0
  1  2  2  0
  2  3  1  0
  3  4  1  0
  4  5  1  0
  5  6  2  0
  5  7  1  0
  7  8  1  0
  8  9  1  0
  9 10  1  0
 10 11  1  0
 11 12  1  0
 12 13  1  0
 13 14  1  0
 14 15  1  0
 15 16  2  0
 16 17  1  0
 17 18  2  0
 18 19  1  0
 18 20  1  0
 20 21  2  0
  2 22  1  0
 22 23  2  0
 23 24  1  0
 24 25  2  0
 25 26  1  0
 26 27  2  0
 27 28  1  0
 28 29  2  0
 29 30  1  0
 30 31  2  0
 11  7  1  0
 21 15  1  0
 31 22  1  0
 30 25  1  0
  3 32  1  0
  4 33  1  0
  4 34  1  0
  8 35  1  0
  8 36  1  0
  9 37  1  0
  9 38  1  0
 10 39  1  0
 10 40  1  0
 11 41  1  1
 12 42  1  0
 12 43  1  0
 13 44  1  0
 14 45  1  0
 14 46  1  0
 16 47  1  0
 17 48  1  0
 20 49  1  0
 21 50  1  0
 23 51  1  0
 24 52  1  0
 26 53  1  0
 27 54  1  0
 28 55  1  0
 29 56  1  0
M  END
>  <smiles>  (46) 
O=C(NCC(=O)N1CCC[C@H]1CNCc1ccc(Cl)cc1)c1ccc2ccccc2n1

>  <score_type>  (46) 
oracle

>  <origin>  (46) 
autodockgpu

>  <m_score__min__energy>  (46) 
-8.8800000000000008

>  <m_primary>  (46) 
energy

>  <rmsd>  (46) 
6.926344056348624

>  <m_score__min__rmsd>  (46) 
6.926344056348624

>  <meeko>  (46) 
{"free_energy": -7.59, "intermolecular_energy": -9.97, "internal_energy": -4.27, "cluster_size": 23, "cluster_id": 5, "rank_in_cluster": 3}

>  <energy>  (46) 
-6.66

>  <cluster_rmsd>  (46) 
1.06

>  <cluster>  (46) 
6

$$$$

     RDKit          3D

 56 59  0  0  0  0  0  0  0  0999 V2000
  139.1990   74.9420  222.3470 O   0  0  0  0  0  0  0  0  0  0  0  0
  140.2610   75.6260  222.1490 C   0  0  0  0  0  0  0  0  0  0  0  0
  141.4320   75.0160  221.5770 N   0  0  0  0  0  0  0  0  0  0  0  0
  141.4840   73.6470  221.2130 C   0  0  0  0  0  0  0  0  0  0  0  0
  142.3990   73.2140  220.1730 C   0  0  0  0  0  0  0  0  0  0  0  0
  143.0160   72.0970  220.4200 O   0  0  0  0  0  0  0  0  0  0  0  0
  142.7130   73.8170  218.9450 N   0  0  0  0  0  0  0  0  0  0  0  0
  142.2380   73.5920  217.5930 C   0  0  0  0  0  0  0  0  0  0  0  0
  143.3590   74.0000  216.6520 C   0  0  0  0  0  0  0  0  0  0  0  0
  144.4520   74.4310  217.5880 C   0  0  0  0  0  0  0  0  0  0  0  0
  143.6870   74.9050  218.7840 C   0  0  1  0  0  0  0  0  0  0  0  0
  143.0060   76.2220  218.4990 C   0  0  0  0  0  0  0  0  0  0  0  0
  142.7690   76.9140  219.7190 N   0  0  0  0  0  0  0  0  0  0  0  0
  141.6200   77.7610  219.7610 C   0  0  0  0  0  0  0  0  0  0  0  0
  141.8410   79.1360  219.2750 C   0  0  0  0  0  0  0  0  0  0  0  0
  141.5710   80.2750  219.9860 C   0  0  0  0  0  0  0  0  0  0  0  0
  141.7980   81.5420  219.4800 C   0  0  0  0  0  0  0  0  0  0  0  0
  142.3180   81.6950  218.2080 C   0  0  0  0  0  0  0  0  0  0  0  0
  142.6280   83.2850  217.5120 Cl  0  0  0  0  0  0  0  0  0  0  0  0
  142.5940   80.5530  217.4820 C   0  0  0  0  0  0  0  0  0  0  0  0
  142.3600   79.2910  218.0050 C   0  0  0  0  0  0  0  0  0  0  0  0
  140.2910   77.0480  222.5090 C   0  0  0  0  0  0  0  0  0  0  0  0
  139.1010   77.7300  222.6470 C   0  0  0  0  0  0  0  0  0  0  0  0
  139.1750   79.0820  222.9880 C   0  0  0  0  0  0  0  0  0  0  0  0
  140.4080   79.7070  223.1800 C   0  0  0  0  0  0  0  0  0  0  0  0
  140.5020   81.0420  223.5190 C   0  0  0  0  0  0  0  0  0  0  0  0
  141.7410   81.6410  223.7050 C   0  0  0  0  0  0  0  0  0  0  0  0
  142.9130   80.8910  223.5490 C   0  0  0  0  0  0  0  0  0  0  0  0
  142.8300   79.5550  223.2110 C   0  0  0  0  0  0  0  0  0  0  0  0
  141.5730   78.9690  223.0290 C   0  0  0  0  0  0  0  0  0  0  0  0
  141.4580   77.6790  222.7000 N   0  0  0  0  0  0  0  0  0  0  0  0
  142.2590   75.6680  221.4450 H   0  0  0  0  0  0  0  0  0  0  0  0
  141.7449   73.0849  222.1218 H   0  0  0  0  0  0  0  0  0  0  0  0
  140.4921   73.4603  220.7756 H   0  0  0  0  0  0  0  0  0  0  0  0
  141.9941   72.5288  217.4508 H   0  0  0  0  0  0  0  0  0  0  0  0
  141.3281   74.1776  217.3951 H   0  0  0  0  0  0  0  0  0  0  0  0
  143.6824   73.1509  216.0320 H   0  0  0  0  0  0  0  0  0  0  0  0
  143.0625   74.7870  215.9430 H   0  0  0  0  0  0  0  0  0  0  0  0
  145.1100   73.5880  217.8456 H   0  0  0  0  0  0  0  0  0  0  0  0
  145.1174   75.1963  217.1619 H   0  0  0  0  0  0  0  0  0  0  0  0
  144.3004   75.0932  219.6775 H   0  0  0  0  0  0  0  0  0  0  0  0
  143.6505   76.8340  217.8509 H   0  0  0  0  0  0  0  0  0  0  0  0
  142.0465   76.0340  217.9949 H   0  0  0  0  0  0  0  0  0  0  0  0
  143.6220   77.3510  220.1350 H   0  0  0  0  0  0  0  0  0  0  0  0
  140.8351   77.3022  219.1418 H   0  0  0  0  0  0  0  0  0  0  0  0
  141.3428   77.8507  220.8217 H   0  0  0  0  0  0  0  0  0  0  0  0
  141.1569   80.1782  221.0005 H   0  0  0  0  0  0  0  0  0  0  0  0
  141.5649   82.4277  220.0893 H   0  0  0  0  0  0  0  0  0  0  0  0
  143.0082   80.6470  216.4673 H   0  0  0  0  0  0  0  0  0  0  0  0
  142.5908   78.4014  217.4005 H   0  0  0  0  0  0  0  0  0  0  0  0
  138.1332   77.2298  222.4948 H   0  0  0  0  0  0  0  0  0  0  0  0
  138.2484   79.6627  223.1070 H   0  0  0  0  0  0  0  0  0  0  0  0
  139.5856   81.6376  223.6431 H   0  0  0  0  0  0  0  0  0  0  0  0
  141.8017   82.7056  223.9751 H   0  0  0  0  0  0  0  0  0  0  0  0
  143.8953   81.3640  223.6951 H   0  0  0  0  0  0  0  0  0  0  0  0
  143.7444   78.9566  223.0859 H   0  0  0  0  0  0  0  0  0  0  0  0
  1  2  2  0
  2  3  1  0
  3  4  1  0
  4  5  1  0
  5  6  2  0
  5  7  1  0
  7  8  1  0
  8  9  1  0
  9 10  1  0
 10 11  1  0
 11 12  1  0
 12 13  1  0
 13 14  1  0
 14 15  1  0
 15 16  2  0
 16 17  1  0
 17 18  2  0
 18 19  1  0
 18 20  1  0
 20 21  2  0
  2 22  1  0
 22 23  2  0
 23 24  1  0
 24 25  2  0
 25 26  1  0
 26 27  2  0
 27 28  1  0
 28 29  2  0
 29 30  1  0
 30 31  2  0
 11  7  1  0
 21 15  1  0
 31 22  1  0
 30 25  1  0
  3 32  1  0
  4 33  1  0
  4 34  1  0
  8 35  1  0
  8 36  1  0
  9 37  1  0
  9 38  1  0
 10 39  1  0
 10 40  1  0
 11 41  1  1
 12 42  1  0
 12 43  1  0
 13 44  1  0
 14 45  1  0
 14 46  1  0
 16 47  1  0
 17 48  1  0
 20 49  1  0
 21 50  1  0
 23 51  1  0
 24 52  1  0
 26 53  1  0
 27 54  1  0
 28 55  1  0
 29 56  1  0
M  END
>  <smiles>  (47) 
O=C(NCC(=O)N1CCC[C@H]1CNCc1ccc(Cl)cc1)c1ccc2ccccc2n1

>  <score_type>  (47) 
oracle

>  <origin>  (47) 
autodockgpu

>  <m_score__min__energy>  (47) 
-8.8800000000000008

>  <m_primary>  (47) 
energy

>  <rmsd>  (47) 
6.661458871634956

>  <m_score__min__rmsd>  (47) 
6.661458871634956

>  <meeko>  (47) 
{"free_energy": -7.15, "intermolecular_energy": -9.54, "internal_energy": -3.43, "cluster_size": 23, "cluster_id": 5, "rank_in_cluster": 13}

>  <energy>  (47) 
-5.81

>  <cluster_rmsd>  (47) 
1.14

>  <cluster>  (47) 
6

$$$$

     RDKit          3D

 56 59  0  0  0  0  0  0  0  0999 V2000
  138.7370   75.3390  221.8460 O   0  0  0  0  0  0  0  0  0  0  0  0
  139.9260   75.7890  221.9700 C   0  0  0  0  0  0  0  0  0  0  0  0
  141.0620   74.9670  221.6470 N   0  0  0  0  0  0  0  0  0  0  0  0
  140.9360   73.6320  221.1890 C   0  0  0  0  0  0  0  0  0  0  0  0
  142.1260   72.8740  220.8480 C   0  0  0  0  0  0  0  0  0  0  0  0
  142.0930   71.6210  221.1950 O   0  0  0  0  0  0  0  0  0  0  0  0
  143.3000   73.2890  220.1990 N   0  0  0  0  0  0  0  0  0  0  0  0
  143.9910   72.8040  219.0200 C   0  0  0  0  0  0  0  0  0  0  0  0
  145.4620   73.1420  219.1930 C   0  0  0  0  0  0  0  0  0  0  0  0
  145.5030   73.8110  220.5380 C   0  0  0  0  0  0  0  0  0  0  0  0
  144.1360   74.4120  220.6430 C   0  0  1  0  0  0  0  0  0  0  0  0
  144.0000   75.6020  219.7250 C   0  0  0  0  0  0  0  0  0  0  0  0
  142.7780   76.2780  219.9930 N   0  0  0  0  0  0  0  0  0  0  0  0
  142.1930   76.9990  218.9070 C   0  0  0  0  0  0  0  0  0  0  0  0
  141.4630   78.2220  219.2920 C   0  0  0  0  0  0  0  0  0  0  0  0
  140.1050   78.3090  219.4470 C   0  0  0  0  0  0  0  0  0  0  0  0
  139.4710   79.4840  219.8100 C   0  0  0  0  0  0  0  0  0  0  0  0
  140.2120   80.6300  220.0310 C   0  0  0  0  0  0  0  0  0  0  0  0
  139.4570   82.1550  220.4950 Cl  0  0  0  0  0  0  0  0  0  0  0  0
  141.5820   80.5520  219.8770 C   0  0  0  0  0  0  0  0  0  0  0  0
  142.2010   79.3660  219.5130 C   0  0  0  0  0  0  0  0  0  0  0  0
  140.1410   77.1600  222.4490 C   0  0  0  0  0  0  0  0  0  0  0  0
  139.0530   77.9130  222.8360 C   0  0  0  0  0  0  0  0  0  0  0  0
  139.3030   79.2120  223.2830 C   0  0  0  0  0  0  0  0  0  0  0  0
  140.6030   79.7170  223.3340 C   0  0  0  0  0  0  0  0  0  0  0  0
  140.8690   80.9980  223.7740 C   0  0  0  0  0  0  0  0  0  0  0  0
  142.1720   81.4770  223.8140 C   0  0  0  0  0  0  0  0  0  0  0  0
  143.2320   80.6600  223.4070 C   0  0  0  0  0  0  0  0  0  0  0  0
  142.9770   79.3760  222.9650 C   0  0  0  0  0  0  0  0  0  0  0  0
  141.6580   78.9120  222.9320 C   0  0  0  0  0  0  0  0  0  0  0  0
  141.3770   77.6760  222.5100 N   0  0  0  0  0  0  0  0  0  0  0  0
  142.0060   75.4340  221.7760 H   0  0  0  0  0  0  0  0  0  0  0  0
  140.4160   73.0711  221.9796 H   0  0  0  0  0  0  0  0  0  0  0  0
  140.4156   73.7394  220.2258 H   0  0  0  0  0  0  0  0  0  0  0  0
  143.8623   71.7154  218.9284 H   0  0  0  0  0  0  0  0  0  0  0  0
  143.5867   73.2708  218.1097 H   0  0  0  0  0  0  0  0  0  0  0  0
  146.0797   72.2318  219.1859 H   0  0  0  0  0  0  0  0  0  0  0  0
  145.8582   73.7734  218.3841 H   0  0  0  0  0  0  0  0  0  0  0  0
  145.6783   73.0795  221.3406 H   0  0  0  0  0  0  0  0  0  0  0  0
  146.3143   74.5472  220.6369 H   0  0  0  0  0  0  0  0  0  0  0  0
  143.8777   74.7961  221.6409 H   0  0  0  0  0  0  0  0  0  0  0  0
  144.8422   76.2898  219.8911 H   0  0  0  0  0  0  0  0  0  0  0  0
  144.0040   75.2579  218.6802 H   0  0  0  0  0  0  0  0  0  0  0  0
  142.7710   76.8080  220.8940 H   0  0  0  0  0  0  0  0  0  0  0  0
  142.9982   77.2859  218.2147 H   0  0  0  0  0  0  0  0  0  0  0  0
  141.4489   76.3258  218.4563 H   0  0  0  0  0  0  0  0  0  0  0  0
  139.4947   77.4099  219.2763 H   0  0  0  0  0  0  0  0  0  0  0  0
  138.3770   79.5063  219.9228 H   0  0  0  0  0  0  0  0  0  0  0  0
  142.1950   81.4495  220.0466 H   0  0  0  0  0  0  0  0  0  0  0  0
  143.2947   79.3371  219.3990 H   0  0  0  0  0  0  0  0  0  0  0  0
  138.0312   77.5077  222.7944 H   0  0  0  0  0  0  0  0  0  0  0  0
  138.4625   79.8470  223.5998 H   0  0  0  0  0  0  0  0  0  0  0  0
  140.0406   81.6460  224.0962 H   0  0  0  0  0  0  0  0  0  0  0  0
  142.3707   82.5000  224.1661 H   0  0  0  0  0  0  0  0  0  0  0  0
  144.2644   81.0383  223.4387 H   0  0  0  0  0  0  0  0  0  0  0  0
  143.8031   78.7252  222.6423 H   0  0  0  0  0  0  0  0  0  0  0  0
  1  2  2  0
  2  3  1  0
  3  4  1  0
  4  5  1  0
  5  6  2  0
  5  7  1  0
  7  8  1  0
  8  9  1  0
  9 10  1  0
 10 11  1  0
 11 12  1  0
 12 13  1  0
 13 14  1  0
 14 15  1  0
 15 16  2  0
 16 17  1  0
 17 18  2  0
 18 19  1  0
 18 20  1  0
 20 21  2  0
  2 22  1  0
 22 23  2  0
 23 24  1  0
 24 25  2  0
 25 26  1  0
 26 27  2  0
 27 28  1  0
 28 29  2  0
 29 30  1  0
 30 31  2  0
 11  7  1  0
 21 15  1  0
 31 22  1  0
 30 25  1  0
  3 32  1  0
  4 33  1  0
  4 34  1  0
  8 35  1  0
  8 36  1  0
  9 37  1  0
  9 38  1  0
 10 39  1  0
 10 40  1  0
 11 41  1  1
 12 42  1  0
 12 43  1  0
 13 44  1  0
 14 45  1  0
 14 46  1  0
 16 47  1  0
 17 48  1  0
 20 49  1  0
 21 50  1  0
 23 51  1  0
 24 52  1  0
 26 53  1  0
 27 54  1  0
 28 55  1  0
 29 56  1  0
M  END
>  <smiles>  (48) 
O=C(NCC(=O)N1CCC[C@H]1CNCc1ccc(Cl)cc1)c1ccc2ccccc2n1

>  <score_type>  (48) 
oracle

>  <origin>  (48) 
autodockgpu

>  <m_score__min__energy>  (48) 
-8.8800000000000008

>  <m_primary>  (48) 
energy

>  <rmsd>  (48) 
6.865275658371875

>  <m_score__min__rmsd>  (48) 
6.865275658371875

>  <meeko>  (48) 
{"free_energy": -7.14, "intermolecular_energy": -9.52, "internal_energy": -4.87, "cluster_size": 12, "cluster_id": 4, "rank_in_cluster": 4}

>  <energy>  (48) 
-5.53

>  <cluster_rmsd>  (48) 
0.98

>  <cluster>  (48) 
6

$$$$

     RDKit          3D

 56 59  0  0  0  0  0  0  0  0999 V2000
  139.2030   70.6660  221.4940 O   0  0  0  0  0  0  0  0  0  0  0  0
  139.4950   71.1770  222.6290 C   0  0  0  0  0  0  0  0  0  0  0  0
  139.7390   72.5900  222.7590 N   0  0  0  0  0  0  0  0  0  0  0  0
  139.6790   73.4820  221.6600 C   0  0  0  0  0  0  0  0  0  0  0  0
  140.8580   74.2420  221.2870 C   0  0  0  0  0  0  0  0  0  0  0  0
  141.0270   75.3470  221.9500 O   0  0  0  0  0  0  0  0  0  0  0  0
  141.8420   73.9600  220.3260 N   0  0  0  0  0  0  0  0  0  0  0  0
  141.8150   73.2000  219.0910 C   0  0  0  0  0  0  0  0  0  0  0  0
  143.2210   72.6740  218.8590 C   0  0  0  0  0  0  0  0  0  0  0  0
  143.9790   73.1850  220.0520 C   0  0  0  0  0  0  0  0  0  0  0  0
  143.2300   74.4330  220.4010 C   0  0  1  0  0  0  0  0  0  0  0  0
  143.5010   75.5220  219.3920 C   0  0  0  0  0  0  0  0  0  0  0  0
  143.2100   76.7910  219.9650 N   0  0  0  0  0  0  0  0  0  0  0  0
  142.0350   77.4520  219.4940 C   0  0  0  0  0  0  0  0  0  0  0  0
  141.2020   78.0680  220.5460 C   0  0  0  0  0  0  0  0  0  0  0  0
  139.8370   77.9930  220.6100 C   0  0  0  0  0  0  0  0  0  0  0  0
  139.1050   78.5910  221.6210 C   0  0  0  0  0  0  0  0  0  0  0  0
  139.7510   79.2980  222.6170 C   0  0  0  0  0  0  0  0  0  0  0  0
  138.8690   80.0800  223.9290 Cl  0  0  0  0  0  0  0  0  0  0  0  0
  141.1290   79.3790  222.5610 C   0  0  0  0  0  0  0  0  0  0  0  0
  141.8470   78.7740  221.5410 C   0  0  0  0  0  0  0  0  0  0  0  0
  139.5870   70.3180  223.8150 C   0  0  0  0  0  0  0  0  0  0  0  0
  139.0700   69.0400  223.7580 C   0  0  0  0  0  0  0  0  0  0  0  0
  139.1760   68.2570  224.9090 C   0  0  0  0  0  0  0  0  0  0  0  0
  139.7830   68.7550  226.0630 C   0  0  0  0  0  0  0  0  0  0  0  0
  139.8990   67.9950  227.2100 C   0  0  0  0  0  0  0  0  0  0  0  0
  140.5070   68.5140  228.3450 C   0  0  0  0  0  0  0  0  0  0  0  0
  141.0120   69.8190  228.3360 C   0  0  0  0  0  0  0  0  0  0  0  0
  140.9020   70.5880  227.1940 C   0  0  0  0  0  0  0  0  0  0  0  0
  140.2860   70.0470  226.0600 C   0  0  0  0  0  0  0  0  0  0  0  0
  140.1630   70.7640  224.9390 N   0  0  0  0  0  0  0  0  0  0  0  0
  139.9660   72.9170  223.7420 H   0  0  0  0  0  0  0  0  0  0  0  0
  139.3917   72.8866  220.7809 H   0  0  0  0  0  0  0  0  0  0  0  0
  138.9709   74.2544  221.9947 H   0  0  0  0  0  0  0  0  0  0  0  0
  141.1084   72.3616  219.1793 H   0  0  0  0  0  0  0  0  0  0  0  0
  141.4894   73.8305  218.2505 H   0  0  0  0  0  0  0  0  0  0  0  0
  143.2307   71.5745  218.8266 H   0  0  0  0  0  0  0  0  0  0  0  0
  143.6518   73.0012  217.9012 H   0  0  0  0  0  0  0  0  0  0  0  0
  143.9528   72.4610  220.8797 H   0  0  0  0  0  0  0  0  0  0  0  0
  145.0472   73.3557  219.8528 H   0  0  0  0  0  0  0  0  0  0  0  0
  143.5002   74.8753  221.3713 H   0  0  0  0  0  0  0  0  0  0  0  0
  144.5595   75.4894  219.0945 H   0  0  0  0  0  0  0  0  0  0  0  0
  142.8637   75.3667  218.5090 H   0  0  0  0  0  0  0  0  0  0  0  0
  144.0380   77.4240  220.0450 H   0  0  0  0  0  0  0  0  0  0  0  0
  142.3453   78.2442  218.7968 H   0  0  0  0  0  0  0  0  0  0  0  0
  141.4129   76.6760  219.0241 H   0  0  0  0  0  0  0  0  0  0  0  0
  139.3009   77.4358  219.8276 H   0  0  0  0  0  0  0  0  0  0  0  0
  138.0085   78.5034  221.6316 H   0  0  0  0  0  0  0  0  0  0  0  0
  141.6678   79.9352  223.3422 H   0  0  0  0  0  0  0  0  0  0  0  0
  142.9437   78.8577  221.5246 H   0  0  0  0  0  0  0  0  0  0  0  0
  138.5944   68.6543  222.8442 H   0  0  0  0  0  0  0  0  0  0  0  0
  138.7753   67.2326  224.9064 H   0  0  0  0  0  0  0  0  0  0  0  0
  139.5056   66.9678  227.2246 H   0  0  0  0  0  0  0  0  0  0  0  0
  140.5919   67.8985  229.2527 H   0  0  0  0  0  0  0  0  0  0  0  0
  141.4946   70.2307  229.2347 H   0  0  0  0  0  0  0  0  0  0  0  0
  141.2947   71.6154  227.1761 H   0  0  0  0  0  0  0  0  0  0  0  0
  1  2  2  0
  2  3  1  0
  3  4  1  0
  4  5  1  0
  5  6  2  0
  5  7  1  0
  7  8  1  0
  8  9  1  0
  9 10  1  0
 10 11  1  0
 11 12  1  0
 12 13  1  0
 13 14  1  0
 14 15  1  0
 15 16  2  0
 16 17  1  0
 17 18  2  0
 18 19  1  0
 18 20  1  0
 20 21  2  0
  2 22  1  0
 22 23  2  0
 23 24  1  0
 24 25  2  0
 25 26  1  0
 26 27  2  0
 27 28  1  0
 28 29  2  0
 29 30  1  0
 30 31  2  0
 11  7  1  0
 21 15  1  0
 31 22  1  0
 30 25  1  0
  3 32  1  0
  4 33  1  0
  4 34  1  0
  8 35  1  0
  8 36  1  0
  9 37  1  0
  9 38  1  0
 10 39  1  0
 10 40  1  0
 11 41  1  1
 12 42  1  0
 12 43  1  0
 13 44  1  0
 14 45  1  0
 14 46  1  0
 16 47  1  0
 17 48  1  0
 20 49  1  0
 21 50  1  0
 23 51  1  0
 24 52  1  0
 26 53  1  0
 27 54  1  0
 28 55  1  0
 29 56  1  0
M  END
>  <smiles>  (49) 
O=C(NCC(=O)N1CCC[C@H]1CNCc1ccc(Cl)cc1)c1ccc2ccccc2n1

>  <score_type>  (49) 
oracle

>  <origin>  (49) 
autodockgpu

>  <m_score__min__energy>  (49) 
-8.8800000000000008

>  <m_primary>  (49) 
energy

>  <rmsd>  (49) 
2.972430608969615

>  <m_score__min__rmsd>  (49) 
2.972430608969615

>  <meeko>  (49) 
{"free_energy": -8.33, "intermolecular_energy": -10.72, "internal_energy": -2.06, "cluster_size": 12, "cluster_id": 4, "rank_in_cluster": 1}

>  <energy>  (49) 
-6.42

>  <cluster_rmsd>  (49) 
0.0

>  <cluster>  (49) 
7

$$$$

     RDKit          3D

 56 59  0  0  0  0  0  0  0  0999 V2000
  138.8150   75.2280  221.8100 O   0  0  0  0  0  0  0  0  0  0  0  0
  139.9930   75.7140  221.9070 C   0  0  0  0  0  0  0  0  0  0  0  0
  141.1470   74.9190  221.5790 N   0  0  0  0  0  0  0  0  0  0  0  0
  141.0520   73.5740  221.1440 C   0  0  0  0  0  0  0  0  0  0  0  0
  142.2590   72.8390  220.8120 C   0  0  0  0  0  0  0  0  0  0  0  0
  142.2020   71.5620  221.0480 O   0  0  0  0  0  0  0  0  0  0  0  0
  143.4710   73.2990  220.2730 N   0  0  0  0  0  0  0  0  0  0  0  0
  144.3270   72.7940  219.2160 C   0  0  0  0  0  0  0  0  0  0  0  0
  145.7410   73.2510  219.5310 C   0  0  0  0  0  0  0  0  0  0  0  0
  145.5790   74.0050  220.8210 C   0  0  0  0  0  0  0  0  0  0  0  0
  144.1710   74.5070  220.7280 C   0  0  1  0  0  0  0  0  0  0  0  0
  144.0650   75.6240  219.7180 C   0  0  0  0  0  0  0  0  0  0  0  0
  142.8300   76.3080  219.8870 N   0  0  0  0  0  0  0  0  0  0  0  0
  142.3520   77.0520  218.7660 C   0  0  0  0  0  0  0  0  0  0  0  0
  141.7860   78.3760  219.0920 C   0  0  0  0  0  0  0  0  0  0  0  0
  140.5340   78.5900  219.6040 C   0  0  0  0  0  0  0  0  0  0  0  0
  140.0530   79.8550  219.8910 C   0  0  0  0  0  0  0  0  0  0  0  0
  140.8450   80.9650  219.6620 C   0  0  0  0  0  0  0  0  0  0  0  0
  140.2840   82.6000  220.0090 Cl  0  0  0  0  0  0  0  0  0  0  0  0
  142.1100   80.7590  219.1450 C   0  0  0  0  0  0  0  0  0  0  0  0
  142.5760   79.4840  218.8630 C   0  0  0  0  0  0  0  0  0  0  0  0
  140.1760   77.0980  222.3600 C   0  0  0  0  0  0  0  0  0  0  0  0
  139.0710   77.8330  222.7330 C   0  0  0  0  0  0  0  0  0  0  0  0
  139.2900   79.1460  223.1560 C   0  0  0  0  0  0  0  0  0  0  0  0
  140.5780   79.6810  223.1970 C   0  0  0  0  0  0  0  0  0  0  0  0
  140.8150   80.9760  223.6130 C   0  0  0  0  0  0  0  0  0  0  0  0
  142.1070   81.4860  223.6440 C   0  0  0  0  0  0  0  0  0  0  0  0
  143.1860   80.6860  223.2520 C   0  0  0  0  0  0  0  0  0  0  0  0
  142.9600   79.3890  222.8340 C   0  0  0  0  0  0  0  0  0  0  0  0
  141.6520   78.8930  222.8100 C   0  0  0  0  0  0  0  0  0  0  0  0
  141.4000   77.6430  222.4110 N   0  0  0  0  0  0  0  0  0  0  0  0
  142.0790   75.4150  221.6840 H   0  0  0  0  0  0  0  0  0  0  0  0
  140.5479   73.0142  221.9456 H   0  0  0  0  0  0  0  0  0  0  0  0
  140.5266   73.6526  220.1808 H   0  0  0  0  0  0  0  0  0  0  0  0
  144.2830   71.6953  219.1872 H   0  0  0  0  0  0  0  0  0  0  0  0
  144.0026   73.1714  218.2350 H   0  0  0  0  0  0  0  0  0  0  0  0
  146.4143   72.3906  219.6589 H   0  0  0  0  0  0  0  0  0  0  0  0
  146.1866   73.8584  218.7294 H   0  0  0  0  0  0  0  0  0  0  0  0
  145.7079   73.3410  221.6885 H   0  0  0  0  0  0  0  0  0  0  0  0
  146.3217   74.8048  220.9579 H   0  0  0  0  0  0  0  0  0  0  0  0
  143.7711   74.9321  221.6604 H   0  0  0  0  0  0  0  0  0  0  0  0
  144.8964   76.3292  219.8643 H   0  0  0  0  0  0  0  0  0  0  0  0
  144.1119   75.2027  218.7030 H   0  0  0  0  0  0  0  0  0  0  0  0
  142.7470   76.8230  220.7930 H   0  0  0  0  0  0  0  0  0  0  0  0
  143.1924   77.2015  218.0721 H   0  0  0  0  0  0  0  0  0  0  0  0
  141.5290   76.4634  218.3344 H   0  0  0  0  0  0  0  0  0  0  0  0
  139.8855   77.7222  219.7945 H   0  0  0  0  0  0  0  0  0  0  0  0
  139.0399   79.9778  220.3016 H   0  0  0  0  0  0  0  0  0  0  0  0
  142.7608   81.6248  218.9532 H   0  0  0  0  0  0  0  0  0  0  0  0
  143.5879   79.3541  218.4517 H   0  0  0  0  0  0  0  0  0  0  0  0
  138.0590   77.4033  222.6989 H   0  0  0  0  0  0  0  0  0  0  0  0
  138.4349   79.7671  223.4611 H   0  0  0  0  0  0  0  0  0  0  0  0
  139.9719   81.6108  223.9232 H   0  0  0  0  0  0  0  0  0  0  0  0
  142.2818   82.5197  223.9770 H   0  0  0  0  0  0  0  0  0  0  0  0
  144.2096   81.0881  223.2766 H   0  0  0  0  0  0  0  0  0  0  0  0
  143.8009   78.7518  222.5228 H   0  0  0  0  0  0  0  0  0  0  0  0
  1  2  2  0
  2  3  1  0
  3  4  1  0
  4  5  1  0
  5  6  2  0
  5  7  1  0
  7  8  1  0
  8  9  1  0
  9 10  1  0
 10 11  1  0
 11 12  1  0
 12 13  1  0
 13 14  1  0
 14 15  1  0
 15 16  2  0
 16 17  1  0
 17 18  2  0
 18 19  1  0
 18 20  1  0
 20 21  2  0
  2 22  1  0
 22 23  2  0
 23 24  1  0
 24 25  2  0
 25 26  1  0
 26 27  2  0
 27 28  1  0
 28 29  2  0
 29 30  1  0
 30 31  2  0
 11  7  1  0
 21 15  1  0
 31 22  1  0
 30 25  1  0
  3 32  1  0
  4 33  1  0
  4 34  1  0
  8 35  1  0
  8 36  1  0
  9 37  1  0
  9 38  1  0
 10 39  1  0
 10 40  1  0
 11 41  1  1
 12 42  1  0
 12 43  1  0
 13 44  1  0
 14 45  1  0
 14 46  1  0
 16 47  1  0
 17 48  1  0
 20 49  1  0
 21 50  1  0
 23 51  1  0
 24 52  1  0
 26 53  1  0
 27 54  1  0
 28 55  1  0
 29 56  1  0
M  END
>  <smiles>  (50) 
O=C(NCC(=O)N1CCC[C@H]1CNCc1ccc(Cl)cc1)c1ccc2ccccc2n1

>  <score_type>  (50) 
oracle

>  <origin>  (50) 
autodockgpu

>  <m_score__min__energy>  (50) 
-8.8800000000000008

>  <m_primary>  (50) 
energy

>  <rmsd>  (50) 
6.921582454163449

>  <m_score__min__rmsd>  (50) 
6.921582454163449

>  <meeko>  (50) 
{"free_energy": -7.31, "intermolecular_energy": -9.7, "internal_energy": -4.73, "cluster_size": 23, "cluster_id": 5, "rank_in_cluster": 10}

>  <energy>  (50) 
-6.21

>  <cluster_rmsd>  (50) 
0.0

>  <cluster>  (50) 
8

$$$$
