
     RDKit          3D

 53 56  0  0  0  0  0  0  0  0999 V2000
  139.6480   74.3700  221.9490 O   0  0  0  0  0  0  0  0  0  0  0  0
  140.7800   74.8710  221.6140 C   0  0  0  0  0  0  0  0  0  0  0  0
  140.8950   76.2890  221.8690 N   0  0  0  0  0  0  0  0  0  0  0  0
  139.7710   76.9200  222.4510 C   0  0  0  0  0  0  0  0  0  0  0  0
  139.7790   78.3460  222.7160 C   0  0  0  0  0  0  0  0  0  0  0  0
  138.5900   78.8530  222.9160 O   0  0  0  0  0  0  0  0  0  0  0  0
  140.8690   79.2510  222.7880 N   0  0  0  0  0  0  0  0  0  0  0  0
  142.2860   79.0270  222.8720 C   0  0  0  0  0  0  0  0  0  0  0  0
  142.8900   80.3850  222.6120 C   0  0  2  0  0  0  0  0  0  0  0  0
  144.1600   80.5180  223.1850 O   0  0  0  0  0  0  0  0  0  0  0  0
  141.8970   81.3320  223.2200 C   0  0  0  0  0  0  0  0  0  0  0  0
  140.5850   80.7160  222.8220 C   0  0  1  0  0  0  0  0  0  0  0  0
  140.2070   81.2170  221.4360 C   0  0  0  0  0  0  0  0  0  0  0  0
  140.6940   80.4990  220.4500 O   0  0  0  0  0  0  0  0  0  0  0  0
  141.3130   79.7440  219.6210 C   0  0  0  0  0  0  0  0  0  0  0  0
  141.0130   78.3470  219.6390 C   0  0  0  0  0  0  0  0  0  0  0  0
  141.6240   77.4710  218.7910 C   0  0  0  0  0  0  0  0  0  0  0  0
  142.5370   77.9180  217.9050 C   0  0  0  0  0  0  0  0  0  0  0  0
  143.2980   76.7800  216.8270 Cl  0  0  0  0  0  0  0  0  0  0  0  0
  142.8730   79.2220  217.8290 C   0  0  0  0  0  0  0  0  0  0  0  0
  142.2770   80.1330  218.6700 C   0  0  0  0  0  0  0  0  0  0  0  0
  141.8410   74.0780  221.0330 C   0  0  0  0  0  0  0  0  0  0  0  0
  143.0090   74.7660  220.6950 C   0  0  0  0  0  0  0  0  0  0  0  0
  144.0670   74.0500  220.1540 C   0  0  0  0  0  0  0  0  0  0  0  0
  143.9810   72.6890  219.9480 C   0  0  0  0  0  0  0  0  0  0  0  0
  145.0640   72.0560  219.4040 C   0  0  0  0  0  0  0  0  0  0  0  0
  144.9400   70.6820  219.2000 C   0  0  0  0  0  0  0  0  0  0  0  0
  146.2590   69.7810  218.5080 Cl  0  0  0  0  0  0  0  0  0  0  0  0
  143.7900   69.9880  219.5260 C   0  0  0  0  0  0  0  0  0  0  0  0
  142.7220   70.7000  220.0810 C   0  0  0  0  0  0  0  0  0  0  0  0
  142.8030   72.0770  220.3040 C   0  0  0  0  0  0  0  0  0  0  0  0
  141.7500   72.7540  220.8360 N   0  0  0  0  0  0  0  0  0  0  0  0
  141.8100   76.6910  221.6000 H   0  0  0  0  0  0  0  0  0  0  0  0
  138.9207   76.7296  221.7796 H   0  0  0  0  0  0  0  0  0  0  0  0
  139.7382   76.4825  223.4597 H   0  0  0  0  0  0  0  0  0  0  0  0
  142.5647   78.6606  223.8710 H   0  0  0  0  0  0  0  0  0  0  0  0
  142.6359   78.2661  222.1588 H   0  0  0  0  0  0  0  0  0  0  0  0
  143.0577   80.5738  221.5414 H   0  0  0  0  0  0  0  0  0  0  0  0
  144.7790   80.0190  222.5960 H   0  0  0  0  0  0  0  0  0  0  0  0
  142.0029   81.3725  224.3141 H   0  0  0  0  0  0  0  0  0  0  0  0
  142.0162   82.3724  222.8834 H   0  0  0  0  0  0  0  0  0  0  0  0
  139.7565   80.9625  223.5023 H   0  0  0  0  0  0  0  0  0  0  0  0
  139.1099   81.2132  221.3557 H   0  0  0  0  0  0  0  0  0  0  0  0
  140.6396   82.2234  221.3362 H   0  0  0  0  0  0  0  0  0  0  0  0
  140.2696   77.9682  220.3558 H   0  0  0  0  0  0  0  0  0  0  0  0
  141.3723   76.4009  218.8297 H   0  0  0  0  0  0  0  0  0  0  0  0
  143.6220   79.5564  217.0961 H   0  0  0  0  0  0  0  0  0  0  0  0
  142.5606   81.1934  218.5981 H   0  0  0  0  0  0  0  0  0  0  0  0
  143.0880   75.8515  220.8543 H   0  0  0  0  0  0  0  0  0  0  0  0
  144.9932   74.5785  219.8839 H   0  0  0  0  0  0  0  0  0  0  0  0
  145.9829   72.6008  219.1416 H   0  0  0  0  0  0  0  0  0  0  0  0
  143.7168   68.9041  219.3534 H   0  0  0  0  0  0  0  0  0  0  0  0
  141.7987   70.1648  220.3476 H   0  0  0  0  0  0  0  0  0  0  0  0
  1  2  2  0
  2  3  1  0
  3  4  1  0
  4  5  1  0
  5  6  2  0
  5  7  1  0
  7  8  1  0
  8  9  1  0
  9 10  1  0
  9 11  1  0
 11 12  1  0
 12 13  1  0
 13 14  1  0
 14 15  1  0
 15 16  2  0
 16 17  1  0
 17 18  2  0
 18 19  1  0
 18 20  1  0
 20 21  2  0
  2 22  1  0
 22 23  2  0
 23 24  1  0
 24 25  2  0
 25 26  1  0
 26 27  2  0
 27 28  1  0
 27 29  1  0
 29 30  2  0
 30 31  1  0
 31 32  2  0
 12  7  1  0
 21 15  1  0
 32 22  1  0
 31 25  1  0
  3 33  1  0
  4 34  1  0
  4 35  1  0
  8 36  1  0
  8 37  1  0
  9 38  1  6
 10 39  1  0
 11 40  1  0
 11 41  1  0
 12 42  1  1
 13 43  1  0
 13 44  1  0
 16 45  1  0
 17 46  1  0
 20 47  1  0
 21 48  1  0
 23 49  1  0
 24 50  1  0
 26 51  1  0
 29 52  1  0
 30 53  1  0
M  END
>  <smiles>  (1) 
O=C(NCC(=O)N1C[C@H](O)C[C@H]1COc1ccc(Cl)cc1)c1ccc2cc(Cl)ccc2n1

>  <score_type>  (1) 
oracle

>  <origin>  (1) 
autodockgpu

>  <m_score__min__energy>  (1) 
-8.4800000000000004

>  <m_primary>  (1) 
energy

>  <rmsd>  (1) 
6.810649822970327

>  <m_score__min__rmsd>  (1) 
6.810649822970327

>  <meeko>  (1) 
{"free_energy": -7.09, "intermolecular_energy": -9.48, "internal_energy": -2.22, "cluster_size": 3, "cluster_id": 9, "rank_in_cluster": 1}

>  <energy>  (1) 
-8.48

>  <cluster_rmsd>  (1) 
0.0

>  <cluster>  (1) 
1

$$$$

     RDKit          3D

 53 56  0  0  0  0  0  0  0  0999 V2000
  134.1860   71.1720  226.5730 O   0  0  0  0  0  0  0  0  0  0  0  0
  133.8430   72.0990  225.7570 C   0  0  0  0  0  0  0  0  0  0  0  0
  133.5930   71.6360  224.4100 N   0  0  0  0  0  0  0  0  0  0  0  0
  133.7500   70.2490  224.1790 C   0  0  0  0  0  0  0  0  0  0  0  0
  135.0650   69.6810  223.9560 C   0  0  0  0  0  0  0  0  0  0  0  0
  135.1700   68.4310  224.3280 O   0  0  0  0  0  0  0  0  0  0  0  0
  136.2300   70.2730  223.4030 N   0  0  0  0  0  0  0  0  0  0  0  0
  136.9240   71.4880  223.7310 C   0  0  0  0  0  0  0  0  0  0  0  0
  138.2310   71.3790  222.9850 C   0  0  2  0  0  0  0  0  0  0  0  0
  138.7880   72.6320  222.7050 O   0  0  0  0  0  0  0  0  0  0  0  0
  137.8580   70.6370  221.7340 C   0  0  0  0  0  0  0  0  0  0  0  0
  136.8990   69.6020  222.2510 C   0  0  1  0  0  0  0  0  0  0  0  0
  137.6900   68.3920  222.7260 C   0  0  0  0  0  0  0  0  0  0  0  0
  138.2140   68.5250  223.9240 O   0  0  0  0  0  0  0  0  0  0  0  0
  138.8850   68.5580  225.0140 C   0  0  0  0  0  0  0  0  0  0  0  0
  139.6570   67.4050  225.3570 C   0  0  0  0  0  0  0  0  0  0  0  0
  140.4030   67.3540  226.4970 C   0  0  0  0  0  0  0  0  0  0  0  0
  140.4250   68.4130  227.3340 C   0  0  0  0  0  0  0  0  0  0  0  0
  141.3910   68.3260  228.7810 Cl  0  0  0  0  0  0  0  0  0  0  0  0
  139.7230   69.5350  227.0780 C   0  0  0  0  0  0  0  0  0  0  0  0
  138.9590   69.6190  225.9370 C   0  0  0  0  0  0  0  0  0  0  0  0
  133.7180   73.4830  226.1580 C   0  0  0  0  0  0  0  0  0  0  0  0
  134.6560   74.3670  225.6190 C   0  0  0  0  0  0  0  0  0  0  0  0
  134.5700   75.7110  225.9530 C   0  0  0  0  0  0  0  0  0  0  0  0
  133.5850   76.1780  226.7980 C   0  0  0  0  0  0  0  0  0  0  0  0
  133.5710   77.5150  227.0850 C   0  0  0  0  0  0  0  0  0  0  0  0
  132.5680   77.9510  227.9500 C   0  0  0  0  0  0  0  0  0  0  0  0
  132.4640   79.6340  228.3830 Cl  0  0  0  0  0  0  0  0  0  0  0  0
  131.6360   77.0890  228.4940 C   0  0  0  0  0  0  0  0  0  0  0  0
  131.7090   75.7340  228.1550 C   0  0  0  0  0  0  0  0  0  0  0  0
  132.6960   75.2520  227.2910 C   0  0  0  0  0  0  0  0  0  0  0  0
  132.7570   73.9300  226.9800 N   0  0  0  0  0  0  0  0  0  0  0  0
  133.3150   72.3850  223.7530 H   0  0  0  0  0  0  0  0  0  0  0  0
  133.3300   69.7347  225.0560 H   0  0  0  0  0  0  0  0  0  0  0  0
  133.2519   70.1036  223.2091 H   0  0  0  0  0  0  0  0  0  0  0  0
  136.3541   72.3663  223.3937 H   0  0  0  0  0  0  0  0  0  0  0  0
  137.0659   71.6135  224.8146 H   0  0  0  0  0  0  0  0  0  0  0  0
  139.0085   70.8654  223.5695 H   0  0  0  0  0  0  0  0  0  0  0  0
  138.1370   73.3000  223.0360 H   0  0  0  0  0  0  0  0  0  0  0  0
  137.3716   71.3027  221.0058 H   0  0  0  0  0  0  0  0  0  0  0  0
  138.7204   70.2114  221.2000 H   0  0  0  0  0  0  0  0  0  0  0  0
  136.1773   69.2527  221.4979 H   0  0  0  0  0  0  0  0  0  0  0  0
  137.0156   67.5231  222.7394 H   0  0  0  0  0  0  0  0  0  0  0  0
  138.5300   68.2702  222.0263 H   0  0  0  0  0  0  0  0  0  0  0  0
  139.6490   66.5356  224.6832 H   0  0  0  0  0  0  0  0  0  0  0  0
  140.9858   66.4518  226.7343 H   0  0  0  0  0  0  0  0  0  0  0  0
  139.7610   70.3813  227.7797 H   0  0  0  0  0  0  0  0  0  0  0  0
  138.3905   70.5399  225.7403 H   0  0  0  0  0  0  0  0  0  0  0  0
  135.4459   74.0053  224.9442 H   0  0  0  0  0  0  0  0  0  0  0  0
  135.3020   76.4181  225.5356 H   0  0  0  0  0  0  0  0  0  0  0  0
  134.3102   78.2082  226.6571 H   0  0  0  0  0  0  0  0  0  0  0  0
  130.8564   77.4586  229.1763 H   0  0  0  0  0  0  0  0  0  0  0  0
  130.9740   75.0330  228.5774 H   0  0  0  0  0  0  0  0  0  0  0  0
  1  2  2  0
  2  3  1  0
  3  4  1  0
  4  5  1  0
  5  6  2  0
  5  7  1  0
  7  8  1  0
  8  9  1  0
  9 10  1  0
  9 11  1  0
 11 12  1  0
 12 13  1  0
 13 14  1  0
 14 15  1  0
 15 16  2  0
 16 17  1  0
 17 18  2  0
 18 19  1  0
 18 20  1  0
 20 21  2  0
  2 22  1  0
 22 23  2  0
 23 24  1  0
 24 25  2  0
 25 26  1  0
 26 27  2  0
 27 28  1  0
 27 29  1  0
 29 30  2  0
 30 31  1  0
 31 32  2  0
 12  7  1  0
 21 15  1  0
 32 22  1  0
 31 25  1  0
  3 33  1  0
  4 34  1  0
  4 35  1  0
  8 36  1  0
  8 37  1  0
  9 38  1  1
 10 39  1  0
 11 40  1  0
 11 41  1  0
 12 42  1  6
 13 43  1  0
 13 44  1  0
 16 45  1  0
 17 46  1  0
 20 47  1  0
 21 48  1  0
 23 49  1  0
 24 50  1  0
 26 51  1  0
 29 52  1  0
 30 53  1  0
M  END
>  <smiles>  (2) 
O=C(NCC(=O)N1C[C@H](O)C[C@H]1COc1ccc(Cl)cc1)c1ccc2cc(Cl)ccc2n1

>  <score_type>  (2) 
oracle

>  <origin>  (2) 
autodockgpu

>  <m_score__min__energy>  (2) 
-8.4800000000000004

>  <m_primary>  (2) 
energy

>  <rmsd>  (2) 
8.539863741944048

>  <m_score__min__rmsd>  (2) 
8.539863741944048

>  <meeko>  (2) 
{"free_energy": -7.66, "intermolecular_energy": -10.04, "internal_energy": -1.67, "cluster_size": 4, "cluster_id": 2, "rank_in_cluster": 3}

>  <energy>  (2) 
-7.59

>  <cluster_rmsd>  (2) 
1.7

>  <cluster>  (2) 
1

$$$$

     RDKit          3D

 53 56  0  0  0  0  0  0  0  0999 V2000
  140.0250   74.0940  222.1150 O   0  0  0  0  0  0  0  0  0  0  0  0
  140.0200   72.8190  221.9810 C   0  0  0  0  0  0  0  0  0  0  0  0
  139.9770   72.3700  220.6080 N   0  0  0  0  0  0  0  0  0  0  0  0
  139.9580   73.3760  219.6140 C   0  0  0  0  0  0  0  0  0  0  0  0
  141.0870   73.5530  218.7200 C   0  0  0  0  0  0  0  0  0  0  0  0
  140.7570   73.5920  217.4550 O   0  0  0  0  0  0  0  0  0  0  0  0
  142.4680   73.6880  219.0150 N   0  0  0  0  0  0  0  0  0  0  0  0
  143.6140   72.9570  218.5510 C   0  0  0  0  0  0  0  0  0  0  0  0
  144.7890   73.7870  219.0030 C   0  0  2  0  0  0  0  0  0  0  0  0
  145.9500   73.0210  219.1620 O   0  0  0  0  0  0  0  0  0  0  0  0
  144.3220   74.3760  220.3020 C   0  0  0  0  0  0  0  0  0  0  0  0
  142.8940   74.7280  219.9980 C   0  0  1  0  0  0  0  0  0  0  0  0
  142.8520   76.1100  219.3620 C   0  0  0  0  0  0  0  0  0  0  0  0
  142.2960   77.0330  220.1130 O   0  0  0  0  0  0  0  0  0  0  0  0
  141.6380   77.7830  220.9160 C   0  0  0  0  0  0  0  0  0  0  0  0
  140.6450   77.1690  221.7400 C   0  0  0  0  0  0  0  0  0  0  0  0
  139.9000   77.8910  222.6240 C   0  0  0  0  0  0  0  0  0  0  0  0
  140.0920   79.2220  222.7360 C   0  0  0  0  0  0  0  0  0  0  0  0
  139.1310   80.1210  223.8770 Cl  0  0  0  0  0  0  0  0  0  0  0  0
  141.0090   79.8720  221.9920 C   0  0  0  0  0  0  0  0  0  0  0  0
  141.7780   79.1740  221.0900 C   0  0  0  0  0  0  0  0  0  0  0  0
  140.0520   71.9170  223.1130 C   0  0  0  0  0  0  0  0  0  0  0  0
  139.5570   70.6310  222.8890 C   0  0  0  0  0  0  0  0  0  0  0  0
  139.5850   69.7180  223.9340 C   0  0  0  0  0  0  0  0  0  0  0  0
  140.0860   70.0610  225.1720 C   0  0  0  0  0  0  0  0  0  0  0  0
  140.0720   69.1080  226.1520 C   0  0  0  0  0  0  0  0  0  0  0  0
  140.5770   69.4920  227.3950 C   0  0  0  0  0  0  0  0  0  0  0  0
  140.6010   68.3550  228.7130 Cl  0  0  0  0  0  0  0  0  0  0  0  0
  141.0670   70.7620  227.6320 C   0  0  0  0  0  0  0  0  0  0  0  0
  141.0520   71.6850  226.5810 C   0  0  0  0  0  0  0  0  0  0  0  0
  140.5560   71.3440  225.3210 C   0  0  0  0  0  0  0  0  0  0  0  0
  140.5420   72.2580  224.3140 N   0  0  0  0  0  0  0  0  0  0  0  0
  139.9750   71.3410  220.5020 H   0  0  0  0  0  0  0  0  0  0  0  0
  139.0826   73.1744  218.9791 H   0  0  0  0  0  0  0  0  0  0  0  0
  139.9631   74.3046  220.2036 H   0  0  0  0  0  0  0  0  0  0  0  0
  143.6470   71.9549  219.0033 H   0  0  0  0  0  0  0  0  0  0  0  0
  143.6020   72.8008  217.4622 H   0  0  0  0  0  0  0  0  0  0  0  0
  145.0724   74.5524  218.2656 H   0  0  0  0  0  0  0  0  0  0  0  0
  146.7070   73.6540  219.0830 H   0  0  0  0  0  0  0  0  0  0  0  0
  144.3863   73.6416  221.1185 H   0  0  0  0  0  0  0  0  0  0  0  0
  144.9246   75.2320  220.6397 H   0  0  0  0  0  0  0  0  0  0  0  0
  142.2455   74.7512  220.8862 H   0  0  0  0  0  0  0  0  0  0  0  0
  143.8844   76.4200  219.1425 H   0  0  0  0  0  0  0  0  0  0  0  0
  142.2312   76.0226  218.4582 H   0  0  0  0  0  0  0  0  0  0  0  0
  140.4774   76.0849  221.6587 H   0  0  0  0  0  0  0  0  0  0  0  0
  139.1433   77.3894  223.2452 H   0  0  0  0  0  0  0  0  0  0  0  0
  141.1421   80.9580  222.1059 H   0  0  0  0  0  0  0  0  0  0  0  0
  142.5222   79.7165  220.4884 H   0  0  0  0  0  0  0  0  0  0  0  0
  139.1536   70.3475  221.9057 H   0  0  0  0  0  0  0  0  0  0  0  0
  139.1999   68.7005  223.7714 H   0  0  0  0  0  0  0  0  0  0  0  0
  139.6842   68.0947  225.9708 H   0  0  0  0  0  0  0  0  0  0  0  0
  141.4588   71.0401  228.6216 H   0  0  0  0  0  0  0  0  0  0  0  0
  141.4390   72.7006  226.7506 H   0  0  0  0  0  0  0  0  0  0  0  0
  1  2  2  0
  2  3  1  0
  3  4  1  0
  4  5  1  0
  5  6  2  0
  5  7  1  0
  7  8  1  0
  8  9  1  0
  9 10  1  0
  9 11  1  0
 11 12  1  0
 12 13  1  0
 13 14  1  0
 14 15  1  0
 15 16  2  0
 16 17  1  0
 17 18  2  0
 18 19  1  0
 18 20  1  0
 20 21  2  0
  2 22  1  0
 22 23  2  0
 23 24  1  0
 24 25  2  0
 25 26  1  0
 26 27  2  0
 27 28  1  0
 27 29  1  0
 29 30  2  0
 30 31  1  0
 31 32  2  0
 12  7  1  0
 21 15  1  0
 32 22  1  0
 31 25  1  0
  3 33  1  0
  4 34  1  0
  4 35  1  0
  8 36  1  0
  8 37  1  0
  9 38  1  6
 10 39  1  0
 11 40  1  0
 11 41  1  0
 12 42  1  1
 13 43  1  0
 13 44  1  0
 16 45  1  0
 17 46  1  0
 20 47  1  0
 21 48  1  0
 23 49  1  0
 24 50  1  0
 26 51  1  0
 29 52  1  0
 30 53  1  0
M  END
>  <smiles>  (3) 
O=C(NCC(=O)N1C[C@H](O)C[C@H]1COc1ccc(Cl)cc1)c1ccc2cc(Cl)ccc2n1

>  <score_type>  (3) 
oracle

>  <origin>  (3) 
autodockgpu

>  <m_score__min__energy>  (3) 
-8.4800000000000004

>  <m_primary>  (3) 
energy

>  <rmsd>  (3) 
3.1287222360068205

>  <m_score__min__rmsd>  (3) 
3.1287222360068205

>  <meeko>  (3) 
{"free_energy": -8.48, "intermolecular_energy": -10.87, "internal_energy": -1.5, "cluster_size": 22, "cluster_id": 1, "rank_in_cluster": 1}

>  <energy>  (3) 
-7.59

>  <cluster_rmsd>  (3) 
1.77

>  <cluster>  (3) 
1

$$$$

     RDKit          3D

 53 56  0  0  0  0  0  0  0  0999 V2000
  138.3980   71.5580  220.5380 O   0  0  0  0  0  0  0  0  0  0  0  0
  138.6420   72.1160  221.6660 C   0  0  0  0  0  0  0  0  0  0  0  0
  138.5380   73.5580  221.6460 N   0  0  0  0  0  0  0  0  0  0  0  0
  138.1800   74.1480  220.4110 C   0  0  0  0  0  0  0  0  0  0  0  0
  139.1600   74.2980  219.3520 C   0  0  0  0  0  0  0  0  0  0  0  0
  138.7420   73.8840  218.1840 O   0  0  0  0  0  0  0  0  0  0  0  0
  140.4790   74.8200  219.4000 N   0  0  0  0  0  0  0  0  0  0  0  0
  141.0430   76.0270  218.8630 C   0  0  0  0  0  0  0  0  0  0  0  0
  142.3970   76.1250  219.5200 C   0  0  2  0  0  0  0  0  0  0  0  0
  143.3060   76.8650  218.7540 O   0  0  0  0  0  0  0  0  0  0  0  0
  142.8200   74.6920  219.6650 C   0  0  0  0  0  0  0  0  0  0  0  0
  141.5410   74.0230  220.0810 C   0  0  1  0  0  0  0  0  0  0  0  0
  141.3990   74.1280  221.5920 C   0  0  0  0  0  0  0  0  0  0  0  0
  140.9430   75.2860  222.0130 O   0  0  0  0  0  0  0  0  0  0  0  0
  140.3250   76.3610  222.3310 C   0  0  0  0  0  0  0  0  0  0  0  0
  141.1080   77.5240  222.6080 C   0  0  0  0  0  0  0  0  0  0  0  0
  140.5330   78.7120  222.9520 C   0  0  0  0  0  0  0  0  0  0  0  0
  139.1900   78.8080  223.0380 C   0  0  0  0  0  0  0  0  0  0  0  0
  138.4790   80.3380  223.4740 Cl  0  0  0  0  0  0  0  0  0  0  0  0
  138.3850   77.7550  222.7930 C   0  0  0  0  0  0  0  0  0  0  0  0
  138.9320   76.5420  222.4430 C   0  0  0  0  0  0  0  0  0  0  0  0
  138.9890   71.3600  222.8500 C   0  0  0  0  0  0  0  0  0  0  0  0
  138.5540   70.0330  222.8820 C   0  0  0  0  0  0  0  0  0  0  0  0
  138.8790   69.2550  223.9850 C   0  0  0  0  0  0  0  0  0  0  0  0
  139.6130   69.7690  225.0330 C   0  0  0  0  0  0  0  0  0  0  0  0
  139.8860   68.9420  226.0870 C   0  0  0  0  0  0  0  0  0  0  0  0
  140.6210   69.4960  227.1340 C   0  0  0  0  0  0  0  0  0  0  0  0
  141.0190   68.5300  228.5260 Cl  0  0  0  0  0  0  0  0  0  0  0  0
  141.0550   70.8080  227.1180 C   0  0  0  0  0  0  0  0  0  0  0  0
  140.7410   71.5970  226.0060 C   0  0  0  0  0  0  0  0  0  0  0  0
  140.0070   71.0820  224.9340 C   0  0  0  0  0  0  0  0  0  0  0  0
  139.7040   71.8670  223.8650 N   0  0  0  0  0  0  0  0  0  0  0  0
  138.7330   74.0060  222.5570 H   0  0  0  0  0  0  0  0  0  0  0  0
  137.3610   73.5408  219.9980 H   0  0  0  0  0  0  0  0  0  0  0  0
  137.9587   75.1886  220.6905 H   0  0  0  0  0  0  0  0  0  0  0  0
  141.1436   75.9582  217.7698 H   0  0  0  0  0  0  0  0  0  0  0  0
  140.4150   76.9090  219.0571 H   0  0  0  0  0  0  0  0  0  0  0  0
  142.3610   76.6579  220.4816 H   0  0  0  0  0  0  0  0  0  0  0  0
  143.7090   77.5250  219.3720 H   0  0  0  0  0  0  0  0  0  0  0  0
  143.1899   74.2871  218.7114 H   0  0  0  0  0  0  0  0  0  0  0  0
  143.6460   74.5457  220.3765 H   0  0  0  0  0  0  0  0  0  0  0  0
  141.4938   72.9563  219.8165 H   0  0  0  0  0  0  0  0  0  0  0  0
  140.7066   73.3422  221.9284 H   0  0  0  0  0  0  0  0  0  0  0  0
  142.4095   74.0159  222.0119 H   0  0  0  0  0  0  0  0  0  0  0  0
  142.2041   77.4593  222.5420 H   0  0  0  0  0  0  0  0  0  0  0  0
  141.1628   79.5898  223.1588 H   0  0  0  0  0  0  0  0  0  0  0  0
  137.2934   77.8652  222.8727 H   0  0  0  0  0  0  0  0  0  0  0  0
  138.2640   75.6907  222.2453 H   0  0  0  0  0  0  0  0  0  0  0  0
  137.9669   69.6137  222.0516 H   0  0  0  0  0  0  0  0  0  0  0  0
  138.5443   68.2079  224.0236 H   0  0  0  0  0  0  0  0  0  0  0  0
  139.5443   67.8966  226.1077 H   0  0  0  0  0  0  0  0  0  0  0  0
  141.6325   71.2214  227.9580 H   0  0  0  0  0  0  0  0  0  0  0  0
  141.0786   72.6435  225.9749 H   0  0  0  0  0  0  0  0  0  0  0  0
  1  2  2  0
  2  3  1  0
  3  4  1  0
  4  5  1  0
  5  6  2  0
  5  7  1  0
  7  8  1  0
  8  9  1  0
  9 10  1  0
  9 11  1  0
 11 12  1  0
 12 13  1  0
 13 14  1  0
 14 15  1  0
 15 16  2  0
 16 17  1  0
 17 18  2  0
 18 19  1  0
 18 20  1  0
 20 21  2  0
  2 22  1  0
 22 23  2  0
 23 24  1  0
 24 25  2  0
 25 26  1  0
 26 27  2  0
 27 28  1  0
 27 29  1  0
 29 30  2  0
 30 31  1  0
 31 32  2  0
 12  7  1  0
 21 15  1  0
 32 22  1  0
 31 25  1  0
  3 33  1  0
  4 34  1  0
  4 35  1  0
  8 36  1  0
  8 37  1  0
  9 38  1  1
 10 39  1  0
 11 40  1  0
 11 41  1  0
 12 42  1  6
 13 43  1  0
 13 44  1  0
 16 45  1  0
 17 46  1  0
 20 47  1  0
 21 48  1  0
 23 49  1  0
 24 50  1  0
 26 51  1  0
 29 52  1  0
 30 53  1  0
M  END
>  <smiles>  (4) 
O=C(NCC(=O)N1C[C@H](O)C[C@H]1COc1ccc(Cl)cc1)c1ccc2cc(Cl)ccc2n1

>  <score_type>  (4) 
oracle

>  <origin>  (4) 
autodockgpu

>  <m_score__min__energy>  (4) 
-8.4800000000000004

>  <m_primary>  (4) 
energy

>  <rmsd>  (4) 
2.17011736061367

>  <m_score__min__rmsd>  (4) 
2.17011736061367

>  <meeko>  (4) 
{"free_energy": -7.59, "intermolecular_energy": -9.97, "internal_energy": -2.39, "cluster_size": 22, "cluster_id": 1, "rank_in_cluster": 4}

>  <energy>  (4) 
-7.59

>  <cluster_rmsd>  (4) 
1.73

>  <cluster>  (4) 
1

$$$$

     RDKit          3D

 53 56  0  0  0  0  0  0  0  0999 V2000
  137.8910   73.5020  221.6480 O   0  0  0  0  0  0  0  0  0  0  0  0
  138.6050   72.4390  221.6140 C   0  0  0  0  0  0  0  0  0  0  0  0
  139.1130   72.1100  220.3000 N   0  0  0  0  0  0  0  0  0  0  0  0
  138.7680   72.9940  219.2510 C   0  0  0  0  0  0  0  0  0  0  0  0
  139.2770   74.3520  219.2310 C   0  0  0  0  0  0  0  0  0  0  0  0
  138.3530   75.2600  219.0520 O   0  0  0  0  0  0  0  0  0  0  0  0
  140.6060   74.8270  219.3770 N   0  0  0  0  0  0  0  0  0  0  0  0
  141.2320   76.0460  218.9440 C   0  0  0  0  0  0  0  0  0  0  0  0
  142.5530   76.0610  219.6710 C   0  0  2  0  0  0  0  0  0  0  0  0
  143.5210   76.8160  218.9980 O   0  0  0  0  0  0  0  0  0  0  0  0
  142.9260   74.6090  219.7490 C   0  0  0  0  0  0  0  0  0  0  0  0
  141.6090   73.9570  220.0590 C   0  0  1  0  0  0  0  0  0  0  0  0
  141.3930   73.9760  221.5650 C   0  0  0  0  0  0  0  0  0  0  0  0
  140.9530   75.1220  222.0340 O   0  0  0  0  0  0  0  0  0  0  0  0
  140.4140   76.2470  222.3210 C   0  0  0  0  0  0  0  0  0  0  0  0
  138.9870   76.3110  222.3660 C   0  0  0  0  0  0  0  0  0  0  0  0
  138.3290   77.4670  222.6650 C   0  0  0  0  0  0  0  0  0  0  0  0
  139.0290   78.5900  222.9270 C   0  0  0  0  0  0  0  0  0  0  0  0
  138.1650   80.0530  223.3130 Cl  0  0  0  0  0  0  0  0  0  0  0  0
  140.3770   78.6090  222.9030 C   0  0  0  0  0  0  0  0  0  0  0  0
  141.0720   77.4600  222.6050 C   0  0  0  0  0  0  0  0  0  0  0  0
  138.8740   71.6430  222.7920 C   0  0  0  0  0  0  0  0  0  0  0  0
  138.1550   70.4510  222.9070 C   0  0  0  0  0  0  0  0  0  0  0  0
  138.3890   69.6380  224.0070 C   0  0  0  0  0  0  0  0  0  0  0  0
  139.3090   69.9880  224.9730 C   0  0  0  0  0  0  0  0  0  0  0  0
  139.4780   69.1370  226.0300 C   0  0  0  0  0  0  0  0  0  0  0  0
  140.4080   69.5260  226.9950 C   0  0  0  0  0  0  0  0  0  0  0  0
  140.6950   68.5170  228.3830 Cl  0  0  0  0  0  0  0  0  0  0  0  0
  141.1240   70.7030  226.8960 C   0  0  0  0  0  0  0  0  0  0  0  0
  140.9010   71.5240  225.7860 C   0  0  0  0  0  0  0  0  0  0  0  0
  139.9800   71.1740  224.7960 C   0  0  0  0  0  0  0  0  0  0  0  0
  139.7710   71.9890  223.7280 N   0  0  0  0  0  0  0  0  0  0  0  0
  139.6900   71.2530  220.2750 H   0  0  0  0  0  0  0  0  0  0  0  0
  139.1024   72.5191  218.3168 H   0  0  0  0  0  0  0  0  0  0  0  0
  137.6874   73.1387  219.3970 H   0  0  0  0  0  0  0  0  0  0  0  0
  141.3860   76.0401  217.8548 H   0  0  0  0  0  0  0  0  0  0  0  0
  140.6208   76.9343  219.1617 H   0  0  0  0  0  0  0  0  0  0  0  0
  142.4836   76.5366  220.6604 H   0  0  0  0  0  0  0  0  0  0  0  0
  143.7990   77.5270  219.6280 H   0  0  0  0  0  0  0  0  0  0  0  0
  143.3328   74.2502  218.7920 H   0  0  0  0  0  0  0  0  0  0  0  0
  143.7094   74.3945  220.4908 H   0  0  0  0  0  0  0  0  0  0  0  0
  141.5449   72.9102  219.7270 H   0  0  0  0  0  0  0  0  0  0  0  0
  140.6596   73.1960  221.8177 H   0  0  0  0  0  0  0  0  0  0  0  0
  142.3766   73.8037  222.0264 H   0  0  0  0  0  0  0  0  0  0  0  0
  138.4037   75.4029  222.1536 H   0  0  0  0  0  0  0  0  0  0  0  0
  137.2295   77.4840  222.6925 H   0  0  0  0  0  0  0  0  0  0  0  0
  140.9194   79.5408  223.1211 H   0  0  0  0  0  0  0  0  0  0  0  0
  142.1715   77.4890  222.5879 H   0  0  0  0  0  0  0  0  0  0  0  0
  137.4190   70.1629  222.1419 H   0  0  0  0  0  0  0  0  0  0  0  0
  137.8300   68.6963  224.1105 H   0  0  0  0  0  0  0  0  0  0  0  0
  138.9120   68.1976  226.1149 H   0  0  0  0  0  0  0  0  0  0  0  0
  141.8513   70.9874  227.6707 H   0  0  0  0  0  0  0  0  0  0  0  0
  141.4626   72.4650  225.6906 H   0  0  0  0  0  0  0  0  0  0  0  0
  1  2  2  0
  2  3  1  0
  3  4  1  0
  4  5  1  0
  5  6  2  0
  5  7  1  0
  7  8  1  0
  8  9  1  0
  9 10  1  0
  9 11  1  0
 11 12  1  0
 12 13  1  0
 13 14  1  0
 14 15  1  0
 15 16  2  0
 16 17  1  0
 17 18  2  0
 18 19  1  0
 18 20  1  0
 20 21  2  0
  2 22  1  0
 22 23  2  0
 23 24  1  0
 24 25  2  0
 25 26  1  0
 26 27  2  0
 27 28  1  0
 27 29  1  0
 29 30  2  0
 30 31  1  0
 31 32  2  0
 12  7  1  0
 21 15  1  0
 32 22  1  0
 31 25  1  0
  3 33  1  0
  4 34  1  0
  4 35  1  0
  8 36  1  0
  8 37  1  0
  9 38  1  1
 10 39  1  0
 11 40  1  0
 11 41  1  0
 12 42  1  6
 13 43  1  0
 13 44  1  0
 16 45  1  0
 17 46  1  0
 20 47  1  0
 21 48  1  0
 23 49  1  0
 24 50  1  0
 26 51  1  0
 29 52  1  0
 30 53  1  0
M  END
>  <smiles>  (5) 
O=C(NCC(=O)N1C[C@H](O)C[C@H]1COc1ccc(Cl)cc1)c1ccc2cc(Cl)ccc2n1

>  <score_type>  (5) 
oracle

>  <origin>  (5) 
autodockgpu

>  <m_score__min__energy>  (5) 
-8.4800000000000004

>  <m_primary>  (5) 
energy

>  <rmsd>  (5) 
2.467792806574173

>  <m_score__min__rmsd>  (5) 
2.467792806574173

>  <meeko>  (5) 
{"free_energy": -7.04, "intermolecular_energy": -9.43, "internal_energy": -2.29, "cluster_size": 22, "cluster_id": 1, "rank_in_cluster": 21}

>  <energy>  (5) 
-7.52

>  <cluster_rmsd>  (5) 
1.76

>  <cluster>  (5) 
1

$$$$

     RDKit          3D

 53 56  0  0  0  0  0  0  0  0999 V2000
  142.4880   77.0870  217.4410 O   0  0  0  0  0  0  0  0  0  0  0  0
  142.6250   77.6050  218.6050 C   0  0  0  0  0  0  0  0  0  0  0  0
  143.2930   76.7470  219.5580 N   0  0  0  0  0  0  0  0  0  0  0  0
  143.7080   75.4800  219.0840 C   0  0  0  0  0  0  0  0  0  0  0  0
  142.7960   74.3520  219.0980 C   0  0  0  0  0  0  0  0  0  0  0  0
  143.1070   73.4120  218.2430 O   0  0  0  0  0  0  0  0  0  0  0  0
  141.6410   74.1260  219.8890 N   0  0  0  0  0  0  0  0  0  0  0  0
  141.4760   73.9750  221.3080 C   0  0  0  0  0  0  0  0  0  0  0  0
  139.9850   74.0660  221.5190 C   0  0  2  0  0  0  0  0  0  0  0  0
  139.5720   73.4040  222.6810 O   0  0  0  0  0  0  0  0  0  0  0  0
  139.4180   73.4350  220.2800 C   0  0  0  0  0  0  0  0  0  0  0  0
  140.3220   73.9710  219.2070 C   0  0  1  0  0  0  0  0  0  0  0  0
  139.7970   75.3250  218.7510 C   0  0  0  0  0  0  0  0  0  0  0  0
  139.9030   76.2760  219.6500 O   0  0  0  0  0  0  0  0  0  0  0  0
  139.8460   77.1160  220.6150 C   0  0  0  0  0  0  0  0  0  0  0  0
  138.8090   78.0990  220.5830 C   0  0  0  0  0  0  0  0  0  0  0  0
  138.6720   79.0310  221.5700 C   0  0  0  0  0  0  0  0  0  0  0  0
  139.5300   79.0380  222.6110 C   0  0  0  0  0  0  0  0  0  0  0  0
  139.3300   80.2350  223.8610 Cl  0  0  0  0  0  0  0  0  0  0  0  0
  140.5330   78.1430  222.7100 C   0  0  0  0  0  0  0  0  0  0  0  0
  140.7000   77.1900  221.7330 C   0  0  0  0  0  0  0  0  0  0  0  0
  142.1470   78.9320  218.9280 C   0  0  0  0  0  0  0  0  0  0  0  0
  141.5990   79.6630  217.8720 C   0  0  0  0  0  0  0  0  0  0  0  0
  141.1050   80.9340  218.1300 C   0  0  0  0  0  0  0  0  0  0  0  0
  141.1500   81.4770  219.3980 C   0  0  0  0  0  0  0  0  0  0  0  0
  140.6500   82.7370  219.5700 C   0  0  0  0  0  0  0  0  0  0  0  0
  140.7210   83.2590  220.8620 C   0  0  0  0  0  0  0  0  0  0  0  0
  140.1160   84.8580  221.1880 Cl  0  0  0  0  0  0  0  0  0  0  0  0
  141.2630   82.5490  221.9160 C   0  0  0  0  0  0  0  0  0  0  0  0
  141.7540   81.2640  221.6660 C   0  0  0  0  0  0  0  0  0  0  0  0
  141.7030   80.7010  220.3890 C   0  0  0  0  0  0  0  0  0  0  0  0
  142.1940   79.4530  220.1640 N   0  0  0  0  0  0  0  0  0  0  0  0
  143.4040   77.1670  220.4960 H   0  0  0  0  0  0  0  0  0  0  0  0
  144.0179   75.6213  218.0381 H   0  0  0  0  0  0  0  0  0  0  0  0
  144.4773   75.1841  219.8124 H   0  0  0  0  0  0  0  0  0  0  0  0
  141.8587   72.9999  221.6437 H   0  0  0  0  0  0  0  0  0  0  0  0
  142.0295   74.7344  221.8797 H   0  0  0  0  0  0  0  0  0  0  0  0
  139.6424   75.1010  221.6653 H   0  0  0  0  0  0  0  0  0  0  0  0
  138.8170   73.9330  223.0420 H   0  0  0  0  0  0  0  0  0  0  0  0
  139.4690   72.3374  220.3326 H   0  0  0  0  0  0  0  0  0  0  0  0
  138.3547   73.6638  220.1157 H   0  0  0  0  0  0  0  0  0  0  0  0
  140.3864   73.3234  218.3202 H   0  0  0  0  0  0  0  0  0  0  0  0
  140.3618   75.6306  217.8579 H   0  0  0  0  0  0  0  0  0  0  0  0
  138.7225   75.1962  218.5538 H   0  0  0  0  0  0  0  0  0  0  0  0
  138.1024   78.1043  219.7400 H   0  0  0  0  0  0  0  0  0  0  0  0
  137.8636   79.7751  221.5170 H   0  0  0  0  0  0  0  0  0  0  0  0
  141.2168   78.1749  223.5710 H   0  0  0  0  0  0  0  0  0  0  0  0
  141.5226   76.4658  221.8269 H   0  0  0  0  0  0  0  0  0  0  0  0
  141.5597   79.2404  216.8572 H   0  0  0  0  0  0  0  0  0  0  0  0
  140.6690   81.5202  217.3076 H   0  0  0  0  0  0  0  0  0  0  0  0
  140.2156   83.3081  218.7362 H   0  0  0  0  0  0  0  0  0  0  0  0
  141.3071   82.9834  222.9256 H   0  0  0  0  0  0  0  0  0  0  0  0
  142.1898   80.6840  222.4929 H   0  0  0  0  0  0  0  0  0  0  0  0
  1  2  2  0
  2  3  1  0
  3  4  1  0
  4  5  1  0
  5  6  2  0
  5  7  1  0
  7  8  1  0
  8  9  1  0
  9 10  1  0
  9 11  1  0
 11 12  1  0
 12 13  1  0
 13 14  1  0
 14 15  1  0
 15 16  2  0
 16 17  1  0
 17 18  2  0
 18 19  1  0
 18 20  1  0
 20 21  2  0
  2 22  1  0
 22 23  2  0
 23 24  1  0
 24 25  2  0
 25 26  1  0
 26 27  2  0
 27 28  1  0
 27 29  1  0
 29 30  2  0
 30 31  1  0
 31 32  2  0
 12  7  1  0
 21 15  1  0
 32 22  1  0
 31 25  1  0
  3 33  1  0
  4 34  1  0
  4 35  1  0
  8 36  1  0
  8 37  1  0
  9 38  1  1
 10 39  1  0
 11 40  1  0
 11 41  1  0
 12 42  1  6
 13 43  1  0
 13 44  1  0
 16 45  1  0
 17 46  1  0
 20 47  1  0
 21 48  1  0
 23 49  1  0
 24 50  1  0
 26 51  1  0
 29 52  1  0
 30 53  1  0
M  END
>  <smiles>  (6) 
O=C(NCC(=O)N1C[C@H](O)C[C@H]1COc1ccc(Cl)cc1)c1ccc2cc(Cl)ccc2n1

>  <score_type>  (6) 
oracle

>  <origin>  (6) 
autodockgpu

>  <m_score__min__energy>  (6) 
-8.4800000000000004

>  <m_primary>  (6) 
energy

>  <rmsd>  (6) 
9.483083709697102

>  <m_score__min__rmsd>  (6) 
9.483083709697102

>  <meeko>  (6) 
{"free_energy": -5.39, "intermolecular_energy": -7.77, "internal_energy": -3.57, "cluster_size": 2, "cluster_id": 14, "rank_in_cluster": 1}

>  <energy>  (6) 
-7.52

>  <cluster_rmsd>  (6) 
1.6

>  <cluster>  (6) 
1

$$$$

     RDKit          3D

 53 56  0  0  0  0  0  0  0  0999 V2000
  138.2690   71.3320  220.6070 O   0  0  0  0  0  0  0  0  0  0  0  0
  138.5620   71.9270  221.7030 C   0  0  0  0  0  0  0  0  0  0  0  0
  138.5070   73.3700  221.6250 N   0  0  0  0  0  0  0  0  0  0  0  0
  138.1350   73.9210  220.3760 C   0  0  0  0  0  0  0  0  0  0  0  0
  139.1430   74.2730  219.3940 C   0  0  0  0  0  0  0  0  0  0  0  0
  138.7210   74.2100  218.1580 O   0  0  0  0  0  0  0  0  0  0  0  0
  140.4930   74.6690  219.5790 N   0  0  0  0  0  0  0  0  0  0  0  0
  141.2320   75.7920  219.0710 C   0  0  0  0  0  0  0  0  0  0  0  0
  142.5060   75.7910  219.8780 C   0  0  2  0  0  0  0  0  0  0  0  0
  143.5640   76.4060  219.1990 O   0  0  0  0  0  0  0  0  0  0  0  0
  142.7650   74.3330  220.1210 C   0  0  0  0  0  0  0  0  0  0  0  0
  141.3870   73.8070  220.4060 C   0  0  1  0  0  0  0  0  0  0  0  0
  141.0860   73.9940  221.8860 C   0  0  0  0  0  0  0  0  0  0  0  0
  140.4810   75.1230  222.1760 O   0  0  0  0  0  0  0  0  0  0  0  0
  140.0780   76.3060  222.4590 C   0  0  0  0  0  0  0  0  0  0  0  0
  141.0680   77.3010  222.7280 C   0  0  0  0  0  0  0  0  0  0  0  0
  140.7280   78.5860  223.0350 C   0  0  0  0  0  0  0  0  0  0  0  0
  139.4280   78.9430  223.0900 C   0  0  0  0  0  0  0  0  0  0  0  0
  139.0210   80.5910  223.4780 Cl  0  0  0  0  0  0  0  0  0  0  0  0
  138.4380   78.0600  222.8480 C   0  0  0  0  0  0  0  0  0  0  0  0
  138.7450   76.7560  222.5360 C   0  0  0  0  0  0  0  0  0  0  0  0
  138.9160   71.2090  222.9090 C   0  0  0  0  0  0  0  0  0  0  0  0
  138.4610   69.8920  222.9960 C   0  0  0  0  0  0  0  0  0  0  0  0
  138.7910   69.1490  224.1220 C   0  0  0  0  0  0  0  0  0  0  0  0
  139.5490   69.6890  225.1390 C   0  0  0  0  0  0  0  0  0  0  0  0
  139.8260   68.8960  226.2180 C   0  0  0  0  0  0  0  0  0  0  0  0
  140.5870   69.4770  227.2330 C   0  0  0  0  0  0  0  0  0  0  0  0
  140.9910   68.5550  228.6530 Cl  0  0  0  0  0  0  0  0  0  0  0  0
  141.0410   70.7800  227.1620 C   0  0  0  0  0  0  0  0  0  0  0  0
  140.7210   71.5320  226.0270 C   0  0  0  0  0  0  0  0  0  0  0  0
  139.9630   70.9910  224.9860 C   0  0  0  0  0  0  0  0  0  0  0  0
  139.6550   71.7410  223.8940 N   0  0  0  0  0  0  0  0  0  0  0  0
  138.7420   73.8480  222.5110 H   0  0  0  0  0  0  0  0  0  0  0  0
  137.4694   73.1891  219.8951 H   0  0  0  0  0  0  0  0  0  0  0  0
  137.7111   74.8972  220.6542 H   0  0  0  0  0  0  0  0  0  0  0  0
  141.4483   75.6646  218.0000 H   0  0  0  0  0  0  0  0  0  0  0  0
  140.6769   76.7374  219.1605 H   0  0  0  0  0  0  0  0  0  0  0  0
  142.4150   76.3681  220.8100 H   0  0  0  0  0  0  0  0  0  0  0  0
  143.8370   77.1750  219.7600 H   0  0  0  0  0  0  0  0  0  0  0  0
  143.1993   73.8519  219.2322 H   0  0  0  0  0  0  0  0  0  0  0  0
  143.4856   74.1422  220.9299 H   0  0  0  0  0  0  0  0  0  0  0  0
  141.2647   72.7388  220.1737 H   0  0  0  0  0  0  0  0  0  0  0  0
  140.4428   73.1643  222.2143 H   0  0  0  0  0  0  0  0  0  0  0  0
  142.0559   74.0141  222.4046 H   0  0  0  0  0  0  0  0  0  0  0  0
  142.1316   77.0235  222.6864 H   0  0  0  0  0  0  0  0  0  0  0  0
  141.5125   79.3300  223.2374 H   0  0  0  0  0  0  0  0  0  0  0  0
  137.3874   78.3817  222.9000 H   0  0  0  0  0  0  0  0  0  0  0  0
  137.9281   76.0455  222.3414 H   0  0  0  0  0  0  0  0  0  0  0  0
  137.8545   69.4525  222.1904 H   0  0  0  0  0  0  0  0  0  0  0  0
  138.4408   68.1095  224.2039 H   0  0  0  0  0  0  0  0  0  0  0  0
  139.4687   67.8576  226.2822 H   0  0  0  0  0  0  0  0  0  0  0  0
  141.6385   71.2146  227.9769 H   0  0  0  0  0  0  0  0  0  0  0  0
  141.0737   72.5713  225.9526 H   0  0  0  0  0  0  0  0  0  0  0  0
  1  2  2  0
  2  3  1  0
  3  4  1  0
  4  5  1  0
  5  6  2  0
  5  7  1  0
  7  8  1  0
  8  9  1  0
  9 10  1  0
  9 11  1  0
 11 12  1  0
 12 13  1  0
 13 14  1  0
 14 15  1  0
 15 16  2  0
 16 17  1  0
 17 18  2  0
 18 19  1  0
 18 20  1  0
 20 21  2  0
  2 22  1  0
 22 23  2  0
 23 24  1  0
 24 25  2  0
 25 26  1  0
 26 27  2  0
 27 28  1  0
 27 29  1  0
 29 30  2  0
 30 31  1  0
 31 32  2  0
 12  7  1  0
 21 15  1  0
 32 22  1  0
 31 25  1  0
  3 33  1  0
  4 34  1  0
  4 35  1  0
  8 36  1  0
  8 37  1  0
  9 38  1  1
 10 39  1  0
 11 40  1  0
 11 41  1  0
 12 42  1  6
 13 43  1  0
 13 44  1  0
 16 45  1  0
 17 46  1  0
 20 47  1  0
 21 48  1  0
 23 49  1  0
 24 50  1  0
 26 51  1  0
 29 52  1  0
 30 53  1  0
M  END
>  <smiles>  (7) 
O=C(NCC(=O)N1C[C@H](O)C[C@H]1COc1ccc(Cl)cc1)c1ccc2cc(Cl)ccc2n1

>  <score_type>  (7) 
oracle

>  <origin>  (7) 
autodockgpu

>  <m_score__min__energy>  (7) 
-8.4800000000000004

>  <m_primary>  (7) 
energy

>  <rmsd>  (7) 
2.2730077225470477

>  <m_score__min__rmsd>  (7) 
2.2730077225470477

>  <meeko>  (7) 
{"free_energy": -7.59, "intermolecular_energy": -9.98, "internal_energy": -2.57, "cluster_size": 22, "cluster_id": 1, "rank_in_cluster": 2}

>  <energy>  (7) 
-7.52

>  <cluster_rmsd>  (7) 
1.94

>  <cluster>  (7) 
1

$$$$

     RDKit          3D

 53 56  0  0  0  0  0  0  0  0999 V2000
  140.1770   72.3530  220.6660 O   0  0  0  0  0  0  0  0  0  0  0  0
  139.7900   72.7240  221.8300 C   0  0  0  0  0  0  0  0  0  0  0  0
  139.2570   74.0670  221.8750 N   0  0  0  0  0  0  0  0  0  0  0  0
  139.2250   74.7750  220.6510 C   0  0  0  0  0  0  0  0  0  0  0  0
  139.2010   76.2250  220.6360 C   0  0  0  0  0  0  0  0  0  0  0  0
  138.3170   76.7300  219.8150 O   0  0  0  0  0  0  0  0  0  0  0  0
  139.9820   77.1550  221.3700 N   0  0  0  0  0  0  0  0  0  0  0  0
  140.4710   77.1270  222.7210 C   0  0  0  0  0  0  0  0  0  0  0  0
  141.4720   78.2550  222.7740 C   0  0  2  0  0  0  0  0  0  0  0  0
  141.6360   78.7570  224.0700 O   0  0  0  0  0  0  0  0  0  0  0  0
  140.8920   79.2800  221.8430 C   0  0  0  0  0  0  0  0  0  0  0  0
  140.3830   78.4330  220.7120 C   0  0  1  0  0  0  0  0  0  0  0  0
  141.5190   78.1910  219.7290 C   0  0  0  0  0  0  0  0  0  0  0  0
  141.9760   76.9590  219.7230 O   0  0  0  0  0  0  0  0  0  0  0  0
  142.5860   75.8370  219.8070 C   0  0  0  0  0  0  0  0  0  0  0  0
  143.4660   75.4740  218.7400 C   0  0  0  0  0  0  0  0  0  0  0  0
  144.1570   74.2990  218.7480 C   0  0  0  0  0  0  0  0  0  0  0  0
  144.0180   73.4440  219.7830 C   0  0  0  0  0  0  0  0  0  0  0  0
  144.9170   71.9520  219.7720 Cl  0  0  0  0  0  0  0  0  0  0  0  0
  143.2070   73.7160  220.8240 C   0  0  0  0  0  0  0  0  0  0  0  0
  142.4940   74.8930  220.8480 C   0  0  0  0  0  0  0  0  0  0  0  0
  139.8830   71.8660  222.9920 C   0  0  0  0  0  0  0  0  0  0  0  0
  139.3940   70.5670  222.8390 C   0  0  0  0  0  0  0  0  0  0  0  0
  139.4790   69.6950  223.9150 C   0  0  0  0  0  0  0  0  0  0  0  0
  140.0310   70.0900  225.1160 C   0  0  0  0  0  0  0  0  0  0  0  0
  140.0720   69.1750  226.1310 C   0  0  0  0  0  0  0  0  0  0  0  0
  140.6270   69.6100  227.3340 C   0  0  0  0  0  0  0  0  0  0  0  0
  140.7230   68.5240  228.6910 Cl  0  0  0  0  0  0  0  0  0  0  0  0
  141.1120   70.8930  227.5010 C   0  0  0  0  0  0  0  0  0  0  0  0
  141.0400   71.7750  226.4190 C   0  0  0  0  0  0  0  0  0  0  0  0
  140.4920   71.3820  225.1950 C   0  0  0  0  0  0  0  0  0  0  0  0
  140.4220   72.2570  224.1560 N   0  0  0  0  0  0  0  0  0  0  0  0
  138.9440   74.3640  222.8150 H   0  0  0  0  0  0  0  0  0  0  0  0
  140.1190   74.4695  220.0876 H   0  0  0  0  0  0  0  0  0  0  0  0
  138.2406   74.5087  220.2388 H   0  0  0  0  0  0  0  0  0  0  0  0
  139.6526   77.2973  223.4360 H   0  0  0  0  0  0  0  0  0  0  0  0
  140.9141   76.1566  222.9894 H   0  0  0  0  0  0  0  0  0  0  0  0
  142.4830   77.9363  222.4804 H   0  0  0  0  0  0  0  0  0  0  0  0
  140.8150   79.2720  224.2700 H   0  0  0  0  0  0  0  0  0  0  0  0
  140.0739   79.8368  222.3233 H   0  0  0  0  0  0  0  0  0  0  0  0
  141.6140   80.0478  221.5281 H   0  0  0  0  0  0  0  0  0  0  0  0
  139.5528   78.8919  220.1550 H   0  0  0  0  0  0  0  0  0  0  0  0
  141.1563   78.4288  218.7181 H   0  0  0  0  0  0  0  0  0  0  0  0
  142.3527   78.8345  220.0466 H   0  0  0  0  0  0  0  0  0  0  0  0
  143.5886   76.1613  217.8900 H   0  0  0  0  0  0  0  0  0  0  0  0
  144.8268   74.0481  217.9123 H   0  0  0  0  0  0  0  0  0  0  0  0
  143.1149   72.9989  221.6530 H   0  0  0  0  0  0  0  0  0  0  0  0
  141.8346   75.1020  221.7033 H   0  0  0  0  0  0  0  0  0  0  0  0
  138.9510   70.2420  221.8861 H   0  0  0  0  0  0  0  0  0  0  0  0
  139.0987   68.6684  223.8082 H   0  0  0  0  0  0  0  0  0  0  0  0
  139.6882   68.1518  226.0055 H   0  0  0  0  0  0  0  0  0  0  0  0
  141.5438   71.2122  228.4610 H   0  0  0  0  0  0  0  0  0  0  0  0
  141.4227   72.7999  226.5334 H   0  0  0  0  0  0  0  0  0  0  0  0
  1  2  2  0
  2  3  1  0
  3  4  1  0
  4  5  1  0
  5  6  2  0
  5  7  1  0
  7  8  1  0
  8  9  1  0
  9 10  1  0
  9 11  1  0
 11 12  1  0
 12 13  1  0
 13 14  1  0
 14 15  1  0
 15 16  2  0
 16 17  1  0
 17 18  2  0
 18 19  1  0
 18 20  1  0
 20 21  2  0
  2 22  1  0
 22 23  2  0
 23 24  1  0
 24 25  2  0
 25 26  1  0
 26 27  2  0
 27 28  1  0
 27 29  1  0
 29 30  2  0
 30 31  1  0
 31 32  2  0
 12  7  1  0
 21 15  1  0
 32 22  1  0
 31 25  1  0
  3 33  1  0
  4 34  1  0
  4 35  1  0
  8 36  1  0
  8 37  1  0
  9 38  1  6
 10 39  1  0
 11 40  1  0
 11 41  1  0
 12 42  1  6
 13 43  1  0
 13 44  1  0
 16 45  1  0
 17 46  1  0
 20 47  1  0
 21 48  1  0
 23 49  1  0
 24 50  1  0
 26 51  1  0
 29 52  1  0
 30 53  1  0
M  END
>  <smiles>  (8) 
O=C(NCC(=O)N1C[C@H](O)C[C@H]1COc1ccc(Cl)cc1)c1ccc2cc(Cl)ccc2n1

>  <score_type>  (8) 
oracle

>  <origin>  (8) 
autodockgpu

>  <m_score__min__energy>  (8) 
-8.4800000000000004

>  <m_primary>  (8) 
energy

>  <rmsd>  (8) 
2.877399626580475

>  <m_score__min__rmsd>  (8) 
2.877399626580475

>  <meeko>  (8) 
{"free_energy": -7.39, "intermolecular_energy": -9.78, "internal_energy": -2.14, "cluster_size": 5, "cluster_id": 3, "rank_in_cluster": 3}

>  <energy>  (8) 
-7.51

>  <cluster_rmsd>  (8) 
1.82

>  <cluster>  (8) 
1

$$$$

     RDKit          3D

 53 56  0  0  0  0  0  0  0  0999 V2000
  138.4110   70.7680  221.2750 O   0  0  0  0  0  0  0  0  0  0  0  0
  138.8050   71.5440  222.2160 C   0  0  0  0  0  0  0  0  0  0  0  0
  138.6450   72.9520  221.9270 N   0  0  0  0  0  0  0  0  0  0  0  0
  138.0760   73.2780  220.6730 C   0  0  0  0  0  0  0  0  0  0  0  0
  138.8820   73.8880  219.6330 C   0  0  0  0  0  0  0  0  0  0  0  0
  138.2020   74.2240  218.5670 O   0  0  0  0  0  0  0  0  0  0  0  0
  140.2730   74.1660  219.6060 N   0  0  0  0  0  0  0  0  0  0  0  0
  141.0380   75.1090  218.8380 C   0  0  0  0  0  0  0  0  0  0  0  0
  142.3950   75.1070  219.4960 C   0  0  2  0  0  0  0  0  0  0  0  0
  143.4130   75.4910  218.6160 O   0  0  0  0  0  0  0  0  0  0  0  0
  142.5570   73.6880  219.9590 C   0  0  0  0  0  0  0  0  0  0  0  0
  141.1830   73.3610  220.4720 C   0  0  1  0  0  0  0  0  0  0  0  0
  141.0780   73.8150  221.9200 C   0  0  0  0  0  0  0  0  0  0  0  0
  140.4990   74.9830  222.0800 O   0  0  0  0  0  0  0  0  0  0  0  0
  140.0880   76.1630  222.3630 C   0  0  0  0  0  0  0  0  0  0  0  0
  141.0690   77.1550  222.6700 C   0  0  0  0  0  0  0  0  0  0  0  0
  140.7210   78.4370  222.9800 C   0  0  0  0  0  0  0  0  0  0  0  0
  139.4200   78.7940  223.0020 C   0  0  0  0  0  0  0  0  0  0  0  0
  139.0020   80.4390  223.3940 Cl  0  0  0  0  0  0  0  0  0  0  0  0
  138.4380   77.9130  222.7230 C   0  0  0  0  0  0  0  0  0  0  0  0
  138.7530   76.6120  222.4070 C   0  0  0  0  0  0  0  0  0  0  0  0
  139.3620   71.0450  223.4540 C   0  0  0  0  0  0  0  0  0  0  0  0
  140.2730   71.8820  224.1010 C   0  0  0  0  0  0  0  0  0  0  0  0
  140.8210   71.4630  225.3050 C   0  0  0  0  0  0  0  0  0  0  0  0
  140.4830   70.2470  225.8610 C   0  0  0  0  0  0  0  0  0  0  0  0
  141.0710   69.9010  227.0470 C   0  0  0  0  0  0  0  0  0  0  0  0
  140.7140   68.6610  227.5760 C   0  0  0  0  0  0  0  0  0  0  0  0
  141.4090   68.1240  229.0780 Cl  0  0  0  0  0  0  0  0  0  0  0  0
  139.8160   67.8210  226.9460 C   0  0  0  0  0  0  0  0  0  0  0  0
  139.2520   68.2400  225.7370 C   0  0  0  0  0  0  0  0  0  0  0  0
  139.5800   69.4750  225.1700 C   0  0  0  0  0  0  0  0  0  0  0  0
  139.0270   69.8610  223.9900 N   0  0  0  0  0  0  0  0  0  0  0  0
  138.9620   73.5760  222.6880 H   0  0  0  0  0  0  0  0  0  0  0  0
  137.6787   72.3414  220.2547 H   0  0  0  0  0  0  0  0  0  0  0  0
  137.3589   74.0726  220.9269 H   0  0  0  0  0  0  0  0  0  0  0  0
  141.1128   74.7881  217.7885 H   0  0  0  0  0  0  0  0  0  0  0  0
  140.5796   76.1088  218.8204 H   0  0  0  0  0  0  0  0  0  0  0  0
  142.4650   75.8343  220.3183 H   0  0  0  0  0  0  0  0  0  0  0  0
  144.2640   75.2620  219.0660 H   0  0  0  0  0  0  0  0  0  0  0  0
  142.8394   73.0269  219.1264 H   0  0  0  0  0  0  0  0  0  0  0  0
  143.3506   73.5569  220.7094 H   0  0  0  0  0  0  0  0  0  0  0  0
  140.9436   72.2878  220.4414 H   0  0  0  0  0  0  0  0  0  0  0  0
  140.4972   73.0637  222.4752 H   0  0  0  0  0  0  0  0  0  0  0  0
  142.1077   73.9205  222.2923 H   0  0  0  0  0  0  0  0  0  0  0  0
  142.1334   76.8777  222.6560 H   0  0  0  0  0  0  0  0  0  0  0  0
  141.4997   79.1785  223.2117 H   0  0  0  0  0  0  0  0  0  0  0  0
  137.3863   78.2344  222.7481 H   0  0  0  0  0  0  0  0  0  0  0  0
  137.9418   75.9037  222.1828 H   0  0  0  0  0  0  0  0  0  0  0  0
  140.5505   72.8532  223.6655 H   0  0  0  0  0  0  0  0  0  0  0  0
  141.5390   72.1134  225.8261 H   0  0  0  0  0  0  0  0  0  0  0  0
  141.7861   70.5645  227.5553 H   0  0  0  0  0  0  0  0  0  0  0  0
  139.5514   66.8474  227.3843 H   0  0  0  0  0  0  0  0  0  0  0  0
  138.5352   67.5841  225.2213 H   0  0  0  0  0  0  0  0  0  0  0  0
  1  2  2  0
  2  3  1  0
  3  4  1  0
  4  5  1  0
  5  6  2  0
  5  7  1  0
  7  8  1  0
  8  9  1  0
  9 10  1  0
  9 11  1  0
 11 12  1  0
 12 13  1  0
 13 14  1  0
 14 15  1  0
 15 16  2  0
 16 17  1  0
 17 18  2  0
 18 19  1  0
 18 20  1  0
 20 21  2  0
  2 22  1  0
 22 23  2  0
 23 24  1  0
 24 25  2  0
 25 26  1  0
 26 27  2  0
 27 28  1  0
 27 29  1  0
 29 30  2  0
 30 31  1  0
 31 32  2  0
 12  7  1  0
 21 15  1  0
 32 22  1  0
 31 25  1  0
  3 33  1  0
  4 34  1  0
  4 35  1  0
  8 36  1  0
  8 37  1  0
  9 38  1  1
 10 39  1  0
 11 40  1  0
 11 41  1  0
 12 42  1  1
 13 43  1  0
 13 44  1  0
 16 45  1  0
 17 46  1  0
 20 47  1  0
 21 48  1  0
 23 49  1  0
 24 50  1  0
 26 51  1  0
 29 52  1  0
 30 53  1  0
M  END
>  <smiles>  (9) 
O=C(NCC(=O)N1C[C@H](O)C[C@H]1COc1ccc(Cl)cc1)c1ccc2cc(Cl)ccc2n1

>  <score_type>  (9) 
oracle

>  <origin>  (9) 
autodockgpu

>  <m_score__min__energy>  (9) 
-8.4800000000000004

>  <m_primary>  (9) 
energy

>  <rmsd>  (9) 
3.1241252273041344

>  <m_score__min__rmsd>  (9) 
3.1241252273041344

>  <meeko>  (9) 
{"free_energy": -7.43, "intermolecular_energy": -9.81, "internal_energy": -1.92, "cluster_size": 22, "cluster_id": 1, "rank_in_cluster": 12}

>  <energy>  (9) 
-7.46

>  <cluster_rmsd>  (9) 
1.81

>  <cluster>  (9) 
1

$$$$

     RDKit          3D

 53 56  0  0  0  0  0  0  0  0999 V2000
  138.8710   71.5740  221.2490 O   0  0  0  0  0  0  0  0  0  0  0  0
  138.4080   71.7580  222.4300 C   0  0  0  0  0  0  0  0  0  0  0  0
  137.4070   72.7970  222.5160 N   0  0  0  0  0  0  0  0  0  0  0  0
  137.0710   73.4530  221.3080 C   0  0  0  0  0  0  0  0  0  0  0  0
  137.2990   74.8770  221.1520 C   0  0  0  0  0  0  0  0  0  0  0  0
  136.2500   75.5360  220.7320 O   0  0  0  0  0  0  0  0  0  0  0  0
  138.4720   75.6400  221.3840 N   0  0  0  0  0  0  0  0  0  0  0  0
  139.3520   75.7090  222.5170 C   0  0  0  0  0  0  0  0  0  0  0  0
  140.5510   76.4680  222.0080 C   0  0  2  0  0  0  0  0  0  0  0  0
  141.2410   77.1210  223.0360 O   0  0  0  0  0  0  0  0  0  0  0  0
  139.9600   77.4360  221.0250 C   0  0  0  0  0  0  0  0  0  0  0  0
  138.9270   76.5950  220.3310 C   0  0  1  0  0  0  0  0  0  0  0  0
  139.5920   75.8460  219.1850 C   0  0  0  0  0  0  0  0  0  0  0  0
  140.8010   75.4090  219.4540 O   0  0  0  0  0  0  0  0  0  0  0  0
  141.8900   74.8720  219.8600 C   0  0  0  0  0  0  0  0  0  0  0  0
  143.0950   75.6320  219.7390 C   0  0  0  0  0  0  0  0  0  0  0  0
  144.2990   75.1390  220.1480 C   0  0  0  0  0  0  0  0  0  0  0  0
  144.3720   73.9030  220.6830 C   0  0  0  0  0  0  0  0  0  0  0  0
  145.9210   73.2990  221.2030 Cl  0  0  0  0  0  0  0  0  0  0  0  0
  143.2800   73.1260  220.8290 C   0  0  0  0  0  0  0  0  0  0  0  0
  142.0490   73.5920  220.4270 C   0  0  0  0  0  0  0  0  0  0  0  0
  138.8560   70.9890  223.5710 C   0  0  0  0  0  0  0  0  0  0  0  0
  138.5400   69.6280  223.5570 C   0  0  0  0  0  0  0  0  0  0  0  0
  138.9650   68.8380  224.6170 C   0  0  0  0  0  0  0  0  0  0  0  0
  139.6820   69.3730  225.6670 C   0  0  0  0  0  0  0  0  0  0  0  0
  140.0580   68.5310  226.6760 C   0  0  0  0  0  0  0  0  0  0  0  0
  140.7730   69.1060  227.7270 C   0  0  0  0  0  0  0  0  0  0  0  0
  141.2960   68.1220  229.0650 Cl  0  0  0  0  0  0  0  0  0  0  0  0
  141.0890   70.4500  227.7560 C   0  0  0  0  0  0  0  0  0  0  0  0
  140.6740   71.2520  226.6870 C   0  0  0  0  0  0  0  0  0  0  0  0
  139.9560   70.7180  225.6140 C   0  0  0  0  0  0  0  0  0  0  0  0
  139.5540   71.5150  224.5880 N   0  0  0  0  0  0  0  0  0  0  0  0
  137.0330   72.9440  223.4690 H   0  0  0  0  0  0  0  0  0  0  0  0
  137.6407   72.9540  220.5102 H   0  0  0  0  0  0  0  0  0  0  0  0
  135.9740   73.3754  221.2830 H   0  0  0  0  0  0  0  0  0  0  0  0
  138.8747   76.2465  223.3496 H   0  0  0  0  0  0  0  0  0  0  0  0
  139.6167   74.7148  222.9062 H   0  0  0  0  0  0  0  0  0  0  0  0
  141.3062   75.8084  221.5555 H   0  0  0  0  0  0  0  0  0  0  0  0
  142.1980   77.0890  222.7860 H   0  0  0  0  0  0  0  0  0  0  0  0
  139.4978   78.2924  221.5377 H   0  0  0  0  0  0  0  0  0  0  0  0
  140.7003   77.8779  220.3419 H   0  0  0  0  0  0  0  0  0  0  0  0
  138.0937   77.1764  219.9096 H   0  0  0  0  0  0  0  0  0  0  0  0
  138.9626   74.9814  218.9274 H   0  0  0  0  0  0  0  0  0  0  0  0
  139.6933   76.5630  218.3570 H   0  0  0  0  0  0  0  0  0  0  0  0
  143.0497   76.6415  219.3043 H   0  0  0  0  0  0  0  0  0  0  0  0
  145.2088   75.7481  220.0418 H   0  0  0  0  0  0  0  0  0  0  0  0
  143.3727   72.1218  221.2684 H   0  0  0  0  0  0  0  0  0  0  0  0
  141.1659   72.9481  220.5517 H   0  0  0  0  0  0  0  0  0  0  0  0
  137.9674   69.1921  222.7250 H   0  0  0  0  0  0  0  0  0  0  0  0
  138.7252   67.7645  224.6194 H   0  0  0  0  0  0  0  0  0  0  0  0
  139.8105   67.4593  226.6602 H   0  0  0  0  0  0  0  0  0  0  0  0
  141.6524   70.8791  228.5977 H   0  0  0  0  0  0  0  0  0  0  0  0
  140.9180   72.3246  226.6916 H   0  0  0  0  0  0  0  0  0  0  0  0
  1  2  2  0
  2  3  1  0
  3  4  1  0
  4  5  1  0
  5  6  2  0
  5  7  1  0
  7  8  1  0
  8  9  1  0
  9 10  1  0
  9 11  1  0
 11 12  1  0
 12 13  1  0
 13 14  1  0
 14 15  1  0
 15 16  2  0
 16 17  1  0
 17 18  2  0
 18 19  1  0
 18 20  1  0
 20 21  2  0
  2 22  1  0
 22 23  2  0
 23 24  1  0
 24 25  2  0
 25 26  1  0
 26 27  2  0
 27 28  1  0
 27 29  1  0
 29 30  2  0
 30 31  1  0
 31 32  2  0
 12  7  1  0
 21 15  1  0
 32 22  1  0
 31 25  1  0
  3 33  1  0
  4 34  1  0
  4 35  1  0
  8 36  1  0
  8 37  1  0
  9 38  1  6
 10 39  1  0
 11 40  1  0
 11 41  1  0
 12 42  1  6
 13 43  1  0
 13 44  1  0
 16 45  1  0
 17 46  1  0
 20 47  1  0
 21 48  1  0
 23 49  1  0
 24 50  1  0
 26 51  1  0
 29 52  1  0
 30 53  1  0
M  END
>  <smiles>  (10) 
O=C(NCC(=O)N1C[C@H](O)C[C@H]1COc1ccc(Cl)cc1)c1ccc2cc(Cl)ccc2n1

>  <score_type>  (10) 
oracle

>  <origin>  (10) 
autodockgpu

>  <m_score__min__energy>  (10) 
-8.4800000000000004

>  <m_primary>  (10) 
energy

>  <rmsd>  (10) 
2.390809964832874

>  <m_score__min__rmsd>  (10) 
2.390809964832874

>  <meeko>  (10) 
{"free_energy": -7.62, "intermolecular_energy": -10.01, "internal_energy": -1.63, "cluster_size": 4, "cluster_id": 4, "rank_in_cluster": 1}

>  <energy>  (10) 
-7.46

>  <cluster_rmsd>  (10) 
1.88

>  <cluster>  (10) 
1

$$$$

     RDKit          3D

 53 56  0  0  0  0  0  0  0  0999 V2000
  139.7090   75.4940  222.7160 O   0  0  0  0  0  0  0  0  0  0  0  0
  140.2870   76.1290  221.7640 C   0  0  0  0  0  0  0  0  0  0  0  0
  140.7500   75.2830  220.6870 N   0  0  0  0  0  0  0  0  0  0  0  0
  140.4990   73.8970  220.8190 C   0  0  0  0  0  0  0  0  0  0  0  0
  141.5870   72.9400  220.7450 C   0  0  0  0  0  0  0  0  0  0  0  0
  141.1970   71.6930  220.8080 O   0  0  0  0  0  0  0  0  0  0  0  0
  142.9830   73.1580  220.6160 N   0  0  0  0  0  0  0  0  0  0  0  0
  144.1040   72.2860  220.8330 C   0  0  0  0  0  0  0  0  0  0  0  0
  145.2710   73.0300  220.2330 C   0  0  2  0  0  0  0  0  0  0  0  0
  146.4900   72.6580  220.8110 O   0  0  0  0  0  0  0  0  0  0  0  0
  144.9400   74.4700  220.4970 C   0  0  0  0  0  0  0  0  0  0  0  0
  143.4640   74.5140  220.2210 C   0  0  1  0  0  0  0  0  0  0  0  0
  143.2480   74.7420  218.7320 C   0  0  0  0  0  0  0  0  0  0  0  0
  142.8440   75.9530  218.4230 O   0  0  0  0  0  0  0  0  0  0  0  0
  142.6140   77.1970  218.2230 C   0  0  0  0  0  0  0  0  0  0  0  0
  142.4430   77.6350  216.8740 C   0  0  0  0  0  0  0  0  0  0  0  0
  142.1930   78.9410  216.5690 C   0  0  0  0  0  0  0  0  0  0  0  0
  142.1030   79.8560  217.5570 C   0  0  0  0  0  0  0  0  0  0  0  0
  141.7770   81.5160  217.1420 Cl  0  0  0  0  0  0  0  0  0  0  0  0
  142.2540   79.5180  218.8530 C   0  0  0  0  0  0  0  0  0  0  0  0
  142.5070   78.2100  219.1960 C   0  0  0  0  0  0  0  0  0  0  0  0
  140.4570   77.5660  221.7770 C   0  0  0  0  0  0  0  0  0  0  0  0
  141.4250   78.0630  222.6510 C   0  0  0  0  0  0  0  0  0  0  0  0
  141.6450   79.4330  222.6880 C   0  0  0  0  0  0  0  0  0  0  0  0
  140.9290   80.2960  221.8850 C   0  0  0  0  0  0  0  0  0  0  0  0
  141.1990   81.6320  221.9840 C   0  0  0  0  0  0  0  0  0  0  0  0
  140.4490   82.4770  221.1650 C   0  0  0  0  0  0  0  0  0  0  0  0
  140.7110   84.1970  221.2170 Cl  0  0  0  0  0  0  0  0  0  0  0  0
  139.4850   82.0000  220.2980 C   0  0  0  0  0  0  0  0  0  0  0  0
  139.2640   80.6190  220.2470 C   0  0  0  0  0  0  0  0  0  0  0  0
  139.9920   79.7360  221.0490 C   0  0  0  0  0  0  0  0  0  0  0  0
  139.7560   78.3980  220.9920 N   0  0  0  0  0  0  0  0  0  0  0  0
  141.2140   75.7970  219.9190 H   0  0  0  0  0  0  0  0  0  0  0  0
  140.0214   73.7555  221.7997 H   0  0  0  0  0  0  0  0  0  0  0  0
  139.9065   73.6669  219.9212 H   0  0  0  0  0  0  0  0  0  0  0  0
  144.2620   72.1134  221.9078 H   0  0  0  0  0  0  0  0  0  0  0  0
  143.9598   71.2931  220.3821 H   0  0  0  0  0  0  0  0  0  0  0  0
  145.4045   72.8127  219.1630 H   0  0  0  0  0  0  0  0  0  0  0  0
  146.2810   71.9240  221.4410 H   0  0  0  0  0  0  0  0  0  0  0  0
  145.1589   74.7446  221.5394 H   0  0  0  0  0  0  0  0  0  0  0  0
  145.5237   75.1754  219.8874 H   0  0  0  0  0  0  0  0  0  0  0  0
  142.9372   75.3154  220.7598 H   0  0  0  0  0  0  0  0  0  0  0  0
  144.1995   74.5535  218.2132 H   0  0  0  0  0  0  0  0  0  0  0  0
  142.4476   74.0544  218.4212 H   0  0  0  0  0  0  0  0  0  0  0  0
  142.5148   76.8994  216.0593 H   0  0  0  0  0  0  0  0  0  0  0  0
  142.0651   79.2475  215.5203 H   0  0  0  0  0  0  0  0  0  0  0  0
  142.1750   80.2871  219.6355 H   0  0  0  0  0  0  0  0  0  0  0  0
  142.6289   77.9484  220.2575 H   0  0  0  0  0  0  0  0  0  0  0  0
  142.0011   77.3837  223.2965 H   0  0  0  0  0  0  0  0  0  0  0  0
  142.4056   79.8385  223.3714 H   0  0  0  0  0  0  0  0  0  0  0  0
  141.9652   82.0199  222.6713 H   0  0  0  0  0  0  0  0  0  0  0  0
  138.9061   82.6878  219.6642 H   0  0  0  0  0  0  0  0  0  0  0  0
  138.5016   80.2204  219.5615 H   0  0  0  0  0  0  0  0  0  0  0  0
  1  2  2  0
  2  3  1  0
  3  4  1  0
  4  5  1  0
  5  6  2  0
  5  7  1  0
  7  8  1  0
  8  9  1  0
  9 10  1  0
  9 11  1  0
 11 12  1  0
 12 13  1  0
 13 14  1  0
 14 15  1  0
 15 16  2  0
 16 17  1  0
 17 18  2  0
 18 19  1  0
 18 20  1  0
 20 21  2  0
  2 22  1  0
 22 23  2  0
 23 24  1  0
 24 25  2  0
 25 26  1  0
 26 27  2  0
 27 28  1  0
 27 29  1  0
 29 30  2  0
 30 31  1  0
 31 32  2  0
 12  7  1  0
 21 15  1  0
 32 22  1  0
 31 25  1  0
  3 33  1  0
  4 34  1  0
  4 35  1  0
  8 36  1  0
  8 37  1  0
  9 38  1  6
 10 39  1  0
 11 40  1  0
 11 41  1  0
 12 42  1  1
 13 43  1  0
 13 44  1  0
 16 45  1  0
 17 46  1  0
 20 47  1  0
 21 48  1  0
 23 49  1  0
 24 50  1  0
 26 51  1  0
 29 52  1  0
 30 53  1  0
M  END
>  <smiles>  (11) 
O=C(NCC(=O)N1C[C@H](O)C[C@H]1COc1ccc(Cl)cc1)c1ccc2cc(Cl)ccc2n1

>  <score_type>  (11) 
oracle

>  <origin>  (11) 
autodockgpu

>  <m_score__min__energy>  (11) 
-8.4800000000000004

>  <m_primary>  (11) 
energy

>  <rmsd>  (11) 
8.520317199537018

>  <m_score__min__rmsd>  (11) 
8.520317199537018

>  <meeko>  (11) 
{"free_energy": -6.03, "intermolecular_energy": -8.42, "internal_energy": -3.12, "cluster_size": 2, "cluster_id": 11, "rank_in_cluster": 2}

>  <energy>  (11) 
-7.43

>  <cluster_rmsd>  (11) 
1.78

>  <cluster>  (11) 
1

$$$$

     RDKit          3D

 53 56  0  0  0  0  0  0  0  0999 V2000
  136.2940   77.7770  222.8590 O   0  0  0  0  0  0  0  0  0  0  0  0
  136.3960   76.5620  223.2540 C   0  0  0  0  0  0  0  0  0  0  0  0
  137.5600   75.8720  222.7450 N   0  0  0  0  0  0  0  0  0  0  0  0
  138.4190   76.6170  221.9040 C   0  0  0  0  0  0  0  0  0  0  0  0
  139.8130   76.8120  222.2570 C   0  0  0  0  0  0  0  0  0  0  0  0
  140.4960   75.7000  222.3400 O   0  0  0  0  0  0  0  0  0  0  0  0
  140.5250   78.0100  222.5190 N   0  0  0  0  0  0  0  0  0  0  0  0
  141.8070   78.4720  222.0620 C   0  0  0  0  0  0  0  0  0  0  0  0
  141.8370   79.9270  222.4570 C   0  0  2  0  0  0  0  0  0  0  0  0
  143.1420   80.4050  222.6230 O   0  0  0  0  0  0  0  0  0  0  0  0
  141.0590   79.9570  223.7410 C   0  0  0  0  0  0  0  0  0  0  0  0
  139.9290   79.0110  223.4520 C   0  0  1  0  0  0  0  0  0  0  0  0
  138.8100   79.7780  222.7630 C   0  0  0  0  0  0  0  0  0  0  0  0
  137.9410   80.3220  223.5850 O   0  0  0  0  0  0  0  0  0  0  0  0
  137.1600   80.7140  224.5210 C   0  0  0  0  0  0  0  0  0  0  0  0
  137.7100   81.5510  225.5410 C   0  0  0  0  0  0  0  0  0  0  0  0
  136.9500   82.0170  226.5740 C   0  0  0  0  0  0  0  0  0  0  0  0
  135.6440   81.6870  226.6490 C   0  0  0  0  0  0  0  0  0  0  0  0
  134.6940   82.3000  227.9750 Cl  0  0  0  0  0  0  0  0  0  0  0  0
  135.0550   80.9020  225.7250 C   0  0  0  0  0  0  0  0  0  0  0  0
  135.7920   80.4150  224.6700 C   0  0  0  0  0  0  0  0  0  0  0  0
  135.4260   75.9450  224.1320 C   0  0  0  0  0  0  0  0  0  0  0  0
  134.4890   76.8020  224.7140 C   0  0  0  0  0  0  0  0  0  0  0  0
  133.5210   76.2590  225.5470 C   0  0  0  0  0  0  0  0  0  0  0  0
  133.4740   74.9050  225.8050 C   0  0  0  0  0  0  0  0  0  0  0  0
  132.4950   74.4480  226.6420 C   0  0  0  0  0  0  0  0  0  0  0  0
  132.4820   73.0750  226.8890 C   0  0  0  0  0  0  0  0  0  0  0  0
  131.2790   72.3910  227.9440 Cl  0  0  0  0  0  0  0  0  0  0  0  0
  133.4050   72.2160  226.3230 C   0  0  0  0  0  0  0  0  0  0  0  0
  134.3780   72.7530  225.4740 C   0  0  0  0  0  0  0  0  0  0  0  0
  134.4270   74.1210  225.1980 C   0  0  0  0  0  0  0  0  0  0  0  0
  135.3860   74.6260  224.3770 N   0  0  0  0  0  0  0  0  0  0  0  0
  137.6420   74.8920  223.0670 H   0  0  0  0  0  0  0  0  0  0  0  0
  138.4097   76.1181  220.9237 H   0  0  0  0  0  0  0  0  0  0  0  0
  138.0046   77.6339  221.9681 H   0  0  0  0  0  0  0  0  0  0  0  0
  142.6198   77.9173  222.5536 H   0  0  0  0  0  0  0  0  0  0  0  0
  141.9472   78.3255  220.9809 H   0  0  0  0  0  0  0  0  0  0  0  0
  141.4088   80.5822  221.6841 H   0  0  0  0  0  0  0  0  0  0  0  0
  143.7330   79.7370  222.1960 H   0  0  0  0  0  0  0  0  0  0  0  0
  141.6692   79.6029  224.5850 H   0  0  0  0  0  0  0  0  0  0  0  0
  140.7269   80.9646  224.0316 H   0  0  0  0  0  0  0  0  0  0  0  0
  139.5060   78.5402  224.3517 H   0  0  0  0  0  0  0  0  0  0  0  0
  139.2621   80.5793  222.1601 H   0  0  0  0  0  0  0  0  0  0  0  0
  138.2548   79.0475  222.1562 H   0  0  0  0  0  0  0  0  0  0  0  0
  138.7738   81.8266  225.4918 H   0  0  0  0  0  0  0  0  0  0  0  0
  137.4011   82.6603  227.3439 H   0  0  0  0  0  0  0  0  0  0  0  0
  133.9877   80.6513  225.8141 H   0  0  0  0  0  0  0  0  0  0  0  0
  135.2995   79.7751  223.9231 H   0  0  0  0  0  0  0  0  0  0  0  0
  134.5178   77.8837  224.5164 H   0  0  0  0  0  0  0  0  0  0  0  0
  132.7760   76.9221  226.0110 H   0  0  0  0  0  0  0  0  0  0  0  0
  131.7574   75.1259  227.0962 H   0  0  0  0  0  0  0  0  0  0  0  0
  133.3751   71.1370  226.5350 H   0  0  0  0  0  0  0  0  0  0  0  0
  135.1201   72.0839  225.0141 H   0  0  0  0  0  0  0  0  0  0  0  0
  1  2  2  0
  2  3  1  0
  3  4  1  0
  4  5  1  0
  5  6  2  0
  5  7  1  0
  7  8  1  0
  8  9  1  0
  9 10  1  0
  9 11  1  0
 11 12  1  0
 12 13  1  0
 13 14  1  0
 14 15  1  0
 15 16  2  0
 16 17  1  0
 17 18  2  0
 18 19  1  0
 18 20  1  0
 20 21  2  0
  2 22  1  0
 22 23  2  0
 23 24  1  0
 24 25  2  0
 25 26  1  0
 26 27  2  0
 27 28  1  0
 27 29  1  0
 29 30  2  0
 30 31  1  0
 31 32  2  0
 12  7  1  0
 21 15  1  0
 32 22  1  0
 31 25  1  0
  3 33  1  0
  4 34  1  0
  4 35  1  0
  8 36  1  0
  8 37  1  0
  9 38  1  6
 10 39  1  0
 11 40  1  0
 11 41  1  0
 12 42  1  1
 13 43  1  0
 13 44  1  0
 16 45  1  0
 17 46  1  0
 20 47  1  0
 21 48  1  0
 23 49  1  0
 24 50  1  0
 26 51  1  0
 29 52  1  0
 30 53  1  0
M  END
>  <smiles>  (12) 
O=C(NCC(=O)N1C[C@H](O)C[C@H]1COc1ccc(Cl)cc1)c1ccc2cc(Cl)ccc2n1

>  <score_type>  (12) 
oracle

>  <origin>  (12) 
autodockgpu

>  <m_score__min__energy>  (12) 
-8.4800000000000004

>  <m_primary>  (12) 
energy

>  <rmsd>  (12) 
6.751674783315868

>  <m_score__min__rmsd>  (12) 
6.751674783315868

>  <meeko>  (12) 
{"free_energy": -7.52, "intermolecular_energy": -9.91, "internal_energy": -1.89, "cluster_size": 1, "cluster_id": 5, "rank_in_cluster": 1}

>  <energy>  (12) 
-7.43

>  <cluster_rmsd>  (12) 
1.73

>  <cluster>  (12) 
1

$$$$

     RDKit          3D

 53 56  0  0  0  0  0  0  0  0999 V2000
  137.8510   73.2330  221.5300 O   0  0  0  0  0  0  0  0  0  0  0  0
  138.6820   72.2570  221.5540 C   0  0  0  0  0  0  0  0  0  0  0  0
  139.3150   71.9900  220.2820 N   0  0  0  0  0  0  0  0  0  0  0  0
  138.9470   72.8300  219.2040 C   0  0  0  0  0  0  0  0  0  0  0  0
  139.4560   74.1860  219.1170 C   0  0  0  0  0  0  0  0  0  0  0  0
  138.5560   75.0650  218.7590 O   0  0  0  0  0  0  0  0  0  0  0  0
  140.7620   74.6840  219.3590 N   0  0  0  0  0  0  0  0  0  0  0  0
  141.3880   75.9250  218.9940 C   0  0  0  0  0  0  0  0  0  0  0  0
  142.6580   75.9500  219.8070 C   0  0  2  0  0  0  0  0  0  0  0  0
  143.6510   76.7400  219.2150 O   0  0  0  0  0  0  0  0  0  0  0  0
  143.0570   74.5050  219.8780 C   0  0  0  0  0  0  0  0  0  0  0  0
  141.7370   73.8200  220.0870 C   0  0  1  0  0  0  0  0  0  0  0  0
  141.4220   73.8000  221.5760 C   0  0  0  0  0  0  0  0  0  0  0  0
  140.9040   74.9170  222.0330 O   0  0  0  0  0  0  0  0  0  0  0  0
  140.3610   76.0490  222.2840 C   0  0  0  0  0  0  0  0  0  0  0  0
  138.9360   76.1000  222.3790 C   0  0  0  0  0  0  0  0  0  0  0  0
  138.2740   77.2620  222.6450 C   0  0  0  0  0  0  0  0  0  0  0  0
  138.9690   78.4040  222.8260 C   0  0  0  0  0  0  0  0  0  0  0  0
  138.1020   79.8750  223.1710 Cl  0  0  0  0  0  0  0  0  0  0  0  0
  140.3150   78.4360  222.7510 C   0  0  0  0  0  0  0  0  0  0  0  0
  141.0140   77.2820  222.4840 C   0  0  0  0  0  0  0  0  0  0  0  0
  138.9560   71.4960  222.7530 C   0  0  0  0  0  0  0  0  0  0  0  0
  138.2880   70.2760  222.8740 C   0  0  0  0  0  0  0  0  0  0  0  0
  138.5300   69.4940  223.9950 C   0  0  0  0  0  0  0  0  0  0  0  0
  139.4080   69.9030  224.9770 C   0  0  0  0  0  0  0  0  0  0  0  0
  139.5880   69.0810  226.0550 C   0  0  0  0  0  0  0  0  0  0  0  0
  140.4740   69.5290  227.0340 C   0  0  0  0  0  0  0  0  0  0  0  0
  140.7710   68.5590  228.4480 Cl  0  0  0  0  0  0  0  0  0  0  0  0
  141.1400   70.7350  226.9300 C   0  0  0  0  0  0  0  0  0  0  0  0
  140.9090   71.5240  225.7980 C   0  0  0  0  0  0  0  0  0  0  0  0
  140.0300   71.1150  224.7930 C   0  0  0  0  0  0  0  0  0  0  0  0
  139.8120   71.9000  223.7040 N   0  0  0  0  0  0  0  0  0  0  0  0
  139.9870   71.2040  220.3030 H   0  0  0  0  0  0  0  0  0  0  0  0
  139.2612   72.3163  218.2834 H   0  0  0  0  0  0  0  0  0  0  0  0
  137.8697   72.9814  219.3665 H   0  0  0  0  0  0  0  0  0  0  0  0
  141.6131   75.9469  217.9175 H   0  0  0  0  0  0  0  0  0  0  0  0
  140.7447   76.7956  219.1894 H   0  0  0  0  0  0  0  0  0  0  0  0
  142.5137   76.4008  220.8000 H   0  0  0  0  0  0  0  0  0  0  0  0
  144.0560   77.2650  219.9500 H   0  0  0  0  0  0  0  0  0  0  0  0
  143.5329   74.1764  218.9423 H   0  0  0  0  0  0  0  0  0  0  0  0
  143.7952   74.2894  220.6645 H   0  0  0  0  0  0  0  0  0  0  0  0
  141.7180   72.7799  219.7295 H   0  0  0  0  0  0  0  0  0  0  0  0
  140.7075   72.9856  221.7663 H   0  0  0  0  0  0  0  0  0  0  0  0
  142.3793   73.6590  222.0991 H   0  0  0  0  0  0  0  0  0  0  0  0
  138.3570   75.1761  222.2335 H   0  0  0  0  0  0  0  0  0  0  0  0
  137.1761   77.2682  222.7118 H   0  0  0  0  0  0  0  0  0  0  0  0
  140.8530   79.3833  222.9031 H   0  0  0  0  0  0  0  0  0  0  0  0
  142.1117   77.3224  222.4250 H   0  0  0  0  0  0  0  0  0  0  0  0
  137.5846   69.9415  222.0972 H   0  0  0  0  0  0  0  0  0  0  0  0
  138.0117   68.5297  224.1023 H   0  0  0  0  0  0  0  0  0  0  0  0
  139.0625   68.1188  226.1448 H   0  0  0  0  0  0  0  0  0  0  0  0
  141.8338   71.0662  227.7167 H   0  0  0  0  0  0  0  0  0  0  0  0
  141.4309   72.4871  225.6975 H   0  0  0  0  0  0  0  0  0  0  0  0
  1  2  2  0
  2  3  1  0
  3  4  1  0
  4  5  1  0
  5  6  2  0
  5  7  1  0
  7  8  1  0
  8  9  1  0
  9 10  1  0
  9 11  1  0
 11 12  1  0
 12 13  1  0
 13 14  1  0
 14 15  1  0
 15 16  2  0
 16 17  1  0
 17 18  2  0
 18 19  1  0
 18 20  1  0
 20 21  2  0
  2 22  1  0
 22 23  2  0
 23 24  1  0
 24 25  2  0
 25 26  1  0
 26 27  2  0
 27 28  1  0
 27 29  1  0
 29 30  2  0
 30 31  1  0
 31 32  2  0
 12  7  1  0
 21 15  1  0
 32 22  1  0
 31 25  1  0
  3 33  1  0
  4 34  1  0
  4 35  1  0
  8 36  1  0
  8 37  1  0
  9 38  1  1
 10 39  1  0
 11 40  1  0
 11 41  1  0
 12 42  1  6
 13 43  1  0
 13 44  1  0
 16 45  1  0
 17 46  1  0
 20 47  1  0
 21 48  1  0
 23 49  1  0
 24 50  1  0
 26 51  1  0
 29 52  1  0
 30 53  1  0
M  END
>  <smiles>  (13) 
O=C(NCC(=O)N1C[C@H](O)C[C@H]1COc1ccc(Cl)cc1)c1ccc2cc(Cl)ccc2n1

>  <score_type>  (13) 
oracle

>  <origin>  (13) 
autodockgpu

>  <m_score__min__energy>  (13) 
-8.4800000000000004

>  <m_primary>  (13) 
energy

>  <rmsd>  (13) 
2.5278814259295452

>  <m_score__min__rmsd>  (13) 
2.5278814259295452

>  <meeko>  (13) 
{"free_energy": -7.1, "intermolecular_energy": -9.49, "internal_energy": -2.29, "cluster_size": 22, "cluster_id": 1, "rank_in_cluster": 20}

>  <energy>  (13) 
-7.4

>  <cluster_rmsd>  (13) 
1.68

>  <cluster>  (13) 
1

$$$$

     RDKit          3D

 53 56  0  0  0  0  0  0  0  0999 V2000
  135.1250   68.5230  224.3360 O   0  0  0  0  0  0  0  0  0  0  0  0
  135.6640   69.6490  224.6290 C   0  0  0  0  0  0  0  0  0  0  0  0
  137.0680   69.7360  224.2960 N   0  0  0  0  0  0  0  0  0  0  0  0
  137.6460   68.5940  223.6940 C   0  0  0  0  0  0  0  0  0  0  0  0
  138.5080   68.7260  222.5350 C   0  0  0  0  0  0  0  0  0  0  0  0
  139.1870   67.6430  222.2550 O   0  0  0  0  0  0  0  0  0  0  0  0
  138.7160   69.8380  221.6790 N   0  0  0  0  0  0  0  0  0  0  0  0
  138.0660   70.2330  220.4600 C   0  0  0  0  0  0  0  0  0  0  0  0
  138.5460   71.6440  220.2260 C   0  0  2  0  0  0  0  0  0  0  0  0
  138.5040   72.0010  218.8730 O   0  0  0  0  0  0  0  0  0  0  0  0
  139.9490   71.6280  220.7600 C   0  0  0  0  0  0  0  0  0  0  0  0
  139.8070   70.8030  222.0070 C   0  0  1  0  0  0  0  0  0  0  0  0
  139.3870   71.7110  223.1530 C   0  0  0  0  0  0  0  0  0  0  0  0
  139.6940   71.2540  224.3460 O   0  0  0  0  0  0  0  0  0  0  0  0
  140.0400   70.6350  225.4120 C   0  0  0  0  0  0  0  0  0  0  0  0
  140.1990   69.2170  225.3380 C   0  0  0  0  0  0  0  0  0  0  0  0
  140.5670   68.4780  226.4250 C   0  0  0  0  0  0  0  0  0  0  0  0
  140.7890   69.0880  227.6080 C   0  0  0  0  0  0  0  0  0  0  0  0
  141.2640   68.1230  228.9790 Cl  0  0  0  0  0  0  0  0  0  0  0  0
  140.6580   70.4220  227.7550 C   0  0  0  0  0  0  0  0  0  0  0  0
  140.2880   71.1960  226.6800 C   0  0  0  0  0  0  0  0  0  0  0  0
  134.9230   70.7310  225.2400 C   0  0  0  0  0  0  0  0  0  0  0  0
  134.0080   70.3680  226.2310 C   0  0  0  0  0  0  0  0  0  0  0  0
  133.2860   71.3680  226.8670 C   0  0  0  0  0  0  0  0  0  0  0  0
  133.4570   72.6960  226.5360 C   0  0  0  0  0  0  0  0  0  0  0  0
  132.7040   73.6220  227.2020 C   0  0  0  0  0  0  0  0  0  0  0  0
  132.8950   74.9540  226.8360 C   0  0  0  0  0  0  0  0  0  0  0  0
  131.9820   76.2120  227.6200 Cl  0  0  0  0  0  0  0  0  0  0  0  0
  133.7930   75.3280  225.8560 C   0  0  0  0  0  0  0  0  0  0  0  0
  134.5330   74.3270  225.2170 C   0  0  0  0  0  0  0  0  0  0  0  0
  134.3740   72.9800  225.5520 C   0  0  0  0  0  0  0  0  0  0  0  0
  135.0960   72.0200  224.9140 N   0  0  0  0  0  0  0  0  0  0  0  0
  137.5000   70.6450  224.5310 H   0  0  0  0  0  0  0  0  0  0  0  0
  138.2408   68.0948  224.4731 H   0  0  0  0  0  0  0  0  0  0  0  0
  136.7728   68.0596  223.2915 H   0  0  0  0  0  0  0  0  0  0  0  0
  138.3633   69.5767  219.6288 H   0  0  0  0  0  0  0  0  0  0  0  0
  136.9700   70.1659  220.5257 H   0  0  0  0  0  0  0  0  0  0  0  0
  137.9101   72.3933  220.7202 H   0  0  0  0  0  0  0  0  0  0  0  0
  138.1340   71.2170  218.3950 H   0  0  0  0  0  0  0  0  0  0  0  0
  140.6413   71.1565  220.0470 H   0  0  0  0  0  0  0  0  0  0  0  0
  140.3634   72.6309  220.9400 H   0  0  0  0  0  0  0  0  0  0  0  0
  140.7347   70.2947  222.3086 H   0  0  0  0  0  0  0  0  0  0  0  0
  139.8809   72.6848  223.0196 H   0  0  0  0  0  0  0  0  0  0  0  0
  138.2898   71.7790  223.1148 H   0  0  0  0  0  0  0  0  0  0  0  0
  140.0201   68.7074  224.3797 H   0  0  0  0  0  0  0  0  0  0  0  0
  140.6823   67.3876  226.3368 H   0  0  0  0  0  0  0  0  0  0  0  0
  140.8466   70.8901  228.7324 H   0  0  0  0  0  0  0  0  0  0  0  0
  140.1829   72.2827  226.8141 H   0  0  0  0  0  0  0  0  0  0  0  0
  133.8628   69.3117  226.5016 H   0  0  0  0  0  0  0  0  0  0  0  0
  132.5632   71.0962  227.6504 H   0  0  0  0  0  0  0  0  0  0  0  0
  131.9865   73.3324  227.9839 H   0  0  0  0  0  0  0  0  0  0  0  0
  133.9233   76.3860  225.5845 H   0  0  0  0  0  0  0  0  0  0  0  0
  135.2545   74.6063  224.4351 H   0  0  0  0  0  0  0  0  0  0  0  0
  1  2  2  0
  2  3  1  0
  3  4  1  0
  4  5  1  0
  5  6  2  0
  5  7  1  0
  7  8  1  0
  8  9  1  0
  9 10  1  0
  9 11  1  0
 11 12  1  0
 12 13  1  0
 13 14  1  0
 14 15  1  0
 15 16  2  0
 16 17  1  0
 17 18  2  0
 18 19  1  0
 18 20  1  0
 20 21  2  0
  2 22  1  0
 22 23  2  0
 23 24  1  0
 24 25  2  0
 25 26  1  0
 26 27  2  0
 27 28  1  0
 27 29  1  0
 29 30  2  0
 30 31  1  0
 31 32  2  0
 12  7  1  0
 21 15  1  0
 32 22  1  0
 31 25  1  0
  3 33  1  0
  4 34  1  0
  4 35  1  0
  8 36  1  0
  8 37  1  0
  9 38  1  1
 10 39  1  0
 11 40  1  0
 11 41  1  0
 12 42  1  1
 13 43  1  0
 13 44  1  0
 16 45  1  0
 17 46  1  0
 20 47  1  0
 21 48  1  0
 23 49  1  0
 24 50  1  0
 26 51  1  0
 29 52  1  0
 30 53  1  0
M  END
>  <smiles>  (14) 
O=C(NCC(=O)N1C[C@H](O)C[C@H]1COc1ccc(Cl)cc1)c1ccc2cc(Cl)ccc2n1

>  <score_type>  (14) 
oracle

>  <origin>  (14) 
autodockgpu

>  <m_score__min__energy>  (14) 
-8.4800000000000004

>  <m_primary>  (14) 
energy

>  <rmsd>  (14) 
6.572304688864232

>  <m_score__min__rmsd>  (14) 
6.572304688864232

>  <meeko>  (14) 
{"free_energy": -6.66, "intermolecular_energy": -9.05, "internal_energy": -2.36, "cluster_size": 1, "cluster_id": 12, "rank_in_cluster": 1}

>  <energy>  (14) 
-7.38

>  <cluster_rmsd>  (14) 
1.66

>  <cluster>  (14) 
1

$$$$

     RDKit          3D

 53 56  0  0  0  0  0  0  0  0999 V2000
  139.8080   72.3680  220.2320 O   0  0  0  0  0  0  0  0  0  0  0  0
  140.1520   72.7870  221.3930 C   0  0  0  0  0  0  0  0  0  0  0  0
  140.6590   74.1410  221.4050 N   0  0  0  0  0  0  0  0  0  0  0  0
  140.6980   74.8120  220.1610 C   0  0  0  0  0  0  0  0  0  0  0  0
  140.5210   76.2500  220.0910 C   0  0  0  0  0  0  0  0  0  0  0  0
  139.8480   76.6490  219.0420 O   0  0  0  0  0  0  0  0  0  0  0  0
  140.9620   77.2650  220.9790 N   0  0  0  0  0  0  0  0  0  0  0  0
  141.8330   78.3900  220.7790 C   0  0  0  0  0  0  0  0  0  0  0  0
  141.6460   79.2270  222.0190 C   0  0  2  0  0  0  0  0  0  0  0  0
  142.7610   80.0270  222.2920 O   0  0  0  0  0  0  0  0  0  0  0  0
  141.4080   78.2080  223.0960 C   0  0  0  0  0  0  0  0  0  0  0  0
  140.5190   77.2150  222.4040 C   0  0  1  0  0  0  0  0  0  0  0  0
  139.0740   77.6760  222.5280 C   0  0  0  0  0  0  0  0  0  0  0  0
  138.1950   76.7000  222.5470 O   0  0  0  0  0  0  0  0  0  0  0  0
  137.3830   75.7340  222.7640 C   0  0  0  0  0  0  0  0  0  0  0  0
  137.5410   74.5440  221.9890 C   0  0  0  0  0  0  0  0  0  0  0  0
  136.7230   73.4650  222.1550 C   0  0  0  0  0  0  0  0  0  0  0  0
  135.7320   73.5080  223.0700 C   0  0  0  0  0  0  0  0  0  0  0  0
  134.7040   72.1150  223.2670 Cl  0  0  0  0  0  0  0  0  0  0  0  0
  135.5200   74.5960  223.8370 C   0  0  0  0  0  0  0  0  0  0  0  0
  136.3270   75.7010  223.6960 C   0  0  0  0  0  0  0  0  0  0  0  0
  140.0390   71.9690  222.5810 C   0  0  0  0  0  0  0  0  0  0  0  0
  139.2600   70.8160  222.4630 C   0  0  0  0  0  0  0  0  0  0  0  0
  139.1370   69.9830  223.5660 C   0  0  0  0  0  0  0  0  0  0  0  0
  139.7630   70.2760  224.7590 C   0  0  0  0  0  0  0  0  0  0  0  0
  139.5870   69.4090  225.8020 C   0  0  0  0  0  0  0  0  0  0  0  0
  140.2250   69.7410  226.9970 C   0  0  0  0  0  0  0  0  0  0  0  0
  140.0620   68.7070  228.3870 Cl  0  0  0  0  0  0  0  0  0  0  0  0
  140.9960   70.8800  227.1300 C   0  0  0  0  0  0  0  0  0  0  0  0
  141.1340   71.7200  226.0200 C   0  0  0  0  0  0  0  0  0  0  0  0
  140.5130   71.4270  224.8040 C   0  0  0  0  0  0  0  0  0  0  0  0
  140.6520   72.2600  223.7380 N   0  0  0  0  0  0  0  0  0  0  0  0
  140.9350   74.4780  222.3440 H   0  0  0  0  0  0  0  0  0  0  0  0
  141.6804   74.5941  219.7168 H   0  0  0  0  0  0  0  0  0  0  0  0
  139.8042   74.4289  219.6468 H   0  0  0  0  0  0  0  0  0  0  0  0
  142.8786   78.0619  220.6837 H   0  0  0  0  0  0  0  0  0  0  0  0
  141.6010   78.9441  219.8575 H   0  0  0  0  0  0  0  0  0  0  0  0
  140.8187   79.9453  221.9215 H   0  0  0  0  0  0  0  0  0  0  0  0
  143.5490   79.5090  221.9910 H   0  0  0  0  0  0  0  0  0  0  0  0
  142.3505   77.7419  223.4191 H   0  0  0  0  0  0  0  0  0  0  0  0
  140.9692   78.6292  224.0125 H   0  0  0  0  0  0  0  0  0  0  0  0
  140.5809   76.1999  222.8233 H   0  0  0  0  0  0  0  0  0  0  0  0
  138.9739   78.2481  223.4622 H   0  0  0  0  0  0  0  0  0  0  0  0
  138.8574   78.2777  221.6330 H   0  0  0  0  0  0  0  0  0  0  0  0
  138.3437   74.4967  221.2384 H   0  0  0  0  0  0  0  0  0  0  0  0
  136.8708   72.5620  221.5445 H   0  0  0  0  0  0  0  0  0  0  0  0
  134.7035   74.6002  224.5741 H   0  0  0  0  0  0  0  0  0  0  0  0
  136.1429   76.5824  224.3278 H   0  0  0  0  0  0  0  0  0  0  0  0
  138.7549   70.5734  221.5164 H   0  0  0  0  0  0  0  0  0  0  0  0
  138.5278   69.0705  223.4869 H   0  0  0  0  0  0  0  0  0  0  0  0
  138.9758   68.4997  225.7038 H   0  0  0  0  0  0  0  0  0  0  0  0
  141.4884   71.1199  228.0839 H   0  0  0  0  0  0  0  0  0  0  0  0
  141.7447   72.6308  226.1068 H   0  0  0  0  0  0  0  0  0  0  0  0
  1  2  2  0
  2  3  1  0
  3  4  1  0
  4  5  1  0
  5  6  2  0
  5  7  1  0
  7  8  1  0
  8  9  1  0
  9 10  1  0
  9 11  1  0
 11 12  1  0
 12 13  1  0
 13 14  1  0
 14 15  1  0
 15 16  2  0
 16 17  1  0
 17 18  2  0
 18 19  1  0
 18 20  1  0
 20 21  2  0
  2 22  1  0
 22 23  2  0
 23 24  1  0
 24 25  2  0
 25 26  1  0
 26 27  2  0
 27 28  1  0
 27 29  1  0
 29 30  2  0
 30 31  1  0
 31 32  2  0
 12  7  1  0
 21 15  1  0
 32 22  1  0
 31 25  1  0
  3 33  1  0
  4 34  1  0
  4 35  1  0
  8 36  1  0
  8 37  1  0
  9 38  1  6
 10 39  1  0
 11 40  1  0
 11 41  1  0
 12 42  1  1
 13 43  1  0
 13 44  1  0
 16 45  1  0
 17 46  1  0
 20 47  1  0
 21 48  1  0
 23 49  1  0
 24 50  1  0
 26 51  1  0
 29 52  1  0
 30 53  1  0
M  END
>  <smiles>  (15) 
O=C(NCC(=O)N1C[C@H](O)C[C@H]1COc1ccc(Cl)cc1)c1ccc2cc(Cl)ccc2n1

>  <score_type>  (15) 
oracle

>  <origin>  (15) 
autodockgpu

>  <m_score__min__energy>  (15) 
-8.4800000000000004

>  <m_primary>  (15) 
energy

>  <rmsd>  (15) 
3.2192453337747526

>  <m_score__min__rmsd>  (15) 
3.2192453337747526

>  <meeko>  (15) 
{"free_energy": -6.93, "intermolecular_energy": -9.32, "internal_energy": -2.36, "cluster_size": 1, "cluster_id": 10, "rank_in_cluster": 1}

>  <energy>  (15) 
-7.38

>  <cluster_rmsd>  (15) 
1.66

>  <cluster>  (15) 
1

$$$$

     RDKit          3D

 53 56  0  0  0  0  0  0  0  0999 V2000
  138.0910   71.5460  220.7140 O   0  0  0  0  0  0  0  0  0  0  0  0
  138.5160   72.1030  221.7870 C   0  0  0  0  0  0  0  0  0  0  0  0
  138.6000   73.5450  221.7110 N   0  0  0  0  0  0  0  0  0  0  0  0
  138.2020   74.1370  220.4890 C   0  0  0  0  0  0  0  0  0  0  0  0
  139.1190   74.2030  219.3670 C   0  0  0  0  0  0  0  0  0  0  0  0
  138.5790   73.8680  218.2240 O   0  0  0  0  0  0  0  0  0  0  0  0
  140.4890   74.5730  219.3330 N   0  0  0  0  0  0  0  0  0  0  0  0
  141.1730   75.6170  218.6220 C   0  0  0  0  0  0  0  0  0  0  0  0
  142.5430   75.6550  219.2510 C   0  0  2  0  0  0  0  0  0  0  0  0
  143.5130   76.1680  218.3810 O   0  0  0  0  0  0  0  0  0  0  0  0
  142.8060   74.2190  219.6020 C   0  0  0  0  0  0  0  0  0  0  0  0
  141.4700   73.7670  220.1170 C   0  0  1  0  0  0  0  0  0  0  0  0
  141.3730   74.1050  221.5970 C   0  0  0  0  0  0  0  0  0  0  0  0
  140.6990   75.2020  221.8580 O   0  0  0  0  0  0  0  0  0  0  0  0
  140.1930   76.3140  222.2440 C   0  0  0  0  0  0  0  0  0  0  0  0
  141.0900   77.3600  222.6200 C   0  0  0  0  0  0  0  0  0  0  0  0
  140.6380   78.5770  223.0400 C   0  0  0  0  0  0  0  0  0  0  0  0
  139.3110   78.8140  223.1090 C   0  0  0  0  0  0  0  0  0  0  0  0
  138.7590   80.3770  223.6430 Cl  0  0  0  0  0  0  0  0  0  0  0  0
  138.4040   77.8750  222.7710 C   0  0  0  0  0  0  0  0  0  0  0  0
  138.8260   76.6380  222.3430 C   0  0  0  0  0  0  0  0  0  0  0  0
  138.8760   71.3470  222.9670 C   0  0  0  0  0  0  0  0  0  0  0  0
  138.4090   70.0320  223.0220 C   0  0  0  0  0  0  0  0  0  0  0  0
  138.7450   69.2540  224.1210 C   0  0  0  0  0  0  0  0  0  0  0  0
  139.5200   69.7560  225.1450 C   0  0  0  0  0  0  0  0  0  0  0  0
  139.8010   68.9300  226.1970 C   0  0  0  0  0  0  0  0  0  0  0  0
  140.5790   69.4730  227.2190 C   0  0  0  0  0  0  0  0  0  0  0  0
  140.9910   68.5060  228.6070 Cl  0  0  0  0  0  0  0  0  0  0  0  0
  141.0460   70.7730  227.1810 C   0  0  0  0  0  0  0  0  0  0  0  0
  140.7210   71.5610  226.0720 C   0  0  0  0  0  0  0  0  0  0  0  0
  139.9450   71.0580  225.0250 C   0  0  0  0  0  0  0  0  0  0  0  0
  139.6320   71.8420  223.9590 N   0  0  0  0  0  0  0  0  0  0  0  0
  138.9410   73.9930  222.5780 H   0  0  0  0  0  0  0  0  0  0  0  0
  137.3197   73.5792  220.1419 H   0  0  0  0  0  0  0  0  0  0  0  0
  138.0681   75.1947  220.7600 H   0  0  0  0  0  0  0  0  0  0  0  0
  141.2420   75.3790  217.5503 H   0  0  0  0  0  0  0  0  0  0  0  0
  140.6518   76.5835  218.6875 H   0  0  0  0  0  0  0  0  0  0  0  0
  142.5871   76.3226  220.1241 H   0  0  0  0  0  0  0  0  0  0  0  0
  144.3400   75.6560  218.5630 H   0  0  0  0  0  0  0  0  0  0  0  0
  143.1080   73.6410  218.7162 H   0  0  0  0  0  0  0  0  0  0  0  0
  143.6253   74.0843  220.3235 H   0  0  0  0  0  0  0  0  0  0  0  0
  141.2985   72.6857  220.0107 H   0  0  0  0  0  0  0  0  0  0  0  0
  140.8789   73.2668  222.1101 H   0  0  0  0  0  0  0  0  0  0  0  0
  142.4010   74.2757  221.9491 H   0  0  0  0  0  0  0  0  0  0  0  0
  142.1739   77.1797  222.5696 H   0  0  0  0  0  0  0  0  0  0  0  0
  141.3536   79.3634  223.3218 H   0  0  0  0  0  0  0  0  0  0  0  0
  137.3289   78.0980  222.8375 H   0  0  0  0  0  0  0  0  0  0  0  0
  138.0756   75.8812  222.0707 H   0  0  0  0  0  0  0  0  0  0  0  0
  137.7883   69.6218  222.2118 H   0  0  0  0  0  0  0  0  0  0  0  0
  138.3857   68.2158  224.1763 H   0  0  0  0  0  0  0  0  0  0  0  0
  139.4337   67.8939  226.2354 H   0  0  0  0  0  0  0  0  0  0  0  0
  141.6572   71.1775  228.0013 H   0  0  0  0  0  0  0  0  0  0  0  0
  141.0840   72.5982  226.0233 H   0  0  0  0  0  0  0  0  0  0  0  0
  1  2  2  0
  2  3  1  0
  3  4  1  0
  4  5  1  0
  5  6  2  0
  5  7  1  0
  7  8  1  0
  8  9  1  0
  9 10  1  0
  9 11  1  0
 11 12  1  0
 12 13  1  0
 13 14  1  0
 14 15  1  0
 15 16  2  0
 16 17  1  0
 17 18  2  0
 18 19  1  0
 18 20  1  0
 20 21  2  0
  2 22  1  0
 22 23  2  0
 23 24  1  0
 24 25  2  0
 25 26  1  0
 26 27  2  0
 27 28  1  0
 27 29  1  0
 29 30  2  0
 30 31  1  0
 31 32  2  0
 12  7  1  0
 21 15  1  0
 32 22  1  0
 31 25  1  0
  3 33  1  0
  4 34  1  0
  4 35  1  0
  8 36  1  0
  8 37  1  0
  9 38  1  1
 10 39  1  0
 11 40  1  0
 11 41  1  0
 12 42  1  1
 13 43  1  0
 13 44  1  0
 16 45  1  0
 17 46  1  0
 20 47  1  0
 21 48  1  0
 23 49  1  0
 24 50  1  0
 26 51  1  0
 29 52  1  0
 30 53  1  0
M  END
>  <smiles>  (16) 
O=C(NCC(=O)N1C[C@H](O)C[C@H]1COc1ccc(Cl)cc1)c1ccc2cc(Cl)ccc2n1

>  <score_type>  (16) 
oracle

>  <origin>  (16) 
autodockgpu

>  <m_score__min__energy>  (16) 
-8.4800000000000004

>  <m_primary>  (16) 
energy

>  <rmsd>  (16) 
2.2278860729234853

>  <m_score__min__rmsd>  (16) 
2.2278860729234853

>  <meeko>  (16) 
{"free_energy": -7.33, "intermolecular_energy": -9.72, "internal_energy": -2.58, "cluster_size": 22, "cluster_id": 1, "rank_in_cluster": 16}

>  <energy>  (16) 
-7.33

>  <cluster_rmsd>  (16) 
1.63

>  <cluster>  (16) 
1

$$$$

     RDKit          3D

 53 56  0  0  0  0  0  0  0  0999 V2000
  138.0440   71.2530  220.7250 O   0  0  0  0  0  0  0  0  0  0  0  0
  138.4530   71.8520  221.7820 C   0  0  0  0  0  0  0  0  0  0  0  0
  138.4790   73.2930  221.6700 N   0  0  0  0  0  0  0  0  0  0  0  0
  138.0500   73.8400  220.4380 C   0  0  0  0  0  0  0  0  0  0  0  0
  138.9360   74.6800  219.6540 C   0  0  0  0  0  0  0  0  0  0  0  0
  138.3250   75.6540  219.0310 O   0  0  0  0  0  0  0  0  0  0  0  0
  140.3400   74.5980  219.4710 N   0  0  0  0  0  0  0  0  0  0  0  0
  141.2420   75.3840  218.6740 C   0  0  0  0  0  0  0  0  0  0  0  0
  142.6110   74.9770  219.1560 C   0  0  2  0  0  0  0  0  0  0  0  0
  143.5960   75.1710  218.1810 O   0  0  0  0  0  0  0  0  0  0  0  0
  142.4420   73.5260  219.5040 C   0  0  0  0  0  0  0  0  0  0  0  0
  141.0930   73.5110  220.1630 C   0  0  1  0  0  0  0  0  0  0  0  0
  141.2630   73.8390  221.6400 C   0  0  0  0  0  0  0  0  0  0  0  0
  140.6150   74.9120  222.0330 O   0  0  0  0  0  0  0  0  0  0  0  0
  140.1420   76.0620  222.3410 C   0  0  0  0  0  0  0  0  0  0  0  0
  141.0700   77.1200  222.5920 C   0  0  0  0  0  0  0  0  0  0  0  0
  140.6540   78.3750  222.9230 C   0  0  0  0  0  0  0  0  0  0  0  0
  139.3350   78.6420  223.0220 C   0  0  0  0  0  0  0  0  0  0  0  0
  138.8290   80.2560  223.4410 Cl  0  0  0  0  0  0  0  0  0  0  0  0
  138.4000   77.6960  222.8000 C   0  0  0  0  0  0  0  0  0  0  0  0
  138.7850   76.4190  222.4640 C   0  0  0  0  0  0  0  0  0  0  0  0
  138.8510   71.1390  222.9760 C   0  0  0  0  0  0  0  0  0  0  0  0
  138.4340   69.8090  223.0660 C   0  0  0  0  0  0  0  0  0  0  0  0
  138.8070   69.0710  224.1810 C   0  0  0  0  0  0  0  0  0  0  0  0
  139.5710   69.6270  225.1860 C   0  0  0  0  0  0  0  0  0  0  0  0
  139.8910   68.8380  226.2560 C   0  0  0  0  0  0  0  0  0  0  0  0
  140.6550   69.4350  227.2580 C   0  0  0  0  0  0  0  0  0  0  0  0
  141.1130   68.5180  228.6650 Cl  0  0  0  0  0  0  0  0  0  0  0  0
  141.0710   70.7500  227.1840 C   0  0  0  0  0  0  0  0  0  0  0  0
  140.7080   71.4980  226.0600 C   0  0  0  0  0  0  0  0  0  0  0  0
  139.9450   70.9410  225.0310 C   0  0  0  0  0  0  0  0  0  0  0  0
  139.5940   71.6870  223.9490 N   0  0  0  0  0  0  0  0  0  0  0  0
  138.8070   73.7750  222.5250 H   0  0  0  0  0  0  0  0  0  0  0  0
  137.7723   72.9907  219.7964 H   0  0  0  0  0  0  0  0  0  0  0  0
  137.2550   74.5369  220.7417 H   0  0  0  0  0  0  0  0  0  0  0  0
  141.1202   75.1538  217.6053 H   0  0  0  0  0  0  0  0  0  0  0  0
  141.0630   76.4645  218.7766 H   0  0  0  0  0  0  0  0  0  0  0  0
  142.9549   75.5822  220.0077 H   0  0  0  0  0  0  0  0  0  0  0  0
  144.4400   75.3300  218.6740 H   0  0  0  0  0  0  0  0  0  0  0  0
  142.4520   72.8961  218.6022 H   0  0  0  0  0  0  0  0  0  0  0  0
  143.2473   73.1283  220.1391 H   0  0  0  0  0  0  0  0  0  0  0  0
  140.5788   72.5410  220.0943 H   0  0  0  0  0  0  0  0  0  0  0  0
  140.8998   72.9827  222.2272 H   0  0  0  0  0  0  0  0  0  0  0  0
  142.3327   74.0416  221.7969 H   0  0  0  0  0  0  0  0  0  0  0  0
  142.1482   76.9159  222.5160 H   0  0  0  0  0  0  0  0  0  0  0  0
  141.3923   79.1689  223.1091 H   0  0  0  0  0  0  0  0  0  0  0  0
  137.3321   77.9450  222.8874 H   0  0  0  0  0  0  0  0  0  0  0  0
  138.0126   75.6562  222.2866 H   0  0  0  0  0  0  0  0  0  0  0  0
  137.8235   69.3563  222.2708 H   0  0  0  0  0  0  0  0  0  0  0  0
  138.4870   68.0219  224.2648 H   0  0  0  0  0  0  0  0  0  0  0  0
  139.5637   67.7899  226.3226 H   0  0  0  0  0  0  0  0  0  0  0  0
  141.6726   71.1974  227.9890 H   0  0  0  0  0  0  0  0  0  0  0  0
  141.0300   72.5471  225.9844 H   0  0  0  0  0  0  0  0  0  0  0  0
  1  2  2  0
  2  3  1  0
  3  4  1  0
  4  5  1  0
  5  6  2  0
  5  7  1  0
  7  8  1  0
  8  9  1  0
  9 10  1  0
  9 11  1  0
 11 12  1  0
 12 13  1  0
 13 14  1  0
 14 15  1  0
 15 16  2  0
 16 17  1  0
 17 18  2  0
 18 19  1  0
 18 20  1  0
 20 21  2  0
  2 22  1  0
 22 23  2  0
 23 24  1  0
 24 25  2  0
 25 26  1  0
 26 27  2  0
 27 28  1  0
 27 29  1  0
 29 30  2  0
 30 31  1  0
 31 32  2  0
 12  7  1  0
 21 15  1  0
 32 22  1  0
 31 25  1  0
  3 33  1  0
  4 34  1  0
  4 35  1  0
  8 36  1  0
  8 37  1  0
  9 38  1  1
 10 39  1  0
 11 40  1  0
 11 41  1  0
 12 42  1  1
 13 43  1  0
 13 44  1  0
 16 45  1  0
 17 46  1  0
 20 47  1  0
 21 48  1  0
 23 49  1  0
 24 50  1  0
 26 51  1  0
 29 52  1  0
 30 53  1  0
M  END
>  <smiles>  (17) 
O=C(NCC(=O)N1C[C@H](O)C[C@H]1COc1ccc(Cl)cc1)c1ccc2cc(Cl)ccc2n1

>  <score_type>  (17) 
oracle

>  <origin>  (17) 
autodockgpu

>  <m_score__min__energy>  (17) 
-8.4800000000000004

>  <m_primary>  (17) 
energy

>  <rmsd>  (17) 
2.274152823259439

>  <m_score__min__rmsd>  (17) 
2.274152823259439

>  <meeko>  (17) 
{"free_energy": -7.22, "intermolecular_energy": -9.61, "internal_energy": -2.71, "cluster_size": 22, "cluster_id": 1, "rank_in_cluster": 19}

>  <energy>  (17) 
-7.33

>  <cluster_rmsd>  (17) 
1.48

>  <cluster>  (17) 
1

$$$$

     RDKit          3D

 53 56  0  0  0  0  0  0  0  0999 V2000
  139.6490   73.7610  221.7840 O   0  0  0  0  0  0  0  0  0  0  0  0
  139.6740   72.4800  221.7350 C   0  0  0  0  0  0  0  0  0  0  0  0
  139.5640   71.9380  220.3990 N   0  0  0  0  0  0  0  0  0  0  0  0
  139.4550   72.8750  219.3440 C   0  0  0  0  0  0  0  0  0  0  0  0
  140.6360   73.5260  218.8100 C   0  0  0  0  0  0  0  0  0  0  0  0
  141.0620   73.0070  217.6870 O   0  0  0  0  0  0  0  0  0  0  0  0
  141.3800   74.6210  219.3190 N   0  0  0  0  0  0  0  0  0  0  0  0
  140.9630   75.9050  219.8130 C   0  0  0  0  0  0  0  0  0  0  0  0
  142.1980   76.4650  220.4730 C   0  0  2  0  0  0  0  0  0  0  0  0
  142.1900   77.8640  220.5110 O   0  0  0  0  0  0  0  0  0  0  0  0
  143.3180   75.9320  219.6280 C   0  0  0  0  0  0  0  0  0  0  0  0
  142.8690   74.5250  219.3540 C   0  0  1  0  0  0  0  0  0  0  0  0
  143.3170   73.6320  220.5020 C   0  0  0  0  0  0  0  0  0  0  0  0
  143.7020   72.4320  220.1350 O   0  0  0  0  0  0  0  0  0  0  0  0
  144.2620   71.3170  219.8430 C   0  0  0  0  0  0  0  0  0  0  0  0
  143.5070   70.1200  220.0380 C   0  0  0  0  0  0  0  0  0  0  0  0
  144.0230   68.8910  219.7510 C   0  0  0  0  0  0  0  0  0  0  0  0
  145.2800   68.7850  219.2710 C   0  0  0  0  0  0  0  0  0  0  0  0
  145.9140   67.2040  218.9060 Cl  0  0  0  0  0  0  0  0  0  0  0  0
  146.0530   69.8690  219.0610 C   0  0  0  0  0  0  0  0  0  0  0  0
  145.5640   71.1240  219.3390 C   0  0  0  0  0  0  0  0  0  0  0  0
  139.8010   71.6580  222.9190 C   0  0  0  0  0  0  0  0  0  0  0  0
  139.3370   70.3450  222.8090 C   0  0  0  0  0  0  0  0  0  0  0  0
  139.4540   69.5060  223.9080 C   0  0  0  0  0  0  0  0  0  0  0  0
  140.0140   69.9460  225.0890 C   0  0  0  0  0  0  0  0  0  0  0  0
  140.0880   69.0610  226.1290 C   0  0  0  0  0  0  0  0  0  0  0  0
  140.6500   69.5420  227.3120 C   0  0  0  0  0  0  0  0  0  0  0  0
  140.7870   68.4980  228.6970 Cl  0  0  0  0  0  0  0  0  0  0  0  0
  141.1100   70.8390  227.4360 C   0  0  0  0  0  0  0  0  0  0  0  0
  141.0050   71.6890  226.3300 C   0  0  0  0  0  0  0  0  0  0  0  0
  140.4490   71.2490  225.1260 C   0  0  0  0  0  0  0  0  0  0  0  0
  140.3470   72.0930  224.0640 N   0  0  0  0  0  0  0  0  0  0  0  0
  139.5860   70.9050  220.3610 H   0  0  0  0  0  0  0  0  0  0  0  0
  138.9786   72.3488  218.5037 H   0  0  0  0  0  0  0  0  0  0  0  0
  138.9044   73.7062  219.8086 H   0  0  0  0  0  0  0  0  0  0  0  0
  140.6339   76.5529  218.9872 H   0  0  0  0  0  0  0  0  0  0  0  0
  140.1104   75.8343  220.5045 H   0  0  0  0  0  0  0  0  0  0  0  0
  142.2830   76.1687  221.5289 H   0  0  0  0  0  0  0  0  0  0  0  0
  143.0340   78.1300  220.9540 H   0  0  0  0  0  0  0  0  0  0  0  0
  143.4217   76.5060  218.6954 H   0  0  0  0  0  0  0  0  0  0  0  0
  144.3037   75.9939  220.1123 H   0  0  0  0  0  0  0  0  0  0  0  0
  143.2804   74.1036  218.4249 H   0  0  0  0  0  0  0  0  0  0  0  0
  144.1591   74.1229  221.0118 H   0  0  0  0  0  0  0  0  0  0  0  0
  142.4422   73.4960  221.1548 H   0  0  0  0  0  0  0  0  0  0  0  0
  142.4818   70.1918  220.4302 H   0  0  0  0  0  0  0  0  0  0  0  0
  143.4160   67.9876  219.9104 H   0  0  0  0  0  0  0  0  0  0  0  0
  147.0734   69.7501  218.6679 H   0  0  0  0  0  0  0  0  0  0  0  0
  146.2058   72.0000  219.1634 H   0  0  0  0  0  0  0  0  0  0  0  0
  138.8887   69.9841  221.8716 H   0  0  0  0  0  0  0  0  0  0  0  0
  139.0929   68.4695  223.8358 H   0  0  0  0  0  0  0  0  0  0  0  0
  139.7244   68.0268  226.0378 H   0  0  0  0  0  0  0  0  0  0  0  0
  141.5477   71.1942  228.3806 H   0  0  0  0  0  0  0  0  0  0  0  0
  141.3674   72.7245  226.4097 H   0  0  0  0  0  0  0  0  0  0  0  0
  1  2  2  0
  2  3  1  0
  3  4  1  0
  4  5  1  0
  5  6  2  0
  5  7  1  0
  7  8  1  0
  8  9  1  0
  9 10  1  0
  9 11  1  0
 11 12  1  0
 12 13  1  0
 13 14  1  0
 14 15  1  0
 15 16  2  0
 16 17  1  0
 17 18  2  0
 18 19  1  0
 18 20  1  0
 20 21  2  0
  2 22  1  0
 22 23  2  0
 23 24  1  0
 24 25  2  0
 25 26  1  0
 26 27  2  0
 27 28  1  0
 27 29  1  0
 29 30  2  0
 30 31  1  0
 31 32  2  0
 12  7  1  0
 21 15  1  0
 32 22  1  0
 31 25  1  0
  3 33  1  0
  4 34  1  0
  4 35  1  0
  8 36  1  0
  8 37  1  0
  9 38  1  1
 10 39  1  0
 11 40  1  0
 11 41  1  0
 12 42  1  6
 13 43  1  0
 13 44  1  0
 16 45  1  0
 17 46  1  0
 20 47  1  0
 21 48  1  0
 23 49  1  0
 24 50  1  0
 26 51  1  0
 29 52  1  0
 30 53  1  0
M  END
>  <smiles>  (18) 
O=C(NCC(=O)N1C[C@H](O)C[C@H]1COc1ccc(Cl)cc1)c1ccc2cc(Cl)ccc2n1

>  <score_type>  (18) 
oracle

>  <origin>  (18) 
autodockgpu

>  <m_score__min__energy>  (18) 
-8.4800000000000004

>  <m_primary>  (18) 
energy

>  <rmsd>  (18) 
2.5194135806667

>  <m_score__min__rmsd>  (18) 
2.5194135806667

>  <meeko>  (18) 
{"free_energy": -7.22, "intermolecular_energy": -9.61, "internal_energy": -1.7, "cluster_size": 5, "cluster_id": 3, "rank_in_cluster": 5}

>  <energy>  (18) 
-7.29

>  <cluster_rmsd>  (18) 
1.53

>  <cluster>  (18) 
1

$$$$

     RDKit          3D

 53 56  0  0  0  0  0  0  0  0999 V2000
  137.9600   71.5640  220.6040 O   0  0  0  0  0  0  0  0  0  0  0  0
  138.4130   72.1220  221.6650 C   0  0  0  0  0  0  0  0  0  0  0  0
  138.5130   73.5620  221.5800 N   0  0  0  0  0  0  0  0  0  0  0  0
  138.0960   74.1520  220.3630 C   0  0  0  0  0  0  0  0  0  0  0  0
  139.0620   74.4750  219.3300 C   0  0  0  0  0  0  0  0  0  0  0  0
  138.5950   74.3510  218.1150 O   0  0  0  0  0  0  0  0  0  0  0  0
  140.4110   74.8980  219.4470 N   0  0  0  0  0  0  0  0  0  0  0  0
  141.0750   76.0920  219.0010 C   0  0  0  0  0  0  0  0  0  0  0  0
  142.4110   76.0540  219.6990 C   0  0  2  0  0  0  0  0  0  0  0  0
  143.3920   76.7720  219.0060 O   0  0  0  0  0  0  0  0  0  0  0  0
  142.7290   74.5880  219.7660 C   0  0  0  0  0  0  0  0  0  0  0  0
  141.3940   73.9880  220.1050 C   0  0  1  0  0  0  0  0  0  0  0  0
  141.2120   74.0120  221.6150 C   0  0  0  0  0  0  0  0  0  0  0  0
  140.7640   75.1520  222.0880 O   0  0  0  0  0  0  0  0  0  0  0  0
  140.2220   76.2770  222.3750 C   0  0  0  0  0  0  0  0  0  0  0  0
  141.0850   77.3730  222.6850 C   0  0  0  0  0  0  0  0  0  0  0  0
  140.5940   78.6060  223.0000 C   0  0  0  0  0  0  0  0  0  0  0  0
  139.2620   78.8130  223.0230 C   0  0  0  0  0  0  0  0  0  0  0  0
  138.6600   80.3990  223.4210 Cl  0  0  0  0  0  0  0  0  0  0  0  0
  138.3850   77.8280  222.7420 C   0  0  0  0  0  0  0  0  0  0  0  0
  138.8460   76.5720  222.4210 C   0  0  0  0  0  0  0  0  0  0  0  0
  138.7900   71.3670  222.8410 C   0  0  0  0  0  0  0  0  0  0  0  0
  138.2600   70.0790  222.9410 C   0  0  0  0  0  0  0  0  0  0  0  0
  138.6060   69.3030  224.0380 C   0  0  0  0  0  0  0  0  0  0  0  0
  139.4520   69.7810  225.0170 C   0  0  0  0  0  0  0  0  0  0  0  0
  139.7400   68.9580  226.0700 C   0  0  0  0  0  0  0  0  0  0  0  0
  140.5910   69.4770  227.0460 C   0  0  0  0  0  0  0  0  0  0  0  0
  141.0170   68.5130  228.4310 Cl  0  0  0  0  0  0  0  0  0  0  0  0
  141.1200   70.7510  226.9620 C   0  0  0  0  0  0  0  0  0  0  0  0
  140.7840   71.5370  225.8550 C   0  0  0  0  0  0  0  0  0  0  0  0
  139.9360   71.0570  224.8530 C   0  0  0  0  0  0  0  0  0  0  0  0
  139.6140   71.8390  223.7880 N   0  0  0  0  0  0  0  0  0  0  0  0
  138.8770   74.0100  222.4380 H   0  0  0  0  0  0  0  0  0  0  0  0
  137.3705   73.4602  219.9102 H   0  0  0  0  0  0  0  0  0  0  0  0
  137.7343   75.1413  220.6800 H   0  0  0  0  0  0  0  0  0  0  0  0
  141.2049   76.0815  217.9088 H   0  0  0  0  0  0  0  0  0  0  0  0
  140.5042   77.0034  219.2324 H   0  0  0  0  0  0  0  0  0  0  0  0
  142.3819   76.5294  220.6905 H   0  0  0  0  0  0  0  0  0  0  0  0
  143.7930   77.3930  219.6650 H   0  0  0  0  0  0  0  0  0  0  0  0
  143.0995   74.2158  218.7995 H   0  0  0  0  0  0  0  0  0  0  0  0
  143.5203   74.3407  220.4890 H   0  0  0  0  0  0  0  0  0  0  0  0
  141.2818   72.9453  219.7731 H   0  0  0  0  0  0  0  0  0  0  0  0
  140.4978   73.2213  221.8883 H   0  0  0  0  0  0  0  0  0  0  0  0
  142.2087   73.8590  222.0545 H   0  0  0  0  0  0  0  0  0  0  0  0
  142.1740   77.2183  222.6692 H   0  0  0  0  0  0  0  0  0  0  0  0
  141.2837   79.4301  223.2349 H   0  0  0  0  0  0  0  0  0  0  0  0
  137.3037   78.0281  222.7693 H   0  0  0  0  0  0  0  0  0  0  0  0
  138.1202   75.7771  222.1943 H   0  0  0  0  0  0  0  0  0  0  0  0
  137.5830   69.6881  222.1671 H   0  0  0  0  0  0  0  0  0  0  0  0
  138.1973   68.2858  224.1288 H   0  0  0  0  0  0  0  0  0  0  0  0
  139.3236   67.9425  226.1436 H   0  0  0  0  0  0  0  0  0  0  0  0
  141.7883   71.1370  227.7458 H   0  0  0  0  0  0  0  0  0  0  0  0
  141.1955   72.5537  225.7712 H   0  0  0  0  0  0  0  0  0  0  0  0
  1  2  2  0
  2  3  1  0
  3  4  1  0
  4  5  1  0
  5  6  2  0
  5  7  1  0
  7  8  1  0
  8  9  1  0
  9 10  1  0
  9 11  1  0
 11 12  1  0
 12 13  1  0
 13 14  1  0
 14 15  1  0
 15 16  2  0
 16 17  1  0
 17 18  2  0
 18 19  1  0
 18 20  1  0
 20 21  2  0
  2 22  1  0
 22 23  2  0
 23 24  1  0
 24 25  2  0
 25 26  1  0
 26 27  2  0
 27 28  1  0
 27 29  1  0
 29 30  2  0
 30 31  1  0
 31 32  2  0
 12  7  1  0
 21 15  1  0
 32 22  1  0
 31 25  1  0
  3 33  1  0
  4 34  1  0
  4 35  1  0
  8 36  1  0
  8 37  1  0
  9 38  1  1
 10 39  1  0
 11 40  1  0
 11 41  1  0
 12 42  1  6
 13 43  1  0
 13 44  1  0
 16 45  1  0
 17 46  1  0
 20 47  1  0
 21 48  1  0
 23 49  1  0
 24 50  1  0
 26 51  1  0
 29 52  1  0
 30 53  1  0
M  END
>  <smiles>  (19) 
O=C(NCC(=O)N1C[C@H](O)C[C@H]1COc1ccc(Cl)cc1)c1ccc2cc(Cl)ccc2n1

>  <score_type>  (19) 
oracle

>  <origin>  (19) 
autodockgpu

>  <m_score__min__energy>  (19) 
-8.4800000000000004

>  <m_primary>  (19) 
energy

>  <rmsd>  (19) 
2.2409974424887005

>  <m_score__min__rmsd>  (19) 
2.2409974424887005

>  <meeko>  (19) 
{"free_energy": -7.52, "intermolecular_energy": -9.91, "internal_energy": -2.66, "cluster_size": 22, "cluster_id": 1, "rank_in_cluster": 5}

>  <energy>  (19) 
-7.22

>  <cluster_rmsd>  (19) 
1.76

>  <cluster>  (19) 
1

$$$$

     RDKit          3D

 53 56  0  0  0  0  0  0  0  0999 V2000
  140.0850   72.3750  220.7640 O   0  0  0  0  0  0  0  0  0  0  0  0
  139.9160   72.7760  221.9700 C   0  0  0  0  0  0  0  0  0  0  0  0
  139.6500   74.1930  222.0880 N   0  0  0  0  0  0  0  0  0  0  0  0
  139.6040   74.9300  220.8810 C   0  0  0  0  0  0  0  0  0  0  0  0
  140.5660   75.9840  220.6220 C   0  0  0  0  0  0  0  0  0  0  0  0
  141.2240   76.3710  221.6850 O   0  0  0  0  0  0  0  0  0  0  0  0
  140.8890   76.6420  219.4080 N   0  0  0  0  0  0  0  0  0  0  0  0
  141.6380   77.8400  219.1460 C   0  0  0  0  0  0  0  0  0  0  0  0
  141.8640   77.8170  217.6550 C   0  0  2  0  0  0  0  0  0  0  0  0
  142.0550   79.0990  217.1280 O   0  0  0  0  0  0  0  0  0  0  0  0
  140.6180   77.1700  217.1240 C   0  0  0  0  0  0  0  0  0  0  0  0
  140.3730   76.0780  218.1260 C   0  0  1  0  0  0  0  0  0  0  0  0
  141.1760   74.8500  217.7230 C   0  0  0  0  0  0  0  0  0  0  0  0
  142.0990   74.5000  218.5900 O   0  0  0  0  0  0  0  0  0  0  0  0
  143.1220   74.2830  219.3300 C   0  0  0  0  0  0  0  0  0  0  0  0
  143.3530   72.9430  219.7720 C   0  0  0  0  0  0  0  0  0  0  0  0
  144.4180   72.6220  220.5600 C   0  0  0  0  0  0  0  0  0  0  0  0
  145.2850   73.5810  220.9430 C   0  0  0  0  0  0  0  0  0  0  0  0
  146.6410   73.1440  221.9450 Cl  0  0  0  0  0  0  0  0  0  0  0  0
  145.1330   74.8670  220.5660 C   0  0  0  0  0  0  0  0  0  0  0  0
  144.0700   75.2260  219.7710 C   0  0  0  0  0  0  0  0  0  0  0  0
  139.9860   71.8830  223.1050 C   0  0  0  0  0  0  0  0  0  0  0  0
  139.5290   70.5800  222.8930 C   0  0  0  0  0  0  0  0  0  0  0  0
  139.5950   69.6750  223.9430 C   0  0  0  0  0  0  0  0  0  0  0  0
  140.0960   70.0410  225.1750 C   0  0  0  0  0  0  0  0  0  0  0  0
  140.1210   69.0940  226.1610 C   0  0  0  0  0  0  0  0  0  0  0  0
  140.6250   69.5000  227.3960 C   0  0  0  0  0  0  0  0  0  0  0  0
  140.6960   68.3720  228.7200 Cl  0  0  0  0  0  0  0  0  0  0  0  0
  141.0780   70.7860  227.6220 C   0  0  0  0  0  0  0  0  0  0  0  0
  141.0250   71.7020  226.5660 C   0  0  0  0  0  0  0  0  0  0  0  0
  140.5280   71.3390  225.3120 C   0  0  0  0  0  0  0  0  0  0  0  0
  140.4760   72.2460  224.3000 N   0  0  0  0  0  0  0  0  0  0  0  0
  139.5120   74.5150  223.0610 H   0  0  0  0  0  0  0  0  0  0  0  0
  139.7078   74.2015  220.0634 H   0  0  0  0  0  0  0  0  0  0  0  0
  138.6542   75.4786  220.9637 H   0  0  0  0  0  0  0  0  0  0  0  0
  141.0638   78.7311  219.4398 H   0  0  0  0  0  0  0  0  0  0  0  0
  142.5791   77.8810  219.7140 H   0  0  0  0  0  0  0  0  0  0  0  0
  142.7788   77.2742  217.3750 H   0  0  0  0  0  0  0  0  0  0  0  0
  142.9850   79.1200  216.7910 H   0  0  0  0  0  0  0  0  0  0  0  0
  139.7797   77.8818  217.0974 H   0  0  0  0  0  0  0  0  0  0  0  0
  140.7165   76.8059  216.0907 H   0  0  0  0  0  0  0  0  0  0  0  0
  139.3182   75.7750  218.2003 H   0  0  0  0  0  0  0  0  0  0  0  0
  140.4795   74.0072  217.6020 H   0  0  0  0  0  0  0  0  0  0  0  0
  141.7003   75.1079  216.7910 H   0  0  0  0  0  0  0  0  0  0  0  0
  142.6532   72.1505  219.4683 H   0  0  0  0  0  0  0  0  0  0  0  0
  144.5700   71.5816  220.8831 H   0  0  0  0  0  0  0  0  0  0  0  0
  145.8577   75.6269  220.8937 H   0  0  0  0  0  0  0  0  0  0  0  0
  143.9573   76.2784  219.4715 H   0  0  0  0  0  0  0  0  0  0  0  0
  139.1257   70.2780  221.9152 H   0  0  0  0  0  0  0  0  0  0  0  0
  139.2406   68.6450  223.7897 H   0  0  0  0  0  0  0  0  0  0  0  0
  139.7631   68.0681  225.9893 H   0  0  0  0  0  0  0  0  0  0  0  0
  141.4700   71.0815  228.6064 H   0  0  0  0  0  0  0  0  0  0  0  0
  141.3823   72.7299  226.7265 H   0  0  0  0  0  0  0  0  0  0  0  0
  1  2  2  0
  2  3  1  0
  3  4  1  0
  4  5  1  0
  5  6  2  0
  5  7  1  0
  7  8  1  0
  8  9  1  0
  9 10  1  0
  9 11  1  0
 11 12  1  0
 12 13  1  0
 13 14  1  0
 14 15  1  0
 15 16  2  0
 16 17  1  0
 17 18  2  0
 18 19  1  0
 18 20  1  0
 20 21  2  0
  2 22  1  0
 22 23  2  0
 23 24  1  0
 24 25  2  0
 25 26  1  0
 26 27  2  0
 27 28  1  0
 27 29  1  0
 29 30  2  0
 30 31  1  0
 31 32  2  0
 12  7  1  0
 21 15  1  0
 32 22  1  0
 31 25  1  0
  3 33  1  0
  4 34  1  0
  4 35  1  0
  8 36  1  0
  8 37  1  0
  9 38  1  1
 10 39  1  0
 11 40  1  0
 11 41  1  0
 12 42  1  1
 13 43  1  0
 13 44  1  0
 16 45  1  0
 17 46  1  0
 20 47  1  0
 21 48  1  0
 23 49  1  0
 24 50  1  0
 26 51  1  0
 29 52  1  0
 30 53  1  0
M  END
>  <smiles>  (20) 
O=C(NCC(=O)N1C[C@H](O)C[C@H]1COc1ccc(Cl)cc1)c1ccc2cc(Cl)ccc2n1

>  <score_type>  (20) 
oracle

>  <origin>  (20) 
autodockgpu

>  <m_score__min__energy>  (20) 
-8.4800000000000004

>  <m_primary>  (20) 
energy

>  <rmsd>  (20) 
2.185525667126823

>  <m_score__min__rmsd>  (20) 
2.185525667126823

>  <meeko>  (20) 
{"free_energy": -7.62, "intermolecular_energy": -10.01, "internal_energy": -2.22, "cluster_size": 5, "cluster_id": 3, "rank_in_cluster": 2}

>  <energy>  (20) 
-7.1

>  <cluster_rmsd>  (20) 
1.51

>  <cluster>  (20) 
1

$$$$

     RDKit          3D

 53 56  0  0  0  0  0  0  0  0999 V2000
  137.7850   71.6430  220.7400 O   0  0  0  0  0  0  0  0  0  0  0  0
  138.3070   72.1900  221.7750 C   0  0  0  0  0  0  0  0  0  0  0  0
  138.4740   73.6220  221.6650 N   0  0  0  0  0  0  0  0  0  0  0  0
  138.0400   74.2180  220.4570 C   0  0  0  0  0  0  0  0  0  0  0  0
  138.9900   74.5470  219.4130 C   0  0  0  0  0  0  0  0  0  0  0  0
  138.5090   74.4210  218.2030 O   0  0  0  0  0  0  0  0  0  0  0  0
  140.3380   74.9770  219.5130 N   0  0  0  0  0  0  0  0  0  0  0  0
  140.9850   76.1840  219.0770 C   0  0  0  0  0  0  0  0  0  0  0  0
  142.3340   76.1430  219.7500 C   0  0  2  0  0  0  0  0  0  0  0  0
  143.2980   76.8810  219.0530 O   0  0  0  0  0  0  0  0  0  0  0  0
  142.6630   74.6780  219.7840 C   0  0  0  0  0  0  0  0  0  0  0  0
  141.3390   74.0620  220.1360 C   0  0  1  0  0  0  0  0  0  0  0  0
  141.1850   74.0570  221.6500 C   0  0  0  0  0  0  0  0  0  0  0  0
  140.7820   75.2010  222.1560 O   0  0  0  0  0  0  0  0  0  0  0  0
  140.3430   76.3650  222.4570 C   0  0  0  0  0  0  0  0  0  0  0  0
  138.9280   76.5620  222.4710 C   0  0  0  0  0  0  0  0  0  0  0  0
  138.3740   77.7690  222.7830 C   0  0  0  0  0  0  0  0  0  0  0  0
  139.1700   78.8150  223.0890 C   0  0  0  0  0  0  0  0  0  0  0  0
  138.4380   80.3440  223.4900 Cl  0  0  0  0  0  0  0  0  0  0  0  0
  140.5140   78.7060  223.0960 C   0  0  0  0  0  0  0  0  0  0  0  0
  141.1050   77.5040  222.7860 C   0  0  0  0  0  0  0  0  0  0  0  0
  138.6910   71.4320  222.9460 C   0  0  0  0  0  0  0  0  0  0  0  0
  138.1190   70.1650  223.0740 C   0  0  0  0  0  0  0  0  0  0  0  0
  138.4710   69.3860  224.1680 C   0  0  0  0  0  0  0  0  0  0  0  0
  139.3630   69.8420  225.1160 C   0  0  0  0  0  0  0  0  0  0  0  0
  139.6530   69.0180  226.1680 C   0  0  0  0  0  0  0  0  0  0  0  0
  140.5500   69.5140  227.1130 C   0  0  0  0  0  0  0  0  0  0  0  0
  140.9830   68.5460  228.4930 Cl  0  0  0  0  0  0  0  0  0  0  0  0
  141.1210   70.7670  227.0020 C   0  0  0  0  0  0  0  0  0  0  0  0
  140.7800   71.5550  225.8970 C   0  0  0  0  0  0  0  0  0  0  0  0
  139.8860   71.0980  224.9260 C   0  0  0  0  0  0  0  0  0  0  0  0
  139.5600   71.8820  223.8640 N   0  0  0  0  0  0  0  0  0  0  0  0
  138.8930   74.0620  222.5020 H   0  0  0  0  0  0  0  0  0  0  0  0
  137.3087   73.5280  220.0108 H   0  0  0  0  0  0  0  0  0  0  0  0
  137.6826   75.2054  220.7844 H   0  0  0  0  0  0  0  0  0  0  0  0
  141.0949   76.1945  217.9826 H   0  0  0  0  0  0  0  0  0  0  0  0
  140.4120   77.0867  219.3353 H   0  0  0  0  0  0  0  0  0  0  0  0
  142.3197   76.6001  220.7504 H   0  0  0  0  0  0  0  0  0  0  0  0
  143.6800   77.5170  219.7070 H   0  0  0  0  0  0  0  0  0  0  0  0
  143.0182   74.3264  218.8041 H   0  0  0  0  0  0  0  0  0  0  0  0
  143.4690   74.4233  220.4879 H   0  0  0  0  0  0  0  0  0  0  0  0
  141.2276   73.0248  219.7871 H   0  0  0  0  0  0  0  0  0  0  0  0
  140.4507   73.2834  221.9191 H   0  0  0  0  0  0  0  0  0  0  0  0
  142.1837   73.8619  222.0678 H   0  0  0  0  0  0  0  0  0  0  0  0
  138.2676   75.7178  222.2236 H   0  0  0  0  0  0  0  0  0  0  0  0
  137.2806   77.8894  222.7852 H   0  0  0  0  0  0  0  0  0  0  0  0
  141.1363   79.5770  223.3492 H   0  0  0  0  0  0  0  0  0  0  0  0
  142.2024   77.4293  222.7950 H   0  0  0  0  0  0  0  0  0  0  0  0
  137.4052   69.7921  222.3247 H   0  0  0  0  0  0  0  0  0  0  0  0
  138.0295   68.3848  224.2810 H   0  0  0  0  0  0  0  0  0  0  0  0
  139.2033   68.0187  226.2634 H   0  0  0  0  0  0  0  0  0  0  0  0
  141.8253   71.1357  227.7623 H   0  0  0  0  0  0  0  0  0  0  0  0
  141.2253   72.5552  225.7909 H   0  0  0  0  0  0  0  0  0  0  0  0
  1  2  2  0
  2  3  1  0
  3  4  1  0
  4  5  1  0
  5  6  2  0
  5  7  1  0
  7  8  1  0
  8  9  1  0
  9 10  1  0
  9 11  1  0
 11 12  1  0
 12 13  1  0
 13 14  1  0
 14 15  1  0
 15 16  2  0
 16 17  1  0
 17 18  2  0
 18 19  1  0
 18 20  1  0
 20 21  2  0
  2 22  1  0
 22 23  2  0
 23 24  1  0
 24 25  2  0
 25 26  1  0
 26 27  2  0
 27 28  1  0
 27 29  1  0
 29 30  2  0
 30 31  1  0
 31 32  2  0
 12  7  1  0
 21 15  1  0
 32 22  1  0
 31 25  1  0
  3 33  1  0
  4 34  1  0
  4 35  1  0
  8 36  1  0
  8 37  1  0
  9 38  1  1
 10 39  1  0
 11 40  1  0
 11 41  1  0
 12 42  1  6
 13 43  1  0
 13 44  1  0
 16 45  1  0
 17 46  1  0
 20 47  1  0
 21 48  1  0
 23 49  1  0
 24 50  1  0
 26 51  1  0
 29 52  1  0
 30 53  1  0
M  END
>  <smiles>  (21) 
O=C(NCC(=O)N1C[C@H](O)C[C@H]1COc1ccc(Cl)cc1)c1ccc2cc(Cl)ccc2n1

>  <score_type>  (21) 
oracle

>  <origin>  (21) 
autodockgpu

>  <m_score__min__energy>  (21) 
-8.4800000000000004

>  <m_primary>  (21) 
energy

>  <rmsd>  (21) 
2.228756915021845

>  <m_score__min__rmsd>  (21) 
2.228756915021845

>  <meeko>  (21) 
{"free_energy": -7.46, "intermolecular_energy": -9.85, "internal_energy": -2.65, "cluster_size": 22, "cluster_id": 1, "rank_in_cluster": 9}

>  <energy>  (21) 
-7.04

>  <cluster_rmsd>  (21) 
1.58

>  <cluster>  (21) 
1

$$$$

     RDKit          3D

 53 56  0  0  0  0  0  0  0  0999 V2000
  140.2890   72.4180  220.8270 O   0  0  0  0  0  0  0  0  0  0  0  0
  140.0390   72.7900  222.0280 C   0  0  0  0  0  0  0  0  0  0  0  0
  139.7110   74.1920  222.1560 N   0  0  0  0  0  0  0  0  0  0  0  0
  139.7000   74.9500  220.9620 C   0  0  0  0  0  0  0  0  0  0  0  0
  140.3820   76.2280  220.8910 C   0  0  0  0  0  0  0  0  0  0  0  0
  140.1440   77.0100  221.9120 O   0  0  0  0  0  0  0  0  0  0  0  0
  141.2530   76.7400  219.8950 N   0  0  0  0  0  0  0  0  0  0  0  0
  141.4300   78.0700  219.3810 C   0  0  0  0  0  0  0  0  0  0  0  0
  142.7010   77.9880  218.5740 C   0  0  2  0  0  0  0  0  0  0  0  0
  142.7540   78.9580  217.5670 O   0  0  0  0  0  0  0  0  0  0  0  0
  142.6700   76.5960  218.0140 C   0  0  0  0  0  0  0  0  0  0  0  0
  142.1570   75.7950  219.1770 C   0  0  1  0  0  0  0  0  0  0  0  0
  143.3310   75.4060  220.0620 C   0  0  0  0  0  0  0  0  0  0  0  0
  143.7900   74.1930  219.8510 O   0  0  0  0  0  0  0  0  0  0  0  0
  144.0960   72.9520  219.7800 C   0  0  0  0  0  0  0  0  0  0  0  0
  143.0990   71.9960  220.1490 C   0  0  0  0  0  0  0  0  0  0  0  0
  143.3390   70.6540  220.1010 C   0  0  0  0  0  0  0  0  0  0  0  0
  144.5440   70.2010  219.6990 C   0  0  0  0  0  0  0  0  0  0  0  0
  144.8230   68.4820  219.6410 Cl  0  0  0  0  0  0  0  0  0  0  0  0
  145.5340   71.0410  219.3360 C   0  0  0  0  0  0  0  0  0  0  0  0
  145.3270   72.4000  219.3720 C   0  0  0  0  0  0  0  0  0  0  0  0
  140.0850   71.8780  223.1500 C   0  0  0  0  0  0  0  0  0  0  0  0
  139.6280   70.5800  222.9080 C   0  0  0  0  0  0  0  0  0  0  0  0
  139.6700   69.6580  223.9440 C   0  0  0  0  0  0  0  0  0  0  0  0
  140.1490   70.0020  225.1910 C   0  0  0  0  0  0  0  0  0  0  0  0
  140.1520   69.0390  226.1620 C   0  0  0  0  0  0  0  0  0  0  0  0
  140.6330   69.4230  227.4130 C   0  0  0  0  0  0  0  0  0  0  0  0
  140.6750   68.2740  228.7200 Cl  0  0  0  0  0  0  0  0  0  0  0  0
  141.0850   70.7040  227.6680 C   0  0  0  0  0  0  0  0  0  0  0  0
  141.0550   71.6370  226.6270 C   0  0  0  0  0  0  0  0  0  0  0  0
  140.5820   71.2960  225.3580 C   0  0  0  0  0  0  0  0  0  0  0  0
  140.5530   72.2190  224.3600 N   0  0  0  0  0  0  0  0  0  0  0  0
  139.5080   74.4890  223.1260 H   0  0  0  0  0  0  0  0  0  0  0  0
  140.1427   74.3136  220.1816 H   0  0  0  0  0  0  0  0  0  0  0  0
  138.6414   75.2305  220.8589 H   0  0  0  0  0  0  0  0  0  0  0  0
  140.5810   78.3582  218.7437 H   0  0  0  0  0  0  0  0  0  0  0  0
  141.4848   78.8261  220.1780 H   0  0  0  0  0  0  0  0  0  0  0  0
  143.5981   78.1834  219.1798 H   0  0  0  0  0  0  0  0  0  0  0  0
  143.7140   79.1490  217.4220 H   0  0  0  0  0  0  0  0  0  0  0  0
  141.9895   76.5282  217.1524 H   0  0  0  0  0  0  0  0  0  0  0  0
  143.6440   76.2510  217.6367 H   0  0  0  0  0  0  0  0  0  0  0  0
  141.6411   74.8690  218.8831 H   0  0  0  0  0  0  0  0  0  0  0  0
  144.1487   76.1196  219.8825 H   0  0  0  0  0  0  0  0  0  0  0  0
  142.9639   75.4274  221.0987 H   0  0  0  0  0  0  0  0  0  0  0  0
  142.1124   72.3520  220.4804 H   0  0  0  0  0  0  0  0  0  0  0  0
  142.5512   69.9427  220.3896 H   0  0  0  0  0  0  0  0  0  0  0  0
  146.5056   70.6400  219.0116 H   0  0  0  0  0  0  0  0  0  0  0  0
  146.1437   73.0741  219.0745 H   0  0  0  0  0  0  0  0  0  0  0  0
  139.2433   70.2952  221.9176 H   0  0  0  0  0  0  0  0  0  0  0  0
  139.3142   68.6322  223.7674 H   0  0  0  0  0  0  0  0  0  0  0  0
  139.7944   68.0172  225.9667 H   0  0  0  0  0  0  0  0  0  0  0  0
  141.4588   70.9824  228.6644 H   0  0  0  0  0  0  0  0  0  0  0  0
  141.4114   72.6612  226.8115 H   0  0  0  0  0  0  0  0  0  0  0  0
  1  2  2  0
  2  3  1  0
  3  4  1  0
  4  5  1  0
  5  6  2  0
  5  7  1  0
  7  8  1  0
  8  9  1  0
  9 10  1  0
  9 11  1  0
 11 12  1  0
 12 13  1  0
 13 14  1  0
 14 15  1  0
 15 16  2  0
 16 17  1  0
 17 18  2  0
 18 19  1  0
 18 20  1  0
 20 21  2  0
  2 22  1  0
 22 23  2  0
 23 24  1  0
 24 25  2  0
 25 26  1  0
 26 27  2  0
 27 28  1  0
 27 29  1  0
 29 30  2  0
 30 31  1  0
 31 32  2  0
 12  7  1  0
 21 15  1  0
 32 22  1  0
 31 25  1  0
  3 33  1  0
  4 34  1  0
  4 35  1  0
  8 36  1  0
  8 37  1  0
  9 38  1  1
 10 39  1  0
 11 40  1  0
 11 41  1  0
 12 42  1  6
 13 43  1  0
 13 44  1  0
 16 45  1  0
 17 46  1  0
 20 47  1  0
 21 48  1  0
 23 49  1  0
 24 50  1  0
 26 51  1  0
 29 52  1  0
 30 53  1  0
M  END
>  <smiles>  (22) 
O=C(NCC(=O)N1C[C@H](O)C[C@H]1COc1ccc(Cl)cc1)c1ccc2cc(Cl)ccc2n1

>  <score_type>  (22) 
oracle

>  <origin>  (22) 
autodockgpu

>  <m_score__min__energy>  (22) 
-8.4800000000000004

>  <m_primary>  (22) 
energy

>  <rmsd>  (22) 
2.276582169344623

>  <m_score__min__rmsd>  (22) 
2.276582169344623

>  <meeko>  (22) 
{"free_energy": -7.94, "intermolecular_energy": -10.33, "internal_energy": -1.77, "cluster_size": 5, "cluster_id": 3, "rank_in_cluster": 1}

>  <energy>  (22) 
-6.75

>  <cluster_rmsd>  (22) 
1.72

>  <cluster>  (22) 
1

$$$$

     RDKit          3D

 53 56  0  0  0  0  0  0  0  0999 V2000
  137.7780   71.5960  220.7650 O   0  0  0  0  0  0  0  0  0  0  0  0
  138.3640   72.1210  221.7760 C   0  0  0  0  0  0  0  0  0  0  0  0
  138.5660   73.5480  221.6670 N   0  0  0  0  0  0  0  0  0  0  0  0
  138.0900   74.1640  220.4860 C   0  0  0  0  0  0  0  0  0  0  0  0
  139.0040   74.5140  219.4150 C   0  0  0  0  0  0  0  0  0  0  0  0
  138.4840   74.4010  218.2200 O   0  0  0  0  0  0  0  0  0  0  0  0
  140.3520   74.9510  219.4770 N   0  0  0  0  0  0  0  0  0  0  0  0
  140.9820   76.1560  219.0120 C   0  0  0  0  0  0  0  0  0  0  0  0
  142.3470   76.1290  219.6520 C   0  0  2  0  0  0  0  0  0  0  0  0
  143.2900   76.8630  218.9220 O   0  0  0  0  0  0  0  0  0  0  0  0
  142.6840   74.6670  219.6950 C   0  0  0  0  0  0  0  0  0  0  0  0
  141.3730   74.0480  220.0860 C   0  0  1  0  0  0  0  0  0  0  0  0
  141.2550   74.0600  221.6030 C   0  0  0  0  0  0  0  0  0  0  0  0
  140.8140   75.1920  222.1020 O   0  0  0  0  0  0  0  0  0  0  0  0
  140.3700   76.3570  222.3960 C   0  0  0  0  0  0  0  0  0  0  0  0
  138.9530   76.5430  222.4230 C   0  0  0  0  0  0  0  0  0  0  0  0
  138.3930   77.7480  222.7280 C   0  0  0  0  0  0  0  0  0  0  0  0
  139.1840   78.8040  223.0120 C   0  0  0  0  0  0  0  0  0  0  0  0
  138.4440   80.3320  223.4040 Cl  0  0  0  0  0  0  0  0  0  0  0  0
  140.5280   78.7060  223.0060 C   0  0  0  0  0  0  0  0  0  0  0  0
  141.1260   77.5050  222.7030 C   0  0  0  0  0  0  0  0  0  0  0  0
  138.7840   71.3440  222.9230 C   0  0  0  0  0  0  0  0  0  0  0  0
  138.3740   70.0090  222.9450 C   0  0  0  0  0  0  0  0  0  0  0  0
  138.7680   69.2120  224.0110 C   0  0  0  0  0  0  0  0  0  0  0  0
  139.5460   69.7140  225.0330 C   0  0  0  0  0  0  0  0  0  0  0  0
  139.8870   68.8680  226.0510 C   0  0  0  0  0  0  0  0  0  0  0  0
  140.6660   69.4110  227.0730 C   0  0  0  0  0  0  0  0  0  0  0  0
  141.1500   68.4190  228.4180 Cl  0  0  0  0  0  0  0  0  0  0  0  0
  141.0760   70.7300  227.0650 C   0  0  0  0  0  0  0  0  0  0  0  0
  140.6930   71.5380  225.9900 C   0  0  0  0  0  0  0  0  0  0  0  0
  139.9130   71.0360  224.9450 C   0  0  0  0  0  0  0  0  0  0  0  0
  139.5430   71.8390  223.9120 N   0  0  0  0  0  0  0  0  0  0  0  0
  139.0380   73.9700  222.4850 H   0  0  0  0  0  0  0  0  0  0  0  0
  137.3450   73.4803  220.0529 H   0  0  0  0  0  0  0  0  0  0  0  0
  137.7423   75.1446  220.8430 H   0  0  0  0  0  0  0  0  0  0  0  0
  141.0651   76.1548  217.9151 H   0  0  0  0  0  0  0  0  0  0  0  0
  140.4109   77.0588  219.2743 H   0  0  0  0  0  0  0  0  0  0  0  0
  142.3550   76.5977  220.6471 H   0  0  0  0  0  0  0  0  0  0  0  0
  143.6930   77.5020  219.5620 H   0  0  0  0  0  0  0  0  0  0  0  0
  143.0173   74.3059  218.7109 H   0  0  0  0  0  0  0  0  0  0  0  0
  143.5079   74.4249  220.3824 H   0  0  0  0  0  0  0  0  0  0  0  0
  141.2595   73.0061  219.7519 H   0  0  0  0  0  0  0  0  0  0  0  0
  140.5623   73.2591  221.9010 H   0  0  0  0  0  0  0  0  0  0  0  0
  142.2711   73.9159  221.9991 H   0  0  0  0  0  0  0  0  0  0  0  0
  138.2968   75.6911  222.1915 H   0  0  0  0  0  0  0  0  0  0  0  0
  137.2988   77.8593  222.7426 H   0  0  0  0  0  0  0  0  0  0  0  0
  141.1457   79.5848  223.2430 H   0  0  0  0  0  0  0  0  0  0  0  0
  142.2240   77.4393  222.7004 H   0  0  0  0  0  0  0  0  0  0  0  0
  137.7526   69.5983  222.1355 H   0  0  0  0  0  0  0  0  0  0  0  0
  138.4532   68.1584  224.0412 H   0  0  0  0  0  0  0  0  0  0  0  0
  139.5647   67.8163  226.0637 H   0  0  0  0  0  0  0  0  0  0  0  0
  141.6887   71.1348  227.8840 H   0  0  0  0  0  0  0  0  0  0  0  0
  141.0123   72.5904  225.9665 H   0  0  0  0  0  0  0  0  0  0  0  0
  1  2  2  0
  2  3  1  0
  3  4  1  0
  4  5  1  0
  5  6  2  0
  5  7  1  0
  7  8  1  0
  8  9  1  0
  9 10  1  0
  9 11  1  0
 11 12  1  0
 12 13  1  0
 13 14  1  0
 14 15  1  0
 15 16  2  0
 16 17  1  0
 17 18  2  0
 18 19  1  0
 18 20  1  0
 20 21  2  0
  2 22  1  0
 22 23  2  0
 23 24  1  0
 24 25  2  0
 25 26  1  0
 26 27  2  0
 27 28  1  0
 27 29  1  0
 29 30  2  0
 30 31  1  0
 31 32  2  0
 12  7  1  0
 21 15  1  0
 32 22  1  0
 31 25  1  0
  3 33  1  0
  4 34  1  0
  4 35  1  0
  8 36  1  0
  8 37  1  0
  9 38  1  1
 10 39  1  0
 11 40  1  0
 11 41  1  0
 12 42  1  6
 13 43  1  0
 13 44  1  0
 16 45  1  0
 17 46  1  0
 20 47  1  0
 21 48  1  0
 23 49  1  0
 24 50  1  0
 26 51  1  0
 29 52  1  0
 30 53  1  0
M  END
>  <smiles>  (23) 
O=C(NCC(=O)N1C[C@H](O)C[C@H]1COc1ccc(Cl)cc1)c1ccc2cc(Cl)ccc2n1

>  <score_type>  (23) 
oracle

>  <origin>  (23) 
autodockgpu

>  <m_score__min__energy>  (23) 
-8.4800000000000004

>  <m_primary>  (23) 
energy

>  <rmsd>  (23) 
2.184704564377393

>  <m_score__min__rmsd>  (23) 
2.184704564377393

>  <meeko>  (23) 
{"free_energy": -7.43, "intermolecular_energy": -9.82, "internal_energy": -2.67, "cluster_size": 22, "cluster_id": 1, "rank_in_cluster": 11}

>  <energy>  (23) 
-8.23

>  <cluster_rmsd>  (23) 
0.0

>  <cluster>  (23) 
2

$$$$

     RDKit          3D

 53 56  0  0  0  0  0  0  0  0999 V2000
  140.2280   71.9580  220.8880 O   0  0  0  0  0  0  0  0  0  0  0  0
  139.9350   72.3650  222.0670 C   0  0  0  0  0  0  0  0  0  0  0  0
  139.5370   73.7540  222.1300 N   0  0  0  0  0  0  0  0  0  0  0  0
  139.5150   74.4610  220.9050 C   0  0  0  0  0  0  0  0  0  0  0  0
  140.7470   74.9360  220.3050 C   0  0  0  0  0  0  0  0  0  0  0  0
  141.8220   74.5960  220.9670 O   0  0  0  0  0  0  0  0  0  0  0  0
  140.9490   75.7020  219.1280 N   0  0  0  0  0  0  0  0  0  0  0  0
  140.0290   76.4350  218.3020 C   0  0  0  0  0  0  0  0  0  0  0  0
  140.9160   77.2580  217.4020 C   0  0  2  0  0  0  0  0  0  0  0  0
  140.2870   77.5900  216.1970 O   0  0  0  0  0  0  0  0  0  0  0  0
  142.1110   76.3750  217.1880 C   0  0  0  0  0  0  0  0  0  0  0  0
  142.3240   75.7890  218.5540 C   0  0  1  0  0  0  0  0  0  0  0  0
  143.1820   76.7430  219.3720 C   0  0  0  0  0  0  0  0  0  0  0  0
  142.5200   77.4210  220.2810 O   0  0  0  0  0  0  0  0  0  0  0  0
  141.8350   78.2130  221.0180 C   0  0  0  0  0  0  0  0  0  0  0  0
  141.0470   77.6390  222.0630 C   0  0  0  0  0  0  0  0  0  0  0  0
  140.2890   78.4080  222.8960 C   0  0  0  0  0  0  0  0  0  0  0  0
  140.2700   79.7480  222.7420 C   0  0  0  0  0  0  0  0  0  0  0  0
  139.2990   80.7090  223.8230 Cl  0  0  0  0  0  0  0  0  0  0  0  0
  140.9860   80.3620  221.7790 C   0  0  0  0  0  0  0  0  0  0  0  0
  141.7620   79.6170  220.9210 C   0  0  0  0  0  0  0  0  0  0  0  0
  140.0000   71.5030  223.2280 C   0  0  0  0  0  0  0  0  0  0  0  0
  139.5260   70.2010  223.0540 C   0  0  0  0  0  0  0  0  0  0  0  0
  139.5860   69.3240  224.1290 C   0  0  0  0  0  0  0  0  0  0  0  0
  140.0970   69.7190  225.3480 C   0  0  0  0  0  0  0  0  0  0  0  0
  140.1150   68.7990  226.3590 C   0  0  0  0  0  0  0  0  0  0  0  0
  140.6300   69.2340  227.5810 C   0  0  0  0  0  0  0  0  0  0  0  0
  140.6940   68.1430  228.9360 Cl  0  0  0  0  0  0  0  0  0  0  0  0
  141.0990   70.5200  227.7680 C   0  0  0  0  0  0  0  0  0  0  0  0
  141.0520   71.4070  226.6880 C   0  0  0  0  0  0  0  0  0  0  0  0
  140.5450   71.0140  225.4460 C   0  0  0  0  0  0  0  0  0  0  0  0
  140.5000   71.8930  224.4100 N   0  0  0  0  0  0  0  0  0  0  0  0
  139.2980   74.0800  223.0820 H   0  0  0  0  0  0  0  0  0  0  0  0
  139.0409   73.7972  220.1670 H   0  0  0  0  0  0  0  0  0  0  0  0
  138.9934   75.3932  221.1677 H   0  0  0  0  0  0  0  0  0  0  0  0
  139.4029   75.7495  217.7120 H   0  0  0  0  0  0  0  0  0  0  0  0
  139.3350   77.0535  218.8901 H   0  0  0  0  0  0  0  0  0  0  0  0
  141.1782   78.2308  217.8434 H   0  0  0  0  0  0  0  0  0  0  0  0
  140.5860   76.9150  215.5380 H   0  0  0  0  0  0  0  0  0  0  0  0
  141.8991   75.5906  216.4465 H   0  0  0  0  0  0  0  0  0  0  0  0
  142.9890   76.9092  216.7959 H   0  0  0  0  0  0  0  0  0  0  0  0
  142.8319   74.8134  218.5413 H   0  0  0  0  0  0  0  0  0  0  0  0
  143.9614   76.1560  219.8798 H   0  0  0  0  0  0  0  0  0  0  0  0
  143.5933   77.4802  218.6667 H   0  0  0  0  0  0  0  0  0  0  0  0
  141.0520   76.5475  222.1991 H   0  0  0  0  0  0  0  0  0  0  0  0
  139.6941   77.9364  223.6921 H   0  0  0  0  0  0  0  0  0  0  0  0
  140.9500   81.4569  221.6792 H   0  0  0  0  0  0  0  0  0  0  0  0
  142.3404   80.1307  220.1390 H   0  0  0  0  0  0  0  0  0  0  0  0
  139.1142   69.8773  222.0867 H   0  0  0  0  0  0  0  0  0  0  0  0
  139.2189   68.2943  224.0062 H   0  0  0  0  0  0  0  0  0  0  0  0
  139.7443   67.7731  226.2172 H   0  0  0  0  0  0  0  0  0  0  0  0
  141.4993   70.8381  228.7419 H   0  0  0  0  0  0  0  0  0  0  0  0
  141.4215   72.4348  226.8184 H   0  0  0  0  0  0  0  0  0  0  0  0
  1  2  2  0
  2  3  1  0
  3  4  1  0
  4  5  1  0
  5  6  2  0
  5  7  1  0
  7  8  1  0
  8  9  1  0
  9 10  1  0
  9 11  1  0
 11 12  1  0
 12 13  1  0
 13 14  1  0
 14 15  1  0
 15 16  2  0
 16 17  1  0
 17 18  2  0
 18 19  1  0
 18 20  1  0
 20 21  2  0
  2 22  1  0
 22 23  2  0
 23 24  1  0
 24 25  2  0
 25 26  1  0
 26 27  2  0
 27 28  1  0
 27 29  1  0
 29 30  2  0
 30 31  1  0
 31 32  2  0
 12  7  1  0
 21 15  1  0
 32 22  1  0
 31 25  1  0
  3 33  1  0
  4 34  1  0
  4 35  1  0
  8 36  1  0
  8 37  1  0
  9 38  1  1
 10 39  1  0
 11 40  1  0
 11 41  1  0
 12 42  1  6
 13 43  1  0
 13 44  1  0
 16 45  1  0
 17 46  1  0
 20 47  1  0
 21 48  1  0
 23 49  1  0
 24 50  1  0
 26 51  1  0
 29 52  1  0
 30 53  1  0
M  END
>  <smiles>  (24) 
O=C(NCC(=O)N1C[C@H](O)C[C@H]1COc1ccc(Cl)cc1)c1ccc2cc(Cl)ccc2n1

>  <score_type>  (24) 
oracle

>  <origin>  (24) 
autodockgpu

>  <m_score__min__energy>  (24) 
-8.4800000000000004

>  <m_primary>  (24) 
energy

>  <rmsd>  (24) 
1.6026214716712819

>  <m_score__min__rmsd>  (24) 
1.6026214716712819

>  <meeko>  (24) 
{"free_energy": -7.14, "intermolecular_energy": -9.53, "internal_energy": -1.76, "cluster_size": 1, "cluster_id": 8, "rank_in_cluster": 1}

>  <energy>  (24) 
-7.71

>  <cluster_rmsd>  (24) 
0.91

>  <cluster>  (24) 
2

$$$$

     RDKit          3D

 53 56  0  0  0  0  0  0  0  0999 V2000
  140.3500   72.3790  220.7200 O   0  0  0  0  0  0  0  0  0  0  0  0
  139.8810   72.7250  221.8620 C   0  0  0  0  0  0  0  0  0  0  0  0
  139.2830   74.0410  221.8810 N   0  0  0  0  0  0  0  0  0  0  0  0
  139.2870   74.7540  220.6590 C   0  0  0  0  0  0  0  0  0  0  0  0
  139.3160   76.2050  220.6500 C   0  0  0  0  0  0  0  0  0  0  0  0
  138.5740   76.7410  219.7160 O   0  0  0  0  0  0  0  0  0  0  0  0
  140.0180   77.1050  221.4920 N   0  0  0  0  0  0  0  0  0  0  0  0
  140.7730   76.8880  222.6950 C   0  0  0  0  0  0  0  0  0  0  0  0
  141.5010   78.1910  222.9140 C   0  0  2  0  0  0  0  0  0  0  0  0
  141.8230   78.3990  224.2600 O   0  0  0  0  0  0  0  0  0  0  0  0
  140.5360   79.2200  222.4010 C   0  0  0  0  0  0  0  0  0  0  0  0
  139.9930   78.5610  221.1650 C   0  0  1  0  0  0  0  0  0  0  0  0
  140.9240   78.8600  219.9990 C   0  0  0  0  0  0  0  0  0  0  0  0
  141.6060   77.8220  219.5720 O   0  0  0  0  0  0  0  0  0  0  0  0
  142.3160   76.7790  219.3520 C   0  0  0  0  0  0  0  0  0  0  0  0
  142.9080   76.6360  218.0590 C   0  0  0  0  0  0  0  0  0  0  0  0
  143.6800   75.5590  217.7380 C   0  0  0  0  0  0  0  0  0  0  0  0
  143.9010   74.5940  218.6550 C   0  0  0  0  0  0  0  0  0  0  0  0
  144.8960   73.2300  218.2230 Cl  0  0  0  0  0  0  0  0  0  0  0  0
  143.3760   74.6580  219.8950 C   0  0  0  0  0  0  0  0  0  0  0  0
  142.5920   75.7310  220.2510 C   0  0  0  0  0  0  0  0  0  0  0  0
  139.9490   71.8660  223.0240 C   0  0  0  0  0  0  0  0  0  0  0  0
  139.4510   70.5710  222.8620 C   0  0  0  0  0  0  0  0  0  0  0  0
  139.5120   69.6970  223.9390 C   0  0  0  0  0  0  0  0  0  0  0  0
  140.0490   70.0860  225.1480 C   0  0  0  0  0  0  0  0  0  0  0  0
  140.0670   69.1700  226.1630 C   0  0  0  0  0  0  0  0  0  0  0  0
  140.6080   69.5990  227.3740 C   0  0  0  0  0  0  0  0  0  0  0  0
  140.6740   68.5120  228.7320 Cl  0  0  0  0  0  0  0  0  0  0  0  0
  141.1010   70.8780  227.5500 C   0  0  0  0  0  0  0  0  0  0  0  0
  141.0530   71.7620  226.4670 C   0  0  0  0  0  0  0  0  0  0  0  0
  140.5210   71.3740  225.2350 C   0  0  0  0  0  0  0  0  0  0  0  0
  140.4740   72.2510  224.1970 N   0  0  0  0  0  0  0  0  0  0  0  0
  138.9030   74.3170  222.8020 H   0  0  0  0  0  0  0  0  0  0  0  0
  140.1739   74.4182  220.1017 H   0  0  0  0  0  0  0  0  0  0  0  0
  138.2972   74.5250  220.2372 H   0  0  0  0  0  0  0  0  0  0  0  0
  140.1049   76.6673  223.5406 H   0  0  0  0  0  0  0  0  0  0  0  0
  141.4576   76.0308  222.6144 H   0  0  0  0  0  0  0  0  0  0  0  0
  142.4724   78.2231  222.3989 H   0  0  0  0  0  0  0  0  0  0  0  0
  142.3100   77.5880  224.5520 H   0  0  0  0  0  0  0  0  0  0  0  0
  139.7373   79.4164  223.1314 H   0  0  0  0  0  0  0  0  0  0  0  0
  140.9970   80.2005  222.2112 H   0  0  0  0  0  0  0  0  0  0  0  0
  138.9871   78.9069  220.8849 H   0  0  0  0  0  0  0  0  0  0  0  0
  140.3184   79.2416  219.1637 H   0  0  0  0  0  0  0  0  0  0  0  0
  141.6597   79.5922  220.3631 H   0  0  0  0  0  0  0  0  0  0  0  0
  142.7362   77.4158  217.3025 H   0  0  0  0  0  0  0  0  0  0  0  0
  144.1216   75.4769  216.7339 H   0  0  0  0  0  0  0  0  0  0  0  0
  143.5739   73.8547  220.6200 H   0  0  0  0  0  0  0  0  0  0  0  0
  142.1692   75.7713  221.2657 H   0  0  0  0  0  0  0  0  0  0  0  0
  139.0199   70.2507  221.9020 H   0  0  0  0  0  0  0  0  0  0  0  0
  139.1242   68.6739  223.8256 H   0  0  0  0  0  0  0  0  0  0  0  0
  139.6760   68.1503  226.0312 H   0  0  0  0  0  0  0  0  0  0  0  0
  141.5204   71.1928  228.5170 H   0  0  0  0  0  0  0  0  0  0  0  0
  141.4422   72.7837  226.5880 H   0  0  0  0  0  0  0  0  0  0  0  0
  1  2  2  0
  2  3  1  0
  3  4  1  0
  4  5  1  0
  5  6  2  0
  5  7  1  0
  7  8  1  0
  8  9  1  0
  9 10  1  0
  9 11  1  0
 11 12  1  0
 12 13  1  0
 13 14  1  0
 14 15  1  0
 15 16  2  0
 16 17  1  0
 17 18  2  0
 18 19  1  0
 18 20  1  0
 20 21  2  0
  2 22  1  0
 22 23  2  0
 23 24  1  0
 24 25  2  0
 25 26  1  0
 26 27  2  0
 27 28  1  0
 27 29  1  0
 29 30  2  0
 30 31  1  0
 31 32  2  0
 12  7  1  0
 21 15  1  0
 32 22  1  0
 31 25  1  0
  3 33  1  0
  4 34  1  0
  4 35  1  0
  8 36  1  0
  8 37  1  0
  9 38  1  6
 10 39  1  0
 11 40  1  0
 11 41  1  0
 12 42  1  6
 13 43  1  0
 13 44  1  0
 16 45  1  0
 17 46  1  0
 20 47  1  0
 21 48  1  0
 23 49  1  0
 24 50  1  0
 26 51  1  0
 29 52  1  0
 30 53  1  0
M  END
>  <smiles>  (25) 
O=C(NCC(=O)N1C[C@H](O)C[C@H]1COc1ccc(Cl)cc1)c1ccc2cc(Cl)ccc2n1

>  <score_type>  (25) 
oracle

>  <origin>  (25) 
autodockgpu

>  <m_score__min__energy>  (25) 
-8.4800000000000004

>  <m_primary>  (25) 
energy

>  <rmsd>  (25) 
2.970717455593616

>  <m_score__min__rmsd>  (25) 
2.970717455593616

>  <meeko>  (25) 
{"free_energy": -7.22, "intermolecular_energy": -9.61, "internal_energy": -1.88, "cluster_size": 4, "cluster_id": 4, "rank_in_cluster": 3}

>  <energy>  (25) 
-7.66

>  <cluster_rmsd>  (25) 
1.33

>  <cluster>  (25) 
2

$$$$

     RDKit          3D

 53 56  0  0  0  0  0  0  0  0999 V2000
  139.9970   72.3840  220.7450 O   0  0  0  0  0  0  0  0  0  0  0  0
  139.6580   72.7340  221.9310 C   0  0  0  0  0  0  0  0  0  0  0  0
  139.1130   74.0700  222.0190 N   0  0  0  0  0  0  0  0  0  0  0  0
  139.0200   74.7960  220.8080 C   0  0  0  0  0  0  0  0  0  0  0  0
  138.9610   76.2450  220.8180 C   0  0  0  0  0  0  0  0  0  0  0  0
  137.9280   76.7350  220.1840 O   0  0  0  0  0  0  0  0  0  0  0  0
  139.8450   77.1870  221.4050 N   0  0  0  0  0  0  0  0  0  0  0  0
  140.4080   77.2680  222.7240 C   0  0  0  0  0  0  0  0  0  0  0  0
  141.4850   78.3160  222.6030 C   0  0  2  0  0  0  0  0  0  0  0  0
  141.7570   78.9410  223.8250 O   0  0  0  0  0  0  0  0  0  0  0  0
  140.9250   79.2770  221.5930 C   0  0  0  0  0  0  0  0  0  0  0  0
  140.2960   78.3530  220.5900 C   0  0  1  0  0  0  0  0  0  0  0  0
  141.3550   77.9220  219.5850 C   0  0  0  0  0  0  0  0  0  0  0  0
  141.9120   76.7630  219.8510 O   0  0  0  0  0  0  0  0  0  0  0  0
  142.5600   75.6620  219.9370 C   0  0  0  0  0  0  0  0  0  0  0  0
  143.6480   75.4550  219.0340 C   0  0  0  0  0  0  0  0  0  0  0  0
  144.3930   74.3130  219.0580 C   0  0  0  0  0  0  0  0  0  0  0  0
  144.1090   73.3430  219.9510 C   0  0  0  0  0  0  0  0  0  0  0  0
  145.0790   71.8960  219.9640 Cl  0  0  0  0  0  0  0  0  0  0  0  0
  143.0970   73.4650  220.8340 C   0  0  0  0  0  0  0  0  0  0  0  0
  142.3250   74.6040  220.8370 C   0  0  0  0  0  0  0  0  0  0  0  0
  139.8110   71.8600  223.0740 C   0  0  0  0  0  0  0  0  0  0  0  0
  139.4300   70.5300  222.8880 C   0  0  0  0  0  0  0  0  0  0  0  0
  139.5770   69.6430  223.9450 C   0  0  0  0  0  0  0  0  0  0  0  0
  140.0850   70.0540  225.1600 C   0  0  0  0  0  0  0  0  0  0  0  0
  140.1930   69.1220  226.1550 C   0  0  0  0  0  0  0  0  0  0  0  0
  140.7010   69.5740  227.3730 C   0  0  0  0  0  0  0  0  0  0  0  0
  140.8740   68.4690  228.7060 Cl  0  0  0  0  0  0  0  0  0  0  0  0
  141.0790   70.8870  227.5730 C   0  0  0  0  0  0  0  0  0  0  0  0
  140.9440   71.7860  226.5090 C   0  0  0  0  0  0  0  0  0  0  0  0
  140.4400   71.3770  225.2720 C   0  0  0  0  0  0  0  0  0  0  0  0
  140.3070   72.2670  224.2520 N   0  0  0  0  0  0  0  0  0  0  0  0
  138.8390   74.3500  222.9760 H   0  0  0  0  0  0  0  0  0  0  0  0
  139.9001   74.5212  220.2081 H   0  0  0  0  0  0  0  0  0  0  0  0
  138.0281   74.5120  220.4265 H   0  0  0  0  0  0  0  0  0  0  0  0
  139.6457   77.5747  223.4553 H   0  0  0  0  0  0  0  0  0  0  0  0
  140.7983   76.3015  223.0755 H   0  0  0  0  0  0  0  0  0  0  0  0
  142.4530   77.8918  222.2979 H   0  0  0  0  0  0  0  0  0  0  0  0
  142.7410   78.9100  223.9340 H   0  0  0  0  0  0  0  0  0  0  0  0
  140.1757   79.9416  222.0477 H   0  0  0  0  0  0  0  0  0  0  0  0
  141.6787   79.9513  221.1601 H   0  0  0  0  0  0  0  0  0  0  0  0
  139.4693   78.8101  220.0264 H   0  0  0  0  0  0  0  0  0  0  0  0
  140.8832   77.8581  218.5934 H   0  0  0  0  0  0  0  0  0  0  0  0
  142.1563   78.6743  219.6293 H   0  0  0  0  0  0  0  0  0  0  0  0
  143.8910   76.2375  218.3001 H   0  0  0  0  0  0  0  0  0  0  0  0
  145.2246   74.1831  218.3498 H   0  0  0  0  0  0  0  0  0  0  0  0
  142.8893   72.6561  221.5499 H   0  0  0  0  0  0  0  0  0  0  0  0
  141.5021   74.6908  221.5618 H   0  0  0  0  0  0  0  0  0  0  0  0
  139.0219   70.1922  221.9240 H   0  0  0  0  0  0  0  0  0  0  0  0
  139.2827   68.5915  223.8115 H   0  0  0  0  0  0  0  0  0  0  0  0
  139.8957   68.0739  226.0032 H   0  0  0  0  0  0  0  0  0  0  0  0
  141.4761   71.2179  228.5440 H   0  0  0  0  0  0  0  0  0  0  0  0
  141.2407   72.8359  226.6496 H   0  0  0  0  0  0  0  0  0  0  0  0
  1  2  2  0
  2  3  1  0
  3  4  1  0
  4  5  1  0
  5  6  2  0
  5  7  1  0
  7  8  1  0
  8  9  1  0
  9 10  1  0
  9 11  1  0
 11 12  1  0
 12 13  1  0
 13 14  1  0
 14 15  1  0
 15 16  2  0
 16 17  1  0
 17 18  2  0
 18 19  1  0
 18 20  1  0
 20 21  2  0
  2 22  1  0
 22 23  2  0
 23 24  1  0
 24 25  2  0
 25 26  1  0
 26 27  2  0
 27 28  1  0
 27 29  1  0
 29 30  2  0
 30 31  1  0
 31 32  2  0
 12  7  1  0
 21 15  1  0
 32 22  1  0
 31 25  1  0
  3 33  1  0
  4 34  1  0
  4 35  1  0
  8 36  1  0
  8 37  1  0
  9 38  1  6
 10 39  1  0
 11 40  1  0
 11 41  1  0
 12 42  1  6
 13 43  1  0
 13 44  1  0
 16 45  1  0
 17 46  1  0
 20 47  1  0
 21 48  1  0
 23 49  1  0
 24 50  1  0
 26 51  1  0
 29 52  1  0
 30 53  1  0
M  END
>  <smiles>  (26) 
O=C(NCC(=O)N1C[C@H](O)C[C@H]1COc1ccc(Cl)cc1)c1ccc2cc(Cl)ccc2n1

>  <score_type>  (26) 
oracle

>  <origin>  (26) 
autodockgpu

>  <m_score__min__energy>  (26) 
-8.4800000000000004

>  <m_primary>  (26) 
energy

>  <rmsd>  (26) 
2.826109598516359

>  <m_score__min__rmsd>  (26) 
2.826109598516359

>  <meeko>  (26) 
{"free_energy": -7.36, "intermolecular_energy": -9.74, "internal_energy": -2.09, "cluster_size": 5, "cluster_id": 3, "rank_in_cluster": 4}

>  <energy>  (26) 
-7.42

>  <cluster_rmsd>  (26) 
1.76

>  <cluster>  (26) 
2

$$$$

     RDKit          3D

 53 56  0  0  0  0  0  0  0  0999 V2000
  137.8810   70.7910  221.5380 O   0  0  0  0  0  0  0  0  0  0  0  0
  138.4830   71.5590  222.3690 C   0  0  0  0  0  0  0  0  0  0  0  0
  138.4650   72.9570  221.9990 N   0  0  0  0  0  0  0  0  0  0  0  0
  137.7910   73.2850  220.7990 C   0  0  0  0  0  0  0  0  0  0  0  0
  137.1320   74.5680  220.6490 C   0  0  0  0  0  0  0  0  0  0  0  0
  136.2520   74.6000  219.6820 O   0  0  0  0  0  0  0  0  0  0  0  0
  137.3030   75.7690  221.3850 N   0  0  0  0  0  0  0  0  0  0  0  0
  136.3700   76.5650  222.1340 C   0  0  0  0  0  0  0  0  0  0  0  0
  137.2400   77.5230  222.9080 C   0  0  2  0  0  0  0  0  0  0  0  0
  136.5650   78.7030  223.2400 O   0  0  0  0  0  0  0  0  0  0  0  0
  138.3920   77.7760  221.9800 C   0  0  0  0  0  0  0  0  0  0  0  0
  138.6510   76.4100  221.4110 C   0  0  1  0  0  0  0  0  0  0  0  0
  139.5800   75.6540  222.3500 C   0  0  0  0  0  0  0  0  0  0  0  0
  140.4750   74.9090  221.7410 O   0  0  0  0  0  0  0  0  0  0  0  0
  141.4570   74.2050  221.3170 C   0  0  0  0  0  0  0  0  0  0  0  0
  142.5770   74.8920  220.7550 C   0  0  0  0  0  0  0  0  0  0  0  0
  143.6660   74.2220  220.2810 C   0  0  0  0  0  0  0  0  0  0  0  0
  143.7030   72.8750  220.3380 C   0  0  0  0  0  0  0  0  0  0  0  0
  145.1080   72.0420  219.7320 Cl  0  0  0  0  0  0  0  0  0  0  0  0
  142.6850   72.1570  220.8540 C   0  0  0  0  0  0  0  0  0  0  0  0
  141.5710   72.8010  221.3400 C   0  0  0  0  0  0  0  0  0  0  0  0
  139.1210   71.0610  223.5680 C   0  0  0  0  0  0  0  0  0  0  0  0
  140.0840   71.8940  224.1430 C   0  0  0  0  0  0  0  0  0  0  0  0
  140.7120   71.4750  225.3080 C   0  0  0  0  0  0  0  0  0  0  0  0
  140.4040   70.2660  225.8940 C   0  0  0  0  0  0  0  0  0  0  0  0
  141.0720   69.9210  227.0360 C   0  0  0  0  0  0  0  0  0  0  0  0
  140.7430   68.6870  227.5960 C   0  0  0  0  0  0  0  0  0  0  0  0
  141.5380   68.1510  229.0490 Cl  0  0  0  0  0  0  0  0  0  0  0  0
  139.7950   67.8520  227.0370 C   0  0  0  0  0  0  0  0  0  0  0  0
  139.1500   68.2700  225.8690 C   0  0  0  0  0  0  0  0  0  0  0  0
  139.4470   69.4980  225.2730 C   0  0  0  0  0  0  0  0  0  0  0  0
  138.8150   69.8840  224.1330 N   0  0  0  0  0  0  0  0  0  0  0  0
  138.9490   73.5760  222.6720 H   0  0  0  0  0  0  0  0  0  0  0  0
  138.5351   73.2172  219.9917 H   0  0  0  0  0  0  0  0  0  0  0  0
  136.9516   72.5742  220.7861 H   0  0  0  0  0  0  0  0  0  0  0  0
  135.6930   77.1102  221.4599 H   0  0  0  0  0  0  0  0  0  0  0  0
  135.7269   75.9574  222.7876 H   0  0  0  0  0  0  0  0  0  0  0  0
  137.5567   77.1143  223.8789 H   0  0  0  0  0  0  0  0  0  0  0  0
  135.6010   78.4810  223.2160 H   0  0  0  0  0  0  0  0  0  0  0  0
  138.1178   78.4910  221.1903 H   0  0  0  0  0  0  0  0  0  0  0  0
  139.2678   78.2197  222.4760 H   0  0  0  0  0  0  0  0  0  0  0  0
  139.1231   76.4271  220.4176 H   0  0  0  0  0  0  0  0  0  0  0  0
  140.1102   76.3879  222.9748 H   0  0  0  0  0  0  0  0  0  0  0  0
  138.9477   74.9710  222.9363 H   0  0  0  0  0  0  0  0  0  0  0  0
  142.5602   75.9907  220.7034 H   0  0  0  0  0  0  0  0  0  0  0  0
  144.5125   74.7790  219.8530 H   0  0  0  0  0  0  0  0  0  0  0  0
  142.7452   71.0591  220.8862 H   0  0  0  0  0  0  0  0  0  0  0  0
  140.7471   72.2038  221.7578 H   0  0  0  0  0  0  0  0  0  0  0  0
  140.3389   72.8601  223.6830 H   0  0  0  0  0  0  0  0  0  0  0  0
  141.4711   72.1212  225.7731 H   0  0  0  0  0  0  0  0  0  0  0  0
  141.8274   70.5805  227.4881 H   0  0  0  0  0  0  0  0  0  0  0  0
  139.5538   66.8832  227.4989 H   0  0  0  0  0  0  0  0  0  0  0  0
  138.3925   67.6179  225.4096 H   0  0  0  0  0  0  0  0  0  0  0  0
  1  2  2  0
  2  3  1  0
  3  4  1  0
  4  5  1  0
  5  6  2  0
  5  7  1  0
  7  8  1  0
  8  9  1  0
  9 10  1  0
  9 11  1  0
 11 12  1  0
 12 13  1  0
 13 14  1  0
 14 15  1  0
 15 16  2  0
 16 17  1  0
 17 18  2  0
 18 19  1  0
 18 20  1  0
 20 21  2  0
  2 22  1  0
 22 23  2  0
 23 24  1  0
 24 25  2  0
 25 26  1  0
 26 27  2  0
 27 28  1  0
 27 29  1  0
 29 30  2  0
 30 31  1  0
 31 32  2  0
 12  7  1  0
 21 15  1  0
 32 22  1  0
 31 25  1  0
  3 33  1  0
  4 34  1  0
  4 35  1  0
  8 36  1  0
  8 37  1  0
  9 38  1  1
 10 39  1  0
 11 40  1  0
 11 41  1  0
 12 42  1  6
 13 43  1  0
 13 44  1  0
 16 45  1  0
 17 46  1  0
 20 47  1  0
 21 48  1  0
 23 49  1  0
 24 50  1  0
 26 51  1  0
 29 52  1  0
 30 53  1  0
M  END
>  <smiles>  (27) 
O=C(NCC(=O)N1C[C@H](O)C[C@H]1COc1ccc(Cl)cc1)c1ccc2cc(Cl)ccc2n1

>  <score_type>  (27) 
oracle

>  <origin>  (27) 
autodockgpu

>  <m_score__min__energy>  (27) 
-8.4800000000000004

>  <m_primary>  (27) 
energy

>  <rmsd>  (27) 
3.6251659999132566

>  <m_score__min__rmsd>  (27) 
3.6251659999132566

>  <meeko>  (27) 
{"free_energy": -6.85, "intermolecular_energy": -9.23, "internal_energy": -2.27, "cluster_size": 4, "cluster_id": 4, "rank_in_cluster": 4}

>  <energy>  (27) 
-7.94

>  <cluster_rmsd>  (27) 
0.0

>  <cluster>  (27) 
3

$$$$

     RDKit          3D

 53 56  0  0  0  0  0  0  0  0999 V2000
  142.4940   77.4860  217.1300 O   0  0  0  0  0  0  0  0  0  0  0  0
  142.6060   77.9510  218.3190 C   0  0  0  0  0  0  0  0  0  0  0  0
  143.2680   77.0570  219.2430 N   0  0  0  0  0  0  0  0  0  0  0  0
  143.7030   75.8170  218.7190 C   0  0  0  0  0  0  0  0  0  0  0  0
  143.0000   74.5910  219.0430 C   0  0  0  0  0  0  0  0  0  0  0  0
  143.5590   73.5160  218.5500 O   0  0  0  0  0  0  0  0  0  0  0  0
  141.8170   74.3940  219.8010 N   0  0  0  0  0  0  0  0  0  0  0  0
  141.6120   74.2160  221.2120 C   0  0  0  0  0  0  0  0  0  0  0  0
  140.1220   74.3640  221.3910 C   0  0  2  0  0  0  0  0  0  0  0  0
  139.6540   73.6920  222.5260 O   0  0  0  0  0  0  0  0  0  0  0  0
  139.5600   73.7870  220.1240 C   0  0  0  0  0  0  0  0  0  0  0  0
  140.5100   74.3110  219.0850 C   0  0  1  0  0  0  0  0  0  0  0  0
  140.0520   75.6950  218.6520 C   0  0  0  0  0  0  0  0  0  0  0  0
  140.0340   76.5860  219.6170 O   0  0  0  0  0  0  0  0  0  0  0  0
  139.8210   77.4810  220.5080 C   0  0  0  0  0  0  0  0  0  0  0  0
  140.6950   77.5190  221.6380 C   0  0  0  0  0  0  0  0  0  0  0  0
  140.5430   78.4400  222.6330 C   0  0  0  0  0  0  0  0  0  0  0  0
  139.5470   79.3470  222.5620 C   0  0  0  0  0  0  0  0  0  0  0  0
  139.3780   80.5160  223.8420 Cl  0  0  0  0  0  0  0  0  0  0  0  0
  138.6820   79.3730  221.5280 C   0  0  0  0  0  0  0  0  0  0  0  0
  138.8070   78.4590  220.5080 C   0  0  0  0  0  0  0  0  0  0  0  0
  142.1100   79.2580  218.6950 C   0  0  0  0  0  0  0  0  0  0  0  0
  141.4980   79.9980  217.6810 C   0  0  0  0  0  0  0  0  0  0  0  0
  140.9840   81.2500  217.9910 C   0  0  0  0  0  0  0  0  0  0  0  0
  141.0710   81.7640  219.2680 C   0  0  0  0  0  0  0  0  0  0  0  0
  140.5470   83.0070  219.4920 C   0  0  0  0  0  0  0  0  0  0  0  0
  140.6610   83.5000  220.7920 C   0  0  0  0  0  0  0  0  0  0  0  0
  140.0310   85.0750  221.1830 Cl  0  0  0  0  0  0  0  0  0  0  0  0
  141.2670   82.7810  221.8040 C   0  0  0  0  0  0  0  0  0  0  0  0
  141.7790   81.5150  221.5030 C   0  0  0  0  0  0  0  0  0  0  0  0
  141.6860   80.9800  220.2150 C   0  0  0  0  0  0  0  0  0  0  0  0
  142.1970   79.7510  219.9390 N   0  0  0  0  0  0  0  0  0  0  0  0
  143.3590   77.4350  220.2010 H   0  0  0  0  0  0  0  0  0  0  0  0
  143.6797   75.9129  217.6234 H   0  0  0  0  0  0  0  0  0  0  0  0
  144.6809   75.6750  219.2023 H   0  0  0  0  0  0  0  0  0  0  0  0
  141.9461   73.2180  221.5319 H   0  0  0  0  0  0  0  0  0  0  0  0
  142.1825   74.9378  221.8150 H   0  0  0  0  0  0  0  0  0  0  0  0
  139.8189   75.4085  221.5556 H   0  0  0  0  0  0  0  0  0  0  0  0
  138.8410   74.1770  222.8150 H   0  0  0  0  0  0  0  0  0  0  0  0
  139.5653   72.6873  220.1503 H   0  0  0  0  0  0  0  0  0  0  0  0
  138.5111   74.0634  219.9413 H   0  0  0  0  0  0  0  0  0  0  0  0
  140.5689   73.6837  218.1833 H   0  0  0  0  0  0  0  0  0  0  0  0
  140.7331   76.0527  217.8658 H   0  0  0  0  0  0  0  0  0  0  0  0
  139.0142   75.5881  218.3033 H   0  0  0  0  0  0  0  0  0  0  0  0
  141.5123   76.7860  221.7074 H   0  0  0  0  0  0  0  0  0  0  0  0
  141.2311   78.4430  223.4912 H   0  0  0  0  0  0  0  0  0  0  0  0
  137.8783   80.1235  221.5003 H   0  0  0  0  0  0  0  0  0  0  0  0
  138.0959   78.4925  219.6694 H   0  0  0  0  0  0  0  0  0  0  0  0
  141.4248   79.5977  216.6590 H   0  0  0  0  0  0  0  0  0  0  0  0
  140.4979   81.8436  217.2028 H   0  0  0  0  0  0  0  0  0  0  0  0
  140.0626   83.5859  218.6918 H   0  0  0  0  0  0  0  0  0  0  0  0
  141.3448   83.1938  222.8206 H   0  0  0  0  0  0  0  0  0  0  0  0
  142.2650   80.9280  222.2963 H   0  0  0  0  0  0  0  0  0  0  0  0
  1  2  2  0
  2  3  1  0
  3  4  1  0
  4  5  1  0
  5  6  2  0
  5  7  1  0
  7  8  1  0
  8  9  1  0
  9 10  1  0
  9 11  1  0
 11 12  1  0
 12 13  1  0
 13 14  1  0
 14 15  1  0
 15 16  2  0
 16 17  1  0
 17 18  2  0
 18 19  1  0
 18 20  1  0
 20 21  2  0
  2 22  1  0
 22 23  2  0
 23 24  1  0
 24 25  2  0
 25 26  1  0
 26 27  2  0
 27 28  1  0
 27 29  1  0
 29 30  2  0
 30 31  1  0
 31 32  2  0
 12  7  1  0
 21 15  1  0
 32 22  1  0
 31 25  1  0
  3 33  1  0
  4 34  1  0
  4 35  1  0
  8 36  1  0
  8 37  1  0
  9 38  1  1
 10 39  1  0
 11 40  1  0
 11 41  1  0
 12 42  1  6
 13 43  1  0
 13 44  1  0
 16 45  1  0
 17 46  1  0
 20 47  1  0
 21 48  1  0
 23 49  1  0
 24 50  1  0
 26 51  1  0
 29 52  1  0
 30 53  1  0
M  END
>  <smiles>  (28) 
O=C(NCC(=O)N1C[C@H](O)C[C@H]1COc1ccc(Cl)cc1)c1ccc2cc(Cl)ccc2n1

>  <score_type>  (28) 
oracle

>  <origin>  (28) 
autodockgpu

>  <m_score__min__energy>  (28) 
-8.4800000000000004

>  <m_primary>  (28) 
energy

>  <rmsd>  (28) 
9.6709960552573

>  <m_score__min__rmsd>  (28) 
9.6709960552573

>  <meeko>  (28) 
{"free_energy": -5.29, "intermolecular_energy": -7.68, "internal_energy": -3.55, "cluster_size": 2, "cluster_id": 14, "rank_in_cluster": 2}

>  <energy>  (28) 
-7.62

>  <cluster_rmsd>  (28) 
1.46

>  <cluster>  (28) 
3

$$$$

     RDKit          3D

 53 56  0  0  0  0  0  0  0  0999 V2000
  138.8250   71.3330  220.7950 O   0  0  0  0  0  0  0  0  0  0  0  0
  138.9450   72.0060  221.8790 C   0  0  0  0  0  0  0  0  0  0  0  0
  138.5750   73.3980  221.7530 N   0  0  0  0  0  0  0  0  0  0  0  0
  138.1310   73.8210  220.4780 C   0  0  0  0  0  0  0  0  0  0  0  0
  139.0800   74.0730  219.4110 C   0  0  0  0  0  0  0  0  0  0  0  0
  138.7830   73.4730  218.2870 O   0  0  0  0  0  0  0  0  0  0  0  0
  140.2590   74.8620  219.4110 N   0  0  0  0  0  0  0  0  0  0  0  0
  140.5130   76.1910  218.9290 C   0  0  0  0  0  0  0  0  0  0  0  0
  141.8650   76.5390  219.5000 C   0  0  2  0  0  0  0  0  0  0  0  0
  142.5330   77.5010  218.7340 O   0  0  0  0  0  0  0  0  0  0  0  0
  142.5890   75.2240  219.5090 C   0  0  0  0  0  0  0  0  0  0  0  0
  141.5170   74.2720  219.9570 C   0  0  1  0  0  0  0  0  0  0  0  0
  141.4780   74.2550  221.4780 C   0  0  0  0  0  0  0  0  0  0  0  0
  140.8620   75.2830  222.0150 O   0  0  0  0  0  0  0  0  0  0  0  0
  140.2410   76.3530  222.3480 C   0  0  0  0  0  0  0  0  0  0  0  0
  141.0240   77.4850  222.7340 C   0  0  0  0  0  0  0  0  0  0  0  0
  140.4470   78.6650  223.1010 C   0  0  0  0  0  0  0  0  0  0  0  0
  139.1030   78.7830  223.1060 C   0  0  0  0  0  0  0  0  0  0  0  0
  138.3900   80.3020  223.5730 Cl  0  0  0  0  0  0  0  0  0  0  0  0
  138.2990   77.7590  222.7560 C   0  0  0  0  0  0  0  0  0  0  0  0
  138.8480   76.5550  222.3800 C   0  0  0  0  0  0  0  0  0  0  0  0
  139.4100   71.4160  223.1150 C   0  0  0  0  0  0  0  0  0  0  0  0
  140.3960   72.1270  223.8040 C   0  0  0  0  0  0  0  0  0  0  0  0
  140.8630   71.6170  225.0080 C   0  0  0  0  0  0  0  0  0  0  0  0
  140.3740   70.4340  225.5230 C   0  0  0  0  0  0  0  0  0  0  0  0
  140.8900   69.9940  226.7100 C   0  0  0  0  0  0  0  0  0  0  0  0
  140.3810   68.7910  227.1970 C   0  0  0  0  0  0  0  0  0  0  0  0
  140.9740   68.1400  228.6990 Cl  0  0  0  0  0  0  0  0  0  0  0  0
  139.4090   68.0750  226.5260 C   0  0  0  0  0  0  0  0  0  0  0  0
  138.9260   68.5860  225.3170 C   0  0  0  0  0  0  0  0  0  0  0  0
  139.4060   69.7890  224.7920 C   0  0  0  0  0  0  0  0  0  0  0  0
  138.9300   70.2660  223.6110 N   0  0  0  0  0  0  0  0  0  0  0  0
  138.6710   73.9400  222.6290 H   0  0  0  0  0  0  0  0  0  0  0  0
  137.4438   73.0445  220.1108 H   0  0  0  0  0  0  0  0  0  0  0  0
  137.7179   74.8202  220.6806 H   0  0  0  0  0  0  0  0  0  0  0  0
  140.5373   76.2093  217.8294 H   0  0  0  0  0  0  0  0  0  0  0  0
  139.7320   76.9049  219.2296 H   0  0  0  0  0  0  0  0  0  0  0  0
  141.7963   76.9943  220.4990 H   0  0  0  0  0  0  0  0  0  0  0  0
  143.2800   77.8260  219.2950 H   0  0  0  0  0  0  0  0  0  0  0  0
  142.9577   74.9653  218.5054 H   0  0  0  0  0  0  0  0  0  0  0  0
  143.4815   75.2168  220.1519 H   0  0  0  0  0  0  0  0  0  0  0  0
  141.6740   73.2380  219.6161 H   0  0  0  0  0  0  0  0  0  0  0  0
  140.9619   73.3382  221.7990 H   0  0  0  0  0  0  0  0  0  0  0  0
  142.5225   74.3002  221.8201 H   0  0  0  0  0  0  0  0  0  0  0  0
  142.1209   77.4021  222.7350 H   0  0  0  0  0  0  0  0  0  0  0  0
  141.0762   79.5189  223.3924 H   0  0  0  0  0  0  0  0  0  0  0  0
  137.2064   77.8859  222.7710 H   0  0  0  0  0  0  0  0  0  0  0  0
  138.1807   75.7277  222.0967 H   0  0  0  0  0  0  0  0  0  0  0  0
  140.7936   73.0703  223.4013 H   0  0  0  0  0  0  0  0  0  0  0  0
  141.6380   72.1668  225.5621 H   0  0  0  0  0  0  0  0  0  0  0  0
  141.6641   70.5580  227.2510 H   0  0  0  0  0  0  0  0  0  0  0  0
  139.0248   67.1276  226.9319 H   0  0  0  0  0  0  0  0  0  0  0  0
  138.1522   68.0295  224.7679 H   0  0  0  0  0  0  0  0  0  0  0  0
  1  2  2  0
  2  3  1  0
  3  4  1  0
  4  5  1  0
  5  6  2  0
  5  7  1  0
  7  8  1  0
  8  9  1  0
  9 10  1  0
  9 11  1  0
 11 12  1  0
 12 13  1  0
 13 14  1  0
 14 15  1  0
 15 16  2  0
 16 17  1  0
 17 18  2  0
 18 19  1  0
 18 20  1  0
 20 21  2  0
  2 22  1  0
 22 23  2  0
 23 24  1  0
 24 25  2  0
 25 26  1  0
 26 27  2  0
 27 28  1  0
 27 29  1  0
 29 30  2  0
 30 31  1  0
 31 32  2  0
 12  7  1  0
 21 15  1  0
 32 22  1  0
 31 25  1  0
  3 33  1  0
  4 34  1  0
  4 35  1  0
  8 36  1  0
  8 37  1  0
  9 38  1  1
 10 39  1  0
 11 40  1  0
 11 41  1  0
 12 42  1  6
 13 43  1  0
 13 44  1  0
 16 45  1  0
 17 46  1  0
 20 47  1  0
 21 48  1  0
 23 49  1  0
 24 50  1  0
 26 51  1  0
 29 52  1  0
 30 53  1  0
M  END
>  <smiles>  (29) 
O=C(NCC(=O)N1C[C@H](O)C[C@H]1COc1ccc(Cl)cc1)c1ccc2cc(Cl)ccc2n1

>  <score_type>  (29) 
oracle

>  <origin>  (29) 
autodockgpu

>  <m_score__min__energy>  (29) 
-8.4800000000000004

>  <m_primary>  (29) 
energy

>  <rmsd>  (29) 
2.9146686947903615

>  <m_score__min__rmsd>  (29) 
2.9146686947903615

>  <meeko>  (29) 
{"free_energy": -7.46, "intermolecular_energy": -9.84, "internal_energy": -2.29, "cluster_size": 22, "cluster_id": 1, "rank_in_cluster": 10}

>  <energy>  (29) 
-7.39

>  <cluster_rmsd>  (29) 
1.93

>  <cluster>  (29) 
3

$$$$

     RDKit          3D

 53 56  0  0  0  0  0  0  0  0999 V2000
  133.4100   69.9830  226.7610 O   0  0  0  0  0  0  0  0  0  0  0  0
  133.8600   71.0970  226.3170 C   0  0  0  0  0  0  0  0  0  0  0  0
  135.0020   70.9660  225.4400 N   0  0  0  0  0  0  0  0  0  0  0  0
  135.4560   69.6500  225.1870 C   0  0  0  0  0  0  0  0  0  0  0  0
  135.2390   69.0300  223.8940 C   0  0  0  0  0  0  0  0  0  0  0  0
  134.6800   67.8490  223.9620 O   0  0  0  0  0  0  0  0  0  0  0  0
  135.5390   69.5100  222.5930 N   0  0  0  0  0  0  0  0  0  0  0  0
  134.7080   70.1110  221.5870 C   0  0  0  0  0  0  0  0  0  0  0  0
  135.6860   70.6590  220.5790 C   0  0  2  0  0  0  0  0  0  0  0  0
  135.1260   70.7690  219.3010 O   0  0  0  0  0  0  0  0  0  0  0  0
  136.8150   69.6700  220.6150 C   0  0  0  0  0  0  0  0  0  0  0  0
  136.9350   69.3760  222.0830 C   0  0  1  0  0  0  0  0  0  0  0  0
  137.8380   70.4210  222.7220 C   0  0  0  0  0  0  0  0  0  0  0  0
  138.3110   70.0790  223.8990 O   0  0  0  0  0  0  0  0  0  0  0  0
  138.9540   69.7420  224.9540 C   0  0  0  0  0  0  0  0  0  0  0  0
  138.8680   68.3810  225.3810 C   0  0  0  0  0  0  0  0  0  0  0  0
  139.5220   67.9350  226.4920 C   0  0  0  0  0  0  0  0  0  0  0  0
  140.2730   68.7890  227.2180 C   0  0  0  0  0  0  0  0  0  0  0  0
  141.1030   68.1930  228.6290 Cl  0  0  0  0  0  0  0  0  0  0  0  0
  140.4020   70.0870  226.8780 C   0  0  0  0  0  0  0  0  0  0  0  0
  139.7560   70.5700  225.7640 C   0  0  0  0  0  0  0  0  0  0  0  0
  133.2700   72.3710  226.6680 C   0  0  0  0  0  0  0  0  0  0  0  0
  132.0080   72.3210  227.2640 C   0  0  0  0  0  0  0  0  0  0  0  0
  131.4040   73.5120  227.6420 C   0  0  0  0  0  0  0  0  0  0  0  0
  132.0260   74.7260  227.4380 C   0  0  0  0  0  0  0  0  0  0  0  0
  131.3640   75.8560  227.8310 C   0  0  0  0  0  0  0  0  0  0  0  0
  132.0160   77.0670  227.6010 C   0  0  0  0  0  0  0  0  0  0  0  0
  131.2580   78.5650  228.0600 Cl  0  0  0  0  0  0  0  0  0  0  0  0
  133.2630   77.1330  227.0090 C   0  0  0  0  0  0  0  0  0  0  0  0
  133.8820   75.9360  226.6340 C   0  0  0  0  0  0  0  0  0  0  0  0
  133.2660   74.7000  226.8460 C   0  0  0  0  0  0  0  0  0  0  0  0
  133.8810   73.5480  226.4670 N   0  0  0  0  0  0  0  0  0  0  0  0
  135.3630   71.8670  225.0820 H   0  0  0  0  0  0  0  0  0  0  0  0
  136.5430   69.6543  225.3554 H   0  0  0  0  0  0  0  0  0  0  0  0
  134.8338   69.0413  225.8595 H   0  0  0  0  0  0  0  0  0  0  0  0
  134.0504   69.3602  221.1245 H   0  0  0  0  0  0  0  0  0  0  0  0
  134.0452   70.8875  221.9965 H   0  0  0  0  0  0  0  0  0  0  0  0
  136.0082   71.6832  220.8183 H   0  0  0  0  0  0  0  0  0  0  0  0
  134.6260   69.9290  219.1490 H   0  0  0  0  0  0  0  0  0  0  0  0
  136.5676   68.7619  220.0456 H   0  0  0  0  0  0  0  0  0  0  0  0
  137.7449   70.0458  220.1632 H   0  0  0  0  0  0  0  0  0  0  0  0
  137.3642   68.3872  222.3024 H   0  0  0  0  0  0  0  0  0  0  0  0
  138.6884   70.6004  222.0477 H   0  0  0  0  0  0  0  0  0  0  0  0
  137.2206   71.3178  222.8788 H   0  0  0  0  0  0  0  0  0  0  0  0
  138.2585   67.6744  224.7986 H   0  0  0  0  0  0  0  0  0  0  0  0
  139.4372   66.8811  226.7954 H   0  0  0  0  0  0  0  0  0  0  0  0
  141.0224   70.7582  227.4900 H   0  0  0  0  0  0  0  0  0  0  0  0
  139.8686   71.6315  225.4983 H   0  0  0  0  0  0  0  0  0  0  0  0
  131.5033   71.3579  227.4304 H   0  0  0  0  0  0  0  0  0  0  0  0
  130.4104   73.4873  228.1132 H   0  0  0  0  0  0  0  0  0  0  0  0
  130.3713   75.8122  228.3028 H   0  0  0  0  0  0  0  0  0  0  0  0
  133.7558   78.1013  226.8372 H   0  0  0  0  0  0  0  0  0  0  0  0
  134.8751   75.9685  226.1621 H   0  0  0  0  0  0  0  0  0  0  0  0
  1  2  2  0
  2  3  1  0
  3  4  1  0
  4  5  1  0
  5  6  2  0
  5  7  1  0
  7  8  1  0
  8  9  1  0
  9 10  1  0
  9 11  1  0
 11 12  1  0
 12 13  1  0
 13 14  1  0
 14 15  1  0
 15 16  2  0
 16 17  1  0
 17 18  2  0
 18 19  1  0
 18 20  1  0
 20 21  2  0
  2 22  1  0
 22 23  2  0
 23 24  1  0
 24 25  2  0
 25 26  1  0
 26 27  2  0
 27 28  1  0
 27 29  1  0
 29 30  2  0
 30 31  1  0
 31 32  2  0
 12  7  1  0
 21 15  1  0
 32 22  1  0
 31 25  1  0
  3 33  1  0
  4 34  1  0
  4 35  1  0
  8 36  1  0
  8 37  1  0
  9 38  1  1
 10 39  1  0
 11 40  1  0
 11 41  1  0
 12 42  1  6
 13 43  1  0
 13 44  1  0
 16 45  1  0
 17 46  1  0
 20 47  1  0
 21 48  1  0
 23 49  1  0
 24 50  1  0
 26 51  1  0
 29 52  1  0
 30 53  1  0
M  END
>  <smiles>  (30) 
O=C(NCC(=O)N1C[C@H](O)C[C@H]1COc1ccc(Cl)cc1)c1ccc2cc(Cl)ccc2n1

>  <score_type>  (30) 
oracle

>  <origin>  (30) 
autodockgpu

>  <m_score__min__energy>  (30) 
-8.4800000000000004

>  <m_primary>  (30) 
energy

>  <rmsd>  (30) 
8.52690448605902

>  <m_score__min__rmsd>  (30) 
8.52690448605902

>  <meeko>  (30) 
{"free_energy": -7.42, "intermolecular_energy": -9.81, "internal_energy": -1.66, "cluster_size": 4, "cluster_id": 2, "rank_in_cluster": 4}

>  <energy>  (30) 
-7.36

>  <cluster_rmsd>  (30) 
1.94

>  <cluster>  (30) 
3

$$$$

     RDKit          3D

 53 56  0  0  0  0  0  0  0  0999 V2000
  138.4260   71.3430  220.8530 O   0  0  0  0  0  0  0  0  0  0  0  0
  138.8080   72.0430  221.8560 C   0  0  0  0  0  0  0  0  0  0  0  0
  138.6800   73.4700  221.6630 N   0  0  0  0  0  0  0  0  0  0  0  0
  138.1520   73.8940  220.4210 C   0  0  0  0  0  0  0  0  0  0  0  0
  139.0340   74.3200  219.3500 C   0  0  0  0  0  0  0  0  0  0  0  0
  138.5590   74.0900  218.1530 O   0  0  0  0  0  0  0  0  0  0  0  0
  140.3100   74.9360  219.4140 N   0  0  0  0  0  0  0  0  0  0  0  0
  140.7790   76.2020  218.9220 C   0  0  0  0  0  0  0  0  0  0  0  0
  142.1260   76.3770  219.5770 C   0  0  2  0  0  0  0  0  0  0  0  0
  142.9720   77.2110  218.8380 O   0  0  0  0  0  0  0  0  0  0  0  0
  142.6560   74.9750  219.6660 C   0  0  0  0  0  0  0  0  0  0  0  0
  141.4340   74.1960  220.0600 C   0  0  1  0  0  0  0  0  0  0  0  0
  141.2930   74.2330  221.5750 C   0  0  0  0  0  0  0  0  0  0  0  0
  140.7200   75.3200  222.0380 O   0  0  0  0  0  0  0  0  0  0  0  0
  140.3030   76.4800  222.3840 C   0  0  0  0  0  0  0  0  0  0  0  0
  138.8910   76.7000  222.4110 C   0  0  0  0  0  0  0  0  0  0  0  0
  138.3590   77.9040  222.7690 C   0  0  0  0  0  0  0  0  0  0  0  0
  139.1740   78.9240  223.1090 C   0  0  0  0  0  0  0  0  0  0  0  0
  138.4690   80.4500  223.5690 Cl  0  0  0  0  0  0  0  0  0  0  0  0
  140.5150   78.7930  223.1080 C   0  0  0  0  0  0  0  0  0  0  0  0
  141.0850   77.5920  222.7520 C   0  0  0  0  0  0  0  0  0  0  0  0
  139.3210   71.4480  223.0710 C   0  0  0  0  0  0  0  0  0  0  0  0
  140.3850   72.1140  223.6810 C   0  0  0  0  0  0  0  0  0  0  0  0
  140.9020   71.5990  224.8620 C   0  0  0  0  0  0  0  0  0  0  0  0
  140.3850   70.4540  225.4310 C   0  0  0  0  0  0  0  0  0  0  0  0
  140.9530   70.0050  226.5910 C   0  0  0  0  0  0  0  0  0  0  0  0
  140.4130   68.8390  227.1330 C   0  0  0  0  0  0  0  0  0  0  0  0
  141.0660   68.1810  228.6060 Cl  0  0  0  0  0  0  0  0  0  0  0  0
  139.3620   68.1670  226.5390 C   0  0  0  0  0  0  0  0  0  0  0  0
  138.8290   68.6850  225.3540 C   0  0  0  0  0  0  0  0  0  0  0  0
  139.3380   69.8500  224.7760 C   0  0  0  0  0  0  0  0  0  0  0  0
  138.8120   70.3340  223.6190 N   0  0  0  0  0  0  0  0  0  0  0  0
  138.9870   74.0330  222.4740 H   0  0  0  0  0  0  0  0  0  0  0  0
  137.5614   73.0538  220.0269 H   0  0  0  0  0  0  0  0  0  0  0  0
  137.6183   74.8194  220.6833 H   0  0  0  0  0  0  0  0  0  0  0  0
  140.8774   76.1827  217.8266 H   0  0  0  0  0  0  0  0  0  0  0  0
  140.0879   77.0261  219.1527 H   0  0  0  0  0  0  0  0  0  0  0  0
  142.0560   76.8697  220.5580 H   0  0  0  0  0  0  0  0  0  0  0  0
  143.6820   77.5030  219.4620 H   0  0  0  0  0  0  0  0  0  0  0  0
  143.0496   74.6355  218.6965 H   0  0  0  0  0  0  0  0  0  0  0  0
  143.4947   74.8647  220.3692 H   0  0  0  0  0  0  0  0  0  0  0  0
  141.4665   73.1397  219.7546 H   0  0  0  0  0  0  0  0  0  0  0  0
  140.6906   73.3668  221.8862 H   0  0  0  0  0  0  0  0  0  0  0  0
  142.3128   74.2147  221.9868 H   0  0  0  0  0  0  0  0  0  0  0  0
  138.2155   75.8767  222.1358 H   0  0  0  0  0  0  0  0  0  0  0  0
  137.2679   78.0430  222.7805 H   0  0  0  0  0  0  0  0  0  0  0  0
  141.1524   79.6436  223.3910 H   0  0  0  0  0  0  0  0  0  0  0  0
  142.1810   77.4981  222.7550 H   0  0  0  0  0  0  0  0  0  0  0  0
  140.8051   73.0277  223.2354 H   0  0  0  0  0  0  0  0  0  0  0  0
  141.7404   72.1142  225.3536 H   0  0  0  0  0  0  0  0  0  0  0  0
  141.7898   70.5343  227.0702 H   0  0  0  0  0  0  0  0  0  0  0  0
  138.9549   67.2483  226.9865 H   0  0  0  0  0  0  0  0  0  0  0  0
  137.9915   68.1639  224.8672 H   0  0  0  0  0  0  0  0  0  0  0  0
  1  2  2  0
  2  3  1  0
  3  4  1  0
  4  5  1  0
  5  6  2  0
  5  7  1  0
  7  8  1  0
  8  9  1  0
  9 10  1  0
  9 11  1  0
 11 12  1  0
 12 13  1  0
 13 14  1  0
 14 15  1  0
 15 16  2  0
 16 17  1  0
 17 18  2  0
 18 19  1  0
 18 20  1  0
 20 21  2  0
  2 22  1  0
 22 23  2  0
 23 24  1  0
 24 25  2  0
 25 26  1  0
 26 27  2  0
 27 28  1  0
 27 29  1  0
 29 30  2  0
 30 31  1  0
 31 32  2  0
 12  7  1  0
 21 15  1  0
 32 22  1  0
 31 25  1  0
  3 33  1  0
  4 34  1  0
  4 35  1  0
  8 36  1  0
  8 37  1  0
  9 38  1  1
 10 39  1  0
 11 40  1  0
 11 41  1  0
 12 42  1  6
 13 43  1  0
 13 44  1  0
 16 45  1  0
 17 46  1  0
 20 47  1  0
 21 48  1  0
 23 49  1  0
 24 50  1  0
 26 51  1  0
 29 52  1  0
 30 53  1  0
M  END
>  <smiles>  (31) 
O=C(NCC(=O)N1C[C@H](O)C[C@H]1COc1ccc(Cl)cc1)c1ccc2cc(Cl)ccc2n1

>  <score_type>  (31) 
oracle

>  <origin>  (31) 
autodockgpu

>  <m_score__min__energy>  (31) 
-8.4800000000000004

>  <m_primary>  (31) 
energy

>  <rmsd>  (31) 
2.9693076195760497

>  <m_score__min__rmsd>  (31) 
2.9693076195760497

>  <meeko>  (31) 
{"free_energy": -7.51, "intermolecular_energy": -9.9, "internal_energy": -2.41, "cluster_size": 22, "cluster_id": 1, "rank_in_cluster": 8}

>  <energy>  (31) 
-7.22

>  <cluster_rmsd>  (31) 
1.78

>  <cluster>  (31) 
3

$$$$

     RDKit          3D

 53 56  0  0  0  0  0  0  0  0999 V2000
  137.8820   72.9610  221.4070 O   0  0  0  0  0  0  0  0  0  0  0  0
  138.7600   72.0280  221.4520 C   0  0  0  0  0  0  0  0  0  0  0  0
  139.4240   71.7810  220.1920 N   0  0  0  0  0  0  0  0  0  0  0  0
  139.0300   72.5910  219.1010 C   0  0  0  0  0  0  0  0  0  0  0  0
  139.4630   73.9730  219.0120 C   0  0  0  0  0  0  0  0  0  0  0  0
  138.5480   74.7840  218.5500 O   0  0  0  0  0  0  0  0  0  0  0  0
  140.7110   74.5580  219.3480 N   0  0  0  0  0  0  0  0  0  0  0  0
  141.3320   75.7820  218.9240 C   0  0  0  0  0  0  0  0  0  0  0  0
  142.4920   75.9560  219.8710 C   0  0  2  0  0  0  0  0  0  0  0  0
  143.5200   76.7270  219.3150 O   0  0  0  0  0  0  0  0  0  0  0  0
  142.9320   74.5470  220.1470 C   0  0  0  0  0  0  0  0  0  0  0  0
  141.6220   73.8240  220.2750 C   0  0  1  0  0  0  0  0  0  0  0  0
  141.1310   73.9460  221.7100 C   0  0  0  0  0  0  0  0  0  0  0  0
  140.5190   75.0770  221.9780 O   0  0  0  0  0  0  0  0  0  0  0  0
  140.1010   76.2390  222.3160 C   0  0  0  0  0  0  0  0  0  0  0  0
  141.0760   77.2150  222.6930 C   0  0  0  0  0  0  0  0  0  0  0  0
  140.7200   78.4780  223.0640 C   0  0  0  0  0  0  0  0  0  0  0  0
  139.4180   78.8320  223.0820 C   0  0  0  0  0  0  0  0  0  0  0  0
  138.9900   80.4530  223.5550 Cl  0  0  0  0  0  0  0  0  0  0  0  0
  138.4420   77.9670  222.7410 C   0  0  0  0  0  0  0  0  0  0  0  0
  138.7660   76.6850  222.3610 C   0  0  0  0  0  0  0  0  0  0  0  0
  139.0540   71.2930  222.6630 C   0  0  0  0  0  0  0  0  0  0  0  0
  138.5010   70.0150  222.7570 C   0  0  0  0  0  0  0  0  0  0  0  0
  138.7690   69.2560  223.8880 C   0  0  0  0  0  0  0  0  0  0  0  0
  139.5620   69.7440  224.9060 C   0  0  0  0  0  0  0  0  0  0  0  0
  139.7740   68.9390  225.9910 C   0  0  0  0  0  0  0  0  0  0  0  0
  140.5710   69.4670  227.0060 C   0  0  0  0  0  0  0  0  0  0  0  0
  140.8990   68.5260  228.4330 Cl  0  0  0  0  0  0  0  0  0  0  0  0
  141.1230   70.7320  226.9290 C   0  0  0  0  0  0  0  0  0  0  0  0
  140.8660   71.4990  225.7880 C   0  0  0  0  0  0  0  0  0  0  0  0
  140.0730   71.0100  224.7470 C   0  0  0  0  0  0  0  0  0  0  0  0
  139.8270   71.7740  223.6490 N   0  0  0  0  0  0  0  0  0  0  0  0
  140.1340   71.0300  220.2310 H   0  0  0  0  0  0  0  0  0  0  0  0
  139.3901   72.0894  218.1907 H   0  0  0  0  0  0  0  0  0  0  0  0
  137.9430   72.6825  219.2426 H   0  0  0  0  0  0  0  0  0  0  0  0
  141.6852   75.7008  217.8854 H   0  0  0  0  0  0  0  0  0  0  0  0
  140.6387   76.6357  218.9460 H   0  0  0  0  0  0  0  0  0  0  0  0
  142.2123   76.5019  220.7841 H   0  0  0  0  0  0  0  0  0  0  0  0
  143.8330   77.3260  220.0380 H   0  0  0  0  0  0  0  0  0  0  0  0
  143.5293   74.1456  219.3150 H   0  0  0  0  0  0  0  0  0  0  0  0
  143.5770   74.4517  221.0330 H   0  0  0  0  0  0  0  0  0  0  0  0
  141.6837   72.7525  220.0341 H   0  0  0  0  0  0  0  0  0  0  0  0
  140.4307   73.1206  221.9058 H   0  0  0  0  0  0  0  0  0  0  0  0
  142.0234   73.9111  222.3521 H   0  0  0  0  0  0  0  0  0  0  0  0
  142.1409   76.9397  222.6834 H   0  0  0  0  0  0  0  0  0  0  0  0
  141.4930   79.2071  223.3482 H   0  0  0  0  0  0  0  0  0  0  0  0
  137.3894   78.2853  222.7665 H   0  0  0  0  0  0  0  0  0  0  0  0
  137.9601   75.9892  222.0847 H   0  0  0  0  0  0  0  0  0  0  0  0
  137.8660   69.6174  221.9516 H   0  0  0  0  0  0  0  0  0  0  0  0
  138.3410   68.2464  223.9742 H   0  0  0  0  0  0  0  0  0  0  0  0
  139.3398   67.9306  226.0592 H   0  0  0  0  0  0  0  0  0  0  0  0
  141.7483   71.1253  227.7441 H   0  0  0  0  0  0  0  0  0  0  0  0
  141.2971   72.5079  225.7087 H   0  0  0  0  0  0  0  0  0  0  0  0
  1  2  2  0
  2  3  1  0
  3  4  1  0
  4  5  1  0
  5  6  2  0
  5  7  1  0
  7  8  1  0
  8  9  1  0
  9 10  1  0
  9 11  1  0
 11 12  1  0
 12 13  1  0
 13 14  1  0
 14 15  1  0
 15 16  2  0
 16 17  1  0
 17 18  2  0
 18 19  1  0
 18 20  1  0
 20 21  2  0
  2 22  1  0
 22 23  2  0
 23 24  1  0
 24 25  2  0
 25 26  1  0
 26 27  2  0
 27 28  1  0
 27 29  1  0
 29 30  2  0
 30 31  1  0
 31 32  2  0
 12  7  1  0
 21 15  1  0
 32 22  1  0
 31 25  1  0
  3 33  1  0
  4 34  1  0
  4 35  1  0
  8 36  1  0
  8 37  1  0
  9 38  1  1
 10 39  1  0
 11 40  1  0
 11 41  1  0
 12 42  1  6
 13 43  1  0
 13 44  1  0
 16 45  1  0
 17 46  1  0
 20 47  1  0
 21 48  1  0
 23 49  1  0
 24 50  1  0
 26 51  1  0
 29 52  1  0
 30 53  1  0
M  END
>  <smiles>  (32) 
O=C(NCC(=O)N1C[C@H](O)C[C@H]1COc1ccc(Cl)cc1)c1ccc2cc(Cl)ccc2n1

>  <score_type>  (32) 
oracle

>  <origin>  (32) 
autodockgpu

>  <m_score__min__energy>  (32) 
-8.4800000000000004

>  <m_primary>  (32) 
energy

>  <rmsd>  (32) 
2.5103318272990607

>  <m_score__min__rmsd>  (32) 
2.5103318272990607

>  <meeko>  (32) 
{"free_energy": -7.33, "intermolecular_energy": -9.71, "internal_energy": -2.05, "cluster_size": 22, "cluster_id": 1, "rank_in_cluster": 17}

>  <energy>  (32) 
-7.62

>  <cluster_rmsd>  (32) 
0.0

>  <cluster>  (32) 
4

$$$$

     RDKit          3D

 53 56  0  0  0  0  0  0  0  0999 V2000
  141.5790   78.7700  218.6340 O   0  0  0  0  0  0  0  0  0  0  0  0
  141.6710   78.3400  219.8380 C   0  0  0  0  0  0  0  0  0  0  0  0
  142.5360   77.1920  219.9910 N   0  0  0  0  0  0  0  0  0  0  0  0
  143.1610   76.7110  218.8160 C   0  0  0  0  0  0  0  0  0  0  0  0
  143.3590   75.2880  218.6150 C   0  0  0  0  0  0  0  0  0  0  0  0
  142.7440   74.8140  217.5620 O   0  0  0  0  0  0  0  0  0  0  0  0
  144.1080   74.3570  219.3790 N   0  0  0  0  0  0  0  0  0  0  0  0
  144.9950   74.5390  220.4950 C   0  0  0  0  0  0  0  0  0  0  0  0
  145.2170   73.1440  221.0210 C   0  0  2  0  0  0  0  0  0  0  0  0
  146.4330   73.0210  221.7040 O   0  0  0  0  0  0  0  0  0  0  0  0
  145.1780   72.2930  219.7850 C   0  0  0  0  0  0  0  0  0  0  0  0
  144.0520   72.9130  219.0070 C   0  0  1  0  0  0  0  0  0  0  0  0
  142.7390   72.2970  219.4660 C   0  0  0  0  0  0  0  0  0  0  0  0
  141.8610   73.1650  219.9150 O   0  0  0  0  0  0  0  0  0  0  0  0
  141.0760   73.9620  220.5380 C   0  0  0  0  0  0  0  0  0  0  0  0
  139.6790   73.8850  220.2460 C   0  0  0  0  0  0  0  0  0  0  0  0
  138.7710   74.6940  220.8630 C   0  0  0  0  0  0  0  0  0  0  0  0
  139.1860   75.5960  221.7760 C   0  0  0  0  0  0  0  0  0  0  0  0
  138.0060   76.6140  222.5550 Cl  0  0  0  0  0  0  0  0  0  0  0  0
  140.4870   75.7280  222.1030 C   0  0  0  0  0  0  0  0  0  0  0  0
  141.4300   74.9290  221.5000 C   0  0  0  0  0  0  0  0  0  0  0  0
  140.9650   78.9570  220.9400 C   0  0  0  0  0  0  0  0  0  0  0  0
  141.7480   79.3530  222.0270 C   0  0  0  0  0  0  0  0  0  0  0  0
  141.1260   79.9710  223.1030 C   0  0  0  0  0  0  0  0  0  0  0  0
  139.7640   80.1930  223.1120 C   0  0  0  0  0  0  0  0  0  0  0  0
  139.2250   80.8010  224.2120 C   0  0  0  0  0  0  0  0  0  0  0  0
  137.8450   81.0020  224.1930 C   0  0  0  0  0  0  0  0  0  0  0  0
  137.0570   81.7630  225.5450 Cl  0  0  0  0  0  0  0  0  0  0  0  0
  137.0570   80.6120  223.1260 C   0  0  0  0  0  0  0  0  0  0  0  0
  137.6780   79.9980  222.0330 C   0  0  0  0  0  0  0  0  0  0  0  0
  139.0570   79.7780  222.0090 C   0  0  0  0  0  0  0  0  0  0  0  0
  139.6410   79.1710  220.9420 N   0  0  0  0  0  0  0  0  0  0  0  0
  142.6100   76.8480  220.9630 H   0  0  0  0  0  0  0  0  0  0  0  0
  142.5560   77.0673  217.9692 H   0  0  0  0  0  0  0  0  0  0  0  0
  144.1886   77.0920  218.9097 H   0  0  0  0  0  0  0  0  0  0  0  0
  145.9445   74.9891  220.1695 H   0  0  0  0  0  0  0  0  0  0  0  0
  144.5809   75.2160  221.2567 H   0  0  0  0  0  0  0  0  0  0  0  0
  144.4617   72.8499  221.7646 H   0  0  0  0  0  0  0  0  0  0  0  0
  146.3280   72.2470  222.3110 H   0  0  0  0  0  0  0  0  0  0  0  0
  146.1260   72.3522  219.2301 H   0  0  0  0  0  0  0  0  0  0  0  0
  145.0346   71.2220  219.9911 H   0  0  0  0  0  0  0  0  0  0  0  0
  144.1295   72.7604  217.9204 H   0  0  0  0  0  0  0  0  0  0  0  0
  142.2919   71.7647  218.6135 H   0  0  0  0  0  0  0  0  0  0  0  0
  142.9813   71.6311  220.3073 H   0  0  0  0  0  0  0  0  0  0  0  0
  139.3268   73.1536  219.5037 H   0  0  0  0  0  0  0  0  0  0  0  0
  137.7022   74.6111  220.6166 H   0  0  0  0  0  0  0  0  0  0  0  0
  140.7940   76.4737  222.8511 H   0  0  0  0  0  0  0  0  0  0  0  0
  142.4882   75.0478  221.7758 H   0  0  0  0  0  0  0  0  0  0  0  0
  142.8341   79.1788  222.0301 H   0  0  0  0  0  0  0  0  0  0  0  0
  141.7303   80.2899  223.9650 H   0  0  0  0  0  0  0  0  0  0  0  0
  139.8455   81.1142  225.0646 H   0  0  0  0  0  0  0  0  0  0  0  0
  135.9700   80.7801  223.1362 H   0  0  0  0  0  0  0  0  0  0  0  0
  137.0673   79.6819  221.1745 H   0  0  0  0  0  0  0  0  0  0  0  0
  1  2  2  0
  2  3  1  0
  3  4  1  0
  4  5  1  0
  5  6  2  0
  5  7  1  0
  7  8  1  0
  8  9  1  0
  9 10  1  0
  9 11  1  0
 11 12  1  0
 12 13  1  0
 13 14  1  0
 14 15  1  0
 15 16  2  0
 16 17  1  0
 17 18  2  0
 18 19  1  0
 18 20  1  0
 20 21  2  0
  2 22  1  0
 22 23  2  0
 23 24  1  0
 24 25  2  0
 25 26  1  0
 26 27  2  0
 27 28  1  0
 27 29  1  0
 29 30  2  0
 30 31  1  0
 31 32  2  0
 12  7  1  0
 21 15  1  0
 32 22  1  0
 31 25  1  0
  3 33  1  0
  4 34  1  0
  4 35  1  0
  8 36  1  0
  8 37  1  0
  9 38  1  1
 10 39  1  0
 11 40  1  0
 11 41  1  0
 12 42  1  6
 13 43  1  0
 13 44  1  0
 16 45  1  0
 17 46  1  0
 20 47  1  0
 21 48  1  0
 23 49  1  0
 24 50  1  0
 26 51  1  0
 29 52  1  0
 30 53  1  0
M  END
>  <smiles>  (33) 
O=C(NCC(=O)N1C[C@H](O)C[C@H]1COc1ccc(Cl)cc1)c1ccc2cc(Cl)ccc2n1

>  <score_type>  (33) 
oracle

>  <origin>  (33) 
autodockgpu

>  <m_score__min__energy>  (33) 
-8.4800000000000004

>  <m_primary>  (33) 
energy

>  <rmsd>  (33) 
8.834196218420258

>  <m_score__min__rmsd>  (33) 
8.834196218420258

>  <meeko>  (33) 
{"free_energy": -6.27, "intermolecular_energy": -8.65, "internal_energy": -2.58, "cluster_size": 1, "cluster_id": 13, "rank_in_cluster": 1}

>  <energy>  (33) 
-7.32

>  <cluster_rmsd>  (33) 
1.27

>  <cluster>  (33) 
4

$$$$

     RDKit          3D

 53 56  0  0  0  0  0  0  0  0999 V2000
  140.6360   73.7690  222.2090 O   0  0  0  0  0  0  0  0  0  0  0  0
  139.8510   72.7660  222.3550 C   0  0  0  0  0  0  0  0  0  0  0  0
  138.8360   72.6570  221.3310 N   0  0  0  0  0  0  0  0  0  0  0  0
  138.8490   73.6470  220.3200 C   0  0  0  0  0  0  0  0  0  0  0  0
  138.5410   75.0290  220.6340 C   0  0  0  0  0  0  0  0  0  0  0  0
  137.2680   75.2520  220.8370 O   0  0  0  0  0  0  0  0  0  0  0  0
  139.4030   76.1490  220.7510 N   0  0  0  0  0  0  0  0  0  0  0  0
  140.2480   76.5900  221.8270 C   0  0  0  0  0  0  0  0  0  0  0  0
  141.1130   77.6560  221.2030 C   0  0  2  0  0  0  0  0  0  0  0  0
  141.5820   78.5770  222.1470 O   0  0  0  0  0  0  0  0  0  0  0  0
  140.2040   78.2980  220.1950 C   0  0  0  0  0  0  0  0  0  0  0  0
  139.4840   77.1140  219.6150 C   0  0  1  0  0  0  0  0  0  0  0  0
  140.3210   76.5350  218.4840 C   0  0  0  0  0  0  0  0  0  0  0  0
  141.2200   75.6590  218.8710 O   0  0  0  0  0  0  0  0  0  0  0  0
  142.2320   74.9540  219.2190 C   0  0  0  0  0  0  0  0  0  0  0  0
  143.3470   75.6310  219.8030 C   0  0  0  0  0  0  0  0  0  0  0  0
  144.4640   74.9590  220.2050 C   0  0  0  0  0  0  0  0  0  0  0  0
  144.5340   73.6200  220.0520 C   0  0  0  0  0  0  0  0  0  0  0  0
  145.9690   72.7850  220.5780 Cl  0  0  0  0  0  0  0  0  0  0  0  0
  143.5230   72.9130  219.5080 C   0  0  0  0  0  0  0  0  0  0  0  0
  142.3820   73.5590  219.0930 C   0  0  0  0  0  0  0  0  0  0  0  0
  139.9790   71.8310  223.4520 C   0  0  0  0  0  0  0  0  0  0  0  0
  139.5520   70.5250  223.2000 C   0  0  0  0  0  0  0  0  0  0  0  0
  139.6730   69.5810  224.2100 C   0  0  0  0  0  0  0  0  0  0  0  0
  140.1980   69.9130  225.4410 C   0  0  0  0  0  0  0  0  0  0  0  0
  140.2770   68.9290  226.3870 C   0  0  0  0  0  0  0  0  0  0  0  0
  140.8040   69.3000  227.6240 C   0  0  0  0  0  0  0  0  0  0  0  0
  140.9440   68.1240  228.8990 Cl  0  0  0  0  0  0  0  0  0  0  0  0
  141.2260   70.5890  227.8890 C   0  0  0  0  0  0  0  0  0  0  0  0
  141.1180   71.5440  226.8730 C   0  0  0  0  0  0  0  0  0  0  0  0
  140.5970   71.2160  225.6190 C   0  0  0  0  0  0  0  0  0  0  0  0
  140.4920   72.1610  224.6460 N   0  0  0  0  0  0  0  0  0  0  0  0
  138.2050   71.8460  221.4500 H   0  0  0  0  0  0  0  0  0  0  0  0
  139.8602   73.6409  219.8870 H   0  0  0  0  0  0  0  0  0  0  0  0
  138.0101   73.3492  219.6739 H   0  0  0  0  0  0  0  0  0  0  0  0
  139.6477   77.0063  222.6494 H   0  0  0  0  0  0  0  0  0  0  0  0
  140.8375   75.7703  222.2636 H   0  0  0  0  0  0  0  0  0  0  0  0
  142.0280   77.2455  220.7510 H   0  0  0  0  0  0  0  0  0  0  0  0
  142.4990   78.2860  222.3810 H   0  0  0  0  0  0  0  0  0  0  0  0
  139.5021   78.9941  220.6776 H   0  0  0  0  0  0  0  0  0  0  0  0
  140.7347   78.9023  219.4446 H   0  0  0  0  0  0  0  0  0  0  0  0
  138.4927   77.3568  219.2046 H   0  0  0  0  0  0  0  0  0  0  0  0
  139.6434   76.0416  217.7716 H   0  0  0  0  0  0  0  0  0  0  0  0
  140.8720   77.3758  218.0374 H   0  0  0  0  0  0  0  0  0  0  0  0
  143.3033   76.7226  219.9317 H   0  0  0  0  0  0  0  0  0  0  0  0
  145.3058   75.5074  220.6529 H   0  0  0  0  0  0  0  0  0  0  0  0
  143.6106   71.8222  219.3964 H   0  0  0  0  0  0  0  0  0  0  0  0
  141.5646   72.9706  218.6508 H   0  0  0  0  0  0  0  0  0  0  0  0
  139.1291   70.2508  222.2223 H   0  0  0  0  0  0  0  0  0  0  0  0
  139.3437   68.5479  224.0249 H   0  0  0  0  0  0  0  0  0  0  0  0
  139.9431   67.9008  226.1836 H   0  0  0  0  0  0  0  0  0  0  0  0
  141.6363   70.8570  228.8738 H   0  0  0  0  0  0  0  0  0  0  0  0
  141.4502   72.5749  227.0653 H   0  0  0  0  0  0  0  0  0  0  0  0
  1  2  2  0
  2  3  1  0
  3  4  1  0
  4  5  1  0
  5  6  2  0
  5  7  1  0
  7  8  1  0
  8  9  1  0
  9 10  1  0
  9 11  1  0
 11 12  1  0
 12 13  1  0
 13 14  1  0
 14 15  1  0
 15 16  2  0
 16 17  1  0
 17 18  2  0
 18 19  1  0
 18 20  1  0
 20 21  2  0
  2 22  1  0
 22 23  2  0
 23 24  1  0
 24 25  2  0
 25 26  1  0
 26 27  2  0
 27 28  1  0
 27 29  1  0
 29 30  2  0
 30 31  1  0
 31 32  2  0
 12  7  1  0
 21 15  1  0
 32 22  1  0
 31 25  1  0
  3 33  1  0
  4 34  1  0
  4 35  1  0
  8 36  1  0
  8 37  1  0
  9 38  1  6
 10 39  1  0
 11 40  1  0
 11 41  1  0
 12 42  1  6
 13 43  1  0
 13 44  1  0
 16 45  1  0
 17 46  1  0
 20 47  1  0
 21 48  1  0
 23 49  1  0
 24 50  1  0
 26 51  1  0
 29 52  1  0
 30 53  1  0
M  END
>  <smiles>  (34) 
O=C(NCC(=O)N1C[C@H](O)C[C@H]1COc1ccc(Cl)cc1)c1ccc2cc(Cl)ccc2n1

>  <score_type>  (34) 
oracle

>  <origin>  (34) 
autodockgpu

>  <m_score__min__energy>  (34) 
-8.4800000000000004

>  <m_primary>  (34) 
energy

>  <rmsd>  (34) 
2.3426625844981084

>  <m_score__min__rmsd>  (34) 
2.3426625844981084

>  <meeko>  (34) 
{"free_energy": -7.32, "intermolecular_energy": -9.71, "internal_energy": -2.05, "cluster_size": 4, "cluster_id": 4, "rank_in_cluster": 2}

>  <energy>  (34) 
-7.22

>  <cluster_rmsd>  (34) 
1.67

>  <cluster>  (34) 
4

$$$$

     RDKit          3D

 53 56  0  0  0  0  0  0  0  0999 V2000
  138.7930   75.0170  221.8560 O   0  0  0  0  0  0  0  0  0  0  0  0
  140.0520   75.2600  221.8260 C   0  0  0  0  0  0  0  0  0  0  0  0
  140.4080   76.5830  222.2880 N   0  0  0  0  0  0  0  0  0  0  0  0
  139.3430   77.4130  222.7110 C   0  0  0  0  0  0  0  0  0  0  0  0
  139.5810   78.8010  223.0580 C   0  0  0  0  0  0  0  0  0  0  0  0
  138.5200   79.4230  223.5040 O   0  0  0  0  0  0  0  0  0  0  0  0
  140.7740   79.5650  222.9850 N   0  0  0  0  0  0  0  0  0  0  0  0
  142.1560   79.1800  223.0800 C   0  0  0  0  0  0  0  0  0  0  0  0
  142.9110   80.4020  222.6210 C   0  0  2  0  0  0  0  0  0  0  0  0
  144.2050   80.4550  223.1510 O   0  0  0  0  0  0  0  0  0  0  0  0
  142.0590   81.5410  223.1020 C   0  0  0  0  0  0  0  0  0  0  0  0
  140.6710   81.0440  222.8150 C   0  0  1  0  0  0  0  0  0  0  0  0
  140.3120   81.3900  221.3770 C   0  0  0  0  0  0  0  0  0  0  0  0
  140.7710   80.5410  220.4860 O   0  0  0  0  0  0  0  0  0  0  0  0
  141.3740   79.6870  219.7460 C   0  0  0  0  0  0  0  0  0  0  0  0
  141.1870   78.3010  220.0380 C   0  0  0  0  0  0  0  0  0  0  0  0
  141.7880   77.3240  219.3000 C   0  0  0  0  0  0  0  0  0  0  0  0
  142.5850   77.6590  218.2640 C   0  0  0  0  0  0  0  0  0  0  0  0
  143.3380   76.3930  217.3340 Cl  0  0  0  0  0  0  0  0  0  0  0  0
  142.8110   78.9450  217.9290 C   0  0  0  0  0  0  0  0  0  0  0  0
  142.2200   79.9550  218.6510 C   0  0  0  0  0  0  0  0  0  0  0  0
  141.0220   74.2890  221.3690 C   0  0  0  0  0  0  0  0  0  0  0  0
  140.6110   72.9550  221.3830 C   0  0  0  0  0  0  0  0  0  0  0  0
  141.4940   71.9830  220.9330 C   0  0  0  0  0  0  0  0  0  0  0  0
  142.7540   72.3150  220.4820 C   0  0  0  0  0  0  0  0  0  0  0  0
  143.5690   71.3000  220.0620 C   0  0  0  0  0  0  0  0  0  0  0  0
  144.8400   71.6690  219.6210 C   0  0  0  0  0  0  0  0  0  0  0  0
  145.9570   70.4540  219.0690 Cl  0  0  0  0  0  0  0  0  0  0  0  0
  145.2620   72.9850  219.6040 C   0  0  0  0  0  0  0  0  0  0  0  0
  144.3740   73.9710  220.0460 C   0  0  0  0  0  0  0  0  0  0  0  0
  143.0920   73.6470  220.4960 C   0  0  0  0  0  0  0  0  0  0  0  0
  142.2460   74.6190  220.9300 N   0  0  0  0  0  0  0  0  0  0  0  0
  141.4240   76.7770  222.2650 H   0  0  0  0  0  0  0  0  0  0  0  0
  138.6031   77.4147  221.8970 H   0  0  0  0  0  0  0  0  0  0  0  0
  139.0495   76.9659  223.6723 H   0  0  0  0  0  0  0  0  0  0  0  0
  142.4198   78.9247  224.1169 H   0  0  0  0  0  0  0  0  0  0  0  0
  142.3884   78.2894  222.4777 H   0  0  0  0  0  0  0  0  0  0  0  0
  143.0666   80.4171  221.5322 H   0  0  0  0  0  0  0  0  0  0  0  0
  144.7680   79.9020  222.5540 H   0  0  0  0  0  0  0  0  0  0  0  0
  142.2037   81.7205  224.1776 H   0  0  0  0  0  0  0  0  0  0  0  0
  142.2924   82.5011  222.6186 H   0  0  0  0  0  0  0  0  0  0  0  0
  139.9010   81.4842  223.4656 H   0  0  0  0  0  0  0  0  0  0  0  0
  139.2156   81.4184  221.2930 H   0  0  0  0  0  0  0  0  0  0  0  0
  140.7827   82.3601  221.1595 H   0  0  0  0  0  0  0  0  0  0  0  0
  140.5409   78.0141  220.8807 H   0  0  0  0  0  0  0  0  0  0  0  0
  141.6233   76.2652  219.5488 H   0  0  0  0  0  0  0  0  0  0  0  0
  143.4670   79.1860  217.0796 H   0  0  0  0  0  0  0  0  0  0  0  0
  142.4126   81.0000  218.3664 H   0  0  0  0  0  0  0  0  0  0  0  0
  139.6086   72.6799  221.7430 H   0  0  0  0  0  0  0  0  0  0  0  0
  141.1827   70.9280  220.9363 H   0  0  0  0  0  0  0  0  0  0  0  0
  143.2403   70.2503  220.0714 H   0  0  0  0  0  0  0  0  0  0  0  0
  146.2699   73.2500  219.2520 H   0  0  0  0  0  0  0  0  0  0  0  0
  144.6919   75.0240  220.0391 H   0  0  0  0  0  0  0  0  0  0  0  0
  1  2  2  0
  2  3  1  0
  3  4  1  0
  4  5  1  0
  5  6  2  0
  5  7  1  0
  7  8  1  0
  8  9  1  0
  9 10  1  0
  9 11  1  0
 11 12  1  0
 12 13  1  0
 13 14  1  0
 14 15  1  0
 15 16  2  0
 16 17  1  0
 17 18  2  0
 18 19  1  0
 18 20  1  0
 20 21  2  0
  2 22  1  0
 22 23  2  0
 23 24  1  0
 24 25  2  0
 25 26  1  0
 26 27  2  0
 27 28  1  0
 27 29  1  0
 29 30  2  0
 30 31  1  0
 31 32  2  0
 12  7  1  0
 21 15  1  0
 32 22  1  0
 31 25  1  0
  3 33  1  0
  4 34  1  0
  4 35  1  0
  8 36  1  0
  8 37  1  0
  9 38  1  6
 10 39  1  0
 11 40  1  0
 11 41  1  0
 12 42  1  1
 13 43  1  0
 13 44  1  0
 16 45  1  0
 17 46  1  0
 20 47  1  0
 21 48  1  0
 23 49  1  0
 24 50  1  0
 26 51  1  0
 29 52  1  0
 30 53  1  0
M  END
>  <smiles>  (35) 
O=C(NCC(=O)N1C[C@H](O)C[C@H]1COc1ccc(Cl)cc1)c1ccc2cc(Cl)ccc2n1

>  <score_type>  (35) 
oracle

>  <origin>  (35) 
autodockgpu

>  <m_score__min__energy>  (35) 
-8.4800000000000004

>  <m_primary>  (35) 
energy

>  <rmsd>  (35) 
6.418421195237885

>  <m_score__min__rmsd>  (35) 
6.418421195237885

>  <meeko>  (35) 
{"free_energy": -6.87, "intermolecular_energy": -9.26, "internal_energy": -2.53, "cluster_size": 3, "cluster_id": 9, "rank_in_cluster": 2}

>  <energy>  (35) 
-6.85

>  <cluster_rmsd>  (35) 
1.78

>  <cluster>  (35) 
4

$$$$

     RDKit          3D

 53 56  0  0  0  0  0  0  0  0999 V2000
  138.0020   71.5460  220.7500 O   0  0  0  0  0  0  0  0  0  0  0  0
  138.4510   72.1140  221.8080 C   0  0  0  0  0  0  0  0  0  0  0  0
  138.5600   73.5520  221.7040 N   0  0  0  0  0  0  0  0  0  0  0  0
  138.1560   74.1300  220.4770 C   0  0  0  0  0  0  0  0  0  0  0  0
  139.1140   74.3430  219.4100 C   0  0  0  0  0  0  0  0  0  0  0  0
  138.7230   73.8830  218.2500 O   0  0  0  0  0  0  0  0  0  0  0  0
  140.3880   74.9660  219.4430 N   0  0  0  0  0  0  0  0  0  0  0  0
  140.8410   76.2310  218.9330 C   0  0  0  0  0  0  0  0  0  0  0  0
  142.2000   76.4170  219.5600 C   0  0  2  0  0  0  0  0  0  0  0  0
  143.0260   77.2510  218.7970 O   0  0  0  0  0  0  0  0  0  0  0  0
  142.7390   75.0180  219.6460 C   0  0  0  0  0  0  0  0  0  0  0  0
  141.5290   74.2360  220.0700 C   0  0  1  0  0  0  0  0  0  0  0  0
  141.4200   74.2820  221.5870 C   0  0  0  0  0  0  0  0  0  0  0  0
  140.7320   75.3000  222.0500 O   0  0  0  0  0  0  0  0  0  0  0  0
  140.1860   76.4080  222.3890 C   0  0  0  0  0  0  0  0  0  0  0  0
  141.0440   77.5090  222.6940 C   0  0  0  0  0  0  0  0  0  0  0  0
  140.5480   78.7250  223.0610 C   0  0  0  0  0  0  0  0  0  0  0  0
  139.2150   78.9100  223.1440 C   0  0  0  0  0  0  0  0  0  0  0  0
  138.6060   80.4750  223.6100 Cl  0  0  0  0  0  0  0  0  0  0  0  0
  138.3420   77.9190  222.8730 C   0  0  0  0  0  0  0  0  0  0  0  0
  138.8080   76.6800  222.4990 C   0  0  0  0  0  0  0  0  0  0  0  0
  138.8140   71.3730  222.9960 C   0  0  0  0  0  0  0  0  0  0  0  0
  138.2890   70.0830  223.1010 C   0  0  0  0  0  0  0  0  0  0  0  0
  138.6230   69.3190  224.2100 C   0  0  0  0  0  0  0  0  0  0  0  0
  139.4540   69.8100  225.1950 C   0  0  0  0  0  0  0  0  0  0  0  0
  139.7310   68.9990  226.2600 C   0  0  0  0  0  0  0  0  0  0  0  0
  140.5660   69.5310  227.2430 C   0  0  0  0  0  0  0  0  0  0  0  0
  140.9770   68.5820  228.6420 Cl  0  0  0  0  0  0  0  0  0  0  0  0
  141.0900   70.8060  227.1540 C   0  0  0  0  0  0  0  0  0  0  0  0
  140.7670   71.5790  226.0340 C   0  0  0  0  0  0  0  0  0  0  0  0
  139.9350   71.0870  225.0260 C   0  0  0  0  0  0  0  0  0  0  0  0
  139.6240   71.8570  223.9490 N   0  0  0  0  0  0  0  0  0  0  0  0
  138.9200   74.0090  222.5590 H   0  0  0  0  0  0  0  0  0  0  0  0
  137.3684   73.4803  220.0675 H   0  0  0  0  0  0  0  0  0  0  0  0
  137.8791   75.1543  220.7670 H   0  0  0  0  0  0  0  0  0  0  0  0
  140.9177   76.2046  217.8360 H   0  0  0  0  0  0  0  0  0  0  0  0
  140.1506   77.0534  219.1717 H   0  0  0  0  0  0  0  0  0  0  0  0
  142.1481   76.9149  220.5395 H   0  0  0  0  0  0  0  0  0  0  0  0
  143.7600   77.5320  219.3990 H   0  0  0  0  0  0  0  0  0  0  0  0
  143.1139   74.6746  218.6705 H   0  0  0  0  0  0  0  0  0  0  0  0
  143.5929   74.9157  220.3319 H   0  0  0  0  0  0  0  0  0  0  0  0
  141.5599   73.1780  219.7704 H   0  0  0  0  0  0  0  0  0  0  0  0
  140.9334   73.3553  221.9254 H   0  0  0  0  0  0  0  0  0  0  0  0
  142.4442   74.3935  221.9725 H   0  0  0  0  0  0  0  0  0  0  0  0
  142.1336   77.3721  222.6311 H   0  0  0  0  0  0  0  0  0  0  0  0
  141.2344   79.5538  223.2890 H   0  0  0  0  0  0  0  0  0  0  0  0
  137.2599   78.1008  222.9508 H   0  0  0  0  0  0  0  0  0  0  0  0
  138.0854   75.8801  222.2799 H   0  0  0  0  0  0  0  0  0  0  0  0
  137.6251   69.6814  222.3213 H   0  0  0  0  0  0  0  0  0  0  0  0
  138.2168   68.3012  224.3055 H   0  0  0  0  0  0  0  0  0  0  0  0
  139.3181   67.9824  226.3377 H   0  0  0  0  0  0  0  0  0  0  0  0
  141.7446   71.2032  227.9438 H   0  0  0  0  0  0  0  0  0  0  0  0
  141.1769   72.5959  225.9452 H   0  0  0  0  0  0  0  0  0  0  0  0
  1  2  2  0
  2  3  1  0
  3  4  1  0
  4  5  1  0
  5  6  2  0
  5  7  1  0
  7  8  1  0
  8  9  1  0
  9 10  1  0
  9 11  1  0
 11 12  1  0
 12 13  1  0
 13 14  1  0
 14 15  1  0
 15 16  2  0
 16 17  1  0
 17 18  2  0
 18 19  1  0
 18 20  1  0
 20 21  2  0
  2 22  1  0
 22 23  2  0
 23 24  1  0
 24 25  2  0
 25 26  1  0
 26 27  2  0
 27 28  1  0
 27 29  1  0
 29 30  2  0
 30 31  1  0
 31 32  2  0
 12  7  1  0
 21 15  1  0
 32 22  1  0
 31 25  1  0
  3 33  1  0
  4 34  1  0
  4 35  1  0
  8 36  1  0
  8 37  1  0
  9 38  1  1
 10 39  1  0
 11 40  1  0
 11 41  1  0
 12 42  1  6
 13 43  1  0
 13 44  1  0
 16 45  1  0
 17 46  1  0
 20 47  1  0
 21 48  1  0
 23 49  1  0
 24 50  1  0
 26 51  1  0
 29 52  1  0
 30 53  1  0
M  END
>  <smiles>  (36) 
O=C(NCC(=O)N1C[C@H](O)C[C@H]1COc1ccc(Cl)cc1)c1ccc2cc(Cl)ccc2n1

>  <score_type>  (36) 
oracle

>  <origin>  (36) 
autodockgpu

>  <m_score__min__energy>  (36) 
-8.4800000000000004

>  <m_primary>  (36) 
energy

>  <rmsd>  (36) 
2.0984580204624206

>  <m_score__min__rmsd>  (36) 
2.0984580204624206

>  <meeko>  (36) 
{"free_energy": -7.59, "intermolecular_energy": -9.98, "internal_energy": -2.72, "cluster_size": 22, "cluster_id": 1, "rank_in_cluster": 3}

>  <energy>  (36) 
-7.52

>  <cluster_rmsd>  (36) 
0.0

>  <cluster>  (36) 
5

$$$$

     RDKit          3D

 53 56  0  0  0  0  0  0  0  0999 V2000
  139.7110   72.1510  220.8090 O   0  0  0  0  0  0  0  0  0  0  0  0
  139.7050   72.5670  222.0210 C   0  0  0  0  0  0  0  0  0  0  0  0
  139.5520   73.9980  222.1520 N   0  0  0  0  0  0  0  0  0  0  0  0
  139.4230   74.7330  220.9500 C   0  0  0  0  0  0  0  0  0  0  0  0
  138.2340   75.5220  220.6910 C   0  0  0  0  0  0  0  0  0  0  0  0
  138.4260   76.5050  219.8490 O   0  0  0  0  0  0  0  0  0  0  0  0
  136.9200   75.3840  221.2080 N   0  0  0  0  0  0  0  0  0  0  0  0
  136.1240   74.2190  221.4790 C   0  0  0  0  0  0  0  0  0  0  0  0
  134.9650   74.7440  222.2880 C   0  0  2  0  0  0  0  0  0  0  0  0
  133.8290   73.9340  222.1760 O   0  0  0  0  0  0  0  0  0  0  0  0
  134.7370   76.1160  221.7220 C   0  0  0  0  0  0  0  0  0  0  0  0
  136.1390   76.6160  221.5210 C   0  0  1  0  0  0  0  0  0  0  0  0
  136.6290   77.2400  222.8200 C   0  0  0  0  0  0  0  0  0  0  0  0
  137.8570   77.7030  222.7670 O   0  0  0  0  0  0  0  0  0  0  0  0
  139.0080   78.2500  222.8900 C   0  0  0  0  0  0  0  0  0  0  0  0
  139.0600   79.5940  223.3720 C   0  0  0  0  0  0  0  0  0  0  0  0
  140.2430   80.2530  223.5350 C   0  0  0  0  0  0  0  0  0  0  0  0
  141.4040   79.6340  223.2370 C   0  0  0  0  0  0  0  0  0  0  0  0
  142.9020   80.4950  223.4600 Cl  0  0  0  0  0  0  0  0  0  0  0  0
  141.4350   78.3670  222.7770 C   0  0  0  0  0  0  0  0  0  0  0  0
  140.2610   77.6740  222.6000 C   0  0  0  0  0  0  0  0  0  0  0  0
  139.8400   71.6740  223.1510 C   0  0  0  0  0  0  0  0  0  0  0  0
  139.4430   70.3520  222.9420 C   0  0  0  0  0  0  0  0  0  0  0  0
  139.5720   69.4470  223.9870 C   0  0  0  0  0  0  0  0  0  0  0  0
  140.0770   69.8330  225.2100 C   0  0  0  0  0  0  0  0  0  0  0  0
  140.1660   68.8840  226.1920 C   0  0  0  0  0  0  0  0  0  0  0  0
  140.6720   69.3100  227.4190 C   0  0  0  0  0  0  0  0  0  0  0  0
  140.8230   68.1830  228.7370 Cl  0  0  0  0  0  0  0  0  0  0  0  0
  141.0660   70.6160  227.6420 C   0  0  0  0  0  0  0  0  0  0  0  0
  140.9490   71.5320  226.5920 C   0  0  0  0  0  0  0  0  0  0  0  0
  140.4480   71.1490  225.3450 C   0  0  0  0  0  0  0  0  0  0  0  0
  140.3330   72.0560  224.3390 N   0  0  0  0  0  0  0  0  0  0  0  0
  139.5450   74.3320  223.1310 H   0  0  0  0  0  0  0  0  0  0  0  0
  140.2755   75.4271  220.9126 H   0  0  0  0  0  0  0  0  0  0  0  0
  139.3673   73.9451  220.1844 H   0  0  0  0  0  0  0  0  0  0  0  0
  135.7711   73.7611  220.5432 H   0  0  0  0  0  0  0  0  0  0  0  0
  136.6878   73.4369  222.0085 H   0  0  0  0  0  0  0  0  0  0  0  0
  135.1766   74.7583  223.3674 H   0  0  0  0  0  0  0  0  0  0  0  0
  134.1280   73.1070  221.7220 H   0  0  0  0  0  0  0  0  0  0  0  0
  134.1906   76.0679  220.7685 H   0  0  0  0  0  0  0  0  0  0  0  0
  134.1267   76.7636  222.3687 H   0  0  0  0  0  0  0  0  0  0  0  0
  136.2284   77.3765  220.7313 H   0  0  0  0  0  0  0  0  0  0  0  0
  135.9576   78.0725  223.0772 H   0  0  0  0  0  0  0  0  0  0  0  0
  136.6260   76.4400  223.5750 H   0  0  0  0  0  0  0  0  0  0  0  0
  138.1209   80.1111  223.6182 H   0  0  0  0  0  0  0  0  0  0  0  0
  140.2504   81.2875  223.9088 H   0  0  0  0  0  0  0  0  0  0  0  0
  142.3978   77.8888  222.5438 H   0  0  0  0  0  0  0  0  0  0  0  0
  140.3008   76.6418  222.2218 H   0  0  0  0  0  0  0  0  0  0  0  0
  139.0368   70.0342  221.9704 H   0  0  0  0  0  0  0  0  0  0  0  0
  139.2652   68.4015  223.8359 H   0  0  0  0  0  0  0  0  0  0  0  0
  139.8554   67.8425  226.0224 H   0  0  0  0  0  0  0  0  0  0  0  0
  141.4614   70.9267  228.6203 H   0  0  0  0  0  0  0  0  0  0  0  0
  141.2578   72.5757  226.7509 H   0  0  0  0  0  0  0  0  0  0  0  0
  1  2  2  0
  2  3  1  0
  3  4  1  0
  4  5  1  0
  5  6  2  0
  5  7  1  0
  7  8  1  0
  8  9  1  0
  9 10  1  0
  9 11  1  0
 11 12  1  0
 12 13  1  0
 13 14  1  0
 14 15  1  0
 15 16  2  0
 16 17  1  0
 17 18  2  0
 18 19  1  0
 18 20  1  0
 20 21  2  0
  2 22  1  0
 22 23  2  0
 23 24  1  0
 24 25  2  0
 25 26  1  0
 26 27  2  0
 27 28  1  0
 27 29  1  0
 29 30  2  0
 30 31  1  0
 31 32  2  0
 12  7  1  0
 21 15  1  0
 32 22  1  0
 31 25  1  0
  3 33  1  0
  4 34  1  0
  4 35  1  0
  8 36  1  0
  8 37  1  0
  9 38  1  1
 10 39  1  0
 11 40  1  0
 11 41  1  0
 12 42  1  6
 13 43  1  0
 13 44  1  0
 16 45  1  0
 17 46  1  0
 20 47  1  0
 21 48  1  0
 23 49  1  0
 24 50  1  0
 26 51  1  0
 29 52  1  0
 30 53  1  0
M  END
>  <smiles>  (37) 
O=C(NCC(=O)N1C[C@H](O)C[C@H]1COc1ccc(Cl)cc1)c1ccc2cc(Cl)ccc2n1

>  <score_type>  (37) 
oracle

>  <origin>  (37) 
autodockgpu

>  <m_score__min__energy>  (37) 
-8.4800000000000004

>  <m_primary>  (37) 
energy

>  <rmsd>  (37) 
3.654743427752685

>  <m_score__min__rmsd>  (37) 
3.654743427752685

>  <meeko>  (37) 
{"free_energy": -7.43, "intermolecular_energy": -9.81, "internal_energy": -1.74, "cluster_size": 2, "cluster_id": 6, "rank_in_cluster": 1}

>  <energy>  (37) 
-7.43

>  <cluster_rmsd>  (37) 
0.0

>  <cluster>  (37) 
6

$$$$

     RDKit          3D

 53 56  0  0  0  0  0  0  0  0999 V2000
  139.8950   72.4200  220.7850 O   0  0  0  0  0  0  0  0  0  0  0  0
  139.8010   72.8000  222.0060 C   0  0  0  0  0  0  0  0  0  0  0  0
  139.6020   74.2220  222.1680 N   0  0  0  0  0  0  0  0  0  0  0  0
  139.5290   74.9900  220.9810 C   0  0  0  0  0  0  0  0  0  0  0  0
  138.2630   75.1750  220.2980 C   0  0  0  0  0  0  0  0  0  0  0  0
  138.3840   75.4090  219.0170 O   0  0  0  0  0  0  0  0  0  0  0  0
  136.9400   75.1380  220.8090 N   0  0  0  0  0  0  0  0  0  0  0  0
  135.9870   74.0680  220.9020 C   0  0  0  0  0  0  0  0  0  0  0  0
  134.9090   74.6100  221.8070 C   0  0  2  0  0  0  0  0  0  0  0  0
  133.6710   73.9960  221.5840 O   0  0  0  0  0  0  0  0  0  0  0  0
  134.8780   76.0740  221.4750 C   0  0  0  0  0  0  0  0  0  0  0  0
  136.3380   76.4000  221.3330 C   0  0  1  0  0  0  0  0  0  0  0  0
  136.9040   76.7280  222.7070 C   0  0  0  0  0  0  0  0  0  0  0  0
  138.0570   77.3570  222.6800 O   0  0  0  0  0  0  0  0  0  0  0  0
  139.1580   77.9890  222.8550 C   0  0  0  0  0  0  0  0  0  0  0  0
  139.0840   79.3540  223.2710 C   0  0  0  0  0  0  0  0  0  0  0  0
  140.2050   80.1010  223.4830 C   0  0  0  0  0  0  0  0  0  0  0  0
  141.4240   79.5520  223.3000 C   0  0  0  0  0  0  0  0  0  0  0  0
  142.8410   80.5250  223.5830 Cl  0  0  0  0  0  0  0  0  0  0  0  0
  141.5730   78.2700  222.9070 C   0  0  0  0  0  0  0  0  0  0  0  0
  140.4630   77.4890  222.6840 C   0  0  0  0  0  0  0  0  0  0  0  0
  139.8890   71.8770  223.1170 C   0  0  0  0  0  0  0  0  0  0  0  0
  139.3830   70.5950  222.8930 C   0  0  0  0  0  0  0  0  0  0  0  0
  139.4620   69.6620  223.9180 C   0  0  0  0  0  0  0  0  0  0  0  0
  140.0240   69.9820  225.1370 C   0  0  0  0  0  0  0  0  0  0  0  0
  140.0580   69.0110  226.0980 C   0  0  0  0  0  0  0  0  0  0  0  0
  140.6240   69.3710  227.3210 C   0  0  0  0  0  0  0  0  0  0  0  0
  140.7130   68.2100  228.6150 Cl  0  0  0  0  0  0  0  0  0  0  0  0
  141.1250   70.6370  227.5580 C   0  0  0  0  0  0  0  0  0  0  0  0
  141.0590   71.5800  226.5270 C   0  0  0  0  0  0  0  0  0  0  0  0
  140.5020   71.2630  225.2860 C   0  0  0  0  0  0  0  0  0  0  0  0
  140.4380   72.1950  224.2990 N   0  0  0  0  0  0  0  0  0  0  0  0
  139.5250   74.5270  223.1540 H   0  0  0  0  0  0  0  0  0  0  0  0
  139.9004   75.9943  221.2327 H   0  0  0  0  0  0  0  0  0  0  0  0
  140.1103   74.3914  220.2643 H   0  0  0  0  0  0  0  0  0  0  0  0
  135.5776   73.8231  219.9109 H   0  0  0  0  0  0  0  0  0  0  0  0
  136.4328   73.1391  221.2873 H   0  0  0  0  0  0  0  0  0  0  0  0
  135.1154   74.4180  222.8703 H   0  0  0  0  0  0  0  0  0  0  0  0
  133.3030   73.7910  222.4800 H   0  0  0  0  0  0  0  0  0  0  0  0
  134.3353   76.2583  220.5361 H   0  0  0  0  0  0  0  0  0  0  0  0
  134.3608   76.6861  222.2286 H   0  0  0  0  0  0  0  0  0  0  0  0
  136.5375   77.2597  220.6765 H   0  0  0  0  0  0  0  0  0  0  0  0
  136.1778   77.3622  223.2365 H   0  0  0  0  0  0  0  0  0  0  0  0
  137.0807   75.7673  223.2128 H   0  0  0  0  0  0  0  0  0  0  0  0
  138.0968   79.8144  223.4243 H   0  0  0  0  0  0  0  0  0  0  0  0
  140.1157   81.1497  223.8028 H   0  0  0  0  0  0  0  0  0  0  0  0
  142.5799   77.8503  222.7652 H   0  0  0  0  0  0  0  0  0  0  0  0
  140.5985   76.4455  222.3634 H   0  0  0  0  0  0  0  0  0  0  0  0
  138.9316   70.3301  221.9255 H   0  0  0  0  0  0  0  0  0  0  0  0
  139.0689   68.6476  223.7552 H   0  0  0  0  0  0  0  0  0  0  0  0
  139.6609   68.0012  225.9171 H   0  0  0  0  0  0  0  0  0  0  0  0
  141.5644   70.8964  228.5325 H   0  0  0  0  0  0  0  0  0  0  0  0
  141.4541   72.5924  226.6971 H   0  0  0  0  0  0  0  0  0  0  0  0
  1  2  2  0
  2  3  1  0
  3  4  1  0
  4  5  1  0
  5  6  2  0
  5  7  1  0
  7  8  1  0
  8  9  1  0
  9 10  1  0
  9 11  1  0
 11 12  1  0
 12 13  1  0
 13 14  1  0
 14 15  1  0
 15 16  2  0
 16 17  1  0
 17 18  2  0
 18 19  1  0
 18 20  1  0
 20 21  2  0
  2 22  1  0
 22 23  2  0
 23 24  1  0
 24 25  2  0
 25 26  1  0
 26 27  2  0
 27 28  1  0
 27 29  1  0
 29 30  2  0
 30 31  1  0
 31 32  2  0
 12  7  1  0
 21 15  1  0
 32 22  1  0
 31 25  1  0
  3 33  1  0
  4 34  1  0
  4 35  1  0
  8 36  1  0
  8 37  1  0
  9 38  1  1
 10 39  1  0
 11 40  1  0
 11 41  1  0
 12 42  1  6
 13 43  1  0
 13 44  1  0
 16 45  1  0
 17 46  1  0
 20 47  1  0
 21 48  1  0
 23 49  1  0
 24 50  1  0
 26 51  1  0
 29 52  1  0
 30 53  1  0
M  END
>  <smiles>  (38) 
O=C(NCC(=O)N1C[C@H](O)C[C@H]1COc1ccc(Cl)cc1)c1ccc2cc(Cl)ccc2n1

>  <score_type>  (38) 
oracle

>  <origin>  (38) 
autodockgpu

>  <m_score__min__energy>  (38) 
-8.4800000000000004

>  <m_primary>  (38) 
energy

>  <rmsd>  (38) 
3.5883343776236716

>  <m_score__min__rmsd>  (38) 
3.5883343776236716

>  <meeko>  (38) 
{"free_energy": -7.25, "intermolecular_energy": -9.63, "internal_energy": -1.72, "cluster_size": 2, "cluster_id": 6, "rank_in_cluster": 2}

>  <energy>  (38) 
-7.25

>  <cluster_rmsd>  (38) 
0.45

>  <cluster>  (38) 
6

$$$$

     RDKit          3D

 53 56  0  0  0  0  0  0  0  0999 V2000
  140.0370   74.0330  221.9190 O   0  0  0  0  0  0  0  0  0  0  0  0
  140.1290   72.7580  221.8320 C   0  0  0  0  0  0  0  0  0  0  0  0
  140.2390   72.2650  220.4780 N   0  0  0  0  0  0  0  0  0  0  0  0
  140.2410   73.2370  219.4500 C   0  0  0  0  0  0  0  0  0  0  0  0
  141.2540   73.2130  218.4130 C   0  0  0  0  0  0  0  0  0  0  0  0
  140.7680   73.2490  217.1990 O   0  0  0  0  0  0  0  0  0  0  0  0
  142.6680   73.1580  218.5240 N   0  0  0  0  0  0  0  0  0  0  0  0
  143.7080   73.5190  217.6000 C   0  0  0  0  0  0  0  0  0  0  0  0
  144.9640   73.5050  218.4350 C   0  0  2  0  0  0  0  0  0  0  0  0
  146.1090   73.2700  217.6650 O   0  0  0  0  0  0  0  0  0  0  0  0
  144.7140   72.4020  219.4220 C   0  0  0  0  0  0  0  0  0  0  0  0
  143.2690   72.6100  219.7750 C   0  0  1  0  0  0  0  0  0  0  0  0
  143.1790   73.6310  220.8990 C   0  0  0  0  0  0  0  0  0  0  0  0
  143.0050   74.8680  220.4940 O   0  0  0  0  0  0  0  0  0  0  0  0
  142.6490   76.0140  220.0460 C   0  0  0  0  0  0  0  0  0  0  0  0
  143.3010   76.5020  218.8710 C   0  0  0  0  0  0  0  0  0  0  0  0
  142.9840   77.7100  218.3240 C   0  0  0  0  0  0  0  0  0  0  0  0
  142.0320   78.4770  218.8940 C   0  0  0  0  0  0  0  0  0  0  0  0
  141.6400   80.0140  218.1720 Cl  0  0  0  0  0  0  0  0  0  0  0  0
  141.3740   78.0840  220.0040 C   0  0  0  0  0  0  0  0  0  0  0  0
  141.6690   76.8720  220.5820 C   0  0  0  0  0  0  0  0  0  0  0  0
  140.1210   71.8950  222.9940 C   0  0  0  0  0  0  0  0  0  0  0  0
  139.5680   70.6260  222.8150 C   0  0  0  0  0  0  0  0  0  0  0  0
  139.5550   69.7490  223.8910 C   0  0  0  0  0  0  0  0  0  0  0  0
  140.0710   70.1120  225.1170 C   0  0  0  0  0  0  0  0  0  0  0  0
  140.0150   69.1960  226.1300 C   0  0  0  0  0  0  0  0  0  0  0  0
  140.5370   69.5990  227.3590 C   0  0  0  0  0  0  0  0  0  0  0  0
  140.5110   68.5090  228.7160 Cl  0  0  0  0  0  0  0  0  0  0  0  0
  141.0840   70.8530  227.5520 C   0  0  0  0  0  0  0  0  0  0  0  0
  141.1110   71.7390  226.4700 C   0  0  0  0  0  0  0  0  0  0  0  0
  140.6000   71.3770  225.2220 C   0  0  0  0  0  0  0  0  0  0  0  0
  140.6260   72.2550  224.1840 N   0  0  0  0  0  0  0  0  0  0  0  0
  140.3150   71.2350  220.4100 H   0  0  0  0  0  0  0  0  0  0  0  0
  139.2686   73.1593  218.9417 H   0  0  0  0  0  0  0  0  0  0  0  0
  140.4655   74.1677  219.9918 H   0  0  0  0  0  0  0  0  0  0  0  0
  143.7749   72.7867  216.7820 H   0  0  0  0  0  0  0  0  0  0  0  0
  143.5291   74.4941  217.1233 H   0  0  0  0  0  0  0  0  0  0  0  0
  145.1604   74.4733  218.9186 H   0  0  0  0  0  0  0  0  0  0  0  0
  146.4850   74.1620  217.4560 H   0  0  0  0  0  0  0  0  0  0  0  0
  144.8743   71.4144  218.9648 H   0  0  0  0  0  0  0  0  0  0  0  0
  145.3879   72.4274  220.2911 H   0  0  0  0  0  0  0  0  0  0  0  0
  142.7608   71.6955  220.1149 H   0  0  0  0  0  0  0  0  0  0  0  0
  142.3317   73.3579  221.5452 H   0  0  0  0  0  0  0  0  0  0  0  0
  144.1445   73.6052  221.4254 H   0  0  0  0  0  0  0  0  0  0  0  0
  144.0790   75.8866  218.3956 H   0  0  0  0  0  0  0  0  0  0  0  0
  143.5037   78.0585  217.4194 H   0  0  0  0  0  0  0  0  0  0  0  0
  140.6028   78.7321  220.4459 H   0  0  0  0  0  0  0  0  0  0  0  0
  141.1252   76.5641  221.4872 H   0  0  0  0  0  0  0  0  0  0  0  0
  139.1513   70.3272  221.8418 H   0  0  0  0  0  0  0  0  0  0  0  0
  139.1246   68.7448  223.7630 H   0  0  0  0  0  0  0  0  0  0  0  0
  139.5818   68.1955  225.9839 H   0  0  0  0  0  0  0  0  0  0  0  0
  141.4881   71.1472  228.5319 H   0  0  0  0  0  0  0  0  0  0  0  0
  141.5436   72.7413  226.6050 H   0  0  0  0  0  0  0  0  0  0  0  0
  1  2  2  0
  2  3  1  0
  3  4  1  0
  4  5  1  0
  5  6  2  0
  5  7  1  0
  7  8  1  0
  8  9  1  0
  9 10  1  0
  9 11  1  0
 11 12  1  0
 12 13  1  0
 13 14  1  0
 14 15  1  0
 15 16  2  0
 16 17  1  0
 17 18  2  0
 18 19  1  0
 18 20  1  0
 20 21  2  0
  2 22  1  0
 22 23  2  0
 23 24  1  0
 24 25  2  0
 25 26  1  0
 26 27  2  0
 27 28  1  0
 27 29  1  0
 29 30  2  0
 30 31  1  0
 31 32  2  0
 12  7  1  0
 21 15  1  0
 32 22  1  0
 31 25  1  0
  3 33  1  0
  4 34  1  0
  4 35  1  0
  8 36  1  0
  8 37  1  0
  9 38  1  1
 10 39  1  0
 11 40  1  0
 11 41  1  0
 12 42  1  1
 13 43  1  0
 13 44  1  0
 16 45  1  0
 17 46  1  0
 20 47  1  0
 21 48  1  0
 23 49  1  0
 24 50  1  0
 26 51  1  0
 29 52  1  0
 30 53  1  0
M  END
>  <smiles>  (39) 
O=C(NCC(=O)N1C[C@H](O)C[C@H]1COc1ccc(Cl)cc1)c1ccc2cc(Cl)ccc2n1

>  <score_type>  (39) 
oracle

>  <origin>  (39) 
autodockgpu

>  <m_score__min__energy>  (39) 
-8.4800000000000004

>  <m_primary>  (39) 
energy

>  <rmsd>  (39) 
3.630260943987899

>  <m_score__min__rmsd>  (39) 
3.630260943987899

>  <meeko>  (39) 
{"free_energy": -7.52, "intermolecular_energy": -9.91, "internal_energy": -1.98, "cluster_size": 22, "cluster_id": 1, "rank_in_cluster": 6}

>  <energy>  (39) 
-7.26

>  <cluster_rmsd>  (39) 
0.0

>  <cluster>  (39) 
7

$$$$

     RDKit          3D

 53 56  0  0  0  0  0  0  0  0999 V2000
  138.6980   71.5080  220.4540 O   0  0  0  0  0  0  0  0  0  0  0  0
  138.7890   72.0730  221.6010 C   0  0  0  0  0  0  0  0  0  0  0  0
  138.5420   73.4970  221.5780 N   0  0  0  0  0  0  0  0  0  0  0  0
  138.2290   74.0650  220.3200 C   0  0  0  0  0  0  0  0  0  0  0  0
  138.7870   75.3450  219.9280 C   0  0  0  0  0  0  0  0  0  0  0  0
  137.8900   76.2820  219.7600 O   0  0  0  0  0  0  0  0  0  0  0  0
  140.1370   75.7180  219.7050 N   0  0  0  0  0  0  0  0  0  0  0  0
  140.7120   76.8930  219.1110 C   0  0  0  0  0  0  0  0  0  0  0  0
  142.1780   76.8010  219.4530 C   0  0  2  0  0  0  0  0  0  0  0  0
  142.9810   77.4920  218.5390 O   0  0  0  0  0  0  0  0  0  0  0  0
  142.4480   75.3240  219.4350 C   0  0  0  0  0  0  0  0  0  0  0  0
  141.2190   74.7660  220.0940 C   0  0  1  0  0  0  0  0  0  0  0  0
  141.4210   74.7790  221.6020 C   0  0  0  0  0  0  0  0  0  0  0  0
  141.1010   75.9140  222.1810 O   0  0  0  0  0  0  0  0  0  0  0  0
  140.6520   77.0380  222.5970 C   0  0  0  0  0  0  0  0  0  0  0  0
  139.2370   77.2400  222.5760 C   0  0  0  0  0  0  0  0  0  0  0  0
  138.6720   78.4060  223.0030 C   0  0  0  0  0  0  0  0  0  0  0  0
  139.4560   79.4060  223.4590 C   0  0  0  0  0  0  0  0  0  0  0  0
  138.7100   80.8830  224.0030 Cl  0  0  0  0  0  0  0  0  0  0  0  0
  140.7980   79.2890  223.5080 C   0  0  0  0  0  0  0  0  0  0  0  0
  141.4010   78.1270  223.0860 C   0  0  0  0  0  0  0  0  0  0  0  0
  139.1120   71.3410  222.8060 C   0  0  0  0  0  0  0  0  0  0  0  0
  138.6940   70.0090  222.8480 C   0  0  0  0  0  0  0  0  0  0  0  0
  138.9970   69.2540  223.9720 C   0  0  0  0  0  0  0  0  0  0  0  0
  139.6940   69.7940  225.0330 C   0  0  0  0  0  0  0  0  0  0  0  0
  139.9480   68.9870  226.1070 C   0  0  0  0  0  0  0  0  0  0  0  0
  140.6460   69.5680  227.1650 C   0  0  0  0  0  0  0  0  0  0  0  0
  141.0160   68.6290  228.5830 Cl  0  0  0  0  0  0  0  0  0  0  0  0
  141.0630   70.8850  227.1400 C   0  0  0  0  0  0  0  0  0  0  0  0
  140.7710   71.6510  226.0060 C   0  0  0  0  0  0  0  0  0  0  0  0
  140.0740   71.1100  224.9230 C   0  0  0  0  0  0  0  0  0  0  0  0
  139.7920   71.8730  223.8330 N   0  0  0  0  0  0  0  0  0  0  0  0
  138.6140   73.9510  222.5050 H   0  0  0  0  0  0  0  0  0  0  0  0
  138.5461   73.3372  219.5586 H   0  0  0  0  0  0  0  0  0  0  0  0
  137.1542   74.2819  220.4085 H   0  0  0  0  0  0  0  0  0  0  0  0
  140.5649   76.8909  218.0209 H   0  0  0  0  0  0  0  0  0  0  0  0
  140.2506   77.8207  219.4805 H   0  0  0  0  0  0  0  0  0  0  0  0
  142.4149   77.2664  220.4211 H   0  0  0  0  0  0  0  0  0  0  0  0
  143.7040   77.9090  219.0720 H   0  0  0  0  0  0  0  0  0  0  0  0
  142.5524   74.9506  218.4056 H   0  0  0  0  0  0  0  0  0  0  0  0
  143.3845   75.0412  219.9380 H   0  0  0  0  0  0  0  0  0  0  0  0
  140.9892   73.7319  219.7975 H   0  0  0  0  0  0  0  0  0  0  0  0
  140.8011   73.9825  222.0394 H   0  0  0  0  0  0  0  0  0  0  0  0
  142.4966   74.6287  221.7768 H   0  0  0  0  0  0  0  0  0  0  0  0
  138.5865   76.4339  222.2057 H   0  0  0  0  0  0  0  0  0  0  0  0
  137.5795   78.5312  222.9758 H   0  0  0  0  0  0  0  0  0  0  0  0
  141.4100   80.1217  223.8849 H   0  0  0  0  0  0  0  0  0  0  0  0
  142.4970   78.0456  223.1314 H   0  0  0  0  0  0  0  0  0  0  0  0
  138.1367   69.5681  222.0083 H   0  0  0  0  0  0  0  0  0  0  0  0
  138.6748   68.2032  224.0180 H   0  0  0  0  0  0  0  0  0  0  0  0
  139.6199   67.9375  226.1349 H   0  0  0  0  0  0  0  0  0  0  0  0
  141.6102   71.3200  227.9893 H   0  0  0  0  0  0  0  0  0  0  0  0
  141.0970   72.7008  225.9665 H   0  0  0  0  0  0  0  0  0  0  0  0
  1  2  2  0
  2  3  1  0
  3  4  1  0
  4  5  1  0
  5  6  2  0
  5  7  1  0
  7  8  1  0
  8  9  1  0
  9 10  1  0
  9 11  1  0
 11 12  1  0
 12 13  1  0
 13 14  1  0
 14 15  1  0
 15 16  2  0
 16 17  1  0
 17 18  2  0
 18 19  1  0
 18 20  1  0
 20 21  2  0
  2 22  1  0
 22 23  2  0
 23 24  1  0
 24 25  2  0
 25 26  1  0
 26 27  2  0
 27 28  1  0
 27 29  1  0
 29 30  2  0
 30 31  1  0
 31 32  2  0
 12  7  1  0
 21 15  1  0
 32 22  1  0
 31 25  1  0
  3 33  1  0
  4 34  1  0
  4 35  1  0
  8 36  1  0
  8 37  1  0
  9 38  1  1
 10 39  1  0
 11 40  1  0
 11 41  1  0
 12 42  1  6
 13 43  1  0
 13 44  1  0
 16 45  1  0
 17 46  1  0
 20 47  1  0
 21 48  1  0
 23 49  1  0
 24 50  1  0
 26 51  1  0
 29 52  1  0
 30 53  1  0
M  END
>  <smiles>  (40) 
O=C(NCC(=O)N1C[C@H](O)C[C@H]1COc1ccc(Cl)cc1)c1ccc2cc(Cl)ccc2n1

>  <score_type>  (40) 
oracle

>  <origin>  (40) 
autodockgpu

>  <m_score__min__energy>  (40) 
-8.4800000000000004

>  <m_primary>  (40) 
energy

>  <rmsd>  (40) 
1.9750818199748956

>  <m_score__min__rmsd>  (40) 
1.9750818199748956

>  <meeko>  (40) 
{"free_energy": -7.52, "intermolecular_energy": -9.91, "internal_energy": -2.15, "cluster_size": 22, "cluster_id": 1, "rank_in_cluster": 7}

>  <energy>  (40) 
-7.14

>  <cluster_rmsd>  (40) 
0.0

>  <cluster>  (40) 
8

$$$$

     RDKit          3D

 53 56  0  0  0  0  0  0  0  0999 V2000
  132.7200   70.1840  226.4660 O   0  0  0  0  0  0  0  0  0  0  0  0
  133.4260   71.2400  226.2940 C   0  0  0  0  0  0  0  0  0  0  0  0
  134.7010   71.0010  225.6570 N   0  0  0  0  0  0  0  0  0  0  0  0
  134.9920   69.6610  225.3070 C   0  0  0  0  0  0  0  0  0  0  0  0
  135.6960   69.3550  224.0760 C   0  0  0  0  0  0  0  0  0  0  0  0
  135.4820   68.1430  223.6340 O   0  0  0  0  0  0  0  0  0  0  0  0
  136.5640   70.1650  223.3000 N   0  0  0  0  0  0  0  0  0  0  0  0
  136.8890   71.5620  223.3850 C   0  0  0  0  0  0  0  0  0  0  0  0
  138.0840   71.7190  222.4780 C   0  0  2  0  0  0  0  0  0  0  0  0
  138.2050   73.0220  221.9810 O   0  0  0  0  0  0  0  0  0  0  0  0
  137.8260   70.7220  221.3850 C   0  0  0  0  0  0  0  0  0  0  0  0
  137.2830   69.5470  222.1470 C   0  0  1  0  0  0  0  0  0  0  0  0
  138.4460   68.6990  222.6400 C   0  0  0  0  0  0  0  0  0  0  0  0
  138.9330   69.0700  223.8020 O   0  0  0  0  0  0  0  0  0  0  0  0
  139.4300   69.6150  224.8490 C   0  0  0  0  0  0  0  0  0  0  0  0
  140.2000   70.8070  224.6780 C   0  0  0  0  0  0  0  0  0  0  0  0
  140.7640   71.4550  225.7380 C   0  0  0  0  0  0  0  0  0  0  0  0
  140.6020   70.9690  226.9860 C   0  0  0  0  0  0  0  0  0  0  0  0
  141.3280   71.8180  228.3230 Cl  0  0  0  0  0  0  0  0  0  0  0  0
  139.8900   69.8500  227.2260 C   0  0  0  0  0  0  0  0  0  0  0  0
  139.3070   69.1720  226.1800 C   0  0  0  0  0  0  0  0  0  0  0  0
  132.9750   72.5520  226.7050 C   0  0  0  0  0  0  0  0  0  0  0  0
  131.7960   72.5920  227.4520 C   0  0  0  0  0  0  0  0  0  0  0  0
  131.3300   73.8240  227.8920 C   0  0  0  0  0  0  0  0  0  0  0  0
  132.0060   74.9900  227.6020 C   0  0  0  0  0  0  0  0  0  0  0  0
  131.4800   76.1640  228.0640 C   0  0  0  0  0  0  0  0  0  0  0  0
  132.1830   77.3260  227.7450 C   0  0  0  0  0  0  0  0  0  0  0  0
  131.5960   78.8740  228.2820 Cl  0  0  0  0  0  0  0  0  0  0  0  0
  133.3490   77.3020  227.0040 C   0  0  0  0  0  0  0  0  0  0  0  0
  133.8310   76.0650  226.5650 C   0  0  0  0  0  0  0  0  0  0  0  0
  133.1590   74.8760  226.8620 C   0  0  0  0  0  0  0  0  0  0  0  0
  133.6390   73.6830  226.4200 N   0  0  0  0  0  0  0  0  0  0  0  0
  135.2680   71.8550  225.5180 H   0  0  0  0  0  0  0  0  0  0  0  0
  135.5968   69.2460  226.1268 H   0  0  0  0  0  0  0  0  0  0  0  0
  133.9949   69.2298  225.1339 H   0  0  0  0  0  0  0  0  0  0  0  0
  136.0492   72.1801  223.0346 H   0  0  0  0  0  0  0  0  0  0  0  0
  137.0969   71.8846  224.4159 H   0  0  0  0  0  0  0  0  0  0  0  0
  139.0358   71.5424  223.0003 H   0  0  0  0  0  0  0  0  0  0  0  0
  138.3030   73.6070  222.7730 H   0  0  0  0  0  0  0  0  0  0  0  0
  137.0892   71.1038  220.6630 H   0  0  0  0  0  0  0  0  0  0  0  0
  138.7170   70.4849  220.7851 H   0  0  0  0  0  0  0  0  0  0  0  0
  136.6279   68.8974  221.5480 H   0  0  0  0  0  0  0  0  0  0  0  0
  138.1002   67.6585  222.7281 H   0  0  0  0  0  0  0  0  0  0  0  0
  139.2566   68.8204  221.9064 H   0  0  0  0  0  0  0  0  0  0  0  0
  140.3416   71.2125  223.6653 H   0  0  0  0  0  0  0  0  0  0  0  0
  141.3496   72.3718  225.5753 H   0  0  0  0  0  0  0  0  0  0  0  0
  139.7752   69.4797  228.2554 H   0  0  0  0  0  0  0  0  0  0  0  0
  138.7294   68.2595  226.3892 H   0  0  0  0  0  0  0  0  0  0  0  0
  131.2481   71.6676  227.6869 H   0  0  0  0  0  0  0  0  0  0  0  0
  130.4036   73.8704  228.4833 H   0  0  0  0  0  0  0  0  0  0  0  0
  130.5528   76.1911  228.6552 H   0  0  0  0  0  0  0  0  0  0  0  0
  133.8846   78.2327  226.7654 H   0  0  0  0  0  0  0  0  0  0  0  0
  134.7579   76.0269  225.9739 H   0  0  0  0  0  0  0  0  0  0  0  0
  1  2  2  0
  2  3  1  0
  3  4  1  0
  4  5  1  0
  5  6  2  0
  5  7  1  0
  7  8  1  0
  8  9  1  0
  9 10  1  0
  9 11  1  0
 11 12  1  0
 12 13  1  0
 13 14  1  0
 14 15  1  0
 15 16  2  0
 16 17  1  0
 17 18  2  0
 18 19  1  0
 18 20  1  0
 20 21  2  0
  2 22  1  0
 22 23  2  0
 23 24  1  0
 24 25  2  0
 25 26  1  0
 26 27  2  0
 27 28  1  0
 27 29  1  0
 29 30  2  0
 30 31  1  0
 31 32  2  0
 12  7  1  0
 21 15  1  0
 32 22  1  0
 31 25  1  0
  3 33  1  0
  4 34  1  0
  4 35  1  0
  8 36  1  0
  8 37  1  0
  9 38  1  1
 10 39  1  0
 11 40  1  0
 11 41  1  0
 12 42  1  6
 13 43  1  0
 13 44  1  0
 16 45  1  0
 17 46  1  0
 20 47  1  0
 21 48  1  0
 23 49  1  0
 24 50  1  0
 26 51  1  0
 29 52  1  0
 30 53  1  0
M  END
>  <smiles>  (41) 
O=C(NCC(=O)N1C[C@H](O)C[C@H]1COc1ccc(Cl)cc1)c1ccc2cc(Cl)ccc2n1

>  <score_type>  (41) 
oracle

>  <origin>  (41) 
autodockgpu

>  <m_score__min__energy>  (41) 
-8.4800000000000004

>  <m_primary>  (41) 
energy

>  <rmsd>  (41) 
8.48140076565435

>  <m_score__min__rmsd>  (41) 
8.48140076565435

>  <meeko>  (41) 
{"free_energy": -8.23, "intermolecular_energy": -10.61, "internal_energy": -1.83, "cluster_size": 4, "cluster_id": 2, "rank_in_cluster": 1}

>  <energy>  (41) 
-7.09

>  <cluster_rmsd>  (41) 
0.0

>  <cluster>  (41) 
9

$$$$

     RDKit          3D

 53 56  0  0  0  0  0  0  0  0999 V2000
  138.0480   71.2170  220.8470 O   0  0  0  0  0  0  0  0  0  0  0  0
  138.4490   71.7890  221.9210 C   0  0  0  0  0  0  0  0  0  0  0  0
  138.4680   73.2330  221.8490 N   0  0  0  0  0  0  0  0  0  0  0  0
  138.0410   73.8100  220.6300 C   0  0  0  0  0  0  0  0  0  0  0  0
  138.9580   73.9450  219.5150 C   0  0  0  0  0  0  0  0  0  0  0  0
  138.4010   73.7520  218.3470 O   0  0  0  0  0  0  0  0  0  0  0  0
  140.3440   74.2490  219.5090 N   0  0  0  0  0  0  0  0  0  0  0  0
  141.0900   75.2670  218.8210 C   0  0  0  0  0  0  0  0  0  0  0  0
  142.4490   75.2340  219.4760 C   0  0  2  0  0  0  0  0  0  0  0  0
  143.4570   75.7080  218.6290 O   0  0  0  0  0  0  0  0  0  0  0  0
  142.6370   73.7840  219.8170 C   0  0  0  0  0  0  0  0  0  0  0  0
  141.2710   73.3910  220.3030 C   0  0  1  0  0  0  0  0  0  0  0  0
  141.1620   73.7200  221.7850 C   0  0  0  0  0  0  0  0  0  0  0  0
  140.5320   74.8430  222.0450 O   0  0  0  0  0  0  0  0  0  0  0  0
  140.1020   76.0120  222.3410 C   0  0  0  0  0  0  0  0  0  0  0  0
  141.0670   77.0510  222.5230 C   0  0  0  0  0  0  0  0  0  0  0  0
  140.6970   78.3260  222.8380 C   0  0  0  0  0  0  0  0  0  0  0  0
  139.3910   78.6310  222.9850 C   0  0  0  0  0  0  0  0  0  0  0  0
  138.9450   80.2670  223.3820 Cl  0  0  0  0  0  0  0  0  0  0  0  0
  138.4240   77.7040  222.8300 C   0  0  0  0  0  0  0  0  0  0  0  0
  138.7610   76.4090  222.5120 C   0  0  0  0  0  0  0  0  0  0  0  0
  138.8470   71.0460  223.0980 C   0  0  0  0  0  0  0  0  0  0  0  0
  138.4330   69.7140  223.1530 C   0  0  0  0  0  0  0  0  0  0  0  0
  138.8060   68.9480  224.2490 C   0  0  0  0  0  0  0  0  0  0  0  0
  139.5660   69.4800  225.2700 C   0  0  0  0  0  0  0  0  0  0  0  0
  139.8860   68.6640  226.3190 C   0  0  0  0  0  0  0  0  0  0  0  0
  140.6470   69.2360  227.3380 C   0  0  0  0  0  0  0  0  0  0  0  0
  141.1050   68.2850  228.7210 Cl  0  0  0  0  0  0  0  0  0  0  0  0
  141.0610   70.5540  227.2980 C   0  0  0  0  0  0  0  0  0  0  0  0
  140.6990   71.3300  226.1930 C   0  0  0  0  0  0  0  0  0  0  0  0
  139.9380   70.7980  225.1490 C   0  0  0  0  0  0  0  0  0  0  0  0
  139.5880   71.5700  224.0860 N   0  0  0  0  0  0  0  0  0  0  0  0
  138.7900   73.6930  222.7170 H   0  0  0  0  0  0  0  0  0  0  0  0
  137.1981   73.2006  220.2719 H   0  0  0  0  0  0  0  0  0  0  0  0
  137.8390   74.8544  220.9099 H   0  0  0  0  0  0  0  0  0  0  0  0
  141.1679   75.0362  217.7483 H   0  0  0  0  0  0  0  0  0  0  0  0
  140.6137   76.2564  218.8868 H   0  0  0  0  0  0  0  0  0  0  0  0
  142.5087   75.8903  220.3568 H   0  0  0  0  0  0  0  0  0  0  0  0
  144.3090   75.3750  219.0060 H   0  0  0  0  0  0  0  0  0  0  0  0
  142.9279   73.2006  218.9310 H   0  0  0  0  0  0  0  0  0  0  0  0
  143.4353   73.6038  220.5520 H   0  0  0  0  0  0  0  0  0  0  0  0
  141.0509   72.3200  220.1829 H   0  0  0  0  0  0  0  0  0  0  0  0
  140.6226   72.8997  222.2811 H   0  0  0  0  0  0  0  0  0  0  0  0
  142.1900   73.8425  222.1567 H   0  0  0  0  0  0  0  0  0  0  0  0
  142.1353   76.8165  222.4061 H   0  0  0  0  0  0  0  0  0  0  0  0
  141.4627   79.1043  222.9719 H   0  0  0  0  0  0  0  0  0  0  0  0
  137.3677   77.9830  222.9577 H   0  0  0  0  0  0  0  0  0  0  0  0
  137.9621   75.6632  222.3878 H   0  0  0  0  0  0  0  0  0  0  0  0
  137.8245   69.2808  222.3455 H   0  0  0  0  0  0  0  0  0  0  0  0
  138.4893   67.8960  224.3044 H   0  0  0  0  0  0  0  0  0  0  0  0
  139.5611   67.6138  226.3572 H   0  0  0  0  0  0  0  0  0  0  0  0
  141.6604   70.9817  228.1152 H   0  0  0  0  0  0  0  0  0  0  0  0
  141.0199   72.3810  226.1444 H   0  0  0  0  0  0  0  0  0  0  0  0
  1  2  2  0
  2  3  1  0
  3  4  1  0
  4  5  1  0
  5  6  2  0
  5  7  1  0
  7  8  1  0
  8  9  1  0
  9 10  1  0
  9 11  1  0
 11 12  1  0
 12 13  1  0
 13 14  1  0
 14 15  1  0
 15 16  2  0
 16 17  1  0
 17 18  2  0
 18 19  1  0
 18 20  1  0
 20 21  2  0
  2 22  1  0
 22 23  2  0
 23 24  1  0
 24 25  2  0
 25 26  1  0
 26 27  2  0
 27 28  1  0
 27 29  1  0
 29 30  2  0
 30 31  1  0
 31 32  2  0
 12  7  1  0
 21 15  1  0
 32 22  1  0
 31 25  1  0
  3 33  1  0
  4 34  1  0
  4 35  1  0
  8 36  1  0
  8 37  1  0
  9 38  1  1
 10 39  1  0
 11 40  1  0
 11 41  1  0
 12 42  1  1
 13 43  1  0
 13 44  1  0
 16 45  1  0
 17 46  1  0
 20 47  1  0
 21 48  1  0
 23 49  1  0
 24 50  1  0
 26 51  1  0
 29 52  1  0
 30 53  1  0
M  END
>  <smiles>  (42) 
O=C(NCC(=O)N1C[C@H](O)C[C@H]1COc1ccc(Cl)cc1)c1ccc2cc(Cl)ccc2n1

>  <score_type>  (42) 
oracle

>  <origin>  (42) 
autodockgpu

>  <m_score__min__energy>  (42) 
-8.4800000000000004

>  <m_primary>  (42) 
energy

>  <rmsd>  (42) 
2.2834604761515243

>  <m_score__min__rmsd>  (42) 
2.2834604761515243

>  <meeko>  (42) 
{"free_energy": -7.38, "intermolecular_energy": -9.76, "internal_energy": -2.61, "cluster_size": 22, "cluster_id": 1, "rank_in_cluster": 15}

>  <energy>  (42) 
-6.87

>  <cluster_rmsd>  (42) 
0.77

>  <cluster>  (42) 
9

$$$$

     RDKit          3D

 53 56  0  0  0  0  0  0  0  0999 V2000
  140.3510   73.4340  222.3700 O   0  0  0  0  0  0  0  0  0  0  0  0
  139.9340   74.2930  221.5160 C   0  0  0  0  0  0  0  0  0  0  0  0
  140.0500   73.8630  220.1410 N   0  0  0  0  0  0  0  0  0  0  0  0
  140.5880   72.5720  219.9260 C   0  0  0  0  0  0  0  0  0  0  0  0
  141.9160   72.2370  220.4040 C   0  0  0  0  0  0  0  0  0  0  0  0
  141.9410   71.2120  221.2160 O   0  0  0  0  0  0  0  0  0  0  0  0
  143.1650   72.8480  220.1220 N   0  0  0  0  0  0  0  0  0  0  0  0
  144.4530   72.2840  219.8270 C   0  0  0  0  0  0  0  0  0  0  0  0
  145.2650   73.4550  219.3340 C   0  0  2  0  0  0  0  0  0  0  0  0
  146.6390   73.2690  219.5290 O   0  0  0  0  0  0  0  0  0  0  0  0
  144.7350   74.6090  220.1350 C   0  0  0  0  0  0  0  0  0  0  0  0
  143.2580   74.3370  220.1480 C   0  0  1  0  0  0  0  0  0  0  0  0
  142.6370   74.9310  218.8920 C   0  0  0  0  0  0  0  0  0  0  0  0
  142.5590   76.2420  218.8950 O   0  0  0  0  0  0  0  0  0  0  0  0
  142.3390   77.4950  219.0390 C   0  0  0  0  0  0  0  0  0  0  0  0
  141.8170   77.9410  220.2920 C   0  0  0  0  0  0  0  0  0  0  0  0
  141.5550   79.2580  220.5330 C   0  0  0  0  0  0  0  0  0  0  0  0
  141.7900   80.1760  219.5730 C   0  0  0  0  0  0  0  0  0  0  0  0
  141.4530   81.8530  219.9070 Cl  0  0  0  0  0  0  0  0  0  0  0  0
  142.2810   79.8320  218.3650 C   0  0  0  0  0  0  0  0  0  0  0  0
  142.5560   78.5130  218.0890 C   0  0  0  0  0  0  0  0  0  0  0  0
  139.3970   75.5800  221.9040 C   0  0  0  0  0  0  0  0  0  0  0  0
  138.0210   75.7480  221.7360 C   0  0  0  0  0  0  0  0  0  0  0  0
  137.4490   76.9550  222.1130 C   0  0  0  0  0  0  0  0  0  0  0  0
  138.2120   77.9750  222.6430 C   0  0  0  0  0  0  0  0  0  0  0  0
  137.5760   79.1360  222.9840 C   0  0  0  0  0  0  0  0  0  0  0  0
  138.3780   80.1500  223.5070 C   0  0  0  0  0  0  0  0  0  0  0  0
  137.6680   81.6710  223.9690 Cl  0  0  0  0  0  0  0  0  0  0  0  0
  139.7410   79.9990  223.6760 C   0  0  0  0  0  0  0  0  0  0  0  0
  140.3240   78.7820  223.3080 C   0  0  0  0  0  0  0  0  0  0  0  0
  139.5590   77.7390  222.7810 C   0  0  0  0  0  0  0  0  0  0  0  0
  140.1450   76.5670  222.4200 N   0  0  0  0  0  0  0  0  0  0  0  0
  139.7110   74.5570  219.4530 H   0  0  0  0  0  0  0  0  0  0  0  0
  139.8948   71.8596  220.3972 H   0  0  0  0  0  0  0  0  0  0  0  0
  140.7020   72.5314  218.8327 H   0  0  0  0  0  0  0  0  0  0  0  0
  144.9047   71.8488  220.7307 H   0  0  0  0  0  0  0  0  0  0  0  0
  144.3976   71.4694  219.0899 H   0  0  0  0  0  0  0  0  0  0  0  0
  145.1676   73.6078  218.2490 H   0  0  0  0  0  0  0  0  0  0  0  0
  147.0590   74.1510  219.3710 H   0  0  0  0  0  0  0  0  0  0  0  0
  145.1490   74.6102  221.1541 H   0  0  0  0  0  0  0  0  0  0  0  0
  144.9984   75.5925  219.7186 H   0  0  0  0  0  0  0  0  0  0  0  0
  142.7363   74.7707  221.0138 H   0  0  0  0  0  0  0  0  0  0  0  0
  143.2457   74.6242  218.0287 H   0  0  0  0  0  0  0  0  0  0  0  0
  141.6046   74.5544  218.8431 H   0  0  0  0  0  0  0  0  0  0  0  0
  141.6211   77.2027  221.0836 H   0  0  0  0  0  0  0  0  0  0  0  0
  141.1530   79.5706  221.5080 H   0  0  0  0  0  0  0  0  0  0  0  0
  142.4611   80.6042  217.6026 H   0  0  0  0  0  0  0  0  0  0  0  0
  142.9562   78.2454  217.0999 H   0  0  0  0  0  0  0  0  0  0  0  0
  137.4038   74.9412  221.3140 H   0  0  0  0  0  0  0  0  0  0  0  0
  136.3661   77.1013  221.9868 H   0  0  0  0  0  0  0  0  0  0  0  0
  136.4913   79.2634  222.8531 H   0  0  0  0  0  0  0  0  0  0  0  0
  140.3520   80.8150  224.0894 H   0  0  0  0  0  0  0  0  0  0  0  0
  141.4077   78.6434  223.4363 H   0  0  0  0  0  0  0  0  0  0  0  0
  1  2  2  0
  2  3  1  0
  3  4  1  0
  4  5  1  0
  5  6  2  0
  5  7  1  0
  7  8  1  0
  8  9  1  0
  9 10  1  0
  9 11  1  0
 11 12  1  0
 12 13  1  0
 13 14  1  0
 14 15  1  0
 15 16  2  0
 16 17  1  0
 17 18  2  0
 18 19  1  0
 18 20  1  0
 20 21  2  0
  2 22  1  0
 22 23  2  0
 23 24  1  0
 24 25  2  0
 25 26  1  0
 26 27  2  0
 27 28  1  0
 27 29  1  0
 29 30  2  0
 30 31  1  0
 31 32  2  0
 12  7  1  0
 21 15  1  0
 32 22  1  0
 31 25  1  0
  3 33  1  0
  4 34  1  0
  4 35  1  0
  8 36  1  0
  8 37  1  0
  9 38  1  6
 10 39  1  0
 11 40  1  0
 11 41  1  0
 12 42  1  1
 13 43  1  0
 13 44  1  0
 16 45  1  0
 17 46  1  0
 20 47  1  0
 21 48  1  0
 23 49  1  0
 24 50  1  0
 26 51  1  0
 29 52  1  0
 30 53  1  0
M  END
>  <smiles>  (43) 
O=C(NCC(=O)N1C[C@H](O)C[C@H]1COc1ccc(Cl)cc1)c1ccc2cc(Cl)ccc2n1

>  <score_type>  (43) 
oracle

>  <origin>  (43) 
autodockgpu

>  <m_score__min__energy>  (43) 
-8.4800000000000004

>  <m_primary>  (43) 
energy

>  <rmsd>  (43) 
6.854579782071717

>  <m_score__min__rmsd>  (43) 
6.854579782071717

>  <meeko>  (43) 
{"free_energy": -6.8, "intermolecular_energy": -9.19, "internal_energy": -2.16, "cluster_size": 2, "cluster_id": 11, "rank_in_cluster": 1}

>  <energy>  (43) 
-6.58

>  <cluster_rmsd>  (43) 
0.9

>  <cluster>  (43) 
9

$$$$

     RDKit          3D

 53 56  0  0  0  0  0  0  0  0999 V2000
  133.2860   69.7840  226.5520 O   0  0  0  0  0  0  0  0  0  0  0  0
  133.8440   70.9060  226.2820 C   0  0  0  0  0  0  0  0  0  0  0  0
  135.1110   70.7850  225.5950 N   0  0  0  0  0  0  0  0  0  0  0  0
  135.5520   69.4710  225.3100 C   0  0  0  0  0  0  0  0  0  0  0  0
  135.6400   69.0020  223.9400 C   0  0  0  0  0  0  0  0  0  0  0  0
  134.7240   68.1250  223.6230 O   0  0  0  0  0  0  0  0  0  0  0  0
  136.5590   69.3520  222.9170 N   0  0  0  0  0  0  0  0  0  0  0  0
  137.1010   70.6220  222.5210 C   0  0  0  0  0  0  0  0  0  0  0  0
  138.2300   70.2660  221.5870 C   0  0  2  0  0  0  0  0  0  0  0  0
  138.5110   71.2940  220.6790 O   0  0  0  0  0  0  0  0  0  0  0  0
  137.7370   69.0270  220.8980 C   0  0  0  0  0  0  0  0  0  0  0  0
  137.0810   68.2770  222.0230 C   0  0  1  0  0  0  0  0  0  0  0  0
  138.1350   67.4510  222.7440 C   0  0  0  0  0  0  0  0  0  0  0  0
  138.7530   68.0880  223.7130 O   0  0  0  0  0  0  0  0  0  0  0  0
  139.1700   68.7760  224.7090 C   0  0  0  0  0  0  0  0  0  0  0  0
  139.7140   70.0700  224.4450 C   0  0  0  0  0  0  0  0  0  0  0  0
  140.1800   70.8710  225.4460 C   0  0  0  0  0  0  0  0  0  0  0  0
  140.1330   70.4440  226.7250 C   0  0  0  0  0  0  0  0  0  0  0  0
  140.7280   71.4880  227.9860 Cl  0  0  0  0  0  0  0  0  0  0  0  0
  139.6350   69.2350  227.0520 C   0  0  0  0  0  0  0  0  0  0  0  0
  139.1570   68.4020  226.0670 C   0  0  0  0  0  0  0  0  0  0  0  0
  133.2510   72.1760  226.6380 C   0  0  0  0  0  0  0  0  0  0  0  0
  131.9930   72.1200  227.2430 C   0  0  0  0  0  0  0  0  0  0  0  0
  131.3870   73.3090  227.6260 C   0  0  0  0  0  0  0  0  0  0  0  0
  132.0020   74.5260  227.4170 C   0  0  0  0  0  0  0  0  0  0  0  0
  131.3370   75.6530  227.8150 C   0  0  0  0  0  0  0  0  0  0  0  0
  131.9820   76.8670  227.5800 C   0  0  0  0  0  0  0  0  0  0  0  0
  131.2210   78.3610  228.0440 Cl  0  0  0  0  0  0  0  0  0  0  0  0
  133.2240   76.9380  226.9790 C   0  0  0  0  0  0  0  0  0  0  0  0
  133.8470   75.7440  226.5990 C   0  0  0  0  0  0  0  0  0  0  0  0
  133.2380   74.5060  226.8160 C   0  0  0  0  0  0  0  0  0  0  0  0
  133.8550   73.3560  226.4320 N   0  0  0  0  0  0  0  0  0  0  0  0
  135.5590   71.6910  225.3770 H   0  0  0  0  0  0  0  0  0  0  0  0
  136.5602   69.3774  225.7399 H   0  0  0  0  0  0  0  0  0  0  0  0
  134.7521   68.8457  225.7332 H   0  0  0  0  0  0  0  0  0  0  0  0
  136.3416   71.2260  222.0029 H   0  0  0  0  0  0  0  0  0  0  0  0
  137.4368   71.2232  223.3787 H   0  0  0  0  0  0  0  0  0  0  0  0
  139.1811   70.1088  222.1168 H   0  0  0  0  0  0  0  0  0  0  0  0
  137.9820   72.0750  220.9780 H   0  0  0  0  0  0  0  0  0  0  0  0
  137.0133   69.2720  220.1067 H   0  0  0  0  0  0  0  0  0  0  0  0
  138.5308   68.4579  220.3920 H   0  0  0  0  0  0  0  0  0  0  0  0
  136.2882   67.5895  221.6931 H   0  0  0  0  0  0  0  0  0  0  0  0
  137.6441   66.5649  223.1727 H   0  0  0  0  0  0  0  0  0  0  0  0
  138.9007   67.1965  221.9964 H   0  0  0  0  0  0  0  0  0  0  0  0
  139.7584   70.4303  223.4066 H   0  0  0  0  0  0  0  0  0  0  0  0
  140.5932   71.8630  225.2109 H   0  0  0  0  0  0  0  0  0  0  0  0
  139.6108   68.9150  228.1042 H   0  0  0  0  0  0  0  0  0  0  0  0
  138.7539   67.4177  226.3474 H   0  0  0  0  0  0  0  0  0  0  0  0
  131.4934   71.1547  227.4122 H   0  0  0  0  0  0  0  0  0  0  0  0
  130.3974   73.2800  228.1054 H   0  0  0  0  0  0  0  0  0  0  0  0
  130.3480   75.6045  228.2940 H   0  0  0  0  0  0  0  0  0  0  0  0
  133.7109   77.9087  226.8036 H   0  0  0  0  0  0  0  0  0  0  0  0
  134.8364   75.7812  226.1197 H   0  0  0  0  0  0  0  0  0  0  0  0
  1  2  2  0
  2  3  1  0
  3  4  1  0
  4  5  1  0
  5  6  2  0
  5  7  1  0
  7  8  1  0
  8  9  1  0
  9 10  1  0
  9 11  1  0
 11 12  1  0
 12 13  1  0
 13 14  1  0
 14 15  1  0
 15 16  2  0
 16 17  1  0
 17 18  2  0
 18 19  1  0
 18 20  1  0
 20 21  2  0
  2 22  1  0
 22 23  2  0
 23 24  1  0
 24 25  2  0
 25 26  1  0
 26 27  2  0
 27 28  1  0
 27 29  1  0
 29 30  2  0
 30 31  1  0
 31 32  2  0
 12  7  1  0
 21 15  1  0
 32 22  1  0
 31 25  1  0
  3 33  1  0
  4 34  1  0
  4 35  1  0
  8 36  1  0
  8 37  1  0
  9 38  1  1
 10 39  1  0
 11 40  1  0
 11 41  1  0
 12 42  1  6
 13 43  1  0
 13 44  1  0
 16 45  1  0
 17 46  1  0
 20 47  1  0
 21 48  1  0
 23 49  1  0
 24 50  1  0
 26 51  1  0
 29 52  1  0
 30 53  1  0
M  END
>  <smiles>  (44) 
O=C(NCC(=O)N1C[C@H](O)C[C@H]1COc1ccc(Cl)cc1)c1ccc2cc(Cl)ccc2n1

>  <score_type>  (44) 
oracle

>  <origin>  (44) 
autodockgpu

>  <m_score__min__energy>  (44) 
-8.4800000000000004

>  <m_primary>  (44) 
energy

>  <rmsd>  (44) 
8.579457677011366

>  <m_score__min__rmsd>  (44) 
8.579457677011366

>  <meeko>  (44) 
{"free_energy": -7.71, "intermolecular_energy": -10.09, "internal_energy": -1.91, "cluster_size": 4, "cluster_id": 2, "rank_in_cluster": 2}

>  <energy>  (44) 
-6.93

>  <cluster_rmsd>  (44) 
0.0

>  <cluster>  (44) 
10

$$$$

     RDKit          3D

 53 56  0  0  0  0  0  0  0  0999 V2000
  138.0440   71.2260  220.8230 O   0  0  0  0  0  0  0  0  0  0  0  0
  138.4340   71.8040  221.8980 C   0  0  0  0  0  0  0  0  0  0  0  0
  138.4410   73.2480  221.8220 N   0  0  0  0  0  0  0  0  0  0  0  0
  138.0170   73.8190  220.5990 C   0  0  0  0  0  0  0  0  0  0  0  0
  138.9510   74.0010  219.5050 C   0  0  0  0  0  0  0  0  0  0  0  0
  138.4210   73.8230  218.3230 O   0  0  0  0  0  0  0  0  0  0  0  0
  140.3290   74.3370  219.5330 N   0  0  0  0  0  0  0  0  0  0  0  0
  141.0610   75.3980  218.8980 C   0  0  0  0  0  0  0  0  0  0  0  0
  142.4100   75.3700  219.5710 C   0  0  2  0  0  0  0  0  0  0  0  0
  143.4190   75.9020  218.7600 O   0  0  0  0  0  0  0  0  0  0  0  0
  142.6280   73.9130  219.8570 C   0  0  0  0  0  0  0  0  0  0  0  0
  141.2650   73.4690  220.3060 C   0  0  1  0  0  0  0  0  0  0  0  0
  141.1270   73.7350  221.7980 C   0  0  0  0  0  0  0  0  0  0  0  0
  140.5130   74.8580  222.0920 O   0  0  0  0  0  0  0  0  0  0  0  0
  140.0950   76.0410  222.3510 C   0  0  0  0  0  0  0  0  0  0  0  0
  141.0730   77.0610  222.5670 C   0  0  0  0  0  0  0  0  0  0  0  0
  140.7180   78.3480  222.8470 C   0  0  0  0  0  0  0  0  0  0  0  0
  139.4130   78.6830  222.9250 C   0  0  0  0  0  0  0  0  0  0  0  0
  138.9860   80.3350  223.2780 Cl  0  0  0  0  0  0  0  0  0  0  0  0
  138.4340   77.7760  222.7350 C   0  0  0  0  0  0  0  0  0  0  0  0
  138.7570   76.4690  222.4520 C   0  0  0  0  0  0  0  0  0  0  0  0
  138.8300   71.0680  223.0790 C   0  0  0  0  0  0  0  0  0  0  0  0
  138.4230   69.7330  223.1370 C   0  0  0  0  0  0  0  0  0  0  0  0
  138.7950   68.9730  224.2370 C   0  0  0  0  0  0  0  0  0  0  0  0
  139.5480   69.5120  225.2590 C   0  0  0  0  0  0  0  0  0  0  0  0
  139.8680   68.7020  226.3120 C   0  0  0  0  0  0  0  0  0  0  0  0
  140.6220   69.2810  227.3320 C   0  0  0  0  0  0  0  0  0  0  0  0
  141.0790   68.3370  228.7210 Cl  0  0  0  0  0  0  0  0  0  0  0  0
  141.0280   70.6010  227.2900 C   0  0  0  0  0  0  0  0  0  0  0  0
  140.6670   71.3710  226.1800 C   0  0  0  0  0  0  0  0  0  0  0  0
  139.9130   70.8320  225.1350 C   0  0  0  0  0  0  0  0  0  0  0  0
  139.5640   71.5990  224.0680 N   0  0  0  0  0  0  0  0  0  0  0  0
  138.7550   73.7130  222.6910 H   0  0  0  0  0  0  0  0  0  0  0  0
  137.2069   73.1799  220.2178 H   0  0  0  0  0  0  0  0  0  0  0  0
  137.7676   74.8519  220.8835 H   0  0  0  0  0  0  0  0  0  0  0  0
  141.1596   75.2123  217.8183 H   0  0  0  0  0  0  0  0  0  0  0  0
  140.5609   76.3728  218.9962 H   0  0  0  0  0  0  0  0  0  0  0  0
  142.4409   75.9914  220.4781 H   0  0  0  0  0  0  0  0  0  0  0  0
  144.2360   75.3810  218.9630 H   0  0  0  0  0  0  0  0  0  0  0  0
  142.9456   73.3725  218.9531 H   0  0  0  0  0  0  0  0  0  0  0  0
  143.4198   73.7223  220.5964 H   0  0  0  0  0  0  0  0  0  0  0  0
  141.0723   72.3989  220.1396 H   0  0  0  0  0  0  0  0  0  0  0  0
  140.5600   72.9051  222.2449 H   0  0  0  0  0  0  0  0  0  0  0  0
  142.1479   73.8198  222.1987 H   0  0  0  0  0  0  0  0  0  0  0  0
  142.1401   76.8012  222.5058 H   0  0  0  0  0  0  0  0  0  0  0  0
  141.4936   79.1110  223.0088 H   0  0  0  0  0  0  0  0  0  0  0  0
  137.3793   78.0802  222.8061 H   0  0  0  0  0  0  0  0  0  0  0  0
  137.9485   75.7386  222.3005 H   0  0  0  0  0  0  0  0  0  0  0  0
  137.8207   69.2936  222.3282 H   0  0  0  0  0  0  0  0  0  0  0  0
  138.4830   67.9197  224.2949 H   0  0  0  0  0  0  0  0  0  0  0  0
  139.5481   67.6503  226.3527 H   0  0  0  0  0  0  0  0  0  0  0  0
  141.6202   71.0352  228.1090 H   0  0  0  0  0  0  0  0  0  0  0  0
  140.9835   72.4233  226.1287 H   0  0  0  0  0  0  0  0  0  0  0  0
  1  2  2  0
  2  3  1  0
  3  4  1  0
  4  5  1  0
  5  6  2  0
  5  7  1  0
  7  8  1  0
  8  9  1  0
  9 10  1  0
  9 11  1  0
 11 12  1  0
 12 13  1  0
 13 14  1  0
 14 15  1  0
 15 16  2  0
 16 17  1  0
 17 18  2  0
 18 19  1  0
 18 20  1  0
 20 21  2  0
  2 22  1  0
 22 23  2  0
 23 24  1  0
 24 25  2  0
 25 26  1  0
 26 27  2  0
 27 28  1  0
 27 29  1  0
 29 30  2  0
 30 31  1  0
 31 32  2  0
 12  7  1  0
 21 15  1  0
 32 22  1  0
 31 25  1  0
  3 33  1  0
  4 34  1  0
  4 35  1  0
  8 36  1  0
  8 37  1  0
  9 38  1  1
 10 39  1  0
 11 40  1  0
 11 41  1  0
 12 42  1  1
 13 43  1  0
 13 44  1  0
 16 45  1  0
 17 46  1  0
 20 47  1  0
 21 48  1  0
 23 49  1  0
 24 50  1  0
 26 51  1  0
 29 52  1  0
 30 53  1  0
M  END
>  <smiles>  (45) 
O=C(NCC(=O)N1C[C@H](O)C[C@H]1COc1ccc(Cl)cc1)c1ccc2cc(Cl)ccc2n1

>  <score_type>  (45) 
oracle

>  <origin>  (45) 
autodockgpu

>  <m_score__min__energy>  (45) 
-8.4800000000000004

>  <m_primary>  (45) 
energy

>  <rmsd>  (45) 
2.2649552249295497

>  <m_score__min__rmsd>  (45) 
2.2649552249295497

>  <meeko>  (45) 
{"free_energy": -7.38, "intermolecular_energy": -9.77, "internal_energy": -2.65, "cluster_size": 22, "cluster_id": 1, "rank_in_cluster": 14}

>  <energy>  (45) 
-6.8

>  <cluster_rmsd>  (45) 
0.0

>  <cluster>  (45) 
11

$$$$

     RDKit          3D

 53 56  0  0  0  0  0  0  0  0999 V2000
  139.6060   73.3600  221.3330 O   0  0  0  0  0  0  0  0  0  0  0  0
  139.9440   72.1260  221.4130 C   0  0  0  0  0  0  0  0  0  0  0  0
  140.3320   71.5370  220.1510 N   0  0  0  0  0  0  0  0  0  0  0  0
  140.2970   72.3860  219.0200 C   0  0  0  0  0  0  0  0  0  0  0  0
  141.4380   72.4760  218.1290 C   0  0  0  0  0  0  0  0  0  0  0  0
  141.1170   72.4810  216.8610 O   0  0  0  0  0  0  0  0  0  0  0  0
  142.8220   72.5570  218.4290 N   0  0  0  0  0  0  0  0  0  0  0  0
  143.8940   73.2620  217.7830 C   0  0  0  0  0  0  0  0  0  0  0  0
  145.0370   73.1760  218.7630 C   0  0  2  0  0  0  0  0  0  0  0  0
  146.2840   73.2830  218.1360 O   0  0  0  0  0  0  0  0  0  0  0  0
  144.8440   71.8340  219.4070 C   0  0  0  0  0  0  0  0  0  0  0  0
  143.3540   71.7750  219.5840 C   0  0  1  0  0  0  0  0  0  0  0  0
  142.9870   72.4510  220.8970 C   0  0  0  0  0  0  0  0  0  0  0  0
  142.7730   73.7430  220.7990 O   0  0  0  0  0  0  0  0  0  0  0  0
  142.3710   74.9590  220.7510 C   0  0  0  0  0  0  0  0  0  0  0  0
  142.9580   75.8170  219.7710 C   0  0  0  0  0  0  0  0  0  0  0  0
  142.5880   77.1240  219.6490 C   0  0  0  0  0  0  0  0  0  0  0  0
  141.6460   77.6360  220.4680 C   0  0  0  0  0  0  0  0  0  0  0  0
  141.1880   79.3070  220.2870 Cl  0  0  0  0  0  0  0  0  0  0  0  0
  141.0480   76.8880  221.4170 C   0  0  0  0  0  0  0  0  0  0  0  0
  141.3970   75.5660  221.5680 C   0  0  0  0  0  0  0  0  0  0  0  0
  139.9330   71.3960  222.6620 C   0  0  0  0  0  0  0  0  0  0  0  0
  139.2890   70.1570  222.6450 C   0  0  0  0  0  0  0  0  0  0  0  0
  139.2680   69.4030  223.8110 C   0  0  0  0  0  0  0  0  0  0  0  0
  139.8650   69.8580  224.9680 C   0  0  0  0  0  0  0  0  0  0  0  0
  139.7950   69.0610  226.0770 C   0  0  0  0  0  0  0  0  0  0  0  0
  140.4000   69.5550  227.2330 C   0  0  0  0  0  0  0  0  0  0  0  0
  140.3650   68.6200  228.7010 Cl  0  0  0  0  0  0  0  0  0  0  0  0
  141.0380   70.7800  227.2660 C   0  0  0  0  0  0  0  0  0  0  0  0
  141.0720   71.5410  226.0930 C   0  0  0  0  0  0  0  0  0  0  0  0
  140.4800   71.0850  224.9120 C   0  0  0  0  0  0  0  0  0  0  0  0
  140.5170   71.8440  223.7840 N   0  0  0  0  0  0  0  0  0  0  0  0
  140.6050   70.5420  220.2180 H   0  0  0  0  0  0  0  0  0  0  0  0
  139.4442   72.0588  218.4071 H   0  0  0  0  0  0  0  0  0  0  0  0
  140.2536   73.3902  219.4670 H   0  0  0  0  0  0  0  0  0  0  0  0
  144.1597   72.7801  216.8305 H   0  0  0  0  0  0  0  0  0  0  0  0
  143.6273   74.3004  217.5369 H   0  0  0  0  0  0  0  0  0  0  0  0
  145.0323   74.0021  219.4893 H   0  0  0  0  0  0  0  0  0  0  0  0
  146.3480   74.2170  217.8150 H   0  0  0  0  0  0  0  0  0  0  0  0
  145.1999   71.0238  218.7536 H   0  0  0  0  0  0  0  0  0  0  0  0
  145.4042   71.7114  220.3457 H   0  0  0  0  0  0  0  0  0  0  0  0
  142.9528   70.7512  219.6132 H   0  0  0  0  0  0  0  0  0  0  0  0
  142.0718   71.9787  221.2835 H   0  0  0  0  0  0  0  0  0  0  0  0
  143.8496   72.3249  221.5678 H   0  0  0  0  0  0  0  0  0  0  0  0
  143.7282   75.4130  219.0975 H   0  0  0  0  0  0  0  0  0  0  0  0
  143.0570   77.7600  218.8838 H   0  0  0  0  0  0  0  0  0  0  0  0
  140.2826   77.3339  222.0692 H   0  0  0  0  0  0  0  0  0  0  0  0
  140.9026   74.9671  222.3471 H   0  0  0  0  0  0  0  0  0  0  0  0
  138.8086   69.7862  221.7276 H   0  0  0  0  0  0  0  0  0  0  0  0
  138.7657   68.4244  223.8118 H   0  0  0  0  0  0  0  0  0  0  0  0
  139.2895   68.0842  226.0586 H   0  0  0  0  0  0  0  0  0  0  0  0
  141.5070   71.1473  228.1907 H   0  0  0  0  0  0  0  0  0  0  0  0
  141.5753   72.5191  226.1002 H   0  0  0  0  0  0  0  0  0  0  0  0
  1  2  2  0
  2  3  1  0
  3  4  1  0
  4  5  1  0
  5  6  2  0
  5  7  1  0
  7  8  1  0
  8  9  1  0
  9 10  1  0
  9 11  1  0
 11 12  1  0
 12 13  1  0
 13 14  1  0
 14 15  1  0
 15 16  2  0
 16 17  1  0
 17 18  2  0
 18 19  1  0
 18 20  1  0
 20 21  2  0
  2 22  1  0
 22 23  2  0
 23 24  1  0
 24 25  2  0
 25 26  1  0
 26 27  2  0
 27 28  1  0
 27 29  1  0
 29 30  2  0
 30 31  1  0
 31 32  2  0
 12  7  1  0
 21 15  1  0
 32 22  1  0
 31 25  1  0
  3 33  1  0
  4 34  1  0
  4 35  1  0
  8 36  1  0
  8 37  1  0
  9 38  1  1
 10 39  1  0
 11 40  1  0
 11 41  1  0
 12 42  1  1
 13 43  1  0
 13 44  1  0
 16 45  1  0
 17 46  1  0
 20 47  1  0
 21 48  1  0
 23 49  1  0
 24 50  1  0
 26 51  1  0
 29 52  1  0
 30 53  1  0
M  END
>  <smiles>  (46) 
O=C(NCC(=O)N1C[C@H](O)C[C@H]1COc1ccc(Cl)cc1)c1ccc2cc(Cl)ccc2n1

>  <score_type>  (46) 
oracle

>  <origin>  (46) 
autodockgpu

>  <m_score__min__energy>  (46) 
-8.4800000000000004

>  <m_primary>  (46) 
energy

>  <rmsd>  (46) 
3.9240882397304073

>  <m_score__min__rmsd>  (46) 
3.9240882397304073

>  <meeko>  (46) 
{"free_energy": -7.29, "intermolecular_energy": -9.68, "internal_energy": -1.98, "cluster_size": 22, "cluster_id": 1, "rank_in_cluster": 18}

>  <energy>  (46) 
-6.03

>  <cluster_rmsd>  (46) 
1.78

>  <cluster>  (46) 
11

$$$$

     RDKit          3D

 53 56  0  0  0  0  0  0  0  0999 V2000
  141.3070   72.5120  221.0170 O   0  0  0  0  0  0  0  0  0  0  0  0
  140.5570   73.3900  221.5720 C   0  0  0  0  0  0  0  0  0  0  0  0
  139.4200   72.8360  222.2730 N   0  0  0  0  0  0  0  0  0  0  0  0
  139.2950   71.4270  222.2610 C   0  0  0  0  0  0  0  0  0  0  0  0
  137.9910   70.8010  222.1480 C   0  0  0  0  0  0  0  0  0  0  0  0
  137.0100   71.5430  222.5930 O   0  0  0  0  0  0  0  0  0  0  0  0
  137.6350   69.5280  221.6340 N   0  0  0  0  0  0  0  0  0  0  0  0
  137.4410   69.0680  220.2860 C   0  0  0  0  0  0  0  0  0  0  0  0
  137.3770   67.5660  220.4150 C   0  0  2  0  0  0  0  0  0  0  0  0
  136.6550   66.9750  219.3720 O   0  0  0  0  0  0  0  0  0  0  0  0
  136.7160   67.3570  221.7460 C   0  0  0  0  0  0  0  0  0  0  0  0
  137.3600   68.4180  222.5930 C   0  0  1  0  0  0  0  0  0  0  0  0
  138.6620   67.8710  223.1600 C   0  0  0  0  0  0  0  0  0  0  0  0
  139.0590   68.4590  224.2650 O   0  0  0  0  0  0  0  0  0  0  0  0
  139.5540   69.1540  225.2200 C   0  0  0  0  0  0  0  0  0  0  0  0
  140.2540   70.3520  224.8800 C   0  0  0  0  0  0  0  0  0  0  0  0
  140.8110   71.1540  225.8330 C   0  0  0  0  0  0  0  0  0  0  0  0
  140.7070   70.8200  227.1360 C   0  0  0  0  0  0  0  0  0  0  0  0
  141.4210   71.8640  228.3350 Cl  0  0  0  0  0  0  0  0  0  0  0  0
  140.0620   69.7050  227.5350 C   0  0  0  0  0  0  0  0  0  0  0  0
  139.4890   68.8740  226.6000 C   0  0  0  0  0  0  0  0  0  0  0  0
  140.8310   74.8080  221.4980 C   0  0  0  0  0  0  0  0  0  0  0  0
  141.6850   75.2170  220.4710 C   0  0  0  0  0  0  0  0  0  0  0  0
  141.9650   76.5700  220.3400 C   0  0  0  0  0  0  0  0  0  0  0  0
  141.4200   77.5010  221.1990 C   0  0  0  0  0  0  0  0  0  0  0  0
  141.7500   78.8140  221.0090 C   0  0  0  0  0  0  0  0  0  0  0  0
  141.1900   79.7280  221.9010 C   0  0  0  0  0  0  0  0  0  0  0  0
  141.5490   81.4240  221.7500 Cl  0  0  0  0  0  0  0  0  0  0  0  0
  140.3460   79.3380  222.9240 C   0  0  0  0  0  0  0  0  0  0  0  0
  140.0510   77.9780  223.0570 C   0  0  0  0  0  0  0  0  0  0  0  0
  140.5890   77.0280  222.1860 C   0  0  0  0  0  0  0  0  0  0  0  0
  140.2970   75.7080  222.3370 N   0  0  0  0  0  0  0  0  0  0  0  0
  138.8160   73.5460  222.7220 H   0  0  0  0  0  0  0  0  0  0  0  0
  139.8920   71.0656  221.4107 H   0  0  0  0  0  0  0  0  0  0  0  0
  139.6168   71.1432  223.2738 H   0  0  0  0  0  0  0  0  0  0  0  0
  136.5033   69.4644  219.8693 H   0  0  0  0  0  0  0  0  0  0  0  0
  138.2409   69.3997  219.6076 H   0  0  0  0  0  0  0  0  0  0  0  0
  138.3692   67.0950  220.3541 H   0  0  0  0  0  0  0  0  0  0  0  0
  135.7320   67.3240  219.4470 H   0  0  0  0  0  0  0  0  0  0  0  0
  135.6283   67.5067  221.6786 H   0  0  0  0  0  0  0  0  0  0  0  0
  136.8402   66.3393  222.1447 H   0  0  0  0  0  0  0  0  0  0  0  0
  136.7390   68.7449  223.4400 H   0  0  0  0  0  0  0  0  0  0  0  0
  138.5234   66.8002  223.3701 H   0  0  0  0  0  0  0  0  0  0  0  0
  139.4391   68.0612  222.4050 H   0  0  0  0  0  0  0  0  0  0  0  0
  140.3464   70.6356  223.8212 H   0  0  0  0  0  0  0  0  0  0  0  0
  141.3436   72.0707  225.5396 H   0  0  0  0  0  0  0  0  0  0  0  0
  139.9941   69.4604  228.6053 H   0  0  0  0  0  0  0  0  0  0  0  0
  138.9664   67.9672  226.9383 H   0  0  0  0  0  0  0  0  0  0  0  0
  142.1260   74.4826  219.7810 H   0  0  0  0  0  0  0  0  0  0  0  0
  142.6349   76.9064  219.5350 H   0  0  0  0  0  0  0  0  0  0  0  0
  142.4205   79.1321  220.1970 H   0  0  0  0  0  0  0  0  0  0  0  0
  139.9176   80.0786  223.6154 H   0  0  0  0  0  0  0  0  0  0  0  0
  139.3808   77.6491  223.8649 H   0  0  0  0  0  0  0  0  0  0  0  0
  1  2  2  0
  2  3  1  0
  3  4  1  0
  4  5  1  0
  5  6  2  0
  5  7  1  0
  7  8  1  0
  8  9  1  0
  9 10  1  0
  9 11  1  0
 11 12  1  0
 12 13  1  0
 13 14  1  0
 14 15  1  0
 15 16  2  0
 16 17  1  0
 17 18  2  0
 18 19  1  0
 18 20  1  0
 20 21  2  0
  2 22  1  0
 22 23  2  0
 23 24  1  0
 24 25  2  0
 25 26  1  0
 26 27  2  0
 27 28  1  0
 27 29  1  0
 29 30  2  0
 30 31  1  0
 31 32  2  0
 12  7  1  0
 21 15  1  0
 32 22  1  0
 31 25  1  0
  3 33  1  0
  4 34  1  0
  4 35  1  0
  8 36  1  0
  8 37  1  0
  9 38  1  1
 10 39  1  0
 11 40  1  0
 11 41  1  0
 12 42  1  1
 13 43  1  0
 13 44  1  0
 16 45  1  0
 17 46  1  0
 20 47  1  0
 21 48  1  0
 23 49  1  0
 24 50  1  0
 26 51  1  0
 29 52  1  0
 30 53  1  0
M  END
>  <smiles>  (47) 
O=C(NCC(=O)N1C[C@H](O)C[C@H]1COc1ccc(Cl)cc1)c1ccc2cc(Cl)ccc2n1

>  <score_type>  (47) 
oracle

>  <origin>  (47) 
autodockgpu

>  <m_score__min__energy>  (47) 
-8.4800000000000004

>  <m_primary>  (47) 
energy

>  <rmsd>  (47) 
8.192764455040583

>  <m_score__min__rmsd>  (47) 
8.192764455040583

>  <meeko>  (47) 
{"free_energy": -7.26, "intermolecular_energy": -9.64, "internal_energy": -1.65, "cluster_size": 1, "cluster_id": 7, "rank_in_cluster": 1}

>  <energy>  (47) 
-6.66

>  <cluster_rmsd>  (47) 
0.0

>  <cluster>  (47) 
12

$$$$

     RDKit          3D

 53 56  0  0  0  0  0  0  0  0999 V2000
  138.9740   74.8560  221.6790 O   0  0  0  0  0  0  0  0  0  0  0  0
  140.2270   75.1230  221.6300 C   0  0  0  0  0  0  0  0  0  0  0  0
  140.5590   76.4730  222.0250 N   0  0  0  0  0  0  0  0  0  0  0  0
  139.4790   77.3010  222.4140 C   0  0  0  0  0  0  0  0  0  0  0  0
  139.7220   78.5840  223.0460 C   0  0  0  0  0  0  0  0  0  0  0  0
  138.7090   79.0290  223.7420 O   0  0  0  0  0  0  0  0  0  0  0  0
  140.8770   79.4070  223.0170 N   0  0  0  0  0  0  0  0  0  0  0  0
  142.2470   79.1330  223.3520 C   0  0  0  0  0  0  0  0  0  0  0  0
  143.0030   80.3240  222.8180 C   0  0  2  0  0  0  0  0  0  0  0  0
  144.2050   80.5400  223.5020 O   0  0  0  0  0  0  0  0  0  0  0  0
  142.0400   81.4610  223.0030 C   0  0  0  0  0  0  0  0  0  0  0  0
  140.7310   80.8360  222.6130 C   0  0  1  0  0  0  0  0  0  0  0  0
  140.5630   80.9470  221.1040 C   0  0  0  0  0  0  0  0  0  0  0  0
  141.2830   80.0910  220.4160 O   0  0  0  0  0  0  0  0  0  0  0  0
  141.8060   79.1730  219.6930 C   0  0  0  0  0  0  0  0  0  0  0  0
  142.0590   79.4690  218.3170 C   0  0  0  0  0  0  0  0  0  0  0  0
  142.6150   78.5510  217.4760 C   0  0  0  0  0  0  0  0  0  0  0  0
  142.9420   77.3270  217.9380 C   0  0  0  0  0  0  0  0  0  0  0  0
  143.6570   76.1750  216.8450 Cl  0  0  0  0  0  0  0  0  0  0  0  0
  142.7340   76.9740  219.2220 C   0  0  0  0  0  0  0  0  0  0  0  0
  142.1740   77.8750  220.0980 C   0  0  0  0  0  0  0  0  0  0  0  0
  141.2150   74.1500  221.2150 C   0  0  0  0  0  0  0  0  0  0  0  0
  140.7800   72.8250  221.1410 C   0  0  0  0  0  0  0  0  0  0  0  0
  141.6810   71.8540  220.7260 C   0  0  0  0  0  0  0  0  0  0  0  0
  142.9800   72.1760  220.3930 C   0  0  0  0  0  0  0  0  0  0  0  0
  143.8080   71.1620  220.0000 C   0  0  0  0  0  0  0  0  0  0  0  0
  145.1180   71.5210  219.6810 C   0  0  0  0  0  0  0  0  0  0  0  0
  146.2550   70.3050  219.1740 Cl  0  0  0  0  0  0  0  0  0  0  0  0
  145.5630   72.8270  219.7530 C   0  0  0  0  0  0  0  0  0  0  0  0
  144.6590   73.8140  220.1600 C   0  0  0  0  0  0  0  0  0  0  0  0
  143.3380   73.5000  220.4890 C   0  0  0  0  0  0  0  0  0  0  0  0
  142.4760   74.4720  220.8920 N   0  0  0  0  0  0  0  0  0  0  0  0
  141.5700   76.6860  221.9860 H   0  0  0  0  0  0  0  0  0  0  0  0
  138.8948   77.5040  221.5044 H   0  0  0  0  0  0  0  0  0  0  0  0
  138.9989   76.7193  223.2147 H   0  0  0  0  0  0  0  0  0  0  0  0
  142.3727   79.0474  224.4414 H   0  0  0  0  0  0  0  0  0  0  0  0
  142.6029   78.1827  222.9275 H   0  0  0  0  0  0  0  0  0  0  0  0
  143.3109   80.1917  221.7703 H   0  0  0  0  0  0  0  0  0  0  0  0
  144.0480   81.3190  224.0910 H   0  0  0  0  0  0  0  0  0  0  0  0
  142.0228   81.8028  224.0484 H   0  0  0  0  0  0  0  0  0  0  0  0
  142.2946   82.3550  222.4149 H   0  0  0  0  0  0  0  0  0  0  0  0
  139.8574   81.3126  223.0817 H   0  0  0  0  0  0  0  0  0  0  0  0
  139.5032   80.7787  220.8620 H   0  0  0  0  0  0  0  0  0  0  0  0
  140.9117   81.9512  220.8211 H   0  0  0  0  0  0  0  0  0  0  0  0
  141.7981   80.4638  217.9266 H   0  0  0  0  0  0  0  0  0  0  0  0
  142.7966   78.8085  216.4221 H   0  0  0  0  0  0  0  0  0  0  0  0
  143.0114   75.9676  219.5688 H   0  0  0  0  0  0  0  0  0  0  0  0
  142.0092   77.5736  221.1430 H   0  0  0  0  0  0  0  0  0  0  0  0
  139.7465   72.5568  221.4057 H   0  0  0  0  0  0  0  0  0  0  0  0
  141.3522   70.8063  220.6614 H   0  0  0  0  0  0  0  0  0  0  0  0
  143.4606   70.1201  219.9386 H   0  0  0  0  0  0  0  0  0  0  0  0
  146.6014   73.0841  219.4969 H   0  0  0  0  0  0  0  0  0  0  0  0
  144.9954   74.8595  220.2223 H   0  0  0  0  0  0  0  0  0  0  0  0
  1  2  2  0
  2  3  1  0
  3  4  1  0
  4  5  1  0
  5  6  2  0
  5  7  1  0
  7  8  1  0
  8  9  1  0
  9 10  1  0
  9 11  1  0
 11 12  1  0
 12 13  1  0
 13 14  1  0
 14 15  1  0
 15 16  2  0
 16 17  1  0
 17 18  2  0
 18 19  1  0
 18 20  1  0
 20 21  2  0
  2 22  1  0
 22 23  2  0
 23 24  1  0
 24 25  2  0
 25 26  1  0
 26 27  2  0
 27 28  1  0
 27 29  1  0
 29 30  2  0
 30 31  1  0
 31 32  2  0
 12  7  1  0
 21 15  1  0
 32 22  1  0
 31 25  1  0
  3 33  1  0
  4 34  1  0
  4 35  1  0
  8 36  1  0
  8 37  1  0
  9 38  1  6
 10 39  1  0
 11 40  1  0
 11 41  1  0
 12 42  1  1
 13 43  1  0
 13 44  1  0
 16 45  1  0
 17 46  1  0
 20 47  1  0
 21 48  1  0
 23 49  1  0
 24 50  1  0
 26 51  1  0
 29 52  1  0
 30 53  1  0
M  END
>  <smiles>  (48) 
O=C(NCC(=O)N1C[C@H](O)C[C@H]1COc1ccc(Cl)cc1)c1ccc2cc(Cl)ccc2n1

>  <score_type>  (48) 
oracle

>  <origin>  (48) 
autodockgpu

>  <m_score__min__energy>  (48) 
-8.4800000000000004

>  <m_primary>  (48) 
energy

>  <rmsd>  (48) 
6.408616233665482

>  <m_score__min__rmsd>  (48) 
6.408616233665482

>  <meeko>  (48) 
{"free_energy": -6.58, "intermolecular_energy": -8.96, "internal_energy": -2.46, "cluster_size": 3, "cluster_id": 9, "rank_in_cluster": 3}

>  <energy>  (48) 
-6.27

>  <cluster_rmsd>  (48) 
0.0

>  <cluster>  (48) 
13

$$$$

     RDKit          3D

 53 56  0  0  0  0  0  0  0  0999 V2000
  137.9480   71.2010  220.8900 O   0  0  0  0  0  0  0  0  0  0  0  0
  138.3860   71.7610  221.9570 C   0  0  0  0  0  0  0  0  0  0  0  0
  138.4320   73.2040  221.8900 N   0  0  0  0  0  0  0  0  0  0  0  0
  137.9870   73.7950  220.6840 C   0  0  0  0  0  0  0  0  0  0  0  0
  138.8930   73.9580  219.5630 C   0  0  0  0  0  0  0  0  0  0  0  0
  138.3070   73.8800  218.3960 O   0  0  0  0  0  0  0  0  0  0  0  0
  140.2930   74.1840  219.5510 N   0  0  0  0  0  0  0  0  0  0  0  0
  141.0970   75.1280  218.8250 C   0  0  0  0  0  0  0  0  0  0  0  0
  142.4500   75.0480  219.4860 C   0  0  2  0  0  0  0  0  0  0  0  0
  143.4850   75.4290  218.6250 O   0  0  0  0  0  0  0  0  0  0  0  0
  142.5560   73.6060  219.8900 C   0  0  0  0  0  0  0  0  0  0  0  0
  141.1690   73.3100  220.3860 C   0  0  1  0  0  0  0  0  0  0  0  0
  141.0750   73.7080  221.8520 C   0  0  0  0  0  0  0  0  0  0  0  0
  140.4760   74.8580  222.0630 O   0  0  0  0  0  0  0  0  0  0  0  0
  140.0670   76.0360  222.3530 C   0  0  0  0  0  0  0  0  0  0  0  0
  141.0510   77.0290  222.6500 C   0  0  0  0  0  0  0  0  0  0  0  0
  140.7060   78.3100  222.9670 C   0  0  0  0  0  0  0  0  0  0  0  0
  139.4050   78.6650  223.0060 C   0  0  0  0  0  0  0  0  0  0  0  0
  138.9900   80.3090  223.4070 Cl  0  0  0  0  0  0  0  0  0  0  0  0
  138.4200   77.7840  222.7380 C   0  0  0  0  0  0  0  0  0  0  0  0
  138.7330   76.4840  222.4150 C   0  0  0  0  0  0  0  0  0  0  0  0
  138.7960   71.0050  223.1210 C   0  0  0  0  0  0  0  0  0  0  0  0
  138.4010   69.6660  223.1560 C   0  0  0  0  0  0  0  0  0  0  0  0
  138.7870   68.8880  224.2390 C   0  0  0  0  0  0  0  0  0  0  0  0
  139.5430   69.4140  225.2660 C   0  0  0  0  0  0  0  0  0  0  0  0
  139.8770   68.5860  226.3010 C   0  0  0  0  0  0  0  0  0  0  0  0
  140.6330   69.1520  227.3270 C   0  0  0  0  0  0  0  0  0  0  0  0
  141.1070   68.1850  228.6940 Cl  0  0  0  0  0  0  0  0  0  0  0  0
  141.0290   70.4760  227.3070 C   0  0  0  0  0  0  0  0  0  0  0  0
  140.6530   71.2640  226.2150 C   0  0  0  0  0  0  0  0  0  0  0  0
  139.8960   70.7380  225.1650 C   0  0  0  0  0  0  0  0  0  0  0  0
  139.5330   71.5230  224.1150 N   0  0  0  0  0  0  0  0  0  0  0  0
  138.7840   73.6540  222.7520 H   0  0  0  0  0  0  0  0  0  0  0  0
  137.1481   73.1814  220.3238 H   0  0  0  0  0  0  0  0  0  0  0  0
  137.7749   74.8324  220.9819 H   0  0  0  0  0  0  0  0  0  0  0  0
  141.1644   74.8478  217.7634 H   0  0  0  0  0  0  0  0  0  0  0  0
  140.6767   76.1443  218.8476 H   0  0  0  0  0  0  0  0  0  0  0  0
  142.5444   75.7376  220.3378 H   0  0  0  0  0  0  0  0  0  0  0  0
  144.3260   75.2660  219.1210 H   0  0  0  0  0  0  0  0  0  0  0  0
  142.8163   72.9697  219.0313 H   0  0  0  0  0  0  0  0  0  0  0  0
  143.3411   73.4141  220.6362 H   0  0  0  0  0  0  0  0  0  0  0  0
  140.8899   72.2486  220.3110 H   0  0  0  0  0  0  0  0  0  0  0  0
  140.5162   72.9255  222.3862 H   0  0  0  0  0  0  0  0  0  0  0  0
  142.1075   73.8196  222.2148 H   0  0  0  0  0  0  0  0  0  0  0  0
  142.1154   76.7528  222.6222 H   0  0  0  0  0  0  0  0  0  0  0  0
  141.4868   79.0520  223.1903 H   0  0  0  0  0  0  0  0  0  0  0  0
  137.3684   78.1042  222.7776 H   0  0  0  0  0  0  0  0  0  0  0  0
  137.9198   75.7754  222.1993 H   0  0  0  0  0  0  0  0  0  0  0  0
  137.7970   69.2370  222.3429 H   0  0  0  0  0  0  0  0  0  0  0  0
  138.4841   67.8313  224.2790 H   0  0  0  0  0  0  0  0  0  0  0  0
  139.5665   67.5310  226.3233 H   0  0  0  0  0  0  0  0  0  0  0  0
  141.6248   70.8990  228.1293 H   0  0  0  0  0  0  0  0  0  0  0  0
  140.9595   72.3199  226.1818 H   0  0  0  0  0  0  0  0  0  0  0  0
  1  2  2  0
  2  3  1  0
  3  4  1  0
  4  5  1  0
  5  6  2  0
  5  7  1  0
  7  8  1  0
  8  9  1  0
  9 10  1  0
  9 11  1  0
 11 12  1  0
 12 13  1  0
 13 14  1  0
 14 15  1  0
 15 16  2  0
 16 17  1  0
 17 18  2  0
 18 19  1  0
 18 20  1  0
 20 21  2  0
  2 22  1  0
 22 23  2  0
 23 24  1  0
 24 25  2  0
 25 26  1  0
 26 27  2  0
 27 28  1  0
 27 29  1  0
 29 30  2  0
 30 31  1  0
 31 32  2  0
 12  7  1  0
 21 15  1  0
 32 22  1  0
 31 25  1  0
  3 33  1  0
  4 34  1  0
  4 35  1  0
  8 36  1  0
  8 37  1  0
  9 38  1  1
 10 39  1  0
 11 40  1  0
 11 41  1  0
 12 42  1  1
 13 43  1  0
 13 44  1  0
 16 45  1  0
 17 46  1  0
 20 47  1  0
 21 48  1  0
 23 49  1  0
 24 50  1  0
 26 51  1  0
 29 52  1  0
 30 53  1  0
M  END
>  <smiles>  (49) 
O=C(NCC(=O)N1C[C@H](O)C[C@H]1COc1ccc(Cl)cc1)c1ccc2cc(Cl)ccc2n1

>  <score_type>  (49) 
oracle

>  <origin>  (49) 
autodockgpu

>  <m_score__min__energy>  (49) 
-8.4800000000000004

>  <m_primary>  (49) 
energy

>  <rmsd>  (49) 
2.3167941444559204

>  <m_score__min__rmsd>  (49) 
2.3167941444559204

>  <meeko>  (49) 
{"free_energy": -7.4, "intermolecular_energy": -9.78, "internal_energy": -2.51, "cluster_size": 22, "cluster_id": 1, "rank_in_cluster": 13}

>  <energy>  (49) 
-5.39

>  <cluster_rmsd>  (49) 
0.0

>  <cluster>  (49) 
14

$$$$

     RDKit          3D

 53 56  0  0  0  0  0  0  0  0999 V2000
  138.6830   71.8420  221.2730 O   0  0  0  0  0  0  0  0  0  0  0  0
  139.7830   71.3230  221.6760 C   0  0  0  0  0  0  0  0  0  0  0  0
  140.7980   71.2210  220.6510 N   0  0  0  0  0  0  0  0  0  0  0  0
  140.4520   71.7070  219.3680 C   0  0  0  0  0  0  0  0  0  0  0  0
  141.3210   72.6360  218.6710 C   0  0  0  0  0  0  0  0  0  0  0  0
  140.7470   73.2390  217.6620 O   0  0  0  0  0  0  0  0  0  0  0  0
  142.6750   72.9760  218.9210 N   0  0  0  0  0  0  0  0  0  0  0  0
  143.8380   72.9270  218.0780 C   0  0  0  0  0  0  0  0  0  0  0  0
  144.8820   73.7010  218.8440 C   0  0  2  0  0  0  0  0  0  0  0  0
  146.1830   73.3130  218.5060 O   0  0  0  0  0  0  0  0  0  0  0  0
  144.5590   73.3960  220.2790 C   0  0  0  0  0  0  0  0  0  0  0  0
  143.0580   73.4450  220.2850 C   0  0  1  0  0  0  0  0  0  0  0  0
  142.6130   74.8850  220.4960 C   0  0  0  0  0  0  0  0  0  0  0  0
  141.3780   75.0130  220.9250 O   0  0  0  0  0  0  0  0  0  0  0  0
  140.2200   75.3330  221.3680 C   0  0  0  0  0  0  0  0  0  0  0  0
  140.1230   76.4830  222.2110 C   0  0  0  0  0  0  0  0  0  0  0  0
  138.9300   76.8980  222.7250 C   0  0  0  0  0  0  0  0  0  0  0  0
  137.8020   76.2150  222.4400 C   0  0  0  0  0  0  0  0  0  0  0  0
  136.2890   76.7680  223.1040 Cl  0  0  0  0  0  0  0  0  0  0  0  0
  137.8140   75.1200  221.6530 C   0  0  0  0  0  0  0  0  0  0  0  0
  139.0000   74.6750  221.1180 C   0  0  0  0  0  0  0  0  0  0  0  0
  139.9820   70.8800  223.0390 C   0  0  0  0  0  0  0  0  0  0  0  0
  140.5210   71.8200  223.9190 C   0  0  0  0  0  0  0  0  0  0  0  0
  140.7120   71.4560  225.2450 C   0  0  0  0  0  0  0  0  0  0  0  0
  140.3830   70.1940  225.6950 C   0  0  0  0  0  0  0  0  0  0  0  0
  140.6070   69.9090  227.0130 C   0  0  0  0  0  0  0  0  0  0  0  0
  140.2720   68.6220  227.4330 C   0  0  0  0  0  0  0  0  0  0  0  0
  140.5230   68.1550  229.0910 Cl  0  0  0  0  0  0  0  0  0  0  0  0
  139.7420   67.6800  226.5730 C   0  0  0  0  0  0  0  0  0  0  0  0
  139.5360   68.0420  225.2380 C   0  0  0  0  0  0  0  0  0  0  0  0
  139.8570   69.3200  224.7740 C   0  0  0  0  0  0  0  0  0  0  0  0
  139.6580   69.6510  223.4700 N   0  0  0  0  0  0  0  0  0  0  0  0
  141.6860   70.8030  220.9780 H   0  0  0  0  0  0  0  0  0  0  0  0
  140.3450   70.8271  218.7166 H   0  0  0  0  0  0  0  0  0  0  0  0
  139.5549   72.3115  219.5674 H   0  0  0  0  0  0  0  0  0  0  0  0
  144.1613   71.8877  217.9190 H   0  0  0  0  0  0  0  0  0  0  0  0
  143.6519   73.3457  217.0780 H   0  0  0  0  0  0  0  0  0  0  0  0
  144.8573   74.7778  218.6208 H   0  0  0  0  0  0  0  0  0  0  0  0
  146.7190   74.1450  218.4860 H   0  0  0  0  0  0  0  0  0  0  0  0
  144.9265   72.4001  220.5673 H   0  0  0  0  0  0  0  0  0  0  0  0
  145.0258   74.0902  220.9933 H   0  0  0  0  0  0  0  0  0  0  0  0
  142.5998   72.8354  221.0777 H   0  0  0  0  0  0  0  0  0  0  0  0
  143.2838   75.3479  221.2348 H   0  0  0  0  0  0  0  0  0  0  0  0
  142.6564   75.3749  219.5121 H   0  0  0  0  0  0  0  0  0  0  0  0
  141.0352   77.0486  222.4517 H   0  0  0  0  0  0  0  0  0  0  0  0
  138.8875   77.7876  223.3705 H   0  0  0  0  0  0  0  0  0  0  0  0
  136.8774   74.5841  221.4395 H   0  0  0  0  0  0  0  0  0  0  0  0
  138.9958   73.7808  220.4774 H   0  0  0  0  0  0  0  0  0  0  0  0
  140.7888   72.8279  223.5692 H   0  0  0  0  0  0  0  0  0  0  0  0
  141.1336   72.1875  225.9501 H   0  0  0  0  0  0  0  0  0  0  0  0
  141.0283   70.6537  227.7043 H   0  0  0  0  0  0  0  0  0  0  0  0
  139.4884   66.6706  226.9292 H   0  0  0  0  0  0  0  0  0  0  0  0
  139.1126   67.3055  224.5391 H   0  0  0  0  0  0  0  0  0  0  0  0
  1  2  2  0
  2  3  1  0
  3  4  1  0
  4  5  1  0
  5  6  2  0
  5  7  1  0
  7  8  1  0
  8  9  1  0
  9 10  1  0
  9 11  1  0
 11 12  1  0
 12 13  1  0
 13 14  1  0
 14 15  1  0
 15 16  2  0
 16 17  1  0
 17 18  2  0
 18 19  1  0
 18 20  1  0
 20 21  2  0
  2 22  1  0
 22 23  2  0
 23 24  1  0
 24 25  2  0
 25 26  1  0
 26 27  2  0
 27 28  1  0
 27 29  1  0
 29 30  2  0
 30 31  1  0
 31 32  2  0
 12  7  1  0
 21 15  1  0
 32 22  1  0
 31 25  1  0
  3 33  1  0
  4 34  1  0
  4 35  1  0
  8 36  1  0
  8 37  1  0
  9 38  1  1
 10 39  1  0
 11 40  1  0
 11 41  1  0
 12 42  1  1
 13 43  1  0
 13 44  1  0
 16 45  1  0
 17 46  1  0
 20 47  1  0
 21 48  1  0
 23 49  1  0
 24 50  1  0
 26 51  1  0
 29 52  1  0
 30 53  1  0
M  END
>  <smiles>  (50) 
O=C(NCC(=O)N1C[C@H](O)C[C@H]1COc1ccc(Cl)cc1)c1ccc2cc(Cl)ccc2n1

>  <score_type>  (50) 
oracle

>  <origin>  (50) 
autodockgpu

>  <m_score__min__energy>  (50) 
-8.4800000000000004

>  <m_primary>  (50) 
energy

>  <rmsd>  (50) 
4.049415859591076

>  <m_score__min__rmsd>  (50) 
4.049415859591076

>  <meeko>  (50) 
{"free_energy": -6.75, "intermolecular_energy": -9.13, "internal_energy": -1.95, "cluster_size": 22, "cluster_id": 1, "rank_in_cluster": 22}

>  <energy>  (50) 
-5.29

>  <cluster_rmsd>  (50) 
0.37

>  <cluster>  (50) 
14

$$$$
