
     RDKit          3D

 49 51  0  0  0  0  0  0  0  0999 V2000
  141.1650   75.9730  221.2520 C   0  0  0  0  0  0  0  0  0  0  0  0
  140.4100   77.1630  221.6150 N   0  0  0  0  0  0  0  0  0  0  0  0
  138.9560   77.1540  221.4300 C   0  0  0  0  0  0  0  0  0  0  0  0
  138.3460   76.3110  222.5300 C   0  0  0  0  0  0  0  0  0  0  0  0
  138.6950   74.9180  222.3440 N   0  0  0  0  0  0  0  0  0  0  0  0
  138.3550   74.1580  221.2030 C   0  0  0  0  0  0  0  0  0  0  0  0
  137.6950   74.7710  220.2990 O   0  0  0  0  0  0  0  0  0  0  0  0
  138.6780   72.7580  220.9550 C   0  0  0  0  0  0  0  0  0  0  0  0
  138.7550   71.9110  222.1180 N   0  0  0  0  0  0  0  0  0  0  0  0
  139.8950   72.1030  222.9720 C   0  0  0  0  0  0  0  0  0  0  0  0
  140.7060   72.9910  222.6070 O   0  0  0  0  0  0  0  0  0  0  0  0
  140.0920   71.3140  224.1780 C   0  0  0  0  0  0  0  0  0  0  0  0
  140.8210   71.8900  225.2050 C   0  0  0  0  0  0  0  0  0  0  0  0
  141.0660   71.2280  226.3910 C   0  0  0  0  0  0  0  0  0  0  0  0
  140.5550   69.9490  226.5250 C   0  0  0  0  0  0  0  0  0  0  0  0
  140.7670   69.2300  227.6930 C   0  0  0  0  0  0  0  0  0  0  0  0
  140.2830   67.9670  227.8780 C   0  0  0  0  0  0  0  0  0  0  0  0
  139.5530   67.4080  226.8270 C   0  0  0  0  0  0  0  0  0  0  0  0
  139.3300   68.1010  225.6600 C   0  0  0  0  0  0  0  0  0  0  0  0
  139.8300   69.3770  225.5000 C   0  0  0  0  0  0  0  0  0  0  0  0
  139.6090   70.0690  224.3420 N   0  0  0  0  0  0  0  0  0  0  0  0
  141.1210   78.2610  222.1250 C   0  0  0  0  0  0  0  0  0  0  0  0
  141.3910   78.2710  223.4910 C   0  0  0  0  0  0  0  0  0  0  0  0
  142.0960   79.3410  224.0550 C   0  0  0  0  0  0  0  0  0  0  0  0
  142.5330   80.3950  223.2960 C   0  0  0  0  0  0  0  0  0  0  0  0
  142.2710   80.3940  221.9430 C   0  0  0  0  0  0  0  0  0  0  0  0
  141.5740   79.3280  221.4030 C   0  0  0  0  0  0  0  0  0  0  0  0
  141.4938   75.4547  222.1648 H   0  0  0  0  0  0  0  0  0  0  0  0
  140.5275   75.3012  220.6584 H   0  0  0  0  0  0  0  0  0  0  0  0
  142.0443   76.2635  220.6584 H   0  0  0  0  0  0  0  0  0  0  0  0
  138.5666   78.1811  221.4882 H   0  0  0  0  0  0  0  0  0  0  0  0
  138.7002   76.7371  220.4447 H   0  0  0  0  0  0  0  0  0  0  0  0
  138.7259   76.6539  223.5037 H   0  0  0  0  0  0  0  0  0  0  0  0
  137.2514   76.4145  222.4965 H   0  0  0  0  0  0  0  0  0  0  0  0
  139.2330   74.4360  223.0950 H   0  0  0  0  0  0  0  0  0  0  0  0
  137.9040   72.3469  220.2902 H   0  0  0  0  0  0  0  0  0  0  0  0
  139.6893   72.7596  220.5224 H   0  0  0  0  0  0  0  0  0  0  0  0
  138.0670   71.1840  222.3900 H   0  0  0  0  0  0  0  0  0  0  0  0
  141.2173   72.9074  225.0712 H   0  0  0  0  0  0  0  0  0  0  0  0
  141.6453   71.6990  227.1988 H   0  0  0  0  0  0  0  0  0  0  0  0
  141.3483   69.6965  228.5020 H   0  0  0  0  0  0  0  0  0  0  0  0
  140.4600   67.4147  228.8127 H   0  0  0  0  0  0  0  0  0  0  0  0
  139.1474   66.3912  226.9347 H   0  0  0  0  0  0  0  0  0  0  0  0
  138.7498   67.6353  224.8497 H   0  0  0  0  0  0  0  0  0  0  0  0
  141.0509   77.4396  224.1259 H   0  0  0  0  0  0  0  0  0  0  0  0
  142.3045   79.3355  225.1350 H   0  0  0  0  0  0  0  0  0  0  0  0
  143.0834   81.2274  223.7587 H   0  0  0  0  0  0  0  0  0  0  0  0
  142.6092   81.2240  221.3053 H   0  0  0  0  0  0  0  0  0  0  0  0
  141.3715   79.3406  220.3219 H   0  0  0  0  0  0  0  0  0  0  0  0
  1  2  1  0
  2  3  1  0
  3  4  1  0
  4  5  1  0
  5  6  1  0
  6  7  2  0
  6  8  1  0
  8  9  1  0
  9 10  1  0
 10 11  2  0
 10 12  1  0
 12 13  2  0
 13 14  1  0
 14 15  2  0
 15 16  1  0
 16 17  2  0
 17 18  1  0
 18 19  2  0
 19 20  1  0
 20 21  2  0
  2 22  1  0
 22 23  2  0
 23 24  1  0
 24 25  2  0
 25 26  1  0
 26 27  2  0
 21 12  1  0
 27 22  1  0
 20 15  1  0
  1 28  1  0
  1 29  1  0
  1 30  1  0
  3 31  1  0
  3 32  1  0
  4 33  1  0
  4 34  1  0
  5 35  1  0
  8 36  1  0
  8 37  1  0
  9 38  1  0
 13 39  1  0
 14 40  1  0
 16 41  1  0
 17 42  1  0
 18 43  1  0
 19 44  1  0
 23 45  1  0
 24 46  1  0
 25 47  1  0
 26 48  1  0
 27 49  1  0
M  END
>  <smiles>  (1) 
CN(CCNC(=O)CNC(=O)c1ccc2ccccc2n1)c1ccccc1

>  <score_type>  (1) 
oracle

>  <origin>  (1) 
autodockgpu

>  <m_score__min__energy>  (1) 
-8.4499999999999993

>  <m_primary>  (1) 
energy

>  <rmsd>  (1) 
3.884296850660814

>  <m_score__min__rmsd>  (1) 
3.884296850660814

>  <meeko>  (1) 
{"free_energy": -8.14, "intermolecular_energy": -10.23, "internal_energy": -1.93, "cluster_size": 31, "cluster_id": 2, "rank_in_cluster": 9}

>  <energy>  (1) 
-8.45

>  <cluster_rmsd>  (1) 
0.0

>  <cluster>  (1) 
1

$$$$

     RDKit          3D

 49 51  0  0  0  0  0  0  0  0999 V2000
  137.4800   69.5650  224.8570 C   0  0  0  0  0  0  0  0  0  0  0  0
  138.9280   69.7000  224.8410 N   0  0  0  0  0  0  0  0  0  0  0  0
  139.5660   70.2800  223.6550 C   0  0  0  0  0  0  0  0  0  0  0  0
  140.3230   71.5190  224.0860 C   0  0  0  0  0  0  0  0  0  0  0  0
  140.1900   72.5590  223.0880 N   0  0  0  0  0  0  0  0  0  0  0  0
  140.8530   72.5550  221.8410 C   0  0  0  0  0  0  0  0  0  0  0  0
  141.6130   71.5550  221.6150 O   0  0  0  0  0  0  0  0  0  0  0  0
  140.7590   73.5670  220.7960 C   0  0  0  0  0  0  0  0  0  0  0  0
  141.0730   74.9170  221.1920 N   0  0  0  0  0  0  0  0  0  0  0  0
  140.0580   75.6160  221.9310 C   0  0  0  0  0  0  0  0  0  0  0  0
  139.0030   74.9720  222.1510 O   0  0  0  0  0  0  0  0  0  0  0  0
  140.2490   76.9830  222.3910 C   0  0  0  0  0  0  0  0  0  0  0  0
  139.1160   77.7120  222.7110 C   0  0  0  0  0  0  0  0  0  0  0  0
  139.1850   79.0160  223.1550 C   0  0  0  0  0  0  0  0  0  0  0  0
  140.4410   79.5850  223.2730 C   0  0  0  0  0  0  0  0  0  0  0  0
  140.5790   80.8930  223.7150 C   0  0  0  0  0  0  0  0  0  0  0  0
  141.7930   81.5010  223.8510 C   0  0  0  0  0  0  0  0  0  0  0  0
  142.9200   80.7440  223.5210 C   0  0  0  0  0  0  0  0  0  0  0  0
  142.8090   79.4470  223.0810 C   0  0  0  0  0  0  0  0  0  0  0  0
  141.5680   78.8560  222.9530 C   0  0  0  0  0  0  0  0  0  0  0  0
  141.4550   77.5660  222.5170 N   0  0  0  0  0  0  0  0  0  0  0  0
  139.6400   69.2620  225.9690 C   0  0  0  0  0  0  0  0  0  0  0  0
  140.0790   67.9410  225.9770 C   0  0  0  0  0  0  0  0  0  0  0  0
  140.7930   67.4490  227.0760 C   0  0  0  0  0  0  0  0  0  0  0  0
  141.0770   68.2360  228.1610 C   0  0  0  0  0  0  0  0  0  0  0  0
  140.6460   69.5450  228.1620 C   0  0  0  0  0  0  0  0  0  0  0  0
  139.9430   70.0150  227.0680 C   0  0  0  0  0  0  0  0  0  0  0  0
  137.1263   69.5320  225.8981 H   0  0  0  0  0  0  0  0  0  0  0  0
  137.0259   70.4247  224.3425 H   0  0  0  0  0  0  0  0  0  0  0  0
  137.1926   68.6362  224.3425 H   0  0  0  0  0  0  0  0  0  0  0  0
  140.2626   69.5524  223.2130 H   0  0  0  0  0  0  0  0  0  0  0  0
  138.8067   70.5399  222.9027 H   0  0  0  0  0  0  0  0  0  0  0  0
  139.9159   71.8791  225.0424 H   0  0  0  0  0  0  0  0  0  0  0  0
  141.3874   71.2669  224.2018 H   0  0  0  0  0  0  0  0  0  0  0  0
  139.5650   73.3670  223.2930 H   0  0  0  0  0  0  0  0  0  0  0  0
  141.4515   73.2833  219.9898 H   0  0  0  0  0  0  0  0  0  0  0  0
  139.7009   73.5851  220.4958 H   0  0  0  0  0  0  0  0  0  0  0  0
  141.9570   75.4210  220.9920 H   0  0  0  0  0  0  0  0  0  0  0  0
  138.1297   77.2360  222.6078 H   0  0  0  0  0  0  0  0  0  0  0  0
  138.2760   79.5824  223.4059 H   0  0  0  0  0  0  0  0  0  0  0  0
  139.6725   81.4633  223.9661 H   0  0  0  0  0  0  0  0  0  0  0  0
  141.8803   82.5391  224.2041 H   0  0  0  0  0  0  0  0  0  0  0  0
  143.9182   81.1963  223.6155 H   0  0  0  0  0  0  0  0  0  0  0  0
  143.7148   78.8760  222.8291 H   0  0  0  0  0  0  0  0  0  0  0  0
  139.8651   67.2845  225.1207 H   0  0  0  0  0  0  0  0  0  0  0  0
  141.1349   66.4035  227.0683 H   0  0  0  0  0  0  0  0  0  0  0  0
  141.6386   67.8305  229.0155 H   0  0  0  0  0  0  0  0  0  0  0  0
  140.8573   70.2037  229.0173 H   0  0  0  0  0  0  0  0  0  0  0  0
  139.6062   71.0620  227.0835 H   0  0  0  0  0  0  0  0  0  0  0  0
  1  2  1  0
  2  3  1  0
  3  4  1  0
  4  5  1  0
  5  6  1  0
  6  7  2  0
  6  8  1  0
  8  9  1  0
  9 10  1  0
 10 11  2  0
 10 12  1  0
 12 13  2  0
 13 14  1  0
 14 15  2  0
 15 16  1  0
 16 17  2  0
 17 18  1  0
 18 19  2  0
 19 20  1  0
 20 21  2  0
  2 22  1  0
 22 23  2  0
 23 24  1  0
 24 25  2  0
 25 26  1  0
 26 27  2  0
 21 12  1  0
 27 22  1  0
 20 15  1  0
  1 28  1  0
  1 29  1  0
  1 30  1  0
  3 31  1  0
  3 32  1  0
  4 33  1  0
  4 34  1  0
  5 35  1  0
  8 36  1  0
  8 37  1  0
  9 38  1  0
 13 39  1  0
 14 40  1  0
 16 41  1  0
 17 42  1  0
 18 43  1  0
 19 44  1  0
 23 45  1  0
 24 46  1  0
 25 47  1  0
 26 48  1  0
 27 49  1  0
M  END
>  <smiles>  (2) 
CN(CCNC(=O)CNC(=O)c1ccc2ccccc2n1)c1ccccc1

>  <score_type>  (2) 
oracle

>  <origin>  (2) 
autodockgpu

>  <m_score__min__energy>  (2) 
-8.4499999999999993

>  <m_primary>  (2) 
energy

>  <rmsd>  (2) 
9.348939541764022

>  <m_score__min__rmsd>  (2) 
9.348939541764022

>  <meeko>  (2) 
{"free_energy": -8.45, "intermolecular_energy": -10.53, "internal_energy": -1.83, "cluster_size": 18, "cluster_id": 1, "rank_in_cluster": 1}

>  <energy>  (2) 
-8.43

>  <cluster_rmsd>  (2) 
0.16

>  <cluster>  (2) 
1

$$$$

     RDKit          3D

 49 51  0  0  0  0  0  0  0  0999 V2000
  138.7420   69.1550  224.2640 C   0  0  0  0  0  0  0  0  0  0  0  0
  139.7940   69.9410  224.8920 N   0  0  0  0  0  0  0  0  0  0  0  0
  140.2840   71.1370  224.1990 C   0  0  0  0  0  0  0  0  0  0  0  0
  139.1280   71.7410  223.4280 C   0  0  0  0  0  0  0  0  0  0  0  0
  139.6020   72.8100  222.5730 N   0  0  0  0  0  0  0  0  0  0  0  0
  140.5690   72.6450  221.5560 C   0  0  0  0  0  0  0  0  0  0  0  0
  141.0340   71.4660  221.4120 O   0  0  0  0  0  0  0  0  0  0  0  0
  141.0830   73.6760  220.6620 C   0  0  0  0  0  0  0  0  0  0  0  0
  141.3280   74.9650  221.2590 N   0  0  0  0  0  0  0  0  0  0  0  0
  140.1710   75.7800  221.5120 C   0  0  0  0  0  0  0  0  0  0  0  0
  139.0680   75.2780  221.1820 O   0  0  0  0  0  0  0  0  0  0  0  0
  140.2800   77.1010  222.1100 C   0  0  0  0  0  0  0  0  0  0  0  0
  139.1060   77.7200  222.5070 C   0  0  0  0  0  0  0  0  0  0  0  0
  139.0970   78.9740  223.0840 C   0  0  0  0  0  0  0  0  0  0  0  0
  140.3160   79.6060  223.2570 C   0  0  0  0  0  0  0  0  0  0  0  0
  140.3750   80.8670  223.8320 C   0  0  0  0  0  0  0  0  0  0  0  0
  141.5500   81.5330  224.0260 C   0  0  0  0  0  0  0  0  0  0  0  0
  142.7190   80.8880  223.6170 C   0  0  0  0  0  0  0  0  0  0  0  0
  142.6860   79.6380  223.0450 C   0  0  0  0  0  0  0  0  0  0  0  0
  141.4840   78.9870  222.8600 C   0  0  0  0  0  0  0  0  0  0  0  0
  141.4480   77.7440  222.2930 N   0  0  0  0  0  0  0  0  0  0  0  0
  140.2850   69.5080  226.1330 C   0  0  0  0  0  0  0  0  0  0  0  0
  140.5500   70.4810  227.0930 C   0  0  0  0  0  0  0  0  0  0  0  0
  141.0430   70.1070  228.3480 C   0  0  0  0  0  0  0  0  0  0  0  0
  141.2780   68.7960  228.6690 C   0  0  0  0  0  0  0  0  0  0  0  0
  141.0190   67.8250  227.7250 C   0  0  0  0  0  0  0  0  0  0  0  0
  140.5320   68.2120  226.4900 C   0  0  0  0  0  0  0  0  0  0  0  0
  138.1186   68.6892  225.0414 H   0  0  0  0  0  0  0  0  0  0  0  0
  138.1186   69.8104  223.6380 H   0  0  0  0  0  0  0  0  0  0  0  0
  139.1938   68.3714  223.6380 H   0  0  0  0  0  0  0  0  0  0  0  0
  140.6632   71.8638  224.9324 H   0  0  0  0  0  0  0  0  0  0  0  0
  141.1022   70.8718  223.5133 H   0  0  0  0  0  0  0  0  0  0  0  0
  138.6573   70.9625  222.8096 H   0  0  0  0  0  0  0  0  0  0  0  0
  138.3953   72.1486  224.1400 H   0  0  0  0  0  0  0  0  0  0  0  0
  139.2100   73.7650  222.7080 H   0  0  0  0  0  0  0  0  0  0  0  0
  142.0327   73.3139  220.2414 H   0  0  0  0  0  0  0  0  0  0  0  0
  140.2933   73.8407  219.9141 H   0  0  0  0  0  0  0  0  0  0  0  0
  142.2550   75.3510  221.5180 H   0  0  0  0  0  0  0  0  0  0  0  0
  138.1506   77.1956  222.3577 H   0  0  0  0  0  0  0  0  0  0  0  0
  138.1566   79.4528  223.3945 H   0  0  0  0  0  0  0  0  0  0  0  0
  139.4370   81.3494  224.1441 H   0  0  0  0  0  0  0  0  0  0  0  0
  141.5752   82.5328  224.4839 H   0  0  0  0  0  0  0  0  0  0  0  0
  143.6875   81.3909  223.7554 H   0  0  0  0  0  0  0  0  0  0  0  0
  143.6235   79.1544  222.7331 H   0  0  0  0  0  0  0  0  0  0  0  0
  140.3720   71.5423  226.8652 H   0  0  0  0  0  0  0  0  0  0  0  0
  141.2473   70.8864  229.0969 H   0  0  0  0  0  0  0  0  0  0  0  0
  141.6661   68.5231  229.6614 H   0  0  0  0  0  0  0  0  0  0  0  0
  141.1963   66.7630  227.9500 H   0  0  0  0  0  0  0  0  0  0  0  0
  140.3304   67.4262  225.7471 H   0  0  0  0  0  0  0  0  0  0  0  0
  1  2  1  0
  2  3  1  0
  3  4  1  0
  4  5  1  0
  5  6  1  0
  6  7  2  0
  6  8  1  0
  8  9  1  0
  9 10  1  0
 10 11  2  0
 10 12  1  0
 12 13  2  0
 13 14  1  0
 14 15  2  0
 15 16  1  0
 16 17  2  0
 17 18  1  0
 18 19  2  0
 19 20  1  0
 20 21  2  0
  2 22  1  0
 22 23  2  0
 23 24  1  0
 24 25  2  0
 25 26  1  0
 26 27  2  0
 21 12  1  0
 27 22  1  0
 20 15  1  0
  1 28  1  0
  1 29  1  0
  1 30  1  0
  3 31  1  0
  3 32  1  0
  4 33  1  0
  4 34  1  0
  5 35  1  0
  8 36  1  0
  8 37  1  0
  9 38  1  0
 13 39  1  0
 14 40  1  0
 16 41  1  0
 17 42  1  0
 18 43  1  0
 19 44  1  0
 23 45  1  0
 24 46  1  0
 25 47  1  0
 26 48  1  0
 27 49  1  0
M  END
>  <smiles>  (3) 
CN(CCNC(=O)CNC(=O)c1ccc2ccccc2n1)c1ccccc1

>  <score_type>  (3) 
oracle

>  <origin>  (3) 
autodockgpu

>  <m_score__min__energy>  (3) 
-8.4499999999999993

>  <m_primary>  (3) 
energy

>  <rmsd>  (3) 
9.382681885553044

>  <m_score__min__rmsd>  (3) 
9.382681885553044

>  <meeko>  (3) 
{"free_energy": -8.27, "intermolecular_energy": -10.36, "internal_energy": -1.81, "cluster_size": 18, "cluster_id": 1, "rank_in_cluster": 4}

>  <energy>  (3) 
-8.4

>  <cluster_rmsd>  (3) 
0.18

>  <cluster>  (3) 
1

$$$$

     RDKit          3D

 49 51  0  0  0  0  0  0  0  0999 V2000
  137.5190   69.3280  225.0160 C   0  0  0  0  0  0  0  0  0  0  0  0
  138.9690   69.4470  225.0210 N   0  0  0  0  0  0  0  0  0  0  0  0
  139.6320   69.9860  223.8280 C   0  0  0  0  0  0  0  0  0  0  0  0
  140.0100   71.4250  224.1090 C   0  0  0  0  0  0  0  0  0  0  0  0
  139.7280   72.2510  222.9530 N   0  0  0  0  0  0  0  0  0  0  0  0
  140.5280   72.2880  221.7890 C   0  0  0  0  0  0  0  0  0  0  0  0
  141.5580   71.5350  221.7930 O   0  0  0  0  0  0  0  0  0  0  0  0
  140.2980   73.0920  220.5950 C   0  0  0  0  0  0  0  0  0  0  0  0
  140.8680   74.4160  220.6040 N   0  0  0  0  0  0  0  0  0  0  0  0
  140.3590   75.3220  221.5970 C   0  0  0  0  0  0  0  0  0  0  0  0
  139.4670   74.8590  222.3510 O   0  0  0  0  0  0  0  0  0  0  0  0
  140.8500   76.6860  221.7140 C   0  0  0  0  0  0  0  0  0  0  0  0
  141.0830   77.3820  220.5390 C   0  0  0  0  0  0  0  0  0  0  0  0
  141.5510   78.6810  220.5370 C   0  0  0  0  0  0  0  0  0  0  0  0
  141.7840   79.2770  221.7640 C   0  0  0  0  0  0  0  0  0  0  0  0
  142.2540   80.5810  221.8300 C   0  0  0  0  0  0  0  0  0  0  0  0
  142.4980   81.2160  223.0130 C   0  0  0  0  0  0  0  0  0  0  0  0
  142.2560   80.4920  224.1830 C   0  0  0  0  0  0  0  0  0  0  0  0
  141.7910   79.1990  224.1420 C   0  0  0  0  0  0  0  0  0  0  0  0
  141.5510   78.5810  222.9320 C   0  0  0  0  0  0  0  0  0  0  0  0
  141.0880   77.2960  222.8890 N   0  0  0  0  0  0  0  0  0  0  0  0
  139.6590   69.0360  226.1730 C   0  0  0  0  0  0  0  0  0  0  0  0
  139.2530   69.5780  227.3900 C   0  0  0  0  0  0  0  0  0  0  0  0
  139.9040   69.2050  228.5710 C   0  0  0  0  0  0  0  0  0  0  0  0
  140.9440   68.3140  228.5700 C   0  0  0  0  0  0  0  0  0  0  0  0
  141.3540   67.7720  227.3700 C   0  0  0  0  0  0  0  0  0  0  0  0
  140.6990   68.1510  226.2120 C   0  0  0  0  0  0  0  0  0  0  0  0
  137.1500   69.2977  226.0518 H   0  0  0  0  0  0  0  0  0  0  0  0
  137.0819   70.1933  224.4962 H   0  0  0  0  0  0  0  0  0  0  0  0
  137.2288   68.4030  224.4962 H   0  0  0  0  0  0  0  0  0  0  0  0
  140.5360   69.3995  223.6069 H   0  0  0  0  0  0  0  0  0  0  0  0
  138.9580   69.9317  222.9604 H   0  0  0  0  0  0  0  0  0  0  0  0
  139.4295   71.7921  224.9682 H   0  0  0  0  0  0  0  0  0  0  0  0
  141.0857   71.4764  224.3331 H   0  0  0  0  0  0  0  0  0  0  0  0
  138.8830   72.8590  222.9710 H   0  0  0  0  0  0  0  0  0  0  0  0
  140.7218   72.5492  219.7372 H   0  0  0  0  0  0  0  0  0  0  0  0
  139.2091   73.2388  220.5422 H   0  0  0  0  0  0  0  0  0  0  0  0
  141.6040   74.7670  219.9640 H   0  0  0  0  0  0  0  0  0  0  0  0
  140.8891   76.8841  219.5775 H   0  0  0  0  0  0  0  0  0  0  0  0
  141.7317   79.2214  219.5961 H   0  0  0  0  0  0  0  0  0  0  0  0
  142.4372   81.1245  220.8913 H   0  0  0  0  0  0  0  0  0  0  0  0
  142.8685   82.2513  223.0439 H   0  0  0  0  0  0  0  0  0  0  0  0
  142.4415   80.9667  225.1578 H   0  0  0  0  0  0  0  0  0  0  0  0
  141.6091   78.6536  225.0798 H   0  0  0  0  0  0  0  0  0  0  0  0
  138.4220   70.2980  227.4227 H   0  0  0  0  0  0  0  0  0  0  0  0
  139.5716   69.6389  229.5256 H   0  0  0  0  0  0  0  0  0  0  0  0
  141.4435   68.0356  229.5097 H   0  0  0  0  0  0  0  0  0  0  0  0
  142.1854   67.0526  227.3344 H   0  0  0  0  0  0  0  0  0  0  0  0
  141.0372   67.7117  225.2619 H   0  0  0  0  0  0  0  0  0  0  0  0
  1  2  1  0
  2  3  1  0
  3  4  1  0
  4  5  1  0
  5  6  1  0
  6  7  2  0
  6  8  1  0
  8  9  1  0
  9 10  1  0
 10 11  2  0
 10 12  1  0
 12 13  2  0
 13 14  1  0
 14 15  2  0
 15 16  1  0
 16 17  2  0
 17 18  1  0
 18 19  2  0
 19 20  1  0
 20 21  2  0
  2 22  1  0
 22 23  2  0
 23 24  1  0
 24 25  2  0
 25 26  1  0
 26 27  2  0
 21 12  1  0
 27 22  1  0
 20 15  1  0
  1 28  1  0
  1 29  1  0
  1 30  1  0
  3 31  1  0
  3 32  1  0
  4 33  1  0
  4 34  1  0
  5 35  1  0
  8 36  1  0
  8 37  1  0
  9 38  1  0
 13 39  1  0
 14 40  1  0
 16 41  1  0
 17 42  1  0
 18 43  1  0
 19 44  1  0
 23 45  1  0
 24 46  1  0
 25 47  1  0
 26 48  1  0
 27 49  1  0
M  END
>  <smiles>  (4) 
CN(CCNC(=O)CNC(=O)c1ccc2ccccc2n1)c1ccccc1

>  <score_type>  (4) 
oracle

>  <origin>  (4) 
autodockgpu

>  <m_score__min__energy>  (4) 
-8.4499999999999993

>  <m_primary>  (4) 
energy

>  <rmsd>  (4) 
9.594134014614419

>  <m_score__min__rmsd>  (4) 
9.594134014614419

>  <meeko>  (4) 
{"free_energy": -8.13, "intermolecular_energy": -10.22, "internal_energy": -1.56, "cluster_size": 18, "cluster_id": 1, "rank_in_cluster": 9}

>  <energy>  (4) 
-8.27

>  <cluster_rmsd>  (4) 
0.65

>  <cluster>  (4) 
1

$$$$

     RDKit          3D

 49 51  0  0  0  0  0  0  0  0999 V2000
  139.1900   69.0470  224.1840 C   0  0  0  0  0  0  0  0  0  0  0  0
  139.3660   70.4430  224.5550 N   0  0  0  0  0  0  0  0  0  0  0  0
  138.8640   71.4790  223.6460 C   0  0  0  0  0  0  0  0  0  0  0  0
  139.0540   70.9900  222.2250 C   0  0  0  0  0  0  0  0  0  0  0  0
  139.6370   72.0360  221.4100 N   0  0  0  0  0  0  0  0  0  0  0  0
  141.0170   72.3350  221.3680 C   0  0  0  0  0  0  0  0  0  0  0  0
  141.7680   71.6200  222.1110 O   0  0  0  0  0  0  0  0  0  0  0  0
  141.6640   73.3690  220.5690 C   0  0  0  0  0  0  0  0  0  0  0  0
  141.7230   74.6820  221.1620 N   0  0  0  0  0  0  0  0  0  0  0  0
  140.4660   75.3570  221.3390 C   0  0  0  0  0  0  0  0  0  0  0  0
  139.4500   74.7270  220.9540 O   0  0  0  0  0  0  0  0  0  0  0  0
  140.3860   76.6860  221.9250 C   0  0  0  0  0  0  0  0  0  0  0  0
  139.1380   77.1290  222.3320 C   0  0  0  0  0  0  0  0  0  0  0  0
  138.9510   78.3730  222.8990 C   0  0  0  0  0  0  0  0  0  0  0  0
  140.0650   79.1800  223.0510 C   0  0  0  0  0  0  0  0  0  0  0  0
  139.9450   80.4410  223.6150 C   0  0  0  0  0  0  0  0  0  0  0  0
  141.0110   81.2750  223.7890 C   0  0  0  0  0  0  0  0  0  0  0  0
  142.2570   80.8050  223.3690 C   0  0  0  0  0  0  0  0  0  0  0  0
  142.4020   79.5590  222.8080 C   0  0  0  0  0  0  0  0  0  0  0  0
  141.3070   78.7350  222.6440 C   0  0  0  0  0  0  0  0  0  0  0  0
  141.4480   77.4960  222.0880 N   0  0  0  0  0  0  0  0  0  0  0  0
  140.0120   70.7230  225.7700 C   0  0  0  0  0  0  0  0  0  0  0  0
  139.9350   69.7600  226.7730 C   0  0  0  0  0  0  0  0  0  0  0  0
  140.5590   69.9850  228.0050 C   0  0  0  0  0  0  0  0  0  0  0  0
  141.2510   71.1390  228.2620 C   0  0  0  0  0  0  0  0  0  0  0  0
  141.3330   72.0980  227.2750 C   0  0  0  0  0  0  0  0  0  0  0  0
  140.7110   71.8590  226.0630 C   0  0  0  0  0  0  0  0  0  0  0  0
  139.1126   68.4329  225.0933 H   0  0  0  0  0  0  0  0  0  0  0  0
  138.2711   68.9387  223.5891 H   0  0  0  0  0  0  0  0  0  0  0  0
  140.0533   68.7141  223.5891 H   0  0  0  0  0  0  0  0  0  0  0  0
  137.7961   71.6587  223.8389 H   0  0  0  0  0  0  0  0  0  0  0  0
  139.4112   72.4205  223.8016 H   0  0  0  0  0  0  0  0  0  0  0  0
  139.7223   70.1163  222.2277 H   0  0  0  0  0  0  0  0  0  0  0  0
  138.0751   70.7126  221.8069 H   0  0  0  0  0  0  0  0  0  0  0  0
  139.0060   72.6090  220.8120 H   0  0  0  0  0  0  0  0  0  0  0  0
  142.6955   73.0435  220.3689 H   0  0  0  0  0  0  0  0  0  0  0  0
  141.0435   73.4786  219.6673 H   0  0  0  0  0  0  0  0  0  0  0  0
  142.5820   75.1750  221.4670 H   0  0  0  0  0  0  0  0  0  0  0  0
  138.2687   76.4682  222.1989 H   0  0  0  0  0  0  0  0  0  0  0  0
  137.9539   78.7106  223.2182 H   0  0  0  0  0  0  0  0  0  0  0  0
  138.9498   80.7831  223.9353 H   0  0  0  0  0  0  0  0  0  0  0  0
  140.8941   82.2717  224.2394 H   0  0  0  0  0  0  0  0  0  0  0  0
  143.1423   81.4465  223.4899 H   0  0  0  0  0  0  0  0  0  0  0  0
  143.3969   79.2162  222.4876 H   0  0  0  0  0  0  0  0  0  0  0  0
  139.3845   68.8240  226.5970 H   0  0  0  0  0  0  0  0  0  0  0  0
  140.4921   69.2150  228.7877 H   0  0  0  0  0  0  0  0  0  0  0  0
  141.7325   71.2976  229.2382 H   0  0  0  0  0  0  0  0  0  0  0  0
  141.8824   73.0351  227.4480 H   0  0  0  0  0  0  0  0  0  0  0  0
  140.7840   72.6335  225.2853 H   0  0  0  0  0  0  0  0  0  0  0  0
  1  2  1  0
  2  3  1  0
  3  4  1  0
  4  5  1  0
  5  6  1  0
  6  7  2  0
  6  8  1  0
  8  9  1  0
  9 10  1  0
 10 11  2  0
 10 12  1  0
 12 13  2  0
 13 14  1  0
 14 15  2  0
 15 16  1  0
 16 17  2  0
 17 18  1  0
 18 19  2  0
 19 20  1  0
 20 21  2  0
  2 22  1  0
 22 23  2  0
 23 24  1  0
 24 25  2  0
 25 26  1  0
 26 27  2  0
 21 12  1  0
 27 22  1  0
 20 15  1  0
  1 28  1  0
  1 29  1  0
  1 30  1  0
  3 31  1  0
  3 32  1  0
  4 33  1  0
  4 34  1  0
  5 35  1  0
  8 36  1  0
  8 37  1  0
  9 38  1  0
 13 39  1  0
 14 40  1  0
 16 41  1  0
 17 42  1  0
 18 43  1  0
 19 44  1  0
 23 45  1  0
 24 46  1  0
 25 47  1  0
 26 48  1  0
 27 49  1  0
M  END
>  <smiles>  (5) 
CN(CCNC(=O)CNC(=O)c1ccc2ccccc2n1)c1ccccc1

>  <score_type>  (5) 
oracle

>  <origin>  (5) 
autodockgpu

>  <m_score__min__energy>  (5) 
-8.4499999999999993

>  <m_primary>  (5) 
energy

>  <rmsd>  (5) 
8.690483929802625

>  <m_score__min__rmsd>  (5) 
8.690483929802625

>  <meeko>  (5) 
{"free_energy": -7.55, "intermolecular_energy": -9.64, "internal_energy": -1.98, "cluster_size": 18, "cluster_id": 1, "rank_in_cluster": 18}

>  <energy>  (5) 
-8.24

>  <cluster_rmsd>  (5) 
1.1

>  <cluster>  (5) 
1

$$$$

     RDKit          3D

 49 51  0  0  0  0  0  0  0  0999 V2000
  137.8570   79.6660  222.8480 C   0  0  0  0  0  0  0  0  0  0  0  0
  139.0430   78.8900  222.5180 N   0  0  0  0  0  0  0  0  0  0  0  0
  138.8720   77.6010  221.8400 C   0  0  0  0  0  0  0  0  0  0  0  0
  138.1390   76.6680  222.7810 C   0  0  0  0  0  0  0  0  0  0  0  0
  138.4000   75.2890  222.4220 N   0  0  0  0  0  0  0  0  0  0  0  0
  137.4930   74.4650  221.7190 C   0  0  0  0  0  0  0  0  0  0  0  0
  136.3820   75.0030  221.3980 O   0  0  0  0  0  0  0  0  0  0  0  0
  137.6970   73.0760  221.3270 C   0  0  0  0  0  0  0  0  0  0  0  0
  138.0000   72.1550  222.3930 N   0  0  0  0  0  0  0  0  0  0  0  0
  139.3130   72.2590  222.9700 C   0  0  0  0  0  0  0  0  0  0  0  0
  140.0560   73.1440  222.4770 O   0  0  0  0  0  0  0  0  0  0  0  0
  139.7450   71.3900  224.0530 C   0  0  0  0  0  0  0  0  0  0  0  0
  140.7250   71.8730  224.9050 C   0  0  0  0  0  0  0  0  0  0  0  0
  141.2070   71.1300  225.9630 C   0  0  0  0  0  0  0  0  0  0  0  0
  140.6750   69.8660  226.1510 C   0  0  0  0  0  0  0  0  0  0  0  0
  141.1160   69.0690  227.1970 C   0  0  0  0  0  0  0  0  0  0  0  0
  140.6240   67.8170  227.4280 C   0  0  0  0  0  0  0  0  0  0  0  0
  139.6380   67.3540  226.5540 C   0  0  0  0  0  0  0  0  0  0  0  0
  139.1840   68.1250  225.5100 C   0  0  0  0  0  0  0  0  0  0  0  0
  139.6990   69.3880  225.3000 C   0  0  0  0  0  0  0  0  0  0  0  0
  139.2490   70.1570  224.2650 N   0  0  0  0  0  0  0  0  0  0  0  0
  140.2940   79.4210  222.8720 C   0  0  0  0  0  0  0  0  0  0  0  0
  140.3110   80.6810  223.4650 C   0  0  0  0  0  0  0  0  0  0  0  0
  141.5290   81.2600  223.8370 C   0  0  0  0  0  0  0  0  0  0  0  0
  142.7230   80.6210  223.6330 C   0  0  0  0  0  0  0  0  0  0  0  0
  142.7170   79.3730  223.0470 C   0  0  0  0  0  0  0  0  0  0  0  0
  141.5040   78.8150  222.6850 C   0  0  0  0  0  0  0  0  0  0  0  0
  137.7550   79.7328  223.9412 H   0  0  0  0  0  0  0  0  0  0  0  0
  137.9515   80.6775  222.4261 H   0  0  0  0  0  0  0  0  0  0  0  0
  136.9680   79.1743  222.4261 H   0  0  0  0  0  0  0  0  0  0  0  0
  138.2855   77.7387  220.9197 H   0  0  0  0  0  0  0  0  0  0  0  0
  139.8516   77.1789  221.5713 H   0  0  0  0  0  0  0  0  0  0  0  0
  138.4826   76.8467  223.8106 H   0  0  0  0  0  0  0  0  0  0  0  0
  137.0584   76.8598  222.7071 H   0  0  0  0  0  0  0  0  0  0  0  0
  139.3130   74.8700  222.6950 H   0  0  0  0  0  0  0  0  0  0  0  0
  136.7781   72.7277  220.8328 H   0  0  0  0  0  0  0  0  0  0  0  0
  138.5849   73.0793  220.6777 H   0  0  0  0  0  0  0  0  0  0  0  0
  137.3620   71.4340  222.7760 H   0  0  0  0  0  0  0  0  0  0  0  0
  141.1316   72.8805  224.7325 H   0  0  0  0  0  0  0  0  0  0  0  0
  141.9847   71.5271  226.6319 H   0  0  0  0  0  0  0  0  0  0  0  0
  141.8941   69.4620  227.8679 H   0  0  0  0  0  0  0  0  0  0  0  0
  140.9873   67.2011  228.2639 H   0  0  0  0  0  0  0  0  0  0  0  0
  139.2150   66.3497  226.7042 H   0  0  0  0  0  0  0  0  0  0  0  0
  138.4060   67.7329  224.8384 H   0  0  0  0  0  0  0  0  0  0  0  0
  139.3683   81.2200  223.6406 H   0  0  0  0  0  0  0  0  0  0  0  0
  141.5276   82.2551  224.3059 H   0  0  0  0  0  0  0  0  0  0  0  0
  143.6698   81.0949  223.9313 H   0  0  0  0  0  0  0  0  0  0  0  0
  143.6582   78.8316  222.8708 H   0  0  0  0  0  0  0  0  0  0  0  0
  141.5144   77.8197  222.2166 H   0  0  0  0  0  0  0  0  0  0  0  0
  1  2  1  0
  2  3  1  0
  3  4  1  0
  4  5  1  0
  5  6  1  0
  6  7  2  0
  6  8  1  0
  8  9  1  0
  9 10  1  0
 10 11  2  0
 10 12  1  0
 12 13  2  0
 13 14  1  0
 14 15  2  0
 15 16  1  0
 16 17  2  0
 17 18  1  0
 18 19  2  0
 19 20  1  0
 20 21  2  0
  2 22  1  0
 22 23  2  0
 23 24  1  0
 24 25  2  0
 25 26  1  0
 26 27  2  0
 21 12  1  0
 27 22  1  0
 20 15  1  0
  1 28  1  0
  1 29  1  0
  1 30  1  0
  3 31  1  0
  3 32  1  0
  4 33  1  0
  4 34  1  0
  5 35  1  0
  8 36  1  0
  8 37  1  0
  9 38  1  0
 13 39  1  0
 14 40  1  0
 16 41  1  0
 17 42  1  0
 18 43  1  0
 19 44  1  0
 23 45  1  0
 24 46  1  0
 25 47  1  0
 26 48  1  0
 27 49  1  0
M  END
>  <smiles>  (6) 
CN(CCNC(=O)CNC(=O)c1ccc2ccccc2n1)c1ccccc1

>  <score_type>  (6) 
oracle

>  <origin>  (6) 
autodockgpu

>  <m_score__min__energy>  (6) 
-8.4499999999999993

>  <m_primary>  (6) 
energy

>  <rmsd>  (6) 
4.64997755201718

>  <m_score__min__rmsd>  (6) 
4.64997755201718

>  <meeko>  (6) 
{"free_energy": -7.78, "intermolecular_energy": -9.87, "internal_energy": -1.76, "cluster_size": 1, "cluster_id": 3, "rank_in_cluster": 1}

>  <energy>  (6) 
-8.19

>  <cluster_rmsd>  (6) 
1.07

>  <cluster>  (6) 
1

$$$$

     RDKit          3D

 49 51  0  0  0  0  0  0  0  0999 V2000
  137.7260   79.6180  222.9110 C   0  0  0  0  0  0  0  0  0  0  0  0
  138.9360   78.8890  222.5600 N   0  0  0  0  0  0  0  0  0  0  0  0
  138.8040   77.5970  221.8800 C   0  0  0  0  0  0  0  0  0  0  0  0
  138.4000   76.5630  222.9110 C   0  0  0  0  0  0  0  0  0  0  0  0
  138.7420   75.2340  222.4460 N   0  0  0  0  0  0  0  0  0  0  0  0
  139.9930   74.8830  221.8910 C   0  0  0  0  0  0  0  0  0  0  0  0
  140.8510   75.8230  221.8060 O   0  0  0  0  0  0  0  0  0  0  0  0
  140.3980   73.5670  221.4100 C   0  0  0  0  0  0  0  0  0  0  0  0
  140.6760   72.5810  222.4230 N   0  0  0  0  0  0  0  0  0  0  0  0
  139.5350   71.9620  223.0390 C   0  0  0  0  0  0  0  0  0  0  0  0
  138.4140   72.3520  222.6270 O   0  0  0  0  0  0  0  0  0  0  0  0
  139.6770   70.9510  224.0750 C   0  0  0  0  0  0  0  0  0  0  0  0
  139.1560   69.6940  223.8150 C   0  0  0  0  0  0  0  0  0  0  0  0
  139.2360   68.6640  224.7290 C   0  0  0  0  0  0  0  0  0  0  0  0
  139.8620   68.9270  225.9350 C   0  0  0  0  0  0  0  0  0  0  0  0
  139.9760   67.9340  226.8970 C   0  0  0  0  0  0  0  0  0  0  0  0
  140.5860   68.1400  228.1000 C   0  0  0  0  0  0  0  0  0  0  0  0
  141.1020   69.4150  228.3380 C   0  0  0  0  0  0  0  0  0  0  0  0
  141.0020   70.4160  227.4000 C   0  0  0  0  0  0  0  0  0  0  0  0
  140.3810   70.1800  226.1910 C   0  0  0  0  0  0  0  0  0  0  0  0
  140.2800   71.1720  225.2570 N   0  0  0  0  0  0  0  0  0  0  0  0
  140.1700   79.4680  222.8950 C   0  0  0  0  0  0  0  0  0  0  0  0
  141.3050   78.6700  222.7750 C   0  0  0  0  0  0  0  0  0  0  0  0
  142.5630   79.1930  223.0960 C   0  0  0  0  0  0  0  0  0  0  0  0
  142.7170   80.4820  223.5320 C   0  0  0  0  0  0  0  0  0  0  0  0
  141.5990   81.2800  223.6540 C   0  0  0  0  0  0  0  0  0  0  0  0
  140.3640   80.7470  223.3320 C   0  0  0  0  0  0  0  0  0  0  0  0
  137.6354   79.6726  224.0059 H   0  0  0  0  0  0  0  0  0  0  0  0
  137.7776   80.6355  222.4962 H   0  0  0  0  0  0  0  0  0  0  0  0
  136.8506   79.0968  222.4962 H   0  0  0  0  0  0  0  0  0  0  0  0
  138.0339   77.6642  221.0974 H   0  0  0  0  0  0  0  0  0  0  0  0
  139.7572   77.3144  221.4093 H   0  0  0  0  0  0  0  0  0  0  0  0
  138.9279   76.7650  223.8547 H   0  0  0  0  0  0  0  0  0  0  0  0
  137.3130   76.6195  223.0698 H   0  0  0  0  0  0  0  0  0  0  0  0
  138.0260   74.4820  222.5240 H   0  0  0  0  0  0  0  0  0  0  0  0
  139.5889   73.1775  220.7747 H   0  0  0  0  0  0  0  0  0  0  0  0
  141.3498   73.7250  220.8817 H   0  0  0  0  0  0  0  0  0  0  0  0
  141.6160   72.2830  222.7410 H   0  0  0  0  0  0  0  0  0  0  0  0
  138.6628   69.5114  222.8489 H   0  0  0  0  0  0  0  0  0  0  0  0
  138.8179   67.6709  224.5077 H   0  0  0  0  0  0  0  0  0  0  0  0
  139.5575   66.9399  226.6811 H   0  0  0  0  0  0  0  0  0  0  0  0
  140.6674   67.3378  228.8483 H   0  0  0  0  0  0  0  0  0  0  0  0
  141.5995   69.6237  229.2966 H   0  0  0  0  0  0  0  0  0  0  0  0
  141.4197   71.4106  227.6152 H   0  0  0  0  0  0  0  0  0  0  0  0
  141.2130   77.6301  222.4284 H   0  0  0  0  0  0  0  0  0  0  0  0
  143.4512   78.5519  222.9954 H   0  0  0  0  0  0  0  0  0  0  0  0
  143.7144   80.8737  223.7804 H   0  0  0  0  0  0  0  0  0  0  0  0
  141.6877   82.3202  224.0007 H   0  0  0  0  0  0  0  0  0  0  0  0
  139.4812   81.3952  223.4346 H   0  0  0  0  0  0  0  0  0  0  0  0
  1  2  1  0
  2  3  1  0
  3  4  1  0
  4  5  1  0
  5  6  1  0
  6  7  2  0
  6  8  1  0
  8  9  1  0
  9 10  1  0
 10 11  2  0
 10 12  1  0
 12 13  2  0
 13 14  1  0
 14 15  2  0
 15 16  1  0
 16 17  2  0
 17 18  1  0
 18 19  2  0
 19 20  1  0
 20 21  2  0
  2 22  1  0
 22 23  2  0
 23 24  1  0
 24 25  2  0
 25 26  1  0
 26 27  2  0
 21 12  1  0
 27 22  1  0
 20 15  1  0
  1 28  1  0
  1 29  1  0
  1 30  1  0
  3 31  1  0
  3 32  1  0
  4 33  1  0
  4 34  1  0
  5 35  1  0
  8 36  1  0
  8 37  1  0
  9 38  1  0
 13 39  1  0
 14 40  1  0
 16 41  1  0
 17 42  1  0
 18 43  1  0
 19 44  1  0
 23 45  1  0
 24 46  1  0
 25 47  1  0
 26 48  1  0
 27 49  1  0
M  END
>  <smiles>  (7) 
CN(CCNC(=O)CNC(=O)c1ccc2ccccc2n1)c1ccccc1

>  <score_type>  (7) 
oracle

>  <origin>  (7) 
autodockgpu

>  <m_score__min__energy>  (7) 
-8.4499999999999993

>  <m_primary>  (7) 
energy

>  <rmsd>  (7) 
5.194631997174798

>  <m_score__min__rmsd>  (7) 
5.194631997174798

>  <meeko>  (7) 
{"free_energy": -7.91, "intermolecular_energy": -10.0, "internal_energy": -1.69, "cluster_size": 31, "cluster_id": 2, "rank_in_cluster": 19}

>  <energy>  (7) 
-8.19

>  <cluster_rmsd>  (7) 
1.04

>  <cluster>  (7) 
1

$$$$

     RDKit          3D

 49 51  0  0  0  0  0  0  0  0999 V2000
  140.8330   78.5310  220.2550 C   0  0  0  0  0  0  0  0  0  0  0  0
  141.1420   78.2410  221.6480 N   0  0  0  0  0  0  0  0  0  0  0  0
  141.0610   76.8520  222.1100 C   0  0  0  0  0  0  0  0  0  0  0  0
  139.5980   76.4730  222.2060 C   0  0  0  0  0  0  0  0  0  0  0  0
  139.4410   75.0410  222.0480 N   0  0  0  0  0  0  0  0  0  0  0  0
  138.2700   74.4180  221.5610 C   0  0  0  0  0  0  0  0  0  0  0  0
  137.3090   75.1980  221.2530 O   0  0  0  0  0  0  0  0  0  0  0  0
  138.0520   72.9880  221.3770 C   0  0  0  0  0  0  0  0  0  0  0  0
  138.2620   72.1620  222.5390 N   0  0  0  0  0  0  0  0  0  0  0  0
  139.6080   72.0970  223.0390 C   0  0  0  0  0  0  0  0  0  0  0  0
  140.4580   72.7700  222.4040 O   0  0  0  0  0  0  0  0  0  0  0  0
  139.9550   71.3000  224.2050 C   0  0  0  0  0  0  0  0  0  0  0  0
  140.8240   71.8620  225.1260 C   0  0  0  0  0  0  0  0  0  0  0  0
  141.2190   71.1910  226.2650 C   0  0  0  0  0  0  0  0  0  0  0  0
  140.7140   69.9180  226.4640 C   0  0  0  0  0  0  0  0  0  0  0  0
  141.0720   69.1910  227.5900 C   0  0  0  0  0  0  0  0  0  0  0  0
  140.6020   67.9330  227.8340 C   0  0  0  0  0  0  0  0  0  0  0  0
  139.7280   67.3890  226.8900 C   0  0  0  0  0  0  0  0  0  0  0  0
  139.3590   68.0900  225.7670 C   0  0  0  0  0  0  0  0  0  0  0  0
  139.8490   69.3610  225.5440 C   0  0  0  0  0  0  0  0  0  0  0  0
  139.4830   70.0600  224.4290 N   0  0  0  0  0  0  0  0  0  0  0  0
  141.5000   79.3160  222.4770 C   0  0  0  0  0  0  0  0  0  0  0  0
  142.8550   79.4970  222.7420 C   0  0  0  0  0  0  0  0  0  0  0  0
  143.2720   80.5500  223.5630 C   0  0  0  0  0  0  0  0  0  0  0  0
  142.3770   81.4220  224.1260 C   0  0  0  0  0  0  0  0  0  0  0  0
  141.0330   81.2510  223.8700 C   0  0  0  0  0  0  0  0  0  0  0  0
  140.6390   80.2050  223.0560 C   0  0  0  0  0  0  0  0  0  0  0  0
  140.0317   79.2830  220.2061 H   0  0  0  0  0  0  0  0  0  0  0  0
  141.7315   78.9194  219.7533 H   0  0  0  0  0  0  0  0  0  0  0  0
  140.5023   77.6096  219.7533 H   0  0  0  0  0  0  0  0  0  0  0  0
  141.5714   76.1906  221.3944 H   0  0  0  0  0  0  0  0  0  0  0  0
  141.5470   76.7477  223.0913 H   0  0  0  0  0  0  0  0  0  0  0  0
  139.2081   76.7751  223.1892 H   0  0  0  0  0  0  0  0  0  0  0  0
  139.0411   76.9856  221.4078 H   0  0  0  0  0  0  0  0  0  0  0  0
  140.2380   74.4230  222.3070 H   0  0  0  0  0  0  0  0  0  0  0  0
  137.0125   72.8459  221.0465 H   0  0  0  0  0  0  0  0  0  0  0  0
  138.8057   72.6652  220.6437 H   0  0  0  0  0  0  0  0  0  0  0  0
  137.5360   71.6160  223.0390 H   0  0  0  0  0  0  0  0  0  0  0  0
  141.2113   72.8752  224.9434 H   0  0  0  0  0  0  0  0  0  0  0  0
  141.9093   71.6506  226.9877 H   0  0  0  0  0  0  0  0  0  0  0  0
  141.7623   69.6466  228.3152 H   0  0  0  0  0  0  0  0  0  0  0  0
  140.8981   67.3730  228.7333 H   0  0  0  0  0  0  0  0  0  0  0  0
  139.3263   66.3774  227.0489 H   0  0  0  0  0  0  0  0  0  0  0  0
  138.6687   67.6353  225.0412 H   0  0  0  0  0  0  0  0  0  0  0  0
  143.5972   78.8122  222.3059 H   0  0  0  0  0  0  0  0  0  0  0  0
  144.3459   80.6816  223.7619 H   0  0  0  0  0  0  0  0  0  0  0  0
  142.7245   82.2431  224.7702 H   0  0  0  0  0  0  0  0  0  0  0  0
  140.2883   81.9338  224.3051 H   0  0  0  0  0  0  0  0  0  0  0  0
  139.5634   80.0806  222.8621 H   0  0  0  0  0  0  0  0  0  0  0  0
  1  2  1  0
  2  3  1  0
  3  4  1  0
  4  5  1  0
  5  6  1  0
  6  7  2  0
  6  8  1  0
  8  9  1  0
  9 10  1  0
 10 11  2  0
 10 12  1  0
 12 13  2  0
 13 14  1  0
 14 15  2  0
 15 16  1  0
 16 17  2  0
 17 18  1  0
 18 19  2  0
 19 20  1  0
 20 21  2  0
  2 22  1  0
 22 23  2  0
 23 24  1  0
 24 25  2  0
 25 26  1  0
 26 27  2  0
 21 12  1  0
 27 22  1  0
 20 15  1  0
  1 28  1  0
  1 29  1  0
  1 30  1  0
  3 31  1  0
  3 32  1  0
  4 33  1  0
  4 34  1  0
  5 35  1  0
  8 36  1  0
  8 37  1  0
  9 38  1  0
 13 39  1  0
 14 40  1  0
 16 41  1  0
 17 42  1  0
 18 43  1  0
 19 44  1  0
 23 45  1  0
 24 46  1  0
 25 47  1  0
 26 48  1  0
 27 49  1  0
M  END
>  <smiles>  (8) 
CN(CCNC(=O)CNC(=O)c1ccc2ccccc2n1)c1ccccc1

>  <score_type>  (8) 
oracle

>  <origin>  (8) 
autodockgpu

>  <m_score__min__energy>  (8) 
-8.4499999999999993

>  <m_primary>  (8) 
energy

>  <rmsd>  (8) 
4.59753230279639

>  <m_score__min__rmsd>  (8) 
4.59753230279639

>  <meeko>  (8) 
{"free_energy": -7.76, "intermolecular_energy": -9.84, "internal_energy": -1.61, "cluster_size": 31, "cluster_id": 2, "rank_in_cluster": 28}

>  <energy>  (8) 
-8.17

>  <cluster_rmsd>  (8) 
1.0

>  <cluster>  (8) 
1

$$$$

     RDKit          3D

 49 51  0  0  0  0  0  0  0  0999 V2000
  139.5230   78.3920  220.2040 C   0  0  0  0  0  0  0  0  0  0  0  0
  140.9620   78.4250  220.4140 N   0  0  0  0  0  0  0  0  0  0  0  0
  141.8360   77.8850  219.3670 C   0  0  0  0  0  0  0  0  0  0  0  0
  142.2770   76.5000  219.7910 C   0  0  0  0  0  0  0  0  0  0  0  0
  141.1490   75.5910  219.7780 N   0  0  0  0  0  0  0  0  0  0  0  0
  140.6340   74.9460  220.9250 C   0  0  0  0  0  0  0  0  0  0  0  0
  141.2270   75.2010  222.0240 O   0  0  0  0  0  0  0  0  0  0  0  0
  139.5040   74.0260  220.9770 C   0  0  0  0  0  0  0  0  0  0  0  0
  139.3150   73.3260  222.2230 N   0  0  0  0  0  0  0  0  0  0  0  0
  140.2320   72.2540  222.4960 C   0  0  0  0  0  0  0  0  0  0  0  0
  141.1010   72.0410  221.6140 O   0  0  0  0  0  0  0  0  0  0  0  0
  140.1510   71.4690  223.7180 C   0  0  0  0  0  0  0  0  0  0  0  0
  139.5150   70.2400  223.6450 C   0  0  0  0  0  0  0  0  0  0  0  0
  139.3820   69.4170  224.7450 C   0  0  0  0  0  0  0  0  0  0  0  0
  139.9120   69.8630  225.9440 C   0  0  0  0  0  0  0  0  0  0  0  0
  139.8120   69.0830  227.0870 C   0  0  0  0  0  0  0  0  0  0  0  0
  140.3180   69.4740  228.2920 C   0  0  0  0  0  0  0  0  0  0  0  0
  140.9540   70.7170  228.3380 C   0  0  0  0  0  0  0  0  0  0  0  0
  141.0650   71.5080  227.2200 C   0  0  0  0  0  0  0  0  0  0  0  0
  140.5450   71.0870  226.0130 C   0  0  0  0  0  0  0  0  0  0  0  0
  140.6550   71.8710  224.8990 N   0  0  0  0  0  0  0  0  0  0  0  0
  141.4370   78.9740  221.6150 C   0  0  0  0  0  0  0  0  0  0  0  0
  142.0870   80.2040  221.5450 C   0  0  0  0  0  0  0  0  0  0  0  0
  142.5830   80.7990  222.7110 C   0  0  0  0  0  0  0  0  0  0  0  0
  142.4500   80.2020  223.9370 C   0  0  0  0  0  0  0  0  0  0  0  0
  141.8090   78.9840  224.0160 C   0  0  0  0  0  0  0  0  0  0  0  0
  141.3240   78.4110  222.8550 C   0  0  0  0  0  0  0  0  0  0  0  0
  139.0106   78.3802  221.1773 H   0  0  0  0  0  0  0  0  0  0  0  0
  139.2145   79.2833  219.6379 H   0  0  0  0  0  0  0  0  0  0  0  0
  139.2557   77.4875  219.6379 H   0  0  0  0  0  0  0  0  0  0  0  0
  141.2864   77.8265  218.4159 H   0  0  0  0  0  0  0  0  0  0  0  0
  142.7106   78.5372  219.2265 H   0  0  0  0  0  0  0  0  0  0  0  0
  143.0464   76.1345  219.0950 H   0  0  0  0  0  0  0  0  0  0  0  0
  142.6867   76.5497  220.8106 H   0  0  0  0  0  0  0  0  0  0  0  0
  140.6800   75.3950  218.8690 H   0  0  0  0  0  0  0  0  0  0  0  0
  138.5902   74.6037  220.7737 H   0  0  0  0  0  0  0  0  0  0  0  0
  139.7207   73.2481  220.2301 H   0  0  0  0  0  0  0  0  0  0  0  0
  138.5840   73.5270  222.9300 H   0  0  0  0  0  0  0  0  0  0  0  0
  139.1031   69.9099  222.6799 H   0  0  0  0  0  0  0  0  0  0  0  0
  138.8743   68.4439  224.6720 H   0  0  0  0  0  0  0  0  0  0  0  0
  139.3040   68.1097  227.0188 H   0  0  0  0  0  0  0  0  0  0  0  0
  140.2293   68.8397  229.1863 H   0  0  0  0  0  0  0  0  0  0  0  0
  141.3754   71.0704  229.2906 H   0  0  0  0  0  0  0  0  0  0  0  0
  141.5712   72.4823  227.2874 H   0  0  0  0  0  0  0  0  0  0  0  0
  142.2104   80.7072  220.5746 H   0  0  0  0  0  0  0  0  0  0  0  0
  143.0928   81.7712  222.6411 H   0  0  0  0  0  0  0  0  0  0  0  0
  142.8473   80.6856  224.8416 H   0  0  0  0  0  0  0  0  0  0  0  0
  141.6857   78.4775  224.9847 H   0  0  0  0  0  0  0  0  0  0  0  0
  140.8144   77.4394  222.9346 H   0  0  0  0  0  0  0  0  0  0  0  0
  1  2  1  0
  2  3  1  0
  3  4  1  0
  4  5  1  0
  5  6  1  0
  6  7  2  0
  6  8  1  0
  8  9  1  0
  9 10  1  0
 10 11  2  0
 10 12  1  0
 12 13  2  0
 13 14  1  0
 14 15  2  0
 15 16  1  0
 16 17  2  0
 17 18  1  0
 18 19  2  0
 19 20  1  0
 20 21  2  0
  2 22  1  0
 22 23  2  0
 23 24  1  0
 24 25  2  0
 25 26  1  0
 26 27  2  0
 21 12  1  0
 27 22  1  0
 20 15  1  0
  1 28  1  0
  1 29  1  0
  1 30  1  0
  3 31  1  0
  3 32  1  0
  4 33  1  0
  4 34  1  0
  5 35  1  0
  8 36  1  0
  8 37  1  0
  9 38  1  0
 13 39  1  0
 14 40  1  0
 16 41  1  0
 17 42  1  0
 18 43  1  0
 19 44  1  0
 23 45  1  0
 24 46  1  0
 25 47  1  0
 26 48  1  0
 27 49  1  0
M  END
>  <smiles>  (9) 
CN(CCNC(=O)CNC(=O)c1ccc2ccccc2n1)c1ccccc1

>  <score_type>  (9) 
oracle

>  <origin>  (9) 
autodockgpu

>  <m_score__min__energy>  (9) 
-8.4499999999999993

>  <m_primary>  (9) 
energy

>  <rmsd>  (9) 
4.979014623944503

>  <m_score__min__rmsd>  (9) 
4.979014623944503

>  <meeko>  (9) 
{"free_energy": -8.42, "intermolecular_energy": -10.5, "internal_energy": -1.34, "cluster_size": 31, "cluster_id": 2, "rank_in_cluster": 1}

>  <energy>  (9) 
-8.13

>  <cluster_rmsd>  (9) 
0.97

>  <cluster>  (9) 
1

$$$$

     RDKit          3D

 49 51  0  0  0  0  0  0  0  0999 V2000
  140.3940   78.1820  220.4030 C   0  0  0  0  0  0  0  0  0  0  0  0
  140.8230   78.0210  221.7840 N   0  0  0  0  0  0  0  0  0  0  0  0
  140.7070   76.6980  222.4050 C   0  0  0  0  0  0  0  0  0  0  0  0
  139.2550   76.2730  222.3390 C   0  0  0  0  0  0  0  0  0  0  0  0
  139.1610   74.8320  222.2160 N   0  0  0  0  0  0  0  0  0  0  0  0
  138.8350   74.1560  221.0190 C   0  0  0  0  0  0  0  0  0  0  0  0
  138.6140   74.8930  220.0020 O   0  0  0  0  0  0  0  0  0  0  0  0
  138.7280   72.7140  220.8310 C   0  0  0  0  0  0  0  0  0  0  0  0
  138.7680   71.9150  222.0290 N   0  0  0  0  0  0  0  0  0  0  0  0
  139.9580   72.0240  222.8280 C   0  0  0  0  0  0  0  0  0  0  0  0
  140.8370   72.8080  222.3910 O   0  0  0  0  0  0  0  0  0  0  0  0
  140.1250   71.2720  224.0610 C   0  0  0  0  0  0  0  0  0  0  0  0
  140.8010   71.8920  225.1000 C   0  0  0  0  0  0  0  0  0  0  0  0
  141.0150   71.2670  226.3110 C   0  0  0  0  0  0  0  0  0  0  0  0
  140.5280   69.9800  226.4610 C   0  0  0  0  0  0  0  0  0  0  0  0
  140.7100   69.2970  227.6550 C   0  0  0  0  0  0  0  0  0  0  0  0
  140.2480   68.0280  227.8550 C   0  0  0  0  0  0  0  0  0  0  0  0
  139.5710   67.4260  226.7930 C   0  0  0  0  0  0  0  0  0  0  0  0
  139.3780   68.0820  225.6000 C   0  0  0  0  0  0  0  0  0  0  0  0
  139.8550   69.3650  225.4240 C   0  0  0  0  0  0  0  0  0  0  0  0
  139.6640   70.0210  224.2410 N   0  0  0  0  0  0  0  0  0  0  0  0
  141.3240   79.1500  222.4510 C   0  0  0  0  0  0  0  0  0  0  0  0
  140.5480   80.3050  222.4300 C   0  0  0  0  0  0  0  0  0  0  0  0
  140.9980   81.4620  223.0770 C   0  0  0  0  0  0  0  0  0  0  0  0
  142.1970   81.4960  223.7390 C   0  0  0  0  0  0  0  0  0  0  0  0
  142.9740   80.3570  223.7650 C   0  0  0  0  0  0  0  0  0  0  0  0
  142.5130   79.2240  223.1220 C   0  0  0  0  0  0  0  0  0  0  0  0
  139.3643   78.5684  220.3816 H   0  0  0  0  0  0  0  0  0  0  0  0
  141.0622   78.8905  219.8917 H   0  0  0  0  0  0  0  0  0  0  0  0
  140.4311   77.2088  219.8917 H   0  0  0  0  0  0  0  0  0  0  0  0
  141.3323   75.9747  221.8611 H   0  0  0  0  0  0  0  0  0  0  0  0
  141.0455   76.7369  223.4509 H   0  0  0  0  0  0  0  0  0  0  0  0
  138.7403   76.5938  223.2567 H   0  0  0  0  0  0  0  0  0  0  0  0
  138.7836   76.7399  221.4616 H   0  0  0  0  0  0  0  0  0  0  0  0
  139.3440   74.2490  223.0590 H   0  0  0  0  0  0  0  0  0  0  0  0
  137.7736   72.5110  220.3231 H   0  0  0  0  0  0  0  0  0  0  0  0
  139.6174   72.4242  220.2522 H   0  0  0  0  0  0  0  0  0  0  0  0
  138.0230   71.2750  222.3600 H   0  0  0  0  0  0  0  0  0  0  0  0
  141.1788   72.9148  224.9544 H   0  0  0  0  0  0  0  0  0  0  0  0
  141.5525   71.7724  227.1269 H   0  0  0  0  0  0  0  0  0  0  0  0
  141.2481   69.7981  228.4732 H   0  0  0  0  0  0  0  0  0  0  0  0
  140.4022   67.5037  228.8096 H   0  0  0  0  0  0  0  0  0  0  0  0
  139.1831   66.4037  226.9132 H   0  0  0  0  0  0  0  0  0  0  0  0
  138.8404   67.5813  224.7813 H   0  0  0  0  0  0  0  0  0  0  0  0
  139.5813   80.3088  221.9051 H   0  0  0  0  0  0  0  0  0  0  0  0
  140.3730   82.3669  223.0533 H   0  0  0  0  0  0  0  0  0  0  0  0
  142.5338   82.4152  224.2407 H   0  0  0  0  0  0  0  0  0  0  0  0
  143.9420   80.3505  224.2875 H   0  0  0  0  0  0  0  0  0  0  0  0
  143.1436   78.3232  223.1519 H   0  0  0  0  0  0  0  0  0  0  0  0
  1  2  1  0
  2  3  1  0
  3  4  1  0
  4  5  1  0
  5  6  1  0
  6  7  2  0
  6  8  1  0
  8  9  1  0
  9 10  1  0
 10 11  2  0
 10 12  1  0
 12 13  2  0
 13 14  1  0
 14 15  2  0
 15 16  1  0
 16 17  2  0
 17 18  1  0
 18 19  2  0
 19 20  1  0
 20 21  2  0
  2 22  1  0
 22 23  2  0
 23 24  1  0
 24 25  2  0
 25 26  1  0
 26 27  2  0
 21 12  1  0
 27 22  1  0
 20 15  1  0
  1 28  1  0
  1 29  1  0
  1 30  1  0
  3 31  1  0
  3 32  1  0
  4 33  1  0
  4 34  1  0
  5 35  1  0
  8 36  1  0
  8 37  1  0
  9 38  1  0
 13 39  1  0
 14 40  1  0
 16 41  1  0
 17 42  1  0
 18 43  1  0
 19 44  1  0
 23 45  1  0
 24 46  1  0
 25 47  1  0
 26 48  1  0
 27 49  1  0
M  END
>  <smiles>  (10) 
CN(CCNC(=O)CNC(=O)c1ccc2ccccc2n1)c1ccccc1

>  <score_type>  (10) 
oracle

>  <origin>  (10) 
autodockgpu

>  <m_score__min__energy>  (10) 
-8.4499999999999993

>  <m_primary>  (10) 
energy

>  <rmsd>  (10) 
4.458856506592221

>  <m_score__min__rmsd>  (10) 
4.458856506592221

>  <meeko>  (10) 
{"free_energy": -8.16, "intermolecular_energy": -10.25, "internal_energy": -1.67, "cluster_size": 31, "cluster_id": 2, "rank_in_cluster": 8}

>  <energy>  (10) 
-8.08

>  <cluster_rmsd>  (10) 
1.76

>  <cluster>  (10) 
1

$$$$

     RDKit          3D

 49 51  0  0  0  0  0  0  0  0999 V2000
  140.6790   71.5900  224.2370 C   0  0  0  0  0  0  0  0  0  0  0  0
  139.7460   70.5550  224.6570 N   0  0  0  0  0  0  0  0  0  0  0  0
  138.6270   70.2180  223.7690 C   0  0  0  0  0  0  0  0  0  0  0  0
  137.7250   71.4300  223.6680 C   0  0  0  0  0  0  0  0  0  0  0  0
  138.2720   72.3830  222.7240 N   0  0  0  0  0  0  0  0  0  0  0  0
  138.4520   72.1230  221.3470 C   0  0  0  0  0  0  0  0  0  0  0  0
  138.1030   70.9640  220.9460 O   0  0  0  0  0  0  0  0  0  0  0  0
  138.9920   73.0370  220.3470 C   0  0  0  0  0  0  0  0  0  0  0  0
  138.9610   74.4370  220.6880 N   0  0  0  0  0  0  0  0  0  0  0  0
  139.8130   74.8490  221.7690 C   0  0  0  0  0  0  0  0  0  0  0  0
  140.4950   73.9390  222.3030 O   0  0  0  0  0  0  0  0  0  0  0  0
  139.8760   76.2330  222.2120 C   0  0  0  0  0  0  0  0  0  0  0  0
  138.6750   76.8960  222.4040 C   0  0  0  0  0  0  0  0  0  0  0  0
  138.6210   78.2100  222.8210 C   0  0  0  0  0  0  0  0  0  0  0  0
  139.8240   78.8590  223.0450 C   0  0  0  0  0  0  0  0  0  0  0  0
  139.8390   80.1800  223.4660 C   0  0  0  0  0  0  0  0  0  0  0  0
  140.9950   80.8650  223.7030 C   0  0  0  0  0  0  0  0  0  0  0  0
  142.1920   80.1740  223.5010 C   0  0  0  0  0  0  0  0  0  0  0  0
  142.2030   78.8640  223.0850 C   0  0  0  0  0  0  0  0  0  0  0  0
  141.0190   78.1950  222.8530 C   0  0  0  0  0  0  0  0  0  0  0  0
  141.0260   76.8930  222.4390 N   0  0  0  0  0  0  0  0  0  0  0  0
  139.9670   69.9350  225.8960 C   0  0  0  0  0  0  0  0  0  0  0  0
  139.8170   68.5520  225.9570 C   0  0  0  0  0  0  0  0  0  0  0  0
  140.0240   67.8790  227.1660 C   0  0  0  0  0  0  0  0  0  0  0  0
  140.3730   68.5470  228.3110 C   0  0  0  0  0  0  0  0  0  0  0  0
  140.5230   69.9160  228.2610 C   0  0  0  0  0  0  0  0  0  0  0  0
  140.3160   70.5640  227.0580 C   0  0  0  0  0  0  0  0  0  0  0  0
  141.1145   72.0731  225.1242 H   0  0  0  0  0  0  0  0  0  0  0  0
  141.4810   71.1382  223.6347 H   0  0  0  0  0  0  0  0  0  0  0  0
  140.1468   72.3410  223.6347 H   0  0  0  0  0  0  0  0  0  0  0  0
  139.0089   69.9533  222.7719 H   0  0  0  0  0  0  0  0  0  0  0  0
  138.0681   69.3593  224.1694 H   0  0  0  0  0  0  0  0  0  0  0  0
  136.7278   71.1135  223.3284 H   0  0  0  0  0  0  0  0  0  0  0  0
  137.6512   71.9061  224.6569 H   0  0  0  0  0  0  0  0  0  0  0  0
  138.5510   73.3230  223.0720 H   0  0  0  0  0  0  0  0  0  0  0  0
  140.0406   72.7576  220.1672 H   0  0  0  0  0  0  0  0  0  0  0  0
  138.3407   72.9318  219.4668 H   0  0  0  0  0  0  0  0  0  0  0  0
  138.3830   75.1640  220.2270 H   0  0  0  0  0  0  0  0  0  0  0  0
  137.7340   76.3575  222.2180 H   0  0  0  0  0  0  0  0  0  0  0  0
  137.6593   78.7227  222.9699 H   0  0  0  0  0  0  0  0  0  0  0  0
  138.8796   80.6970  223.6151 H   0  0  0  0  0  0  0  0  0  0  0  0
  140.9848   81.9128  224.0376 H   0  0  0  0  0  0  0  0  0  0  0  0
  143.1472   80.6897  223.6788 H   0  0  0  0  0  0  0  0  0  0  0  0
  143.1618   78.3458  222.9362 H   0  0  0  0  0  0  0  0  0  0  0  0
  139.5358   67.9888  225.0549 H   0  0  0  0  0  0  0  0  0  0  0  0
  139.9036   66.7861  227.1986 H   0  0  0  0  0  0  0  0  0  0  0  0
  140.5304   68.0003  229.2525 H   0  0  0  0  0  0  0  0  0  0  0  0
  140.8022   70.4823  229.1617 H   0  0  0  0  0  0  0  0  0  0  0  0
  140.4402   71.6567  227.0342 H   0  0  0  0  0  0  0  0  0  0  0  0
  1  2  1  0
  2  3  1  0
  3  4  1  0
  4  5  1  0
  5  6  1  0
  6  7  2  0
  6  8  1  0
  8  9  1  0
  9 10  1  0
 10 11  2  0
 10 12  1  0
 12 13  2  0
 13 14  1  0
 14 15  2  0
 15 16  1  0
 16 17  2  0
 17 18  1  0
 18 19  2  0
 19 20  1  0
 20 21  2  0
  2 22  1  0
 22 23  2  0
 23 24  1  0
 24 25  2  0
 25 26  1  0
 26 27  2  0
 21 12  1  0
 27 22  1  0
 20 15  1  0
  1 28  1  0
  1 29  1  0
  1 30  1  0
  3 31  1  0
  3 32  1  0
  4 33  1  0
  4 34  1  0
  5 35  1  0
  8 36  1  0
  8 37  1  0
  9 38  1  0
 13 39  1  0
 14 40  1  0
 16 41  1  0
 17 42  1  0
 18 43  1  0
 19 44  1  0
 23 45  1  0
 24 46  1  0
 25 47  1  0
 26 48  1  0
 27 49  1  0
M  END
>  <smiles>  (11) 
CN(CCNC(=O)CNC(=O)c1ccc2ccccc2n1)c1ccccc1

>  <score_type>  (11) 
oracle

>  <origin>  (11) 
autodockgpu

>  <m_score__min__energy>  (11) 
-8.4499999999999993

>  <m_primary>  (11) 
energy

>  <rmsd>  (11) 
8.82263684799231

>  <m_score__min__rmsd>  (11) 
8.82263684799231

>  <meeko>  (11) 
{"free_energy": -7.99, "intermolecular_energy": -10.08, "internal_energy": -1.73, "cluster_size": 18, "cluster_id": 1, "rank_in_cluster": 13}

>  <energy>  (11) 
-8.07

>  <cluster_rmsd>  (11) 
1.76

>  <cluster>  (11) 
1

$$$$

     RDKit          3D

 49 51  0  0  0  0  0  0  0  0999 V2000
  138.0970   79.4650  223.3660 C   0  0  0  0  0  0  0  0  0  0  0  0
  139.2490   78.8310  222.7420 N   0  0  0  0  0  0  0  0  0  0  0  0
  139.0300   77.6450  221.9080 C   0  0  0  0  0  0  0  0  0  0  0  0
  138.2590   76.6300  222.7270 C   0  0  0  0  0  0  0  0  0  0  0  0
  138.7000   75.2880  222.4050 N   0  0  0  0  0  0  0  0  0  0  0  0
  138.2970   74.5740  221.2540 C   0  0  0  0  0  0  0  0  0  0  0  0
  137.4900   75.1790  220.4740 O   0  0  0  0  0  0  0  0  0  0  0  0
  138.7060   73.2270  220.8730 C   0  0  0  0  0  0  0  0  0  0  0  0
  138.6670   72.2340  221.9180 N   0  0  0  0  0  0  0  0  0  0  0  0
  139.7620   72.2460  222.8490 C   0  0  0  0  0  0  0  0  0  0  0  0
  140.6390   73.1240  222.6480 O   0  0  0  0  0  0  0  0  0  0  0  0
  139.8430   71.2980  223.9490 C   0  0  0  0  0  0  0  0  0  0  0  0
  139.2980   70.0400  223.7480 C   0  0  0  0  0  0  0  0  0  0  0  0
  139.3200   69.0670  224.7260 C   0  0  0  0  0  0  0  0  0  0  0  0
  139.9120   69.3910  225.9360 C   0  0  0  0  0  0  0  0  0  0  0  0
  139.9670   68.4570  226.9600 C   0  0  0  0  0  0  0  0  0  0  0  0
  140.5390   68.7240  228.1690 C   0  0  0  0  0  0  0  0  0  0  0  0
  141.0800   69.9990  228.3470 C   0  0  0  0  0  0  0  0  0  0  0  0
  141.0380   70.9410  227.3470 C   0  0  0  0  0  0  0  0  0  0  0  0
  140.4530   70.6450  226.1320 C   0  0  0  0  0  0  0  0  0  0  0  0
  140.4100   71.5790  225.1360 N   0  0  0  0  0  0  0  0  0  0  0  0
  140.5140   79.3920  222.9760 C   0  0  0  0  0  0  0  0  0  0  0  0
  140.5580   80.6430  223.5860 C   0  0  0  0  0  0  0  0  0  0  0  0
  141.7920   81.2520  223.8430 C   0  0  0  0  0  0  0  0  0  0  0  0
  142.9760   80.6490  223.5080 C   0  0  0  0  0  0  0  0  0  0  0  0
  142.9430   79.4100  222.9040 C   0  0  0  0  0  0  0  0  0  0  0  0
  141.7150   78.8230  222.6580 C   0  0  0  0  0  0  0  0  0  0  0  0
  138.1963   79.4103  224.4601 H   0  0  0  0  0  0  0  0  0  0  0  0
  138.0451   80.5188  223.0547 H   0  0  0  0  0  0  0  0  0  0  0  0
  137.1790   78.9450  223.0547 H   0  0  0  0  0  0  0  0  0  0  0  0
  138.4513   77.9196  221.0137 H   0  0  0  0  0  0  0  0  0  0  0  0
  139.9931   77.2224  221.5857 H   0  0  0  0  0  0  0  0  0  0  0  0
  138.4293   76.8215  223.7967 H   0  0  0  0  0  0  0  0  0  0  0  0
  137.1876   76.7210  222.4950 H   0  0  0  0  0  0  0  0  0  0  0  0
  139.3580   74.8120  223.0560 H   0  0  0  0  0  0  0  0  0  0  0  0
  138.0414   72.8900  220.0638 H   0  0  0  0  0  0  0  0  0  0  0  0
  139.7637   73.3098  220.5826 H   0  0  0  0  0  0  0  0  0  0  0  0
  137.9270   71.5220  222.0540 H   0  0  0  0  0  0  0  0  0  0  0  0
  138.8331   69.8098  222.7780 H   0  0  0  0  0  0  0  0  0  0  0  0
  138.8842   68.0722  224.5517 H   0  0  0  0  0  0  0  0  0  0  0  0
  139.5319   67.4611  226.7902 H   0  0  0  0  0  0  0  0  0  0  0  0
  140.5727   67.9688  228.9681 H   0  0  0  0  0  0  0  0  0  0  0  0
  141.5498   70.2549  229.3081 H   0  0  0  0  0  0  0  0  0  0  0  0
  141.4732   71.9370  227.5158 H   0  0  0  0  0  0  0  0  0  0  0  0
  139.6239   81.1522  223.8657 H   0  0  0  0  0  0  0  0  0  0  0  0
  141.8117   82.2400  224.3263 H   0  0  0  0  0  0  0  0  0  0  0  0
  143.9355   81.1445  223.7172 H   0  0  0  0  0  0  0  0  0  0  0  0
  143.8753   78.8982  222.6232 H   0  0  0  0  0  0  0  0  0  0  0  0
  141.7045   77.8346  222.1754 H   0  0  0  0  0  0  0  0  0  0  0  0
  1  2  1  0
  2  3  1  0
  3  4  1  0
  4  5  1  0
  5  6  1  0
  6  7  2  0
  6  8  1  0
  8  9  1  0
  9 10  1  0
 10 11  2  0
 10 12  1  0
 12 13  2  0
 13 14  1  0
 14 15  2  0
 15 16  1  0
 16 17  2  0
 17 18  1  0
 18 19  2  0
 19 20  1  0
 20 21  2  0
  2 22  1  0
 22 23  2  0
 23 24  1  0
 24 25  2  0
 25 26  1  0
 26 27  2  0
 21 12  1  0
 27 22  1  0
 20 15  1  0
  1 28  1  0
  1 29  1  0
  1 30  1  0
  3 31  1  0
  3 32  1  0
  4 33  1  0
  4 34  1  0
  5 35  1  0
  8 36  1  0
  8 37  1  0
  9 38  1  0
 13 39  1  0
 14 40  1  0
 16 41  1  0
 17 42  1  0
 18 43  1  0
 19 44  1  0
 23 45  1  0
 24 46  1  0
 25 47  1  0
 26 48  1  0
 27 49  1  0
M  END
>  <smiles>  (12) 
CN(CCNC(=O)CNC(=O)c1ccc2ccccc2n1)c1ccccc1

>  <score_type>  (12) 
oracle

>  <origin>  (12) 
autodockgpu

>  <m_score__min__energy>  (12) 
-8.4499999999999993

>  <m_primary>  (12) 
energy

>  <rmsd>  (12) 
4.949903229017583

>  <m_score__min__rmsd>  (12) 
4.949903229017583

>  <meeko>  (12) 
{"free_energy": -8.37, "intermolecular_energy": -10.46, "internal_energy": -1.63, "cluster_size": 31, "cluster_id": 2, "rank_in_cluster": 2}

>  <energy>  (12) 
-8.06

>  <cluster_rmsd>  (12) 
0.68

>  <cluster>  (12) 
1

$$$$

     RDKit          3D

 49 51  0  0  0  0  0  0  0  0999 V2000
  141.4620   78.0300  219.9660 C   0  0  0  0  0  0  0  0  0  0  0  0
  140.7080   78.3330  221.1730 N   0  0  0  0  0  0  0  0  0  0  0  0
  139.5060   77.5460  221.4660 C   0  0  0  0  0  0  0  0  0  0  0  0
  139.7950   76.6760  222.6710 C   0  0  0  0  0  0  0  0  0  0  0  0
  139.7130   75.2760  222.3090 N   0  0  0  0  0  0  0  0  0  0  0  0
  140.6360   74.6170  221.4660 C   0  0  0  0  0  0  0  0  0  0  0  0
  141.5880   75.3340  221.0120 O   0  0  0  0  0  0  0  0  0  0  0  0
  140.6110   73.2150  221.0670 C   0  0  0  0  0  0  0  0  0  0  0  0
  140.8270   72.2540  222.1190 N   0  0  0  0  0  0  0  0  0  0  0  0
  139.6940   71.9550  222.9520 C   0  0  0  0  0  0  0  0  0  0  0  0
  138.6340   72.5690  222.6710 O   0  0  0  0  0  0  0  0  0  0  0  0
  139.7780   71.0030  224.0480 C   0  0  0  0  0  0  0  0  0  0  0  0
  139.1830   69.7650  223.8640 C   0  0  0  0  0  0  0  0  0  0  0  0
  139.2030   68.7900  224.8410 C   0  0  0  0  0  0  0  0  0  0  0  0
  139.8460   69.0900  226.0300 C   0  0  0  0  0  0  0  0  0  0  0  0
  139.9020   68.1530  227.0510 C   0  0  0  0  0  0  0  0  0  0  0  0
  140.5250   68.3970  228.2400 C   0  0  0  0  0  0  0  0  0  0  0  0
  141.1160   69.6520  228.4000 C   0  0  0  0  0  0  0  0  0  0  0  0
  141.0740   70.5970  227.4030 C   0  0  0  0  0  0  0  0  0  0  0  0
  140.4380   70.3240  226.2090 C   0  0  0  0  0  0  0  0  0  0  0  0
  140.3950   71.2610  225.2150 N   0  0  0  0  0  0  0  0  0  0  0  0
  141.1760   79.3700  221.9970 C   0  0  0  0  0  0  0  0  0  0  0  0
  142.0530   79.0280  223.0220 C   0  0  0  0  0  0  0  0  0  0  0  0
  142.5510   80.0200  223.8750 C   0  0  0  0  0  0  0  0  0  0  0  0
  142.1970   81.3350  223.7330 C   0  0  0  0  0  0  0  0  0  0  0  0
  141.3280   81.6840  222.7200 C   0  0  0  0  0  0  0  0  0  0  0  0
  140.8470   80.6910  221.8870 C   0  0  0  0  0  0  0  0  0  0  0  0
  142.4503   77.6329  220.2410 H   0  0  0  0  0  0  0  0  0  0  0  0
  140.9180   77.2807  219.3722 H   0  0  0  0  0  0  0  0  0  0  0  0
  141.5878   78.9474  219.3722 H   0  0  0  0  0  0  0  0  0  0  0  0
  138.6641   78.2191  221.6855 H   0  0  0  0  0  0  0  0  0  0  0  0
  139.2392   76.9216  220.6006 H   0  0  0  0  0  0  0  0  0  0  0  0
  140.8062   76.8962  223.0439 H   0  0  0  0  0  0  0  0  0  0  0  0
  139.0515   76.8884  223.4533 H   0  0  0  0  0  0  0  0  0  0  0  0
  138.9270   74.7090  222.6900 H   0  0  0  0  0  0  0  0  0  0  0  0
  139.6267   73.0098  220.6208 H   0  0  0  0  0  0  0  0  0  0  0  0
  141.4553   73.0894  220.3732 H   0  0  0  0  0  0  0  0  0  0  0  0
  141.7180   71.7660  222.3250 H   0  0  0  0  0  0  0  0  0  0  0  0
  138.6790   69.5526  222.9096 H   0  0  0  0  0  0  0  0  0  0  0  0
  138.7262   67.8117  224.6810 H   0  0  0  0  0  0  0  0  0  0  0  0
  139.4250   67.1740  226.8959 H   0  0  0  0  0  0  0  0  0  0  0  0
  140.5601   67.6393  229.0367 H   0  0  0  0  0  0  0  0  0  0  0  0
  141.6265   69.8895  229.3450 H   0  0  0  0  0  0  0  0  0  0  0  0
  141.5500   71.5765  227.5576 H   0  0  0  0  0  0  0  0  0  0  0  0
  142.3545   77.9794  223.1618 H   0  0  0  0  0  0  0  0  0  0  0  0
  143.2446   79.7357  224.6801 H   0  0  0  0  0  0  0  0  0  0  0  0
  142.5984   82.0995  224.4145 H   0  0  0  0  0  0  0  0  0  0  0  0
  141.0239   82.7315  222.5779 H   0  0  0  0  0  0  0  0  0  0  0  0
  140.1547   80.9837  221.0838 H   0  0  0  0  0  0  0  0  0  0  0  0
  1  2  1  0
  2  3  1  0
  3  4  1  0
  4  5  1  0
  5  6  1  0
  6  7  2  0
  6  8  1  0
  8  9  1  0
  9 10  1  0
 10 11  2  0
 10 12  1  0
 12 13  2  0
 13 14  1  0
 14 15  2  0
 15 16  1  0
 16 17  2  0
 17 18  1  0
 18 19  2  0
 19 20  1  0
 20 21  2  0
  2 22  1  0
 22 23  2  0
 23 24  1  0
 24 25  2  0
 25 26  1  0
 26 27  2  0
 21 12  1  0
 27 22  1  0
 20 15  1  0
  1 28  1  0
  1 29  1  0
  1 30  1  0
  3 31  1  0
  3 32  1  0
  4 33  1  0
  4 34  1  0
  5 35  1  0
  8 36  1  0
  8 37  1  0
  9 38  1  0
 13 39  1  0
 14 40  1  0
 16 41  1  0
 17 42  1  0
 18 43  1  0
 19 44  1  0
 23 45  1  0
 24 46  1  0
 25 47  1  0
 26 48  1  0
 27 49  1  0
M  END
>  <smiles>  (13) 
CN(CCNC(=O)CNC(=O)c1ccc2ccccc2n1)c1ccccc1

>  <score_type>  (13) 
oracle

>  <origin>  (13) 
autodockgpu

>  <m_score__min__energy>  (13) 
-8.4499999999999993

>  <m_primary>  (13) 
energy

>  <rmsd>  (13) 
4.713022433120003

>  <m_score__min__rmsd>  (13) 
4.713022433120003

>  <meeko>  (13) 
{"free_energy": -7.86, "intermolecular_energy": -9.95, "internal_energy": -1.75, "cluster_size": 31, "cluster_id": 2, "rank_in_cluster": 22}

>  <energy>  (13) 
-7.99

>  <cluster_rmsd>  (13) 
1.52

>  <cluster>  (13) 
1

$$$$

     RDKit          3D

 49 51  0  0  0  0  0  0  0  0999 V2000
  141.0870   75.9320  221.3380 C   0  0  0  0  0  0  0  0  0  0  0  0
  140.3660   77.1550  221.6560 N   0  0  0  0  0  0  0  0  0  0  0  0
  138.9200   77.1990  221.4170 C   0  0  0  0  0  0  0  0  0  0  0  0
  138.2390   76.3890  222.5010 C   0  0  0  0  0  0  0  0  0  0  0  0
  138.4850   74.9760  222.2990 N   0  0  0  0  0  0  0  0  0  0  0  0
  137.9060   74.2080  221.2640 C   0  0  0  0  0  0  0  0  0  0  0  0
  137.1180   74.8320  220.4780 O   0  0  0  0  0  0  0  0  0  0  0  0
  138.1150   72.7880  221.0060 C   0  0  0  0  0  0  0  0  0  0  0  0
  138.3040   71.9560  222.1670 N   0  0  0  0  0  0  0  0  0  0  0  0
  139.5600   72.0940  222.8520 C   0  0  0  0  0  0  0  0  0  0  0  0
  140.3600   72.9280  222.3600 O   0  0  0  0  0  0  0  0  0  0  0  0
  139.8770   71.3130  224.0370 C   0  0  0  0  0  0  0  0  0  0  0  0
  140.7250   71.8860  224.9710 C   0  0  0  0  0  0  0  0  0  0  0  0
  141.0900   71.2310  226.1290 C   0  0  0  0  0  0  0  0  0  0  0  0
  140.5770   69.9620  226.3340 C   0  0  0  0  0  0  0  0  0  0  0  0
  140.9050   69.2500  227.4790 C   0  0  0  0  0  0  0  0  0  0  0  0
  140.4250   67.9980  227.7300 C   0  0  0  0  0  0  0  0  0  0  0  0
  139.5730   67.4420  226.7730 C   0  0  0  0  0  0  0  0  0  0  0  0
  139.2330   68.1280  225.6310 C   0  0  0  0  0  0  0  0  0  0  0  0
  139.7320   69.3940  225.4020 C   0  0  0  0  0  0  0  0  0  0  0  0
  139.3960   70.0780  224.2680 N   0  0  0  0  0  0  0  0  0  0  0  0
  141.0990   78.2330  222.1770 C   0  0  0  0  0  0  0  0  0  0  0  0
  141.4940   79.2290  221.2870 C   0  0  0  0  0  0  0  0  0  0  0  0
  142.2280   80.3270  221.7490 C   0  0  0  0  0  0  0  0  0  0  0  0
  142.5790   80.4560  223.0680 C   0  0  0  0  0  0  0  0  0  0  0  0
  142.1930   79.4750  223.9560 C   0  0  0  0  0  0  0  0  0  0  0  0
  141.4670   78.3970  223.4830 C   0  0  0  0  0  0  0  0  0  0  0  0
  141.3838   75.4285  222.2699 H   0  0  0  0  0  0  0  0  0  0  0  0
  140.4375   75.2653  220.7518 H   0  0  0  0  0  0  0  0  0  0  0  0
  141.9849   76.1775  220.7518 H   0  0  0  0  0  0  0  0  0  0  0  0
  138.5677   78.2404  221.4528 H   0  0  0  0  0  0  0  0  0  0  0  0
  138.6847   76.7835  220.4261 H   0  0  0  0  0  0  0  0  0  0  0  0
  138.6347   76.6900  223.4822 H   0  0  0  0  0  0  0  0  0  0  0  0
  137.1554   76.5740  222.4601 H   0  0  0  0  0  0  0  0  0  0  0  0
  139.1310   74.4860  222.9520 H   0  0  0  0  0  0  0  0  0  0  0  0
  137.2360   72.4119  220.4620 H   0  0  0  0  0  0  0  0  0  0  0  0
  139.0560   72.7249  220.4397 H   0  0  0  0  0  0  0  0  0  0  0  0
  137.6210   71.2740  222.5460 H   0  0  0  0  0  0  0  0  0  0  0  0
  141.1198   72.8954  224.7832 H   0  0  0  0  0  0  0  0  0  0  0  0
  141.7634   71.6996  226.8618 H   0  0  0  0  0  0  0  0  0  0  0  0
  141.5793   69.7139  228.2139 H   0  0  0  0  0  0  0  0  0  0  0  0
  140.6967   67.4510  228.6448 H   0  0  0  0  0  0  0  0  0  0  0  0
  139.1652   66.4335  226.9365 H   0  0  0  0  0  0  0  0  0  0  0  0
  138.5590   67.6648  224.8953 H   0  0  0  0  0  0  0  0  0  0  0  0
  141.2292   79.1524  220.2221 H   0  0  0  0  0  0  0  0  0  0  0  0
  142.5313   81.1071  221.0352 H   0  0  0  0  0  0  0  0  0  0  0  0
  143.1578   81.3261  223.4112 H   0  0  0  0  0  0  0  0  0  0  0  0
  142.4575   79.5481  225.0212 H   0  0  0  0  0  0  0  0  0  0  0  0
  141.1666   77.6223  224.2038 H   0  0  0  0  0  0  0  0  0  0  0  0
  1  2  1  0
  2  3  1  0
  3  4  1  0
  4  5  1  0
  5  6  1  0
  6  7  2  0
  6  8  1  0
  8  9  1  0
  9 10  1  0
 10 11  2  0
 10 12  1  0
 12 13  2  0
 13 14  1  0
 14 15  2  0
 15 16  1  0
 16 17  2  0
 17 18  1  0
 18 19  2  0
 19 20  1  0
 20 21  2  0
  2 22  1  0
 22 23  2  0
 23 24  1  0
 24 25  2  0
 25 26  1  0
 26 27  2  0
 21 12  1  0
 27 22  1  0
 20 15  1  0
  1 28  1  0
  1 29  1  0
  1 30  1  0
  3 31  1  0
  3 32  1  0
  4 33  1  0
  4 34  1  0
  5 35  1  0
  8 36  1  0
  8 37  1  0
  9 38  1  0
 13 39  1  0
 14 40  1  0
 16 41  1  0
 17 42  1  0
 18 43  1  0
 19 44  1  0
 23 45  1  0
 24 46  1  0
 25 47  1  0
 26 48  1  0
 27 49  1  0
M  END
>  <smiles>  (14) 
CN(CCNC(=O)CNC(=O)c1ccc2ccccc2n1)c1ccccc1

>  <score_type>  (14) 
oracle

>  <origin>  (14) 
autodockgpu

>  <m_score__min__energy>  (14) 
-8.4499999999999993

>  <m_primary>  (14) 
energy

>  <rmsd>  (14) 
4.23727702953345

>  <m_score__min__rmsd>  (14) 
4.23727702953345

>  <meeko>  (14) 
{"free_energy": -8.14, "intermolecular_energy": -10.23, "internal_energy": -1.95, "cluster_size": 31, "cluster_id": 2, "rank_in_cluster": 10}

>  <energy>  (14) 
-7.99

>  <cluster_rmsd>  (14) 
1.21

>  <cluster>  (14) 
1

$$$$

     RDKit          3D

 49 51  0  0  0  0  0  0  0  0999 V2000
  140.9070   77.8200  219.9510 C   0  0  0  0  0  0  0  0  0  0  0  0
  141.1720   77.6760  221.3750 N   0  0  0  0  0  0  0  0  0  0  0  0
  141.0550   76.3450  221.9790 C   0  0  0  0  0  0  0  0  0  0  0  0
  139.5830   76.0330  222.1480 C   0  0  0  0  0  0  0  0  0  0  0  0
  139.3550   74.6090  222.0140 N   0  0  0  0  0  0  0  0  0  0  0  0
  139.5920   73.8740  220.8310 C   0  0  0  0  0  0  0  0  0  0  0  0
  140.0310   74.5400  219.8360 O   0  0  0  0  0  0  0  0  0  0  0  0
  139.3860   72.4440  220.6340 C   0  0  0  0  0  0  0  0  0  0  0  0
  139.8140   71.5880  221.7120 N   0  0  0  0  0  0  0  0  0  0  0  0
  138.9440   71.5210  222.8540 C   0  0  0  0  0  0  0  0  0  0  0  0
  137.9020   72.2190  222.7880 O   0  0  0  0  0  0  0  0  0  0  0  0
  139.2580   70.6950  224.0090 C   0  0  0  0  0  0  0  0  0  0  0  0
  138.8800   69.3630  223.9630 C   0  0  0  0  0  0  0  0  0  0  0  0
  139.1280   68.4930  225.0050 C   0  0  0  0  0  0  0  0  0  0  0  0
  139.7780   69.0000  226.1180 C   0  0  0  0  0  0  0  0  0  0  0  0
  140.0580   68.1770  227.1990 C   0  0  0  0  0  0  0  0  0  0  0  0
  140.6970   68.6250  228.3190 C   0  0  0  0  0  0  0  0  0  0  0  0
  141.0680   69.9710  228.3410 C   0  0  0  0  0  0  0  0  0  0  0  0
  140.8010   70.8060  227.2810 C   0  0  0  0  0  0  0  0  0  0  0  0
  140.1540   70.3270  226.1610 C   0  0  0  0  0  0  0  0  0  0  0  0
  139.8880   71.1530  225.1060 N   0  0  0  0  0  0  0  0  0  0  0  0
  141.5260   78.8280  222.0960 C   0  0  0  0  0  0  0  0  0  0  0  0
  141.8040   78.6750  223.4510 C   0  0  0  0  0  0  0  0  0  0  0  0
  142.1610   79.7880  224.2210 C   0  0  0  0  0  0  0  0  0  0  0  0
  142.2460   81.0420  223.6760 C   0  0  0  0  0  0  0  0  0  0  0  0
  141.9730   81.2040  222.3350 C   0  0  0  0  0  0  0  0  0  0  0  0
  141.6220   80.0930  221.5900 C   0  0  0  0  0  0  0  0  0  0  0  0
  139.9488   78.3407  219.8072 H   0  0  0  0  0  0  0  0  0  0  0  0
  141.7148   78.4032  219.4849 H   0  0  0  0  0  0  0  0  0  0  0  0
  140.8572   76.8249  219.4849 H   0  0  0  0  0  0  0  0  0  0  0  0
  141.5221   75.5955  221.3232 H   0  0  0  0  0  0  0  0  0  0  0  0
  141.5637   76.3229  222.9541 H   0  0  0  0  0  0  0  0  0  0  0  0
  139.2541   76.3614  223.1450 H   0  0  0  0  0  0  0  0  0  0  0  0
  139.0123   76.5626  221.3709 H   0  0  0  0  0  0  0  0  0  0  0  0
  138.9950   74.0840  222.8380 H   0  0  0  0  0  0  0  0  0  0  0  0
  138.3097   72.2775  220.4795 H   0  0  0  0  0  0  0  0  0  0  0  0
  140.0129   72.1707  219.7725 H   0  0  0  0  0  0  0  0  0  0  0  0
  140.6840   71.0250  221.7350 H   0  0  0  0  0  0  0  0  0  0  0  0
  138.3654   68.9866  223.0666 H   0  0  0  0  0  0  0  0  0  0  0  0
  138.8214   67.4378  224.9537 H   0  0  0  0  0  0  0  0  0  0  0  0
  139.7529   67.1212  227.1518 H   0  0  0  0  0  0  0  0  0  0  0  0
  140.9100   67.9560  229.1658 H   0  0  0  0  0  0  0  0  0  0  0  0
  141.5850   70.3723  229.2252 H   0  0  0  0  0  0  0  0  0  0  0  0
  141.1053   71.8621  227.3268 H   0  0  0  0  0  0  0  0  0  0  0  0
  141.7432   77.6802  223.9165 H   0  0  0  0  0  0  0  0  0  0  0  0
  142.3788   79.6524  225.2907 H   0  0  0  0  0  0  0  0  0  0  0  0
  142.5273   81.9046  224.2980 H   0  0  0  0  0  0  0  0  0  0  0  0
  142.0331   82.1974  221.8664 H   0  0  0  0  0  0  0  0  0  0  0  0
  141.4062   80.2374  220.5211 H   0  0  0  0  0  0  0  0  0  0  0  0
  1  2  1  0
  2  3  1  0
  3  4  1  0
  4  5  1  0
  5  6  1  0
  6  7  2  0
  6  8  1  0
  8  9  1  0
  9 10  1  0
 10 11  2  0
 10 12  1  0
 12 13  2  0
 13 14  1  0
 14 15  2  0
 15 16  1  0
 16 17  2  0
 17 18  1  0
 18 19  2  0
 19 20  1  0
 20 21  2  0
  2 22  1  0
 22 23  2  0
 23 24  1  0
 24 25  2  0
 25 26  1  0
 26 27  2  0
 21 12  1  0
 27 22  1  0
 20 15  1  0
  1 28  1  0
  1 29  1  0
  1 30  1  0
  3 31  1  0
  3 32  1  0
  4 33  1  0
  4 34  1  0
  5 35  1  0
  8 36  1  0
  8 37  1  0
  9 38  1  0
 13 39  1  0
 14 40  1  0
 16 41  1  0
 17 42  1  0
 18 43  1  0
 19 44  1  0
 23 45  1  0
 24 46  1  0
 25 47  1  0
 26 48  1  0
 27 49  1  0
M  END
>  <smiles>  (15) 
CN(CCNC(=O)CNC(=O)c1ccc2ccccc2n1)c1ccccc1

>  <score_type>  (15) 
oracle

>  <origin>  (15) 
autodockgpu

>  <m_score__min__energy>  (15) 
-8.4499999999999993

>  <m_primary>  (15) 
energy

>  <rmsd>  (15) 
4.464658422204489

>  <m_score__min__rmsd>  (15) 
4.464658422204489

>  <meeko>  (15) 
{"free_energy": -7.83, "intermolecular_energy": -9.92, "internal_energy": -1.7, "cluster_size": 31, "cluster_id": 2, "rank_in_cluster": 24}

>  <energy>  (15) 
-7.94

>  <cluster_rmsd>  (15) 
0.7

>  <cluster>  (15) 
1

$$$$

     RDKit          3D

 49 51  0  0  0  0  0  0  0  0999 V2000
  137.6320   69.3300  225.0060 C   0  0  0  0  0  0  0  0  0  0  0  0
  139.0540   69.6360  224.9760 N   0  0  0  0  0  0  0  0  0  0  0  0
  139.6660   70.0050  223.6960 C   0  0  0  0  0  0  0  0  0  0  0  0
  140.3280   71.3570  223.8620 C   0  0  0  0  0  0  0  0  0  0  0  0
  139.8550   72.2740  222.8460 N   0  0  0  0  0  0  0  0  0  0  0  0
  140.3840   72.3540  221.5380 C   0  0  0  0  0  0  0  0  0  0  0  0
  141.3410   71.5540  221.2720 O   0  0  0  0  0  0  0  0  0  0  0  0
  139.9510   73.2500  220.4730 C   0  0  0  0  0  0  0  0  0  0  0  0
  140.5510   74.5610  220.4650 N   0  0  0  0  0  0  0  0  0  0  0  0
  140.2160   75.4210  221.5670 C   0  0  0  0  0  0  0  0  0  0  0  0
  139.4310   74.9340  222.4190 O   0  0  0  0  0  0  0  0  0  0  0  0
  140.7540   76.7670  221.6790 C   0  0  0  0  0  0  0  0  0  0  0  0
  141.0030   77.4550  220.5030 C   0  0  0  0  0  0  0  0  0  0  0  0
  141.5140   78.7370  220.4970 C   0  0  0  0  0  0  0  0  0  0  0  0
  141.7770   79.3250  221.7220 C   0  0  0  0  0  0  0  0  0  0  0  0
  142.2910   80.6120  221.7840 C   0  0  0  0  0  0  0  0  0  0  0  0
  142.5660   81.2380  222.9650 C   0  0  0  0  0  0  0  0  0  0  0  0
  142.3080   80.5230  224.1370 C   0  0  0  0  0  0  0  0  0  0  0  0
  141.7980   79.2470  224.1000 C   0  0  0  0  0  0  0  0  0  0  0  0
  141.5280   78.6370  222.8920 C   0  0  0  0  0  0  0  0  0  0  0  0
  141.0210   77.3690  222.8520 N   0  0  0  0  0  0  0  0  0  0  0  0
  139.7680   69.5590  226.1830 C   0  0  0  0  0  0  0  0  0  0  0  0
  140.0710   68.2900  226.6680 C   0  0  0  0  0  0  0  0  0  0  0  0
  140.7790   68.1510  227.8680 C   0  0  0  0  0  0  0  0  0  0  0  0
  141.1880   69.2400  228.5920 C   0  0  0  0  0  0  0  0  0  0  0  0
  140.8930   70.5010  228.1200 C   0  0  0  0  0  0  0  0  0  0  0  0
  140.1930   70.6190  226.9330 C   0  0  0  0  0  0  0  0  0  0  0  0
  137.2945   69.2574  226.0504 H   0  0  0  0  0  0  0  0  0  0  0  0
  137.0742   70.1287  224.4951 H   0  0  0  0  0  0  0  0  0  0  0  0
  137.4521   68.3726  224.4951 H   0  0  0  0  0  0  0  0  0  0  0  0
  140.4182   69.2541  223.4124 H   0  0  0  0  0  0  0  0  0  0  0  0
  138.9006   70.0503  222.9072 H   0  0  0  0  0  0  0  0  0  0  0  0
  140.0861   71.7603  224.8564 H   0  0  0  0  0  0  0  0  0  0  0  0
  141.4168   71.2384  223.7593 H   0  0  0  0  0  0  0  0  0  0  0  0
  139.0730   72.9190  223.0850 H   0  0  0  0  0  0  0  0  0  0  0  0
  140.1841   72.7677  219.5123 H   0  0  0  0  0  0  0  0  0  0  0  0
  138.8775   73.4170  220.6451 H   0  0  0  0  0  0  0  0  0  0  0  0
  141.1960   74.9320  219.7430 H   0  0  0  0  0  0  0  0  0  0  0  0
  140.7865   76.9638  219.5429 H   0  0  0  0  0  0  0  0  0  0  0  0
  141.7050   79.2711  219.5545 H   0  0  0  0  0  0  0  0  0  0  0  0
  142.4846   81.1493  220.8439 H   0  0  0  0  0  0  0  0  0  0  0  0
  142.9726   82.2597  222.9928 H   0  0  0  0  0  0  0  0  0  0  0  0
  142.5174   80.9910  225.1102 H   0  0  0  0  0  0  0  0  0  0  0  0
  141.6039   78.7087  225.0394 H   0  0  0  0  0  0  0  0  0  0  0  0
  139.7545   67.3970  226.1090 H   0  0  0  0  0  0  0  0  0  0  0  0
  141.0128   67.1421  228.2388 H   0  0  0  0  0  0  0  0  0  0  0  0
  141.7420   69.1102  229.5334 H   0  0  0  0  0  0  0  0  0  0  0  0
  141.2082   71.3960  228.6765 H   0  0  0  0  0  0  0  0  0  0  0  0
  139.9636   71.6315  226.5693 H   0  0  0  0  0  0  0  0  0  0  0  0
  1  2  1  0
  2  3  1  0
  3  4  1  0
  4  5  1  0
  5  6  1  0
  6  7  2  0
  6  8  1  0
  8  9  1  0
  9 10  1  0
 10 11  2  0
 10 12  1  0
 12 13  2  0
 13 14  1  0
 14 15  2  0
 15 16  1  0
 16 17  2  0
 17 18  1  0
 18 19  2  0
 19 20  1  0
 20 21  2  0
  2 22  1  0
 22 23  2  0
 23 24  1  0
 24 25  2  0
 25 26  1  0
 26 27  2  0
 21 12  1  0
 27 22  1  0
 20 15  1  0
  1 28  1  0
  1 29  1  0
  1 30  1  0
  3 31  1  0
  3 32  1  0
  4 33  1  0
  4 34  1  0
  5 35  1  0
  8 36  1  0
  8 37  1  0
  9 38  1  0
 13 39  1  0
 14 40  1  0
 16 41  1  0
 17 42  1  0
 18 43  1  0
 19 44  1  0
 23 45  1  0
 24 46  1  0
 25 47  1  0
 26 48  1  0
 27 49  1  0
M  END
>  <smiles>  (16) 
CN(CCNC(=O)CNC(=O)c1ccc2ccccc2n1)c1ccccc1

>  <score_type>  (16) 
oracle

>  <origin>  (16) 
autodockgpu

>  <m_score__min__energy>  (16) 
-8.4499999999999993

>  <m_primary>  (16) 
energy

>  <rmsd>  (16) 
9.394435930867607

>  <m_score__min__rmsd>  (16) 
9.394435930867607

>  <meeko>  (16) 
{"free_energy": -8.17, "intermolecular_energy": -10.26, "internal_energy": -1.56, "cluster_size": 18, "cluster_id": 1, "rank_in_cluster": 8}

>  <energy>  (16) 
-7.86

>  <cluster_rmsd>  (16) 
0.67

>  <cluster>  (16) 
1

$$$$

     RDKit          3D

 49 51  0  0  0  0  0  0  0  0999 V2000
  141.4230   76.0130  221.0410 C   0  0  0  0  0  0  0  0  0  0  0  0
  140.5880   77.1010  221.5270 N   0  0  0  0  0  0  0  0  0  0  0  0
  139.1400   77.0280  221.3060 C   0  0  0  0  0  0  0  0  0  0  0  0
  138.5190   76.3210  222.4920 C   0  0  0  0  0  0  0  0  0  0  0  0
  138.6270   74.8850  222.3310 N   0  0  0  0  0  0  0  0  0  0  0  0
  138.1870   74.1780  221.1900 C   0  0  0  0  0  0  0  0  0  0  0  0
  137.6630   74.8810  220.2630 O   0  0  0  0  0  0  0  0  0  0  0  0
  138.2700   72.7390  220.9660 C   0  0  0  0  0  0  0  0  0  0  0  0
  138.4120   71.9230  222.1460 N   0  0  0  0  0  0  0  0  0  0  0  0
  139.6450   72.0610  222.8710 C   0  0  0  0  0  0  0  0  0  0  0  0
  140.4690   72.8800  222.3940 O   0  0  0  0  0  0  0  0  0  0  0  0
  139.9140   71.2950  224.0780 C   0  0  0  0  0  0  0  0  0  0  0  0
  140.6980   71.8940  225.0510 C   0  0  0  0  0  0  0  0  0  0  0  0
  141.0140   71.2560  226.2330 C   0  0  0  0  0  0  0  0  0  0  0  0
  140.5180   69.9770  226.4210 C   0  0  0  0  0  0  0  0  0  0  0  0
  140.7990   69.2810  227.5870 C   0  0  0  0  0  0  0  0  0  0  0  0
  140.3340   68.0200  227.8230 C   0  0  0  0  0  0  0  0  0  0  0  0
  139.5470   67.4390  226.8260 C   0  0  0  0  0  0  0  0  0  0  0  0
  139.2550   68.1080  225.6620 C   0  0  0  0  0  0  0  0  0  0  0  0
  139.7380   69.3830  225.4490 C   0  0  0  0  0  0  0  0  0  0  0  0
  139.4480   70.0520  224.2930 N   0  0  0  0  0  0  0  0  0  0  0  0
  141.2200   78.1690  222.1840 C   0  0  0  0  0  0  0  0  0  0  0  0
  141.6670   79.2300  221.4000 C   0  0  0  0  0  0  0  0  0  0  0  0
  142.3050   80.3210  221.9990 C   0  0  0  0  0  0  0  0  0  0  0  0
  142.5090   80.3810  223.3520 C   0  0  0  0  0  0  0  0  0  0  0  0
  142.0710   79.3360  224.1380 C   0  0  0  0  0  0  0  0  0  0  0  0
  141.4420   78.2660  223.5280 C   0  0  0  0  0  0  0  0  0  0  0  0
  141.8443   75.4640  221.8961 H   0  0  0  0  0  0  0  0  0  0  0  0
  140.8155   75.3294  220.4298 H   0  0  0  0  0  0  0  0  0  0  0  0
  142.2405   76.4230  220.4298 H   0  0  0  0  0  0  0  0  0  0  0  0
  138.7246   78.0427  221.2173 H   0  0  0  0  0  0  0  0  0  0  0  0
  138.9230   76.4786  220.3780 H   0  0  0  0  0  0  0  0  0  0  0  0
  139.0426   76.6241  223.4107 H   0  0  0  0  0  0  0  0  0  0  0  0
  137.4559   76.5960  222.5576 H   0  0  0  0  0  0  0  0  0  0  0  0
  139.0570   74.3300  223.1000 H   0  0  0  0  0  0  0  0  0  0  0  0
  137.3514   72.4254  220.4485 H   0  0  0  0  0  0  0  0  0  0  0  0
  139.1903   72.5820  220.3843 H   0  0  0  0  0  0  0  0  0  0  0  0
  137.7100   71.2530  222.5120 H   0  0  0  0  0  0  0  0  0  0  0  0
  141.0806   72.9103  224.8756 H   0  0  0  0  0  0  0  0  0  0  0  0
  141.6364   71.7449  226.9969 H   0  0  0  0  0  0  0  0  0  0  0  0
  141.4223   69.7653  228.3531 H   0  0  0  0  0  0  0  0  0  0  0  0
  140.5682   67.4856  228.7555 H   0  0  0  0  0  0  0  0  0  0  0  0
  139.1522   66.4233  226.9761 H   0  0  0  0  0  0  0  0  0  0  0  0
  138.6323   67.6242  224.8951 H   0  0  0  0  0  0  0  0  0  0  0  0
  141.5183   79.2098  220.3103 H   0  0  0  0  0  0  0  0  0  0  0  0
  142.6518   81.1521  221.3673 H   0  0  0  0  0  0  0  0  0  0  0  0
  143.0135   81.2478  223.8039 H   0  0  0  0  0  0  0  0  0  0  0  0
  142.2189   79.3531  225.2279 H   0  0  0  0  0  0  0  0  0  0  0  0
  141.0981   77.4393  224.1670 H   0  0  0  0  0  0  0  0  0  0  0  0
  1  2  1  0
  2  3  1  0
  3  4  1  0
  4  5  1  0
  5  6  1  0
  6  7  2  0
  6  8  1  0
  8  9  1  0
  9 10  1  0
 10 11  2  0
 10 12  1  0
 12 13  2  0
 13 14  1  0
 14 15  2  0
 15 16  1  0
 16 17  2  0
 17 18  1  0
 18 19  2  0
 19 20  1  0
 20 21  2  0
  2 22  1  0
 22 23  2  0
 23 24  1  0
 24 25  2  0
 25 26  1  0
 26 27  2  0
 21 12  1  0
 27 22  1  0
 20 15  1  0
  1 28  1  0
  1 29  1  0
  1 30  1  0
  3 31  1  0
  3 32  1  0
  4 33  1  0
  4 34  1  0
  5 35  1  0
  8 36  1  0
  8 37  1  0
  9 38  1  0
 13 39  1  0
 14 40  1  0
 16 41  1  0
 17 42  1  0
 18 43  1  0
 19 44  1  0
 23 45  1  0
 24 46  1  0
 25 47  1  0
 26 48  1  0
 27 49  1  0
M  END
>  <smiles>  (17) 
CN(CCNC(=O)CNC(=O)c1ccc2ccccc2n1)c1ccccc1

>  <score_type>  (17) 
oracle

>  <origin>  (17) 
autodockgpu

>  <m_score__min__energy>  (17) 
-8.4499999999999993

>  <m_primary>  (17) 
energy

>  <rmsd>  (17) 
4.229338620298243

>  <m_score__min__rmsd>  (17) 
4.229338620298243

>  <meeko>  (17) 
{"free_energy": -8.08, "intermolecular_energy": -10.17, "internal_energy": -1.91, "cluster_size": 31, "cluster_id": 2, "rank_in_cluster": 14}

>  <energy>  (17) 
-7.76

>  <cluster_rmsd>  (17) 
0.93

>  <cluster>  (17) 
1

$$$$

     RDKit          3D

 49 51  0  0  0  0  0  0  0  0999 V2000
  141.7510   77.1270  220.0780 C   0  0  0  0  0  0  0  0  0  0  0  0
  140.8490   77.9940  220.8210 N   0  0  0  0  0  0  0  0  0  0  0  0
  139.4340   78.0270  220.4390 C   0  0  0  0  0  0  0  0  0  0  0  0
  138.6320   77.3770  221.5480 C   0  0  0  0  0  0  0  0  0  0  0  0
  138.3970   75.9810  221.2420 N   0  0  0  0  0  0  0  0  0  0  0  0
  139.2640   74.9290  221.6100 C   0  0  0  0  0  0  0  0  0  0  0  0
  140.3150   75.2680  222.2500 O   0  0  0  0  0  0  0  0  0  0  0  0
  139.0830   73.5080  221.3360 C   0  0  0  0  0  0  0  0  0  0  0  0
  138.9240   72.6560  222.4870 N   0  0  0  0  0  0  0  0  0  0  0  0
  140.0320   71.7960  222.8010 C   0  0  0  0  0  0  0  0  0  0  0  0
  141.0220   71.8810  222.0320 O   0  0  0  0  0  0  0  0  0  0  0  0
  140.0000   70.8890  223.9370 C   0  0  0  0  0  0  0  0  0  0  0  0
  139.3500   69.6770  223.7670 C   0  0  0  0  0  0  0  0  0  0  0  0
  139.2600   68.7450  224.7800 C   0  0  0  0  0  0  0  0  0  0  0  0
  139.8490   69.0610  225.9930 C   0  0  0  0  0  0  0  0  0  0  0  0
  139.7940   68.1660  227.0510 C   0  0  0  0  0  0  0  0  0  0  0  0
  140.3590   68.4280  228.2660 C   0  0  0  0  0  0  0  0  0  0  0  0
  141.0080   69.6550  228.4110 C   0  0  0  0  0  0  0  0  0  0  0  0
  141.0750   70.5580  227.3770 C   0  0  0  0  0  0  0  0  0  0  0  0
  140.4960   70.2680  226.1580 C   0  0  0  0  0  0  0  0  0  0  0  0
  140.5610   71.1630  225.1280 N   0  0  0  0  0  0  0  0  0  0  0  0
  141.3880   78.7580  221.8690 C   0  0  0  0  0  0  0  0  0  0  0  0
  141.9550   79.9870  221.5400 C   0  0  0  0  0  0  0  0  0  0  0  0
  142.5090   80.7900  222.5430 C   0  0  0  0  0  0  0  0  0  0  0  0
  142.5130   80.4020  223.8570 C   0  0  0  0  0  0  0  0  0  0  0  0
  141.9550   79.1870  224.1920 C   0  0  0  0  0  0  0  0  0  0  0  0
  141.4120   78.4060  223.1890 C   0  0  0  0  0  0  0  0  0  0  0  0
  142.3601   76.5416  220.7825 H   0  0  0  0  0  0  0  0  0  0  0  0
  141.1650   76.4445  219.4449 H   0  0  0  0  0  0  0  0  0  0  0  0
  142.4098   77.7395  219.4449 H   0  0  0  0  0  0  0  0  0  0  0  0
  139.1082   79.0690  220.3047 H   0  0  0  0  0  0  0  0  0  0  0  0
  139.2821   77.4878  219.4923 H   0  0  0  0  0  0  0  0  0  0  0  0
  139.1901   77.4531  222.4928 H   0  0  0  0  0  0  0  0  0  0  0  0
  137.6646   77.8922  221.6413 H   0  0  0  0  0  0  0  0  0  0  0  0
  137.5340   75.7260  220.7180 H   0  0  0  0  0  0  0  0  0  0  0  0
  138.1853   73.3981  220.7099 H   0  0  0  0  0  0  0  0  0  0  0  0
  140.0142   73.1794  220.8514 H   0  0  0  0  0  0  0  0  0  0  0  0
  138.0900   72.6110  223.1010 H   0  0  0  0  0  0  0  0  0  0  0  0
  138.8912   69.4509  222.7932 H   0  0  0  0  0  0  0  0  0  0  0  0
  138.7402   67.7872  224.6301 H   0  0  0  0  0  0  0  0  0  0  0  0
  139.2747   67.2073  226.9055 H   0  0  0  0  0  0  0  0  0  0  0  0
  140.3051   67.7048  229.0931 H   0  0  0  0  0  0  0  0  0  0  0  0
  141.4764   69.9050  229.3744 H   0  0  0  0  0  0  0  0  0  0  0  0
  141.5931   71.5175  227.5218 H   0  0  0  0  0  0  0  0  0  0  0  0
  141.9672   80.3257  220.4935 H   0  0  0  0  0  0  0  0  0  0  0  0
  142.9531   81.7584  222.2693 H   0  0  0  0  0  0  0  0  0  0  0  0
  142.9535   81.0483  224.6305 H   0  0  0  0  0  0  0  0  0  0  0  0
  141.9420   78.8454  225.2375 H   0  0  0  0  0  0  0  0  0  0  0  0
  140.9708   77.4388  223.4717 H   0  0  0  0  0  0  0  0  0  0  0  0
  1  2  1  0
  2  3  1  0
  3  4  1  0
  4  5  1  0
  5  6  1  0
  6  7  2  0
  6  8  1  0
  8  9  1  0
  9 10  1  0
 10 11  2  0
 10 12  1  0
 12 13  2  0
 13 14  1  0
 14 15  2  0
 15 16  1  0
 16 17  2  0
 17 18  1  0
 18 19  2  0
 19 20  1  0
 20 21  2  0
  2 22  1  0
 22 23  2  0
 23 24  1  0
 24 25  2  0
 25 26  1  0
 26 27  2  0
 21 12  1  0
 27 22  1  0
 20 15  1  0
  1 28  1  0
  1 29  1  0
  1 30  1  0
  3 31  1  0
  3 32  1  0
  4 33  1  0
  4 34  1  0
  5 35  1  0
  8 36  1  0
  8 37  1  0
  9 38  1  0
 13 39  1  0
 14 40  1  0
 16 41  1  0
 17 42  1  0
 18 43  1  0
 19 44  1  0
 23 45  1  0
 24 46  1  0
 25 47  1  0
 26 48  1  0
 27 49  1  0
M  END
>  <smiles>  (18) 
CN(CCNC(=O)CNC(=O)c1ccc2ccccc2n1)c1ccccc1

>  <score_type>  (18) 
oracle

>  <origin>  (18) 
autodockgpu

>  <m_score__min__energy>  (18) 
-8.4499999999999993

>  <m_primary>  (18) 
energy

>  <rmsd>  (18) 
4.691900244010985

>  <m_score__min__rmsd>  (18) 
4.691900244010985

>  <meeko>  (18) 
{"free_energy": -8.2, "intermolecular_energy": -10.29, "internal_energy": -1.17, "cluster_size": 31, "cluster_id": 2, "rank_in_cluster": 7}

>  <energy>  (18) 
-7.55

>  <cluster_rmsd>  (18) 
1.22

>  <cluster>  (18) 
1

$$$$

     RDKit          3D

 49 51  0  0  0  0  0  0  0  0999 V2000
  136.8640   69.2990  224.6890 C   0  0  0  0  0  0  0  0  0  0  0  0
  138.2380   69.7010  224.4270 N   0  0  0  0  0  0  0  0  0  0  0  0
  138.5480   70.3470  223.1480 C   0  0  0  0  0  0  0  0  0  0  0  0
  138.0070   71.7610  223.1910 C   0  0  0  0  0  0  0  0  0  0  0  0
  138.7210   72.5990  222.2490 N   0  0  0  0  0  0  0  0  0  0  0  0
  140.1290   72.6870  222.1730 C   0  0  0  0  0  0  0  0  0  0  0  0
  140.7810   71.9720  223.0040 O   0  0  0  0  0  0  0  0  0  0  0  0
  140.9050   73.5070  221.2490 C   0  0  0  0  0  0  0  0  0  0  0  0
  141.2090   74.8440  221.6920 N   0  0  0  0  0  0  0  0  0  0  0  0
  140.0850   75.7060  221.9320 C   0  0  0  0  0  0  0  0  0  0  0  0
  138.9540   75.1980  221.7260 O   0  0  0  0  0  0  0  0  0  0  0  0
  140.2540   77.0790  222.3820 C   0  0  0  0  0  0  0  0  0  0  0  0
  139.1070   77.8030  222.6650 C   0  0  0  0  0  0  0  0  0  0  0  0
  139.1550   79.1130  223.0970 C   0  0  0  0  0  0  0  0  0  0  0  0
  140.4030   79.6920  223.2420 C   0  0  0  0  0  0  0  0  0  0  0  0
  140.5200   81.0060  223.6730 C   0  0  0  0  0  0  0  0  0  0  0  0
  141.7260   81.6230  223.8340 C   0  0  0  0  0  0  0  0  0  0  0  0
  142.8660   80.8720  223.5420 C   0  0  0  0  0  0  0  0  0  0  0  0
  142.7760   79.5690  223.1130 C   0  0  0  0  0  0  0  0  0  0  0  0
  141.5440   78.9680  222.9590 C   0  0  0  0  0  0  0  0  0  0  0  0
  141.4510   77.6730  222.5340 N   0  0  0  0  0  0  0  0  0  0  0  0
  139.1970   69.4450  225.4200 C   0  0  0  0  0  0  0  0  0  0  0  0
  139.3080   68.1360  225.8820 C   0  0  0  0  0  0  0  0  0  0  0  0
  140.2460   67.8220  226.8720 C   0  0  0  0  0  0  0  0  0  0  0  0
  141.0700   68.7740  227.4110 C   0  0  0  0  0  0  0  0  0  0  0  0
  140.9680   70.0730  226.9600 C   0  0  0  0  0  0  0  0  0  0  0  0
  140.0360   70.3660  225.9820 C   0  0  0  0  0  0  0  0  0  0  0  0
  136.6970   69.2502  225.7751 H   0  0  0  0  0  0  0  0  0  0  0  0
  136.1760   70.0335  224.2449 H   0  0  0  0  0  0  0  0  0  0  0  0
  136.6804   68.3095  224.2449 H   0  0  0  0  0  0  0  0  0  0  0  0
  139.6372   70.3691  222.9959 H   0  0  0  0  0  0  0  0  0  0  0  0
  138.0894   69.7889  222.3184 H   0  0  0  0  0  0  0  0  0  0  0  0
  136.9386   71.7493  222.9296 H   0  0  0  0  0  0  0  0  0  0  0  0
  138.1413   72.1659  224.2049 H   0  0  0  0  0  0  0  0  0  0  0  0
  138.1690   73.1750  221.5810 H   0  0  0  0  0  0  0  0  0  0  0  0
  141.8576   72.9906  221.0597 H   0  0  0  0  0  0  0  0  0  0  0  0
  140.2725   73.6272  220.3571 H   0  0  0  0  0  0  0  0  0  0  0  0
  142.1570   75.2330  221.8510 H   0  0  0  0  0  0  0  0  0  0  0  0
  138.1272   77.3184  222.5415 H   0  0  0  0  0  0  0  0  0  0  0  0
  138.2357   79.6753  223.3176 H   0  0  0  0  0  0  0  0  0  0  0  0
  139.6034   81.5728  223.8937 H   0  0  0  0  0  0  0  0  0  0  0  0
  141.7970   82.6653  224.1784 H   0  0  0  0  0  0  0  0  0  0  0  0
  143.8580   81.3329  223.6577 H   0  0  0  0  0  0  0  0  0  0  0  0
  143.6922   79.0021  222.8912 H   0  0  0  0  0  0  0  0  0  0  0  0
  138.6590   67.3496  225.4692 H   0  0  0  0  0  0  0  0  0  0  0  0
  140.3235   66.7836  227.2265 H   0  0  0  0  0  0  0  0  0  0  0  0
  141.7999   68.5072  228.1895 H   0  0  0  0  0  0  0  0  0  0  0  0
  141.6160   70.8613  227.3707 H   0  0  0  0  0  0  0  0  0  0  0  0
  139.9651   71.4070  225.6338 H   0  0  0  0  0  0  0  0  0  0  0  0
  1  2  1  0
  2  3  1  0
  3  4  1  0
  4  5  1  0
  5  6  1  0
  6  7  2  0
  6  8  1  0
  8  9  1  0
  9 10  1  0
 10 11  2  0
 10 12  1  0
 12 13  2  0
 13 14  1  0
 14 15  2  0
 15 16  1  0
 16 17  2  0
 17 18  1  0
 18 19  2  0
 19 20  1  0
 20 21  2  0
  2 22  1  0
 22 23  2  0
 23 24  1  0
 24 25  2  0
 25 26  1  0
 26 27  2  0
 21 12  1  0
 27 22  1  0
 20 15  1  0
  1 28  1  0
  1 29  1  0
  1 30  1  0
  3 31  1  0
  3 32  1  0
  4 33  1  0
  4 34  1  0
  5 35  1  0
  8 36  1  0
  8 37  1  0
  9 38  1  0
 13 39  1  0
 14 40  1  0
 16 41  1  0
 17 42  1  0
 18 43  1  0
 19 44  1  0
 23 45  1  0
 24 46  1  0
 25 47  1  0
 26 48  1  0
 27 49  1  0
M  END
>  <smiles>  (19) 
CN(CCNC(=O)CNC(=O)c1ccc2ccccc2n1)c1ccccc1

>  <score_type>  (19) 
oracle

>  <origin>  (19) 
autodockgpu

>  <m_score__min__energy>  (19) 
-8.4499999999999993

>  <m_primary>  (19) 
energy

>  <rmsd>  (19) 
9.050298910762843

>  <m_score__min__rmsd>  (19) 
9.050298910762843

>  <meeko>  (19) 
{"free_energy": -7.76, "intermolecular_energy": -9.84, "internal_energy": -1.79, "cluster_size": 18, "cluster_id": 1, "rank_in_cluster": 17}

>  <energy>  (19) 
-8.42

>  <cluster_rmsd>  (19) 
0.0

>  <cluster>  (19) 
2

$$$$

     RDKit          3D

 49 51  0  0  0  0  0  0  0  0999 V2000
  137.4950   69.5700  224.8320 C   0  0  0  0  0  0  0  0  0  0  0  0
  138.9330   69.7910  224.8360 N   0  0  0  0  0  0  0  0  0  0  0  0
  139.5610   70.3390  223.6290 C   0  0  0  0  0  0  0  0  0  0  0  0
  140.3830   71.5460  224.0330 C   0  0  0  0  0  0  0  0  0  0  0  0
  140.2150   72.6110  223.0660 N   0  0  0  0  0  0  0  0  0  0  0  0
  140.7560   72.5930  221.7610 C   0  0  0  0  0  0  0  0  0  0  0  0
  141.4330   71.5570  221.4500 O   0  0  0  0  0  0  0  0  0  0  0  0
  140.6210   73.6290  220.7430 C   0  0  0  0  0  0  0  0  0  0  0  0
  140.9740   74.9650  221.1510 N   0  0  0  0  0  0  0  0  0  0  0  0
  139.9820   75.6840  221.9030 C   0  0  0  0  0  0  0  0  0  0  0  0
  138.9110   75.0660  222.1240 O   0  0  0  0  0  0  0  0  0  0  0  0
  140.2120   77.0400  222.3750 C   0  0  0  0  0  0  0  0  0  0  0  0
  139.1010   77.7920  222.7210 C   0  0  0  0  0  0  0  0  0  0  0  0
  139.2080   79.0900  223.1780 C   0  0  0  0  0  0  0  0  0  0  0  0
  140.4790   79.6280  223.2830 C   0  0  0  0  0  0  0  0  0  0  0  0
  140.6530   80.9270  223.7370 C   0  0  0  0  0  0  0  0  0  0  0  0
  141.8840   81.5040  223.8600 C   0  0  0  0  0  0  0  0  0  0  0  0
  142.9870   80.7260  223.5050 C   0  0  0  0  0  0  0  0  0  0  0  0
  142.8390   79.4360  223.0520 C   0  0  0  0  0  0  0  0  0  0  0  0
  141.5830   78.8760  222.9380 C   0  0  0  0  0  0  0  0  0  0  0  0
  141.4330   77.5940  222.4890 N   0  0  0  0  0  0  0  0  0  0  0  0
  139.6450   69.4640  226.0010 C   0  0  0  0  0  0  0  0  0  0  0  0
  140.1020   68.1550  226.1250 C   0  0  0  0  0  0  0  0  0  0  0  0
  140.8170   67.7710  227.2660 C   0  0  0  0  0  0  0  0  0  0  0  0
  141.0830   68.6530  228.2800 C   0  0  0  0  0  0  0  0  0  0  0  0
  140.6340   69.9510  228.1660 C   0  0  0  0  0  0  0  0  0  0  0  0
  139.9300   70.3130  227.0320 C   0  0  0  0  0  0  0  0  0  0  0  0
  137.1298   69.5139  225.8681 H   0  0  0  0  0  0  0  0  0  0  0  0
  136.9976   70.4022  224.3124 H   0  0  0  0  0  0  0  0  0  0  0  0
  137.2704   68.6268  224.3124 H   0  0  0  0  0  0  0  0  0  0  0  0
  140.2126   69.5806  223.1705 H   0  0  0  0  0  0  0  0  0  0  0  0
  138.7924   70.6288  222.8974 H   0  0  0  0  0  0  0  0  0  0  0  0
  140.0518   71.8970  225.0215 H   0  0  0  0  0  0  0  0  0  0  0  0
  141.4446   71.2608  224.0725 H   0  0  0  0  0  0  0  0  0  0  0  0
  139.6590   73.4480  223.3400 H   0  0  0  0  0  0  0  0  0  0  0  0
  141.2663   73.3543  219.8956 H   0  0  0  0  0  0  0  0  0  0  0  0
  139.5492   73.6669  220.4987 H   0  0  0  0  0  0  0  0  0  0  0  0
  141.8690   75.4480  220.9500 H   0  0  0  0  0  0  0  0  0  0  0  0
  138.1022   77.3404  222.6286 H   0  0  0  0  0  0  0  0  0  0  0  0
  138.3166   79.6750  223.4486 H   0  0  0  0  0  0  0  0  0  0  0  0
  139.7641   81.5153  224.0086 H   0  0  0  0  0  0  0  0  0  0  0  0
  142.0014   82.5358  224.2226 H   0  0  0  0  0  0  0  0  0  0  0  0
  143.9968   81.1540  223.5894 H   0  0  0  0  0  0  0  0  0  0  0  0
  143.7271   78.8471  222.7789 H   0  0  0  0  0  0  0  0  0  0  0  0
  139.9018   67.4236  225.3281 H   0  0  0  0  0  0  0  0  0  0  0  0
  141.1744   66.7341  227.3504 H   0  0  0  0  0  0  0  0  0  0  0  0
  141.6448   68.3310  229.1692 H   0  0  0  0  0  0  0  0  0  0  0  0
  140.8317   70.6847  228.9614 H   0  0  0  0  0  0  0  0  0  0  0  0
  139.5768   71.3519  226.9555 H   0  0  0  0  0  0  0  0  0  0  0  0
  1  2  1  0
  2  3  1  0
  3  4  1  0
  4  5  1  0
  5  6  1  0
  6  7  2  0
  6  8  1  0
  8  9  1  0
  9 10  1  0
 10 11  2  0
 10 12  1  0
 12 13  2  0
 13 14  1  0
 14 15  2  0
 15 16  1  0
 16 17  2  0
 17 18  1  0
 18 19  2  0
 19 20  1  0
 20 21  2  0
  2 22  1  0
 22 23  2  0
 23 24  1  0
 24 25  2  0
 25 26  1  0
 26 27  2  0
 21 12  1  0
 27 22  1  0
 20 15  1  0
  1 28  1  0
  1 29  1  0
  1 30  1  0
  3 31  1  0
  3 32  1  0
  4 33  1  0
  4 34  1  0
  5 35  1  0
  8 36  1  0
  8 37  1  0
  9 38  1  0
 13 39  1  0
 14 40  1  0
 16 41  1  0
 17 42  1  0
 18 43  1  0
 19 44  1  0
 23 45  1  0
 24 46  1  0
 25 47  1  0
 26 48  1  0
 27 49  1  0
M  END
>  <smiles>  (20) 
CN(CCNC(=O)CNC(=O)c1ccc2ccccc2n1)c1ccccc1

>  <score_type>  (20) 
oracle

>  <origin>  (20) 
autodockgpu

>  <m_score__min__energy>  (20) 
-8.4499999999999993

>  <m_primary>  (20) 
energy

>  <rmsd>  (20) 
9.306135370525583

>  <m_score__min__rmsd>  (20) 
9.306135370525583

>  <meeko>  (20) 
{"free_energy": -8.4, "intermolecular_energy": -10.49, "internal_energy": -1.82, "cluster_size": 18, "cluster_id": 1, "rank_in_cluster": 3}

>  <energy>  (20) 
-8.37

>  <cluster_rmsd>  (20) 
1.71

>  <cluster>  (20) 
2

$$$$

     RDKit          3D

 49 51  0  0  0  0  0  0  0  0999 V2000
  141.0590   79.3320  219.4090 C   0  0  0  0  0  0  0  0  0  0  0  0
  141.5290   78.8440  220.6970 N   0  0  0  0  0  0  0  0  0  0  0  0
  141.7700   77.4060  220.8560 C   0  0  0  0  0  0  0  0  0  0  0  0
  140.7540   76.8650  221.8410 C   0  0  0  0  0  0  0  0  0  0  0  0
  140.3670   75.5190  221.4700 N   0  0  0  0  0  0  0  0  0  0  0  0
  139.0340   75.0500  221.4600 C   0  0  0  0  0  0  0  0  0  0  0  0
  138.1410   75.8920  221.8080 O   0  0  0  0  0  0  0  0  0  0  0  0
  138.5800   73.7130  221.0960 C   0  0  0  0  0  0  0  0  0  0  0  0
  138.5220   72.7510  222.1670 N   0  0  0  0  0  0  0  0  0  0  0  0
  139.7690   72.4410  222.8130 C   0  0  0  0  0  0  0  0  0  0  0  0
  140.7770   73.0450  222.3690 O   0  0  0  0  0  0  0  0  0  0  0  0
  139.8480   71.4870  223.9080 C   0  0  0  0  0  0  0  0  0  0  0  0
  139.3210   70.2240  223.6930 C   0  0  0  0  0  0  0  0  0  0  0  0
  139.3440   69.2460  224.6660 C   0  0  0  0  0  0  0  0  0  0  0  0
  139.9170   69.5680  225.8840 C   0  0  0  0  0  0  0  0  0  0  0  0
  139.9720   68.6290  226.9030 C   0  0  0  0  0  0  0  0  0  0  0  0
  140.5280   68.8950  228.1200 C   0  0  0  0  0  0  0  0  0  0  0  0
  141.0520   70.1750  228.3110 C   0  0  0  0  0  0  0  0  0  0  0  0
  141.0100   71.1230  227.3160 C   0  0  0  0  0  0  0  0  0  0  0  0
  140.4420   70.8280  226.0940 C   0  0  0  0  0  0  0  0  0  0  0  0
  140.3990   71.7670  225.1030 N   0  0  0  0  0  0  0  0  0  0  0  0
  141.7240   79.7820  221.7230 C   0  0  0  0  0  0  0  0  0  0  0  0
  142.5100   79.3940  222.8050 C   0  0  0  0  0  0  0  0  0  0  0  0
  142.7390   80.2870  223.8580 C   0  0  0  0  0  0  0  0  0  0  0  0
  142.2050   81.5490  223.8600 C   0  0  0  0  0  0  0  0  0  0  0  0
  141.4240   81.9420  222.7940 C   0  0  0  0  0  0  0  0  0  0  0  0
  141.2100   81.0470  221.7620 C   0  0  0  0  0  0  0  0  0  0  0  0
  140.3039   80.1160  219.5673 H   0  0  0  0  0  0  0  0  0  0  0  0
  141.9058   79.7474  218.8431 H   0  0  0  0  0  0  0  0  0  0  0  0
  140.6120   78.5014  218.8431 H   0  0  0  0  0  0  0  0  0  0  0  0
  141.6558   76.8993  219.8864 H   0  0  0  0  0  0  0  0  0  0  0  0
  142.7909   77.2291  221.2255 H   0  0  0  0  0  0  0  0  0  0  0  0
  141.1955   76.8518  222.8484 H   0  0  0  0  0  0  0  0  0  0  0  0
  139.8637   77.5109  221.8304 H   0  0  0  0  0  0  0  0  0  0  0  0
  141.1110   74.8480  221.1900 H   0  0  0  0  0  0  0  0  0  0  0  0
  137.5694   73.8050  220.6715 H   0  0  0  0  0  0  0  0  0  0  0  0
  139.3315   73.3268  220.3916 H   0  0  0  0  0  0  0  0  0  0  0  0
  137.6710   72.2680  222.5080 H   0  0  0  0  0  0  0  0  0  0  0  0
  138.8703   69.9937  222.7164 H   0  0  0  0  0  0  0  0  0  0  0  0
  138.9224   68.2471  224.4805 H   0  0  0  0  0  0  0  0  0  0  0  0
  139.5502   67.6292  226.7227 H   0  0  0  0  0  0  0  0  0  0  0  0
  140.5620   68.1354  228.9149 H   0  0  0  0  0  0  0  0  0  0  0  0
  141.5084   70.4306  229.2787 H   0  0  0  0  0  0  0  0  0  0  0  0
  141.4319   72.1229  227.4955 H   0  0  0  0  0  0  0  0  0  0  0  0
  142.9505   78.3864  222.8321 H   0  0  0  0  0  0  0  0  0  0  0  0
  143.3634   79.9678  224.7055 H   0  0  0  0  0  0  0  0  0  0  0  0
  142.3961   82.2363  224.6973 H   0  0  0  0  0  0  0  0  0  0  0  0
  140.9798   82.9479  222.7651 H   0  0  0  0  0  0  0  0  0  0  0  0
  140.5855   81.3748  220.9179 H   0  0  0  0  0  0  0  0  0  0  0  0
  1  2  1  0
  2  3  1  0
  3  4  1  0
  4  5  1  0
  5  6  1  0
  6  7  2  0
  6  8  1  0
  8  9  1  0
  9 10  1  0
 10 11  2  0
 10 12  1  0
 12 13  2  0
 13 14  1  0
 14 15  2  0
 15 16  1  0
 16 17  2  0
 17 18  1  0
 18 19  2  0
 19 20  1  0
 20 21  2  0
  2 22  1  0
 22 23  2  0
 23 24  1  0
 24 25  2  0
 25 26  1  0
 26 27  2  0
 21 12  1  0
 27 22  1  0
 20 15  1  0
  1 28  1  0
  1 29  1  0
  1 30  1  0
  3 31  1  0
  3 32  1  0
  4 33  1  0
  4 34  1  0
  5 35  1  0
  8 36  1  0
  8 37  1  0
  9 38  1  0
 13 39  1  0
 14 40  1  0
 16 41  1  0
 17 42  1  0
 18 43  1  0
 19 44  1  0
 23 45  1  0
 24 46  1  0
 25 47  1  0
 26 48  1  0
 27 49  1  0
M  END
>  <smiles>  (21) 
CN(CCNC(=O)CNC(=O)c1ccc2ccccc2n1)c1ccccc1

>  <score_type>  (21) 
oracle

>  <origin>  (21) 
autodockgpu

>  <m_score__min__energy>  (21) 
-8.4499999999999993

>  <m_primary>  (21) 
energy

>  <rmsd>  (21) 
5.029355840330989

>  <m_score__min__rmsd>  (21) 
5.029355840330989

>  <meeko>  (21) 
{"free_energy": -7.92, "intermolecular_energy": -10.01, "internal_energy": -1.5, "cluster_size": 31, "cluster_id": 2, "rank_in_cluster": 17}

>  <energy>  (21) 
-8.37

>  <cluster_rmsd>  (21) 
1.53

>  <cluster>  (21) 
2

$$$$

     RDKit          3D

 49 51  0  0  0  0  0  0  0  0999 V2000
  138.3910   68.9220  225.1310 C   0  0  0  0  0  0  0  0  0  0  0  0
  139.3470   69.9850  224.8610 N   0  0  0  0  0  0  0  0  0  0  0  0
  139.5960   70.3680  223.4680 C   0  0  0  0  0  0  0  0  0  0  0  0
  138.8790   71.6760  223.2040 C   0  0  0  0  0  0  0  0  0  0  0  0
  139.7890   72.6330  222.6090 N   0  0  0  0  0  0  0  0  0  0  0  0
  140.6340   72.3520  221.5120 C   0  0  0  0  0  0  0  0  0  0  0  0
  140.5680   71.1670  221.0440 O   0  0  0  0  0  0  0  0  0  0  0  0
  141.5670   73.2690  220.8680 C   0  0  0  0  0  0  0  0  0  0  0  0
  141.6470   74.5920  221.4360 N   0  0  0  0  0  0  0  0  0  0  0  0
  140.4110   75.3170  221.5370 C   0  0  0  0  0  0  0  0  0  0  0  0
  139.3900   74.7180  221.1160 O   0  0  0  0  0  0  0  0  0  0  0  0
  140.3540   76.6610  222.0920 C   0  0  0  0  0  0  0  0  0  0  0  0
  139.1070   77.1530  222.4430 C   0  0  0  0  0  0  0  0  0  0  0  0
  138.9410   78.4150  222.9770 C   0  0  0  0  0  0  0  0  0  0  0  0
  140.0750   79.1880  223.1530 C   0  0  0  0  0  0  0  0  0  0  0  0
  139.9760   80.4650  223.6850 C   0  0  0  0  0  0  0  0  0  0  0  0
  141.0620   81.2670  223.8810 C   0  0  0  0  0  0  0  0  0  0  0  0
  142.3070   80.7480  223.5190 C   0  0  0  0  0  0  0  0  0  0  0  0
  142.4310   79.4850  222.9900 C   0  0  0  0  0  0  0  0  0  0  0  0
  141.3150   78.6940  222.8020 C   0  0  0  0  0  0  0  0  0  0  0  0
  141.4350   77.4390  222.2780 N   0  0  0  0  0  0  0  0  0  0  0  0
  139.9840   70.5880  225.9580 C   0  0  0  0  0  0  0  0  0  0  0  0
  139.7710   70.0240  227.2130 C   0  0  0  0  0  0  0  0  0  0  0  0
  140.3790   70.5840  228.3420 C   0  0  0  0  0  0  0  0  0  0  0  0
  141.1870   71.6860  228.2530 C   0  0  0  0  0  0  0  0  0  0  0  0
  141.4040   72.2520  227.0140 C   0  0  0  0  0  0  0  0  0  0  0  0
  140.7960   71.6860  225.9090 C   0  0  0  0  0  0  0  0  0  0  0  0
  138.2788   68.7972  226.2181 H   0  0  0  0  0  0  0  0  0  0  0  0
  137.4179   69.1831  224.6895 H   0  0  0  0  0  0  0  0  0  0  0  0
  138.7535   67.9820  224.6895 H   0  0  0  0  0  0  0  0  0  0  0  0
  140.6762   70.4952  223.3037 H   0  0  0  0  0  0  0  0  0  0  0  0
  139.2274   69.5872  222.7865 H   0  0  0  0  0  0  0  0  0  0  0  0
  138.0387   71.4977  222.5169 H   0  0  0  0  0  0  0  0  0  0  0  0
  138.5055   72.0797  224.1566 H   0  0  0  0  0  0  0  0  0  0  0  0
  139.8280   73.5950  223.0070 H   0  0  0  0  0  0  0  0  0  0  0  0
  142.5697   72.8197  220.9191 H   0  0  0  0  0  0  0  0  0  0  0  0
  141.1875   73.4081  219.8450 H   0  0  0  0  0  0  0  0  0  0  0  0
  142.5090   75.0590  221.7740 H   0  0  0  0  0  0  0  0  0  0  0  0
  138.2217   76.5180  222.2913 H   0  0  0  0  0  0  0  0  0  0  0  0
  137.9449   78.7919  223.2522 H   0  0  0  0  0  0  0  0  0  0  0  0
  138.9816   80.8465  223.9600 H   0  0  0  0  0  0  0  0  0  0  0  0
  140.9616   82.2770  224.3051 H   0  0  0  0  0  0  0  0  0  0  0  0
  143.2080   81.3631  223.6602 H   0  0  0  0  0  0  0  0  0  0  0  0
  143.4250   79.1025  222.7150 H   0  0  0  0  0  0  0  0  0  0  0  0
  139.1256   69.1393  227.3168 H   0  0  0  0  0  0  0  0  0  0  0  0
  140.2033   70.1270  229.3270 H   0  0  0  0  0  0  0  0  0  0  0  0
  141.6544   72.1120  229.1530 H   0  0  0  0  0  0  0  0  0  0  0  0
  142.0486   73.1369  226.9072 H   0  0  0  0  0  0  0  0  0  0  0  0
  140.9774   72.1490  224.9278 H   0  0  0  0  0  0  0  0  0  0  0  0
  1  2  1  0
  2  3  1  0
  3  4  1  0
  4  5  1  0
  5  6  1  0
  6  7  2  0
  6  8  1  0
  8  9  1  0
  9 10  1  0
 10 11  2  0
 10 12  1  0
 12 13  2  0
 13 14  1  0
 14 15  2  0
 15 16  1  0
 16 17  2  0
 17 18  1  0
 18 19  2  0
 19 20  1  0
 20 21  2  0
  2 22  1  0
 22 23  2  0
 23 24  1  0
 24 25  2  0
 25 26  1  0
 26 27  2  0
 21 12  1  0
 27 22  1  0
 20 15  1  0
  1 28  1  0
  1 29  1  0
  1 30  1  0
  3 31  1  0
  3 32  1  0
  4 33  1  0
  4 34  1  0
  5 35  1  0
  8 36  1  0
  8 37  1  0
  9 38  1  0
 13 39  1  0
 14 40  1  0
 16 41  1  0
 17 42  1  0
 18 43  1  0
 19 44  1  0
 23 45  1  0
 24 46  1  0
 25 47  1  0
 26 48  1  0
 27 49  1  0
M  END
>  <smiles>  (22) 
CN(CCNC(=O)CNC(=O)c1ccc2ccccc2n1)c1ccccc1

>  <score_type>  (22) 
oracle

>  <origin>  (22) 
autodockgpu

>  <m_score__min__energy>  (22) 
-8.4499999999999993

>  <m_primary>  (22) 
energy

>  <rmsd>  (22) 
8.704305108201117

>  <m_score__min__rmsd>  (22) 
8.704305108201117

>  <meeko>  (22) 
{"free_energy": -8.19, "intermolecular_energy": -10.28, "internal_energy": -1.56, "cluster_size": 18, "cluster_id": 1, "rank_in_cluster": 6}

>  <energy>  (22) 
-8.29

>  <cluster_rmsd>  (22) 
1.51

>  <cluster>  (22) 
2

$$$$

     RDKit          3D

 49 51  0  0  0  0  0  0  0  0999 V2000
  138.4000   69.2320  224.4100 C   0  0  0  0  0  0  0  0  0  0  0  0
  139.3510   70.0860  225.1060 N   0  0  0  0  0  0  0  0  0  0  0  0
  139.5740   71.4450  224.6010 C   0  0  0  0  0  0  0  0  0  0  0  0
  138.9860   71.5310  223.2080 C   0  0  0  0  0  0  0  0  0  0  0  0
  139.6460   72.5750  222.4500 N   0  0  0  0  0  0  0  0  0  0  0  0
  140.6630   72.3440  221.4980 C   0  0  0  0  0  0  0  0  0  0  0  0
  140.9990   71.1260  221.3220 O   0  0  0  0  0  0  0  0  0  0  0  0
  141.3620   73.3480  220.7040 C   0  0  0  0  0  0  0  0  0  0  0  0
  141.5160   74.6440  221.3160 N   0  0  0  0  0  0  0  0  0  0  0  0
  140.3290   75.4470  221.4130 C   0  0  0  0  0  0  0  0  0  0  0  0
  139.2810   74.9300  220.9510 O   0  0  0  0  0  0  0  0  0  0  0  0
  140.3470   76.7740  222.0100 C   0  0  0  0  0  0  0  0  0  0  0  0
  139.1370   77.2990  222.4330 C   0  0  0  0  0  0  0  0  0  0  0  0
  139.0430   78.5490  223.0100 C   0  0  0  0  0  0  0  0  0  0  0  0
  140.2130   79.2750  223.1560 C   0  0  0  0  0  0  0  0  0  0  0  0
  140.1860   80.5380  223.7300 C   0  0  0  0  0  0  0  0  0  0  0  0
  141.3090   81.2940  223.8980 C   0  0  0  0  0  0  0  0  0  0  0  0
  142.5160   80.7410  223.4630 C   0  0  0  0  0  0  0  0  0  0  0  0
  142.5680   79.4920  222.8920 C   0  0  0  0  0  0  0  0  0  0  0  0
  141.4160   78.7480  222.7330 C   0  0  0  0  0  0  0  0  0  0  0  0
  141.4640   77.5060  222.1670 N   0  0  0  0  0  0  0  0  0  0  0  0
  140.0070   69.5580  226.2290 C   0  0  0  0  0  0  0  0  0  0  0  0
  140.3920   70.4520  227.2260 C   0  0  0  0  0  0  0  0  0  0  0  0
  141.0510   69.9820  228.3680 C   0  0  0  0  0  0  0  0  0  0  0  0
  141.3360   68.6540  228.5400 C   0  0  0  0  0  0  0  0  0  0  0  0
  140.9590   67.7610  227.5590 C   0  0  0  0  0  0  0  0  0  0  0  0
  140.3080   68.2420  226.4370 C   0  0  0  0  0  0  0  0  0  0  0  0
  137.7914   68.6855  225.1455 H   0  0  0  0  0  0  0  0  0  0  0  0
  137.7448   69.8508  223.7792 H   0  0  0  0  0  0  0  0  0  0  0  0
  138.9450   68.5143  223.7792 H   0  0  0  0  0  0  0  0  0  0  0  0
  139.0795   72.1737  225.2602 H   0  0  0  0  0  0  0  0  0  0  0  0
  140.6504   71.6704  224.5752 H   0  0  0  0  0  0  0  0  0  0  0  0
  139.1235   70.5675  222.6954 H   0  0  0  0  0  0  0  0  0  0  0  0
  137.9141   71.7659  223.2846 H   0  0  0  0  0  0  0  0  0  0  0  0
  139.3570   73.5630  222.6110 H   0  0  0  0  0  0  0  0  0  0  0  0
  142.3667   72.9601  220.4803 H   0  0  0  0  0  0  0  0  0  0  0  0
  140.7344   73.5127  219.8158 H   0  0  0  0  0  0  0  0  0  0  0  0
  142.3990   75.0420  221.6860 H   0  0  0  0  0  0  0  0  0  0  0  0
  138.2227   76.7010  222.3050 H   0  0  0  0  0  0  0  0  0  0  0  0
  138.0752   78.9534  223.3414 H   0  0  0  0  0  0  0  0  0  0  0  0
  139.2203   80.9460  224.0629 H   0  0  0  0  0  0  0  0  0  0  0  0
  141.2662   82.2936  224.3552 H   0  0  0  0  0  0  0  0  0  0  0  0
  143.4452   81.3180  223.5801 H   0  0  0  0  0  0  0  0  0  0  0  0
  143.5334   79.0826  222.5596 H   0  0  0  0  0  0  0  0  0  0  0  0
  140.1784   71.5254  227.1158 H   0  0  0  0  0  0  0  0  0  0  0  0
  141.3478   70.6987  229.1479 H   0  0  0  0  0  0  0  0  0  0  0  0
  141.8563   68.3056  229.4444 H   0  0  0  0  0  0  0  0  0  0  0  0
  141.1718   66.6871  227.6666 H   0  0  0  0  0  0  0  0  0  0  0  0
  140.0139   67.5181  225.6627 H   0  0  0  0  0  0  0  0  0  0  0  0
  1  2  1  0
  2  3  1  0
  3  4  1  0
  4  5  1  0
  5  6  1  0
  6  7  2  0
  6  8  1  0
  8  9  1  0
  9 10  1  0
 10 11  2  0
 10 12  1  0
 12 13  2  0
 13 14  1  0
 14 15  2  0
 15 16  1  0
 16 17  2  0
 17 18  1  0
 18 19  2  0
 19 20  1  0
 20 21  2  0
  2 22  1  0
 22 23  2  0
 23 24  1  0
 24 25  2  0
 25 26  1  0
 26 27  2  0
 21 12  1  0
 27 22  1  0
 20 15  1  0
  1 28  1  0
  1 29  1  0
  1 30  1  0
  3 31  1  0
  3 32  1  0
  4 33  1  0
  4 34  1  0
  5 35  1  0
  8 36  1  0
  8 37  1  0
  9 38  1  0
 13 39  1  0
 14 40  1  0
 16 41  1  0
 17 42  1  0
 18 43  1  0
 19 44  1  0
 23 45  1  0
 24 46  1  0
 25 47  1  0
 26 48  1  0
 27 49  1  0
M  END
>  <smiles>  (23) 
CN(CCNC(=O)CNC(=O)c1ccc2ccccc2n1)c1ccccc1

>  <score_type>  (23) 
oracle

>  <origin>  (23) 
autodockgpu

>  <m_score__min__energy>  (23) 
-8.4499999999999993

>  <m_primary>  (23) 
energy

>  <rmsd>  (23) 
9.261219877502828

>  <m_score__min__rmsd>  (23) 
9.261219877502828

>  <meeko>  (23) 
{"free_energy": -7.94, "intermolecular_energy": -10.03, "internal_energy": -1.8, "cluster_size": 18, "cluster_id": 1, "rank_in_cluster": 15}

>  <energy>  (23) 
-8.25

>  <cluster_rmsd>  (23) 
0.24

>  <cluster>  (23) 
2

$$$$

     RDKit          3D

 49 51  0  0  0  0  0  0  0  0999 V2000
  137.9880   69.7860  224.7250 C   0  0  0  0  0  0  0  0  0  0  0  0
  139.2670   70.3290  225.1560 N   0  0  0  0  0  0  0  0  0  0  0  0
  139.7930   71.5140  224.4700 C   0  0  0  0  0  0  0  0  0  0  0  0
  139.1820   71.5650  223.0840 C   0  0  0  0  0  0  0  0  0  0  0  0
  139.7750   72.6410  222.3160 N   0  0  0  0  0  0  0  0  0  0  0  0
  140.8430   72.4730  221.4060 C   0  0  0  0  0  0  0  0  0  0  0  0
  141.2910   71.2850  221.2810 O   0  0  0  0  0  0  0  0  0  0  0  0
  141.4790   73.5110  220.6040 C   0  0  0  0  0  0  0  0  0  0  0  0
  141.6010   74.8060  221.2250 N   0  0  0  0  0  0  0  0  0  0  0  0
  140.3910   75.5740  221.3370 C   0  0  0  0  0  0  0  0  0  0  0  0
  139.3560   75.0310  220.8770 O   0  0  0  0  0  0  0  0  0  0  0  0
  140.3760   76.8960  221.9430 C   0  0  0  0  0  0  0  0  0  0  0  0
  139.1580   77.3750  222.3980 C   0  0  0  0  0  0  0  0  0  0  0  0
  139.0320   78.6160  222.9880 C   0  0  0  0  0  0  0  0  0  0  0  0
  140.1780   79.3820  223.1140 C   0  0  0  0  0  0  0  0  0  0  0  0
  140.1190   80.6390  223.6980 C   0  0  0  0  0  0  0  0  0  0  0  0
  141.2190   81.4340  223.8480 C   0  0  0  0  0  0  0  0  0  0  0  0
  142.4340   80.9280  223.3810 C   0  0  0  0  0  0  0  0  0  0  0  0
  142.5170   79.6860  222.7980 C   0  0  0  0  0  0  0  0  0  0  0  0
  141.3900   78.9020  222.6600 C   0  0  0  0  0  0  0  0  0  0  0  0
  141.4700   77.6670  222.0820 N   0  0  0  0  0  0  0  0  0  0  0  0
  139.9330   69.6840  226.2100 C   0  0  0  0  0  0  0  0  0  0  0  0
  140.3200   70.4640  227.2970 C   0  0  0  0  0  0  0  0  0  0  0  0
  140.9880   69.8750  228.3760 C   0  0  0  0  0  0  0  0  0  0  0  0
  141.2800   68.5360  228.3980 C   0  0  0  0  0  0  0  0  0  0  0  0
  140.9020   67.7560  227.3260 C   0  0  0  0  0  0  0  0  0  0  0  0
  140.2420   68.3540  226.2690 C   0  0  0  0  0  0  0  0  0  0  0  0
  137.3828   69.5291  225.6069 H   0  0  0  0  0  0  0  0  0  0  0  0
  137.4561   70.5359  224.1211 H   0  0  0  0  0  0  0  0  0  0  0  0
  138.1580   68.8825  224.1211 H   0  0  0  0  0  0  0  0  0  0  0  0
  139.5218   72.4206  225.0307 H   0  0  0  0  0  0  0  0  0  0  0  0
  140.8895   71.4596  224.4016 H   0  0  0  0  0  0  0  0  0  0  0  0
  139.3641   70.6091  222.5711 H   0  0  0  0  0  0  0  0  0  0  0  0
  138.1001   71.7420  223.1745 H   0  0  0  0  0  0  0  0  0  0  0  0
  139.3950   73.6030  222.4340 H   0  0  0  0  0  0  0  0  0  0  0  0
  142.4910   73.1647  220.3472 H   0  0  0  0  0  0  0  0  0  0  0  0
  140.8194   73.6601  219.7364 H   0  0  0  0  0  0  0  0  0  0  0  0
  142.4740   75.2260  221.5930 H   0  0  0  0  0  0  0  0  0  0  0  0
  138.2628   76.7458  222.2852 H   0  0  0  0  0  0  0  0  0  0  0  0
  138.0581   78.9825  223.3446 H   0  0  0  0  0  0  0  0  0  0  0  0
  139.1469   81.0102  224.0546 H   0  0  0  0  0  0  0  0  0  0  0  0
  141.1512   82.4275  224.3153 H   0  0  0  0  0  0  0  0  0  0  0  0
  143.3446   81.5368  223.4819 H   0  0  0  0  0  0  0  0  0  0  0  0
  143.4882   79.3146  222.4391 H   0  0  0  0  0  0  0  0  0  0  0  0
  140.1007   71.5419  227.3071 H   0  0  0  0  0  0  0  0  0  0  0  0
  141.2865   70.5026  229.2286 H   0  0  0  0  0  0  0  0  0  0  0  0
  141.8065   68.0918  229.2556 H   0  0  0  0  0  0  0  0  0  0  0  0
  141.1214   66.6782  227.3121 H   0  0  0  0  0  0  0  0  0  0  0  0
  139.9465   67.7188  225.4210 H   0  0  0  0  0  0  0  0  0  0  0  0
  1  2  1  0
  2  3  1  0
  3  4  1  0
  4  5  1  0
  5  6  1  0
  6  7  2  0
  6  8  1  0
  8  9  1  0
  9 10  1  0
 10 11  2  0
 10 12  1  0
 12 13  2  0
 13 14  1  0
 14 15  2  0
 15 16  1  0
 16 17  2  0
 17 18  1  0
 18 19  2  0
 19 20  1  0
 20 21  2  0
  2 22  1  0
 22 23  2  0
 23 24  1  0
 24 25  2  0
 25 26  1  0
 26 27  2  0
 21 12  1  0
 27 22  1  0
 20 15  1  0
  1 28  1  0
  1 29  1  0
  1 30  1  0
  3 31  1  0
  3 32  1  0
  4 33  1  0
  4 34  1  0
  5 35  1  0
  8 36  1  0
  8 37  1  0
  9 38  1  0
 13 39  1  0
 14 40  1  0
 16 41  1  0
 17 42  1  0
 18 43  1  0
 19 44  1  0
 23 45  1  0
 24 46  1  0
 25 47  1  0
 26 48  1  0
 27 49  1  0
M  END
>  <smiles>  (24) 
CN(CCNC(=O)CNC(=O)c1ccc2ccccc2n1)c1ccccc1

>  <score_type>  (24) 
oracle

>  <origin>  (24) 
autodockgpu

>  <m_score__min__energy>  (24) 
-8.4499999999999993

>  <m_primary>  (24) 
energy

>  <rmsd>  (24) 
9.25836976910155

>  <m_score__min__rmsd>  (24) 
9.25836976910155

>  <meeko>  (24) 
{"free_energy": -7.86, "intermolecular_energy": -9.95, "internal_energy": -1.79, "cluster_size": 18, "cluster_id": 1, "rank_in_cluster": 16}

>  <energy>  (24) 
-8.22

>  <cluster_rmsd>  (24) 
1.51

>  <cluster>  (24) 
2

$$$$

     RDKit          3D

 49 51  0  0  0  0  0  0  0  0999 V2000
  139.4330   78.4110  220.2790 C   0  0  0  0  0  0  0  0  0  0  0  0
  140.8790   78.5290  220.3810 N   0  0  0  0  0  0  0  0  0  0  0  0
  141.7030   78.0430  219.2690 C   0  0  0  0  0  0  0  0  0  0  0  0
  142.2690   76.6930  219.6580 C   0  0  0  0  0  0  0  0  0  0  0  0
  141.2110   75.7060  219.7220 N   0  0  0  0  0  0  0  0  0  0  0  0
  140.8150   75.0410  220.9040 C   0  0  0  0  0  0  0  0  0  0  0  0
  141.4540   75.3530  221.9630 O   0  0  0  0  0  0  0  0  0  0  0  0
  139.7590   74.0440  221.0340 C   0  0  0  0  0  0  0  0  0  0  0  0
  139.6380   73.4160  222.3260 N   0  0  0  0  0  0  0  0  0  0  0  0
  140.1760   72.0880  222.4410 C   0  0  0  0  0  0  0  0  0  0  0  0
  140.6940   71.6170  221.3980 O   0  0  0  0  0  0  0  0  0  0  0  0
  140.1190   71.3440  223.6890 C   0  0  0  0  0  0  0  0  0  0  0  0
  139.5550   70.0790  223.6520 C   0  0  0  0  0  0  0  0  0  0  0  0
  139.4500   69.2890  224.7790 C   0  0  0  0  0  0  0  0  0  0  0  0
  139.9330   69.8070  225.9680 C   0  0  0  0  0  0  0  0  0  0  0  0
  139.8580   69.0640  227.1370 C   0  0  0  0  0  0  0  0  0  0  0  0
  140.3200   69.5260  228.3350 C   0  0  0  0  0  0  0  0  0  0  0  0
  140.8840   70.8040  228.3460 C   0  0  0  0  0  0  0  0  0  0  0  0
  140.9690   71.5600  227.2010 C   0  0  0  0  0  0  0  0  0  0  0  0
  140.4940   71.0680  226.0020 C   0  0  0  0  0  0  0  0  0  0  0  0
  140.5780   71.8160  224.8620 N   0  0  0  0  0  0  0  0  0  0  0  0
  141.4100   79.1030  221.5470 C   0  0  0  0  0  0  0  0  0  0  0  0
  141.2770   78.3860  222.7330 C   0  0  0  0  0  0  0  0  0  0  0  0
  141.7860   78.9090  223.9270 C   0  0  0  0  0  0  0  0  0  0  0  0
  142.4190   80.1230  223.9680 C   0  0  0  0  0  0  0  0  0  0  0  0
  142.5570   80.8410  222.7990 C   0  0  0  0  0  0  0  0  0  0  0  0
  142.0480   80.3080  221.6290 C   0  0  0  0  0  0  0  0  0  0  0  0
  138.9960   78.3753  221.2878 H   0  0  0  0  0  0  0  0  0  0  0  0
  139.0316   79.2794  219.7360 H   0  0  0  0  0  0  0  0  0  0  0  0
  139.1777   77.4890  219.7360 H   0  0  0  0  0  0  0  0  0  0  0  0
  141.0859   77.9419  218.3640 H   0  0  0  0  0  0  0  0  0  0  0  0
  142.5176   78.7520  219.0600 H   0  0  0  0  0  0  0  0  0  0  0  0
  143.0119   76.3811  218.9091 H   0  0  0  0  0  0  0  0  0  0  0  0
  142.7437   76.7746  220.6470 H   0  0  0  0  0  0  0  0  0  0  0  0
  140.7030   75.4660  218.8460 H   0  0  0  0  0  0  0  0  0  0  0  0
  138.8017   74.5365  220.8082 H   0  0  0  0  0  0  0  0  0  0  0  0
  140.0258   73.2369  220.3359 H   0  0  0  0  0  0  0  0  0  0  0  0
  139.2010   73.8340  223.1680 H   0  0  0  0  0  0  0  0  0  0  0  0
  139.1788   69.6918  222.6936 H   0  0  0  0  0  0  0  0  0  0  0  0
  138.9998   68.2864  224.7338 H   0  0  0  0  0  0  0  0  0  0  0  0
  139.4076   68.0612  227.0966 H   0  0  0  0  0  0  0  0  0  0  0  0
  140.2515   68.9198  229.2503 H   0  0  0  0  0  0  0  0  0  0  0  0
  141.2685   71.2143  229.2914 H   0  0  0  0  0  0  0  0  0  0  0  0
  141.4183   72.5633  227.2406 H   0  0  0  0  0  0  0  0  0  0  0  0
  140.7720   77.4088  222.7315 H   0  0  0  0  0  0  0  0  0  0  0  0
  141.6750   78.3306  224.8560 H   0  0  0  0  0  0  0  0  0  0  0  0
  142.8104   80.5182  224.9170 H   0  0  0  0  0  0  0  0  0  0  0  0
  143.0619   81.8183  222.7972 H   0  0  0  0  0  0  0  0  0  0  0  0
  142.1644   80.8923  220.7043 H   0  0  0  0  0  0  0  0  0  0  0  0
  1  2  1  0
  2  3  1  0
  3  4  1  0
  4  5  1  0
  5  6  1  0
  6  7  2  0
  6  8  1  0
  8  9  1  0
  9 10  1  0
 10 11  2  0
 10 12  1  0
 12 13  2  0
 13 14  1  0
 14 15  2  0
 15 16  1  0
 16 17  2  0
 17 18  1  0
 18 19  2  0
 19 20  1  0
 20 21  2  0
  2 22  1  0
 22 23  2  0
 23 24  1  0
 24 25  2  0
 25 26  1  0
 26 27  2  0
 21 12  1  0
 27 22  1  0
 20 15  1  0
  1 28  1  0
  1 29  1  0
  1 30  1  0
  3 31  1  0
  3 32  1  0
  4 33  1  0
  4 34  1  0
  5 35  1  0
  8 36  1  0
  8 37  1  0
  9 38  1  0
 13 39  1  0
 14 40  1  0
 16 41  1  0
 17 42  1  0
 18 43  1  0
 19 44  1  0
 23 45  1  0
 24 46  1  0
 25 47  1  0
 26 48  1  0
 27 49  1  0
M  END
>  <smiles>  (25) 
CN(CCNC(=O)CNC(=O)c1ccc2ccccc2n1)c1ccccc1

>  <score_type>  (25) 
oracle

>  <origin>  (25) 
autodockgpu

>  <m_score__min__energy>  (25) 
-8.4499999999999993

>  <m_primary>  (25) 
energy

>  <rmsd>  (25) 
5.020999669180049

>  <m_score__min__rmsd>  (25) 
5.020999669180049

>  <meeko>  (25) 
{"free_energy": -8.25, "intermolecular_energy": -10.34, "internal_energy": -1.41, "cluster_size": 31, "cluster_id": 2, "rank_in_cluster": 5}

>  <energy>  (25) 
-8.2

>  <cluster_rmsd>  (25) 
1.12

>  <cluster>  (25) 
2

$$$$

     RDKit          3D

 49 51  0  0  0  0  0  0  0  0999 V2000
  139.9900   76.5720  221.1830 C   0  0  0  0  0  0  0  0  0  0  0  0
  139.4580   77.2340  222.3650 N   0  0  0  0  0  0  0  0  0  0  0  0
  138.2830   76.6550  223.0230 C   0  0  0  0  0  0  0  0  0  0  0  0
  137.5830   75.7530  222.0290 C   0  0  0  0  0  0  0  0  0  0  0  0
  138.2480   74.4680  221.9650 N   0  0  0  0  0  0  0  0  0  0  0  0
  138.0460   73.5170  220.9400 C   0  0  0  0  0  0  0  0  0  0  0  0
  137.2150   73.8440  220.0290 O   0  0  0  0  0  0  0  0  0  0  0  0
  138.6850   72.2120  220.8190 C   0  0  0  0  0  0  0  0  0  0  0  0
  138.8020   71.4490  222.0360 N   0  0  0  0  0  0  0  0  0  0  0  0
  139.8000   71.8910  222.9700 C   0  0  0  0  0  0  0  0  0  0  0  0
  140.4660   72.8980  222.6220 O   0  0  0  0  0  0  0  0  0  0  0  0
  140.0200   71.2100  224.2370 C   0  0  0  0  0  0  0  0  0  0  0  0
  140.7390   71.8880  225.2080 C   0  0  0  0  0  0  0  0  0  0  0  0
  141.0050   71.3320  226.4430 C   0  0  0  0  0  0  0  0  0  0  0  0
  140.5260   70.0570  226.6870 C   0  0  0  0  0  0  0  0  0  0  0  0
  140.7590   69.4430  227.9090 C   0  0  0  0  0  0  0  0  0  0  0  0
  140.3080   68.1880  228.2000 C   0  0  0  0  0  0  0  0  0  0  0  0
  139.5870   67.5270  227.2040 C   0  0  0  0  0  0  0  0  0  0  0  0
  139.3430   68.1150  225.9850 C   0  0  0  0  0  0  0  0  0  0  0  0
  139.8110   69.3850  225.7160 C   0  0  0  0  0  0  0  0  0  0  0  0
  139.5690   69.9720  224.5070 N   0  0  0  0  0  0  0  0  0  0  0  0
  140.1030   78.3990  222.8110 C   0  0  0  0  0  0  0  0  0  0  0  0
  141.4720   78.3220  223.0490 C   0  0  0  0  0  0  0  0  0  0  0  0
  142.1670   79.4520  223.4960 C   0  0  0  0  0  0  0  0  0  0  0  0
  141.5350   80.6480  223.7120 C   0  0  0  0  0  0  0  0  0  0  0  0
  140.1790   80.7340  223.4780 C   0  0  0  0  0  0  0  0  0  0  0  0
  139.5080   79.6080  223.0360 C   0  0  0  0  0  0  0  0  0  0  0  0
  140.6516   75.7487  221.4904 H   0  0  0  0  0  0  0  0  0  0  0  0
  139.1601   76.1709  220.5826 H   0  0  0  0  0  0  0  0  0  0  0  0
  140.5603   77.2961  220.5826 H   0  0  0  0  0  0  0  0  0  0  0  0
  138.5974   76.0701  223.9000 H   0  0  0  0  0  0  0  0  0  0  0  0
  137.6031   77.4520  223.3584 H   0  0  0  0  0  0  0  0  0  0  0  0
  136.5391   75.6066  222.3436 H   0  0  0  0  0  0  0  0  0  0  0  0
  137.6133   76.2227  221.0348 H   0  0  0  0  0  0  0  0  0  0  0  0
  138.9220   74.2200  222.7200 H   0  0  0  0  0  0  0  0  0  0  0  0
  138.0996   71.6160  220.1034 H   0  0  0  0  0  0  0  0  0  0  0  0
  139.7169   72.4165  220.4976 H   0  0  0  0  0  0  0  0  0  0  0  0
  138.2360   70.6200  222.2920 H   0  0  0  0  0  0  0  0  0  0  0  0
  141.1091   72.9002  224.9880 H   0  0  0  0  0  0  0  0  0  0  0  0
  141.5766   71.8821  227.2050 H   0  0  0  0  0  0  0  0  0  0  0  0
  141.3301   69.9894  228.6741 H   0  0  0  0  0  0  0  0  0  0  0  0
  140.5038   67.7186  229.1754 H   0  0  0  0  0  0  0  0  0  0  0  0
  139.2057   66.5137  227.3985 H   0  0  0  0  0  0  0  0  0  0  0  0
  138.7713   67.5696  225.2197 H   0  0  0  0  0  0  0  0  0  0  0  0
  142.0071   77.3748  222.8861 H   0  0  0  0  0  0  0  0  0  0  0  0
  143.2492   79.3776  223.6786 H   0  0  0  0  0  0  0  0  0  0  0  0
  142.0990   81.5237  224.0657 H   0  0  0  0  0  0  0  0  0  0  0  0
  139.6411   81.6798  223.6397 H   0  0  0  0  0  0  0  0  0  0  0  0
  138.4264   79.6914  222.8541 H   0  0  0  0  0  0  0  0  0  0  0  0
  1  2  1  0
  2  3  1  0
  3  4  1  0
  4  5  1  0
  5  6  1  0
  6  7  2  0
  6  8  1  0
  8  9  1  0
  9 10  1  0
 10 11  2  0
 10 12  1  0
 12 13  2  0
 13 14  1  0
 14 15  2  0
 15 16  1  0
 16 17  2  0
 17 18  1  0
 18 19  2  0
 19 20  1  0
 20 21  2  0
  2 22  1  0
 22 23  2  0
 23 24  1  0
 24 25  2  0
 25 26  1  0
 26 27  2  0
 21 12  1  0
 27 22  1  0
 20 15  1  0
  1 28  1  0
  1 29  1  0
  1 30  1  0
  3 31  1  0
  3 32  1  0
  4 33  1  0
  4 34  1  0
  5 35  1  0
  8 36  1  0
  8 37  1  0
  9 38  1  0
 13 39  1  0
 14 40  1  0
 16 41  1  0
 17 42  1  0
 18 43  1  0
 19 44  1  0
 23 45  1  0
 24 46  1  0
 25 47  1  0
 26 48  1  0
 27 49  1  0
M  END
>  <smiles>  (26) 
CN(CCNC(=O)CNC(=O)c1ccc2ccccc2n1)c1ccccc1

>  <score_type>  (26) 
oracle

>  <origin>  (26) 
autodockgpu

>  <m_score__min__energy>  (26) 
-8.4499999999999993

>  <m_primary>  (26) 
energy

>  <rmsd>  (26) 
4.132077166150939

>  <m_score__min__rmsd>  (26) 
4.132077166150939

>  <meeko>  (26) 
{"free_energy": -7.92, "intermolecular_energy": -10.01, "internal_energy": -1.88, "cluster_size": 31, "cluster_id": 2, "rank_in_cluster": 18}

>  <energy>  (26) 
-8.16

>  <cluster_rmsd>  (26) 
1.52

>  <cluster>  (26) 
2

$$$$

     RDKit          3D

 49 51  0  0  0  0  0  0  0  0999 V2000
  140.6930   71.4940  223.3370 C   0  0  0  0  0  0  0  0  0  0  0  0
  139.7140   70.9090  224.2400 N   0  0  0  0  0  0  0  0  0  0  0  0
  138.4460   70.4260  223.6820 C   0  0  0  0  0  0  0  0  0  0  0  0
  137.5300   71.6180  223.4950 C   0  0  0  0  0  0  0  0  0  0  0  0
  138.1420   72.5840  222.6060 N   0  0  0  0  0  0  0  0  0  0  0  0
  138.0420   72.5440  221.1980 C   0  0  0  0  0  0  0  0  0  0  0  0
  137.3640   71.5790  220.7120 O   0  0  0  0  0  0  0  0  0  0  0  0
  138.6300   73.4850  220.2520 C   0  0  0  0  0  0  0  0  0  0  0  0
  138.6890   74.8600  220.6800 N   0  0  0  0  0  0  0  0  0  0  0  0
  139.6910   75.1790  221.6590 C   0  0  0  0  0  0  0  0  0  0  0  0
  140.4100   74.2200  222.0370 O   0  0  0  0  0  0  0  0  0  0  0  0
  139.8570   76.5290  222.1750 C   0  0  0  0  0  0  0  0  0  0  0  0
  138.7120   77.2120  222.5530 C   0  0  0  0  0  0  0  0  0  0  0  0
  138.7570   78.4970  223.0530 C   0  0  0  0  0  0  0  0  0  0  0  0
  140.0000   79.0950  223.1680 C   0  0  0  0  0  0  0  0  0  0  0  0
  140.1130   80.3850  223.6650 C   0  0  0  0  0  0  0  0  0  0  0  0
  141.3140   81.0190  223.8000 C   0  0  0  0  0  0  0  0  0  0  0  0
  142.4520   80.3100  223.4110 C   0  0  0  0  0  0  0  0  0  0  0  0
  142.3650   79.0300  222.9170 C   0  0  0  0  0  0  0  0  0  0  0  0
  141.1380   78.4120  222.7910 C   0  0  0  0  0  0  0  0  0  0  0  0
  141.0490   77.1400  222.3000 N   0  0  0  0  0  0  0  0  0  0  0  0
  140.0370   70.8410  225.6040 C   0  0  0  0  0  0  0  0  0  0  0  0
  140.7950   71.8810  226.1360 C   0  0  0  0  0  0  0  0  0  0  0  0
  141.1490   71.8650  227.4900 C   0  0  0  0  0  0  0  0  0  0  0  0
  140.7700   70.8450  228.3210 C   0  0  0  0  0  0  0  0  0  0  0  0
  140.0190   69.8110  227.8040 C   0  0  0  0  0  0  0  0  0  0  0  0
  139.6780   69.8420  226.4650 C   0  0  0  0  0  0  0  0  0  0  0  0
  141.4924   71.9717  223.9225 H   0  0  0  0  0  0  0  0  0  0  0  0
  141.1242   70.7054  222.7029 H   0  0  0  0  0  0  0  0  0  0  0  0
  140.2027   72.2473  222.7029 H   0  0  0  0  0  0  0  0  0  0  0  0
  138.6268   69.9389  222.7124 H   0  0  0  0  0  0  0  0  0  0  0  0
  137.9849   69.6938  224.3612 H   0  0  0  0  0  0  0  0  0  0  0  0
  136.5767   71.2795  223.0630 H   0  0  0  0  0  0  0  0  0  0  0  0
  137.3524   72.0912  224.4720 H   0  0  0  0  0  0  0  0  0  0  0  0
  138.6920   73.3640  223.0240 H   0  0  0  0  0  0  0  0  0  0  0  0
  139.6578   73.1536  220.0430 H   0  0  0  0  0  0  0  0  0  0  0  0
  137.9661   73.4765  219.3750 H   0  0  0  0  0  0  0  0  0  0  0  0
  138.0780   75.6280  220.3480 H   0  0  0  0  0  0  0  0  0  0  0  0
  137.7366   76.7139  222.4512 H   0  0  0  0  0  0  0  0  0  0  0  0
  137.8394   79.0265  223.3492 H   0  0  0  0  0  0  0  0  0  0  0  0
  139.1980   80.9184  223.9622 H   0  0  0  0  0  0  0  0  0  0  0  0
  141.3823   82.0424  224.1974 H   0  0  0  0  0  0  0  0  0  0  0  0
  143.4396   80.7858  223.5017 H   0  0  0  0  0  0  0  0  0  0  0  0
  143.2794   78.4953  222.6204 H   0  0  0  0  0  0  0  0  0  0  0  0
  141.1151   72.7140  225.4929 H   0  0  0  0  0  0  0  0  0  0  0  0
  141.7473   72.6934  227.8971 H   0  0  0  0  0  0  0  0  0  0  0  0
  141.0596   70.8505  229.3822 H   0  0  0  0  0  0  0  0  0  0  0  0
  139.6972   68.9770  228.4451 H   0  0  0  0  0  0  0  0  0  0  0  0
  139.0794   69.0095  226.0667 H   0  0  0  0  0  0  0  0  0  0  0  0
  1  2  1  0
  2  3  1  0
  3  4  1  0
  4  5  1  0
  5  6  1  0
  6  7  2  0
  6  8  1  0
  8  9  1  0
  9 10  1  0
 10 11  2  0
 10 12  1  0
 12 13  2  0
 13 14  1  0
 14 15  2  0
 15 16  1  0
 16 17  2  0
 17 18  1  0
 18 19  2  0
 19 20  1  0
 20 21  2  0
  2 22  1  0
 22 23  2  0
 23 24  1  0
 24 25  2  0
 25 26  1  0
 26 27  2  0
 21 12  1  0
 27 22  1  0
 20 15  1  0
  1 28  1  0
  1 29  1  0
  1 30  1  0
  3 31  1  0
  3 32  1  0
  4 33  1  0
  4 34  1  0
  5 35  1  0
  8 36  1  0
  8 37  1  0
  9 38  1  0
 13 39  1  0
 14 40  1  0
 16 41  1  0
 17 42  1  0
 18 43  1  0
 19 44  1  0
 23 45  1  0
 24 46  1  0
 25 47  1  0
 26 48  1  0
 27 49  1  0
M  END
>  <smiles>  (27) 
CN(CCNC(=O)CNC(=O)c1ccc2ccccc2n1)c1ccccc1

>  <score_type>  (27) 
oracle

>  <origin>  (27) 
autodockgpu

>  <m_score__min__energy>  (27) 
-8.4499999999999993

>  <m_primary>  (27) 
energy

>  <rmsd>  (27) 
8.714692795227501

>  <m_score__min__rmsd>  (27) 
8.714692795227501

>  <meeko>  (27) 
{"free_energy": -8.07, "intermolecular_energy": -10.16, "internal_energy": -1.86, "cluster_size": 18, "cluster_id": 1, "rank_in_cluster": 11}

>  <energy>  (27) 
-8.14

>  <cluster_rmsd>  (27) 
1.55

>  <cluster>  (27) 
2

$$$$

     RDKit          3D

 49 51  0  0  0  0  0  0  0  0999 V2000
  138.8400   77.7820  221.2650 C   0  0  0  0  0  0  0  0  0  0  0  0
  140.2270   78.0890  220.9510 N   0  0  0  0  0  0  0  0  0  0  0  0
  140.7590   77.6780  219.6470 C   0  0  0  0  0  0  0  0  0  0  0  0
  141.6160   76.4470  219.8570 C   0  0  0  0  0  0  0  0  0  0  0  0
  140.7790   75.2710  219.9850 N   0  0  0  0  0  0  0  0  0  0  0  0
  140.3380   74.7400  221.2180 C   0  0  0  0  0  0  0  0  0  0  0  0
  140.7230   75.3600  222.2640 O   0  0  0  0  0  0  0  0  0  0  0  0
  139.4960   73.5660  221.4140 C   0  0  0  0  0  0  0  0  0  0  0  0
  139.6540   72.8760  222.6690 N   0  0  0  0  0  0  0  0  0  0  0  0
  139.4640   71.4510  222.6400 C   0  0  0  0  0  0  0  0  0  0  0  0
  139.1780   70.9620  221.5180 O   0  0  0  0  0  0  0  0  0  0  0  0
  139.5960   70.6360  223.8370 C   0  0  0  0  0  0  0  0  0  0  0  0
  139.1240   69.3350  223.7770 C   0  0  0  0  0  0  0  0  0  0  0  0
  139.1990   68.4780  224.8560 C   0  0  0  0  0  0  0  0  0  0  0  0
  139.7680   68.9640  226.0200 C   0  0  0  0  0  0  0  0  0  0  0  0
  139.8740   68.1530  227.1400 C   0  0  0  0  0  0  0  0  0  0  0  0
  140.4290   68.5820  228.3110 C   0  0  0  0  0  0  0  0  0  0  0  0
  140.8960   69.8970  228.3450 C   0  0  0  0  0  0  0  0  0  0  0  0
  140.8030   70.7210  227.2480 C   0  0  0  0  0  0  0  0  0  0  0  0
  140.2380   70.2610  226.0760 C   0  0  0  0  0  0  0  0  0  0  0  0
  140.1450   71.0760  224.9830 N   0  0  0  0  0  0  0  0  0  0  0  0
  140.9850   78.7650  221.9200 C   0  0  0  0  0  0  0  0  0  0  0  0
  141.7840   79.8210  221.4870 C   0  0  0  0  0  0  0  0  0  0  0  0
  142.5620   80.5300  222.4080 C   0  0  0  0  0  0  0  0  0  0  0  0
  142.5660   80.2150  223.7420 C   0  0  0  0  0  0  0  0  0  0  0  0
  141.7780   79.1720  224.1800 C   0  0  0  0  0  0  0  0  0  0  0  0
  141.0150   78.4820  223.2560 C   0  0  0  0  0  0  0  0  0  0  0  0
  138.7090   77.7530  222.3568 H   0  0  0  0  0  0  0  0  0  0  0  0
  138.1871   78.5574  220.8378 H   0  0  0  0  0  0  0  0  0  0  0  0
  138.5753   76.8035  220.8378 H   0  0  0  0  0  0  0  0  0  0  0  0
  139.9301   77.4433  218.9630 H   0  0  0  0  0  0  0  0  0  0  0  0
  141.3573   78.4889  219.2060 H   0  0  0  0  0  0  0  0  0  0  0  0
  142.2894   76.3218  218.9963 H   0  0  0  0  0  0  0  0  0  0  0  0
  142.2038   76.5715  220.7784 H   0  0  0  0  0  0  0  0  0  0  0  0
  140.4770   74.7790  219.1190 H   0  0  0  0  0  0  0  0  0  0  0  0
  138.4470   73.8879  221.3370 H   0  0  0  0  0  0  0  0  0  0  0  0
  139.8052   72.8477  220.6405 H   0  0  0  0  0  0  0  0  0  0  0  0
  139.8900   73.3120  223.5790 H   0  0  0  0  0  0  0  0  0  0  0  0
  138.6753   68.9737  222.8399 H   0  0  0  0  0  0  0  0  0  0  0  0
  138.8206   67.4470  224.7932 H   0  0  0  0  0  0  0  0  0  0  0  0
  139.4953   67.1218  227.0823 H   0  0  0  0  0  0  0  0  0  0  0  0
  140.5048   67.9218  229.1876 H   0  0  0  0  0  0  0  0  0  0  0  0
  141.3487   70.2829  229.2703 H   0  0  0  0  0  0  0  0  0  0  0  0
  141.1810   71.7524  227.3050 H   0  0  0  0  0  0  0  0  0  0  0  0
  141.8029   80.0968  220.4223 H   0  0  0  0  0  0  0  0  0  0  0  0
  143.1871   81.3623  222.0524 H   0  0  0  0  0  0  0  0  0  0  0  0
  143.1865   80.7839  224.4500 H   0  0  0  0  0  0  0  0  0  0  0  0
  141.7566   78.8940  225.2441 H   0  0  0  0  0  0  0  0  0  0  0  0
  140.3921   77.6518  223.6203 H   0  0  0  0  0  0  0  0  0  0  0  0
  1  2  1  0
  2  3  1  0
  3  4  1  0
  4  5  1  0
  5  6  1  0
  6  7  2  0
  6  8  1  0
  8  9  1  0
  9 10  1  0
 10 11  2  0
 10 12  1  0
 12 13  2  0
 13 14  1  0
 14 15  2  0
 15 16  1  0
 16 17  2  0
 17 18  1  0
 18 19  2  0
 19 20  1  0
 20 21  2  0
  2 22  1  0
 22 23  2  0
 23 24  1  0
 24 25  2  0
 25 26  1  0
 26 27  2  0
 21 12  1  0
 27 22  1  0
 20 15  1  0
  1 28  1  0
  1 29  1  0
  1 30  1  0
  3 31  1  0
  3 32  1  0
  4 33  1  0
  4 34  1  0
  5 35  1  0
  8 36  1  0
  8 37  1  0
  9 38  1  0
 13 39  1  0
 14 40  1  0
 16 41  1  0
 17 42  1  0
 18 43  1  0
 19 44  1  0
 23 45  1  0
 24 46  1  0
 25 47  1  0
 26 48  1  0
 27 49  1  0
M  END
>  <smiles>  (28) 
CN(CCNC(=O)CNC(=O)c1ccc2ccccc2n1)c1ccccc1

>  <score_type>  (28) 
oracle

>  <origin>  (28) 
autodockgpu

>  <m_score__min__energy>  (28) 
-8.4499999999999993

>  <m_primary>  (28) 
energy

>  <rmsd>  (28) 
4.88130349562638

>  <m_score__min__rmsd>  (28) 
4.88130349562638

>  <meeko>  (28) 
{"free_energy": -7.88, "intermolecular_energy": -9.96, "internal_energy": -1.59, "cluster_size": 31, "cluster_id": 2, "rank_in_cluster": 21}

>  <energy>  (28) 
-8.14

>  <cluster_rmsd>  (28) 
1.64

>  <cluster>  (28) 
2

$$$$

     RDKit          3D

 49 51  0  0  0  0  0  0  0  0999 V2000
  140.0510   76.5780  221.1610 C   0  0  0  0  0  0  0  0  0  0  0  0
  139.5400   77.2280  222.3580 N   0  0  0  0  0  0  0  0  0  0  0  0
  138.3520   76.6660  223.0080 C   0  0  0  0  0  0  0  0  0  0  0  0
  137.6450   75.7760  222.0070 C   0  0  0  0  0  0  0  0  0  0  0  0
  138.2960   74.4840  221.9390 N   0  0  0  0  0  0  0  0  0  0  0  0
  138.2680   73.6380  220.8080 C   0  0  0  0  0  0  0  0  0  0  0  0
  137.6150   74.0710  219.8020 O   0  0  0  0  0  0  0  0  0  0  0  0
  138.9040   72.3320  220.6770 C   0  0  0  0  0  0  0  0  0  0  0  0
  138.9580   71.5320  221.8740 N   0  0  0  0  0  0  0  0  0  0  0  0
  139.8970   71.9510  222.8780 C   0  0  0  0  0  0  0  0  0  0  0  0
  140.5720   72.9740  222.6000 O   0  0  0  0  0  0  0  0  0  0  0  0
  140.0510   71.2310  224.1320 C   0  0  0  0  0  0  0  0  0  0  0  0
  140.6770   71.8950  225.1750 C   0  0  0  0  0  0  0  0  0  0  0  0
  140.8750   71.3030  226.4060 C   0  0  0  0  0  0  0  0  0  0  0  0
  140.4230   70.0050  226.5710 C   0  0  0  0  0  0  0  0  0  0  0  0
  140.5910   69.3540  227.7850 C   0  0  0  0  0  0  0  0  0  0  0  0
  140.1630   68.0770  228.0000 C   0  0  0  0  0  0  0  0  0  0  0  0
  139.5370   67.4300  226.9330 C   0  0  0  0  0  0  0  0  0  0  0  0
  139.3590   68.0540  225.7210 C   0  0  0  0  0  0  0  0  0  0  0  0
  139.8010   69.3470  225.5300 C   0  0  0  0  0  0  0  0  0  0  0  0
  139.6250   69.9710  224.3270 N   0  0  0  0  0  0  0  0  0  0  0  0
  140.2160   78.3660  222.8260 C   0  0  0  0  0  0  0  0  0  0  0  0
  139.4480   79.4850  223.1370 C   0  0  0  0  0  0  0  0  0  0  0  0
  140.0680   80.6480  223.6070 C   0  0  0  0  0  0  0  0  0  0  0  0
  141.4260   80.7240  223.7720 C   0  0  0  0  0  0  0  0  0  0  0  0
  142.1950   79.6210  223.4670 C   0  0  0  0  0  0  0  0  0  0  0  0
  141.5660   78.4800  223.0040 C   0  0  0  0  0  0  0  0  0  0  0  0
  140.7072   75.7433  221.4487 H   0  0  0  0  0  0  0  0  0  0  0  0
  139.2100   76.1945  220.5646 H   0  0  0  0  0  0  0  0  0  0  0  0
  140.6222   77.3047  220.5646 H   0  0  0  0  0  0  0  0  0  0  0  0
  138.6518   76.0750  223.8860 H   0  0  0  0  0  0  0  0  0  0  0  0
  137.6821   77.4725  223.3409 H   0  0  0  0  0  0  0  0  0  0  0  0
  136.5986   75.6397  222.3175 H   0  0  0  0  0  0  0  0  0  0  0  0
  137.6837   76.2500  221.0151 H   0  0  0  0  0  0  0  0  0  0  0  0
  138.8230   74.1490  222.7730 H   0  0  0  0  0  0  0  0  0  0  0  0
  138.3495   71.7626  219.9166 H   0  0  0  0  0  0  0  0  0  0  0  0
  139.9513   72.5379  220.4109 H   0  0  0  0  0  0  0  0  0  0  0  0
  138.3870   70.6900  222.0710 H   0  0  0  0  0  0  0  0  0  0  0  0
  141.0269   72.9258  225.0169 H   0  0  0  0  0  0  0  0  0  0  0  0
  141.3732   71.8423  227.2251 H   0  0  0  0  0  0  0  0  0  0  0  0
  141.0893   69.8893  228.6067 H   0  0  0  0  0  0  0  0  0  0  0  0
  140.3047   67.5792  228.9706 H   0  0  0  0  0  0  0  0  0  0  0  0
  139.1784   66.3985  227.0649 H   0  0  0  0  0  0  0  0  0  0  0  0
  138.8612   67.5193  224.8986 H   0  0  0  0  0  0  0  0  0  0  0  0
  138.3554   79.4548  223.0134 H   0  0  0  0  0  0  0  0  0  0  0  0
  139.4490   81.5241  223.8503 H   0  0  0  0  0  0  0  0  0  0  0  0
  141.8943   81.6483  224.1412 H   0  0  0  0  0  0  0  0  0  0  0  0
  143.2878   79.6482  223.5896 H   0  0  0  0  0  0  0  0  0  0  0  0
  142.1924   77.6083  222.7636 H   0  0  0  0  0  0  0  0  0  0  0  0
  1  2  1  0
  2  3  1  0
  3  4  1  0
  4  5  1  0
  5  6  1  0
  6  7  2  0
  6  8  1  0
  8  9  1  0
  9 10  1  0
 10 11  2  0
 10 12  1  0
 12 13  2  0
 13 14  1  0
 14 15  2  0
 15 16  1  0
 16 17  2  0
 17 18  1  0
 18 19  2  0
 19 20  1  0
 20 21  2  0
  2 22  1  0
 22 23  2  0
 23 24  1  0
 24 25  2  0
 25 26  1  0
 26 27  2  0
 21 12  1  0
 27 22  1  0
 20 15  1  0
  1 28  1  0
  1 29  1  0
  1 30  1  0
  3 31  1  0
  3 32  1  0
  4 33  1  0
  4 34  1  0
  5 35  1  0
  8 36  1  0
  8 37  1  0
  9 38  1  0
 13 39  1  0
 14 40  1  0
 16 41  1  0
 17 42  1  0
 18 43  1  0
 19 44  1  0
 23 45  1  0
 24 46  1  0
 25 47  1  0
 26 48  1  0
 27 49  1  0
M  END
>  <smiles>  (29) 
CN(CCNC(=O)CNC(=O)c1ccc2ccccc2n1)c1ccccc1

>  <score_type>  (29) 
oracle

>  <origin>  (29) 
autodockgpu

>  <m_score__min__energy>  (29) 
-8.4499999999999993

>  <m_primary>  (29) 
energy

>  <rmsd>  (29) 
4.045358423281371

>  <m_score__min__rmsd>  (29) 
4.045358423281371

>  <meeko>  (29) 
{"free_energy": -7.89, "intermolecular_energy": -9.98, "internal_energy": -1.88, "cluster_size": 31, "cluster_id": 2, "rank_in_cluster": 20}

>  <energy>  (29) 
-8.13

>  <cluster_rmsd>  (29) 
1.74

>  <cluster>  (29) 
2

$$$$

     RDKit          3D

 49 51  0  0  0  0  0  0  0  0999 V2000
  138.4400   70.2780  224.2330 C   0  0  0  0  0  0  0  0  0  0  0  0
  139.6730   70.8370  224.7680 N   0  0  0  0  0  0  0  0  0  0  0  0
  140.3580   71.8840  224.0040 C   0  0  0  0  0  0  0  0  0  0  0  0
  139.9750   71.7290  222.5460 C   0  0  0  0  0  0  0  0  0  0  0  0
  139.3260   72.9340  222.0700 N   0  0  0  0  0  0  0  0  0  0  0  0
  139.4820   73.4590  220.7680 C   0  0  0  0  0  0  0  0  0  0  0  0
  140.2540   72.8060  219.9900 O   0  0  0  0  0  0  0  0  0  0  0  0
  138.8570   74.6610  220.2280 C   0  0  0  0  0  0  0  0  0  0  0  0
  139.4740   75.9120  220.5910 N   0  0  0  0  0  0  0  0  0  0  0  0
  139.2450   76.3690  221.9340 C   0  0  0  0  0  0  0  0  0  0  0  0
  138.5270   75.6250  222.6480 O   0  0  0  0  0  0  0  0  0  0  0  0
  139.8100   77.6150  222.4270 C   0  0  0  0  0  0  0  0  0  0  0  0
  138.9330   78.5490  222.9530 C   0  0  0  0  0  0  0  0  0  0  0  0
  139.3640   79.7630  223.4460 C   0  0  0  0  0  0  0  0  0  0  0  0
  140.7220   80.0260  223.3980 C   0  0  0  0  0  0  0  0  0  0  0  0
  141.2200   81.2290  223.8790 C   0  0  0  0  0  0  0  0  0  0  0  0
  142.5500   81.5370  223.8560 C   0  0  0  0  0  0  0  0  0  0  0  0
  143.4130   80.5790  223.3200 C   0  0  0  0  0  0  0  0  0  0  0  0
  142.9430   79.3800  222.8380 C   0  0  0  0  0  0  0  0  0  0  0  0
  141.5940   79.0940  222.8730 C   0  0  0  0  0  0  0  0  0  0  0  0
  141.1240   77.9030  222.3960 N   0  0  0  0  0  0  0  0  0  0  0  0
  140.1420   70.3370  225.9930 C   0  0  0  0  0  0  0  0  0  0  0  0
  140.1440   68.9550  226.1640 C   0  0  0  0  0  0  0  0  0  0  0  0
  140.5990   68.4000  227.3650 C   0  0  0  0  0  0  0  0  0  0  0  0
  141.0490   69.1840  228.3950 C   0  0  0  0  0  0  0  0  0  0  0  0
  141.0520   70.5530  228.2360 C   0  0  0  0  0  0  0  0  0  0  0  0
  140.5980   71.0840  227.0420 C   0  0  0  0  0  0  0  0  0  0  0  0
  137.7823   69.9798  225.0628 H   0  0  0  0  0  0  0  0  0  0  0  0
  137.9321   71.0339  223.6160 H   0  0  0  0  0  0  0  0  0  0  0  0
  138.6739   69.3979  223.6160 H   0  0  0  0  0  0  0  0  0  0  0  0
  140.0478   72.8747  224.3678 H   0  0  0  0  0  0  0  0  0  0  0  0
  141.4476   71.7925  224.1239 H   0  0  0  0  0  0  0  0  0  0  0  0
  140.8807   71.5439  221.9498 H   0  0  0  0  0  0  0  0  0  0  0  0
  139.2802   70.8822  222.4447 H   0  0  0  0  0  0  0  0  0  0  0  0
  138.7010   73.4520  222.7220 H   0  0  0  0  0  0  0  0  0  0  0  0
  138.8722   74.5842  219.1308 H   0  0  0  0  0  0  0  0  0  0  0  0
  137.8473   74.6912  220.6634 H   0  0  0  0  0  0  0  0  0  0  0  0
  140.0610   76.5040  219.9740 H   0  0  0  0  0  0  0  0  0  0  0  0
  137.8584   78.3152  222.9784 H   0  0  0  0  0  0  0  0  0  0  0  0
  138.6553   80.4944  223.8616 H   0  0  0  0  0  0  0  0  0  0  0  0
  140.5150   81.9636  224.2954 H   0  0  0  0  0  0  0  0  0  0  0  0
  142.9247   82.4964  224.2422 H   0  0  0  0  0  0  0  0  0  0  0  0
  144.4923   80.7880  223.2825 H   0  0  0  0  0  0  0  0  0  0  0  0
  143.6471   78.6444  222.4219 H   0  0  0  0  0  0  0  0  0  0  0  0
  139.7880   68.3000  225.3552 H   0  0  0  0  0  0  0  0  0  0  0  0
  140.5954   67.3066  227.4856 H   0  0  0  0  0  0  0  0  0  0  0  0
  141.4016   68.7286  229.3322 H   0  0  0  0  0  0  0  0  0  0  0  0
  141.4084   71.2105  229.0426 H   0  0  0  0  0  0  0  0  0  0  0  0
  140.6046   72.1783  226.9300 H   0  0  0  0  0  0  0  0  0  0  0  0
  1  2  1  0
  2  3  1  0
  3  4  1  0
  4  5  1  0
  5  6  1  0
  6  7  2  0
  6  8  1  0
  8  9  1  0
  9 10  1  0
 10 11  2  0
 10 12  1  0
 12 13  2  0
 13 14  1  0
 14 15  2  0
 15 16  1  0
 16 17  2  0
 17 18  1  0
 18 19  2  0
 19 20  1  0
 20 21  2  0
  2 22  1  0
 22 23  2  0
 23 24  1  0
 24 25  2  0
 25 26  1  0
 26 27  2  0
 21 12  1  0
 27 22  1  0
 20 15  1  0
  1 28  1  0
  1 29  1  0
  1 30  1  0
  3 31  1  0
  3 32  1  0
  4 33  1  0
  4 34  1  0
  5 35  1  0
  8 36  1  0
  8 37  1  0
  9 38  1  0
 13 39  1  0
 14 40  1  0
 16 41  1  0
 17 42  1  0
 18 43  1  0
 19 44  1  0
 23 45  1  0
 24 46  1  0
 25 47  1  0
 26 48  1  0
 27 49  1  0
M  END
>  <smiles>  (30) 
CN(CCNC(=O)CNC(=O)c1ccc2ccccc2n1)c1ccccc1

>  <score_type>  (30) 
oracle

>  <origin>  (30) 
autodockgpu

>  <m_score__min__energy>  (30) 
-8.4499999999999993

>  <m_primary>  (30) 
energy

>  <rmsd>  (30) 
9.163576820894779

>  <m_score__min__rmsd>  (30) 
9.163576820894779

>  <meeko>  (30) 
{"free_energy": -7.99, "intermolecular_energy": -10.08, "internal_energy": -1.68, "cluster_size": 18, "cluster_id": 1, "rank_in_cluster": 14}

>  <energy>  (30) 
-8.12

>  <cluster_rmsd>  (30) 
1.78

>  <cluster>  (30) 
2

$$$$

     RDKit          3D

 49 51  0  0  0  0  0  0  0  0999 V2000
  138.1460   79.2440  222.7400 C   0  0  0  0  0  0  0  0  0  0  0  0
  139.4580   78.6410  222.5570 N   0  0  0  0  0  0  0  0  0  0  0  0
  139.5340   77.2690  222.0440 C   0  0  0  0  0  0  0  0  0  0  0  0
  138.3470   76.4990  222.5850 C   0  0  0  0  0  0  0  0  0  0  0  0
  138.5040   75.0840  222.3160 N   0  0  0  0  0  0  0  0  0  0  0  0
  137.5800   74.3060  221.5820 C   0  0  0  0  0  0  0  0  0  0  0  0
  136.5510   74.9220  221.1470 O   0  0  0  0  0  0  0  0  0  0  0  0
  137.6820   72.8840  221.2760 C   0  0  0  0  0  0  0  0  0  0  0  0
  137.9940   72.0190  222.3860 N   0  0  0  0  0  0  0  0  0  0  0  0
  139.3160   72.1410  222.9370 C   0  0  0  0  0  0  0  0  0  0  0  0
  140.0590   72.9920  222.3870 O   0  0  0  0  0  0  0  0  0  0  0  0
  139.7570   71.3270  224.0580 C   0  0  0  0  0  0  0  0  0  0  0  0
  140.7440   71.8510  224.8770 C   0  0  0  0  0  0  0  0  0  0  0  0
  141.2350   71.1610  225.9670 C   0  0  0  0  0  0  0  0  0  0  0  0
  140.7040   69.9090  226.2220 C   0  0  0  0  0  0  0  0  0  0  0  0
  141.1540   69.1640  227.3030 C   0  0  0  0  0  0  0  0  0  0  0  0
  140.6630   67.9260  227.6000 C   0  0  0  0  0  0  0  0  0  0  0  0
  139.6690   67.4210  226.7590 C   0  0  0  0  0  0  0  0  0  0  0  0
  139.2070   68.1400  225.6820 C   0  0  0  0  0  0  0  0  0  0  0  0
  139.7210   69.3900  225.4050 C   0  0  0  0  0  0  0  0  0  0  0  0
  139.2620   70.1070  224.3360 N   0  0  0  0  0  0  0  0  0  0  0  0
  140.5860   79.4100  222.8850 C   0  0  0  0  0  0  0  0  0  0  0  0
  141.8300   78.9200  222.4980 C   0  0  0  0  0  0  0  0  0  0  0  0
  142.9900   79.6440  222.7990 C   0  0  0  0  0  0  0  0  0  0  0  0
  142.9400   80.8350  223.4740 C   0  0  0  0  0  0  0  0  0  0  0  0
  141.7120   81.3280  223.8620 C   0  0  0  0  0  0  0  0  0  0  0  0
  140.5770   80.6000  223.5560 C   0  0  0  0  0  0  0  0  0  0  0  0
  137.9340   79.3415  223.8150 H   0  0  0  0  0  0  0  0  0  0  0  0
  138.1313   80.2392  222.2717 H   0  0  0  0  0  0  0  0  0  0  0  0
  137.3812   78.6071  222.2717 H   0  0  0  0  0  0  0  0  0  0  0  0
  139.5021   77.2795  220.9445 H   0  0  0  0  0  0  0  0  0  0  0  0
  140.4739   76.7942  222.3622 H   0  0  0  0  0  0  0  0  0  0  0  0
  138.2761   76.6567  223.6713 H   0  0  0  0  0  0  0  0  0  0  0  0
  137.4313   76.8586  222.0929 H   0  0  0  0  0  0  0  0  0  0  0  0
  139.3510   74.6000  222.6810 H   0  0  0  0  0  0  0  0  0  0  0  0
  136.7177   72.5599  220.8576 H   0  0  0  0  0  0  0  0  0  0  0  0
  138.5290   72.7906  220.5804 H   0  0  0  0  0  0  0  0  0  0  0  0
  137.3550   71.3250  222.8160 H   0  0  0  0  0  0  0  0  0  0  0  0
  141.1492   72.8485  224.6515 H   0  0  0  0  0  0  0  0  0  0  0  0
  142.0187   71.5902  226.6086 H   0  0  0  0  0  0  0  0  0  0  0  0
  141.9385   69.5888  227.9466 H   0  0  0  0  0  0  0  0  0  0  0  0
  141.0331   67.3521  228.4623 H   0  0  0  0  0  0  0  0  0  0  0  0
  139.2464   66.4261  226.9627 H   0  0  0  0  0  0  0  0  0  0  0  0
  138.4229   67.7161  225.0374 H   0  0  0  0  0  0  0  0  0  0  0  0
  141.9017   77.9652  221.9564 H   0  0  0  0  0  0  0  0  0  0  0  0
  143.9665   79.2463  222.4854 H   0  0  0  0  0  0  0  0  0  0  0  0
  143.8629   81.3882  223.7024 H   0  0  0  0  0  0  0  0  0  0  0  0
  141.6368   82.2820  224.4045 H   0  0  0  0  0  0  0  0  0  0  0  0
  139.6046   81.0049  223.8731 H   0  0  0  0  0  0  0  0  0  0  0  0
  1  2  1  0
  2  3  1  0
  3  4  1  0
  4  5  1  0
  5  6  1  0
  6  7  2  0
  6  8  1  0
  8  9  1  0
  9 10  1  0
 10 11  2  0
 10 12  1  0
 12 13  2  0
 13 14  1  0
 14 15  2  0
 15 16  1  0
 16 17  2  0
 17 18  1  0
 18 19  2  0
 19 20  1  0
 20 21  2  0
  2 22  1  0
 22 23  2  0
 23 24  1  0
 24 25  2  0
 25 26  1  0
 26 27  2  0
 21 12  1  0
 27 22  1  0
 20 15  1  0
  1 28  1  0
  1 29  1  0
  1 30  1  0
  3 31  1  0
  3 32  1  0
  4 33  1  0
  4 34  1  0
  5 35  1  0
  8 36  1  0
  8 37  1  0
  9 38  1  0
 13 39  1  0
 14 40  1  0
 16 41  1  0
 17 42  1  0
 18 43  1  0
 19 44  1  0
 23 45  1  0
 24 46  1  0
 25 47  1  0
 26 48  1  0
 27 49  1  0
M  END
>  <smiles>  (31) 
CN(CCNC(=O)CNC(=O)c1ccc2ccccc2n1)c1ccccc1

>  <score_type>  (31) 
oracle

>  <origin>  (31) 
autodockgpu

>  <m_score__min__energy>  (31) 
-8.4499999999999993

>  <m_primary>  (31) 
energy

>  <rmsd>  (31) 
4.873769967722887

>  <m_score__min__rmsd>  (31) 
4.873769967722887

>  <meeko>  (31) 
{"free_energy": -7.97, "intermolecular_energy": -10.06, "internal_energy": -1.7, "cluster_size": 31, "cluster_id": 2, "rank_in_cluster": 16}

>  <energy>  (31) 
-8.11

>  <cluster_rmsd>  (31) 
1.64

>  <cluster>  (31) 
2

$$$$

     RDKit          3D

 49 51  0  0  0  0  0  0  0  0999 V2000
  137.8050   78.6400  222.9390 C   0  0  0  0  0  0  0  0  0  0  0  0
  139.1630   78.1920  222.6700 N   0  0  0  0  0  0  0  0  0  0  0  0
  139.3610   76.8650  222.0780 C   0  0  0  0  0  0  0  0  0  0  0  0
  138.1550   76.0140  222.4190 C   0  0  0  0  0  0  0  0  0  0  0  0
  138.4490   74.6150  222.1890 N   0  0  0  0  0  0  0  0  0  0  0  0
  138.6480   74.0430  220.9120 C   0  0  0  0  0  0  0  0  0  0  0  0
  138.5520   74.8410  219.9210 O   0  0  0  0  0  0  0  0  0  0  0  0
  138.9490   72.6480  220.6160 C   0  0  0  0  0  0  0  0  0  0  0  0
  138.9920   71.7560  221.7470 N   0  0  0  0  0  0  0  0  0  0  0  0
  139.9050   72.1080  222.8000 C   0  0  0  0  0  0  0  0  0  0  0  0
  140.5690   73.1580  222.6180 O   0  0  0  0  0  0  0  0  0  0  0  0
  140.0450   71.2930  223.9970 C   0  0  0  0  0  0  0  0  0  0  0  0
  140.6850   71.8630  225.0850 C   0  0  0  0  0  0  0  0  0  0  0  0
  140.8720   71.1770  226.2680 C   0  0  0  0  0  0  0  0  0  0  0  0
  140.3940   69.8800  226.3360 C   0  0  0  0  0  0  0  0  0  0  0  0
  140.5490   69.1370  227.4970 C   0  0  0  0  0  0  0  0  0  0  0  0
  140.0950   67.8550  227.6180 C   0  0  0  0  0  0  0  0  0  0  0  0
  139.4550   67.3040  226.5060 C   0  0  0  0  0  0  0  0  0  0  0  0
  139.2880   68.0200  225.3450 C   0  0  0  0  0  0  0  0  0  0  0  0
  139.7570   69.3150  225.2500 C   0  0  0  0  0  0  0  0  0  0  0  0
  139.5920   70.0300  224.0980 N   0  0  0  0  0  0  0  0  0  0  0  0
  140.2170   79.0610  222.9950 C   0  0  0  0  0  0  0  0  0  0  0  0
  141.4880   78.5080  223.1200 C   0  0  0  0  0  0  0  0  0  0  0  0
  142.5770   79.3260  223.4450 C   0  0  0  0  0  0  0  0  0  0  0  0
  142.4300   80.6730  223.6480 C   0  0  0  0  0  0  0  0  0  0  0  0
  141.1750   81.2300  223.5270 C   0  0  0  0  0  0  0  0  0  0  0  0
  140.1110   80.4070  223.2050 C   0  0  0  0  0  0  0  0  0  0  0  0
  137.6449   78.6928  224.0260 H   0  0  0  0  0  0  0  0  0  0  0  0
  137.6531   79.6359  222.4972 H   0  0  0  0  0  0  0  0  0  0  0  0
  137.0904   77.9300  222.4972 H   0  0  0  0  0  0  0  0  0  0  0  0
  139.4577   76.9544  220.9859 H   0  0  0  0  0  0  0  0  0  0  0  0
  140.2778   76.4036  222.4738 H   0  0  0  0  0  0  0  0  0  0  0  0
  137.8940   76.1612  223.4774 H   0  0  0  0  0  0  0  0  0  0  0  0
  137.3119   76.3135  221.7791 H   0  0  0  0  0  0  0  0  0  0  0  0
  138.5220   73.9810  223.0120 H   0  0  0  0  0  0  0  0  0  0  0  0
  138.1783   72.2771  219.9243 H   0  0  0  0  0  0  0  0  0  0  0  0
  139.9670   72.6469  220.1993 H   0  0  0  0  0  0  0  0  0  0  0  0
  138.4300   70.8930  221.8650 H   0  0  0  0  0  0  0  0  0  0  0  0
  141.0561   72.8953  225.0037 H   0  0  0  0  0  0  0  0  0  0  0  0
  141.3815   71.6434  227.1241 H   0  0  0  0  0  0  0  0  0  0  0  0
  141.0585   69.5995  228.3552 H   0  0  0  0  0  0  0  0  0  0  0  0
  140.2273   67.2829  228.5482 H   0  0  0  0  0  0  0  0  0  0  0  0
  139.0757   66.2729  226.5606 H   0  0  0  0  0  0  0  0  0  0  0  0
  138.7778   67.5587  224.4866 H   0  0  0  0  0  0  0  0  0  0  0  0
  141.6370   77.4294  222.9636 H   0  0  0  0  0  0  0  0  0  0  0  0
  143.5761   78.8756  223.5398 H   0  0  0  0  0  0  0  0  0  0  0  0
  143.2980   81.2987  223.9030 H   0  0  0  0  0  0  0  0  0  0  0  0
  141.0226   82.3081  223.6835 H   0  0  0  0  0  0  0  0  0  0  0  0
  139.1155   80.8655  223.1120 H   0  0  0  0  0  0  0  0  0  0  0  0
  1  2  1  0
  2  3  1  0
  3  4  1  0
  4  5  1  0
  5  6  1  0
  6  7  2  0
  6  8  1  0
  8  9  1  0
  9 10  1  0
 10 11  2  0
 10 12  1  0
 12 13  2  0
 13 14  1  0
 14 15  2  0
 15 16  1  0
 16 17  2  0
 17 18  1  0
 18 19  2  0
 19 20  1  0
 20 21  2  0
  2 22  1  0
 22 23  2  0
 23 24  1  0
 24 25  2  0
 25 26  1  0
 26 27  2  0
 21 12  1  0
 27 22  1  0
 20 15  1  0
  1 28  1  0
  1 29  1  0
  1 30  1  0
  3 31  1  0
  3 32  1  0
  4 33  1  0
  4 34  1  0
  5 35  1  0
  8 36  1  0
  8 37  1  0
  9 38  1  0
 13 39  1  0
 14 40  1  0
 16 41  1  0
 17 42  1  0
 18 43  1  0
 19 44  1  0
 23 45  1  0
 24 46  1  0
 25 47  1  0
 26 48  1  0
 27 49  1  0
M  END
>  <smiles>  (32) 
CN(CCNC(=O)CNC(=O)c1ccc2ccccc2n1)c1ccccc1

>  <score_type>  (32) 
oracle

>  <origin>  (32) 
autodockgpu

>  <m_score__min__energy>  (32) 
-8.4499999999999993

>  <m_primary>  (32) 
energy

>  <rmsd>  (32) 
4.6023051144160645

>  <m_score__min__rmsd>  (32) 
4.6023051144160645

>  <meeko>  (32) 
{"free_energy": -8.12, "intermolecular_energy": -10.21, "internal_energy": -1.6, "cluster_size": 31, "cluster_id": 2, "rank_in_cluster": 12}

>  <energy>  (32) 
-8.08

>  <cluster_rmsd>  (32) 
1.56

>  <cluster>  (32) 
2

$$$$

     RDKit          3D

 49 51  0  0  0  0  0  0  0  0999 V2000
  139.1230   68.7810  224.8140 C   0  0  0  0  0  0  0  0  0  0  0  0
  139.3430   70.2110  224.9620 N   0  0  0  0  0  0  0  0  0  0  0  0
  138.8270   71.1110  223.9250 C   0  0  0  0  0  0  0  0  0  0  0  0
  139.9940   71.5650  223.0730 C   0  0  0  0  0  0  0  0  0  0  0  0
  139.6230   72.7320  222.2990 N   0  0  0  0  0  0  0  0  0  0  0  0
  140.1410   73.0340  221.0190 C   0  0  0  0  0  0  0  0  0  0  0  0
  140.9890   72.2060  220.5480 O   0  0  0  0  0  0  0  0  0  0  0  0
  139.8070   74.1870  220.1900 C   0  0  0  0  0  0  0  0  0  0  0  0
  140.3230   75.4570  220.6360 N   0  0  0  0  0  0  0  0  0  0  0  0
  139.6150   76.0870  221.7160 C   0  0  0  0  0  0  0  0  0  0  0  0
  138.6190   75.4600  222.1550 O   0  0  0  0  0  0  0  0  0  0  0  0
  140.0320   77.3710  222.2600 C   0  0  0  0  0  0  0  0  0  0  0  0
  139.0420   78.2080  222.7470 C   0  0  0  0  0  0  0  0  0  0  0  0
  139.3280   79.4480  223.2820 C   0  0  0  0  0  0  0  0  0  0  0  0
  140.6560   79.8360  223.3190 C   0  0  0  0  0  0  0  0  0  0  0  0
  141.0110   81.0700  223.8460 C   0  0  0  0  0  0  0  0  0  0  0  0
  142.3040   81.5000  223.9070 C   0  0  0  0  0  0  0  0  0  0  0  0
  143.2830   80.6370  223.4090 C   0  0  0  0  0  0  0  0  0  0  0  0
  142.9560   79.4090  222.8830 C   0  0  0  0  0  0  0  0  0  0  0  0
  141.6400   78.9990  222.8330 C   0  0  0  0  0  0  0  0  0  0  0  0
  141.3120   77.7790  222.3110 N   0  0  0  0  0  0  0  0  0  0  0  0
  140.0440   70.6540  226.0950 C   0  0  0  0  0  0  0  0  0  0  0  0
  140.1170   69.7880  227.1820 C   0  0  0  0  0  0  0  0  0  0  0  0
  140.8010   70.1760  228.3400 C   0  0  0  0  0  0  0  0  0  0  0  0
  141.4100   71.3990  228.4400 C   0  0  0  0  0  0  0  0  0  0  0  0
  141.3440   72.2640  227.3690 C   0  0  0  0  0  0  0  0  0  0  0  0
  140.6640   71.8640  226.2330 C   0  0  0  0  0  0  0  0  0  0  0  0
  139.0515   68.3162  225.8084 H   0  0  0  0  0  0  0  0  0  0  0  0
  138.1879   68.6092  224.2608 H   0  0  0  0  0  0  0  0  0  0  0  0
  139.9633   68.3361  224.2608 H   0  0  0  0  0  0  0  0  0  0  0  0
  138.0941   70.5790  223.3006 H   0  0  0  0  0  0  0  0  0  0  0  0
  138.3310   71.9782  224.3853 H   0  0  0  0  0  0  0  0  0  0  0  0
  140.8439   71.8161  223.7247 H   0  0  0  0  0  0  0  0  0  0  0  0
  140.2750   70.7529  222.3864 H   0  0  0  0  0  0  0  0  0  0  0  0
  138.9300   73.3960  222.7020 H   0  0  0  0  0  0  0  0  0  0  0  0
  140.2000   74.0002  219.1797 H   0  0  0  0  0  0  0  0  0  0  0  0
  138.7119   74.2788  220.2373 H   0  0  0  0  0  0  0  0  0  0  0  0
  141.1490   75.9490  220.2490 H   0  0  0  0  0  0  0  0  0  0  0  0
  137.9947   77.8742  222.7062 H   0  0  0  0  0  0  0  0  0  0  0  0
  138.5309   80.1026  223.6643 H   0  0  0  0  0  0  0  0  0  0  0  0
  140.2174   81.7279  224.2300 H   0  0  0  0  0  0  0  0  0  0  0  0
  142.5640   82.4819  224.3292 H   0  0  0  0  0  0  0  0  0  0  0  0
  144.3382   80.9462  223.4382 H   0  0  0  0  0  0  0  0  0  0  0  0
  143.7488   78.7498  222.4998 H   0  0  0  0  0  0  0  0  0  0  0  0
  139.6375   68.7993  227.1312 H   0  0  0  0  0  0  0  0  0  0  0  0
  140.8508   69.4812  229.1913 H   0  0  0  0  0  0  0  0  0  0  0  0
  141.9424   71.6857  229.3589 H   0  0  0  0  0  0  0  0  0  0  0  0
  141.8228   73.2532  227.4168 H   0  0  0  0  0  0  0  0  0  0  0  0
  140.6194   72.5648  225.3863 H   0  0  0  0  0  0  0  0  0  0  0  0
  1  2  1  0
  2  3  1  0
  3  4  1  0
  4  5  1  0
  5  6  1  0
  6  7  2  0
  6  8  1  0
  8  9  1  0
  9 10  1  0
 10 11  2  0
 10 12  1  0
 12 13  2  0
 13 14  1  0
 14 15  2  0
 15 16  1  0
 16 17  2  0
 17 18  1  0
 18 19  2  0
 19 20  1  0
 20 21  2  0
  2 22  1  0
 22 23  2  0
 23 24  1  0
 24 25  2  0
 25 26  1  0
 26 27  2  0
 21 12  1  0
 27 22  1  0
 20 15  1  0
  1 28  1  0
  1 29  1  0
  1 30  1  0
  3 31  1  0
  3 32  1  0
  4 33  1  0
  4 34  1  0
  5 35  1  0
  8 36  1  0
  8 37  1  0
  9 38  1  0
 13 39  1  0
 14 40  1  0
 16 41  1  0
 17 42  1  0
 18 43  1  0
 19 44  1  0
 23 45  1  0
 24 46  1  0
 25 47  1  0
 26 48  1  0
 27 49  1  0
M  END
>  <smiles>  (33) 
CN(CCNC(=O)CNC(=O)c1ccc2ccccc2n1)c1ccccc1

>  <score_type>  (33) 
oracle

>  <origin>  (33) 
autodockgpu

>  <m_score__min__energy>  (33) 
-8.4499999999999993

>  <m_primary>  (33) 
energy

>  <rmsd>  (33) 
9.012707849908754

>  <m_score__min__rmsd>  (33) 
9.012707849908754

>  <meeko>  (33) 
{"free_energy": -8.24, "intermolecular_energy": -10.33, "internal_energy": -1.74, "cluster_size": 18, "cluster_id": 1, "rank_in_cluster": 5}

>  <energy>  (33) 
-8.01

>  <cluster_rmsd>  (33) 
1.83

>  <cluster>  (33) 
2

$$$$

     RDKit          3D

 49 51  0  0  0  0  0  0  0  0999 V2000
  138.2900   78.1110  220.9220 C   0  0  0  0  0  0  0  0  0  0  0  0
  138.7900   77.8520  222.2640 N   0  0  0  0  0  0  0  0  0  0  0  0
  138.1860   76.7640  223.0400 C   0  0  0  0  0  0  0  0  0  0  0  0
  137.4740   75.8370  222.0760 C   0  0  0  0  0  0  0  0  0  0  0  0
  138.1980   74.5880  221.9570 N   0  0  0  0  0  0  0  0  0  0  0  0
  138.0340   73.6730  220.8940 C   0  0  0  0  0  0  0  0  0  0  0  0
  137.1840   73.9990  220.0000 O   0  0  0  0  0  0  0  0  0  0  0  0
  138.7320   72.4050  220.7160 C   0  0  0  0  0  0  0  0  0  0  0  0
  138.8440   71.5740  221.8890 N   0  0  0  0  0  0  0  0  0  0  0  0
  139.7820   72.0070  222.8880 C   0  0  0  0  0  0  0  0  0  0  0  0
  140.4060   73.0660  222.6270 O   0  0  0  0  0  0  0  0  0  0  0  0
  139.9910   71.2600  224.1180 C   0  0  0  0  0  0  0  0  0  0  0  0
  140.7030   71.8850  225.1300 C   0  0  0  0  0  0  0  0  0  0  0  0
  140.9580   71.2650  226.3360 C   0  0  0  0  0  0  0  0  0  0  0  0
  140.4750   69.9790  226.5090 C   0  0  0  0  0  0  0  0  0  0  0  0
  140.6970   69.3020  227.6990 C   0  0  0  0  0  0  0  0  0  0  0  0
  140.2410   68.0350  227.9210 C   0  0  0  0  0  0  0  0  0  0  0  0
  139.5270   67.4280  226.8850 C   0  0  0  0  0  0  0  0  0  0  0  0
  139.2940   68.0790  225.6970 C   0  0  0  0  0  0  0  0  0  0  0  0
  139.7660   69.3610  225.4990 C   0  0  0  0  0  0  0  0  0  0  0  0
  139.5350   70.0110  224.3200 N   0  0  0  0  0  0  0  0  0  0  0  0
  139.8290   78.6640  222.7450 C   0  0  0  0  0  0  0  0  0  0  0  0
  141.0660   78.0620  222.9600 C   0  0  0  0  0  0  0  0  0  0  0  0
  142.1390   78.8220  223.4410 C   0  0  0  0  0  0  0  0  0  0  0  0
  142.0100   80.1580  223.7120 C   0  0  0  0  0  0  0  0  0  0  0  0
  140.7890   80.7640  223.5020 C   0  0  0  0  0  0  0  0  0  0  0  0
  139.7400   79.9980  223.0270 C   0  0  0  0  0  0  0  0  0  0  0  0
  137.3149   78.6161  220.9852 H   0  0  0  0  0  0  0  0  0  0  0  0
  139.0017   78.7538  220.3833 H   0  0  0  0  0  0  0  0  0  0  0  0
  138.1755   77.1588  220.3833 H   0  0  0  0  0  0  0  0  0  0  0  0
  138.9694   76.2111  223.5791 H   0  0  0  0  0  0  0  0  0  0  0  0
  137.4746   77.1693  223.7746 H   0  0  0  0  0  0  0  0  0  0  0  0
  136.4591   75.6347  222.4489 H   0  0  0  0  0  0  0  0  0  0  0  0
  137.4219   76.3175  221.0879 H   0  0  0  0  0  0  0  0  0  0  0  0
  138.8860   74.3410  222.6980 H   0  0  0  0  0  0  0  0  0  0  0  0
  138.1950   71.8305  219.9468 H   0  0  0  0  0  0  0  0  0  0  0  0
  139.7636   72.6708  220.4418 H   0  0  0  0  0  0  0  0  0  0  0  0
  138.3130   70.7030  222.0720 H   0  0  0  0  0  0  0  0  0  0  0  0
  141.0762   72.9068  224.9665 H   0  0  0  0  0  0  0  0  0  0  0  0
  141.5239   71.7735  227.1304 H   0  0  0  0  0  0  0  0  0  0  0  0
  141.2633   69.8065  228.4957 H   0  0  0  0  0  0  0  0  0  0  0  0
  140.4272   67.5154  228.8725 H   0  0  0  0  0  0  0  0  0  0  0  0
  139.1428   66.4066  227.0230 H   0  0  0  0  0  0  0  0  0  0  0  0
  138.7281   67.5754  224.8994 H   0  0  0  0  0  0  0  0  0  0  0  0
  141.2001   76.9902  222.7521 H   0  0  0  0  0  0  0  0  0  0  0  0
  143.1107   78.3333  223.6054 H   0  0  0  0  0  0  0  0  0  0  0  0
  142.8649   80.7376  224.0905 H   0  0  0  0  0  0  0  0  0  0  0  0
  140.6522   81.8358  223.7083 H   0  0  0  0  0  0  0  0  0  0  0  0
  138.7718   80.4946  222.8659 H   0  0  0  0  0  0  0  0  0  0  0  0
  1  2  1  0
  2  3  1  0
  3  4  1  0
  4  5  1  0
  5  6  1  0
  6  7  2  0
  6  8  1  0
  8  9  1  0
  9 10  1  0
 10 11  2  0
 10 12  1  0
 12 13  2  0
 13 14  1  0
 14 15  2  0
 15 16  1  0
 16 17  2  0
 17 18  1  0
 18 19  2  0
 19 20  1  0
 20 21  2  0
  2 22  1  0
 22 23  2  0
 23 24  1  0
 24 25  2  0
 25 26  1  0
 26 27  2  0
 21 12  1  0
 27 22  1  0
 20 15  1  0
  1 28  1  0
  1 29  1  0
  1 30  1  0
  3 31  1  0
  3 32  1  0
  4 33  1  0
  4 34  1  0
  5 35  1  0
  8 36  1  0
  8 37  1  0
  9 38  1  0
 13 39  1  0
 14 40  1  0
 16 41  1  0
 17 42  1  0
 18 43  1  0
 19 44  1  0
 23 45  1  0
 24 46  1  0
 25 47  1  0
 26 48  1  0
 27 49  1  0
M  END
>  <smiles>  (34) 
CN(CCNC(=O)CNC(=O)c1ccc2ccccc2n1)c1ccccc1

>  <score_type>  (34) 
oracle

>  <origin>  (34) 
autodockgpu

>  <m_score__min__energy>  (34) 
-8.4499999999999993

>  <m_primary>  (34) 
energy

>  <rmsd>  (34) 
4.287398187600469

>  <m_score__min__rmsd>  (34) 
4.287398187600469

>  <meeko>  (34) 
{"free_energy": -7.72, "intermolecular_energy": -9.81, "internal_energy": -1.91, "cluster_size": 31, "cluster_id": 2, "rank_in_cluster": 30}

>  <energy>  (34) 
-7.97

>  <cluster_rmsd>  (34) 
1.95

>  <cluster>  (34) 
2

$$$$

     RDKit          3D

 49 51  0  0  0  0  0  0  0  0999 V2000
  138.3630   78.4430  223.0170 C   0  0  0  0  0  0  0  0  0  0  0  0
  139.6640   78.4940  222.3680 N   0  0  0  0  0  0  0  0  0  0  0  0
  139.9250   77.5820  221.2490 C   0  0  0  0  0  0  0  0  0  0  0  0
  141.0720   76.6740  221.6410 C   0  0  0  0  0  0  0  0  0  0  0  0
  140.6950   75.2870  221.4610 N   0  0  0  0  0  0  0  0  0  0  0  0
  141.3820   74.3780  220.6250 C   0  0  0  0  0  0  0  0  0  0  0  0
  142.3930   74.8450  220.0030 O   0  0  0  0  0  0  0  0  0  0  0  0
  141.0550   72.9750  220.4030 C   0  0  0  0  0  0  0  0  0  0  0  0
  141.1350   72.1160  221.5580 N   0  0  0  0  0  0  0  0  0  0  0  0
  140.1080   72.2860  222.5490 C   0  0  0  0  0  0  0  0  0  0  0  0
  139.2500   73.1700  222.3000 O   0  0  0  0  0  0  0  0  0  0  0  0
  140.0730   71.4830  223.7620 C   0  0  0  0  0  0  0  0  0  0  0  0
  139.4470   70.2490  223.6910 C   0  0  0  0  0  0  0  0  0  0  0  0
  139.3570   69.4100  224.7820 C   0  0  0  0  0  0  0  0  0  0  0  0
  139.9180   69.8440  225.9710 C   0  0  0  0  0  0  0  0  0  0  0  0
  139.8610   69.0470  227.1050 C   0  0  0  0  0  0  0  0  0  0  0  0
  140.4000   69.4270  228.3000 C   0  0  0  0  0  0  0  0  0  0  0  0
  141.0240   70.6760  228.3440 C   0  0  0  0  0  0  0  0  0  0  0  0
  141.0930   71.4830  227.2340 C   0  0  0  0  0  0  0  0  0  0  0  0
  140.5400   71.0740  226.0380 C   0  0  0  0  0  0  0  0  0  0  0  0
  140.6080   71.8740  224.9320 N   0  0  0  0  0  0  0  0  0  0  0  0
  140.6040   79.4170  222.8530 C   0  0  0  0  0  0  0  0  0  0  0  0
  140.5130   80.7270  222.3900 C   0  0  0  0  0  0  0  0  0  0  0  0
  141.4240   81.6900  222.8370 C   0  0  0  0  0  0  0  0  0  0  0  0
  142.4180   81.3820  223.7290 C   0  0  0  0  0  0  0  0  0  0  0  0
  142.5160   80.0880  224.1940 C   0  0  0  0  0  0  0  0  0  0  0  0
  141.6070   79.1490  223.7410 C   0  0  0  0  0  0  0  0  0  0  0  0
  138.4974   78.4483  224.1087 H   0  0  0  0  0  0  0  0  0  0  0  0
  137.7688   79.3185  222.7165 H   0  0  0  0  0  0  0  0  0  0  0  0
  137.8391   77.5236  222.7165 H   0  0  0  0  0  0  0  0  0  0  0  0
  139.0277   76.9808  221.0407 H   0  0  0  0  0  0  0  0  0  0  0  0
  140.1819   78.1522  220.3441 H   0  0  0  0  0  0  0  0  0  0  0  0
  141.9450   76.8982  221.0104 H   0  0  0  0  0  0  0  0  0  0  0  0
  141.3198   76.8446  222.6991 H   0  0  0  0  0  0  0  0  0  0  0  0
  139.8660   74.9260  221.9770 H   0  0  0  0  0  0  0  0  0  0  0  0
  140.0256   72.9264  220.0183 H   0  0  0  0  0  0  0  0  0  0  0  0
  141.8161   72.6009  219.7025 H   0  0  0  0  0  0  0  0  0  0  0  0
  141.8600   71.3970  221.7340 H   0  0  0  0  0  0  0  0  0  0  0  0
  139.0081   69.9284  222.7347 H   0  0  0  0  0  0  0  0  0  0  0  0
  138.8580   68.4323  224.7101 H   0  0  0  0  0  0  0  0  0  0  0  0
  139.3612   68.0693  227.0384 H   0  0  0  0  0  0  0  0  0  0  0  0
  140.3455   68.7795  229.1876 H   0  0  0  0  0  0  0  0  0  0  0  0
  141.4701   71.0212  229.2883 H   0  0  0  0  0  0  0  0  0  0  0  0
  141.5922   72.4610  227.2994 H   0  0  0  0  0  0  0  0  0  0  0  0
  139.7257   81.0044  221.6736 H   0  0  0  0  0  0  0  0  0  0  0  0
  141.3404   82.7211  222.4629 H   0  0  0  0  0  0  0  0  0  0  0  0
  143.1250   82.1536  224.0678 H   0  0  0  0  0  0  0  0  0  0  0  0
  143.3016   79.8077  224.9111 H   0  0  0  0  0  0  0  0  0  0  0  0
  141.6975   78.1204  224.1201 H   0  0  0  0  0  0  0  0  0  0  0  0
  1  2  1  0
  2  3  1  0
  3  4  1  0
  4  5  1  0
  5  6  1  0
  6  7  2  0
  6  8  1  0
  8  9  1  0
  9 10  1  0
 10 11  2  0
 10 12  1  0
 12 13  2  0
 13 14  1  0
 14 15  2  0
 15 16  1  0
 16 17  2  0
 17 18  1  0
 18 19  2  0
 19 20  1  0
 20 21  2  0
  2 22  1  0
 22 23  2  0
 23 24  1  0
 24 25  2  0
 25 26  1  0
 26 27  2  0
 21 12  1  0
 27 22  1  0
 20 15  1  0
  1 28  1  0
  1 29  1  0
  1 30  1  0
  3 31  1  0
  3 32  1  0
  4 33  1  0
  4 34  1  0
  5 35  1  0
  8 36  1  0
  8 37  1  0
  9 38  1  0
 13 39  1  0
 14 40  1  0
 16 41  1  0
 17 42  1  0
 18 43  1  0
 19 44  1  0
 23 45  1  0
 24 46  1  0
 25 47  1  0
 26 48  1  0
 27 49  1  0
M  END
>  <smiles>  (35) 
CN(CCNC(=O)CNC(=O)c1ccc2ccccc2n1)c1ccccc1

>  <score_type>  (35) 
oracle

>  <origin>  (35) 
autodockgpu

>  <m_score__min__energy>  (35) 
-8.4499999999999993

>  <m_primary>  (35) 
energy

>  <rmsd>  (35) 
5.2427393125120965

>  <m_score__min__rmsd>  (35) 
5.2427393125120965

>  <meeko>  (35) 
{"free_energy": -7.61, "intermolecular_energy": -9.7, "internal_energy": -1.63, "cluster_size": 31, "cluster_id": 2, "rank_in_cluster": 31}

>  <energy>  (35) 
-7.92

>  <cluster_rmsd>  (35) 
1.28

>  <cluster>  (35) 
2

$$$$

     RDKit          3D

 49 51  0  0  0  0  0  0  0  0999 V2000
  141.8490   78.9960  219.7420 C   0  0  0  0  0  0  0  0  0  0  0  0
  141.2090   78.7940  221.0320 N   0  0  0  0  0  0  0  0  0  0  0  0
  140.2140   77.7240  221.1610 C   0  0  0  0  0  0  0  0  0  0  0  0
  140.7140   76.7380  222.1970 C   0  0  0  0  0  0  0  0  0  0  0  0
  140.4180   75.3830  221.7820 N   0  0  0  0  0  0  0  0  0  0  0  0
  141.3580   74.5090  221.1920 C   0  0  0  0  0  0  0  0  0  0  0  0
  142.5320   74.9780  221.0270 O   0  0  0  0  0  0  0  0  0  0  0  0
  141.1230   73.1370  220.7560 C   0  0  0  0  0  0  0  0  0  0  0  0
  141.1970   72.1260  221.7810 N   0  0  0  0  0  0  0  0  0  0  0  0
  140.1820   72.1760  222.7970 C   0  0  0  0  0  0  0  0  0  0  0  0
  139.3390   73.1000  222.6820 O   0  0  0  0  0  0  0  0  0  0  0  0
  140.1410   71.2140  223.8880 C   0  0  0  0  0  0  0  0  0  0  0  0
  139.5670   69.9810  223.6280 C   0  0  0  0  0  0  0  0  0  0  0  0
  139.4760   68.9970  224.5920 C   0  0  0  0  0  0  0  0  0  0  0  0
  139.9840   69.2840  225.8470 C   0  0  0  0  0  0  0  0  0  0  0  0
  139.9250   68.3380  226.8600 C   0  0  0  0  0  0  0  0  0  0  0  0
  140.4120   68.5690  228.1130 C   0  0  0  0  0  0  0  0  0  0  0  0
  140.9860   69.8210  228.3490 C   0  0  0  0  0  0  0  0  0  0  0  0
  141.0570   70.7740  227.3610 C   0  0  0  0  0  0  0  0  0  0  0  0
  140.5560   70.5140  226.1020 C   0  0  0  0  0  0  0  0  0  0  0  0
  140.6260   71.4600  225.1180 N   0  0  0  0  0  0  0  0  0  0  0  0
  141.5790   79.6400  222.0890 C   0  0  0  0  0  0  0  0  0  0  0  0
  142.9240   79.6640  222.4500 C   0  0  0  0  0  0  0  0  0  0  0  0
  143.3510   80.4880  223.4970 C   0  0  0  0  0  0  0  0  0  0  0  0
  142.4770   81.2830  224.1910 C   0  0  0  0  0  0  0  0  0  0  0  0
  141.1430   81.2660  223.8410 C   0  0  0  0  0  0  0  0  0  0  0  0
  140.7390   80.4460  222.8040 C   0  0  0  0  0  0  0  0  0  0  0  0
  142.8877   79.3239  219.8954 H   0  0  0  0  0  0  0  0  0  0  0  0
  141.8420   78.0520  219.1774 H   0  0  0  0  0  0  0  0  0  0  0  0
  141.3014   79.7650  219.1774 H   0  0  0  0  0  0  0  0  0  0  0  0
  139.2512   78.1472  221.4833 H   0  0  0  0  0  0  0  0  0  0  0  0
  140.0693   77.2199  220.1941 H   0  0  0  0  0  0  0  0  0  0  0  0
  141.8018   76.8530  222.3128 H   0  0  0  0  0  0  0  0  0  0  0  0
  140.2110   76.9379  223.1546 H   0  0  0  0  0  0  0  0  0  0  0  0
  139.4520   75.0200  221.9240 H   0  0  0  0  0  0  0  0  0  0  0  0
  140.1177   73.0927  220.3118 H   0  0  0  0  0  0  0  0  0  0  0  0
  141.9368   72.9061  220.0529 H   0  0  0  0  0  0  0  0  0  0  0  0
  141.9090   71.3760  221.8470 H   0  0  0  0  0  0  0  0  0  0  0  0
  139.1711   69.7792  222.6218 H   0  0  0  0  0  0  0  0  0  0  0  0
  139.0172   68.0220  224.3710 H   0  0  0  0  0  0  0  0  0  0  0  0
  139.4667   67.3616  226.6439 H   0  0  0  0  0  0  0  0  0  0  0  0
  140.3555   67.8045  228.9019 H   0  0  0  0  0  0  0  0  0  0  0  0
  141.3896   70.0488  229.3466 H   0  0  0  0  0  0  0  0  0  0  0  0
  141.5162   71.7503  227.5755 H   0  0  0  0  0  0  0  0  0  0  0  0
  143.6497   79.0359  221.9126 H   0  0  0  0  0  0  0  0  0  0  0  0
  144.4165   80.4979  223.7702 H   0  0  0  0  0  0  0  0  0  0  0  0
  142.8327   81.9229  225.0120 H   0  0  0  0  0  0  0  0  0  0  0  0
  140.4148   81.8927  224.3766 H   0  0  0  0  0  0  0  0  0  0  0  0
  139.6719   80.4422  222.5372 H   0  0  0  0  0  0  0  0  0  0  0  0
  1  2  1  0
  2  3  1  0
  3  4  1  0
  4  5  1  0
  5  6  1  0
  6  7  2  0
  6  8  1  0
  8  9  1  0
  9 10  1  0
 10 11  2  0
 10 12  1  0
 12 13  2  0
 13 14  1  0
 14 15  2  0
 15 16  1  0
 16 17  2  0
 17 18  1  0
 18 19  2  0
 19 20  1  0
 20 21  2  0
  2 22  1  0
 22 23  2  0
 23 24  1  0
 24 25  2  0
 25 26  1  0
 26 27  2  0
 21 12  1  0
 27 22  1  0
 20 15  1  0
  1 28  1  0
  1 29  1  0
  1 30  1  0
  3 31  1  0
  3 32  1  0
  4 33  1  0
  4 34  1  0
  5 35  1  0
  8 36  1  0
  8 37  1  0
  9 38  1  0
 13 39  1  0
 14 40  1  0
 16 41  1  0
 17 42  1  0
 18 43  1  0
 19 44  1  0
 23 45  1  0
 24 46  1  0
 25 47  1  0
 26 48  1  0
 27 49  1  0
M  END
>  <smiles>  (36) 
CN(CCNC(=O)CNC(=O)c1ccc2ccccc2n1)c1ccccc1

>  <score_type>  (36) 
oracle

>  <origin>  (36) 
autodockgpu

>  <m_score__min__energy>  (36) 
-8.4499999999999993

>  <m_primary>  (36) 
energy

>  <rmsd>  (36) 
5.050364112924925

>  <m_score__min__rmsd>  (36) 
5.050364112924925

>  <meeko>  (36) 
{"free_energy": -7.85, "intermolecular_energy": -9.93, "internal_energy": -1.65, "cluster_size": 31, "cluster_id": 2, "rank_in_cluster": 23}

>  <energy>  (36) 
-7.92

>  <cluster_rmsd>  (36) 
1.91

>  <cluster>  (36) 
2

$$$$

     RDKit          3D

 49 51  0  0  0  0  0  0  0  0999 V2000
  141.1010   76.0330  221.2660 C   0  0  0  0  0  0  0  0  0  0  0  0
  140.3600   77.2360  221.6130 N   0  0  0  0  0  0  0  0  0  0  0  0
  138.9040   77.2390  221.4350 C   0  0  0  0  0  0  0  0  0  0  0  0
  138.2930   76.4070  222.5440 C   0  0  0  0  0  0  0  0  0  0  0  0
  138.5800   75.0030  222.3320 N   0  0  0  0  0  0  0  0  0  0  0  0
  137.9500   74.2010  221.3550 C   0  0  0  0  0  0  0  0  0  0  0  0
  137.0740   74.7840  220.6320 O   0  0  0  0  0  0  0  0  0  0  0  0
  138.1950   72.7890  221.0910 C   0  0  0  0  0  0  0  0  0  0  0  0
  138.3670   71.9490  222.2490 N   0  0  0  0  0  0  0  0  0  0  0  0
  139.6050   72.0960  222.9640 C   0  0  0  0  0  0  0  0  0  0  0  0
  140.4070   72.9440  222.4980 O   0  0  0  0  0  0  0  0  0  0  0  0
  139.9040   71.3100  224.1510 C   0  0  0  0  0  0  0  0  0  0  0  0
  140.7310   71.8820  225.1030 C   0  0  0  0  0  0  0  0  0  0  0  0
  141.0780   71.2210  226.2640 C   0  0  0  0  0  0  0  0  0  0  0  0
  140.5680   69.9480  226.4520 C   0  0  0  0  0  0  0  0  0  0  0  0
  140.8780   69.2310  227.5980 C   0  0  0  0  0  0  0  0  0  0  0  0
  140.4000   67.9750  227.8330 C   0  0  0  0  0  0  0  0  0  0  0  0
  139.5690   67.4210  226.8570 C   0  0  0  0  0  0  0  0  0  0  0  0
  139.2470   68.1120  225.7130 C   0  0  0  0  0  0  0  0  0  0  0  0
  139.7440   69.3820  225.5010 C   0  0  0  0  0  0  0  0  0  0  0  0
  139.4250   70.0710  224.3650 N   0  0  0  0  0  0  0  0  0  0  0  0
  141.0840   78.3350  222.1010 C   0  0  0  0  0  0  0  0  0  0  0  0
  141.4120   78.3380  223.4540 C   0  0  0  0  0  0  0  0  0  0  0  0
  142.1320   79.4090  223.9960 C   0  0  0  0  0  0  0  0  0  0  0  0
  142.5290   80.4710  223.2280 C   0  0  0  0  0  0  0  0  0  0  0  0
  142.2090   80.4780  221.8870 C   0  0  0  0  0  0  0  0  0  0  0  0
  141.4980   79.4120  221.3680 C   0  0  0  0  0  0  0  0  0  0  0  0
  141.4175   75.5192  222.1857 H   0  0  0  0  0  0  0  0  0  0  0  0
  140.4582   75.3641  220.6750 H   0  0  0  0  0  0  0  0  0  0  0  0
  141.9876   76.3061  220.6750 H   0  0  0  0  0  0  0  0  0  0  0  0
  138.5238   78.2698  221.4893 H   0  0  0  0  0  0  0  0  0  0  0  0
  138.6390   76.8194  220.4533 H   0  0  0  0  0  0  0  0  0  0  0  0
  138.7151   76.7224  223.5096 H   0  0  0  0  0  0  0  0  0  0  0  0
  137.2029   76.5545  222.5446 H   0  0  0  0  0  0  0  0  0  0  0  0
  139.2970   74.5470  222.9330 H   0  0  0  0  0  0  0  0  0  0  0  0
  137.3401   72.4008  220.5180 H   0  0  0  0  0  0  0  0  0  0  0  0
  139.1535   72.7506  220.5527 H   0  0  0  0  0  0  0  0  0  0  0  0
  137.6840   71.2560  222.6070 H   0  0  0  0  0  0  0  0  0  0  0  0
  141.1236   72.8946  224.9286 H   0  0  0  0  0  0  0  0  0  0  0  0
  141.7353   71.6884  227.0120 H   0  0  0  0  0  0  0  0  0  0  0  0
  141.5361   69.6939  228.3481 H   0  0  0  0  0  0  0  0  0  0  0  0
  140.6574   67.4238  228.7495 H   0  0  0  0  0  0  0  0  0  0  0  0
  139.1632   66.4096  227.0068 H   0  0  0  0  0  0  0  0  0  0  0  0
  138.5893   67.6499  224.9621 H   0  0  0  0  0  0  0  0  0  0  0  0
  141.1056   77.4994  224.0965 H   0  0  0  0  0  0  0  0  0  0  0  0
  142.3854   79.3973  225.0663 H   0  0  0  0  0  0  0  0  0  0  0  0
  143.0932   81.3038  223.6732 H   0  0  0  0  0  0  0  0  0  0  0  0
  142.5136   81.3157  221.2424 H   0  0  0  0  0  0  0  0  0  0  0  0
  141.2495   79.4317  220.2966 H   0  0  0  0  0  0  0  0  0  0  0  0
  1  2  1  0
  2  3  1  0
  3  4  1  0
  4  5  1  0
  5  6  1  0
  6  7  2  0
  6  8  1  0
  8  9  1  0
  9 10  1  0
 10 11  2  0
 10 12  1  0
 12 13  2  0
 13 14  1  0
 14 15  2  0
 15 16  1  0
 16 17  2  0
 17 18  1  0
 18 19  2  0
 19 20  1  0
 20 21  2  0
  2 22  1  0
 22 23  2  0
 23 24  1  0
 24 25  2  0
 25 26  1  0
 26 27  2  0
 21 12  1  0
 27 22  1  0
 20 15  1  0
  1 28  1  0
  1 29  1  0
  1 30  1  0
  3 31  1  0
  3 32  1  0
  4 33  1  0
  4 34  1  0
  5 35  1  0
  8 36  1  0
  8 37  1  0
  9 38  1  0
 13 39  1  0
 14 40  1  0
 16 41  1  0
 17 42  1  0
 18 43  1  0
 19 44  1  0
 23 45  1  0
 24 46  1  0
 25 47  1  0
 26 48  1  0
 27 49  1  0
M  END
>  <smiles>  (37) 
CN(CCNC(=O)CNC(=O)c1ccc2ccccc2n1)c1ccccc1

>  <score_type>  (37) 
oracle

>  <origin>  (37) 
autodockgpu

>  <m_score__min__energy>  (37) 
-8.4499999999999993

>  <m_primary>  (37) 
energy

>  <rmsd>  (37) 
3.923356841976356

>  <m_score__min__rmsd>  (37) 
3.923356841976356

>  <meeko>  (37) 
{"free_energy": -8.11, "intermolecular_energy": -10.2, "internal_energy": -1.95, "cluster_size": 31, "cluster_id": 2, "rank_in_cluster": 13}

>  <energy>  (37) 
-7.91

>  <cluster_rmsd>  (37) 
1.73

>  <cluster>  (37) 
2

$$$$

     RDKit          3D

 49 51  0  0  0  0  0  0  0  0999 V2000
  141.8460   78.0120  219.7930 C   0  0  0  0  0  0  0  0  0  0  0  0
  141.0160   78.2520  220.9630 N   0  0  0  0  0  0  0  0  0  0  0  0
  139.7940   77.4570  221.1320 C   0  0  0  0  0  0  0  0  0  0  0  0
  139.9720   76.5750  222.3500 C   0  0  0  0  0  0  0  0  0  0  0  0
  139.8320   75.1810  221.9820 N   0  0  0  0  0  0  0  0  0  0  0  0
  140.8160   74.4370  221.2930 C   0  0  0  0  0  0  0  0  0  0  0  0
  141.8830   75.0660  220.9900 O   0  0  0  0  0  0  0  0  0  0  0  0
  140.7360   73.0350  220.8980 C   0  0  0  0  0  0  0  0  0  0  0  0
  140.9240   72.0690  221.9510 N   0  0  0  0  0  0  0  0  0  0  0  0
  139.8190   71.8870  222.8520 C   0  0  0  0  0  0  0  0  0  0  0  0
  138.8060   72.5950  222.6240 O   0  0  0  0  0  0  0  0  0  0  0  0
  139.8780   70.9430  223.9570 C   0  0  0  0  0  0  0  0  0  0  0  0
  139.3030   69.6980  223.7620 C   0  0  0  0  0  0  0  0  0  0  0  0
  139.3030   68.7290  224.7450 C   0  0  0  0  0  0  0  0  0  0  0  0
  139.9040   69.0440  225.9520 C   0  0  0  0  0  0  0  0  0  0  0  0
  139.9380   68.1130  226.9810 C   0  0  0  0  0  0  0  0  0  0  0  0
  140.5190   68.3720  228.1880 C   0  0  0  0  0  0  0  0  0  0  0  0
  141.0910   69.6340  228.3590 C   0  0  0  0  0  0  0  0  0  0  0  0
  141.0700   70.5730  227.3540 C   0  0  0  0  0  0  0  0  0  0  0  0
  140.4760   70.2850  226.1420 C   0  0  0  0  0  0  0  0  0  0  0  0
  140.4540   71.2150  225.1420 N   0  0  0  0  0  0  0  0  0  0  0  0
  141.4310   79.2390  221.8710 C   0  0  0  0  0  0  0  0  0  0  0  0
  141.0490   80.5520  221.6100 C   0  0  0  0  0  0  0  0  0  0  0  0
  141.4350   81.5780  222.4790 C   0  0  0  0  0  0  0  0  0  0  0  0
  142.1890   81.3300  223.5960 C   0  0  0  0  0  0  0  0  0  0  0  0
  142.5720   80.0320  223.8640 C   0  0  0  0  0  0  0  0  0  0  0  0
  142.1810   79.0310  222.9940 C   0  0  0  0  0  0  0  0  0  0  0  0
  142.8567   77.7198  220.1141 H   0  0  0  0  0  0  0  0  0  0  0  0
  141.4050   77.2046  219.1900 H   0  0  0  0  0  0  0  0  0  0  0  0
  141.9040   78.9302  219.1900 H   0  0  0  0  0  0  0  0  0  0  0  0
  138.9319   78.1246  221.2777 H   0  0  0  0  0  0  0  0  0  0  0  0
  139.6130   76.8414  220.2386 H   0  0  0  0  0  0  0  0  0  0  0  0
  140.9730   76.7400  222.7751 H   0  0  0  0  0  0  0  0  0  0  0  0
  139.2022   76.8294  223.0934 H   0  0  0  0  0  0  0  0  0  0  0  0
  138.9520   74.6860  222.2380 H   0  0  0  0  0  0  0  0  0  0  0  0
  139.7415   72.8653  220.4596 H   0  0  0  0  0  0  0  0  0  0  0  0
  141.5700   72.8765  220.1985 H   0  0  0  0  0  0  0  0  0  0  0  0
  141.7760   71.5020  222.1130 H   0  0  0  0  0  0  0  0  0  0  0  0
  138.8317   69.4746  222.7935 H   0  0  0  0  0  0  0  0  0  0  0  0
  138.8431   67.7441  224.5760 H   0  0  0  0  0  0  0  0  0  0  0  0
  139.4783   67.1273  226.8168 H   0  0  0  0  0  0  0  0  0  0  0  0
  140.5360   67.6200  228.9906 H   0  0  0  0  0  0  0  0  0  0  0  0
  141.5688   69.8828  229.3181 H   0  0  0  0  0  0  0  0  0  0  0  0
  141.5293   71.5591  227.5173 H   0  0  0  0  0  0  0  0  0  0  0  0
  140.4439   80.7826  220.7208 H   0  0  0  0  0  0  0  0  0  0  0  0
  141.1253   82.6105  222.2600 H   0  0  0  0  0  0  0  0  0  0  0  0
  142.4835   82.1507  224.2666 H   0  0  0  0  0  0  0  0  0  0  0  0
  143.1767   79.7980  224.7526 H   0  0  0  0  0  0  0  0  0  0  0  0
  142.4938   78.0010  223.2205 H   0  0  0  0  0  0  0  0  0  0  0  0
  1  2  1  0
  2  3  1  0
  3  4  1  0
  4  5  1  0
  5  6  1  0
  6  7  2  0
  6  8  1  0
  8  9  1  0
  9 10  1  0
 10 11  2  0
 10 12  1  0
 12 13  2  0
 13 14  1  0
 14 15  2  0
 15 16  1  0
 16 17  2  0
 17 18  1  0
 18 19  2  0
 19 20  1  0
 20 21  2  0
  2 22  1  0
 22 23  2  0
 23 24  1  0
 24 25  2  0
 25 26  1  0
 26 27  2  0
 21 12  1  0
 27 22  1  0
 20 15  1  0
  1 28  1  0
  1 29  1  0
  1 30  1  0
  3 31  1  0
  3 32  1  0
  4 33  1  0
  4 34  1  0
  5 35  1  0
  8 36  1  0
  8 37  1  0
  9 38  1  0
 13 39  1  0
 14 40  1  0
 16 41  1  0
 17 42  1  0
 18 43  1  0
 19 44  1  0
 23 45  1  0
 24 46  1  0
 25 47  1  0
 26 48  1  0
 27 49  1  0
M  END
>  <smiles>  (38) 
CN(CCNC(=O)CNC(=O)c1ccc2ccccc2n1)c1ccccc1

>  <score_type>  (38) 
oracle

>  <origin>  (38) 
autodockgpu

>  <m_score__min__energy>  (38) 
-8.4499999999999993

>  <m_primary>  (38) 
energy

>  <rmsd>  (38) 
4.788640945140207

>  <m_score__min__rmsd>  (38) 
4.788640945140207

>  <meeko>  (38) 
{"free_energy": -7.77, "intermolecular_energy": -9.85, "internal_energy": -1.77, "cluster_size": 31, "cluster_id": 2, "rank_in_cluster": 26}

>  <energy>  (38) 
-7.89

>  <cluster_rmsd>  (38) 
1.88

>  <cluster>  (38) 
2

$$$$

     RDKit          3D

 49 51  0  0  0  0  0  0  0  0999 V2000
  141.1900   76.8310  221.2170 C   0  0  0  0  0  0  0  0  0  0  0  0
  140.2990   77.8380  221.7740 N   0  0  0  0  0  0  0  0  0  0  0  0
  138.8530   77.6730  221.5950 C   0  0  0  0  0  0  0  0  0  0  0  0
  138.3430   76.7700  222.6990 C   0  0  0  0  0  0  0  0  0  0  0  0
  138.6290   75.3850  222.3850 N   0  0  0  0  0  0  0  0  0  0  0  0
  138.2090   74.7350  221.2030 C   0  0  0  0  0  0  0  0  0  0  0  0
  137.5350   75.4440  220.3840 O   0  0  0  0  0  0  0  0  0  0  0  0
  138.4650   73.3500  220.8280 C   0  0  0  0  0  0  0  0  0  0  0  0
  138.4930   72.3970  221.9090 N   0  0  0  0  0  0  0  0  0  0  0  0
  139.6610   72.4180  222.7460 C   0  0  0  0  0  0  0  0  0  0  0  0
  140.5350   73.2670  222.4420 O   0  0  0  0  0  0  0  0  0  0  0  0
  139.8140   71.5080  223.8710 C   0  0  0  0  0  0  0  0  0  0  0  0
  139.4120   70.1950  223.6890 C   0  0  0  0  0  0  0  0  0  0  0  0
  139.5130   69.2520  224.6910 C   0  0  0  0  0  0  0  0  0  0  0  0
  140.0350   69.6640  225.9050 C   0  0  0  0  0  0  0  0  0  0  0  0
  140.1630   68.7640  226.9530 C   0  0  0  0  0  0  0  0  0  0  0  0
  140.6720   69.1170  228.1690 C   0  0  0  0  0  0  0  0  0  0  0  0
  141.0700   70.4470  228.3270 C   0  0  0  0  0  0  0  0  0  0  0  0
  140.9530   71.3570  227.3030 C   0  0  0  0  0  0  0  0  0  0  0  0
  140.4340   70.9730  226.0830 C   0  0  0  0  0  0  0  0  0  0  0  0
  140.3180   71.8740  225.0640 N   0  0  0  0  0  0  0  0  0  0  0  0
  140.8780   78.9210  222.4550 C   0  0  0  0  0  0  0  0  0  0  0  0
  142.2650   79.0380  222.4130 C   0  0  0  0  0  0  0  0  0  0  0  0
  142.8970   80.0970  223.0750 C   0  0  0  0  0  0  0  0  0  0  0  0
  142.1850   81.0360  223.7740 C   0  0  0  0  0  0  0  0  0  0  0  0
  140.8120   80.9290  223.8220 C   0  0  0  0  0  0  0  0  0  0  0  0
  140.2040   79.8770  223.1620 C   0  0  0  0  0  0  0  0  0  0  0  0
  141.6775   76.2800  222.0348 H   0  0  0  0  0  0  0  0  0  0  0  0
  140.6103   76.1308  220.5976 H   0  0  0  0  0  0  0  0  0  0  0  0
  141.9556   77.3211  220.5976 H   0  0  0  0  0  0  0  0  0  0  0  0
  138.3556   78.6523  221.6545 H   0  0  0  0  0  0  0  0  0  0  0  0
  138.6385   77.2308  220.6109 H   0  0  0  0  0  0  0  0  0  0  0  0
  138.8371   77.0376  223.6446 H   0  0  0  0  0  0  0  0  0  0  0  0
  137.2547   76.8990  222.7941 H   0  0  0  0  0  0  0  0  0  0  0  0
  139.1800   74.8240  223.0680 H   0  0  0  0  0  0  0  0  0  0  0  0
  137.6763   73.0401  220.1266 H   0  0  0  0  0  0  0  0  0  0  0  0
  139.4779   73.3415  220.3992 H   0  0  0  0  0  0  0  0  0  0  0  0
  137.7530   71.7060  222.1310 H   0  0  0  0  0  0  0  0  0  0  0  0
  138.9991   69.8946  222.7147 H   0  0  0  0  0  0  0  0  0  0  0  0
  139.1910   68.2124  224.5312 H   0  0  0  0  0  0  0  0  0  0  0  0
  139.8411   67.7237  226.7975 H   0  0  0  0  0  0  0  0  0  0  0  0
  140.7647   68.3878  228.9874 H   0  0  0  0  0  0  0  0  0  0  0  0
  141.4860   70.7731  229.2917 H   0  0  0  0  0  0  0  0  0  0  0  0
  141.2750   72.3975  227.4569 H   0  0  0  0  0  0  0  0  0  0  0  0
  142.8633   78.2989  221.8601 H   0  0  0  0  0  0  0  0  0  0  0  0
  143.9933   80.1774  223.0330 H   0  0  0  0  0  0  0  0  0  0  0  0
  142.7004   81.8608  224.2879 H   0  0  0  0  0  0  0  0  0  0  0  0
  140.2112   81.6663  224.3747 H   0  0  0  0  0  0  0  0  0  0  0  0
  139.1074   79.8049  223.2090 H   0  0  0  0  0  0  0  0  0  0  0  0
  1  2  1  0
  2  3  1  0
  3  4  1  0
  4  5  1  0
  5  6  1  0
  6  7  2  0
  6  8  1  0
  8  9  1  0
  9 10  1  0
 10 11  2  0
 10 12  1  0
 12 13  2  0
 13 14  1  0
 14 15  2  0
 15 16  1  0
 16 17  2  0
 17 18  1  0
 18 19  2  0
 19 20  1  0
 20 21  2  0
  2 22  1  0
 22 23  2  0
 23 24  1  0
 24 25  2  0
 25 26  1  0
 26 27  2  0
 21 12  1  0
 27 22  1  0
 20 15  1  0
  1 28  1  0
  1 29  1  0
  1 30  1  0
  3 31  1  0
  3 32  1  0
  4 33  1  0
  4 34  1  0
  5 35  1  0
  8 36  1  0
  8 37  1  0
  9 38  1  0
 13 39  1  0
 14 40  1  0
 16 41  1  0
 17 42  1  0
 18 43  1  0
 19 44  1  0
 23 45  1  0
 24 46  1  0
 25 47  1  0
 26 48  1  0
 27 49  1  0
M  END
>  <smiles>  (39) 
CN(CCNC(=O)CNC(=O)c1ccc2ccccc2n1)c1ccccc1

>  <score_type>  (39) 
oracle

>  <origin>  (39) 
autodockgpu

>  <m_score__min__energy>  (39) 
-8.4499999999999993

>  <m_primary>  (39) 
energy

>  <rmsd>  (39) 
4.773893653273028

>  <m_score__min__rmsd>  (39) 
4.773893653273028

>  <meeko>  (39) 
{"free_energy": -8.29, "intermolecular_energy": -10.38, "internal_energy": -1.78, "cluster_size": 31, "cluster_id": 2, "rank_in_cluster": 4}

>  <energy>  (39) 
-7.88

>  <cluster_rmsd>  (39) 
0.9

>  <cluster>  (39) 
2

$$$$

     RDKit          3D

 49 51  0  0  0  0  0  0  0  0999 V2000
  138.6110   69.0330  224.2520 C   0  0  0  0  0  0  0  0  0  0  0  0
  139.5040   69.8490  225.0600 N   0  0  0  0  0  0  0  0  0  0  0  0
  139.8450   71.1950  224.5880 C   0  0  0  0  0  0  0  0  0  0  0  0
  138.8530   71.5810  223.5100 C   0  0  0  0  0  0  0  0  0  0  0  0
  139.4100   72.6150  222.6640 N   0  0  0  0  0  0  0  0  0  0  0  0
  140.4810   72.4140  221.7630 C   0  0  0  0  0  0  0  0  0  0  0  0
  140.9640   71.2340  221.7230 O   0  0  0  0  0  0  0  0  0  0  0  0
  141.0830   73.4100  220.8850 C   0  0  0  0  0  0  0  0  0  0  0  0
  141.3160   74.7080  221.4660 N   0  0  0  0  0  0  0  0  0  0  0  0
  140.1670   75.5620  221.5950 C   0  0  0  0  0  0  0  0  0  0  0  0
  139.0810   75.0820  221.1840 O   0  0  0  0  0  0  0  0  0  0  0  0
  140.2650   76.8970  222.1650 C   0  0  0  0  0  0  0  0  0  0  0  0
  139.0850   77.5110  222.5550 C   0  0  0  0  0  0  0  0  0  0  0  0
  139.0660   78.7760  223.1050 C   0  0  0  0  0  0  0  0  0  0  0  0
  140.2790   79.4250  223.2590 C   0  0  0  0  0  0  0  0  0  0  0  0
  140.3270   80.6990  223.8070 C   0  0  0  0  0  0  0  0  0  0  0  0
  141.4960   81.3810  223.9820 C   0  0  0  0  0  0  0  0  0  0  0  0
  142.6700   80.7400  223.5810 C   0  0  0  0  0  0  0  0  0  0  0  0
  142.6470   79.4780  223.0360 C   0  0  0  0  0  0  0  0  0  0  0  0
  141.4510   78.8100  222.8700 C   0  0  0  0  0  0  0  0  0  0  0  0
  141.4260   77.5560  222.3290 N   0  0  0  0  0  0  0  0  0  0  0  0
  139.9950   69.2990  226.2550 C   0  0  0  0  0  0  0  0  0  0  0  0
  139.5480   69.8570  227.4490 C   0  0  0  0  0  0  0  0  0  0  0  0
  140.0050   69.3500  228.6710 C   0  0  0  0  0  0  0  0  0  0  0  0
  140.8920   68.3080  228.7310 C   0  0  0  0  0  0  0  0  0  0  0  0
  141.3410   67.7480  227.5540 C   0  0  0  0  0  0  0  0  0  0  0  0
  140.8790   68.2610  226.3560 C   0  0  0  0  0  0  0  0  0  0  0  0
  137.9607   68.4387  224.9107 H   0  0  0  0  0  0  0  0  0  0  0  0
  137.9927   69.6846  223.6171 H   0  0  0  0  0  0  0  0  0  0  0  0
  139.2044   68.3586  223.6171 H   0  0  0  0  0  0  0  0  0  0  0  0
  139.7853   71.9091  225.4226 H   0  0  0  0  0  0  0  0  0  0  0  0
  140.8691   71.2101  224.1867 H   0  0  0  0  0  0  0  0  0  0  0  0
  138.6198   70.6974  222.8978 H   0  0  0  0  0  0  0  0  0  0  0  0
  137.9369   71.9615  223.9854 H   0  0  0  0  0  0  0  0  0  0  0  0
  139.0020   73.5710  222.7130 H   0  0  0  0  0  0  0  0  0  0  0  0
  142.0514   73.0157  220.5434 H   0  0  0  0  0  0  0  0  0  0  0  0
  140.3529   73.5735  220.0786 H   0  0  0  0  0  0  0  0  0  0  0  0
  142.2280   75.0750  221.7940 H   0  0  0  0  0  0  0  0  0  0  0  0
  138.1348   76.9731  222.4219 H   0  0  0  0  0  0  0  0  0  0  0  0
  138.1220   79.2513  223.4099 H   0  0  0  0  0  0  0  0  0  0  0  0
  139.3852   81.1783  224.1125 H   0  0  0  0  0  0  0  0  0  0  0  0
  141.5127   82.3902  224.4192 H   0  0  0  0  0  0  0  0  0  0  0  0
  143.6338   81.2558  223.7038 H   0  0  0  0  0  0  0  0  0  0  0  0
  143.5882   78.9976  222.7303 H   0  0  0  0  0  0  0  0  0  0  0  0
  138.8363   70.6956  227.4324 H   0  0  0  0  0  0  0  0  0  0  0  0
  139.6426   69.7999  229.6071 H   0  0  0  0  0  0  0  0  0  0  0  0
  141.2400   67.9246  229.7015 H   0  0  0  0  0  0  0  0  0  0  0  0
  142.0529   66.9095  227.5677 H   0  0  0  0  0  0  0  0  0  0  0  0
  141.2461   67.8049  225.4248 H   0  0  0  0  0  0  0  0  0  0  0  0
  1  2  1  0
  2  3  1  0
  3  4  1  0
  4  5  1  0
  5  6  1  0
  6  7  2  0
  6  8  1  0
  8  9  1  0
  9 10  1  0
 10 11  2  0
 10 12  1  0
 12 13  2  0
 13 14  1  0
 14 15  2  0
 15 16  1  0
 16 17  2  0
 17 18  1  0
 18 19  2  0
 19 20  1  0
 20 21  2  0
  2 22  1  0
 22 23  2  0
 23 24  1  0
 24 25  2  0
 25 26  1  0
 26 27  2  0
 21 12  1  0
 27 22  1  0
 20 15  1  0
  1 28  1  0
  1 29  1  0
  1 30  1  0
  3 31  1  0
  3 32  1  0
  4 33  1  0
  4 34  1  0
  5 35  1  0
  8 36  1  0
  8 37  1  0
  9 38  1  0
 13 39  1  0
 14 40  1  0
 16 41  1  0
 17 42  1  0
 18 43  1  0
 19 44  1  0
 23 45  1  0
 24 46  1  0
 25 47  1  0
 26 48  1  0
 27 49  1  0
M  END
>  <smiles>  (40) 
CN(CCNC(=O)CNC(=O)c1ccc2ccccc2n1)c1ccccc1

>  <score_type>  (40) 
oracle

>  <origin>  (40) 
autodockgpu

>  <m_score__min__energy>  (40) 
-8.4499999999999993

>  <m_primary>  (40) 
energy

>  <rmsd>  (40) 
9.326489417091722

>  <m_score__min__rmsd>  (40) 
9.326489417091722

>  <meeko>  (40) 
{"free_energy": -8.06, "intermolecular_energy": -10.15, "internal_energy": -1.85, "cluster_size": 18, "cluster_id": 1, "rank_in_cluster": 12}

>  <energy>  (40) 
-7.86

>  <cluster_rmsd>  (40) 
1.41

>  <cluster>  (40) 
2

$$$$

     RDKit          3D

 49 51  0  0  0  0  0  0  0  0999 V2000
  138.0090   79.8310  223.4350 C   0  0  0  0  0  0  0  0  0  0  0  0
  139.0420   78.9400  222.9310 N   0  0  0  0  0  0  0  0  0  0  0  0
  138.6560   77.5950  222.4920 C   0  0  0  0  0  0  0  0  0  0  0  0
  139.8900   76.7170  222.5240 C   0  0  0  0  0  0  0  0  0  0  0  0
  139.5240   75.3330  222.3030 N   0  0  0  0  0  0  0  0  0  0  0  0
  139.0990   74.8110  221.0610 C   0  0  0  0  0  0  0  0  0  0  0  0
  139.0430   75.6420  220.0950 O   0  0  0  0  0  0  0  0  0  0  0  0
  138.7220   73.4320  220.7750 C   0  0  0  0  0  0  0  0  0  0  0  0
  138.6190   72.5550  221.9140 N   0  0  0  0  0  0  0  0  0  0  0  0
  139.8080   72.3970  222.7050 C   0  0  0  0  0  0  0  0  0  0  0  0
  140.8130   73.0430  222.3150 O   0  0  0  0  0  0  0  0  0  0  0  0
  139.8390   71.5410  223.8810 C   0  0  0  0  0  0  0  0  0  0  0  0
  139.1790   70.3260  223.8020 C   0  0  0  0  0  0  0  0  0  0  0  0
  139.1450   69.4400  224.8600 C   0  0  0  0  0  0  0  0  0  0  0  0
  139.8000   69.8080  226.0220 C   0  0  0  0  0  0  0  0  0  0  0  0
  139.8040   68.9620  227.1210 C   0  0  0  0  0  0  0  0  0  0  0  0
  140.4360   69.2760  228.2900 C   0  0  0  0  0  0  0  0  0  0  0  0
  141.0930   70.5060  228.3430 C   0  0  0  0  0  0  0  0  0  0  0  0
  141.1040   71.3620  227.2670 C   0  0  0  0  0  0  0  0  0  0  0  0
  140.4570   71.0200  226.0970 C   0  0  0  0  0  0  0  0  0  0  0  0
  140.4660   71.8670  225.0250 N   0  0  0  0  0  0  0  0  0  0  0  0
  140.3620   79.4190  222.8950 C   0  0  0  0  0  0  0  0  0  0  0  0
  140.8080   79.9760  221.7000 C   0  0  0  0  0  0  0  0  0  0  0  0
  142.1150   80.4690  221.6050 C   0  0  0  0  0  0  0  0  0  0  0  0
  142.9820   80.4180  222.6640 C   0  0  0  0  0  0  0  0  0  0  0  0
  142.5490   79.8680  223.8510 C   0  0  0  0  0  0  0  0  0  0  0  0
  141.2550   79.3870  223.9280 C   0  0  0  0  0  0  0  0  0  0  0  0
  138.0207   79.8209  224.5349 H   0  0  0  0  0  0  0  0  0  0  0  0
  138.1991   80.8531  223.0757 H   0  0  0  0  0  0  0  0  0  0  0  0
  137.0259   79.4929  223.0757 H   0  0  0  0  0  0  0  0  0  0  0  0
  137.8907   77.1872  223.1688 H   0  0  0  0  0  0  0  0  0  0  0  0
  138.2404   77.6311  221.4742 H   0  0  0  0  0  0  0  0  0  0  0  0
  140.5860   77.0393  221.7355 H   0  0  0  0  0  0  0  0  0  0  0  0
  140.3707   76.8086  223.5091 H   0  0  0  0  0  0  0  0  0  0  0  0
  139.5770   74.6720  223.1060 H   0  0  0  0  0  0  0  0  0  0  0  0
  137.7432   73.4480  220.2732 H   0  0  0  0  0  0  0  0  0  0  0  0
  139.5373   73.0237  220.1597 H   0  0  0  0  0  0  0  0  0  0  0  0
  137.7720   72.0340  222.2080 H   0  0  0  0  0  0  0  0  0  0  0  0
  138.6657   70.0585  222.8666 H   0  0  0  0  0  0  0  0  0  0  0  0
  138.6173   68.4780  224.7823 H   0  0  0  0  0  0  0  0  0  0  0  0
  139.2768   67.9993  227.0480 H   0  0  0  0  0  0  0  0  0  0  0  0
  140.4276   68.5908  229.1505 H   0  0  0  0  0  0  0  0  0  0  0  0
  141.6141   70.7975  229.2669 H   0  0  0  0  0  0  0  0  0  0  0  0
  141.6314   72.3246  227.3392 H   0  0  0  0  0  0  0  0  0  0  0  0
  140.1348   80.0288  220.8317 H   0  0  0  0  0  0  0  0  0  0  0  0
  142.4542   80.9086  220.6554 H   0  0  0  0  0  0  0  0  0  0  0  0
  144.0057   80.8091  222.5687 H   0  0  0  0  0  0  0  0  0  0  0  0
  143.2201   79.8127  224.7208 H   0  0  0  0  0  0  0  0  0  0  0  0
  140.9236   78.9508  224.8819 H   0  0  0  0  0  0  0  0  0  0  0  0
  1  2  1  0
  2  3  1  0
  3  4  1  0
  4  5  1  0
  5  6  1  0
  6  7  2  0
  6  8  1  0
  8  9  1  0
  9 10  1  0
 10 11  2  0
 10 12  1  0
 12 13  2  0
 13 14  1  0
 14 15  2  0
 15 16  1  0
 16 17  2  0
 17 18  1  0
 18 19  2  0
 19 20  1  0
 20 21  2  0
  2 22  1  0
 22 23  2  0
 23 24  1  0
 24 25  2  0
 25 26  1  0
 26 27  2  0
 21 12  1  0
 27 22  1  0
 20 15  1  0
  1 28  1  0
  1 29  1  0
  1 30  1  0
  3 31  1  0
  3 32  1  0
  4 33  1  0
  4 34  1  0
  5 35  1  0
  8 36  1  0
  8 37  1  0
  9 38  1  0
 13 39  1  0
 14 40  1  0
 16 41  1  0
 17 42  1  0
 18 43  1  0
 19 44  1  0
 23 45  1  0
 24 46  1  0
 25 47  1  0
 26 48  1  0
 27 49  1  0
M  END
>  <smiles>  (41) 
CN(CCNC(=O)CNC(=O)c1ccc2ccccc2n1)c1ccccc1

>  <score_type>  (41) 
oracle

>  <origin>  (41) 
autodockgpu

>  <m_score__min__energy>  (41) 
-8.4499999999999993

>  <m_primary>  (41) 
energy

>  <rmsd>  (41) 
5.262746085762547

>  <m_score__min__rmsd>  (41) 
5.262746085762547

>  <meeko>  (41) 
{"free_energy": -8.22, "intermolecular_energy": -10.3, "internal_energy": -1.5, "cluster_size": 31, "cluster_id": 2, "rank_in_cluster": 6}

>  <energy>  (41) 
-7.85

>  <cluster_rmsd>  (41) 
1.51

>  <cluster>  (41) 
2

$$$$

     RDKit          3D

 49 51  0  0  0  0  0  0  0  0999 V2000
  137.2710   69.4670  224.8090 C   0  0  0  0  0  0  0  0  0  0  0  0
  138.7100   69.6820  224.7580 N   0  0  0  0  0  0  0  0  0  0  0  0
  139.2760   70.3590  223.5870 C   0  0  0  0  0  0  0  0  0  0  0  0
  140.1090   71.5260  224.0750 C   0  0  0  0  0  0  0  0  0  0  0  0
  140.1100   72.5870  223.0890 N   0  0  0  0  0  0  0  0  0  0  0  0
  140.7830   72.5190  221.8490 C   0  0  0  0  0  0  0  0  0  0  0  0
  141.4230   71.4400  221.6170 O   0  0  0  0  0  0  0  0  0  0  0  0
  140.8200   73.5470  220.8160 C   0  0  0  0  0  0  0  0  0  0  0  0
  141.1340   74.8810  221.2630 N   0  0  0  0  0  0  0  0  0  0  0  0
  140.0610   75.6180  221.8720 C   0  0  0  0  0  0  0  0  0  0  0  0
  138.9600   75.0160  221.9470 O   0  0  0  0  0  0  0  0  0  0  0  0
  140.2450   76.9740  222.3660 C   0  0  0  0  0  0  0  0  0  0  0  0
  139.1090   77.6800  222.7270 C   0  0  0  0  0  0  0  0  0  0  0  0
  139.1720   78.9730  223.2060 C   0  0  0  0  0  0  0  0  0  0  0  0
  140.4240   79.5530  223.3160 C   0  0  0  0  0  0  0  0  0  0  0  0
  140.5550   80.8500  223.7920 C   0  0  0  0  0  0  0  0  0  0  0  0
  141.7650   81.4670  223.9220 C   0  0  0  0  0  0  0  0  0  0  0  0
  142.8930   80.7340  223.5500 C   0  0  0  0  0  0  0  0  0  0  0  0
  142.7890   79.4470  223.0770 C   0  0  0  0  0  0  0  0  0  0  0  0
  141.5530   78.8460  222.9560 C   0  0  0  0  0  0  0  0  0  0  0  0
  141.4460   77.5680  222.4860 N   0  0  0  0  0  0  0  0  0  0  0  0
  139.4810   69.2250  225.8380 C   0  0  0  0  0  0  0  0  0  0  0  0
  139.9190   67.9040  225.7990 C   0  0  0  0  0  0  0  0  0  0  0  0
  140.6900   67.3930  226.8500 C   0  0  0  0  0  0  0  0  0  0  0  0
  141.0320   68.1600  227.9320 C   0  0  0  0  0  0  0  0  0  0  0  0
  140.6020   69.4690  227.9800 C   0  0  0  0  0  0  0  0  0  0  0  0
  139.8420   69.9580  226.9330 C   0  0  0  0  0  0  0  0  0  0  0  0
  136.9445   69.4182  225.8583 H   0  0  0  0  0  0  0  0  0  0  0  0
  136.7579   70.2985  224.3036 H   0  0  0  0  0  0  0  0  0  0  0  0
  137.0233   68.5219  224.3036 H   0  0  0  0  0  0  0  0  0  0  0  0
  139.9093   69.6594  223.0218 H   0  0  0  0  0  0  0  0  0  0  0  0
  138.4714   70.7149  222.9267 H   0  0  0  0  0  0  0  0  0  0  0  0
  139.6860   71.9056  225.0168 H   0  0  0  0  0  0  0  0  0  0  0  0
  141.1425   71.1861  224.2374 H   0  0  0  0  0  0  0  0  0  0  0  0
  139.5830   73.4590  223.2990 H   0  0  0  0  0  0  0  0  0  0  0  0
  141.5785   73.2529  220.0756 H   0  0  0  0  0  0  0  0  0  0  0  0
  139.7971   73.6016  220.4152 H   0  0  0  0  0  0  0  0  0  0  0  0
  142.0550   75.3500  221.1840 H   0  0  0  0  0  0  0  0  0  0  0  0
  138.1265   77.1952  222.6289 H   0  0  0  0  0  0  0  0  0  0  0  0
  138.2618   79.5217  223.4895 H   0  0  0  0  0  0  0  0  0  0  0  0
  139.6472   81.4026  224.0758 H   0  0  0  0  0  0  0  0  0  0  0  0
  141.8478   82.4957  224.3028 H   0  0  0  0  0  0  0  0  0  0  0  0
  143.8874   81.1961  223.6371 H   0  0  0  0  0  0  0  0  0  0  0  0
  143.6964   78.8935  222.7935 H   0  0  0  0  0  0  0  0  0  0  0  0
  139.6597   67.2627  224.9437 H   0  0  0  0  0  0  0  0  0  0  0  0
  141.0301   66.3478  226.8056 H   0  0  0  0  0  0  0  0  0  0  0  0
  141.6385   67.7394  228.7476 H   0  0  0  0  0  0  0  0  0  0  0  0
  140.8585   70.1122  228.8347 H   0  0  0  0  0  0  0  0  0  0  0  0
  139.5066   71.0043  226.9853 H   0  0  0  0  0  0  0  0  0  0  0  0
  1  2  1  0
  2  3  1  0
  3  4  1  0
  4  5  1  0
  5  6  1  0
  6  7  2  0
  6  8  1  0
  8  9  1  0
  9 10  1  0
 10 11  2  0
 10 12  1  0
 12 13  2  0
 13 14  1  0
 14 15  2  0
 15 16  1  0
 16 17  2  0
 17 18  1  0
 18 19  2  0
 19 20  1  0
 20 21  2  0
  2 22  1  0
 22 23  2  0
 23 24  1  0
 24 25  2  0
 25 26  1  0
 26 27  2  0
 21 12  1  0
 27 22  1  0
 20 15  1  0
  1 28  1  0
  1 29  1  0
  1 30  1  0
  3 31  1  0
  3 32  1  0
  4 33  1  0
  4 34  1  0
  5 35  1  0
  8 36  1  0
  8 37  1  0
  9 38  1  0
 13 39  1  0
 14 40  1  0
 16 41  1  0
 17 42  1  0
 18 43  1  0
 19 44  1  0
 23 45  1  0
 24 46  1  0
 25 47  1  0
 26 48  1  0
 27 49  1  0
M  END
>  <smiles>  (42) 
CN(CCNC(=O)CNC(=O)c1ccc2ccccc2n1)c1ccccc1

>  <score_type>  (42) 
oracle

>  <origin>  (42) 
autodockgpu

>  <m_score__min__energy>  (42) 
-8.4499999999999993

>  <m_primary>  (42) 
energy

>  <rmsd>  (42) 
9.3095062558087

>  <m_score__min__rmsd>  (42) 
9.3095062558087

>  <meeko>  (42) 
{"free_energy": -8.43, "intermolecular_energy": -10.52, "internal_energy": -1.84, "cluster_size": 18, "cluster_id": 1, "rank_in_cluster": 2}

>  <energy>  (42) 
-7.83

>  <cluster_rmsd>  (42) 
1.45

>  <cluster>  (42) 
2

$$$$

     RDKit          3D

 49 51  0  0  0  0  0  0  0  0999 V2000
  141.0200   76.2400  222.0160 C   0  0  0  0  0  0  0  0  0  0  0  0
  140.1900   77.4290  222.1260 N   0  0  0  0  0  0  0  0  0  0  0  0
  138.7930   77.3530  221.6840 C   0  0  0  0  0  0  0  0  0  0  0  0
  138.0460   76.4470  222.6410 C   0  0  0  0  0  0  0  0  0  0  0  0
  138.3540   75.0600  222.3590 N   0  0  0  0  0  0  0  0  0  0  0  0
  137.9810   74.3880  221.1740 C   0  0  0  0  0  0  0  0  0  0  0  0
  137.3300   75.0770  220.3210 O   0  0  0  0  0  0  0  0  0  0  0  0
  138.2620   72.9980  220.8310 C   0  0  0  0  0  0  0  0  0  0  0  0
  138.4070   72.0900  221.9400 N   0  0  0  0  0  0  0  0  0  0  0  0
  139.5780   72.2640  222.7570 C   0  0  0  0  0  0  0  0  0  0  0  0
  140.3500   73.1920  222.4110 O   0  0  0  0  0  0  0  0  0  0  0  0
  139.8430   71.4140  223.9070 C   0  0  0  0  0  0  0  0  0  0  0  0
  140.7260   71.8910  224.8620 C   0  0  0  0  0  0  0  0  0  0  0  0
  141.0480   71.1650  225.9900 C   0  0  0  0  0  0  0  0  0  0  0  0
  140.4550   69.9230  226.1420 C   0  0  0  0  0  0  0  0  0  0  0  0
  140.7360   69.1440  227.2540 C   0  0  0  0  0  0  0  0  0  0  0  0
  140.1770   67.9150  227.4520 C   0  0  0  0  0  0  0  0  0  0  0  0
  139.2920   67.4570  226.4750 C   0  0  0  0  0  0  0  0  0  0  0  0
  138.9970   68.2110  225.3640 C   0  0  0  0  0  0  0  0  0  0  0  0
  139.5760   69.4510  225.1880 C   0  0  0  0  0  0  0  0  0  0  0  0
  139.2840   70.2030  224.0860 N   0  0  0  0  0  0  0  0  0  0  0  0
  140.7750   78.5930  222.6500 C   0  0  0  0  0  0  0  0  0  0  0  0
  139.9380   79.4940  223.3010 C   0  0  0  0  0  0  0  0  0  0  0  0
  140.4660   80.6720  223.8420 C   0  0  0  0  0  0  0  0  0  0  0  0
  141.7990   80.9720  223.7500 C   0  0  0  0  0  0  0  0  0  0  0  0
  142.6370   80.0860  223.1060 C   0  0  0  0  0  0  0  0  0  0  0  0
  142.0980   78.9270  222.5780 C   0  0  0  0  0  0  0  0  0  0  0  0
  141.2742   75.8759  223.0224 H   0  0  0  0  0  0  0  0  0  0  0  0
  140.4704   75.4583  221.4712 H   0  0  0  0  0  0  0  0  0  0  0  0
  141.9433   76.4865  221.4712 H   0  0  0  0  0  0  0  0  0  0  0  0
  138.3437   78.3570  221.6934 H   0  0  0  0  0  0  0  0  0  0  0  0
  138.7380   76.9545  220.6602 H   0  0  0  0  0  0  0  0  0  0  0  0
  138.3447   76.6831  223.6730 H   0  0  0  0  0  0  0  0  0  0  0  0
  136.9648   76.6072  222.5174 H   0  0  0  0  0  0  0  0  0  0  0  0
  138.8860   74.5150  223.0700 H   0  0  0  0  0  0  0  0  0  0  0  0
  137.4359   72.6329  220.2031 H   0  0  0  0  0  0  0  0  0  0  0  0
  139.2399   73.0091  220.3274 H   0  0  0  0  0  0  0  0  0  0  0  0
  137.7500   71.3310  222.1970 H   0  0  0  0  0  0  0  0  0  0  0  0
  141.1849   72.8800  224.7162 H   0  0  0  0  0  0  0  0  0  0  0  0
  141.7496   71.5580  226.7406 H   0  0  0  0  0  0  0  0  0  0  0  0
  141.4377   69.5323  228.0069 H   0  0  0  0  0  0  0  0  0  0  0  0
  140.4133   67.3125  228.3415 H   0  0  0  0  0  0  0  0  0  0  0  0
  138.8200   66.4709  226.5966 H   0  0  0  0  0  0  0  0  0  0  0  0
  138.2952   67.8235  224.6108 H   0  0  0  0  0  0  0  0  0  0  0  0
  138.8626   79.2807  223.3904 H   0  0  0  0  0  0  0  0  0  0  0  0
  139.7928   81.3750  224.3543 H   0  0  0  0  0  0  0  0  0  0  0  0
  142.1943   81.9031  224.1821 H   0  0  0  0  0  0  0  0  0  0  0  0
  143.7127   80.2970  223.0141 H   0  0  0  0  0  0  0  0  0  0  0  0
  142.7780   78.2293  222.0673 H   0  0  0  0  0  0  0  0  0  0  0  0
  1  2  1  0
  2  3  1  0
  3  4  1  0
  4  5  1  0
  5  6  1  0
  6  7  2  0
  6  8  1  0
  8  9  1  0
  9 10  1  0
 10 11  2  0
 10 12  1  0
 12 13  2  0
 13 14  1  0
 14 15  2  0
 15 16  1  0
 16 17  2  0
 17 18  1  0
 18 19  2  0
 19 20  1  0
 20 21  2  0
  2 22  1  0
 22 23  2  0
 23 24  1  0
 24 25  2  0
 25 26  1  0
 26 27  2  0
 21 12  1  0
 27 22  1  0
 20 15  1  0
  1 28  1  0
  1 29  1  0
  1 30  1  0
  3 31  1  0
  3 32  1  0
  4 33  1  0
  4 34  1  0
  5 35  1  0
  8 36  1  0
  8 37  1  0
  9 38  1  0
 13 39  1  0
 14 40  1  0
 16 41  1  0
 17 42  1  0
 18 43  1  0
 19 44  1  0
 23 45  1  0
 24 46  1  0
 25 47  1  0
 26 48  1  0
 27 49  1  0
M  END
>  <smiles>  (43) 
CN(CCNC(=O)CNC(=O)c1ccc2ccccc2n1)c1ccccc1

>  <score_type>  (43) 
oracle

>  <origin>  (43) 
autodockgpu

>  <m_score__min__energy>  (43) 
-8.4499999999999993

>  <m_primary>  (43) 
energy

>  <rmsd>  (43) 
4.248791824508616

>  <m_score__min__rmsd>  (43) 
4.248791824508616

>  <meeko>  (43) 
{"free_energy": -8.13, "intermolecular_energy": -10.22, "internal_energy": -1.94, "cluster_size": 31, "cluster_id": 2, "rank_in_cluster": 11}

>  <energy>  (43) 
-7.82

>  <cluster_rmsd>  (43) 
1.5

>  <cluster>  (43) 
2

$$$$

     RDKit          3D

 49 51  0  0  0  0  0  0  0  0999 V2000
  137.8860   68.9210  225.0920 C   0  0  0  0  0  0  0  0  0  0  0  0
  138.9380   69.8860  224.8090 N   0  0  0  0  0  0  0  0  0  0  0  0
  139.1710   70.2800  223.4150 C   0  0  0  0  0  0  0  0  0  0  0  0
  138.3330   71.5100  223.1290 C   0  0  0  0  0  0  0  0  0  0  0  0
  138.9920   72.3450  222.1460 N   0  0  0  0  0  0  0  0  0  0  0  0
  140.3680   72.6650  222.1680 C   0  0  0  0  0  0  0  0  0  0  0  0
  141.0420   72.1710  223.1310 O   0  0  0  0  0  0  0  0  0  0  0  0
  141.0880   73.4950  221.2090 C   0  0  0  0  0  0  0  0  0  0  0  0
  141.3360   74.8560  221.6120 N   0  0  0  0  0  0  0  0  0  0  0  0
  140.1810   75.6380  221.9600 C   0  0  0  0  0  0  0  0  0  0  0  0
  139.0760   75.0460  221.8730 O   0  0  0  0  0  0  0  0  0  0  0  0
  140.2930   77.0250  222.3830 C   0  0  0  0  0  0  0  0  0  0  0  0
  139.1160   77.7190  222.6100 C   0  0  0  0  0  0  0  0  0  0  0  0
  139.1100   79.0390  223.0130 C   0  0  0  0  0  0  0  0  0  0  0  0
  140.3350   79.6600  223.1860 C   0  0  0  0  0  0  0  0  0  0  0  0
  140.3970   80.9850  223.5910 C   0  0  0  0  0  0  0  0  0  0  0  0
  141.5770   81.6430  223.7780 C   0  0  0  0  0  0  0  0  0  0  0  0
  142.7490   80.9210  223.5420 C   0  0  0  0  0  0  0  0  0  0  0  0
  142.7130   79.6070  223.1410 C   0  0  0  0  0  0  0  0  0  0  0  0
  141.5050   78.9650  222.9590 C   0  0  0  0  0  0  0  0  0  0  0  0
  141.4660   77.6580  222.5620 N   0  0  0  0  0  0  0  0  0  0  0  0
  139.6780   70.3870  225.8910 C   0  0  0  0  0  0  0  0  0  0  0  0
  139.6630   69.6520  227.0730 C   0  0  0  0  0  0  0  0  0  0  0  0
  140.3810   70.1050  228.1860 C   0  0  0  0  0  0  0  0  0  0  0  0
  141.1090   71.2650  228.1500 C   0  0  0  0  0  0  0  0  0  0  0  0
  141.1310   71.9990  226.9840 C   0  0  0  0  0  0  0  0  0  0  0  0
  140.4150   71.5380  225.8940 C   0  0  0  0  0  0  0  0  0  0  0  0
  137.7696   68.8142  226.1806 H   0  0  0  0  0  0  0  0  0  0  0  0
  136.9395   69.2716  224.6546 H   0  0  0  0  0  0  0  0  0  0  0  0
  138.1538   67.9478  224.6546 H   0  0  0  0  0  0  0  0  0  0  0  0
  140.2360   70.5110  223.2655 H   0  0  0  0  0  0  0  0  0  0  0  0
  138.8922   69.4614  222.7351 H   0  0  0  0  0  0  0  0  0  0  0  0
  137.3511   71.1992  222.7425 H   0  0  0  0  0  0  0  0  0  0  0  0
  138.2054   72.0825  224.0596 H   0  0  0  0  0  0  0  0  0  0  0  0
  138.4230   72.7380  221.3680 H   0  0  0  0  0  0  0  0  0  0  0  0
  142.0605   73.0189  221.0154 H   0  0  0  0  0  0  0  0  0  0  0  0
  140.4354   73.5616  220.3260 H   0  0  0  0  0  0  0  0  0  0  0  0
  142.2640   75.3150  221.6710 H   0  0  0  0  0  0  0  0  0  0  0  0
  138.1561   77.2019  222.4645 H   0  0  0  0  0  0  0  0  0  0  0  0
  138.1672   79.5773  223.1901 H   0  0  0  0  0  0  0  0  0  0  0  0
  139.4565   81.5271  223.7686 H   0  0  0  0  0  0  0  0  0  0  0  0
  141.6043   82.6945  224.1000 H   0  0  0  0  0  0  0  0  0  0  0  0
  143.7221   81.4149  223.6801 H   0  0  0  0  0  0  0  0  0  0  0  0
  143.6529   79.0636  222.9640 H   0  0  0  0  0  0  0  0  0  0  0  0
  139.0876   68.7164  227.1324 H   0  0  0  0  0  0  0  0  0  0  0  0
  140.3601   69.5142  229.1137 H   0  0  0  0  0  0  0  0  0  0  0  0
  141.6659   71.6043  229.0358 H   0  0  0  0  0  0  0  0  0  0  0  0
  141.7071   72.9340  226.9212 H   0  0  0  0  0  0  0  0  0  0  0  0
  140.4404   72.1357  224.9709 H   0  0  0  0  0  0  0  0  0  0  0  0
  1  2  1  0
  2  3  1  0
  3  4  1  0
  4  5  1  0
  5  6  1  0
  6  7  2  0
  6  8  1  0
  8  9  1  0
  9 10  1  0
 10 11  2  0
 10 12  1  0
 12 13  2  0
 13 14  1  0
 14 15  2  0
 15 16  1  0
 16 17  2  0
 17 18  1  0
 18 19  2  0
 19 20  1  0
 20 21  2  0
  2 22  1  0
 22 23  2  0
 23 24  1  0
 24 25  2  0
 25 26  1  0
 26 27  2  0
 21 12  1  0
 27 22  1  0
 20 15  1  0
  1 28  1  0
  1 29  1  0
  1 30  1  0
  3 31  1  0
  3 32  1  0
  4 33  1  0
  4 34  1  0
  5 35  1  0
  8 36  1  0
  8 37  1  0
  9 38  1  0
 13 39  1  0
 14 40  1  0
 16 41  1  0
 17 42  1  0
 18 43  1  0
 19 44  1  0
 23 45  1  0
 24 46  1  0
 25 47  1  0
 26 48  1  0
 27 49  1  0
M  END
>  <smiles>  (44) 
CN(CCNC(=O)CNC(=O)c1ccc2ccccc2n1)c1ccccc1

>  <score_type>  (44) 
oracle

>  <origin>  (44) 
autodockgpu

>  <m_score__min__energy>  (44) 
-8.4499999999999993

>  <m_primary>  (44) 
energy

>  <rmsd>  (44) 
8.899552418064

>  <m_score__min__rmsd>  (44) 
8.899552418064

>  <meeko>  (44) 
{"free_energy": -8.19, "intermolecular_energy": -10.28, "internal_energy": -1.45, "cluster_size": 18, "cluster_id": 1, "rank_in_cluster": 7}

>  <energy>  (44) 
-7.77

>  <cluster_rmsd>  (44) 
1.39

>  <cluster>  (44) 
2

$$$$

     RDKit          3D

 49 51  0  0  0  0  0  0  0  0999 V2000
  140.9770   76.3170  221.9630 C   0  0  0  0  0  0  0  0  0  0  0  0
  140.1140   77.4830  222.0760 N   0  0  0  0  0  0  0  0  0  0  0  0
  138.7170   77.3670  221.6470 C   0  0  0  0  0  0  0  0  0  0  0  0
  138.0020   76.4510  222.6180 C   0  0  0  0  0  0  0  0  0  0  0  0
  138.3590   75.0710  222.3600 N   0  0  0  0  0  0  0  0  0  0  0  0
  137.6840   74.2330  221.4440 C   0  0  0  0  0  0  0  0  0  0  0  0
  136.7000   74.7580  220.8250 O   0  0  0  0  0  0  0  0  0  0  0  0
  137.9960   72.8420  221.1380 C   0  0  0  0  0  0  0  0  0  0  0  0
  138.2250   71.9810  222.2700 N   0  0  0  0  0  0  0  0  0  0  0  0
  139.4770   72.1500  222.9560 C   0  0  0  0  0  0  0  0  0  0  0  0
  140.2390   73.0330  222.4890 O   0  0  0  0  0  0  0  0  0  0  0  0
  139.8320   71.3450  224.1140 C   0  0  0  0  0  0  0  0  0  0  0  0
  140.7270   71.8910  225.0200 C   0  0  0  0  0  0  0  0  0  0  0  0
  141.1310   71.2120  226.1510 C   0  0  0  0  0  0  0  0  0  0  0  0
  140.6090   69.9470  226.3570 C   0  0  0  0  0  0  0  0  0  0  0  0
  140.9750   69.2120  227.4750 C   0  0  0  0  0  0  0  0  0  0  0  0
  140.4880   67.9620  227.7260 C   0  0  0  0  0  0  0  0  0  0  0  0
  139.5890   67.4340  226.7980 C   0  0  0  0  0  0  0  0  0  0  0  0
  139.2110   68.1430  225.6820 C   0  0  0  0  0  0  0  0  0  0  0  0
  139.7180   69.4060  225.4520 C   0  0  0  0  0  0  0  0  0  0  0  0
  139.3440   70.1130  224.3450 N   0  0  0  0  0  0  0  0  0  0  0  0
  140.6720   78.6640  222.5920 C   0  0  0  0  0  0  0  0  0  0  0  0
  140.0460   79.8640  222.2650 C   0  0  0  0  0  0  0  0  0  0  0  0
  140.5580   81.0730  222.7500 C   0  0  0  0  0  0  0  0  0  0  0  0
  141.6720   81.1160  223.5460 C   0  0  0  0  0  0  0  0  0  0  0  0
  142.2990   79.9330  223.8750 C   0  0  0  0  0  0  0  0  0  0  0  0
  141.7790   78.7480  223.3880 C   0  0  0  0  0  0  0  0  0  0  0  0
  141.2424   75.9584  222.9685 H   0  0  0  0  0  0  0  0  0  0  0  0
  140.4486   75.5212  221.4175 H   0  0  0  0  0  0  0  0  0  0  0  0
  141.8924   76.5899  221.4175 H   0  0  0  0  0  0  0  0  0  0  0  0
  138.2419   78.3591  221.6514 H   0  0  0  0  0  0  0  0  0  0  0  0
  138.6639   76.9580  220.6272 H   0  0  0  0  0  0  0  0  0  0  0  0
  138.2909   76.7148  223.6461 H   0  0  0  0  0  0  0  0  0  0  0  0
  136.9160   76.5704  222.4904 H   0  0  0  0  0  0  0  0  0  0  0  0
  139.1650   74.6610  222.8760 H   0  0  0  0  0  0  0  0  0  0  0  0
  137.1541   72.4268  220.5646 H   0  0  0  0  0  0  0  0  0  0  0  0
  138.9480   72.8665  220.5875 H   0  0  0  0  0  0  0  0  0  0  0  0
  137.5740   71.2590  222.6290 H   0  0  0  0  0  0  0  0  0  0  0  0
  141.1281   72.8978  224.8315 H   0  0  0  0  0  0  0  0  0  0  0  0
  141.8412   71.6592  226.8621 H   0  0  0  0  0  0  0  0  0  0  0  0
  141.6863   69.6544  228.1879 H   0  0  0  0  0  0  0  0  0  0  0  0
  140.7904   67.3961  228.6195 H   0  0  0  0  0  0  0  0  0  0  0  0
  139.1738   66.4288  226.9630 H   0  0  0  0  0  0  0  0  0  0  0  0
  138.5003   67.7009  224.9683 H   0  0  0  0  0  0  0  0  0  0  0  0
  139.1504   79.8618  221.6264 H   0  0  0  0  0  0  0  0  0  0  0  0
  140.0525   82.0134  222.4850 H   0  0  0  0  0  0  0  0  0  0  0  0
  142.0592   82.0768  223.9160 H   0  0  0  0  0  0  0  0  0  0  0  0
  143.1954   79.9319  224.5125 H   0  0  0  0  0  0  0  0  0  0  0  0
  142.2898   77.8123  223.6591 H   0  0  0  0  0  0  0  0  0  0  0  0
  1  2  1  0
  2  3  1  0
  3  4  1  0
  4  5  1  0
  5  6  1  0
  6  7  2  0
  6  8  1  0
  8  9  1  0
  9 10  1  0
 10 11  2  0
 10 12  1  0
 12 13  2  0
 13 14  1  0
 14 15  2  0
 15 16  1  0
 16 17  2  0
 17 18  1  0
 18 19  2  0
 19 20  1  0
 20 21  2  0
  2 22  1  0
 22 23  2  0
 23 24  1  0
 24 25  2  0
 25 26  1  0
 26 27  2  0
 21 12  1  0
 27 22  1  0
 20 15  1  0
  1 28  1  0
  1 29  1  0
  1 30  1  0
  3 31  1  0
  3 32  1  0
  4 33  1  0
  4 34  1  0
  5 35  1  0
  8 36  1  0
  8 37  1  0
  9 38  1  0
 13 39  1  0
 14 40  1  0
 16 41  1  0
 17 42  1  0
 18 43  1  0
 19 44  1  0
 23 45  1  0
 24 46  1  0
 25 47  1  0
 26 48  1  0
 27 49  1  0
M  END
>  <smiles>  (45) 
CN(CCNC(=O)CNC(=O)c1ccc2ccccc2n1)c1ccccc1

>  <score_type>  (45) 
oracle

>  <origin>  (45) 
autodockgpu

>  <m_score__min__energy>  (45) 
-8.4499999999999993

>  <m_primary>  (45) 
energy

>  <rmsd>  (45) 
4.396522126755204

>  <m_score__min__rmsd>  (45) 
4.396522126755204

>  <meeko>  (45) 
{"free_energy": -8.01, "intermolecular_energy": -10.09, "internal_energy": -1.92, "cluster_size": 31, "cluster_id": 2, "rank_in_cluster": 15}

>  <energy>  (45) 
-7.77

>  <cluster_rmsd>  (45) 
1.66

>  <cluster>  (45) 
2

$$$$

     RDKit          3D

 49 51  0  0  0  0  0  0  0  0999 V2000
  138.8390   77.9460  222.6460 C   0  0  0  0  0  0  0  0  0  0  0  0
  140.2940   77.9190  222.6790 N   0  0  0  0  0  0  0  0  0  0  0  0
  140.9780   76.6540  222.3890 C   0  0  0  0  0  0  0  0  0  0  0  0
  140.4660   76.1360  221.0610 C   0  0  0  0  0  0  0  0  0  0  0  0
  139.9460   74.7920  221.2160 N   0  0  0  0  0  0  0  0  0  0  0  0
  138.5710   74.4730  221.2710 C   0  0  0  0  0  0  0  0  0  0  0  0
  137.7640   75.4570  221.1770 O   0  0  0  0  0  0  0  0  0  0  0  0
  137.9860   73.1460  221.4220 C   0  0  0  0  0  0  0  0  0  0  0  0
  138.2010   72.5020  222.6930 N   0  0  0  0  0  0  0  0  0  0  0  0
  139.5010   71.9250  222.9030 C   0  0  0  0  0  0  0  0  0  0  0  0
  140.3110   72.0460  221.9510 O   0  0  0  0  0  0  0  0  0  0  0  0
  139.8470   71.2470  224.1420 C   0  0  0  0  0  0  0  0  0  0  0  0
  140.7110   71.8990  225.0060 C   0  0  0  0  0  0  0  0  0  0  0  0
  141.1050   71.3440  226.2070 C   0  0  0  0  0  0  0  0  0  0  0  0
  140.6040   70.0940  226.5280 C   0  0  0  0  0  0  0  0  0  0  0  0
  140.9610   69.4820  227.7200 C   0  0  0  0  0  0  0  0  0  0  0  0
  140.4940   68.2520  228.0850 C   0  0  0  0  0  0  0  0  0  0  0  0
  139.6250   67.6160  227.1960 C   0  0  0  0  0  0  0  0  0  0  0  0
  139.2560   68.2030  226.0080 C   0  0  0  0  0  0  0  0  0  0  0  0
  139.7430   69.4470  225.6640 C   0  0  0  0  0  0  0  0  0  0  0  0
  139.3780   70.0340  224.4850 N   0  0  0  0  0  0  0  0  0  0  0  0
  140.9650   79.1110  222.9900 C   0  0  0  0  0  0  0  0  0  0  0  0
  140.2950   80.3070  222.7470 C   0  0  0  0  0  0  0  0  0  0  0  0
  140.9150   81.5270  223.0370 C   0  0  0  0  0  0  0  0  0  0  0  0
  142.1810   81.5850  223.5580 C   0  0  0  0  0  0  0  0  0  0  0  0
  142.8540   80.4070  223.8020 C   0  0  0  0  0  0  0  0  0  0  0  0
  142.2250   79.2100  223.5100 C   0  0  0  0  0  0  0  0  0  0  0  0
  138.4490   77.9532  223.6745 H   0  0  0  0  0  0  0  0  0  0  0  0
  138.5009   78.8506  222.1193 H   0  0  0  0  0  0  0  0  0  0  0  0
  138.4676   77.0546  222.1193 H   0  0  0  0  0  0  0  0  0  0  0  0
  142.0635   76.8220  222.3302 H   0  0  0  0  0  0  0  0  0  0  0  0
  140.7795   75.9220  223.1857 H   0  0  0  0  0  0  0  0  0  0  0  0
  139.6646   76.7962  220.6978 H   0  0  0  0  0  0  0  0  0  0  0  0
  141.2949   76.1195  220.3380 H   0  0  0  0  0  0  0  0  0  0  0  0
  140.6220   74.0040  221.2920 H   0  0  0  0  0  0  0  0  0  0  0  0
  136.9003   73.2375  221.2704 H   0  0  0  0  0  0  0  0  0  0  0  0
  138.4923   72.5123  220.6789 H   0  0  0  0  0  0  0  0  0  0  0  0
  137.5070   72.4180  223.4590 H   0  0  0  0  0  0  0  0  0  0  0  0
  141.0956   72.8909  224.7263 H   0  0  0  0  0  0  0  0  0  0  0  0
  141.7911   71.8749  226.8834 H   0  0  0  0  0  0  0  0  0  0  0  0
  141.6480   70.0086  228.3988 H   0  0  0  0  0  0  0  0  0  0  0  0
  140.7888   67.7836  229.0356 H   0  0  0  0  0  0  0  0  0  0  0  0
  139.2265   66.6231  227.4515 H   0  0  0  0  0  0  0  0  0  0  0  0
  138.5688   67.6776  225.3285 H   0  0  0  0  0  0  0  0  0  0  0  0
  139.2784   80.2926  222.3271 H   0  0  0  0  0  0  0  0  0  0  0  0
  140.3723   82.4637  222.8418 H   0  0  0  0  0  0  0  0  0  0  0  0
  142.6520   82.5545  223.7777 H   0  0  0  0  0  0  0  0  0  0  0  0
  143.8712   80.4185  224.2207 H   0  0  0  0  0  0  0  0  0  0  0  0
  142.7743   78.2780  223.7091 H   0  0  0  0  0  0  0  0  0  0  0  0
  1  2  1  0
  2  3  1  0
  3  4  1  0
  4  5  1  0
  5  6  1  0
  6  7  2  0
  6  8  1  0
  8  9  1  0
  9 10  1  0
 10 11  2  0
 10 12  1  0
 12 13  2  0
 13 14  1  0
 14 15  2  0
 15 16  1  0
 16 17  2  0
 17 18  1  0
 18 19  2  0
 19 20  1  0
 20 21  2  0
  2 22  1  0
 22 23  2  0
 23 24  1  0
 24 25  2  0
 25 26  1  0
 26 27  2  0
 21 12  1  0
 27 22  1  0
 20 15  1  0
  1 28  1  0
  1 29  1  0
  1 30  1  0
  3 31  1  0
  3 32  1  0
  4 33  1  0
  4 34  1  0
  5 35  1  0
  8 36  1  0
  8 37  1  0
  9 38  1  0
 13 39  1  0
 14 40  1  0
 16 41  1  0
 17 42  1  0
 18 43  1  0
 19 44  1  0
 23 45  1  0
 24 46  1  0
 25 47  1  0
 26 48  1  0
 27 49  1  0
M  END
>  <smiles>  (46) 
CN(CCNC(=O)CNC(=O)c1ccc2ccccc2n1)c1ccccc1

>  <score_type>  (46) 
oracle

>  <origin>  (46) 
autodockgpu

>  <m_score__min__energy>  (46) 
-8.4499999999999993

>  <m_primary>  (46) 
energy

>  <rmsd>  (46) 
4.743833424022001

>  <m_score__min__rmsd>  (46) 
4.743833424022001

>  <meeko>  (46) 
{"free_energy": -7.77, "intermolecular_energy": -9.85, "internal_energy": -1.77, "cluster_size": 31, "cluster_id": 2, "rank_in_cluster": 27}

>  <energy>  (46) 
-7.76

>  <cluster_rmsd>  (46) 
1.67

>  <cluster>  (46) 
2

$$$$

     RDKit          3D

 49 51  0  0  0  0  0  0  0  0999 V2000
  140.6980   71.4820  223.2700 C   0  0  0  0  0  0  0  0  0  0  0  0
  139.7270   70.9220  224.1980 N   0  0  0  0  0  0  0  0  0  0  0  0
  138.4570   70.4180  223.6650 C   0  0  0  0  0  0  0  0  0  0  0  0
  137.5270   71.5980  223.4740 C   0  0  0  0  0  0  0  0  0  0  0  0
  138.1290   72.5700  222.5840 N   0  0  0  0  0  0  0  0  0  0  0  0
  138.0750   72.4970  221.1740 C   0  0  0  0  0  0  0  0  0  0  0  0
  137.4510   71.4960  220.6890 O   0  0  0  0  0  0  0  0  0  0  0  0
  138.6560   73.4410  220.2270 C   0  0  0  0  0  0  0  0  0  0  0  0
  138.7050   74.8170  220.6540 N   0  0  0  0  0  0  0  0  0  0  0  0
  139.6880   75.1390  221.6520 C   0  0  0  0  0  0  0  0  0  0  0  0
  140.3990   74.1820  222.0460 O   0  0  0  0  0  0  0  0  0  0  0  0
  139.8410   76.4900  222.1680 C   0  0  0  0  0  0  0  0  0  0  0  0
  138.6900   77.1610  222.5500 C   0  0  0  0  0  0  0  0  0  0  0  0
  138.7240   78.4470  223.0510 C   0  0  0  0  0  0  0  0  0  0  0  0
  139.9610   79.0570  223.1620 C   0  0  0  0  0  0  0  0  0  0  0  0
  140.0630   80.3480  223.6590 C   0  0  0  0  0  0  0  0  0  0  0  0
  141.2580   80.9940  223.7910 C   0  0  0  0  0  0  0  0  0  0  0  0
  142.4020   80.2960  223.3990 C   0  0  0  0  0  0  0  0  0  0  0  0
  142.3270   79.0160  222.9040 C   0  0  0  0  0  0  0  0  0  0  0  0
  141.1050   78.3860  222.7810 C   0  0  0  0  0  0  0  0  0  0  0  0
  141.0270   77.1130  222.2900 N   0  0  0  0  0  0  0  0  0  0  0  0
  140.0620   70.8960  225.5610 C   0  0  0  0  0  0  0  0  0  0  0  0
  139.6480   69.7920  226.3020 C   0  0  0  0  0  0  0  0  0  0  0  0
  139.9520   69.7120  227.6650 C   0  0  0  0  0  0  0  0  0  0  0  0
  140.6530   70.7000  228.3060 C   0  0  0  0  0  0  0  0  0  0  0  0
  141.0680   71.7970  227.5810 C   0  0  0  0  0  0  0  0  0  0  0  0
  140.7590   71.8590  226.2340 C   0  0  0  0  0  0  0  0  0  0  0  0
  141.5156   71.9535  223.8350 H   0  0  0  0  0  0  0  0  0  0  0  0
  141.1049   70.6799  222.6368 H   0  0  0  0  0  0  0  0  0  0  0  0
  140.2075   72.2359  222.6368 H   0  0  0  0  0  0  0  0  0  0  0  0
  138.6293   69.9187  222.7001 H   0  0  0  0  0  0  0  0  0  0  0  0
  138.0129   69.6908  224.3607 H   0  0  0  0  0  0  0  0  0  0  0  0
  136.5787   71.2470  223.0409 H   0  0  0  0  0  0  0  0  0  0  0  0
  137.3417   72.0708  224.4497 H   0  0  0  0  0  0  0  0  0  0  0  0
  138.6340   73.3790  223.0010 H   0  0  0  0  0  0  0  0  0  0  0  0
  139.6862   73.1168  220.0182 H   0  0  0  0  0  0  0  0  0  0  0  0
  137.9923   73.4267  219.3499 H   0  0  0  0  0  0  0  0  0  0  0  0
  138.1000   75.5840  220.3080 H   0  0  0  0  0  0  0  0  0  0  0  0
  137.7193   76.6531  222.4509 H   0  0  0  0  0  0  0  0  0  0  0  0
  137.8023   78.9672  223.3507 H   0  0  0  0  0  0  0  0  0  0  0  0
  139.1437   80.8723  223.9588 H   0  0  0  0  0  0  0  0  0  0  0  0
  141.3172   82.0181  224.1882 H   0  0  0  0  0  0  0  0  0  0  0  0
  143.3851   80.7813  223.4883 H   0  0  0  0  0  0  0  0  0  0  0  0
  143.2458   78.4907  222.6042 H   0  0  0  0  0  0  0  0  0  0  0  0
  139.0823   68.9835  225.8158 H   0  0  0  0  0  0  0  0  0  0  0  0
  139.6198   68.8333  228.2373 H   0  0  0  0  0  0  0  0  0  0  0  0
  140.8804   70.6193  229.3792 H   0  0  0  0  0  0  0  0  0  0  0  0
  141.6338   72.6071  228.0643 H   0  0  0  0  0  0  0  0  0  0  0  0
  141.0962   72.7403  225.6686 H   0  0  0  0  0  0  0  0  0  0  0  0
  1  2  1  0
  2  3  1  0
  3  4  1  0
  4  5  1  0
  5  6  1  0
  6  7  2  0
  6  8  1  0
  8  9  1  0
  9 10  1  0
 10 11  2  0
 10 12  1  0
 12 13  2  0
 13 14  1  0
 14 15  2  0
 15 16  1  0
 16 17  2  0
 17 18  1  0
 18 19  2  0
 19 20  1  0
 20 21  2  0
  2 22  1  0
 22 23  2  0
 23 24  1  0
 24 25  2  0
 25 26  1  0
 26 27  2  0
 21 12  1  0
 27 22  1  0
 20 15  1  0
  1 28  1  0
  1 29  1  0
  1 30  1  0
  3 31  1  0
  3 32  1  0
  4 33  1  0
  4 34  1  0
  5 35  1  0
  8 36  1  0
  8 37  1  0
  9 38  1  0
 13 39  1  0
 14 40  1  0
 16 41  1  0
 17 42  1  0
 18 43  1  0
 19 44  1  0
 23 45  1  0
 24 46  1  0
 25 47  1  0
 26 48  1  0
 27 49  1  0
M  END
>  <smiles>  (47) 
CN(CCNC(=O)CNC(=O)c1ccc2ccccc2n1)c1ccccc1

>  <score_type>  (47) 
oracle

>  <origin>  (47) 
autodockgpu

>  <m_score__min__energy>  (47) 
-8.4499999999999993

>  <m_primary>  (47) 
energy

>  <rmsd>  (47) 
8.469086372057935

>  <m_score__min__rmsd>  (47) 
8.469086372057935

>  <meeko>  (47) 
{"free_energy": -8.08, "intermolecular_energy": -10.16, "internal_energy": -1.86, "cluster_size": 18, "cluster_id": 1, "rank_in_cluster": 10}

>  <energy>  (47) 
-7.75

>  <cluster_rmsd>  (47) 
1.5

>  <cluster>  (47) 
2

$$$$

     RDKit          3D

 49 51  0  0  0  0  0  0  0  0999 V2000
  141.0840   76.5000  221.6460 C   0  0  0  0  0  0  0  0  0  0  0  0
  140.2460   77.6420  221.9770 N   0  0  0  0  0  0  0  0  0  0  0  0
  138.8140   77.5750  221.6700 C   0  0  0  0  0  0  0  0  0  0  0  0
  138.1640   76.6310  222.6610 C   0  0  0  0  0  0  0  0  0  0  0  0
  138.5000   75.2590  222.3400 N   0  0  0  0  0  0  0  0  0  0  0  0
  138.2990   74.6680  221.0720 C   0  0  0  0  0  0  0  0  0  0  0  0
  137.7840   75.4190  220.1790 O   0  0  0  0  0  0  0  0  0  0  0  0
  138.6170   73.2980  220.6860 C   0  0  0  0  0  0  0  0  0  0  0  0
  138.6100   72.3240  221.7470 N   0  0  0  0  0  0  0  0  0  0  0  0
  139.6840   72.4110  222.6990 C   0  0  0  0  0  0  0  0  0  0  0  0
  140.5160   73.3310  222.4990 O   0  0  0  0  0  0  0  0  0  0  0  0
  139.7930   71.4880  223.8180 C   0  0  0  0  0  0  0  0  0  0  0  0
  139.2650   70.2180  223.6510 C   0  0  0  0  0  0  0  0  0  0  0  0
  139.3140   69.2670  224.6500 C   0  0  0  0  0  0  0  0  0  0  0  0
  139.9170   69.6250  225.8440 C   0  0  0  0  0  0  0  0  0  0  0  0
  139.9990   68.7140  226.8870 C   0  0  0  0  0  0  0  0  0  0  0  0
  140.5840   69.0150  228.0820 C   0  0  0  0  0  0  0  0  0  0  0  0
  141.1080   70.3020  228.2250 C   0  0  0  0  0  0  0  0  0  0  0  0
  141.0390   71.2220  227.2060 C   0  0  0  0  0  0  0  0  0  0  0  0
  140.4420   70.8910  226.0060 C   0  0  0  0  0  0  0  0  0  0  0  0
  140.3720   71.8030  224.9910 N   0  0  0  0  0  0  0  0  0  0  0  0
  140.8600   78.7540  222.5750 C   0  0  0  0  0  0  0  0  0  0  0  0
  140.0330   79.6840  223.2010 C   0  0  0  0  0  0  0  0  0  0  0  0
  140.5890   80.8130  223.8120 C   0  0  0  0  0  0  0  0  0  0  0  0
  141.9400   81.0380  223.8150 C   0  0  0  0  0  0  0  0  0  0  0  0
  142.7670   80.1240  223.1980 C   0  0  0  0  0  0  0  0  0  0  0  0
  142.2010   79.0140  222.5990 C   0  0  0  0  0  0  0  0  0  0  0  0
  141.4348   76.0219  222.5724 H   0  0  0  0  0  0  0  0  0  0  0  0
  140.5013   75.7759  221.0576 H   0  0  0  0  0  0  0  0  0  0  0  0
  141.9495   76.8386  221.0576 H   0  0  0  0  0  0  0  0  0  0  0  0
  138.3662   78.5757  221.7595 H   0  0  0  0  0  0  0  0  0  0  0  0
  138.6610   77.2135  220.6424 H   0  0  0  0  0  0  0  0  0  0  0  0
  138.5222   76.8651  223.6744 H   0  0  0  0  0  0  0  0  0  0  0  0
  137.0721   76.7541  222.6105 H   0  0  0  0  0  0  0  0  0  0  0  0
  138.9180   74.6630  223.0840 H   0  0  0  0  0  0  0  0  0  0  0  0
  137.8799   72.9809  219.9335 H   0  0  0  0  0  0  0  0  0  0  0  0
  139.6532   73.3272  220.3179 H   0  0  0  0  0  0  0  0  0  0  0  0
  137.9070   71.5740  221.8820 H   0  0  0  0  0  0  0  0  0  0  0  0
  138.7919   69.9596  222.6921 H   0  0  0  0  0  0  0  0  0  0  0  0
  138.8901   68.2626  224.5033 H   0  0  0  0  0  0  0  0  0  0  0  0
  139.5754   67.7089  226.7447 H   0  0  0  0  0  0  0  0  0  0  0  0
  140.6406   68.2776  228.8962 H   0  0  0  0  0  0  0  0  0  0  0  0
  141.5864   70.5855  229.1741 H   0  0  0  0  0  0  0  0  0  0  0  0
  141.4618   72.2276  227.3475 H   0  0  0  0  0  0  0  0  0  0  0  0
  138.9438   79.5307  223.2149 H   0  0  0  0  0  0  0  0  0  0  0  0
  139.9239   81.5388  224.3027 H   0  0  0  0  0  0  0  0  0  0  0  0
  142.3576   81.9321  224.3011 H   0  0  0  0  0  0  0  0  0  0  0  0
  143.8565   80.2749  223.1825 H   0  0  0  0  0  0  0  0  0  0  0  0
  142.8737   78.2938  222.1103 H   0  0  0  0  0  0  0  0  0  0  0  0
  1  2  1  0
  2  3  1  0
  3  4  1  0
  4  5  1  0
  5  6  1  0
  6  7  2  0
  6  8  1  0
  8  9  1  0
  9 10  1  0
 10 11  2  0
 10 12  1  0
 12 13  2  0
 13 14  1  0
 14 15  2  0
 15 16  1  0
 16 17  2  0
 17 18  1  0
 18 19  2  0
 19 20  1  0
 20 21  2  0
  2 22  1  0
 22 23  2  0
 23 24  1  0
 24 25  2  0
 25 26  1  0
 26 27  2  0
 21 12  1  0
 27 22  1  0
 20 15  1  0
  1 28  1  0
  1 29  1  0
  1 30  1  0
  3 31  1  0
  3 32  1  0
  4 33  1  0
  4 34  1  0
  5 35  1  0
  8 36  1  0
  8 37  1  0
  9 38  1  0
 13 39  1  0
 14 40  1  0
 16 41  1  0
 17 42  1  0
 18 43  1  0
 19 44  1  0
 23 45  1  0
 24 46  1  0
 25 47  1  0
 26 48  1  0
 27 49  1  0
M  END
>  <smiles>  (48) 
CN(CCNC(=O)CNC(=O)c1ccc2ccccc2n1)c1ccccc1

>  <score_type>  (48) 
oracle

>  <origin>  (48) 
autodockgpu

>  <m_score__min__energy>  (48) 
-8.4499999999999993

>  <m_primary>  (48) 
energy

>  <rmsd>  (48) 
4.6496583655322015

>  <m_score__min__rmsd>  (48) 
4.6496583655322015

>  <meeko>  (48) 
{"free_energy": -8.37, "intermolecular_energy": -10.46, "internal_energy": -1.72, "cluster_size": 31, "cluster_id": 2, "rank_in_cluster": 3}

>  <energy>  (48) 
-7.72

>  <cluster_rmsd>  (48) 
1.91

>  <cluster>  (48) 
2

$$$$

     RDKit          3D

 49 51  0  0  0  0  0  0  0  0999 V2000
  139.2030   77.5640  220.3880 C   0  0  0  0  0  0  0  0  0  0  0  0
  139.4280   77.8320  221.8000 N   0  0  0  0  0  0  0  0  0  0  0  0
  138.4960   77.2630  222.7790 C   0  0  0  0  0  0  0  0  0  0  0  0
  137.6520   76.2220  222.0740 C   0  0  0  0  0  0  0  0  0  0  0  0
  138.4000   74.9920  221.9200 N   0  0  0  0  0  0  0  0  0  0  0  0
  138.4780   74.2530  220.7180 C   0  0  0  0  0  0  0  0  0  0  0  0
  137.8320   74.7300  219.7260 O   0  0  0  0  0  0  0  0  0  0  0  0
  139.2140   73.0140  220.4980 C   0  0  0  0  0  0  0  0  0  0  0  0
  139.1450   72.0410  221.5590 N   0  0  0  0  0  0  0  0  0  0  0  0
  139.9500   72.3070  222.7200 C   0  0  0  0  0  0  0  0  0  0  0  0
  140.6290   73.3640  222.6820 O   0  0  0  0  0  0  0  0  0  0  0  0
  139.9710   71.4060  223.8610 C   0  0  0  0  0  0  0  0  0  0  0  0
  139.3910   70.1580  223.6980 C   0  0  0  0  0  0  0  0  0  0  0  0
  139.3560   69.2280  224.7170 C   0  0  0  0  0  0  0  0  0  0  0  0
  139.9260   69.5840  225.9270 C   0  0  0  0  0  0  0  0  0  0  0  0
  139.9240   68.6940  226.9910 C   0  0  0  0  0  0  0  0  0  0  0  0
  140.4740   68.9940  228.2030 C   0  0  0  0  0  0  0  0  0  0  0  0
  141.0520   70.2580  228.3410 C   0  0  0  0  0  0  0  0  0  0  0  0
  141.0660   71.1570  227.3010 C   0  0  0  0  0  0  0  0  0  0  0  0
  140.5030   70.8280  226.0850 C   0  0  0  0  0  0  0  0  0  0  0  0
  140.5160   71.7190  225.0500 N   0  0  0  0  0  0  0  0  0  0  0  0
  140.5300   78.6280  222.1500 C   0  0  0  0  0  0  0  0  0  0  0  0
  141.0860   78.4350  223.4110 C   0  0  0  0  0  0  0  0  0  0  0  0
  142.1860   79.2010  223.8150 C   0  0  0  0  0  0  0  0  0  0  0  0
  142.7410   80.1500  222.9980 C   0  0  0  0  0  0  0  0  0  0  0  0
  142.1980   80.3490  221.7460 C   0  0  0  0  0  0  0  0  0  0  0  0
  141.1120   79.5830  221.3640 C   0  0  0  0  0  0  0  0  0  0  0  0
  138.4990   76.7255  220.2816 H   0  0  0  0  0  0  0  0  0  0  0  0
  138.7820   78.4594  219.9074 H   0  0  0  0  0  0  0  0  0  0  0  0
  140.1578   77.3044  219.9074 H   0  0  0  0  0  0  0  0  0  0  0  0
  139.0580   76.7939  223.6001 H   0  0  0  0  0  0  0  0  0  0  0  0
  137.8556   78.0523  223.1995 H   0  0  0  0  0  0  0  0  0  0  0  0
  136.7472   76.0250  222.6678 H   0  0  0  0  0  0  0  0  0  0  0  0
  137.3737   76.5996  221.0790 H   0  0  0  0  0  0  0  0  0  0  0  0
  138.9200   74.6200  222.7420 H   0  0  0  0  0  0  0  0  0  0  0  0
  138.8182   72.5450  219.5851 H   0  0  0  0  0  0  0  0  0  0  0  0
  140.2725   73.3058  220.4317 H   0  0  0  0  0  0  0  0  0  0  0  0
  138.5730   71.1760  221.5570 H   0  0  0  0  0  0  0  0  0  0  0  0
  138.9446   69.9007  222.7261 H   0  0  0  0  0  0  0  0  0  0  0  0
  138.8925   68.2409  224.5730 H   0  0  0  0  0  0  0  0  0  0  0  0
  139.4602   67.7063  226.8519 H   0  0  0  0  0  0  0  0  0  0  0  0
  140.4627   68.2731  229.0338 H   0  0  0  0  0  0  0  0  0  0  0  0
  141.5058   70.5402  229.3025 H   0  0  0  0  0  0  0  0  0  0  0  0
  141.5291   72.1452  227.4392 H   0  0  0  0  0  0  0  0  0  0  0  0
  140.6614   77.6809  224.0900 H   0  0  0  0  0  0  0  0  0  0  0  0
  142.6156   79.0365  224.8142 H   0  0  0  0  0  0  0  0  0  0  0  0
  143.6044   80.7428  223.3345 H   0  0  0  0  0  0  0  0  0  0  0  0
  142.6205   81.1022  221.0647 H   0  0  0  0  0  0  0  0  0  0  0  0
  140.6891   79.7531  220.3629 H   0  0  0  0  0  0  0  0  0  0  0  0
  1  2  1  0
  2  3  1  0
  3  4  1  0
  4  5  1  0
  5  6  1  0
  6  7  2  0
  6  8  1  0
  8  9  1  0
  9 10  1  0
 10 11  2  0
 10 12  1  0
 12 13  2  0
 13 14  1  0
 14 15  2  0
 15 16  1  0
 16 17  2  0
 17 18  1  0
 18 19  2  0
 19 20  1  0
 20 21  2  0
  2 22  1  0
 22 23  2  0
 23 24  1  0
 24 25  2  0
 25 26  1  0
 26 27  2  0
 21 12  1  0
 27 22  1  0
 20 15  1  0
  1 28  1  0
  1 29  1  0
  1 30  1  0
  3 31  1  0
  3 32  1  0
  4 33  1  0
  4 34  1  0
  5 35  1  0
  8 36  1  0
  8 37  1  0
  9 38  1  0
 13 39  1  0
 14 40  1  0
 16 41  1  0
 17 42  1  0
 18 43  1  0
 19 44  1  0
 23 45  1  0
 24 46  1  0
 25 47  1  0
 26 48  1  0
 27 49  1  0
M  END
>  <smiles>  (49) 
CN(CCNC(=O)CNC(=O)c1ccc2ccccc2n1)c1ccccc1

>  <score_type>  (49) 
oracle

>  <origin>  (49) 
autodockgpu

>  <m_score__min__energy>  (49) 
-8.4499999999999993

>  <m_primary>  (49) 
energy

>  <rmsd>  (49) 
4.212305251231827

>  <m_score__min__rmsd>  (49) 
4.212305251231827

>  <meeko>  (49) 
{"free_energy": -7.82, "intermolecular_energy": -9.91, "internal_energy": -1.77, "cluster_size": 31, "cluster_id": 2, "rank_in_cluster": 25}

>  <energy>  (49) 
-7.61

>  <cluster_rmsd>  (49) 
1.6

>  <cluster>  (49) 
2

$$$$

     RDKit          3D

 49 51  0  0  0  0  0  0  0  0999 V2000
  138.0430   79.8590  221.8620 C   0  0  0  0  0  0  0  0  0  0  0  0
  139.1140   78.8740  221.8910 N   0  0  0  0  0  0  0  0  0  0  0  0
  138.8110   77.4970  221.4860 C   0  0  0  0  0  0  0  0  0  0  0  0
  138.8290   76.6280  222.7270 C   0  0  0  0  0  0  0  0  0  0  0  0
  139.2110   75.2730  222.3820 N   0  0  0  0  0  0  0  0  0  0  0  0
  140.3210   74.9410  221.5740 C   0  0  0  0  0  0  0  0  0  0  0  0
  141.0080   75.9230  221.1350 O   0  0  0  0  0  0  0  0  0  0  0  0
  140.7580   73.6030  221.1950 C   0  0  0  0  0  0  0  0  0  0  0  0
  140.9430   72.6670  222.2760 N   0  0  0  0  0  0  0  0  0  0  0  0
  139.7490   72.0940  222.8330 C   0  0  0  0  0  0  0  0  0  0  0  0
  138.6690   72.4730  222.3150 O   0  0  0  0  0  0  0  0  0  0  0  0
  139.7960   71.1370  223.9270 C   0  0  0  0  0  0  0  0  0  0  0  0
  139.1750   69.9140  223.7320 C   0  0  0  0  0  0  0  0  0  0  0  0
  139.1600   68.9360  224.7050 C   0  0  0  0  0  0  0  0  0  0  0  0
  139.7930   69.2170  225.9030 C   0  0  0  0  0  0  0  0  0  0  0  0
  139.8150   68.2750  226.9220 C   0  0  0  0  0  0  0  0  0  0  0  0
  140.4260   68.5010  228.1210 C   0  0  0  0  0  0  0  0  0  0  0  0
  141.0440   69.7420  228.2920 C   0  0  0  0  0  0  0  0  0  0  0  0
  141.0370   70.6910  227.2980 C   0  0  0  0  0  0  0  0  0  0  0  0
  140.4110   70.4360  226.0940 C   0  0  0  0  0  0  0  0  0  0  0  0
  140.4030   71.3770  225.1030 N   0  0  0  0  0  0  0  0  0  0  0  0
  140.3850   79.2980  222.3080 C   0  0  0  0  0  0  0  0  0  0  0  0
  140.7590   79.0090  223.6180 C   0  0  0  0  0  0  0  0  0  0  0  0
  142.0150   79.4090  224.0900 C   0  0  0  0  0  0  0  0  0  0  0  0
  142.9000   80.0860  223.2940 C   0  0  0  0  0  0  0  0  0  0  0  0
  142.5390   80.3770  221.9960 C   0  0  0  0  0  0  0  0  0  0  0  0
  141.2950   79.9750  221.5460 C   0  0  0  0  0  0  0  0  0  0  0  0
  137.7580   80.1212  222.8916 H   0  0  0  0  0  0  0  0  0  0  0  0
  138.3888   80.7612  221.3362 H   0  0  0  0  0  0  0  0  0  0  0  0
  137.1728   79.4391  221.3362 H   0  0  0  0  0  0  0  0  0  0  0  0
  137.8171   77.4563  221.0164 H   0  0  0  0  0  0  0  0  0  0  0  0
  139.5559   77.1402  220.7594 H   0  0  0  0  0  0  0  0  0  0  0  0
  139.5525   77.0376  223.4473 H   0  0  0  0  0  0  0  0  0  0  0  0
  137.8231   76.6158  223.1720 H   0  0  0  0  0  0  0  0  0  0  0  0
  138.6360   74.4870  222.7500 H   0  0  0  0  0  0  0  0  0  0  0  0
  140.0040   73.1837  220.5126 H   0  0  0  0  0  0  0  0  0  0  0  0
  141.7524   73.7335  220.7432 H   0  0  0  0  0  0  0  0  0  0  0  0
  141.8510   72.3770  222.6820 H   0  0  0  0  0  0  0  0  0  0  0  0
  138.6781   69.7164  222.7707 H   0  0  0  0  0  0  0  0  0  0  0  0
  138.6636   67.9693  224.5349 H   0  0  0  0  0  0  0  0  0  0  0  0
  139.3198   67.3069  226.7563 H   0  0  0  0  0  0  0  0  0  0  0  0
  140.4316   67.7410  228.9162 H   0  0  0  0  0  0  0  0  0  0  0  0
  141.5478   69.9648  229.2441 H   0  0  0  0  0  0  0  0  0  0  0  0
  141.5328   71.6590  227.4625 H   0  0  0  0  0  0  0  0  0  0  0  0
  140.0685   78.4672  224.2810 H   0  0  0  0  0  0  0  0  0  0  0  0
  142.2980   79.1734  225.1265 H   0  0  0  0  0  0  0  0  0  0  0  0
  143.8820   80.3923  223.6837 H   0  0  0  0  0  0  0  0  0  0  0  0
  143.2275   80.9187  221.3308 H   0  0  0  0  0  0  0  0  0  0  0  0
  141.0203   80.2155  220.5084 H   0  0  0  0  0  0  0  0  0  0  0  0
  1  2  1  0
  2  3  1  0
  3  4  1  0
  4  5  1  0
  5  6  1  0
  6  7  2  0
  6  8  1  0
  8  9  1  0
  9 10  1  0
 10 11  2  0
 10 12  1  0
 12 13  2  0
 13 14  1  0
 14 15  2  0
 15 16  1  0
 16 17  2  0
 17 18  1  0
 18 19  2  0
 19 20  1  0
 20 21  2  0
  2 22  1  0
 22 23  2  0
 23 24  1  0
 24 25  2  0
 25 26  1  0
 26 27  2  0
 21 12  1  0
 27 22  1  0
 20 15  1  0
  1 28  1  0
  1 29  1  0
  1 30  1  0
  3 31  1  0
  3 32  1  0
  4 33  1  0
  4 34  1  0
  5 35  1  0
  8 36  1  0
  8 37  1  0
  9 38  1  0
 13 39  1  0
 14 40  1  0
 16 41  1  0
 17 42  1  0
 18 43  1  0
 19 44  1  0
 23 45  1  0
 24 46  1  0
 25 47  1  0
 26 48  1  0
 27 49  1  0
M  END
>  <smiles>  (50) 
CN(CCNC(=O)CNC(=O)c1ccc2ccccc2n1)c1ccccc1

>  <score_type>  (50) 
oracle

>  <origin>  (50) 
autodockgpu

>  <m_score__min__energy>  (50) 
-8.4499999999999993

>  <m_primary>  (50) 
energy

>  <rmsd>  (50) 
4.776400810976737

>  <m_score__min__rmsd>  (50) 
4.776400810976737

>  <meeko>  (50) 
{"free_energy": -7.75, "intermolecular_energy": -9.84, "internal_energy": -1.75, "cluster_size": 31, "cluster_id": 2, "rank_in_cluster": 29}

>  <energy>  (50) 
-7.78

>  <cluster_rmsd>  (50) 
0.0

>  <cluster>  (50) 
3

$$$$
