
     RDKit          3D

 52 55  0  0  0  0  0  0  0  0999 V2000
  139.3660   79.5930  220.1020 O   0  0  0  0  0  0  0  0  0  0  0  0
  140.5810   79.3380  220.2920 C   0  0  0  0  0  0  0  0  0  0  0  0
  141.5990   80.3020  220.3970 N   0  0  0  0  0  0  0  0  0  0  0  0
  141.3220   81.7200  220.2930 C   0  0  0  0  0  0  0  0  0  0  0  0
  140.7430   82.1430  221.6180 C   0  0  0  0  0  0  0  0  0  0  0  0
  140.0590   83.1930  221.5800 O   0  0  0  0  0  0  0  0  0  0  0  0
  141.0110   81.3490  222.7350 N   0  0  0  0  0  0  0  0  0  0  0  0
  142.3940   81.0990  223.2600 C   0  0  0  0  0  0  0  0  0  0  0  0
  142.4110   79.6020  223.4970 C   0  0  2  0  0  0  0  0  0  0  0  0
  143.1250   79.0190  222.4680 O   0  0  0  0  0  0  0  0  0  0  0  0
  140.9410   79.2210  223.4950 C   0  0  0  0  0  0  0  0  0  0  0  0
  140.2450   80.5550  223.6600 C   0  0  2  0  0  0  0  0  0  0  0  0
  138.8090   80.5230  223.4310 C   0  0  0  0  0  0  0  0  0  0  0  0
  137.9420   80.8660  224.6140 C   0  0  0  0  0  0  0  0  0  0  0  0
  136.5530   80.6350  223.9950 C   0  0  0  0  0  0  0  0  0  0  0  0
  136.7630   79.5030  222.9930 C   0  0  0  0  0  0  0  0  0  0  0  0
  138.2550   79.1540  223.0760 C   0  0  0  0  0  0  0  0  0  0  0  0
  140.9640   77.9190  220.4130 C   0  0  0  0  0  0  0  0  0  0  0  0
  140.0980   76.9720  220.9280 C   0  0  0  0  0  0  0  0  0  0  0  0
  140.4250   75.6400  221.0540 C   0  0  0  0  0  0  0  0  0  0  0  0
  141.6750   75.2140  220.6520 C   0  0  0  0  0  0  0  0  0  0  0  0
  142.0600   73.9020  220.7510 C   0  0  0  0  0  0  0  0  0  0  0  0
  143.3270   73.5220  220.3330 C   0  0  0  0  0  0  0  0  0  0  0  0
  143.7840   71.8500  220.4740 Cl  0  0  0  0  0  0  0  0  0  0  0  0
  144.1560   74.4990  219.8270 C   0  0  0  0  0  0  0  0  0  0  0  0
  143.7890   75.8240  219.7180 C   0  0  0  0  0  0  0  0  0  0  0  0
  142.5240   76.1720  220.1410 C   0  0  0  0  0  0  0  0  0  0  0  0
  142.1780   77.4750  220.0280 N   0  0  0  0  0  0  0  0  0  0  0  0
  142.5870   80.0050  220.5530 H   0  0  0  0  0  0  0  0  0  0  0  0
  142.2502   82.2743  220.0900 H   0  0  0  0  0  0  0  0  0  0  0  0
  140.6231   81.9286  219.4696 H   0  0  0  0  0  0  0  0  0  0  0  0
  143.1548   81.3897  222.5206 H   0  0  0  0  0  0  0  0  0  0  0  0
  142.6229   81.6810  224.1649 H   0  0  0  0  0  0  0  0  0  0  0  0
  142.8900   79.2759  224.4320 H   0  0  0  0  0  0  0  0  0  0  0  0
  142.6460   78.2750  222.0220 H   0  0  0  0  0  0  0  0  0  0  0  0
  140.6578   78.7417  222.5463 H   0  0  0  0  0  0  0  0  0  0  0  0
  140.6796   78.4950  224.2790 H   0  0  0  0  0  0  0  0  0  0  0  0
  140.2398   80.9521  224.6858 H   0  0  0  0  0  0  0  0  0  0  0  0
  138.7554   81.2664  222.6220 H   0  0  0  0  0  0  0  0  0  0  0  0
  138.1273   80.1948  225.4655 H   0  0  0  0  0  0  0  0  0  0  0  0
  138.1035   81.8697  225.0342 H   0  0  0  0  0  0  0  0  0  0  0  0
  135.8274   80.3405  224.7675 H   0  0  0  0  0  0  0  0  0  0  0  0
  136.1505   81.5426  223.5215 H   0  0  0  0  0  0  0  0  0  0  0  0
  136.1487   78.6315  223.2632 H   0  0  0  0  0  0  0  0  0  0  0  0
  136.4690   79.7990  221.9752 H   0  0  0  0  0  0  0  0  0  0  0  0
  138.4603   78.4113  223.8610 H   0  0  0  0  0  0  0  0  0  0  0  0
  138.6811   78.6949  222.1718 H   0  0  0  0  0  0  0  0  0  0  0  0
  139.0991   77.2984  221.2529 H   0  0  0  0  0  0  0  0  0  0  0  0
  139.6996   74.9250  221.4695 H   0  0  0  0  0  0  0  0  0  0  0  0
  141.3664   73.1529  221.1606 H   0  0  0  0  0  0  0  0  0  0  0  0
  145.1626   74.2073  219.4927 H   0  0  0  0  0  0  0  0  0  0  0  0
  144.4802   76.5754  219.3086 H   0  0  0  0  0  0  0  0  0  0  0  0
  1  2  2  0
  2  3  1  0
  3  4  1  0
  4  5  1  0
  5  6  2  0
  5  7  1  0
  7  8  1  0
  8  9  1  0
  9 10  1  0
  9 11  1  0
 11 12  1  0
 12 13  1  0
 13 14  1  0
 14 15  1  0
 15 16  1  0
 16 17  1  0
  2 18  1  0
 18 19  2  0
 19 20  1  0
 20 21  2  0
 21 22  1  0
 22 23  2  0
 23 24  1  0
 23 25  1  0
 25 26  2  0
 26 27  1  0
 27 28  2  0
 12  7  1  0
 17 13  1  0
 28 18  1  0
 27 21  1  0
  3 29  1  0
  4 30  1  0
  4 31  1  0
  8 32  1  0
  8 33  1  0
  9 34  1  1
 10 35  1  0
 11 36  1  0
 11 37  1  0
 12 38  1  1
 13 39  1  0
 14 40  1  0
 14 41  1  0
 15 42  1  0
 15 43  1  0
 16 44  1  0
 16 45  1  0
 17 46  1  0
 17 47  1  0
 19 48  1  0
 20 49  1  0
 22 50  1  0
 25 51  1  0
 26 52  1  0
M  END
>  <smiles>  (1) 
O=C(NCC(=O)N1C[C@H](O)C[C@@H]1C1CCCC1)c1ccc2cc(Cl)ccc2n1

>  <score_type>  (1) 
oracle

>  <origin>  (1) 
autodockgpu

>  <m_score__min__energy>  (1) 
-8.4199999999999999

>  <m_primary>  (1) 
energy

>  <rmsd>  (1) 
8.106800134132783

>  <m_score__min__rmsd>  (1) 
8.106800134132783

>  <meeko>  (1) 
{"free_energy": -6.41, "intermolecular_energy": -8.2, "internal_energy": -3.79, "cluster_size": 15, "cluster_id": 6, "rank_in_cluster": 3}

>  <energy>  (1) 
-8.42

>  <cluster_rmsd>  (1) 
0.0

>  <cluster>  (1) 
1

$$$$

     RDKit          3D

 52 55  0  0  0  0  0  0  0  0999 V2000
  139.6910   72.0930  220.6880 O   0  0  0  0  0  0  0  0  0  0  0  0
  139.6170   72.5820  221.8430 C   0  0  0  0  0  0  0  0  0  0  0  0
  139.4540   73.9480  222.1290 N   0  0  0  0  0  0  0  0  0  0  0  0
  139.3520   74.9430  221.0800 C   0  0  0  0  0  0  0  0  0  0  0  0
  140.5460   75.8500  221.2320 C   0  0  0  0  0  0  0  0  0  0  0  0
  141.3340   75.5280  222.1520 O   0  0  0  0  0  0  0  0  0  0  0  0
  140.6640   76.9330  220.3580 N   0  0  0  0  0  0  0  0  0  0  0  0
  140.2350   76.8860  218.9200 C   0  0  0  0  0  0  0  0  0  0  0  0
  141.4040   77.5140  218.1880 C   0  0  2  0  0  0  0  0  0  0  0  0
  142.1260   76.4970  217.5930 O   0  0  0  0  0  0  0  0  0  0  0  0
  142.1730   78.2290  219.2850 C   0  0  0  0  0  0  0  0  0  0  0  0
  141.1760   78.2760  220.4230 C   0  0  2  0  0  0  0  0  0  0  0  0
  141.7340   78.6800  221.7040 C   0  0  0  0  0  0  0  0  0  0  0  0
  140.7930   78.6390  222.8780 C   0  0  0  0  0  0  0  0  0  0  0  0
  141.7150   79.2040  223.9720 C   0  0  0  0  0  0  0  0  0  0  0  0
  142.6210   80.1890  223.2390 C   0  0  0  0  0  0  0  0  0  0  0  0
  142.1860   80.1300  221.7680 C   0  0  0  0  0  0  0  0  0  0  0  0
  139.7090   71.6480  222.9800 C   0  0  0  0  0  0  0  0  0  0  0  0
  139.2030   70.3630  222.9100 C   0  0  0  0  0  0  0  0  0  0  0  0
  139.2730   69.4670  223.9530 C   0  0  0  0  0  0  0  0  0  0  0  0
  139.8740   69.8560  225.1340 C   0  0  0  0  0  0  0  0  0  0  0  0
  139.9750   69.0100  226.2090 C   0  0  0  0  0  0  0  0  0  0  0  0
  140.5880   69.4470  227.3740 C   0  0  0  0  0  0  0  0  0  0  0  0
  140.6990   68.3490  228.7180 Cl  0  0  0  0  0  0  0  0  0  0  0  0
  141.0770   70.7340  227.3980 C   0  0  0  0  0  0  0  0  0  0  0  0
  140.9860   71.6010  226.3290 C   0  0  0  0  0  0  0  0  0  0  0  0
  140.3720   71.1400  225.1850 C   0  0  0  0  0  0  0  0  0  0  0  0
  140.2900   72.0010  224.1450 N   0  0  0  0  0  0  0  0  0  0  0  0
  139.4040   74.2730  223.1200 H   0  0  0  0  0  0  0  0  0  0  0  0
  139.3670   74.4574  220.0931 H   0  0  0  0  0  0  0  0  0  0  0  0
  138.4113   75.5078  221.1580 H   0  0  0  0  0  0  0  0  0  0  0  0
  140.0744   75.8490  218.5902 H   0  0  0  0  0  0  0  0  0  0  0  0
  139.2828   77.4055  218.7372 H   0  0  0  0  0  0  0  0  0  0  0  0
  141.1373   78.2176  217.3856 H   0  0  0  0  0  0  0  0  0  0  0  0
  141.8090   75.5900  217.8310 H   0  0  0  0  0  0  0  0  0  0  0  0
  143.0726   77.6638  219.5703 H   0  0  0  0  0  0  0  0  0  0  0  0
  142.5351   79.2231  218.9839 H   0  0  0  0  0  0  0  0  0  0  0  0
  140.4012   79.0511  220.3285 H   0  0  0  0  0  0  0  0  0  0  0  0
  142.5453   77.9402  221.7708 H   0  0  0  0  0  0  0  0  0  0  0  0
  139.9106   79.2759  222.7175 H   0  0  0  0  0  0  0  0  0  0  0  0
  140.3639   77.6499  223.0961 H   0  0  0  0  0  0  0  0  0  0  0  0
  141.1282   79.7186  224.7471 H   0  0  0  0  0  0  0  0  0  0  0  0
  142.2845   78.4159  224.4864 H   0  0  0  0  0  0  0  0  0  0  0  0
  142.4874   81.2050  223.6389 H   0  0  0  0  0  0  0  0  0  0  0  0
  143.6841   79.9339  223.3607 H   0  0  0  0  0  0  0  0  0  0  0  0
  141.3625   80.8273  221.5544 H   0  0  0  0  0  0  0  0  0  0  0  0
  142.9576   80.4148  221.0376 H   0  0  0  0  0  0  0  0  0  0  0  0
  138.7209   70.0409  221.9752 H   0  0  0  0  0  0  0  0  0  0  0  0
  138.8558   68.4547  223.8471 H   0  0  0  0  0  0  0  0  0  0  0  0
  139.5713   67.9886  226.1474 H   0  0  0  0  0  0  0  0  0  0  0  0
  141.5655   71.0892  228.3173 H   0  0  0  0  0  0  0  0  0  0  0  0
  141.3888   72.6229  226.3877 H   0  0  0  0  0  0  0  0  0  0  0  0
  1  2  2  0
  2  3  1  0
  3  4  1  0
  4  5  1  0
  5  6  2  0
  5  7  1  0
  7  8  1  0
  8  9  1  0
  9 10  1  0
  9 11  1  0
 11 12  1  0
 12 13  1  0
 13 14  1  0
 14 15  1  0
 15 16  1  0
 16 17  1  0
  2 18  1  0
 18 19  2  0
 19 20  1  0
 20 21  2  0
 21 22  1  0
 22 23  2  0
 23 24  1  0
 23 25  1  0
 25 26  2  0
 26 27  1  0
 27 28  2  0
 12  7  1  0
 17 13  1  0
 28 18  1  0
 27 21  1  0
  3 29  1  0
  4 30  1  0
  4 31  1  0
  8 32  1  0
  8 33  1  0
  9 34  1  6
 10 35  1  0
 11 36  1  0
 11 37  1  0
 12 38  1  6
 13 39  1  0
 14 40  1  0
 14 41  1  0
 15 42  1  0
 15 43  1  0
 16 44  1  0
 16 45  1  0
 17 46  1  0
 17 47  1  0
 19 48  1  0
 20 49  1  0
 22 50  1  0
 25 51  1  0
 26 52  1  0
M  END
>  <smiles>  (2) 
O=C(NCC(=O)N1C[C@H](O)C[C@@H]1C1CCCC1)c1ccc2cc(Cl)ccc2n1

>  <score_type>  (2) 
oracle

>  <origin>  (2) 
autodockgpu

>  <m_score__min__energy>  (2) 
-8.4199999999999999

>  <m_primary>  (2) 
energy

>  <rmsd>  (2) 
1.6465252449472219

>  <m_score__min__rmsd>  (2) 
1.6465252449472219

>  <meeko>  (2) 
{"free_energy": -8.15, "intermolecular_energy": -9.94, "internal_energy": -1.66, "cluster_size": 14, "cluster_id": 1, "rank_in_cluster": 3}

>  <energy>  (2) 
-8.19

>  <cluster_rmsd>  (2) 
1.98

>  <cluster>  (2) 
1

$$$$

     RDKit          3D

 52 55  0  0  0  0  0  0  0  0999 V2000
  135.9340   70.6020  223.6980 O   0  0  0  0  0  0  0  0  0  0  0  0
  136.0520   71.8510  223.7650 C   0  0  0  0  0  0  0  0  0  0  0  0
  136.9990   72.6090  223.0550 N   0  0  0  0  0  0  0  0  0  0  0  0
  137.9500   71.9930  222.1520 C   0  0  0  0  0  0  0  0  0  0  0  0
  139.1930   71.7210  222.9580 C   0  0  0  0  0  0  0  0  0  0  0  0
  139.9490   72.7110  223.1050 O   0  0  0  0  0  0  0  0  0  0  0  0
  139.3840   70.4310  223.4570 N   0  0  0  0  0  0  0  0  0  0  0  0
  139.1950   69.1900  222.6340 C   0  0  0  0  0  0  0  0  0  0  0  0
  138.3810   68.2910  223.5420 C   0  0  2  0  0  0  0  0  0  0  0  0
  137.0740   68.3090  223.0950 O   0  0  0  0  0  0  0  0  0  0  0  0
  138.5500   68.9190  224.9150 C   0  0  0  0  0  0  0  0  0  0  0  0
  139.7340   69.8410  224.7230 C   0  0  2  0  0  0  0  0  0  0  0  0
  139.9610   70.7740  225.8150 C   0  0  0  0  0  0  0  0  0  0  0  0
  141.2970   71.4700  225.8240 C   0  0  0  0  0  0  0  0  0  0  0  0
  141.1690   72.2640  227.1360 C   0  0  0  0  0  0  0  0  0  0  0  0
  140.3080   71.3810  228.0360 C   0  0  0  0  0  0  0  0  0  0  0  0
  139.9750   70.1410  227.1960 C   0  0  0  0  0  0  0  0  0  0  0  0
  135.1260   72.5700  224.6580 C   0  0  0  0  0  0  0  0  0  0  0  0
  134.2060   71.9030  225.4450 C   0  0  0  0  0  0  0  0  0  0  0  0
  133.3270   72.5460  226.2890 C   0  0  0  0  0  0  0  0  0  0  0  0
  133.3540   73.9240  226.3630 C   0  0  0  0  0  0  0  0  0  0  0  0
  132.5050   74.6220  227.1840 C   0  0  0  0  0  0  0  0  0  0  0  0
  132.5700   76.0070  227.2240 C   0  0  0  0  0  0  0  0  0  0  0  0
  131.4790   76.8610  228.2760 Cl  0  0  0  0  0  0  0  0  0  0  0  0
  133.5010   76.6300  226.4230 C   0  0  0  0  0  0  0  0  0  0  0  0
  134.3640   75.9470  225.5910 C   0  0  0  0  0  0  0  0  0  0  0  0
  134.2770   74.5720  225.5710 C   0  0  0  0  0  0  0  0  0  0  0  0
  135.1290   73.9160  224.7510 N   0  0  0  0  0  0  0  0  0  0  0  0
  137.0310   73.6460  223.1690 H   0  0  0  0  0  0  0  0  0  0  0  0
  137.5417   71.0521  221.7545 H   0  0  0  0  0  0  0  0  0  0  0  0
  138.1673   72.6489  221.2961 H   0  0  0  0  0  0  0  0  0  0  0  0
  138.6480   69.4121  221.7059 H   0  0  0  0  0  0  0  0  0  0  0  0
  140.1448   68.7350  222.3164 H   0  0  0  0  0  0  0  0  0  0  0  0
  138.6891   67.2352  223.5619 H   0  0  0  0  0  0  0  0  0  0  0  0
  136.6110   69.1710  223.2480 H   0  0  0  0  0  0  0  0  0  0  0  0
  137.6517   69.4839  225.2048 H   0  0  0  0  0  0  0  0  0  0  0  0
  138.7014   68.1792  225.7148 H   0  0  0  0  0  0  0  0  0  0  0  0
  140.7146   69.3426  224.7245 H   0  0  0  0  0  0  0  0  0  0  0  0
  139.1170   71.4541  225.6279 H   0  0  0  0  0  0  0  0  0  0  0  0
  142.1312   70.7539  225.8588 H   0  0  0  0  0  0  0  0  0  0  0  0
  141.5120   72.0765  224.9319 H   0  0  0  0  0  0  0  0  0  0  0  0
  142.1582   72.4312  227.5871 H   0  0  0  0  0  0  0  0  0  0  0  0
  140.7270   73.2592  226.9807 H   0  0  0  0  0  0  0  0  0  0  0  0
  140.8651   71.0946  228.9402 H   0  0  0  0  0  0  0  0  0  0  0  0
  139.3996   71.9028  228.3713 H   0  0  0  0  0  0  0  0  0  0  0  0
  140.7494   69.3648  227.2844 H   0  0  0  0  0  0  0  0  0  0  0  0
  139.0517   69.6152  227.4808 H   0  0  0  0  0  0  0  0  0  0  0  0
  134.1740   70.8046  225.3950 H   0  0  0  0  0  0  0  0  0  0  0  0
  132.6134   71.9690  226.8956 H   0  0  0  0  0  0  0  0  0  0  0  0
  131.7754   74.0853  227.8083 H   0  0  0  0  0  0  0  0  0  0  0  0
  133.5596   77.7282  226.4478 H   0  0  0  0  0  0  0  0  0  0  0  0
  135.0951   76.4809  224.9662 H   0  0  0  0  0  0  0  0  0  0  0  0
  1  2  2  0
  2  3  1  0
  3  4  1  0
  4  5  1  0
  5  6  2  0
  5  7  1  0
  7  8  1  0
  8  9  1  0
  9 10  1  0
  9 11  1  0
 11 12  1  0
 12 13  1  0
 13 14  1  0
 14 15  1  0
 15 16  1  0
 16 17  1  0
  2 18  1  0
 18 19  2  0
 19 20  1  0
 20 21  2  0
 21 22  1  0
 22 23  2  0
 23 24  1  0
 23 25  1  0
 25 26  2  0
 26 27  1  0
 27 28  2  0
 12  7  1  0
 17 13  1  0
 28 18  1  0
 27 21  1  0
  3 29  1  0
  4 30  1  0
  4 31  1  0
  8 32  1  0
  8 33  1  0
  9 34  1  1
 10 35  1  0
 11 36  1  0
 11 37  1  0
 12 38  1  6
 13 39  1  0
 14 40  1  0
 14 41  1  0
 15 42  1  0
 15 43  1  0
 16 44  1  0
 16 45  1  0
 17 46  1  0
 17 47  1  0
 19 48  1  0
 20 49  1  0
 22 50  1  0
 25 51  1  0
 26 52  1  0
M  END
>  <smiles>  (3) 
O=C(NCC(=O)N1C[C@H](O)C[C@@H]1C1CCCC1)c1ccc2cc(Cl)ccc2n1

>  <score_type>  (3) 
oracle

>  <origin>  (3) 
autodockgpu

>  <m_score__min__energy>  (3) 
-8.4199999999999999

>  <m_primary>  (3) 
energy

>  <rmsd>  (3) 
7.550941118093541

>  <m_score__min__rmsd>  (3) 
7.550941118093541

>  <meeko>  (3) 
{"free_energy": -7.52, "intermolecular_energy": -9.31, "internal_energy": -2.76, "cluster_size": 13, "cluster_id": 2, "rank_in_cluster": 12}

>  <energy>  (3) 
-8.15

>  <cluster_rmsd>  (3) 
1.91

>  <cluster>  (3) 
1

$$$$

     RDKit          3D

 52 55  0  0  0  0  0  0  0  0999 V2000
  139.4330   71.9340  220.7010 O   0  0  0  0  0  0  0  0  0  0  0  0
  139.5090   72.4360  221.8490 C   0  0  0  0  0  0  0  0  0  0  0  0
  139.4590   73.8130  222.1300 N   0  0  0  0  0  0  0  0  0  0  0  0
  139.3100   74.8020  221.0830 C   0  0  0  0  0  0  0  0  0  0  0  0
  140.1330   75.9940  221.4980 C   0  0  0  0  0  0  0  0  0  0  0  0
  140.4520   76.0130  222.7100 O   0  0  0  0  0  0  0  0  0  0  0  0
  140.4570   76.9410  220.5230 N   0  0  0  0  0  0  0  0  0  0  0  0
  140.9590   76.5820  219.1550 C   0  0  0  0  0  0  0  0  0  0  0  0
  142.1350   77.5160  218.9600 C   0  0  2  0  0  0  0  0  0  0  0  0
  143.2920   76.7850  219.1430 O   0  0  0  0  0  0  0  0  0  0  0  0
  141.9280   78.5820  220.0220 C   0  0  0  0  0  0  0  0  0  0  0  0
  140.4850   78.3770  220.4310 C   0  0  2  0  0  0  0  0  0  0  0  0
  140.0860   79.0970  221.6300 C   0  0  0  0  0  0  0  0  0  0  0  0
  140.9840   78.9360  222.8290 C   0  0  0  0  0  0  0  0  0  0  0  0
  140.1880   79.7510  223.8620 C   0  0  0  0  0  0  0  0  0  0  0  0
  138.7270   79.5520  223.4650 C   0  0  0  0  0  0  0  0  0  0  0  0
  138.7590   78.6520  222.2230 C   0  0  0  0  0  0  0  0  0  0  0  0
  139.6600   71.5080  222.9850 C   0  0  0  0  0  0  0  0  0  0  0  0
  139.2600   70.1870  222.9050 C   0  0  0  0  0  0  0  0  0  0  0  0
  139.3890   69.2960  223.9470 C   0  0  0  0  0  0  0  0  0  0  0  0
  139.9410   69.7280  225.1370 C   0  0  0  0  0  0  0  0  0  0  0  0
  140.0960   68.8880  226.2100 C   0  0  0  0  0  0  0  0  0  0  0  0
  140.6560   69.3690  227.3850 C   0  0  0  0  0  0  0  0  0  0  0  0
  140.8370   68.2790  228.7270 Cl  0  0  0  0  0  0  0  0  0  0  0  0
  141.0390   70.6920  227.4190 C   0  0  0  0  0  0  0  0  0  0  0  0
  140.8930   71.5520  226.3510 C   0  0  0  0  0  0  0  0  0  0  0  0
  140.3330   71.0470  225.1970 C   0  0  0  0  0  0  0  0  0  0  0  0
  140.1960   71.9030  224.1590 N   0  0  0  0  0  0  0  0  0  0  0  0
  139.5300   74.1480  223.1160 H   0  0  0  0  0  0  0  0  0  0  0  0
  139.6775   74.4011  220.1269 H   0  0  0  0  0  0  0  0  0  0  0  0
  138.2541   75.0773  220.9441 H   0  0  0  0  0  0  0  0  0  0  0  0
  141.2800   75.5306  219.1163 H   0  0  0  0  0  0  0  0  0  0  0  0
  140.1919   76.6864  218.3736 H   0  0  0  0  0  0  0  0  0  0  0  0
  142.2126   77.9767  217.9642 H   0  0  0  0  0  0  0  0  0  0  0  0
  143.9030   77.1670  219.8230 H   0  0  0  0  0  0  0  0  0  0  0  0
  142.6064   78.4285  220.8742 H   0  0  0  0  0  0  0  0  0  0  0  0
  142.1367   79.6001  219.6617 H   0  0  0  0  0  0  0  0  0  0  0  0
  139.7415   78.7911  219.7341 H   0  0  0  0  0  0  0  0  0  0  0  0
  140.0890   80.1169  221.2179 H   0  0  0  0  0  0  0  0  0  0  0  0
  141.0830   77.8819  223.1276 H   0  0  0  0  0  0  0  0  0  0  0  0
  142.0237   79.2624  222.6793 H   0  0  0  0  0  0  0  0  0  0  0  0
  140.3693   79.3725  224.8788 H   0  0  0  0  0  0  0  0  0  0  0  0
  140.4778   80.8121  223.8698 H   0  0  0  0  0  0  0  0  0  0  0  0
  138.1704   79.0644  224.2789 H   0  0  0  0  0  0  0  0  0  0  0  0
  138.2250   80.5096  223.2624 H   0  0  0  0  0  0  0  0  0  0  0  0
  138.7649   77.5846  222.4889 H   0  0  0  0  0  0  0  0  0  0  0  0
  137.8909   78.7440  221.5537 H   0  0  0  0  0  0  0  0  0  0  0  0
  138.8172   69.8304  221.9633 H   0  0  0  0  0  0  0  0  0  0  0  0
  139.0567   68.2536  223.8330 H   0  0  0  0  0  0  0  0  0  0  0  0
  139.7777   67.8374  226.1395 H   0  0  0  0  0  0  0  0  0  0  0  0
  141.4842   71.0824  228.3460 H   0  0  0  0  0  0  0  0  0  0  0  0
  141.2118   72.6027  226.4175 H   0  0  0  0  0  0  0  0  0  0  0  0
  1  2  2  0
  2  3  1  0
  3  4  1  0
  4  5  1  0
  5  6  2  0
  5  7  1  0
  7  8  1  0
  8  9  1  0
  9 10  1  0
  9 11  1  0
 11 12  1  0
 12 13  1  0
 13 14  1  0
 14 15  1  0
 15 16  1  0
 16 17  1  0
  2 18  1  0
 18 19  2  0
 19 20  1  0
 20 21  2  0
 21 22  1  0
 22 23  2  0
 23 24  1  0
 23 25  1  0
 25 26  2  0
 26 27  1  0
 27 28  2  0
 12  7  1  0
 17 13  1  0
 28 18  1  0
 27 21  1  0
  3 29  1  0
  4 30  1  0
  4 31  1  0
  8 32  1  0
  8 33  1  0
  9 34  1  6
 10 35  1  0
 11 36  1  0
 11 37  1  0
 12 38  1  6
 13 39  1  0
 14 40  1  0
 14 41  1  0
 15 42  1  0
 15 43  1  0
 16 44  1  0
 16 45  1  0
 17 46  1  0
 17 47  1  0
 19 48  1  0
 20 49  1  0
 22 50  1  0
 25 51  1  0
 26 52  1  0
M  END
>  <smiles>  (4) 
O=C(NCC(=O)N1C[C@H](O)C[C@@H]1C1CCCC1)c1ccc2cc(Cl)ccc2n1

>  <score_type>  (4) 
oracle

>  <origin>  (4) 
autodockgpu

>  <m_score__min__energy>  (4) 
-8.4199999999999999

>  <m_primary>  (4) 
energy

>  <rmsd>  (4) 
1.7578827903439413

>  <m_score__min__rmsd>  (4) 
1.7578827903439413

>  <meeko>  (4) 
{"free_energy": -8.08, "intermolecular_energy": -9.87, "internal_energy": -2.03, "cluster_size": 14, "cluster_id": 1, "rank_in_cluster": 4}

>  <energy>  (4) 
-8.08

>  <cluster_rmsd>  (4) 
1.85

>  <cluster>  (4) 
1

$$$$

     RDKit          3D

 52 55  0  0  0  0  0  0  0  0999 V2000
  135.9200   70.6030  223.6740 O   0  0  0  0  0  0  0  0  0  0  0  0
  136.0580   71.8480  223.7660 C   0  0  0  0  0  0  0  0  0  0  0  0
  137.0220   72.6040  223.0770 N   0  0  0  0  0  0  0  0  0  0  0  0
  137.9690   71.9900  222.1690 C   0  0  0  0  0  0  0  0  0  0  0  0
  139.2160   71.7170  222.9700 C   0  0  0  0  0  0  0  0  0  0  0  0
  139.9750   72.7040  223.1090 O   0  0  0  0  0  0  0  0  0  0  0  0
  139.4050   70.4270  223.4700 N   0  0  0  0  0  0  0  0  0  0  0  0
  139.2090   69.1840  222.6520 C   0  0  0  0  0  0  0  0  0  0  0  0
  138.3970   68.2900  223.5670 C   0  0  2  0  0  0  0  0  0  0  0  0
  137.0870   68.3100  223.1260 O   0  0  0  0  0  0  0  0  0  0  0  0
  138.5750   68.9210  224.9370 C   0  0  0  0  0  0  0  0  0  0  0  0
  139.7610   69.8390  224.7350 C   0  0  2  0  0  0  0  0  0  0  0  0
  139.9970   70.7740  225.8240 C   0  0  0  0  0  0  0  0  0  0  0  0
  141.3450   71.4450  225.8390 C   0  0  0  0  0  0  0  0  0  0  0  0
  141.2220   72.2490  227.1450 C   0  0  0  0  0  0  0  0  0  0  0  0
  140.3390   71.3870  228.0440 C   0  0  0  0  0  0  0  0  0  0  0  0
  139.9900   70.1480  227.2090 C   0  0  0  0  0  0  0  0  0  0  0  0
  135.1370   72.5650  224.6670 C   0  0  0  0  0  0  0  0  0  0  0  0
  134.2230   71.8950  225.4590 C   0  0  0  0  0  0  0  0  0  0  0  0
  133.3500   72.5360  226.3110 C   0  0  0  0  0  0  0  0  0  0  0  0
  133.3760   73.9150  226.3870 C   0  0  0  0  0  0  0  0  0  0  0  0
  132.5330   74.6100  227.2150 C   0  0  0  0  0  0  0  0  0  0  0  0
  132.5970   75.9950  227.2580 C   0  0  0  0  0  0  0  0  0  0  0  0
  131.5130   76.8460  228.3180 Cl  0  0  0  0  0  0  0  0  0  0  0  0
  133.5230   76.6200  226.4510 C   0  0  0  0  0  0  0  0  0  0  0  0
  134.3800   75.9400  225.6110 C   0  0  0  0  0  0  0  0  0  0  0  0
  134.2940   74.5640  225.5900 C   0  0  0  0  0  0  0  0  0  0  0  0
  135.1400   73.9110  224.7620 N   0  0  0  0  0  0  0  0  0  0  0  0
  137.0710   73.6370  223.2120 H   0  0  0  0  0  0  0  0  0  0  0  0
  137.5593   71.0496  221.7717 H   0  0  0  0  0  0  0  0  0  0  0  0
  138.1824   72.6473  221.3132 H   0  0  0  0  0  0  0  0  0  0  0  0
  138.6581   69.4044  221.7258 H   0  0  0  0  0  0  0  0  0  0  0  0
  140.1561   68.7256  222.3312 H   0  0  0  0  0  0  0  0  0  0  0  0
  138.7021   67.2334  223.5886 H   0  0  0  0  0  0  0  0  0  0  0  0
  136.6480   69.1930  223.2210 H   0  0  0  0  0  0  0  0  0  0  0  0
  137.6800   69.4894  225.2302 H   0  0  0  0  0  0  0  0  0  0  0  0
  138.7283   68.1833  225.7384 H   0  0  0  0  0  0  0  0  0  0  0  0
  140.7402   69.3379  224.7311 H   0  0  0  0  0  0  0  0  0  0  0  0
  139.1668   71.4683  225.6273 H   0  0  0  0  0  0  0  0  0  0  0  0
  142.1656   70.7138  225.8844 H   0  0  0  0  0  0  0  0  0  0  0  0
  141.5778   72.0420  224.9449 H   0  0  0  0  0  0  0  0  0  0  0  0
  142.2108   72.4013  227.6022 H   0  0  0  0  0  0  0  0  0  0  0  0
  140.7990   73.2510  226.9806 H   0  0  0  0  0  0  0  0  0  0  0  0
  140.8845   71.0962  228.9539 H   0  0  0  0  0  0  0  0  0  0  0  0
  139.4376   71.9269  228.3696 H   0  0  0  0  0  0  0  0  0  0  0  0
  140.7499   69.3588  227.3072 H   0  0  0  0  0  0  0  0  0  0  0  0
  139.0558   69.6399  227.4902 H   0  0  0  0  0  0  0  0  0  0  0  0
  134.1911   70.7967  225.4064 H   0  0  0  0  0  0  0  0  0  0  0  0
  132.6419   71.9573  226.9224 H   0  0  0  0  0  0  0  0  0  0  0  0
  131.8083   74.0712  227.8431 H   0  0  0  0  0  0  0  0  0  0  0  0
  133.5817   77.7181  226.4782 H   0  0  0  0  0  0  0  0  0  0  0  0
  135.1054   76.4757  224.9810 H   0  0  0  0  0  0  0  0  0  0  0  0
  1  2  2  0
  2  3  1  0
  3  4  1  0
  4  5  1  0
  5  6  2  0
  5  7  1  0
  7  8  1  0
  8  9  1  0
  9 10  1  0
  9 11  1  0
 11 12  1  0
 12 13  1  0
 13 14  1  0
 14 15  1  0
 15 16  1  0
 16 17  1  0
  2 18  1  0
 18 19  2  0
 19 20  1  0
 20 21  2  0
 21 22  1  0
 22 23  2  0
 23 24  1  0
 23 25  1  0
 25 26  2  0
 26 27  1  0
 27 28  2  0
 12  7  1  0
 17 13  1  0
 28 18  1  0
 27 21  1  0
  3 29  1  0
  4 30  1  0
  4 31  1  0
  8 32  1  0
  8 33  1  0
  9 34  1  1
 10 35  1  0
 11 36  1  0
 11 37  1  0
 12 38  1  6
 13 39  1  0
 14 40  1  0
 14 41  1  0
 15 42  1  0
 15 43  1  0
 16 44  1  0
 16 45  1  0
 17 46  1  0
 17 47  1  0
 19 48  1  0
 20 49  1  0
 22 50  1  0
 25 51  1  0
 26 52  1  0
M  END
>  <smiles>  (5) 
O=C(NCC(=O)N1C[C@H](O)C[C@@H]1C1CCCC1)c1ccc2cc(Cl)ccc2n1

>  <score_type>  (5) 
oracle

>  <origin>  (5) 
autodockgpu

>  <m_score__min__energy>  (5) 
-8.4199999999999999

>  <m_primary>  (5) 
energy

>  <rmsd>  (5) 
7.545220986102249

>  <m_score__min__rmsd>  (5) 
7.545220986102249

>  <meeko>  (5) 
{"free_energy": -7.53, "intermolecular_energy": -9.32, "internal_energy": -2.75, "cluster_size": 13, "cluster_id": 2, "rank_in_cluster": 10}

>  <energy>  (5) 
-8.07

>  <cluster_rmsd>  (5) 
1.75

>  <cluster>  (5) 
1

$$$$

     RDKit          3D

 52 55  0  0  0  0  0  0  0  0999 V2000
  139.6970   72.9420  220.0420 O   0  0  0  0  0  0  0  0  0  0  0  0
  140.2250   73.2290  221.1440 C   0  0  0  0  0  0  0  0  0  0  0  0
  140.9630   74.3970  221.4020 N   0  0  0  0  0  0  0  0  0  0  0  0
  141.1830   75.4040  220.3830 C   0  0  0  0  0  0  0  0  0  0  0  0
  141.0720   76.7400  221.0690 C   0  0  0  0  0  0  0  0  0  0  0  0
  141.0770   76.6870  222.3220 O   0  0  0  0  0  0  0  0  0  0  0  0
  140.9790   77.8830  220.2720 N   0  0  0  0  0  0  0  0  0  0  0  0
  140.8280   77.8400  218.7790 C   0  0  0  0  0  0  0  0  0  0  0  0
  141.8380   78.8620  218.2980 C   0  0  2  0  0  0  0  0  0  0  0  0
  142.9330   78.1770  217.8100 O   0  0  0  0  0  0  0  0  0  0  0  0
  142.1480   79.6740  219.5430 C   0  0  0  0  0  0  0  0  0  0  0  0
  141.0170   79.3070  220.4790 C   0  0  2  0  0  0  0  0  0  0  0  0
  141.2000   79.7430  221.8540 C   0  0  0  0  0  0  0  0  0  0  0  0
  141.1380   81.2290  222.0910 C   0  0  0  0  0  0  0  0  0  0  0  0
  141.4570   81.2670  223.5960 C   0  0  0  0  0  0  0  0  0  0  0  0
  142.4040   80.0900  223.8160 C   0  0  0  0  0  0  0  0  0  0  0  0
  142.5670   79.4310  222.4400 C   0  0  0  0  0  0  0  0  0  0  0  0
  140.0550   72.2660  222.2470 C   0  0  0  0  0  0  0  0  0  0  0  0
  139.3100   71.1110  222.0980 C   0  0  0  0  0  0  0  0  0  0  0  0
  139.1330   70.1920  223.1090 C   0  0  0  0  0  0  0  0  0  0  0  0
  139.7200   70.4220  224.3370 C   0  0  0  0  0  0  0  0  0  0  0  0
  139.5800   69.5450  225.3830 C   0  0  0  0  0  0  0  0  0  0  0  0
  140.1890   69.8210  226.5980 C   0  0  0  0  0  0  0  0  0  0  0  0
  139.9910   68.6880  227.9030 Cl  0  0  0  0  0  0  0  0  0  0  0  0
  140.9200   70.9830  226.7010 C   0  0  0  0  0  0  0  0  0  0  0  0
  141.0730   71.8780  225.6630 C   0  0  0  0  0  0  0  0  0  0  0  0
  140.4570   71.5790  224.4670 C   0  0  0  0  0  0  0  0  0  0  0  0
  140.6160   72.4650  223.4580 N   0  0  0  0  0  0  0  0  0  0  0  0
  141.3710   74.5600  222.3480 H   0  0  0  0  0  0  0  0  0  0  0  0
  142.1837   75.2856  219.9419 H   0  0  0  0  0  0  0  0  0  0  0  0
  140.4482   75.3130  219.5695 H   0  0  0  0  0  0  0  0  0  0  0  0
  141.0629   76.8392  218.3877 H   0  0  0  0  0  0  0  0  0  0  0  0
  139.8030   78.0560  218.4432 H   0  0  0  0  0  0  0  0  0  0  0  0
  141.4955   79.5205  217.4861 H   0  0  0  0  0  0  0  0  0  0  0  0
  143.5390   78.7340  217.2570 H   0  0  0  0  0  0  0  0  0  0  0  0
  143.1216   79.3892  219.9685 H   0  0  0  0  0  0  0  0  0  0  0  0
  142.2173   80.7547  219.3496 H   0  0  0  0  0  0  0  0  0  0  0  0
  140.0615   79.8112  220.2722 H   0  0  0  0  0  0  0  0  0  0  0  0
  140.3647   79.1939  222.3132 H   0  0  0  0  0  0  0  0  0  0  0  0
  141.8914   81.7695  221.4992 H   0  0  0  0  0  0  0  0  0  0  0  0
  140.1898   81.7070  221.8039 H   0  0  0  0  0  0  0  0  0  0  0  0
  141.9456   82.2148  223.8660 H   0  0  0  0  0  0  0  0  0  0  0  0
  140.5519   81.1973  224.2172 H   0  0  0  0  0  0  0  0  0  0  0  0
  143.3760   80.4436  224.1903 H   0  0  0  0  0  0  0  0  0  0  0  0
  142.0105   79.3840  224.5621 H   0  0  0  0  0  0  0  0  0  0  0  0
  143.3787   79.8911  221.8574 H   0  0  0  0  0  0  0  0  0  0  0  0
  142.8381   78.3651  222.4587 H   0  0  0  0  0  0  0  0  0  0  0  0
  138.8355   70.9163  221.1249 H   0  0  0  0  0  0  0  0  0  0  0  0
  138.5316   69.2866  222.9398 H   0  0  0  0  0  0  0  0  0  0  0  0
  138.9872   68.6268  225.2583 H   0  0  0  0  0  0  0  0  0  0  0  0
  141.4073   71.2093  227.6609 H   0  0  0  0  0  0  0  0  0  0  0  0
  141.6651   72.7970  225.7852 H   0  0  0  0  0  0  0  0  0  0  0  0
  1  2  2  0
  2  3  1  0
  3  4  1  0
  4  5  1  0
  5  6  2  0
  5  7  1  0
  7  8  1  0
  8  9  1  0
  9 10  1  0
  9 11  1  0
 11 12  1  0
 12 13  1  0
 13 14  1  0
 14 15  1  0
 15 16  1  0
 16 17  1  0
  2 18  1  0
 18 19  2  0
 19 20  1  0
 20 21  2  0
 21 22  1  0
 22 23  2  0
 23 24  1  0
 23 25  1  0
 25 26  2  0
 26 27  1  0
 27 28  2  0
 12  7  1  0
 17 13  1  0
 28 18  1  0
 27 21  1  0
  3 29  1  0
  4 30  1  0
  4 31  1  0
  8 32  1  0
  8 33  1  0
  9 34  1  6
 10 35  1  0
 11 36  1  0
 11 37  1  0
 12 38  1  6
 13 39  1  0
 14 40  1  0
 14 41  1  0
 15 42  1  0
 15 43  1  0
 16 44  1  0
 16 45  1  0
 17 46  1  0
 17 47  1  0
 19 48  1  0
 20 49  1  0
 22 50  1  0
 25 51  1  0
 26 52  1  0
M  END
>  <smiles>  (6) 
O=C(NCC(=O)N1C[C@H](O)C[C@@H]1C1CCCC1)c1ccc2cc(Cl)ccc2n1

>  <score_type>  (6) 
oracle

>  <origin>  (6) 
autodockgpu

>  <m_score__min__energy>  (6) 
-8.4199999999999999

>  <m_primary>  (6) 
energy

>  <rmsd>  (6) 
2.7198114845237256

>  <m_score__min__rmsd>  (6) 
2.7198114845237256

>  <meeko>  (6) 
{"free_energy": -7.74, "intermolecular_energy": -9.53, "internal_energy": -2.11, "cluster_size": 4, "cluster_id": 3, "rank_in_cluster": 3}

>  <energy>  (6) 
-8.05

>  <cluster_rmsd>  (6) 
1.95

>  <cluster>  (6) 
1

$$$$

     RDKit          3D

 52 55  0  0  0  0  0  0  0  0999 V2000
  140.7000   72.4870  220.8030 O   0  0  0  0  0  0  0  0  0  0  0  0
  140.1590   72.8670  221.8710 C   0  0  0  0  0  0  0  0  0  0  0  0
  139.5850   74.1330  222.0760 N   0  0  0  0  0  0  0  0  0  0  0  0
  139.5660   75.1420  221.0360 C   0  0  0  0  0  0  0  0  0  0  0  0
  140.1380   76.3960  221.6440 C   0  0  0  0  0  0  0  0  0  0  0  0
  141.3440   76.6050  221.3750 O   0  0  0  0  0  0  0  0  0  0  0  0
  139.2970   77.1880  222.4290 N   0  0  0  0  0  0  0  0  0  0  0  0
  137.9060   76.7840  222.8200 C   0  0  0  0  0  0  0  0  0  0  0  0
  137.0910   78.0310  222.5440 C   0  0  2  0  0  0  0  0  0  0  0  0
  136.3930   77.8300  221.3690 O   0  0  0  0  0  0  0  0  0  0  0  0
  138.1360   79.1270  222.4370 C   0  0  0  0  0  0  0  0  0  0  0  0
  139.3640   78.4860  223.0480 C   0  0  2  0  0  0  0  0  0  0  0  0
  140.6000   79.2240  222.8430 C   0  0  0  0  0  0  0  0  0  0  0  0
  141.8110   78.7000  223.5680 C   0  0  0  0  0  0  0  0  0  0  0  0
  142.8390   79.7720  223.1690 C   0  0  0  0  0  0  0  0  0  0  0  0
  142.0230   81.0560  223.0380 C   0  0  0  0  0  0  0  0  0  0  0  0
  140.5760   80.6550  223.3530 C   0  0  0  0  0  0  0  0  0  0  0  0
  140.1270   71.9080  222.9910 C   0  0  0  0  0  0  0  0  0  0  0  0
  139.6000   70.6380  222.8480 C   0  0  0  0  0  0  0  0  0  0  0  0
  139.5560   69.7200  223.8740 C   0  0  0  0  0  0  0  0  0  0  0  0
  140.0560   70.0710  225.1120 C   0  0  0  0  0  0  0  0  0  0  0  0
  140.0410   69.2010  226.1730 C   0  0  0  0  0  0  0  0  0  0  0  0
  140.5560   69.6000  227.3970 C   0  0  0  0  0  0  0  0  0  0  0  0
  140.5200   68.4740  228.7220 Cl  0  0  0  0  0  0  0  0  0  0  0  0
  141.0700   70.8750  227.4940 C   0  0  0  0  0  0  0  0  0  0  0  0
  141.0950   71.7640  226.4400 C   0  0  0  0  0  0  0  0  0  0  0  0
  140.5760   71.3410  225.2350 C   0  0  0  0  0  0  0  0  0  0  0  0
  140.6090   72.2240  224.2110 N   0  0  0  0  0  0  0  0  0  0  0  0
  139.1560   74.3700  222.9970 H   0  0  0  0  0  0  0  0  0  0  0  0
  140.1804   74.8193  220.1826 H   0  0  0  0  0  0  0  0  0  0  0  0
  138.5443   75.3108  220.6650 H   0  0  0  0  0  0  0  0  0  0  0  0
  137.5542   75.9399  222.2087 H   0  0  0  0  0  0  0  0  0  0  0  0
  137.8335   76.4443  223.8637 H   0  0  0  0  0  0  0  0  0  0  0  0
  136.3438   78.2866  223.3098 H   0  0  0  0  0  0  0  0  0  0  0  0
  136.9740   77.6770  220.5810 H   0  0  0  0  0  0  0  0  0  0  0  0
  138.3144   79.4022  221.3870 H   0  0  0  0  0  0  0  0  0  0  0  0
  137.8389   80.0602  222.9379 H   0  0  0  0  0  0  0  0  0  0  0  0
  139.3726   78.4530  224.1475 H   0  0  0  0  0  0  0  0  0  0  0  0
  140.6701   79.1256  221.7497 H   0  0  0  0  0  0  0  0  0  0  0  0
  141.6544   78.6684  224.6563 H   0  0  0  0  0  0  0  0  0  0  0  0
  142.0938   77.6674  223.3156 H   0  0  0  0  0  0  0  0  0  0  0  0
  143.6101   79.8792  223.9461 H   0  0  0  0  0  0  0  0  0  0  0  0
  143.3690   79.5171  222.2394 H   0  0  0  0  0  0  0  0  0  0  0  0
  142.3773   81.8117  223.7545 H   0  0  0  0  0  0  0  0  0  0  0  0
  142.1152   81.4980  222.0349 H   0  0  0  0  0  0  0  0  0  0  0  0
  140.3614   80.7037  224.4308 H   0  0  0  0  0  0  0  0  0  0  0  0
  139.8028   81.2991  222.9088 H   0  0  0  0  0  0  0  0  0  0  0  0
  139.1962   70.3464  221.8672 H   0  0  0  0  0  0  0  0  0  0  0  0
  139.1280   68.7202  223.7090 H   0  0  0  0  0  0  0  0  0  0  0  0
  139.6221   68.1910  226.0530 H   0  0  0  0  0  0  0  0  0  0  0  0
  141.4812   71.2001  228.4611 H   0  0  0  0  0  0  0  0  0  0  0  0
  141.5140   72.7744  226.5566 H   0  0  0  0  0  0  0  0  0  0  0  0
  1  2  2  0
  2  3  1  0
  3  4  1  0
  4  5  1  0
  5  6  2  0
  5  7  1  0
  7  8  1  0
  8  9  1  0
  9 10  1  0
  9 11  1  0
 11 12  1  0
 12 13  1  0
 13 14  1  0
 14 15  1  0
 15 16  1  0
 16 17  1  0
  2 18  1  0
 18 19  2  0
 19 20  1  0
 20 21  2  0
 21 22  1  0
 22 23  2  0
 23 24  1  0
 23 25  1  0
 25 26  2  0
 26 27  1  0
 27 28  2  0
 12  7  1  0
 17 13  1  0
 28 18  1  0
 27 21  1  0
  3 29  1  0
  4 30  1  0
  4 31  1  0
  8 32  1  0
  8 33  1  0
  9 34  1  1
 10 35  1  0
 11 36  1  0
 11 37  1  0
 12 38  1  1
 13 39  1  0
 14 40  1  0
 14 41  1  0
 15 42  1  0
 15 43  1  0
 16 44  1  0
 16 45  1  0
 17 46  1  0
 17 47  1  0
 19 48  1  0
 20 49  1  0
 22 50  1  0
 25 51  1  0
 26 52  1  0
M  END
>  <smiles>  (7) 
O=C(NCC(=O)N1C[C@H](O)C[C@@H]1C1CCCC1)c1ccc2cc(Cl)ccc2n1

>  <score_type>  (7) 
oracle

>  <origin>  (7) 
autodockgpu

>  <m_score__min__energy>  (7) 
-8.4199999999999999

>  <m_primary>  (7) 
energy

>  <rmsd>  (7) 
3.2408738551247853

>  <m_score__min__rmsd>  (7) 
3.2408738551247853

>  <meeko>  (7) 
{"free_energy": -8.42, "intermolecular_energy": -10.21, "internal_energy": -1.32, "cluster_size": 14, "cluster_id": 1, "rank_in_cluster": 1}

>  <energy>  (7) 
-8.04

>  <cluster_rmsd>  (7) 
1.95

>  <cluster>  (7) 
1

$$$$

     RDKit          3D

 52 55  0  0  0  0  0  0  0  0999 V2000
  133.5470   69.9870  226.4970 O   0  0  0  0  0  0  0  0  0  0  0  0
  133.9980   71.0940  226.1110 C   0  0  0  0  0  0  0  0  0  0  0  0
  135.1040   71.2590  225.2610 N   0  0  0  0  0  0  0  0  0  0  0  0
  135.8430   70.1270  224.7380 C   0  0  0  0  0  0  0  0  0  0  0  0
  136.9160   70.6910  223.8440 C   0  0  0  0  0  0  0  0  0  0  0  0
  136.7310   71.8780  223.4890 O   0  0  0  0  0  0  0  0  0  0  0  0
  137.9900   69.8640  223.5040 N   0  0  0  0  0  0  0  0  0  0  0  0
  138.1340   69.2050  222.1630 C   0  0  0  0  0  0  0  0  0  0  0  0
  138.5050   67.7790  222.5150 C   0  0  2  0  0  0  0  0  0  0  0  0
  137.3830   66.9930  222.3390 O   0  0  0  0  0  0  0  0  0  0  0  0
  138.9480   67.8700  223.9660 C   0  0  0  0  0  0  0  0  0  0  0  0
  139.1650   69.3550  224.1610 C   0  0  2  0  0  0  0  0  0  0  0  0
  139.3460   69.7650  225.5450 C   0  0  0  0  0  0  0  0  0  0  0  0
  140.4720   70.7300  225.8070 C   0  0  0  0  0  0  0  0  0  0  0  0
  140.3780   70.8310  227.3390 C   0  0  0  0  0  0  0  0  0  0  0  0
  139.8960   69.4530  227.7850 C   0  0  0  0  0  0  0  0  0  0  0  0
  139.7240   68.6410  226.4940 C   0  0  0  0  0  0  0  0  0  0  0  0
  133.3110   72.3080  226.5880 C   0  0  0  0  0  0  0  0  0  0  0  0
  132.0950   72.2480  227.2440 C   0  0  0  0  0  0  0  0  0  0  0  0
  131.4290   73.3640  227.7020 C   0  0  0  0  0  0  0  0  0  0  0  0
  131.9890   74.6100  227.5030 C   0  0  0  0  0  0  0  0  0  0  0  0
  131.3750   75.7570  227.9360 C   0  0  0  0  0  0  0  0  0  0  0  0
  131.9780   76.9860  227.7120 C   0  0  0  0  0  0  0  0  0  0  0  0
  131.1730   78.4220  228.2730 Cl  0  0  0  0  0  0  0  0  0  0  0  0
  133.1890   76.9990  227.0550 C   0  0  0  0  0  0  0  0  0  0  0  0
  133.8230   75.8570  226.6120 C   0  0  0  0  0  0  0  0  0  0  0  0
  133.2010   74.6490  226.8480 C   0  0  0  0  0  0  0  0  0  0  0  0
  133.8350   73.5380  226.4080 N   0  0  0  0  0  0  0  0  0  0  0  0
  135.4170   72.2160  224.9880 H   0  0  0  0  0  0  0  0  0  0  0  0
  136.2964   69.5561  225.5618 H   0  0  0  0  0  0  0  0  0  0  0  0
  135.1829   69.4436  224.1838 H   0  0  0  0  0  0  0  0  0  0  0  0
  137.1878   69.2395  221.6031 H   0  0  0  0  0  0  0  0  0  0  0  0
  138.8773   69.6972  221.5185 H   0  0  0  0  0  0  0  0  0  0  0  0
  139.2985   67.3313  221.8986 H   0  0  0  0  0  0  0  0  0  0  0  0
  137.2680   66.6640  221.4120 H   0  0  0  0  0  0  0  0  0  0  0  0
  138.1674   67.4920  224.6425 H   0  0  0  0  0  0  0  0  0  0  0  0
  139.8420   67.2679  224.1857 H   0  0  0  0  0  0  0  0  0  0  0  0
  140.1071   69.7449  223.7482 H   0  0  0  0  0  0  0  0  0  0  0  0
  138.3507   70.1998  225.7191 H   0  0  0  0  0  0  0  0  0  0  0  0
  141.4419   70.3251  225.4823 H   0  0  0  0  0  0  0  0  0  0  0  0
  140.3980   71.6882  225.2718 H   0  0  0  0  0  0  0  0  0  0  0  0
  141.3622   71.0583  227.7746 H   0  0  0  0  0  0  0  0  0  0  0  0
  139.7020   71.6356  227.6641 H   0  0  0  0  0  0  0  0  0  0  0  0
  140.6409   68.9789  228.4410 H   0  0  0  0  0  0  0  0  0  0  0  0
  138.9582   69.5140  228.3567 H   0  0  0  0  0  0  0  0  0  0  0  0
  140.6585   68.1453  226.1926 H   0  0  0  0  0  0  0  0  0  0  0  0
  139.0026   67.8127  226.5524 H   0  0  0  0  0  0  0  0  0  0  0  0
  131.6372   71.2614  227.4082 H   0  0  0  0  0  0  0  0  0  0  0  0
  130.4636   73.2633  228.2195 H   0  0  0  0  0  0  0  0  0  0  0  0
  130.4086   75.7028  228.4586 H   0  0  0  0  0  0  0  0  0  0  0  0
  133.6748   77.9693  226.8746 H   0  0  0  0  0  0  0  0  0  0  0  0
  134.7896   75.9079  226.0894 H   0  0  0  0  0  0  0  0  0  0  0  0
  1  2  2  0
  2  3  1  0
  3  4  1  0
  4  5  1  0
  5  6  2  0
  5  7  1  0
  7  8  1  0
  8  9  1  0
  9 10  1  0
  9 11  1  0
 11 12  1  0
 12 13  1  0
 13 14  1  0
 14 15  1  0
 15 16  1  0
 16 17  1  0
  2 18  1  0
 18 19  2  0
 19 20  1  0
 20 21  2  0
 21 22  1  0
 22 23  2  0
 23 24  1  0
 23 25  1  0
 25 26  2  0
 26 27  1  0
 27 28  2  0
 12  7  1  0
 17 13  1  0
 28 18  1  0
 27 21  1  0
  3 29  1  0
  4 30  1  0
  4 31  1  0
  8 32  1  0
  8 33  1  0
  9 34  1  6
 10 35  1  0
 11 36  1  0
 11 37  1  0
 12 38  1  6
 13 39  1  0
 14 40  1  0
 14 41  1  0
 15 42  1  0
 15 43  1  0
 16 44  1  0
 16 45  1  0
 17 46  1  0
 17 47  1  0
 19 48  1  0
 20 49  1  0
 22 50  1  0
 25 51  1  0
 26 52  1  0
M  END
>  <smiles>  (8) 
O=C(NCC(=O)N1C[C@H](O)C[C@@H]1C1CCCC1)c1ccc2cc(Cl)ccc2n1

>  <score_type>  (8) 
oracle

>  <origin>  (8) 
autodockgpu

>  <m_score__min__energy>  (8) 
-8.4199999999999999

>  <m_primary>  (8) 
energy

>  <rmsd>  (8) 
8.626190756037435

>  <m_score__min__rmsd>  (8) 
8.626190756037435

>  <meeko>  (8) 
{"free_energy": -7.36, "intermolecular_energy": -9.15, "internal_energy": -2.14, "cluster_size": 13, "cluster_id": 2, "rank_in_cluster": 13}

>  <energy>  (8) 
-8.01

>  <cluster_rmsd>  (8) 
1.9

>  <cluster>  (8) 
1

$$$$

     RDKit          3D

 52 55  0  0  0  0  0  0  0  0999 V2000
  139.3420   72.0380  220.7090 O   0  0  0  0  0  0  0  0  0  0  0  0
  139.4730   72.5440  221.8510 C   0  0  0  0  0  0  0  0  0  0  0  0
  139.4890   73.9230  222.1230 N   0  0  0  0  0  0  0  0  0  0  0  0
  139.3500   74.9110  221.0730 C   0  0  0  0  0  0  0  0  0  0  0  0
  140.4150   75.9490  221.3160 C   0  0  0  0  0  0  0  0  0  0  0  0
  141.0450   75.8090  222.3910 O   0  0  0  0  0  0  0  0  0  0  0  0
  140.5990   76.9410  220.3510 N   0  0  0  0  0  0  0  0  0  0  0  0
  141.0370   76.6560  218.9440 C   0  0  0  0  0  0  0  0  0  0  0  0
  142.1210   77.6860  218.7010 C   0  0  2  0  0  0  0  0  0  0  0  0
  143.3420   77.0460  218.7890 O   0  0  0  0  0  0  0  0  0  0  0  0
  141.9010   78.7060  219.8050 C   0  0  0  0  0  0  0  0  0  0  0  0
  140.5080   78.3770  220.2980 C   0  0  2  0  0  0  0  0  0  0  0  0
  140.1330   79.0340  221.5400 C   0  0  0  0  0  0  0  0  0  0  0  0
  141.0900   78.8700  222.6910 C   0  0  0  0  0  0  0  0  0  0  0  0
  140.3070   79.6100  223.7890 C   0  0  0  0  0  0  0  0  0  0  0  0
  138.8410   79.3610  223.4480 C   0  0  0  0  0  0  0  0  0  0  0  0
  138.8550   78.5090  222.1730 C   0  0  0  0  0  0  0  0  0  0  0  0
  139.6190   71.6180  222.9890 C   0  0  0  0  0  0  0  0  0  0  0  0
  139.1720   70.3110  222.9270 C   0  0  0  0  0  0  0  0  0  0  0  0
  139.2950   69.4210  223.9710 C   0  0  0  0  0  0  0  0  0  0  0  0
  139.8900   69.8400  225.1450 C   0  0  0  0  0  0  0  0  0  0  0  0
  140.0410   69.0020  226.2200 C   0  0  0  0  0  0  0  0  0  0  0  0
  140.6450   69.4700  227.3770 C   0  0  0  0  0  0  0  0  0  0  0  0
  140.8210   68.3810  228.7220 Cl  0  0  0  0  0  0  0  0  0  0  0  0
  141.0750   70.7790  227.3940 C   0  0  0  0  0  0  0  0  0  0  0  0
  140.9320   71.6380  226.3250 C   0  0  0  0  0  0  0  0  0  0  0  0
  140.3280   71.1460  225.1870 C   0  0  0  0  0  0  0  0  0  0  0  0
  140.1960   72.0000  224.1470 N   0  0  0  0  0  0  0  0  0  0  0  0
  139.6040   74.2620  223.1030 H   0  0  0  0  0  0  0  0  0  0  0  0
  139.4946   74.4418  220.0886 H   0  0  0  0  0  0  0  0  0  0  0  0
  138.3467   75.3618  221.0823 H   0  0  0  0  0  0  0  0  0  0  0  0
  141.4365   75.6350  218.8548 H   0  0  0  0  0  0  0  0  0  0  0  0
  140.2143   76.7171  218.2164 H   0  0  0  0  0  0  0  0  0  0  0  0
  142.0966   78.1748  217.7159 H   0  0  0  0  0  0  0  0  0  0  0  0
  143.9800   77.4870  219.4050 H   0  0  0  0  0  0  0  0  0  0  0  0
  142.6433   78.5863  220.6079 H   0  0  0  0  0  0  0  0  0  0  0  0
  142.0058   79.7460  219.4622 H   0  0  0  0  0  0  0  0  0  0  0  0
  139.6907   78.7467  219.6613 H   0  0  0  0  0  0  0  0  0  0  0  0
  140.0732   80.0672  221.1673 H   0  0  0  0  0  0  0  0  0  0  0  0
  141.2481   77.8112  222.9440 H   0  0  0  0  0  0  0  0  0  0  0  0
  142.1066   79.2484  222.5087 H   0  0  0  0  0  0  0  0  0  0  0  0
  140.5498   79.2023  224.7814 H   0  0  0  0  0  0  0  0  0  0  0  0
  140.5512   80.6819  223.8261 H   0  0  0  0  0  0  0  0  0  0  0  0
  138.3427   78.8203  224.2661 H   0  0  0  0  0  0  0  0  0  0  0  0
  138.2905   80.3023  223.3034 H   0  0  0  0  0  0  0  0  0  0  0  0
  138.9190   77.4341  222.3976 H   0  0  0  0  0  0  0  0  0  0  0  0
  137.9542   78.5861  221.5464 H   0  0  0  0  0  0  0  0  0  0  0  0
  138.6947   69.9650  221.9983 H   0  0  0  0  0  0  0  0  0  0  0  0
  138.9243   68.3902  223.8711 H   0  0  0  0  0  0  0  0  0  0  0  0
  139.6844   67.9629  226.1646 H   0  0  0  0  0  0  0  0  0  0  0  0
  141.5570   71.1581  228.3072 H   0  0  0  0  0  0  0  0  0  0  0  0
  141.2868   72.6779  226.3779 H   0  0  0  0  0  0  0  0  0  0  0  0
  1  2  2  0
  2  3  1  0
  3  4  1  0
  4  5  1  0
  5  6  2  0
  5  7  1  0
  7  8  1  0
  8  9  1  0
  9 10  1  0
  9 11  1  0
 11 12  1  0
 12 13  1  0
 13 14  1  0
 14 15  1  0
 15 16  1  0
 16 17  1  0
  2 18  1  0
 18 19  2  0
 19 20  1  0
 20 21  2  0
 21 22  1  0
 22 23  2  0
 23 24  1  0
 23 25  1  0
 25 26  2  0
 26 27  1  0
 27 28  2  0
 12  7  1  0
 17 13  1  0
 28 18  1  0
 27 21  1  0
  3 29  1  0
  4 30  1  0
  4 31  1  0
  8 32  1  0
  8 33  1  0
  9 34  1  6
 10 35  1  0
 11 36  1  0
 11 37  1  0
 12 38  1  6
 13 39  1  0
 14 40  1  0
 14 41  1  0
 15 42  1  0
 15 43  1  0
 16 44  1  0
 16 45  1  0
 17 46  1  0
 17 47  1  0
 19 48  1  0
 20 49  1  0
 22 50  1  0
 25 51  1  0
 26 52  1  0
M  END
>  <smiles>  (9) 
O=C(NCC(=O)N1C[C@H](O)C[C@@H]1C1CCCC1)c1ccc2cc(Cl)ccc2n1

>  <score_type>  (9) 
oracle

>  <origin>  (9) 
autodockgpu

>  <m_score__min__energy>  (9) 
-8.4199999999999999

>  <m_primary>  (9) 
energy

>  <rmsd>  (9) 
1.7784712403798162

>  <m_score__min__rmsd>  (9) 
1.7784712403798162

>  <meeko>  (9) 
{"free_energy": -8.05, "intermolecular_energy": -9.84, "internal_energy": -2.03, "cluster_size": 14, "cluster_id": 1, "rank_in_cluster": 6}

>  <energy>  (9) 
-7.99

>  <cluster_rmsd>  (9) 
1.94

>  <cluster>  (9) 
1

$$$$

     RDKit          3D

 52 55  0  0  0  0  0  0  0  0999 V2000
  134.6300   68.4650  225.3380 O   0  0  0  0  0  0  0  0  0  0  0  0
  135.0810   69.6250  225.1760 C   0  0  0  0  0  0  0  0  0  0  0  0
  136.2730   69.9390  224.5000 N   0  0  0  0  0  0  0  0  0  0  0  0
  137.1110   68.9130  223.9130 C   0  0  0  0  0  0  0  0  0  0  0  0
  138.4270   68.9630  224.6450 C   0  0  0  0  0  0  0  0  0  0  0  0
  138.8400   67.8530  225.0550 O   0  0  0  0  0  0  0  0  0  0  0  0
  139.0490   70.2050  224.7950 N   0  0  0  0  0  0  0  0  0  0  0  0
  138.9040   71.3270  223.8090 C   0  0  0  0  0  0  0  0  0  0  0  0
  140.3270   71.8100  223.6200 C   0  0  2  0  0  0  0  0  0  0  0  0
  140.7790   71.3310  222.4060 O   0  0  0  0  0  0  0  0  0  0  0  0
  141.0680   71.2200  224.8080 C   0  0  0  0  0  0  0  0  0  0  0  0
  139.9470   70.8160  225.7400 C   0  0  2  0  0  0  0  0  0  0  0  0
  140.3570   69.9790  226.8570 C   0  0  0  0  0  0  0  0  0  0  0  0
  141.0410   68.6860  226.4980 C   0  0  0  0  0  0  0  0  0  0  0  0
  141.2200   68.0870  227.9040 C   0  0  0  0  0  0  0  0  0  0  0  0
  140.0120   68.5880  228.6910 C   0  0  0  0  0  0  0  0  0  0  0  0
  139.2130   69.4550  227.7080 C   0  0  0  0  0  0  0  0  0  0  0  0
  134.2960   70.7400  225.7370 C   0  0  0  0  0  0  0  0  0  0  0  0
  133.1860   70.5230  226.5320 C   0  0  0  0  0  0  0  0  0  0  0  0
  132.4330   71.5420  227.0710 C   0  0  0  0  0  0  0  0  0  0  0  0
  132.7900   72.8500  226.8140 C   0  0  0  0  0  0  0  0  0  0  0  0
  132.0810   73.9090  227.3220 C   0  0  0  0  0  0  0  0  0  0  0  0
  132.4790   75.2060  227.0350 C   0  0  0  0  0  0  0  0  0  0  0  0
  131.5570   76.5240  227.6950 Cl  0  0  0  0  0  0  0  0  0  0  0  0
  133.5910   75.3750  226.2390 C   0  0  0  0  0  0  0  0  0  0  0  0
  134.3180   74.3250  225.7180 C   0  0  0  0  0  0  0  0  0  0  0  0
  133.8990   73.0470  226.0200 C   0  0  0  0  0  0  0  0  0  0  0  0
  134.6220   72.0280  225.5020 N   0  0  0  0  0  0  0  0  0  0  0  0
  136.5780   70.9320  224.4110 H   0  0  0  0  0  0  0  0  0  0  0  0
  136.6446   67.9246  224.0373 H   0  0  0  0  0  0  0  0  0  0  0  0
  137.2494   69.0819  222.8349 H   0  0  0  0  0  0  0  0  0  0  0  0
  138.4811   70.9656  222.8600 H   0  0  0  0  0  0  0  0  0  0  0  0
  138.2228   72.1186  224.1544 H   0  0  0  0  0  0  0  0  0  0  0  0
  140.4561   72.9020  223.5913 H   0  0  0  0  0  0  0  0  0  0  0  0
  141.7220   71.5640  222.2100 H   0  0  0  0  0  0  0  0  0  0  0  0
  141.6663   70.3473  224.5073 H   0  0  0  0  0  0  0  0  0  0  0  0
  141.7818   71.9206  225.2658 H   0  0  0  0  0  0  0  0  0  0  0  0
  139.4968   71.6425  226.3093 H   0  0  0  0  0  0  0  0  0  0  0  0
  141.0192   70.6951  227.3655 H   0  0  0  0  0  0  0  0  0  0  0  0
  140.4081   68.0514  225.8603 H   0  0  0  0  0  0  0  0  0  0  0  0
  141.9684   68.7954  225.9167 H   0  0  0  0  0  0  0  0  0  0  0  0
  141.2266   66.9879  227.8602 H   0  0  0  0  0  0  0  0  0  0  0  0
  142.1726   68.3845  228.3666 H   0  0  0  0  0  0  0  0  0  0  0  0
  139.4025   67.7414  229.0400 H   0  0  0  0  0  0  0  0  0  0  0  0
  140.3134   69.1555  229.5838 H   0  0  0  0  0  0  0  0  0  0  0  0
  138.5014   68.8585  227.1182 H   0  0  0  0  0  0  0  0  0  0  0  0
  138.5788   70.2262  228.1695 H   0  0  0  0  0  0  0  0  0  0  0  0
  132.8898   69.4852  226.7444 H   0  0  0  0  0  0  0  0  0  0  0  0
  131.5581   71.3163  227.6984 H   0  0  0  0  0  0  0  0  0  0  0  0
  131.1995   73.7298  227.9551 H   0  0  0  0  0  0  0  0  0  0  0  0
  133.9156   76.4001  226.0071 H   0  0  0  0  0  0  0  0  0  0  0  0
  135.1999   74.5010  225.0846 H   0  0  0  0  0  0  0  0  0  0  0  0
  1  2  2  0
  2  3  1  0
  3  4  1  0
  4  5  1  0
  5  6  2  0
  5  7  1  0
  7  8  1  0
  8  9  1  0
  9 10  1  0
  9 11  1  0
 11 12  1  0
 12 13  1  0
 13 14  1  0
 14 15  1  0
 15 16  1  0
 16 17  1  0
  2 18  1  0
 18 19  2  0
 19 20  1  0
 20 21  2  0
 21 22  1  0
 22 23  2  0
 23 24  1  0
 23 25  1  0
 25 26  2  0
 26 27  1  0
 27 28  2  0
 12  7  1  0
 17 13  1  0
 28 18  1  0
 27 21  1  0
  3 29  1  0
  4 30  1  0
  4 31  1  0
  8 32  1  0
  8 33  1  0
  9 34  1  6
 10 35  1  0
 11 36  1  0
 11 37  1  0
 12 38  1  1
 13 39  1  0
 14 40  1  0
 14 41  1  0
 15 42  1  0
 15 43  1  0
 16 44  1  0
 16 45  1  0
 17 46  1  0
 17 47  1  0
 19 48  1  0
 20 49  1  0
 22 50  1  0
 25 51  1  0
 26 52  1  0
M  END
>  <smiles>  (10) 
O=C(NCC(=O)N1C[C@H](O)C[C@@H]1C1CCCC1)c1ccc2cc(Cl)ccc2n1

>  <score_type>  (10) 
oracle

>  <origin>  (10) 
autodockgpu

>  <m_score__min__energy>  (10) 
-8.4199999999999999

>  <m_primary>  (10) 
energy

>  <rmsd>  (10) 
7.533281934825922

>  <m_score__min__rmsd>  (10) 
7.533281934825922

>  <meeko>  (10) 
{"free_energy": -7.86, "intermolecular_energy": -9.65, "internal_energy": -1.62, "cluster_size": 13, "cluster_id": 2, "rank_in_cluster": 9}

>  <energy>  (10) 
-7.98

>  <cluster_rmsd>  (10) 
1.86

>  <cluster>  (10) 
1

$$$$

     RDKit          3D

 52 55  0  0  0  0  0  0  0  0999 V2000
  139.4140   79.6510  220.0640 O   0  0  0  0  0  0  0  0  0  0  0  0
  140.6220   79.3850  220.2830 C   0  0  0  0  0  0  0  0  0  0  0  0
  141.6440   80.3390  220.4200 N   0  0  0  0  0  0  0  0  0  0  0  0
  141.3820   81.7610  220.3180 C   0  0  0  0  0  0  0  0  0  0  0  0
  140.7710   82.1790  221.6300 C   0  0  0  0  0  0  0  0  0  0  0  0
  140.0820   83.2250  221.5770 O   0  0  0  0  0  0  0  0  0  0  0  0
  141.0170   81.3860  222.7530 N   0  0  0  0  0  0  0  0  0  0  0  0
  142.3920   81.1230  223.2950 C   0  0  0  0  0  0  0  0  0  0  0  0
  142.3910   79.6280  223.5360 C   0  0  2  0  0  0  0  0  0  0  0  0
  143.1100   79.0330  222.5170 O   0  0  0  0  0  0  0  0  0  0  0  0
  140.9170   79.2620  223.5180 C   0  0  0  0  0  0  0  0  0  0  0  0
  140.2330   80.6030  223.6720 C   0  0  2  0  0  0  0  0  0  0  0  0
  138.8000   80.5850  223.4260 C   0  0  0  0  0  0  0  0  0  0  0  0
  137.9210   80.8940  224.6090 C   0  0  0  0  0  0  0  0  0  0  0  0
  136.5380   80.6890  223.9680 C   0  0  0  0  0  0  0  0  0  0  0  0
  136.7540   79.5890  222.9330 C   0  0  0  0  0  0  0  0  0  0  0  0
  138.2440   79.2300  223.0200 C   0  0  0  0  0  0  0  0  0  0  0  0
  140.9890   77.9620  220.4050 C   0  0  0  0  0  0  0  0  0  0  0  0
  140.1160   77.0260  220.9270 C   0  0  0  0  0  0  0  0  0  0  0  0
  140.4290   75.6900  221.0530 C   0  0  0  0  0  0  0  0  0  0  0  0
  141.6720   75.2500  220.6440 C   0  0  0  0  0  0  0  0  0  0  0  0
  142.0430   73.9330  220.7440 C   0  0  0  0  0  0  0  0  0  0  0  0
  143.3040   73.5390  220.3200 C   0  0  0  0  0  0  0  0  0  0  0  0
  143.7430   71.8620  220.4620 Cl  0  0  0  0  0  0  0  0  0  0  0  0
  144.1400   74.5060  219.8070 C   0  0  0  0  0  0  0  0  0  0  0  0
  143.7870   75.8340  219.6980 C   0  0  0  0  0  0  0  0  0  0  0  0
  142.5290   76.1970  220.1280 C   0  0  0  0  0  0  0  0  0  0  0  0
  142.1960   77.5030  220.0140 N   0  0  0  0  0  0  0  0  0  0  0  0
  142.6250   80.0330  220.6000 H   0  0  0  0  0  0  0  0  0  0  0  0
  142.3200   82.3086  220.1441 H   0  0  0  0  0  0  0  0  0  0  0  0
  140.7080   81.9818  219.4772 H   0  0  0  0  0  0  0  0  0  0  0  0
  143.1642   81.4038  222.5637 H   0  0  0  0  0  0  0  0  0  0  0  0
  142.6163   81.7051  224.2010 H   0  0  0  0  0  0  0  0  0  0  0  0
  142.8567   79.3009  224.4773 H   0  0  0  0  0  0  0  0  0  0  0  0
  142.6140   78.3210  222.0410 H   0  0  0  0  0  0  0  0  0  0  0  0
  140.6398   78.7834  222.5672 H   0  0  0  0  0  0  0  0  0  0  0  0
  140.6393   78.5406  224.3006 H   0  0  0  0  0  0  0  0  0  0  0  0
  140.2205   81.0026  224.6968 H   0  0  0  0  0  0  0  0  0  0  0  0
  138.7589   81.3544  222.6409 H   0  0  0  0  0  0  0  0  0  0  0  0
  138.0940   80.1953  225.4408 H   0  0  0  0  0  0  0  0  0  0  0  0
  138.0817   81.8833  225.0623 H   0  0  0  0  0  0  0  0  0  0  0  0
  135.8028   80.3733  224.7229 H   0  0  0  0  0  0  0  0  0  0  0  0
  136.1445   81.6131  223.5194 H   0  0  0  0  0  0  0  0  0  0  0  0
  136.1330   78.7122  223.1687 H   0  0  0  0  0  0  0  0  0  0  0  0
  136.4724   79.9191  221.9222 H   0  0  0  0  0  0  0  0  0  0  0  0
  138.4378   78.4609  223.7822 H   0  0  0  0  0  0  0  0  0  0  0  0
  138.6778   78.7987  222.1058 H   0  0  0  0  0  0  0  0  0  0  0  0
  139.1230   77.3642  221.2580 H   0  0  0  0  0  0  0  0  0  0  0  0
  139.6983   74.9836  221.4738 H   0  0  0  0  0  0  0  0  0  0  0  0
  141.3435   73.1923  221.1587 H   0  0  0  0  0  0  0  0  0  0  0  0
  145.1411   74.2028  219.4667 H   0  0  0  0  0  0  0  0  0  0  0  0
  144.4840   76.5769  219.2829 H   0  0  0  0  0  0  0  0  0  0  0  0
  1  2  2  0
  2  3  1  0
  3  4  1  0
  4  5  1  0
  5  6  2  0
  5  7  1  0
  7  8  1  0
  8  9  1  0
  9 10  1  0
  9 11  1  0
 11 12  1  0
 12 13  1  0
 13 14  1  0
 14 15  1  0
 15 16  1  0
 16 17  1  0
  2 18  1  0
 18 19  2  0
 19 20  1  0
 20 21  2  0
 21 22  1  0
 22 23  2  0
 23 24  1  0
 23 25  1  0
 25 26  2  0
 26 27  1  0
 27 28  2  0
 12  7  1  0
 17 13  1  0
 28 18  1  0
 27 21  1  0
  3 29  1  0
  4 30  1  0
  4 31  1  0
  8 32  1  0
  8 33  1  0
  9 34  1  1
 10 35  1  0
 11 36  1  0
 11 37  1  0
 12 38  1  1
 13 39  1  0
 14 40  1  0
 14 41  1  0
 15 42  1  0
 15 43  1  0
 16 44  1  0
 16 45  1  0
 17 46  1  0
 17 47  1  0
 19 48  1  0
 20 49  1  0
 22 50  1  0
 25 51  1  0
 26 52  1  0
M  END
>  <smiles>  (11) 
O=C(NCC(=O)N1C[C@H](O)C[C@@H]1C1CCCC1)c1ccc2cc(Cl)ccc2n1

>  <score_type>  (11) 
oracle

>  <origin>  (11) 
autodockgpu

>  <m_score__min__energy>  (11) 
-8.4199999999999999

>  <m_primary>  (11) 
energy

>  <rmsd>  (11) 
8.144919958735862

>  <m_score__min__rmsd>  (11) 
8.144919958735862

>  <meeko>  (11) 
{"free_energy": -6.41, "intermolecular_energy": -8.2, "internal_energy": -3.75, "cluster_size": 15, "cluster_id": 6, "rank_in_cluster": 5}

>  <energy>  (11) 
-7.98

>  <cluster_rmsd>  (11) 
1.86

>  <cluster>  (11) 
1

$$$$

     RDKit          3D

 52 55  0  0  0  0  0  0  0  0999 V2000
  139.8940   71.9760  220.5720 O   0  0  0  0  0  0  0  0  0  0  0  0
  139.7960   72.4850  221.7150 C   0  0  0  0  0  0  0  0  0  0  0  0
  139.6120   73.8550  221.9730 N   0  0  0  0  0  0  0  0  0  0  0  0
  139.5160   74.8280  220.9040 C   0  0  0  0  0  0  0  0  0  0  0  0
  139.9280   76.1530  221.4910 C   0  0  0  0  0  0  0  0  0  0  0  0
  139.9800   76.1760  222.7430 O   0  0  0  0  0  0  0  0  0  0  0  0
  140.2060   77.2030  220.6140 N   0  0  0  0  0  0  0  0  0  0  0  0
  139.7930   77.2080  219.1710 C   0  0  0  0  0  0  0  0  0  0  0  0
  141.0470   77.6610  218.4520 C   0  0  2  0  0  0  0  0  0  0  0  0
  141.6280   76.5500  217.8710 O   0  0  0  0  0  0  0  0  0  0  0  0
  141.8950   78.2690  219.5550 C   0  0  0  0  0  0  0  0  0  0  0  0
  140.9000   78.4620  220.6790 C   0  0  2  0  0  0  0  0  0  0  0  0
  141.4940   78.7930  221.9660 C   0  0  0  0  0  0  0  0  0  0  0  0
  140.5310   79.0010  223.1040 C   0  0  0  0  0  0  0  0  0  0  0  0
  141.5190   79.4040  224.2120 C   0  0  0  0  0  0  0  0  0  0  0  0
  142.6350   80.1440  223.4790 C   0  0  0  0  0  0  0  0  0  0  0  0
  142.2410   80.1150  221.9960 C   0  0  0  0  0  0  0  0  0  0  0  0
  139.8790   71.5740  222.8710 C   0  0  0  0  0  0  0  0  0  0  0  0
  139.4490   70.2620  222.7980 C   0  0  0  0  0  0  0  0  0  0  0  0
  139.5140   69.3860  223.8590 C   0  0  0  0  0  0  0  0  0  0  0  0
  140.0310   69.8250  225.0620 C   0  0  0  0  0  0  0  0  0  0  0  0
  140.1220   69.0020  226.1550 C   0  0  0  0  0  0  0  0  0  0  0  0
  140.6490   69.4890  227.3420 C   0  0  0  0  0  0  0  0  0  0  0  0
  140.7500   68.4180  228.7090 Cl  0  0  0  0  0  0  0  0  0  0  0  0
  141.0650   70.8020  227.3690 C   0  0  0  0  0  0  0  0  0  0  0  0
  140.9820   71.6460  226.2820 C   0  0  0  0  0  0  0  0  0  0  0  0
  140.4540   71.1350  225.1160 C   0  0  0  0  0  0  0  0  0  0  0  0
  140.3800   71.9750  224.0590 N   0  0  0  0  0  0  0  0  0  0  0  0
  139.5420   74.1970  222.9560 H   0  0  0  0  0  0  0  0  0  0  0  0
  140.1889   74.5528  220.0785 H   0  0  0  0  0  0  0  0  0  0  0  0
  138.4943   74.8736  220.4991 H   0  0  0  0  0  0  0  0  0  0  0  0
  139.4925   76.2018  218.8435 H   0  0  0  0  0  0  0  0  0  0  0  0
  138.9256   77.8550  218.9734 H   0  0  0  0  0  0  0  0  0  0  0  0
  140.8903   78.3894  217.6427 H   0  0  0  0  0  0  0  0  0  0  0  0
  142.0440   76.7310  216.9900 H   0  0  0  0  0  0  0  0  0  0  0  0
  142.7033   77.5858  219.8549 H   0  0  0  0  0  0  0  0  0  0  0  0
  142.3964   79.2006  219.2539 H   0  0  0  0  0  0  0  0  0  0  0  0
  140.2418   79.3366  220.5703 H   0  0  0  0  0  0  0  0  0  0  0  0
  142.1278   77.9025  222.0895 H   0  0  0  0  0  0  0  0  0  0  0  0
  139.8093   79.8025  222.8880 H   0  0  0  0  0  0  0  0  0  0  0  0
  139.8951   78.1350  223.3398 H   0  0  0  0  0  0  0  0  0  0  0  0
  141.0323   80.0631  224.9460 H   0  0  0  0  0  0  0  0  0  0  0  0
  141.8925   78.5360  224.7751 H   0  0  0  0  0  0  0  0  0  0  0  0
  142.7081   81.1815  223.8371 H   0  0  0  0  0  0  0  0  0  0  0  0
  143.6157   79.6761  223.6499 H   0  0  0  0  0  0  0  0  0  0  0  0
  141.5911   80.9606  221.7266 H   0  0  0  0  0  0  0  0  0  0  0  0
  143.0769   80.1988  221.2859 H   0  0  0  0  0  0  0  0  0  0  0  0
  139.0345   69.8999  221.8456 H   0  0  0  0  0  0  0  0  0  0  0  0
  139.1589   68.3507  223.7496 H   0  0  0  0  0  0  0  0  0  0  0  0
  139.7782   67.9591  226.0907 H   0  0  0  0  0  0  0  0  0  0  0  0
  141.4849   71.1972  228.3057 H   0  0  0  0  0  0  0  0  0  0  0  0
  141.3248   72.6894  226.3431 H   0  0  0  0  0  0  0  0  0  0  0  0
  1  2  2  0
  2  3  1  0
  3  4  1  0
  4  5  1  0
  5  6  2  0
  5  7  1  0
  7  8  1  0
  8  9  1  0
  9 10  1  0
  9 11  1  0
 11 12  1  0
 12 13  1  0
 13 14  1  0
 14 15  1  0
 15 16  1  0
 16 17  1  0
  2 18  1  0
 18 19  2  0
 19 20  1  0
 20 21  2  0
 21 22  1  0
 22 23  2  0
 23 24  1  0
 23 25  1  0
 25 26  2  0
 26 27  1  0
 27 28  2  0
 12  7  1  0
 17 13  1  0
 28 18  1  0
 27 21  1  0
  3 29  1  0
  4 30  1  0
  4 31  1  0
  8 32  1  0
  8 33  1  0
  9 34  1  6
 10 35  1  0
 11 36  1  0
 11 37  1  0
 12 38  1  6
 13 39  1  0
 14 40  1  0
 14 41  1  0
 15 42  1  0
 15 43  1  0
 16 44  1  0
 16 45  1  0
 17 46  1  0
 17 47  1  0
 19 48  1  0
 20 49  1  0
 22 50  1  0
 25 51  1  0
 26 52  1  0
M  END
>  <smiles>  (12) 
O=C(NCC(=O)N1C[C@H](O)C[C@@H]1C1CCCC1)c1ccc2cc(Cl)ccc2n1

>  <score_type>  (12) 
oracle

>  <origin>  (12) 
autodockgpu

>  <m_score__min__energy>  (12) 
-8.4199999999999999

>  <m_primary>  (12) 
energy

>  <rmsd>  (12) 
1.7452834637269772

>  <m_score__min__rmsd>  (12) 
1.7452834637269772

>  <meeko>  (12) 
{"free_energy": -7.98, "intermolecular_energy": -9.77, "internal_energy": -1.95, "cluster_size": 14, "cluster_id": 1, "rank_in_cluster": 10}

>  <energy>  (12) 
-7.95

>  <cluster_rmsd>  (12) 
1.84

>  <cluster>  (12) 
1

$$$$

     RDKit          3D

 52 55  0  0  0  0  0  0  0  0999 V2000
  139.9890   72.1080  220.5780 O   0  0  0  0  0  0  0  0  0  0  0  0
  139.8000   72.5780  221.7280 C   0  0  0  0  0  0  0  0  0  0  0  0
  139.5280   73.9280  222.0100 N   0  0  0  0  0  0  0  0  0  0  0  0
  139.4390   74.9260  220.9640 C   0  0  0  0  0  0  0  0  0  0  0  0
  140.1100   76.1650  221.4940 C   0  0  0  0  0  0  0  0  0  0  0  0
  140.3660   76.1370  222.7210 O   0  0  0  0  0  0  0  0  0  0  0  0
  140.3800   77.2020  220.5980 N   0  0  0  0  0  0  0  0  0  0  0  0
  140.7380   76.9780  219.1570 C   0  0  0  0  0  0  0  0  0  0  0  0
  141.9270   77.8930  218.9480 C   0  0  2  0  0  0  0  0  0  0  0  0
  143.0660   77.1130  218.9410 O   0  0  0  0  0  0  0  0  0  0  0  0
  141.8620   78.8430  220.1320 C   0  0  0  0  0  0  0  0  0  0  0  0
  140.4570   78.6380  220.6550 C   0  0  2  0  0  0  0  0  0  0  0  0
  140.1990   79.2360  221.9560 C   0  0  0  0  0  0  0  0  0  0  0  0
  139.0820   80.2430  222.0110 C   0  0  0  0  0  0  0  0  0  0  0  0
  139.1960   80.6800  223.4820 C   0  0  0  0  0  0  0  0  0  0  0  0
  140.6860   80.5720  223.7980 C   0  0  0  0  0  0  0  0  0  0  0  0
  141.3440   80.0680  222.5070 C   0  0  0  0  0  0  0  0  0  0  0  0
  139.8690   71.6390  222.8620 C   0  0  0  0  0  0  0  0  0  0  0  0
  139.3960   70.3430  222.7650 C   0  0  0  0  0  0  0  0  0  0  0  0
  139.4470   69.4420  223.8060 C   0  0  0  0  0  0  0  0  0  0  0  0
  139.9910   69.8370  225.0110 C   0  0  0  0  0  0  0  0  0  0  0  0
  140.0690   68.9860  226.0840 C   0  0  0  0  0  0  0  0  0  0  0  0
  140.6250   69.4300  227.2750 C   0  0  0  0  0  0  0  0  0  0  0  0
  140.7090   68.3260  228.6160 Cl  0  0  0  0  0  0  0  0  0  0  0  0
  141.0820   70.7290  227.3260 C   0  0  0  0  0  0  0  0  0  0  0  0
  141.0130   71.6000  226.2590 C   0  0  0  0  0  0  0  0  0  0  0  0
  140.4560   71.1320  225.0890 C   0  0  0  0  0  0  0  0  0  0  0  0
  140.3950   71.9970  224.0510 N   0  0  0  0  0  0  0  0  0  0  0  0
  139.3850   74.2370  222.9960 H   0  0  0  0  0  0  0  0  0  0  0  0
  139.9539   74.5734  220.0581 H   0  0  0  0  0  0  0  0  0  0  0  0
  138.3914   75.1263  220.6947 H   0  0  0  0  0  0  0  0  0  0  0  0
  141.0123   75.9280  218.9776 H   0  0  0  0  0  0  0  0  0  0  0  0
  139.9062   77.1885  218.4687 H   0  0  0  0  0  0  0  0  0  0  0  0
  141.9297   78.4563  218.0032 H   0  0  0  0  0  0  0  0  0  0  0  0
  143.9030   77.6260  219.0700 H   0  0  0  0  0  0  0  0  0  0  0  0
  142.6101   78.5777  220.8935 H   0  0  0  0  0  0  0  0  0  0  0  0
  142.0764   79.8877  219.8623 H   0  0  0  0  0  0  0  0  0  0  0  0
  139.6694   79.1474  220.0804 H   0  0  0  0  0  0  0  0  0  0  0  0
  139.9835   78.3168  222.5204 H   0  0  0  0  0  0  0  0  0  0  0  0
  139.2532   81.0820  221.3205 H   0  0  0  0  0  0  0  0  0  0  0  0
  138.0946   79.8594  221.7147 H   0  0  0  0  0  0  0  0  0  0  0  0
  138.8456   81.7150  223.6085 H   0  0  0  0  0  0  0  0  0  0  0  0
  138.5803   80.0612  224.1513 H   0  0  0  0  0  0  0  0  0  0  0  0
  141.0918   81.5554  224.0776 H   0  0  0  0  0  0  0  0  0  0  0  0
  140.8755   79.8946  224.6437 H   0  0  0  0  0  0  0  0  0  0  0  0
  141.6131   80.8946  221.8329 H   0  0  0  0  0  0  0  0  0  0  0  0
  142.2935   79.5294  222.6427 H   0  0  0  0  0  0  0  0  0  0  0  0
  138.9579   70.0158  221.8105 H   0  0  0  0  0  0  0  0  0  0  0  0
  139.0590   68.4207  223.6782 H   0  0  0  0  0  0  0  0  0  0  0  0
  139.6923   67.9559  226.0005 H   0  0  0  0  0  0  0  0  0  0  0  0
  141.5246   71.0898  228.2662 H   0  0  0  0  0  0  0  0  0  0  0  0
  141.3889   72.6307  226.3391 H   0  0  0  0  0  0  0  0  0  0  0  0
  1  2  2  0
  2  3  1  0
  3  4  1  0
  4  5  1  0
  5  6  2  0
  5  7  1  0
  7  8  1  0
  8  9  1  0
  9 10  1  0
  9 11  1  0
 11 12  1  0
 12 13  1  0
 13 14  1  0
 14 15  1  0
 15 16  1  0
 16 17  1  0
  2 18  1  0
 18 19  2  0
 19 20  1  0
 20 21  2  0
 21 22  1  0
 22 23  2  0
 23 24  1  0
 23 25  1  0
 25 26  2  0
 26 27  1  0
 27 28  2  0
 12  7  1  0
 17 13  1  0
 28 18  1  0
 27 21  1  0
  3 29  1  0
  4 30  1  0
  4 31  1  0
  8 32  1  0
  8 33  1  0
  9 34  1  6
 10 35  1  0
 11 36  1  0
 11 37  1  0
 12 38  1  6
 13 39  1  0
 14 40  1  0
 14 41  1  0
 15 42  1  0
 15 43  1  0
 16 44  1  0
 16 45  1  0
 17 46  1  0
 17 47  1  0
 19 48  1  0
 20 49  1  0
 22 50  1  0
 25 51  1  0
 26 52  1  0
M  END
>  <smiles>  (13) 
O=C(NCC(=O)N1C[C@H](O)C[C@@H]1C1CCCC1)c1ccc2cc(Cl)ccc2n1

>  <score_type>  (13) 
oracle

>  <origin>  (13) 
autodockgpu

>  <m_score__min__energy>  (13) 
-8.4199999999999999

>  <m_primary>  (13) 
energy

>  <rmsd>  (13) 
1.9253197032022225

>  <m_score__min__rmsd>  (13) 
1.9253197032022225

>  <meeko>  (13) 
{"free_energy": -8.01, "intermolecular_energy": -9.8, "internal_energy": -1.95, "cluster_size": 14, "cluster_id": 1, "rank_in_cluster": 8}

>  <energy>  (13) 
-7.75

>  <cluster_rmsd>  (13) 
1.78

>  <cluster>  (13) 
1

$$$$

     RDKit          3D

 52 55  0  0  0  0  0  0  0  0999 V2000
  139.3860   79.5780  220.0570 O   0  0  0  0  0  0  0  0  0  0  0  0
  140.5960   79.3310  220.2830 C   0  0  0  0  0  0  0  0  0  0  0  0
  141.6060   80.3000  220.4110 N   0  0  0  0  0  0  0  0  0  0  0  0
  141.3250   81.7170  220.2900 C   0  0  0  0  0  0  0  0  0  0  0  0
  140.8440   82.1760  221.6420 C   0  0  0  0  0  0  0  0  0  0  0  0
  140.2390   83.2740  221.6370 O   0  0  0  0  0  0  0  0  0  0  0  0
  141.1070   81.3600  222.7450 N   0  0  0  0  0  0  0  0  0  0  0  0
  142.4880   81.0980  223.2700 C   0  0  0  0  0  0  0  0  0  0  0  0
  142.5010   79.5970  223.4780 C   0  0  2  0  0  0  0  0  0  0  0  0
  143.2170   79.0310  222.4410 O   0  0  0  0  0  0  0  0  0  0  0  0
  141.0300   79.2190  223.4640 C   0  0  0  0  0  0  0  0  0  0  0  0
  140.3360   80.5510  223.6520 C   0  0  2  0  0  0  0  0  0  0  0  0
  138.9010   80.5270  223.4170 C   0  0  0  0  0  0  0  0  0  0  0  0
  138.0310   80.8620  224.6000 C   0  0  0  0  0  0  0  0  0  0  0  0
  136.6430   80.6420  223.9740 C   0  0  0  0  0  0  0  0  0  0  0  0
  136.8530   79.5180  222.9630 C   0  0  0  0  0  0  0  0  0  0  0  0
  138.3430   79.1630  223.0470 C   0  0  0  0  0  0  0  0  0  0  0  0
  140.9820   77.9150  220.4250 C   0  0  0  0  0  0  0  0  0  0  0  0
  140.1290   76.9790  220.9820 C   0  0  0  0  0  0  0  0  0  0  0  0
  140.4600   75.6500  221.1270 C   0  0  0  0  0  0  0  0  0  0  0  0
  141.7000   75.2150  220.7030 C   0  0  0  0  0  0  0  0  0  0  0  0
  142.0870   73.9050  220.8210 C   0  0  0  0  0  0  0  0  0  0  0  0
  143.3440   73.5160  220.3800 C   0  0  0  0  0  0  0  0  0  0  0  0
  143.8040   71.8470  220.5450 Cl  0  0  0  0  0  0  0  0  0  0  0  0
  144.1600   74.4820  219.8330 C   0  0  0  0  0  0  0  0  0  0  0  0
  143.7890   75.8040  219.7050 C   0  0  0  0  0  0  0  0  0  0  0  0
  142.5350   76.1620  220.1520 C   0  0  0  0  0  0  0  0  0  0  0  0
  142.1860   77.4620  220.0200 N   0  0  0  0  0  0  0  0  0  0  0  0
  142.5900   80.0090  220.5980 H   0  0  0  0  0  0  0  0  0  0  0  0
  142.2373   82.2622  220.0062 H   0  0  0  0  0  0  0  0  0  0  0  0
  140.5691   81.9072  219.5138 H   0  0  0  0  0  0  0  0  0  0  0  0
  143.2519   81.4015  222.5390 H   0  0  0  0  0  0  0  0  0  0  0  0
  142.7151   81.6623  224.1865 H   0  0  0  0  0  0  0  0  0  0  0  0
  142.9767   79.2529  224.4082 H   0  0  0  0  0  0  0  0  0  0  0  0
  142.7390   78.2950  221.9810 H   0  0  0  0  0  0  0  0  0  0  0  0
  140.7490   78.7583  222.5055 H   0  0  0  0  0  0  0  0  0  0  0  0
  140.7646   78.4789  224.2333 H   0  0  0  0  0  0  0  0  0  0  0  0
  140.3276   80.9282  224.6853 H   0  0  0  0  0  0  0  0  0  0  0  0
  138.8533   81.2782  222.6148 H   0  0  0  0  0  0  0  0  0  0  0  0
  138.2109   80.1821  225.4458 H   0  0  0  0  0  0  0  0  0  0  0  0
  138.1946   81.8611  225.0301 H   0  0  0  0  0  0  0  0  0  0  0  0
  135.9134   80.3435  224.7412 H   0  0  0  0  0  0  0  0  0  0  0  0
  136.2454   81.5553  223.5073 H   0  0  0  0  0  0  0  0  0  0  0  0
  136.2350   78.6462  223.2237 H   0  0  0  0  0  0  0  0  0  0  0  0
  136.5635   79.8242  221.9469 H   0  0  0  0  0  0  0  0  0  0  0  0
  138.5434   78.4120  223.8254 H   0  0  0  0  0  0  0  0  0  0  0  0
  138.7701   78.7111  222.1396 H   0  0  0  0  0  0  0  0  0  0  0  0
  139.1386   77.3123  221.3256 H   0  0  0  0  0  0  0  0  0  0  0  0
  139.7454   74.9439  221.5750 H   0  0  0  0  0  0  0  0  0  0  0  0
  141.4038   73.1652  221.2635 H   0  0  0  0  0  0  0  0  0  0  0  0
  145.1583   74.1835  219.4804 H   0  0  0  0  0  0  0  0  0  0  0  0
  144.4693   76.5463  219.2621 H   0  0  0  0  0  0  0  0  0  0  0  0
  1  2  2  0
  2  3  1  0
  3  4  1  0
  4  5  1  0
  5  6  2  0
  5  7  1  0
  7  8  1  0
  8  9  1  0
  9 10  1  0
  9 11  1  0
 11 12  1  0
 12 13  1  0
 13 14  1  0
 14 15  1  0
 15 16  1  0
 16 17  1  0
  2 18  1  0
 18 19  2  0
 19 20  1  0
 20 21  2  0
 21 22  1  0
 22 23  2  0
 23 24  1  0
 23 25  1  0
 25 26  2  0
 26 27  1  0
 27 28  2  0
 12  7  1  0
 17 13  1  0
 28 18  1  0
 27 21  1  0
  3 29  1  0
  4 30  1  0
  4 31  1  0
  8 32  1  0
  8 33  1  0
  9 34  1  1
 10 35  1  0
 11 36  1  0
 11 37  1  0
 12 38  1  1
 13 39  1  0
 14 40  1  0
 14 41  1  0
 15 42  1  0
 15 43  1  0
 16 44  1  0
 16 45  1  0
 17 46  1  0
 17 47  1  0
 19 48  1  0
 20 49  1  0
 22 50  1  0
 25 51  1  0
 26 52  1  0
M  END
>  <smiles>  (14) 
O=C(NCC(=O)N1C[C@H](O)C[C@@H]1C1CCCC1)c1ccc2cc(Cl)ccc2n1

>  <score_type>  (14) 
oracle

>  <origin>  (14) 
autodockgpu

>  <m_score__min__energy>  (14) 
-8.4199999999999999

>  <m_primary>  (14) 
energy

>  <rmsd>  (14) 
8.10354403627686

>  <m_score__min__rmsd>  (14) 
8.10354403627686

>  <meeko>  (14) 
{"free_energy": -6.39, "intermolecular_energy": -8.18, "internal_energy": -3.81, "cluster_size": 15, "cluster_id": 6, "rank_in_cluster": 7}

>  <energy>  (14) 
-7.57

>  <cluster_rmsd>  (14) 
1.92

>  <cluster>  (14) 
1

$$$$

     RDKit          3D

 52 55  0  0  0  0  0  0  0  0999 V2000
  139.3710   79.5540  220.0830 O   0  0  0  0  0  0  0  0  0  0  0  0
  140.5830   79.3110  220.3060 C   0  0  0  0  0  0  0  0  0  0  0  0
  141.5890   80.2840  220.4300 N   0  0  0  0  0  0  0  0  0  0  0  0
  141.3030   81.6990  220.3100 C   0  0  0  0  0  0  0  0  0  0  0  0
  140.8540   82.1640  221.6710 C   0  0  0  0  0  0  0  0  0  0  0  0
  140.2720   83.2740  221.6790 O   0  0  0  0  0  0  0  0  0  0  0  0
  141.1170   81.3390  222.7670 N   0  0  0  0  0  0  0  0  0  0  0  0
  142.4980   81.0760  223.2910 C   0  0  0  0  0  0  0  0  0  0  0  0
  142.5160   79.5730  223.4860 C   0  0  2  0  0  0  0  0  0  0  0  0
  143.2340   79.0190  222.4450 O   0  0  0  0  0  0  0  0  0  0  0  0
  141.0460   79.1910  223.4660 C   0  0  0  0  0  0  0  0  0  0  0  0
  140.3480   80.5190  223.6650 C   0  0  2  0  0  0  0  0  0  0  0  0
  138.9130   80.4930  223.4280 C   0  0  0  0  0  0  0  0  0  0  0  0
  138.0420   80.8630  224.5990 C   0  0  0  0  0  0  0  0  0  0  0  0
  136.6540   80.6300  223.9770 C   0  0  0  0  0  0  0  0  0  0  0  0
  136.8630   79.4780  222.9970 C   0  0  0  0  0  0  0  0  0  0  0  0
  138.3520   79.1210  223.0950 C   0  0  0  0  0  0  0  0  0  0  0  0
  140.9740   77.8960  220.4470 C   0  0  0  0  0  0  0  0  0  0  0  0
  140.1220   76.9550  220.9930 C   0  0  0  0  0  0  0  0  0  0  0  0
  140.4570   75.6270  221.1380 C   0  0  0  0  0  0  0  0  0  0  0  0
  141.7030   75.1990  220.7230 C   0  0  0  0  0  0  0  0  0  0  0  0
  142.0950   73.8900  220.8400 C   0  0  0  0  0  0  0  0  0  0  0  0
  143.3570   73.5090  220.4080 C   0  0  0  0  0  0  0  0  0  0  0  0
  143.8240   71.8420  220.5720 Cl  0  0  0  0  0  0  0  0  0  0  0  0
  144.1730   74.4800  219.8700 C   0  0  0  0  0  0  0  0  0  0  0  0
  143.7970   75.8010  219.7430 C   0  0  0  0  0  0  0  0  0  0  0  0
  142.5380   76.1520  220.1810 C   0  0  0  0  0  0  0  0  0  0  0  0
  142.1840   77.4500  220.0490 N   0  0  0  0  0  0  0  0  0  0  0  0
  142.5750   79.9970  220.6150 H   0  0  0  0  0  0  0  0  0  0  0  0
  142.2073   82.2443  220.0018 H   0  0  0  0  0  0  0  0  0  0  0  0
  140.5280   81.8843  219.5517 H   0  0  0  0  0  0  0  0  0  0  0  0
  143.2617   81.3882  222.5635 H   0  0  0  0  0  0  0  0  0  0  0  0
  142.7220   81.6326  224.2130 H   0  0  0  0  0  0  0  0  0  0  0  0
  142.9919   79.2221  224.4136 H   0  0  0  0  0  0  0  0  0  0  0  0
  142.7710   78.2680  221.9940 H   0  0  0  0  0  0  0  0  0  0  0  0
  140.7679   78.7383  222.5028 H   0  0  0  0  0  0  0  0  0  0  0  0
  140.7815   78.4431  224.2280 H   0  0  0  0  0  0  0  0  0  0  0  0
  140.3376   80.8863  224.7018 H   0  0  0  0  0  0  0  0  0  0  0  0
  138.8689   81.2220  222.6055 H   0  0  0  0  0  0  0  0  0  0  0  0
  138.2183   80.2062  225.4636 H   0  0  0  0  0  0  0  0  0  0  0  0
  138.2079   81.8732  225.0014 H   0  0  0  0  0  0  0  0  0  0  0  0
  135.9224   80.3543  224.7508 H   0  0  0  0  0  0  0  0  0  0  0  0
  136.2593   81.5313  223.4852 H   0  0  0  0  0  0  0  0  0  0  0  0
  136.2415   78.6155  223.2795 H   0  0  0  0  0  0  0  0  0  0  0  0
  136.5770   79.7572  221.9722 H   0  0  0  0  0  0  0  0  0  0  0  0
  138.5480   78.3916  223.8947 H   0  0  0  0  0  0  0  0  0  0  0  0
  138.7802   78.6425  222.2018 H   0  0  0  0  0  0  0  0  0  0  0  0
  139.1270   77.2828  221.3284 H   0  0  0  0  0  0  0  0  0  0  0  0
  139.7418   74.9167  221.5784 H   0  0  0  0  0  0  0  0  0  0  0  0
  141.4117   73.1455  221.2745 H   0  0  0  0  0  0  0  0  0  0  0  0
  145.1752   74.1869  219.5242 H   0  0  0  0  0  0  0  0  0  0  0  0
  144.4775   76.5477  219.3078 H   0  0  0  0  0  0  0  0  0  0  0  0
  1  2  2  0
  2  3  1  0
  3  4  1  0
  4  5  1  0
  5  6  2  0
  5  7  1  0
  7  8  1  0
  8  9  1  0
  9 10  1  0
  9 11  1  0
 11 12  1  0
 12 13  1  0
 13 14  1  0
 14 15  1  0
 15 16  1  0
 16 17  1  0
  2 18  1  0
 18 19  2  0
 19 20  1  0
 20 21  2  0
 21 22  1  0
 22 23  2  0
 23 24  1  0
 23 25  1  0
 25 26  2  0
 26 27  1  0
 27 28  2  0
 12  7  1  0
 17 13  1  0
 28 18  1  0
 27 21  1  0
  3 29  1  0
  4 30  1  0
  4 31  1  0
  8 32  1  0
  8 33  1  0
  9 34  1  1
 10 35  1  0
 11 36  1  0
 11 37  1  0
 12 38  1  1
 13 39  1  0
 14 40  1  0
 14 41  1  0
 15 42  1  0
 15 43  1  0
 16 44  1  0
 16 45  1  0
 17 46  1  0
 17 47  1  0
 19 48  1  0
 20 49  1  0
 22 50  1  0
 25 51  1  0
 26 52  1  0
M  END
>  <smiles>  (15) 
O=C(NCC(=O)N1C[C@H](O)C[C@@H]1C1CCCC1)c1ccc2cc(Cl)ccc2n1

>  <score_type>  (15) 
oracle

>  <origin>  (15) 
autodockgpu

>  <m_score__min__energy>  (15) 
-8.4199999999999999

>  <m_primary>  (15) 
energy

>  <rmsd>  (15) 
8.08419704263716

>  <m_score__min__rmsd>  (15) 
8.08419704263716

>  <meeko>  (15) 
{"free_energy": -6.38, "intermolecular_energy": -8.17, "internal_energy": -3.82, "cluster_size": 15, "cluster_id": 6, "rank_in_cluster": 9}

>  <energy>  (15) 
-8.04

>  <cluster_rmsd>  (15) 
0.0

>  <cluster>  (15) 
2

$$$$

     RDKit          3D

 52 55  0  0  0  0  0  0  0  0999 V2000
  134.8040   68.4390  225.1640 O   0  0  0  0  0  0  0  0  0  0  0  0
  135.1610   69.6180  224.9190 C   0  0  0  0  0  0  0  0  0  0  0  0
  136.2170   69.9770  224.0640 N   0  0  0  0  0  0  0  0  0  0  0  0
  137.0100   68.9840  223.3680 C   0  0  0  0  0  0  0  0  0  0  0  0
  138.3360   68.9180  224.0790 C   0  0  0  0  0  0  0  0  0  0  0  0
  138.7880   67.7600  224.2380 O   0  0  0  0  0  0  0  0  0  0  0  0
  138.9250   70.1180  224.4830 N   0  0  0  0  0  0  0  0  0  0  0  0
  138.9050   71.3710  223.6560 C   0  0  0  0  0  0  0  0  0  0  0  0
  140.3380   71.8570  223.7270 C   0  0  2  0  0  0  0  0  0  0  0  0
  140.9490   71.5490  222.5270 O   0  0  0  0  0  0  0  0  0  0  0  0
  140.9180   71.0970  224.9060 C   0  0  0  0  0  0  0  0  0  0  0  0
  139.6860   70.5790  225.6150 C   0  0  2  0  0  0  0  0  0  0  0  0
  139.9500   69.5880  226.6470 C   0  0  0  0  0  0  0  0  0  0  0  0
  140.5010   70.1160  227.9450 C   0  0  0  0  0  0  0  0  0  0  0  0
  140.7140   68.7900  228.6970 C   0  0  0  0  0  0  0  0  0  0  0  0
  141.0650   67.7830  227.6040 C   0  0  0  0  0  0  0  0  0  0  0  0
  141.0220   68.5730  226.2900 C   0  0  0  0  0  0  0  0  0  0  0  0
  134.4120   70.7020  225.5800 C   0  0  0  0  0  0  0  0  0  0  0  0
  133.3880   70.4430  226.4710 C   0  0  0  0  0  0  0  0  0  0  0  0
  132.6710   71.4340  227.1050 C   0  0  0  0  0  0  0  0  0  0  0  0
  132.9770   72.7550  226.8470 C   0  0  0  0  0  0  0  0  0  0  0  0
  132.2990   73.7860  227.4460 C   0  0  0  0  0  0  0  0  0  0  0  0
  132.6430   75.0980  227.1550 C   0  0  0  0  0  0  0  0  0  0  0  0
  131.7640   76.3810  227.9310 Cl  0  0  0  0  0  0  0  0  0  0  0  0
  133.6700   75.3090  226.2610 C   0  0  0  0  0  0  0  0  0  0  0  0
  134.3640   74.2870  225.6470 C   0  0  0  0  0  0  0  0  0  0  0  0
  134.0000   72.9930  225.9550 C   0  0  0  0  0  0  0  0  0  0  0  0
  134.6900   72.0020  225.3470 N   0  0  0  0  0  0  0  0  0  0  0  0
  136.4510   70.9830  223.9150 H   0  0  0  0  0  0  0  0  0  0  0  0
  136.5101   68.0048  223.4051 H   0  0  0  0  0  0  0  0  0  0  0  0
  137.1402   69.2510  222.3089 H   0  0  0  0  0  0  0  0  0  0  0  0
  138.6134   71.1536  222.6179 H   0  0  0  0  0  0  0  0  0  0  0  0
  138.1794   72.1145  224.0177 H   0  0  0  0  0  0  0  0  0  0  0  0
  140.4641   72.9402  223.8710 H   0  0  0  0  0  0  0  0  0  0  0  0
  140.7030   70.6580  222.1710 H   0  0  0  0  0  0  0  0  0  0  0  0
  141.5569   70.2683  224.5667 H   0  0  0  0  0  0  0  0  0  0  0  0
  141.5599   71.7174  225.5488 H   0  0  0  0  0  0  0  0  0  0  0  0
  139.1587   71.3226  226.2306 H   0  0  0  0  0  0  0  0  0  0  0  0
  138.9353   69.1737  226.7408 H   0  0  0  0  0  0  0  0  0  0  0  0
  141.4461   70.6592  227.7975 H   0  0  0  0  0  0  0  0  0  0  0  0
  139.8594   70.8457  228.4606 H   0  0  0  0  0  0  0  0  0  0  0  0
  141.5374   68.8813  229.4206 H   0  0  0  0  0  0  0  0  0  0  0  0
  139.8271   68.4891  229.2740 H   0  0  0  0  0  0  0  0  0  0  0  0
  142.0704   67.3691  227.7710 H   0  0  0  0  0  0  0  0  0  0  0  0
  140.3666   66.9333  227.5924 H   0  0  0  0  0  0  0  0  0  0  0  0
  141.9859   69.0542  226.0681 H   0  0  0  0  0  0  0  0  0  0  0  0
  140.8210   67.9750  225.3889 H   0  0  0  0  0  0  0  0  0  0  0  0
  133.1329   69.3945  226.6845 H   0  0  0  0  0  0  0  0  0  0  0  0
  131.8651   71.1758  227.8077 H   0  0  0  0  0  0  0  0  0  0  0  0
  131.4852   73.5732  228.1548 H   0  0  0  0  0  0  0  0  0  0  0  0
  133.9510   76.3459  226.0247 H   0  0  0  0  0  0  0  0  0  0  0  0
  135.1781   74.4966  224.9376 H   0  0  0  0  0  0  0  0  0  0  0  0
  1  2  2  0
  2  3  1  0
  3  4  1  0
  4  5  1  0
  5  6  2  0
  5  7  1  0
  7  8  1  0
  8  9  1  0
  9 10  1  0
  9 11  1  0
 11 12  1  0
 12 13  1  0
 13 14  1  0
 14 15  1  0
 15 16  1  0
 16 17  1  0
  2 18  1  0
 18 19  2  0
 19 20  1  0
 20 21  2  0
 21 22  1  0
 22 23  2  0
 23 24  1  0
 23 25  1  0
 25 26  2  0
 26 27  1  0
 27 28  2  0
 12  7  1  0
 17 13  1  0
 28 18  1  0
 27 21  1  0
  3 29  1  0
  4 30  1  0
  4 31  1  0
  8 32  1  0
  8 33  1  0
  9 34  1  1
 10 35  1  0
 11 36  1  0
 11 37  1  0
 12 38  1  1
 13 39  1  0
 14 40  1  0
 14 41  1  0
 15 42  1  0
 15 43  1  0
 16 44  1  0
 16 45  1  0
 17 46  1  0
 17 47  1  0
 19 48  1  0
 20 49  1  0
 22 50  1  0
 25 51  1  0
 26 52  1  0
M  END
>  <smiles>  (16) 
O=C(NCC(=O)N1C[C@H](O)C[C@@H]1C1CCCC1)c1ccc2cc(Cl)ccc2n1

>  <score_type>  (16) 
oracle

>  <origin>  (16) 
autodockgpu

>  <m_score__min__energy>  (16) 
-8.4199999999999999

>  <m_primary>  (16) 
energy

>  <rmsd>  (16) 
7.442709507437403

>  <m_score__min__rmsd>  (16) 
7.442709507437403

>  <meeko>  (16) 
{"free_energy": -8.01, "intermolecular_energy": -9.8, "internal_energy": -1.77, "cluster_size": 13, "cluster_id": 2, "rank_in_cluster": 4}

>  <energy>  (16) 
-8.03

>  <cluster_rmsd>  (16) 
0.05

>  <cluster>  (16) 
2

$$$$

     RDKit          3D

 52 55  0  0  0  0  0  0  0  0999 V2000
  139.2650   71.9210  220.7100 O   0  0  0  0  0  0  0  0  0  0  0  0
  139.4220   72.4330  221.8460 C   0  0  0  0  0  0  0  0  0  0  0  0
  139.4580   73.8140  222.1080 N   0  0  0  0  0  0  0  0  0  0  0  0
  139.3120   74.7960  221.0530 C   0  0  0  0  0  0  0  0  0  0  0  0
  140.3960   75.8200  221.2670 C   0  0  0  0  0  0  0  0  0  0  0  0
  140.9570   75.7630  222.3870 O   0  0  0  0  0  0  0  0  0  0  0  0
  140.6710   76.7130  220.2290 N   0  0  0  0  0  0  0  0  0  0  0  0
  140.9120   76.2850  218.8100 C   0  0  0  0  0  0  0  0  0  0  0  0
  142.1420   77.0740  218.4130 C   0  0  2  0  0  0  0  0  0  0  0  0
  143.2230   76.2150  218.4370 O   0  0  0  0  0  0  0  0  0  0  0  0
  142.2230   78.1670  219.4640 C   0  0  0  0  0  0  0  0  0  0  0  0
  140.8470   78.1350  220.0930 C   0  0  2  0  0  0  0  0  0  0  0  0
  140.7220   78.9090  221.3190 C   0  0  0  0  0  0  0  0  0  0  0  0
  141.8000   78.6960  222.3490 C   0  0  0  0  0  0  0  0  0  0  0  0
  141.2640   79.5940  223.4770 C   0  0  0  0  0  0  0  0  0  0  0  0
  139.7460   79.5110  223.3450 C   0  0  0  0  0  0  0  0  0  0  0  0
  139.4890   78.5880  222.1470 C   0  0  0  0  0  0  0  0  0  0  0  0
  139.5790   71.5130  222.9870 C   0  0  0  0  0  0  0  0  0  0  0  0
  139.1270   70.2070  222.9380 C   0  0  0  0  0  0  0  0  0  0  0  0
  139.2590   69.3230  223.9860 C   0  0  0  0  0  0  0  0  0  0  0  0
  139.8680   69.7480  225.1500 C   0  0  0  0  0  0  0  0  0  0  0  0
  140.0290   68.9150  226.2290 C   0  0  0  0  0  0  0  0  0  0  0  0
  140.6470   69.3880  227.3770 C   0  0  0  0  0  0  0  0  0  0  0  0
  140.8340   68.3070  228.7260 Cl  0  0  0  0  0  0  0  0  0  0  0  0
  141.0800   70.6960  227.3810 C   0  0  0  0  0  0  0  0  0  0  0  0
  140.9290   71.5490  226.3080 C   0  0  0  0  0  0  0  0  0  0  0  0
  140.3100   71.0520  225.1810 C   0  0  0  0  0  0  0  0  0  0  0  0
  140.1690   71.9000  224.1370 N   0  0  0  0  0  0  0  0  0  0  0  0
  139.5950   74.1580  223.0830 H   0  0  0  0  0  0  0  0  0  0  0  0
  139.4304   74.3174  220.0697 H   0  0  0  0  0  0  0  0  0  0  0  0
  138.3155   75.2611  221.0784 H   0  0  0  0  0  0  0  0  0  0  0  0
  141.1019   75.2031  218.7515 H   0  0  0  0  0  0  0  0  0  0  0  0
  140.0503   76.4705  218.1519 H   0  0  0  0  0  0  0  0  0  0  0  0
  142.1172   77.5132  217.4048 H   0  0  0  0  0  0  0  0  0  0  0  0
  144.0860   76.6530  218.2230 H   0  0  0  0  0  0  0  0  0  0  0  0
  143.0029   77.9443  220.2071 H   0  0  0  0  0  0  0  0  0  0  0  0
  142.4874   79.1504  219.0481 H   0  0  0  0  0  0  0  0  0  0  0  0
  140.0568   78.6253  219.5054 H   0  0  0  0  0  0  0  0  0  0  0  0
  140.7332   79.9170  220.8787 H   0  0  0  0  0  0  0  0  0  0  0  0
  141.8661   77.6431  222.6605 H   0  0  0  0  0  0  0  0  0  0  0  0
  142.8200   78.9316  222.0111 H   0  0  0  0  0  0  0  0  0  0  0  0
  141.5896   79.2203  224.4590 H   0  0  0  0  0  0  0  0  0  0  0  0
  141.6341   80.6270  223.4000 H   0  0  0  0  0  0  0  0  0  0  0  0
  139.3032   79.0876  224.2586 H   0  0  0  0  0  0  0  0  0  0  0  0
  139.2940   80.5033  223.2002 H   0  0  0  0  0  0  0  0  0  0  0  0
  139.4572   77.5292  222.4434 H   0  0  0  0  0  0  0  0  0  0  0  0
  138.5271   78.7395  221.6353 H   0  0  0  0  0  0  0  0  0  0  0  0
  138.6381   69.8570  222.0169 H   0  0  0  0  0  0  0  0  0  0  0  0
  138.8844   68.2926  223.8968 H   0  0  0  0  0  0  0  0  0  0  0  0
  139.6693   67.8765  226.1834 H   0  0  0  0  0  0  0  0  0  0  0  0
  141.5717   71.0798  228.2871 H   0  0  0  0  0  0  0  0  0  0  0  0
  141.2892   72.5875  226.3499 H   0  0  0  0  0  0  0  0  0  0  0  0
  1  2  2  0
  2  3  1  0
  3  4  1  0
  4  5  1  0
  5  6  2  0
  5  7  1  0
  7  8  1  0
  8  9  1  0
  9 10  1  0
  9 11  1  0
 11 12  1  0
 12 13  1  0
 13 14  1  0
 14 15  1  0
 15 16  1  0
 16 17  1  0
  2 18  1  0
 18 19  2  0
 19 20  1  0
 20 21  2  0
 21 22  1  0
 22 23  2  0
 23 24  1  0
 23 25  1  0
 25 26  2  0
 26 27  1  0
 27 28  2  0
 12  7  1  0
 17 13  1  0
 28 18  1  0
 27 21  1  0
  3 29  1  0
  4 30  1  0
  4 31  1  0
  8 32  1  0
  8 33  1  0
  9 34  1  6
 10 35  1  0
 11 36  1  0
 11 37  1  0
 12 38  1  6
 13 39  1  0
 14 40  1  0
 14 41  1  0
 15 42  1  0
 15 43  1  0
 16 44  1  0
 16 45  1  0
 17 46  1  0
 17 47  1  0
 19 48  1  0
 20 49  1  0
 22 50  1  0
 25 51  1  0
 26 52  1  0
M  END
>  <smiles>  (17) 
O=C(NCC(=O)N1C[C@H](O)C[C@@H]1C1CCCC1)c1ccc2cc(Cl)ccc2n1

>  <score_type>  (17) 
oracle

>  <origin>  (17) 
autodockgpu

>  <m_score__min__energy>  (17) 
-8.4199999999999999

>  <m_primary>  (17) 
energy

>  <rmsd>  (17) 
1.5806225699904775

>  <m_score__min__rmsd>  (17) 
1.5806225699904775

>  <meeko>  (17) 
{"free_energy": -7.87, "intermolecular_energy": -9.66, "internal_energy": -1.99, "cluster_size": 4, "cluster_id": 3, "rank_in_cluster": 2}

>  <energy>  (17) 
-8.02

>  <cluster_rmsd>  (17) 
0.28

>  <cluster>  (17) 
2

$$$$

     RDKit          3D

 52 55  0  0  0  0  0  0  0  0999 V2000
  134.7340   68.4780  225.2030 O   0  0  0  0  0  0  0  0  0  0  0  0
  135.1340   69.6410  224.9510 C   0  0  0  0  0  0  0  0  0  0  0  0
  136.2100   69.9560  224.1030 N   0  0  0  0  0  0  0  0  0  0  0  0
  136.9730   68.9290  223.4230 C   0  0  0  0  0  0  0  0  0  0  0  0
  138.3310   68.9000  224.0750 C   0  0  0  0  0  0  0  0  0  0  0  0
  138.8340   67.7580  224.1870 O   0  0  0  0  0  0  0  0  0  0  0  0
  138.8900   70.1140  224.4830 N   0  0  0  0  0  0  0  0  0  0  0  0
  138.8500   71.3640  223.6530 C   0  0  0  0  0  0  0  0  0  0  0  0
  140.2710   71.8820  223.7360 C   0  0  2  0  0  0  0  0  0  0  0  0
  140.9010   71.5840  222.5430 O   0  0  0  0  0  0  0  0  0  0  0  0
  140.8570   71.1360  224.9220 C   0  0  0  0  0  0  0  0  0  0  0  0
  139.6300   70.5930  225.6210 C   0  0  2  0  0  0  0  0  0  0  0  0
  139.9060   69.6100  226.6570 C   0  0  0  0  0  0  0  0  0  0  0  0
  140.4540   70.1490  227.9520 C   0  0  0  0  0  0  0  0  0  0  0  0
  140.6820   68.8300  228.7090 C   0  0  0  0  0  0  0  0  0  0  0  0
  141.0410   67.8210  227.6210 C   0  0  0  0  0  0  0  0  0  0  0  0
  140.9870   68.6030  226.3020 C   0  0  0  0  0  0  0  0  0  0  0  0
  134.4190   70.7570  225.5960 C   0  0  0  0  0  0  0  0  0  0  0  0
  133.4260   70.5420  226.5340 C   0  0  0  0  0  0  0  0  0  0  0  0
  132.7400   71.5620  227.1540 C   0  0  0  0  0  0  0  0  0  0  0  0
  133.0460   72.8700  226.8340 C   0  0  0  0  0  0  0  0  0  0  0  0
  132.3990   73.9290  227.4170 C   0  0  0  0  0  0  0  0  0  0  0  0
  132.7420   75.2260  227.0620 C   0  0  0  0  0  0  0  0  0  0  0  0
  131.9010   76.5460  227.8190 Cl  0  0  0  0  0  0  0  0  0  0  0  0
  133.7360   75.3930  226.1230 C   0  0  0  0  0  0  0  0  0  0  0  0
  134.3990   74.3420  225.5250 C   0  0  0  0  0  0  0  0  0  0  0  0
  134.0370   73.0650  225.8970 C   0  0  0  0  0  0  0  0  0  0  0  0
  134.6970   72.0440  225.3030 N   0  0  0  0  0  0  0  0  0  0  0  0
  136.4810   70.9510  223.9490 H   0  0  0  0  0  0  0  0  0  0  0  0
  136.4781   67.9528  223.5330 H   0  0  0  0  0  0  0  0  0  0  0  0
  137.0538   69.1415  222.3468 H   0  0  0  0  0  0  0  0  0  0  0  0
  138.5730   71.1378  222.6128 H   0  0  0  0  0  0  0  0  0  0  0  0
  138.1048   72.0920  224.0062 H   0  0  0  0  0  0  0  0  0  0  0  0
  140.3707   72.9682  223.8782 H   0  0  0  0  0  0  0  0  0  0  0  0
  140.6310   72.1700  221.7910 H   0  0  0  0  0  0  0  0  0  0  0  0
  141.5163   70.3206  224.5898 H   0  0  0  0  0  0  0  0  0  0  0  0
  141.4798   71.7709  225.5693 H   0  0  0  0  0  0  0  0  0  0  0  0
  139.0810   71.3259  226.2305 H   0  0  0  0  0  0  0  0  0  0  0  0
  138.8955   69.1867  226.7551 H   0  0  0  0  0  0  0  0  0  0  0  0
  141.3932   70.7013  227.8004 H   0  0  0  0  0  0  0  0  0  0  0  0
  139.8056   70.8741  228.4656 H   0  0  0  0  0  0  0  0  0  0  0  0
  141.5060   68.9333  229.4304 H   0  0  0  0  0  0  0  0  0  0  0  0
  139.7992   68.5229  229.2889 H   0  0  0  0  0  0  0  0  0  0  0  0
  142.0510   67.4186  227.7882 H   0  0  0  0  0  0  0  0  0  0  0  0
  140.3512   66.9642  227.6157 H   0  0  0  0  0  0  0  0  0  0  0  0
  141.9457   69.0920  226.0745 H   0  0  0  0  0  0  0  0  0  0  0  0
  140.7894   67.9981  225.4048 H   0  0  0  0  0  0  0  0  0  0  0  0
  133.1716   69.5048  226.7978 H   0  0  0  0  0  0  0  0  0  0  0  0
  131.9583   71.3379  227.8947 H   0  0  0  0  0  0  0  0  0  0  0  0
  131.6109   73.7512  228.1635 H   0  0  0  0  0  0  0  0  0  0  0  0
  134.0152   76.4174  225.8354 H   0  0  0  0  0  0  0  0  0  0  0  0
  135.1879   74.5163  224.7785 H   0  0  0  0  0  0  0  0  0  0  0  0
  1  2  2  0
  2  3  1  0
  3  4  1  0
  4  5  1  0
  5  6  2  0
  5  7  1  0
  7  8  1  0
  8  9  1  0
  9 10  1  0
  9 11  1  0
 11 12  1  0
 12 13  1  0
 13 14  1  0
 14 15  1  0
 15 16  1  0
 16 17  1  0
  2 18  1  0
 18 19  2  0
 19 20  1  0
 20 21  2  0
 21 22  1  0
 22 23  2  0
 23 24  1  0
 23 25  1  0
 25 26  2  0
 26 27  1  0
 27 28  2  0
 12  7  1  0
 17 13  1  0
 28 18  1  0
 27 21  1  0
  3 29  1  0
  4 30  1  0
  4 31  1  0
  8 32  1  0
  8 33  1  0
  9 34  1  1
 10 35  1  0
 11 36  1  0
 11 37  1  0
 12 38  1  1
 13 39  1  0
 14 40  1  0
 14 41  1  0
 15 42  1  0
 15 43  1  0
 16 44  1  0
 16 45  1  0
 17 46  1  0
 17 47  1  0
 19 48  1  0
 20 49  1  0
 22 50  1  0
 25 51  1  0
 26 52  1  0
M  END
>  <smiles>  (18) 
O=C(NCC(=O)N1C[C@H](O)C[C@@H]1C1CCCC1)c1ccc2cc(Cl)ccc2n1

>  <score_type>  (18) 
oracle

>  <origin>  (18) 
autodockgpu

>  <m_score__min__energy>  (18) 
-8.4199999999999999

>  <m_primary>  (18) 
energy

>  <rmsd>  (18) 
7.456475288319004

>  <m_score__min__rmsd>  (18) 
7.456475288319004

>  <meeko>  (18) 
{"free_energy": -8.04, "intermolecular_energy": -9.83, "internal_energy": -1.75, "cluster_size": 13, "cluster_id": 2, "rank_in_cluster": 1}

>  <energy>  (18) 
-8.01

>  <cluster_rmsd>  (18) 
0.3

>  <cluster>  (18) 
2

$$$$

     RDKit          3D

 52 55  0  0  0  0  0  0  0  0999 V2000
  139.2720   71.7230  220.7040 O   0  0  0  0  0  0  0  0  0  0  0  0
  139.4200   72.2400  221.8390 C   0  0  0  0  0  0  0  0  0  0  0  0
  139.4300   73.6210  222.0990 N   0  0  0  0  0  0  0  0  0  0  0  0
  139.2630   74.5990  221.0430 C   0  0  0  0  0  0  0  0  0  0  0  0
  139.9720   75.8480  221.4980 C   0  0  0  0  0  0  0  0  0  0  0  0
  139.9780   76.0230  222.7390 O   0  0  0  0  0  0  0  0  0  0  0  0
  140.5420   76.6720  220.5250 N   0  0  0  0  0  0  0  0  0  0  0  0
  140.5710   76.3300  219.0640 C   0  0  0  0  0  0  0  0  0  0  0  0
  142.0000   76.6360  218.6640 C   0  0  2  0  0  0  0  0  0  0  0  0
  142.6750   75.4360  218.5520 O   0  0  0  0  0  0  0  0  0  0  0  0
  142.5130   77.5060  219.7980 C   0  0  0  0  0  0  0  0  0  0  0  0
  141.2420   77.9300  220.5010 C   0  0  2  0  0  0  0  0  0  0  0  0
  141.4460   78.5660  221.7930 C   0  0  0  0  0  0  0  0  0  0  0  0
  140.2000   78.9560  222.5430 C   0  0  0  0  0  0  0  0  0  0  0  0
  140.8340   79.6480  223.7620 C   0  0  0  0  0  0  0  0  0  0  0  0
  142.1140   80.2790  223.2210 C   0  0  0  0  0  0  0  0  0  0  0  0
  142.1580   79.9070  221.7330 C   0  0  0  0  0  0  0  0  0  0  0  0
  139.5960   71.3250  222.9820 C   0  0  0  0  0  0  0  0  0  0  0  0
  139.1950   70.0030  222.9250 C   0  0  0  0  0  0  0  0  0  0  0  0
  139.3460   69.1240  223.9750 C   0  0  0  0  0  0  0  0  0  0  0  0
  139.9240   69.5690  225.1470 C   0  0  0  0  0  0  0  0  0  0  0  0
  140.1020   68.7420  226.2260 C   0  0  0  0  0  0  0  0  0  0  0  0
  140.6880   69.2360  227.3830 C   0  0  0  0  0  0  0  0  0  0  0  0
  140.8980   68.1610  228.7330 Cl  0  0  0  0  0  0  0  0  0  0  0  0
  141.0720   70.5590  227.3940 C   0  0  0  0  0  0  0  0  0  0  0  0
  140.9020   71.4070  226.3200 C   0  0  0  0  0  0  0  0  0  0  0  0
  140.3170   70.8890  225.1840 C   0  0  0  0  0  0  0  0  0  0  0  0
  140.1580   71.7320  224.1390 N   0  0  0  0  0  0  0  0  0  0  0  0
  139.5610   73.9700  223.0730 H   0  0  0  0  0  0  0  0  0  0  0  0
  139.7090   74.2284  220.1083 H   0  0  0  0  0  0  0  0  0  0  0  0
  138.1983   74.7954  220.8485 H   0  0  0  0  0  0  0  0  0  0  0  0
  140.3354   75.2677  218.9030 H   0  0  0  0  0  0  0  0  0  0  0  0
  139.8294   76.8901  218.4755 H   0  0  0  0  0  0  0  0  0  0  0  0
  142.1210   77.1521  217.7001 H   0  0  0  0  0  0  0  0  0  0  0  0
  143.6170   75.5330  218.2620 H   0  0  0  0  0  0  0  0  0  0  0  0
  143.1658   76.9325  220.4725 H   0  0  0  0  0  0  0  0  0  0  0  0
  143.1221   78.3545  219.4530 H   0  0  0  0  0  0  0  0  0  0  0  0
  140.6849   78.7381  220.0045 H   0  0  0  0  0  0  0  0  0  0  0  0
  142.0155   77.7626  222.2832 H   0  0  0  0  0  0  0  0  0  0  0  0
  139.5717   79.6467  221.9614 H   0  0  0  0  0  0  0  0  0  0  0  0
  139.5208   78.1242  222.7812 H   0  0  0  0  0  0  0  0  0  0  0  0
  140.1608   80.4190  224.1650 H   0  0  0  0  0  0  0  0  0  0  0  0
  141.0298   78.9463  224.5861 H   0  0  0  0  0  0  0  0  0  0  0  0
  142.0852   81.3718  223.3433 H   0  0  0  0  0  0  0  0  0  0  0  0
  143.0043   79.9196  223.7578 H   0  0  0  0  0  0  0  0  0  0  0  0
  141.6143   80.6336  221.1114 H   0  0  0  0  0  0  0  0  0  0  0  0
  143.1617   79.8863  221.2834 H   0  0  0  0  0  0  0  0  0  0  0  0
  138.7333   69.6354  221.9967 H   0  0  0  0  0  0  0  0  0  0  0  0
  139.0102   68.0808  223.8807 H   0  0  0  0  0  0  0  0  0  0  0  0
  139.7816   67.6909  226.1748 H   0  0  0  0  0  0  0  0  0  0  0  0
  141.5382   70.9594  228.3063 H   0  0  0  0  0  0  0  0  0  0  0  0
  141.2215   72.4585  226.3678 H   0  0  0  0  0  0  0  0  0  0  0  0
  1  2  2  0
  2  3  1  0
  3  4  1  0
  4  5  1  0
  5  6  2  0
  5  7  1  0
  7  8  1  0
  8  9  1  0
  9 10  1  0
  9 11  1  0
 11 12  1  0
 12 13  1  0
 13 14  1  0
 14 15  1  0
 15 16  1  0
 16 17  1  0
  2 18  1  0
 18 19  2  0
 19 20  1  0
 20 21  2  0
 21 22  1  0
 22 23  2  0
 23 24  1  0
 23 25  1  0
 25 26  2  0
 26 27  1  0
 27 28  2  0
 12  7  1  0
 17 13  1  0
 28 18  1  0
 27 21  1  0
  3 29  1  0
  4 30  1  0
  4 31  1  0
  8 32  1  0
  8 33  1  0
  9 34  1  6
 10 35  1  0
 11 36  1  0
 11 37  1  0
 12 38  1  6
 13 39  1  0
 14 40  1  0
 14 41  1  0
 15 42  1  0
 15 43  1  0
 16 44  1  0
 16 45  1  0
 17 46  1  0
 17 47  1  0
 19 48  1  0
 20 49  1  0
 22 50  1  0
 25 51  1  0
 26 52  1  0
M  END
>  <smiles>  (19) 
O=C(NCC(=O)N1C[C@H](O)C[C@@H]1C1CCCC1)c1ccc2cc(Cl)ccc2n1

>  <score_type>  (19) 
oracle

>  <origin>  (19) 
autodockgpu

>  <m_score__min__energy>  (19) 
-8.4199999999999999

>  <m_primary>  (19) 
energy

>  <rmsd>  (19) 
1.5366201848015213

>  <m_score__min__rmsd>  (19) 
1.5366201848015213

>  <meeko>  (19) 
{"free_energy": -7.99, "intermolecular_energy": -9.78, "internal_energy": -2.0, "cluster_size": 14, "cluster_id": 1, "rank_in_cluster": 9}

>  <energy>  (19) 
-7.98

>  <cluster_rmsd>  (19) 
0.29

>  <cluster>  (19) 
2

$$$$

     RDKit          3D

 52 55  0  0  0  0  0  0  0  0999 V2000
  142.3050   73.3780  220.1280 O   0  0  0  0  0  0  0  0  0  0  0  0
  141.6050   73.9580  220.9950 C   0  0  0  0  0  0  0  0  0  0  0  0
  140.8200   73.3070  221.9620 N   0  0  0  0  0  0  0  0  0  0  0  0
  140.7530   71.8620  222.0460 C   0  0  0  0  0  0  0  0  0  0  0  0
  139.5360   71.5370  222.8730 C   0  0  0  0  0  0  0  0  0  0  0  0
  138.6690   72.4420  222.9060 O   0  0  0  0  0  0  0  0  0  0  0  0
  139.4840   70.2930  223.5070 N   0  0  0  0  0  0  0  0  0  0  0  0
  139.1110   69.0210  222.8030 C   0  0  0  0  0  0  0  0  0  0  0  0
  138.1240   68.3750  223.7540 C   0  0  2  0  0  0  0  0  0  0  0  0
  136.8560   68.5640  223.2410 O   0  0  0  0  0  0  0  0  0  0  0  0
  138.3540   69.1080  225.0640 C   0  0  0  0  0  0  0  0  0  0  0  0
  139.6850   69.7920  224.8410 C   0  0  2  0  0  0  0  0  0  0  0  0
  140.0340   70.7850  225.8450 C   0  0  0  0  0  0  0  0  0  0  0  0
  141.4230   71.3590  225.7530 C   0  0  0  0  0  0  0  0  0  0  0  0
  141.4160   72.2620  226.9990 C   0  0  0  0  0  0  0  0  0  0  0  0
  140.5190   71.5320  227.9960 C   0  0  0  0  0  0  0  0  0  0  0  0
  140.0490   70.2640  227.2720 C   0  0  0  0  0  0  0  0  0  0  0  0
  141.6090   75.4320  220.9920 C   0  0  0  0  0  0  0  0  0  0  0  0
  142.1650   76.1580  219.9550 C   0  0  0  0  0  0  0  0  0  0  0  0
  142.1840   77.5350  219.9230 C   0  0  0  0  0  0  0  0  0  0  0  0
  141.6270   78.2390  220.9710 C   0  0  0  0  0  0  0  0  0  0  0  0
  141.6150   79.6100  220.9970 C   0  0  0  0  0  0  0  0  0  0  0  0
  141.0430   80.2730  222.0730 C   0  0  0  0  0  0  0  0  0  0  0  0
  141.0460   82.0120  222.0750 Cl  0  0  0  0  0  0  0  0  0  0  0  0
  140.5020   79.5100  223.0840 C   0  0  0  0  0  0  0  0  0  0  0  0
  140.5030   78.1310  223.0770 C   0  0  0  0  0  0  0  0  0  0  0  0
  141.0790   77.4990  221.9960 C   0  0  0  0  0  0  0  0  0  0  0  0
  141.0720   76.1460  222.0030 N   0  0  0  0  0  0  0  0  0  0  0  0
  140.2650   73.8650  222.6470 H   0  0  0  0  0  0  0  0  0  0  0  0
  140.6562   71.4271  221.0403 H   0  0  0  0  0  0  0  0  0  0  0  0
  141.6649   71.4475  222.5006 H   0  0  0  0  0  0  0  0  0  0  0  0
  138.6418   69.2314  221.8306 H   0  0  0  0  0  0  0  0  0  0  0  0
  139.9777   68.3811  222.5807 H   0  0  0  0  0  0  0  0  0  0  0  0
  138.2437   67.2907  223.8956 H   0  0  0  0  0  0  0  0  0  0  0  0
  136.7060   69.4700  222.8700 H   0  0  0  0  0  0  0  0  0  0  0  0
  137.5577   69.8435  225.2508 H   0  0  0  0  0  0  0  0  0  0  0  0
  138.3495   68.4427  225.9400 H   0  0  0  0  0  0  0  0  0  0  0  0
  140.5645   69.1390  224.9418 H   0  0  0  0  0  0  0  0  0  0  0  0
  139.2442   71.5200  225.6306 H   0  0  0  0  0  0  0  0  0  0  0  0
  142.1940   70.5771  225.8187 H   0  0  0  0  0  0  0  0  0  0  0  0
  141.6528   71.8722  224.8076 H   0  0  0  0  0  0  0  0  0  0  0  0
  142.4331   72.3759  227.4022 H   0  0  0  0  0  0  0  0  0  0  0  0
  141.0551   73.2772  226.7775 H   0  0  0  0  0  0  0  0  0  0  0  0
  141.0849   71.2700  228.9021 H   0  0  0  0  0  0  0  0  0  0  0  0
  139.6722   72.1566  228.3166 H   0  0  0  0  0  0  0  0  0  0  0  0
  140.7576   69.4322  227.3983 H   0  0  0  0  0  0  0  0  0  0  0  0
  139.0964   69.8454  227.6289 H   0  0  0  0  0  0  0  0  0  0  0  0
  142.6142   75.6091  219.1142 H   0  0  0  0  0  0  0  0  0  0  0  0
  142.6373   78.0664  219.0732 H   0  0  0  0  0  0  0  0  0  0  0  0
  142.0572   80.1818  220.1679 H   0  0  0  0  0  0  0  0  0  0  0  0
  140.0457   80.0271  223.9410 H   0  0  0  0  0  0  0  0  0  0  0  0
  140.0603   77.5564  223.9039 H   0  0  0  0  0  0  0  0  0  0  0  0
  1  2  2  0
  2  3  1  0
  3  4  1  0
  4  5  1  0
  5  6  2  0
  5  7  1  0
  7  8  1  0
  8  9  1  0
  9 10  1  0
  9 11  1  0
 11 12  1  0
 12 13  1  0
 13 14  1  0
 14 15  1  0
 15 16  1  0
 16 17  1  0
  2 18  1  0
 18 19  2  0
 19 20  1  0
 20 21  2  0
 21 22  1  0
 22 23  2  0
 23 24  1  0
 23 25  1  0
 25 26  2  0
 26 27  1  0
 27 28  2  0
 12  7  1  0
 17 13  1  0
 28 18  1  0
 27 21  1  0
  3 29  1  0
  4 30  1  0
  4 31  1  0
  8 32  1  0
  8 33  1  0
  9 34  1  1
 10 35  1  0
 11 36  1  0
 11 37  1  0
 12 38  1  6
 13 39  1  0
 14 40  1  0
 14 41  1  0
 15 42  1  0
 15 43  1  0
 16 44  1  0
 16 45  1  0
 17 46  1  0
 17 47  1  0
 19 48  1  0
 20 49  1  0
 22 50  1  0
 25 51  1  0
 26 52  1  0
M  END
>  <smiles>  (20) 
O=C(NCC(=O)N1C[C@H](O)C[C@@H]1C1CCCC1)c1ccc2cc(Cl)ccc2n1

>  <score_type>  (20) 
oracle

>  <origin>  (20) 
autodockgpu

>  <m_score__min__energy>  (20) 
-8.4199999999999999

>  <m_primary>  (20) 
energy

>  <rmsd>  (20) 
8.50265460299233

>  <m_score__min__rmsd>  (20) 
8.50265460299233

>  <meeko>  (20) 
{"free_energy": -7.15, "intermolecular_energy": -8.94, "internal_energy": -2.17, "cluster_size": 1, "cluster_id": 5, "rank_in_cluster": 1}

>  <energy>  (20) 
-7.95

>  <cluster_rmsd>  (20) 
0.27

>  <cluster>  (20) 
2

$$$$

     RDKit          3D

 52 55  0  0  0  0  0  0  0  0999 V2000
  139.3470   79.5510  220.0840 O   0  0  0  0  0  0  0  0  0  0  0  0
  140.5610   79.3200  220.3050 C   0  0  0  0  0  0  0  0  0  0  0  0
  141.5580   80.3030  220.4270 N   0  0  0  0  0  0  0  0  0  0  0  0
  141.2580   81.7150  220.3060 C   0  0  0  0  0  0  0  0  0  0  0  0
  140.8400   82.1840  221.6750 C   0  0  0  0  0  0  0  0  0  0  0  0
  140.2800   83.3050  221.6960 O   0  0  0  0  0  0  0  0  0  0  0  0
  141.1040   81.3510  222.7650 N   0  0  0  0  0  0  0  0  0  0  0  0
  142.4860   81.0840  223.2860 C   0  0  0  0  0  0  0  0  0  0  0  0
  142.5040   79.5800  223.4690 C   0  0  2  0  0  0  0  0  0  0  0  0
  143.2230   79.0340  222.4230 O   0  0  0  0  0  0  0  0  0  0  0  0
  141.0350   79.1970  223.4470 C   0  0  0  0  0  0  0  0  0  0  0  0
  140.3360   80.5230  223.6580 C   0  0  2  0  0  0  0  0  0  0  0  0
  138.9010   80.4980  223.4210 C   0  0  0  0  0  0  0  0  0  0  0  0
  138.0310   80.8690  224.5930 C   0  0  0  0  0  0  0  0  0  0  0  0
  136.6430   80.6370  223.9710 C   0  0  0  0  0  0  0  0  0  0  0  0
  136.8500   79.4850  222.9920 C   0  0  0  0  0  0  0  0  0  0  0  0
  138.3380   79.1270  223.0880 C   0  0  0  0  0  0  0  0  0  0  0  0
  140.9660   77.9090  220.4460 C   0  0  0  0  0  0  0  0  0  0  0  0
  140.1320   76.9640  221.0140 C   0  0  0  0  0  0  0  0  0  0  0  0
  140.4810   75.6400  221.1600 C   0  0  0  0  0  0  0  0  0  0  0  0
  141.7210   75.2200  220.7230 C   0  0  0  0  0  0  0  0  0  0  0  0
  142.1270   73.9140  220.8400 C   0  0  0  0  0  0  0  0  0  0  0  0
  143.3830   73.5410  220.3860 C   0  0  0  0  0  0  0  0  0  0  0  0
  143.8660   71.8780  220.5510 Cl  0  0  0  0  0  0  0  0  0  0  0  0
  144.1800   74.5150  219.8280 C   0  0  0  0  0  0  0  0  0  0  0  0
  143.7920   75.8320  219.7000 C   0  0  0  0  0  0  0  0  0  0  0  0
  142.5390   76.1750  220.1600 C   0  0  0  0  0  0  0  0  0  0  0  0
  142.1720   77.4700  220.0280 N   0  0  0  0  0  0  0  0  0  0  0  0
  142.5470   80.0250  220.6100 H   0  0  0  0  0  0  0  0  0  0  0  0
  142.1499   82.2654  219.9720 H   0  0  0  0  0  0  0  0  0  0  0  0
  140.4628   81.8900  219.5663 H   0  0  0  0  0  0  0  0  0  0  0  0
  143.2491   81.4020  222.5604 H   0  0  0  0  0  0  0  0  0  0  0  0
  142.7109   81.6334  224.2121 H   0  0  0  0  0  0  0  0  0  0  0  0
  142.9799   79.2222  224.3939 H   0  0  0  0  0  0  0  0  0  0  0  0
  142.7700   78.2710  221.9820 H   0  0  0  0  0  0  0  0  0  0  0  0
  140.7565   78.7524  222.4802 H   0  0  0  0  0  0  0  0  0  0  0  0
  140.7717   78.4423  224.2028 H   0  0  0  0  0  0  0  0  0  0  0  0
  140.3262   80.8815  224.6979 H   0  0  0  0  0  0  0  0  0  0  0  0
  138.8575   81.2265  222.5980 H   0  0  0  0  0  0  0  0  0  0  0  0
  138.2071   80.2121  225.4576 H   0  0  0  0  0  0  0  0  0  0  0  0
  138.1980   81.8789  224.9957 H   0  0  0  0  0  0  0  0  0  0  0  0
  135.9112   80.3626  224.7450 H   0  0  0  0  0  0  0  0  0  0  0  0
  136.2497   81.5385  223.4785 H   0  0  0  0  0  0  0  0  0  0  0  0
  136.2283   78.6231  223.2758 H   0  0  0  0  0  0  0  0  0  0  0  0
  136.5630   79.7641  221.9674 H   0  0  0  0  0  0  0  0  0  0  0  0
  138.5343   78.3970  223.8871 H   0  0  0  0  0  0  0  0  0  0  0  0
  138.7645   78.6488  222.1939 H   0  0  0  0  0  0  0  0  0  0  0  0
  139.1409   77.2855  221.3667 H   0  0  0  0  0  0  0  0  0  0  0  0
  139.7808   74.9265  221.6189 H   0  0  0  0  0  0  0  0  0  0  0  0
  141.4587   73.1663  221.2921 H   0  0  0  0  0  0  0  0  0  0  0  0
  145.1780   74.2278  219.4655 H   0  0  0  0  0  0  0  0  0  0  0  0
  144.4581   76.5813  219.2474 H   0  0  0  0  0  0  0  0  0  0  0  0
  1  2  2  0
  2  3  1  0
  3  4  1  0
  4  5  1  0
  5  6  2  0
  5  7  1  0
  7  8  1  0
  8  9  1  0
  9 10  1  0
  9 11  1  0
 11 12  1  0
 12 13  1  0
 13 14  1  0
 14 15  1  0
 15 16  1  0
 16 17  1  0
  2 18  1  0
 18 19  2  0
 19 20  1  0
 20 21  2  0
 21 22  1  0
 22 23  2  0
 23 24  1  0
 23 25  1  0
 25 26  2  0
 26 27  1  0
 27 28  2  0
 12  7  1  0
 17 13  1  0
 28 18  1  0
 27 21  1  0
  3 29  1  0
  4 30  1  0
  4 31  1  0
  8 32  1  0
  8 33  1  0
  9 34  1  1
 10 35  1  0
 11 36  1  0
 11 37  1  0
 12 38  1  1
 13 39  1  0
 14 40  1  0
 14 41  1  0
 15 42  1  0
 15 43  1  0
 16 44  1  0
 16 45  1  0
 17 46  1  0
 17 47  1  0
 19 48  1  0
 20 49  1  0
 22 50  1  0
 25 51  1  0
 26 52  1  0
M  END
>  <smiles>  (21) 
O=C(NCC(=O)N1C[C@H](O)C[C@@H]1C1CCCC1)c1ccc2cc(Cl)ccc2n1

>  <score_type>  (21) 
oracle

>  <origin>  (21) 
autodockgpu

>  <m_score__min__energy>  (21) 
-8.4199999999999999

>  <m_primary>  (21) 
energy

>  <rmsd>  (21) 
8.095441285842291

>  <m_score__min__rmsd>  (21) 
8.095441285842291

>  <meeko>  (21) 
{"free_energy": -6.38, "intermolecular_energy": -8.17, "internal_energy": -3.81, "cluster_size": 15, "cluster_id": 6, "rank_in_cluster": 8}

>  <energy>  (21) 
-7.95

>  <cluster_rmsd>  (21) 
0.3

>  <cluster>  (21) 
2

$$$$

     RDKit          3D

 52 55  0  0  0  0  0  0  0  0999 V2000
  138.3190   72.1490  221.2140 O   0  0  0  0  0  0  0  0  0  0  0  0
  139.2400   72.4190  222.0250 C   0  0  0  0  0  0  0  0  0  0  0  0
  140.0710   73.5500  221.9510 N   0  0  0  0  0  0  0  0  0  0  0  0
  139.9300   74.5350  220.8980 C   0  0  0  0  0  0  0  0  0  0  0  0
  141.3170   75.0310  220.5860 C   0  0  0  0  0  0  0  0  0  0  0  0
  142.2340   74.4530  221.2170 O   0  0  0  0  0  0  0  0  0  0  0  0
  141.4540   76.0590  219.6500 N   0  0  0  0  0  0  0  0  0  0  0  0
  141.4220   75.8360  218.1660 C   0  0  0  0  0  0  0  0  0  0  0  0
  142.6040   76.6440  217.6680 C   0  0  2  0  0  0  0  0  0  0  0  0
  143.6280   75.7630  217.3800 O   0  0  0  0  0  0  0  0  0  0  0  0
  142.9220   77.5690  218.8300 C   0  0  0  0  0  0  0  0  0  0  0  0
  141.6760   77.4810  219.6850 C   0  0  2  0  0  0  0  0  0  0  0  0
  141.8040   78.0700  221.0090 C   0  0  0  0  0  0  0  0  0  0  0  0
  140.6750   77.7970  221.9660 C   0  0  0  0  0  0  0  0  0  0  0  0
  141.1410   78.6390  223.1670 C   0  0  0  0  0  0  0  0  0  0  0  0
  141.8810   79.8200  222.5420 C   0  0  0  0  0  0  0  0  0  0  0  0
  141.8150   79.5890  221.0270 C   0  0  0  0  0  0  0  0  0  0  0  0
  139.4610   71.4750  223.1360 C   0  0  0  0  0  0  0  0  0  0  0  0
  139.0520   70.1560  223.0640 C   0  0  0  0  0  0  0  0  0  0  0  0
  139.2440   69.2510  224.0840 C   0  0  0  0  0  0  0  0  0  0  0  0
  139.8730   69.6650  225.2410 C   0  0  0  0  0  0  0  0  0  0  0  0
  140.0940   68.8110  226.2920 C   0  0  0  0  0  0  0  0  0  0  0  0
  140.7300   69.2750  227.4340 C   0  0  0  0  0  0  0  0  0  0  0  0
  140.9930   68.1660  228.7470 Cl  0  0  0  0  0  0  0  0  0  0  0  0
  141.1200   70.5960  227.4610 C   0  0  0  0  0  0  0  0  0  0  0  0
  140.9070   71.4710  226.4160 C   0  0  0  0  0  0  0  0  0  0  0  0
  140.2730   70.9830  225.2940 C   0  0  0  0  0  0  0  0  0  0  0  0
  140.0720   71.8520  224.2780 N   0  0  0  0  0  0  0  0  0  0  0  0
  140.8150   73.7000  222.6660 H   0  0  0  0  0  0  0  0  0  0  0  0
  139.4815   74.0749  220.0052 H   0  0  0  0  0  0  0  0  0  0  0  0
  139.2741   75.3605  221.2116 H   0  0  0  0  0  0  0  0  0  0  0  0
  141.5436   74.7697  217.9248 H   0  0  0  0  0  0  0  0  0  0  0  0
  140.4695   76.1367  217.7053 H   0  0  0  0  0  0  0  0  0  0  0  0
  142.4269   77.2259  216.7514 H   0  0  0  0  0  0  0  0  0  0  0  0
  144.5100   76.0470  217.7310 H   0  0  0  0  0  0  0  0  0  0  0  0
  143.8065   77.2198  219.3829 H   0  0  0  0  0  0  0  0  0  0  0  0
  143.1601   78.5956  218.5147 H   0  0  0  0  0  0  0  0  0  0  0  0
  140.8223   78.0728  219.3230 H   0  0  0  0  0  0  0  0  0  0  0  0
  142.7516   77.5983  221.3083 H   0  0  0  0  0  0  0  0  0  0  0  0
  139.7099   78.1470  221.5708 H   0  0  0  0  0  0  0  0  0  0  0  0
  140.4966   76.7337  222.1842 H   0  0  0  0  0  0  0  0  0  0  0  0
  140.2793   78.9874  223.7553 H   0  0  0  0  0  0  0  0  0  0  0  0
  141.7763   78.0658  223.8583 H   0  0  0  0  0  0  0  0  0  0  0  0
  141.3885   80.7668  222.8084 H   0  0  0  0  0  0  0  0  0  0  0  0
  142.9190   79.8871  222.8999 H   0  0  0  0  0  0  0  0  0  0  0  0
  140.9001   80.0118  220.5863 H   0  0  0  0  0  0  0  0  0  0  0  0
  142.6208   80.0597  220.4447 H   0  0  0  0  0  0  0  0  0  0  0  0
  138.5490   69.8132  222.1478 H   0  0  0  0  0  0  0  0  0  0  0  0
  138.9005   68.2114  223.9782 H   0  0  0  0  0  0  0  0  0  0  0  0
  139.7680   67.7623  226.2291 H   0  0  0  0  0  0  0  0  0  0  0  0
  141.6271   70.9722  228.3617 H   0  0  0  0  0  0  0  0  0  0  0  0
  141.2315   72.5203  226.4762 H   0  0  0  0  0  0  0  0  0  0  0  0
  1  2  2  0
  2  3  1  0
  3  4  1  0
  4  5  1  0
  5  6  2  0
  5  7  1  0
  7  8  1  0
  8  9  1  0
  9 10  1  0
  9 11  1  0
 11 12  1  0
 12 13  1  0
 13 14  1  0
 14 15  1  0
 15 16  1  0
 16 17  1  0
  2 18  1  0
 18 19  2  0
 19 20  1  0
 20 21  2  0
 21 22  1  0
 22 23  2  0
 23 24  1  0
 23 25  1  0
 25 26  2  0
 26 27  1  0
 27 28  2  0
 12  7  1  0
 17 13  1  0
 28 18  1  0
 27 21  1  0
  3 29  1  0
  4 30  1  0
  4 31  1  0
  8 32  1  0
  8 33  1  0
  9 34  1  6
 10 35  1  0
 11 36  1  0
 11 37  1  0
 12 38  1  6
 13 39  1  0
 14 40  1  0
 14 41  1  0
 15 42  1  0
 15 43  1  0
 16 44  1  0
 16 45  1  0
 17 46  1  0
 17 47  1  0
 19 48  1  0
 20 49  1  0
 22 50  1  0
 25 51  1  0
 26 52  1  0
M  END
>  <smiles>  (22) 
O=C(NCC(=O)N1C[C@H](O)C[C@@H]1C1CCCC1)c1ccc2cc(Cl)ccc2n1

>  <score_type>  (22) 
oracle

>  <origin>  (22) 
autodockgpu

>  <m_score__min__energy>  (22) 
-8.4199999999999999

>  <m_primary>  (22) 
energy

>  <rmsd>  (22) 
1.696478034067352

>  <m_score__min__rmsd>  (22) 
1.696478034067352

>  <meeko>  (22) 
{"free_energy": -7.61, "intermolecular_energy": -9.4, "internal_energy": -2.01, "cluster_size": 4, "cluster_id": 3, "rank_in_cluster": 4}

>  <energy>  (22) 
-7.9

>  <cluster_rmsd>  (22) 
0.33

>  <cluster>  (22) 
2

$$$$

     RDKit          3D

 52 55  0  0  0  0  0  0  0  0999 V2000
  134.7080   68.5070  225.2430 O   0  0  0  0  0  0  0  0  0  0  0  0
  135.1430   69.6490  224.9560 C   0  0  0  0  0  0  0  0  0  0  0  0
  136.2290   69.9050  224.1010 N   0  0  0  0  0  0  0  0  0  0  0  0
  136.9620   68.8350  223.4540 C   0  0  0  0  0  0  0  0  0  0  0  0
  138.3520   68.8570  224.0330 C   0  0  0  0  0  0  0  0  0  0  0  0
  138.9120   67.7370  224.0920 O   0  0  0  0  0  0  0  0  0  0  0  0
  138.8770   70.0860  224.4380 N   0  0  0  0  0  0  0  0  0  0  0  0
  138.8220   71.3280  223.5960 C   0  0  0  0  0  0  0  0  0  0  0  0
  140.2290   71.8790  223.6970 C   0  0  2  0  0  0  0  0  0  0  0  0
  140.8850   71.5850  222.5180 O   0  0  0  0  0  0  0  0  0  0  0  0
  140.8130   71.1570  224.9000 C   0  0  0  0  0  0  0  0  0  0  0  0
  139.5870   70.5920  225.5840 C   0  0  2  0  0  0  0  0  0  0  0  0
  139.8680   69.6250  226.6330 C   0  0  0  0  0  0  0  0  0  0  0  0
  140.3500   70.1910  227.9430 C   0  0  0  0  0  0  0  0  0  0  0  0
  140.6060   68.8840  228.7130 C   0  0  0  0  0  0  0  0  0  0  0  0
  141.0440   67.8880  227.6430 C   0  0  0  0  0  0  0  0  0  0  0  0
  141.0020   68.6630  226.3200 C   0  0  0  0  0  0  0  0  0  0  0  0
  134.4610   70.8050  225.5650 C   0  0  0  0  0  0  0  0  0  0  0  0
  133.4580   70.6490  226.5040 C   0  0  0  0  0  0  0  0  0  0  0  0
  132.8020   71.7080  227.0910 C   0  0  0  0  0  0  0  0  0  0  0  0
  133.1510   72.9950  226.7340 C   0  0  0  0  0  0  0  0  0  0  0  0
  132.5350   74.0910  227.2830 C   0  0  0  0  0  0  0  0  0  0  0  0
  132.9210   75.3650  226.8930 C   0  0  0  0  0  0  0  0  0  0  0  0
  132.1190   76.7330  227.6080 Cl  0  0  0  0  0  0  0  0  0  0  0  0
  133.9240   75.4740  225.9550 C   0  0  0  0  0  0  0  0  0  0  0  0
  134.5560   74.3850  225.3910 C   0  0  0  0  0  0  0  0  0  0  0  0
  134.1520   73.1310  225.7970 C   0  0  0  0  0  0  0  0  0  0  0  0
  134.7810   72.0740  225.2360 N   0  0  0  0  0  0  0  0  0  0  0  0
  136.5290   70.8870  223.9160 H   0  0  0  0  0  0  0  0  0  0  0  0
  136.4807   67.8672  223.6582 H   0  0  0  0  0  0  0  0  0  0  0  0
  136.9838   68.9713  222.3627 H   0  0  0  0  0  0  0  0  0  0  0  0
  138.5671   71.0865  222.5535 H   0  0  0  0  0  0  0  0  0  0  0  0
  138.0548   72.0417  223.9307 H   0  0  0  0  0  0  0  0  0  0  0  0
  140.3012   72.9685  223.8305 H   0  0  0  0  0  0  0  0  0  0  0  0
  140.4220   70.9100  221.9600 H   0  0  0  0  0  0  0  0  0  0  0  0
  141.4963   70.3541  224.5862 H   0  0  0  0  0  0  0  0  0  0  0  0
  141.4105   71.8118  225.5513 H   0  0  0  0  0  0  0  0  0  0  0  0
  139.0114   71.3173  226.1778 H   0  0  0  0  0  0  0  0  0  0  0  0
  138.8731   69.1603  226.6987 H   0  0  0  0  0  0  0  0  0  0  0  0
  141.2704   70.7807  227.8202 H   0  0  0  0  0  0  0  0  0  0  0  0
  139.6562   70.8911  228.4314 H   0  0  0  0  0  0  0  0  0  0  0  0
  141.3993   69.0234  229.4622 H   0  0  0  0  0  0  0  0  0  0  0  0
  139.7168   68.5422  229.2629 H   0  0  0  0  0  0  0  0  0  0  0  0
  142.0638   67.5292  227.8462 H   0  0  0  0  0  0  0  0  0  0  0  0
  140.3918   67.0026  227.6182 H   0  0  0  0  0  0  0  0  0  0  0  0
  141.9465   69.1913  226.1231 H   0  0  0  0  0  0  0  0  0  0  0  0
  140.8604   68.0474  225.4195 H   0  0  0  0  0  0  0  0  0  0  0  0
  133.1698   69.6285  226.7965 H   0  0  0  0  0  0  0  0  0  0  0  0
  132.0107   71.5308  227.8343 H   0  0  0  0  0  0  0  0  0  0  0  0
  131.7380   73.9600  228.0297 H   0  0  0  0  0  0  0  0  0  0  0  0
  134.2369   76.4803  225.6397 H   0  0  0  0  0  0  0  0  0  0  0  0
  135.3535   74.5127  224.6443 H   0  0  0  0  0  0  0  0  0  0  0  0
  1  2  2  0
  2  3  1  0
  3  4  1  0
  4  5  1  0
  5  6  2  0
  5  7  1  0
  7  8  1  0
  8  9  1  0
  9 10  1  0
  9 11  1  0
 11 12  1  0
 12 13  1  0
 13 14  1  0
 14 15  1  0
 15 16  1  0
 16 17  1  0
  2 18  1  0
 18 19  2  0
 19 20  1  0
 20 21  2  0
 21 22  1  0
 22 23  2  0
 23 24  1  0
 23 25  1  0
 25 26  2  0
 26 27  1  0
 27 28  2  0
 12  7  1  0
 17 13  1  0
 28 18  1  0
 27 21  1  0
  3 29  1  0
  4 30  1  0
  4 31  1  0
  8 32  1  0
  8 33  1  0
  9 34  1  1
 10 35  1  0
 11 36  1  0
 11 37  1  0
 12 38  1  1
 13 39  1  0
 14 40  1  0
 14 41  1  0
 15 42  1  0
 15 43  1  0
 16 44  1  0
 16 45  1  0
 17 46  1  0
 17 47  1  0
 19 48  1  0
 20 49  1  0
 22 50  1  0
 25 51  1  0
 26 52  1  0
M  END
>  <smiles>  (23) 
O=C(NCC(=O)N1C[C@H](O)C[C@@H]1C1CCCC1)c1ccc2cc(Cl)ccc2n1

>  <score_type>  (23) 
oracle

>  <origin>  (23) 
autodockgpu

>  <m_score__min__energy>  (23) 
-8.4199999999999999

>  <m_primary>  (23) 
energy

>  <rmsd>  (23) 
7.438846331761921

>  <m_score__min__rmsd>  (23) 
7.438846331761921

>  <meeko>  (23) 
{"free_energy": -7.95, "intermolecular_energy": -9.74, "internal_energy": -1.79, "cluster_size": 13, "cluster_id": 2, "rank_in_cluster": 6}

>  <energy>  (23) 
-7.86

>  <cluster_rmsd>  (23) 
0.5

>  <cluster>  (23) 
2

$$$$

     RDKit          3D

 52 55  0  0  0  0  0  0  0  0999 V2000
  139.3610   79.5970  220.0770 O   0  0  0  0  0  0  0  0  0  0  0  0
  140.5740   79.3400  220.2790 C   0  0  0  0  0  0  0  0  0  0  0  0
  141.5930   80.3010  220.3900 N   0  0  0  0  0  0  0  0  0  0  0  0
  141.3210   81.7200  220.2800 C   0  0  0  0  0  0  0  0  0  0  0  0
  140.7660   82.1550  221.6110 C   0  0  0  0  0  0  0  0  0  0  0  0
  140.1040   83.2190  221.5800 O   0  0  0  0  0  0  0  0  0  0  0  0
  141.0310   81.3570  222.7270 N   0  0  0  0  0  0  0  0  0  0  0  0
  142.4140   81.1020  223.2520 C   0  0  0  0  0  0  0  0  0  0  0  0
  142.4270   79.6050  223.4840 C   0  0  2  0  0  0  0  0  0  0  0  0
  143.1400   79.0230  222.4540 O   0  0  0  0  0  0  0  0  0  0  0  0
  140.9560   79.2280  223.4800 C   0  0  0  0  0  0  0  0  0  0  0  0
  140.2630   80.5630  223.6490 C   0  0  2  0  0  0  0  0  0  0  0  0
  138.8270   80.5350  223.4180 C   0  0  0  0  0  0  0  0  0  0  0  0
  137.9600   80.8680  224.6030 C   0  0  0  0  0  0  0  0  0  0  0  0
  136.5710   80.6450  223.9810 C   0  0  0  0  0  0  0  0  0  0  0  0
  136.7800   79.5220  222.9680 C   0  0  0  0  0  0  0  0  0  0  0  0
  138.2710   79.1700  223.0490 C   0  0  0  0  0  0  0  0  0  0  0  0
  140.9510   77.9200  220.4070 C   0  0  0  0  0  0  0  0  0  0  0  0
  140.0820   76.9790  220.9270 C   0  0  0  0  0  0  0  0  0  0  0  0
  140.4050   75.6470  221.0600 C   0  0  0  0  0  0  0  0  0  0  0  0
  141.6530   75.2140  220.6600 C   0  0  0  0  0  0  0  0  0  0  0  0
  142.0340   73.9010  220.7670 C   0  0  0  0  0  0  0  0  0  0  0  0
  143.3000   73.5150  220.3520 C   0  0  0  0  0  0  0  0  0  0  0  0
  143.7500   71.8420  220.5020 Cl  0  0  0  0  0  0  0  0  0  0  0  0
  144.1320   74.4860  219.8410 C   0  0  0  0  0  0  0  0  0  0  0  0
  143.7700   75.8120  219.7250 C   0  0  0  0  0  0  0  0  0  0  0  0
  142.5060   76.1670  220.1460 C   0  0  0  0  0  0  0  0  0  0  0  0
  142.1640   77.4700  220.0250 N   0  0  0  0  0  0  0  0  0  0  0  0
  142.5780   80.0020  220.5570 H   0  0  0  0  0  0  0  0  0  0  0  0
  142.2483   82.2683  220.0577 H   0  0  0  0  0  0  0  0  0  0  0  0
  140.6098   81.9262  219.4666 H   0  0  0  0  0  0  0  0  0  0  0  0
  143.1758   81.3932  222.5138 H   0  0  0  0  0  0  0  0  0  0  0  0
  142.6441   81.6806  224.1588 H   0  0  0  0  0  0  0  0  0  0  0  0
  142.9048   79.2749  224.4182 H   0  0  0  0  0  0  0  0  0  0  0  0
  142.6640   78.2750  222.0120 H   0  0  0  0  0  0  0  0  0  0  0  0
  140.6721   78.7525  222.5296 H   0  0  0  0  0  0  0  0  0  0  0  0
  140.6924   78.5003  224.2616 H   0  0  0  0  0  0  0  0  0  0  0  0
  140.2580   80.9568  224.6761 H   0  0  0  0  0  0  0  0  0  0  0  0
  138.7753   81.2858  222.6158 H   0  0  0  0  0  0  0  0  0  0  0  0
  138.1437   80.1885  225.4483 H   0  0  0  0  0  0  0  0  0  0  0  0
  138.1227   81.8674  225.0327 H   0  0  0  0  0  0  0  0  0  0  0  0
  135.8445   80.3442  224.7503 H   0  0  0  0  0  0  0  0  0  0  0  0
  136.1701   81.5577  223.5160 H   0  0  0  0  0  0  0  0  0  0  0  0
  136.1640   78.6489  223.2293 H   0  0  0  0  0  0  0  0  0  0  0  0
  136.4873   79.8281  221.9528 H   0  0  0  0  0  0  0  0  0  0  0  0
  138.4744   78.4193  223.8269 H   0  0  0  0  0  0  0  0  0  0  0  0
  138.6972   78.7191  222.1407 H   0  0  0  0  0  0  0  0  0  0  0  0
  139.0841   77.3103  221.2502 H   0  0  0  0  0  0  0  0  0  0  0  0
  139.6774   74.9369  221.4798 H   0  0  0  0  0  0  0  0  0  0  0  0
  141.3379   73.1564  221.1806 H   0  0  0  0  0  0  0  0  0  0  0  0
  145.1374   74.1889  219.5080 H   0  0  0  0  0  0  0  0  0  0  0  0
  144.4642   76.5586  219.3119 H   0  0  0  0  0  0  0  0  0  0  0  0
  1  2  2  0
  2  3  1  0
  3  4  1  0
  4  5  1  0
  5  6  2  0
  5  7  1  0
  7  8  1  0
  8  9  1  0
  9 10  1  0
  9 11  1  0
 11 12  1  0
 12 13  1  0
 13 14  1  0
 14 15  1  0
 15 16  1  0
 16 17  1  0
  2 18  1  0
 18 19  2  0
 19 20  1  0
 20 21  2  0
 21 22  1  0
 22 23  2  0
 23 24  1  0
 23 25  1  0
 25 26  2  0
 26 27  1  0
 27 28  2  0
 12  7  1  0
 17 13  1  0
 28 18  1  0
 27 21  1  0
  3 29  1  0
  4 30  1  0
  4 31  1  0
  8 32  1  0
  8 33  1  0
  9 34  1  1
 10 35  1  0
 11 36  1  0
 11 37  1  0
 12 38  1  1
 13 39  1  0
 14 40  1  0
 14 41  1  0
 15 42  1  0
 15 43  1  0
 16 44  1  0
 16 45  1  0
 17 46  1  0
 17 47  1  0
 19 48  1  0
 20 49  1  0
 22 50  1  0
 25 51  1  0
 26 52  1  0
M  END
>  <smiles>  (24) 
O=C(NCC(=O)N1C[C@H](O)C[C@@H]1C1CCCC1)c1ccc2cc(Cl)ccc2n1

>  <score_type>  (24) 
oracle

>  <origin>  (24) 
autodockgpu

>  <m_score__min__energy>  (24) 
-8.4199999999999999

>  <m_primary>  (24) 
energy

>  <rmsd>  (24) 
8.101887810468956

>  <m_score__min__rmsd>  (24) 
8.101887810468956

>  <meeko>  (24) 
{"free_energy": -6.4, "intermolecular_energy": -8.19, "internal_energy": -3.8, "cluster_size": 15, "cluster_id": 6, "rank_in_cluster": 6}

>  <energy>  (24) 
-7.53

>  <cluster_rmsd>  (24) 
1.61

>  <cluster>  (24) 
2

$$$$

     RDKit          3D

 52 55  0  0  0  0  0  0  0  0999 V2000
  139.4100   79.6720  220.1650 O   0  0  0  0  0  0  0  0  0  0  0  0
  140.6230   79.4020  220.3420 C   0  0  0  0  0  0  0  0  0  0  0  0
  141.6530   80.3530  220.4430 N   0  0  0  0  0  0  0  0  0  0  0  0
  141.3930   81.7750  220.3490 C   0  0  0  0  0  0  0  0  0  0  0  0
  140.7690   82.1840  221.6570 C   0  0  0  0  0  0  0  0  0  0  0  0
  140.0580   83.2160  221.5990 O   0  0  0  0  0  0  0  0  0  0  0  0
  141.0290   81.4000  222.7830 N   0  0  0  0  0  0  0  0  0  0  0  0
  142.4100   81.1500  223.3160 C   0  0  0  0  0  0  0  0  0  0  0  0
  142.4200   79.6560  223.5670 C   0  0  2  0  0  0  0  0  0  0  0  0
  143.1350   79.0590  222.5470 O   0  0  0  0  0  0  0  0  0  0  0  0
  140.9480   79.2810  223.5630 C   0  0  0  0  0  0  0  0  0  0  0  0
  140.2570   80.6180  223.7130 C   0  0  2  0  0  0  0  0  0  0  0  0
  138.8210   80.5900  223.4780 C   0  0  0  0  0  0  0  0  0  0  0  0
  137.9510   80.9170  224.6630 C   0  0  0  0  0  0  0  0  0  0  0  0
  136.5630   80.6950  224.0360 C   0  0  0  0  0  0  0  0  0  0  0  0
  136.7770   79.5760  223.0190 C   0  0  0  0  0  0  0  0  0  0  0  0
  138.2680   79.2260  223.1020 C   0  0  0  0  0  0  0  0  0  0  0  0
  140.9900   77.9780  220.4530 C   0  0  0  0  0  0  0  0  0  0  0  0
  140.1180   77.0390  220.9710 C   0  0  0  0  0  0  0  0  0  0  0  0
  140.4300   75.7020  221.0870 C   0  0  0  0  0  0  0  0  0  0  0  0
  141.6710   75.2640  220.6710 C   0  0  0  0  0  0  0  0  0  0  0  0
  142.0410   73.9460  220.7600 C   0  0  0  0  0  0  0  0  0  0  0  0
  143.3000   73.5530  220.3280 C   0  0  0  0  0  0  0  0  0  0  0  0
  143.7370   71.8750  220.4560 Cl  0  0  0  0  0  0  0  0  0  0  0  0
  144.1350   74.5230  219.8190 C   0  0  0  0  0  0  0  0  0  0  0  0
  143.7830   75.8530  219.7200 C   0  0  0  0  0  0  0  0  0  0  0  0
  142.5260   76.2140  220.1570 C   0  0  0  0  0  0  0  0  0  0  0  0
  142.1950   77.5210  220.0540 N   0  0  0  0  0  0  0  0  0  0  0  0
  142.6390   80.0440  220.5890 H   0  0  0  0  0  0  0  0  0  0  0  0
  142.3331   82.3232  220.1888 H   0  0  0  0  0  0  0  0  0  0  0  0
  140.7276   82.0022  219.5031 H   0  0  0  0  0  0  0  0  0  0  0  0
  143.1747   81.4308  222.5768 H   0  0  0  0  0  0  0  0  0  0  0  0
  142.6379   81.7398  224.2161 H   0  0  0  0  0  0  0  0  0  0  0  0
  142.8947   79.3377  224.5068 H   0  0  0  0  0  0  0  0  0  0  0  0
  142.6420   78.3350  222.0840 H   0  0  0  0  0  0  0  0  0  0  0  0
  140.6664   78.7941  222.6177 H   0  0  0  0  0  0  0  0  0  0  0  0
  140.6809   78.5635  224.3528 H   0  0  0  0  0  0  0  0  0  0  0  0
  140.2497   81.0239  224.7353 H   0  0  0  0  0  0  0  0  0  0  0  0
  138.7697   81.3442  222.6790 H   0  0  0  0  0  0  0  0  0  0  0  0
  138.1335   80.2340  225.5057 H   0  0  0  0  0  0  0  0  0  0  0  0
  138.1117   81.9146  225.0978 H   0  0  0  0  0  0  0  0  0  0  0  0
  135.8347   80.3902  224.8019 H   0  0  0  0  0  0  0  0  0  0  0  0
  136.1619   81.6091  223.5738 H   0  0  0  0  0  0  0  0  0  0  0  0
  136.1619   78.7008  223.2753 H   0  0  0  0  0  0  0  0  0  0  0  0
  136.4866   79.8859  222.0043 H   0  0  0  0  0  0  0  0  0  0  0  0
  138.4707   78.4724  223.8772 H   0  0  0  0  0  0  0  0  0  0  0  0
  138.6970   78.7796  222.1928 H   0  0  0  0  0  0  0  0  0  0  0  0
  139.1262   77.3757  221.3071 H   0  0  0  0  0  0  0  0  0  0  0  0
  139.7001   74.9934  221.5054 H   0  0  0  0  0  0  0  0  0  0  0  0
  141.3422   73.2032  221.1723 H   0  0  0  0  0  0  0  0  0  0  0  0
  145.1347   74.2213  219.4734 H   0  0  0  0  0  0  0  0  0  0  0  0
  144.4793   76.5981  219.3077 H   0  0  0  0  0  0  0  0  0  0  0  0
  1  2  2  0
  2  3  1  0
  3  4  1  0
  4  5  1  0
  5  6  2  0
  5  7  1  0
  7  8  1  0
  8  9  1  0
  9 10  1  0
  9 11  1  0
 11 12  1  0
 12 13  1  0
 13 14  1  0
 14 15  1  0
 15 16  1  0
 16 17  1  0
  2 18  1  0
 18 19  2  0
 19 20  1  0
 20 21  2  0
 21 22  1  0
 22 23  2  0
 23 24  1  0
 23 25  1  0
 25 26  2  0
 26 27  1  0
 27 28  2  0
 12  7  1  0
 17 13  1  0
 28 18  1  0
 27 21  1  0
  3 29  1  0
  4 30  1  0
  4 31  1  0
  8 32  1  0
  8 33  1  0
  9 34  1  1
 10 35  1  0
 11 36  1  0
 11 37  1  0
 12 38  1  1
 13 39  1  0
 14 40  1  0
 14 41  1  0
 15 42  1  0
 15 43  1  0
 16 44  1  0
 16 45  1  0
 17 46  1  0
 17 47  1  0
 19 48  1  0
 20 49  1  0
 22 50  1  0
 25 51  1  0
 26 52  1  0
M  END
>  <smiles>  (25) 
O=C(NCC(=O)N1C[C@H](O)C[C@@H]1C1CCCC1)c1ccc2cc(Cl)ccc2n1

>  <score_type>  (25) 
oracle

>  <origin>  (25) 
autodockgpu

>  <m_score__min__energy>  (25) 
-8.4199999999999999

>  <m_primary>  (25) 
energy

>  <rmsd>  (25) 
8.157856843454917

>  <m_score__min__rmsd>  (25) 
8.157856843454917

>  <meeko>  (25) 
{"free_energy": -6.41, "intermolecular_energy": -8.2, "internal_energy": -3.73, "cluster_size": 15, "cluster_id": 6, "rank_in_cluster": 2}

>  <energy>  (25) 
-7.53

>  <cluster_rmsd>  (25) 
1.6

>  <cluster>  (25) 
2

$$$$

     RDKit          3D

 52 55  0  0  0  0  0  0  0  0999 V2000
  134.7110   68.4970  225.1850 O   0  0  0  0  0  0  0  0  0  0  0  0
  135.1330   69.6530  224.9340 C   0  0  0  0  0  0  0  0  0  0  0  0
  136.2230   69.9480  224.0970 N   0  0  0  0  0  0  0  0  0  0  0  0
  136.9780   68.9070  223.4290 C   0  0  0  0  0  0  0  0  0  0  0  0
  138.3440   68.8950  224.0630 C   0  0  0  0  0  0  0  0  0  0  0  0
  138.8640   67.7580  224.1650 O   0  0  0  0  0  0  0  0  0  0  0  0
  138.8940   70.1140  224.4650 N   0  0  0  0  0  0  0  0  0  0  0  0
  138.8510   71.3580  223.6260 C   0  0  0  0  0  0  0  0  0  0  0  0
  140.2690   71.8850  223.7130 C   0  0  2  0  0  0  0  0  0  0  0  0
  140.9070   71.5830  222.5260 O   0  0  0  0  0  0  0  0  0  0  0  0
  140.8520   71.1510  224.9080 C   0  0  0  0  0  0  0  0  0  0  0  0
  139.6240   70.6060  225.6040 C   0  0  2  0  0  0  0  0  0  0  0  0
  139.9000   69.6310  226.6480 C   0  0  0  0  0  0  0  0  0  0  0  0
  140.4240   70.1850  227.9470 C   0  0  0  0  0  0  0  0  0  0  0  0
  140.6600   68.8720  228.7140 C   0  0  0  0  0  0  0  0  0  0  0  0
  141.0480   67.8630  227.6360 C   0  0  0  0  0  0  0  0  0  0  0  0
  141.0000   68.6380  226.3130 C   0  0  0  0  0  0  0  0  0  0  0  0
  134.4270   70.7830  225.5670 C   0  0  0  0  0  0  0  0  0  0  0  0
  133.4290   70.5860  226.5030 C   0  0  0  0  0  0  0  0  0  0  0  0
  132.7530   71.6200  227.1120 C   0  0  0  0  0  0  0  0  0  0  0  0
  133.0740   72.9210  226.7810 C   0  0  0  0  0  0  0  0  0  0  0  0
  132.4360   73.9930  227.3530 C   0  0  0  0  0  0  0  0  0  0  0  0
  132.7950   75.2820  226.9880 C   0  0  0  0  0  0  0  0  0  0  0  0
  131.9660   76.6180  227.7310 Cl  0  0  0  0  0  0  0  0  0  0  0  0
  133.7940   75.4300  226.0510 C   0  0  0  0  0  0  0  0  0  0  0  0
  134.4470   74.3660  225.4650 C   0  0  0  0  0  0  0  0  0  0  0  0
  134.0700   73.0970  225.8460 C   0  0  0  0  0  0  0  0  0  0  0  0
  134.7210   72.0640  225.2630 N   0  0  0  0  0  0  0  0  0  0  0  0
  136.5110   70.9390  223.9420 H   0  0  0  0  0  0  0  0  0  0  0  0
  136.4863   67.9328  223.5674 H   0  0  0  0  0  0  0  0  0  0  0  0
  137.0434   69.0951  222.3472 H   0  0  0  0  0  0  0  0  0  0  0  0
  138.5809   71.1229  222.5859 H   0  0  0  0  0  0  0  0  0  0  0  0
  138.0996   72.0840  223.9701 H   0  0  0  0  0  0  0  0  0  0  0  0
  140.3622   72.9727  223.8478 H   0  0  0  0  0  0  0  0  0  0  0  0
  140.6420   70.7100  222.1410 H   0  0  0  0  0  0  0  0  0  0  0  0
  141.5179   70.3369  224.5857 H   0  0  0  0  0  0  0  0  0  0  0  0
  141.4673   71.7943  225.5543 H   0  0  0  0  0  0  0  0  0  0  0  0
  139.0674   71.3401  226.2051 H   0  0  0  0  0  0  0  0  0  0  0  0
  138.8947   69.1930  226.7342 H   0  0  0  0  0  0  0  0  0  0  0  0
  141.3575   70.7492  227.8044 H   0  0  0  0  0  0  0  0  0  0  0  0
  139.7596   70.9043  228.4483 H   0  0  0  0  0  0  0  0  0  0  0  0
  141.4724   68.9902  229.4462 H   0  0  0  0  0  0  0  0  0  0  0  0
  139.7736   68.5554  229.2832 H   0  0  0  0  0  0  0  0  0  0  0  0
  142.0615   67.4762  227.8184 H   0  0  0  0  0  0  0  0  0  0  0  0
  140.3711   66.9960  227.6259 H   0  0  0  0  0  0  0  0  0  0  0  0
  141.9545   69.1399  226.0959 H   0  0  0  0  0  0  0  0  0  0  0  0
  140.8228   68.0258  225.4164 H   0  0  0  0  0  0  0  0  0  0  0  0
  133.1619   69.5540  226.7744 H   0  0  0  0  0  0  0  0  0  0  0  0
  131.9671   71.4116  227.8529 H   0  0  0  0  0  0  0  0  0  0  0  0
  131.6431   73.8306  228.0979 H   0  0  0  0  0  0  0  0  0  0  0  0
  134.0856   76.4486  225.7552 H   0  0  0  0  0  0  0  0  0  0  0  0
  135.2405   74.5250  224.7200 H   0  0  0  0  0  0  0  0  0  0  0  0
  1  2  2  0
  2  3  1  0
  3  4  1  0
  4  5  1  0
  5  6  2  0
  5  7  1  0
  7  8  1  0
  8  9  1  0
  9 10  1  0
  9 11  1  0
 11 12  1  0
 12 13  1  0
 13 14  1  0
 14 15  1  0
 15 16  1  0
 16 17  1  0
  2 18  1  0
 18 19  2  0
 19 20  1  0
 20 21  2  0
 21 22  1  0
 22 23  2  0
 23 24  1  0
 23 25  1  0
 25 26  2  0
 26 27  1  0
 27 28  2  0
 12  7  1  0
 17 13  1  0
 28 18  1  0
 27 21  1  0
  3 29  1  0
  4 30  1  0
  4 31  1  0
  8 32  1  0
  8 33  1  0
  9 34  1  1
 10 35  1  0
 11 36  1  0
 11 37  1  0
 12 38  1  1
 13 39  1  0
 14 40  1  0
 14 41  1  0
 15 42  1  0
 15 43  1  0
 16 44  1  0
 16 45  1  0
 17 46  1  0
 17 47  1  0
 19 48  1  0
 20 49  1  0
 22 50  1  0
 25 51  1  0
 26 52  1  0
M  END
>  <smiles>  (26) 
O=C(NCC(=O)N1C[C@H](O)C[C@@H]1C1CCCC1)c1ccc2cc(Cl)ccc2n1

>  <score_type>  (26) 
oracle

>  <origin>  (26) 
autodockgpu

>  <m_score__min__energy>  (26) 
-8.4199999999999999

>  <m_primary>  (26) 
energy

>  <rmsd>  (26) 
7.44694595545267

>  <m_score__min__rmsd>  (26) 
7.44694595545267

>  <meeko>  (26) 
{"free_energy": -8.02, "intermolecular_energy": -9.81, "internal_energy": -1.78, "cluster_size": 13, "cluster_id": 2, "rank_in_cluster": 3}

>  <energy>  (26) 
-7.52

>  <cluster_rmsd>  (26) 
1.61

>  <cluster>  (26) 
2

$$$$

     RDKit          3D

 52 55  0  0  0  0  0  0  0  0999 V2000
  139.1000   71.9470  220.7410 O   0  0  0  0  0  0  0  0  0  0  0  0
  139.3370   72.4460  221.8680 C   0  0  0  0  0  0  0  0  0  0  0  0
  139.4480   73.8220  222.1320 N   0  0  0  0  0  0  0  0  0  0  0  0
  139.2910   74.8150  221.0890 C   0  0  0  0  0  0  0  0  0  0  0  0
  140.3410   75.8660  221.3370 C   0  0  0  0  0  0  0  0  0  0  0  0
  141.0670   75.6560  222.3370 O   0  0  0  0  0  0  0  0  0  0  0  0
  140.4110   76.9470  220.4550 N   0  0  0  0  0  0  0  0  0  0  0  0
  139.9010   76.8980  219.0440 C   0  0  0  0  0  0  0  0  0  0  0  0
  141.0270   77.5210  218.2450 C   0  0  2  0  0  0  0  0  0  0  0  0
  141.7120   76.5020  217.6120 O   0  0  0  0  0  0  0  0  0  0  0  0
  141.8590   78.2380  219.2940 C   0  0  0  0  0  0  0  0  0  0  0  0
  140.9280   78.2900  220.4870 C   0  0  2  0  0  0  0  0  0  0  0  0
  141.5600   78.6960  221.7330 C   0  0  0  0  0  0  0  0  0  0  0  0
  140.6420   78.8670  222.9140 C   0  0  0  0  0  0  0  0  0  0  0  0
  141.6530   79.3680  223.9600 C   0  0  0  0  0  0  0  0  0  0  0  0
  142.6760   80.1640  223.1530 C   0  0  0  0  0  0  0  0  0  0  0  0
  142.2110   80.0680  221.6940 C   0  0  0  0  0  0  0  0  0  0  0  0
  139.5110   71.5130  222.9970 C   0  0  0  0  0  0  0  0  0  0  0  0
  139.0700   70.2040  222.9370 C   0  0  0  0  0  0  0  0  0  0  0  0
  139.2180   69.3100  223.9730 C   0  0  0  0  0  0  0  0  0  0  0  0
  139.8340   69.7250  225.1370 C   0  0  0  0  0  0  0  0  0  0  0  0
  140.0110   68.8820  226.2040 C   0  0  0  0  0  0  0  0  0  0  0  0
  140.6360   69.3460  227.3520 C   0  0  0  0  0  0  0  0  0  0  0  0
  140.8440   68.2510  228.6870 Cl  0  0  0  0  0  0  0  0  0  0  0  0
  141.0580   70.6570  227.3680 C   0  0  0  0  0  0  0  0  0  0  0  0
  140.8900   71.5210  226.3070 C   0  0  0  0  0  0  0  0  0  0  0  0
  140.2660   71.0330  225.1790 C   0  0  0  0  0  0  0  0  0  0  0  0
  140.1090   71.8920  224.1460 N   0  0  0  0  0  0  0  0  0  0  0  0
  139.6490   74.1540  223.1000 H   0  0  0  0  0  0  0  0  0  0  0  0
  139.4398   74.3550  220.1010 H   0  0  0  0  0  0  0  0  0  0  0  0
  138.2811   75.2507  221.1036 H   0  0  0  0  0  0  0  0  0  0  0  0
  139.7194   75.8606  218.7264 H   0  0  0  0  0  0  0  0  0  0  0  0
  138.9413   77.4198  218.9147 H   0  0  0  0  0  0  0  0  0  0  0  0
  140.7157   78.2227  217.4572 H   0  0  0  0  0  0  0  0  0  0  0  0
  141.2180   75.6440  217.5870 H   0  0  0  0  0  0  0  0  0  0  0  0
  142.7724   77.6720  219.5293 H   0  0  0  0  0  0  0  0  0  0  0  0
  142.2053   79.2304  218.9698 H   0  0  0  0  0  0  0  0  0  0  0  0
  140.1500   79.0659  220.4348 H   0  0  0  0  0  0  0  0  0  0  0  0
  142.2612   77.8558  221.8442 H   0  0  0  0  0  0  0  0  0  0  0  0
  139.8553   79.6100  222.7166 H   0  0  0  0  0  0  0  0  0  0  0  0
  140.0817   77.9655  223.2025 H   0  0  0  0  0  0  0  0  0  0  0  0
  141.1578   80.0113  224.7023 H   0  0  0  0  0  0  0  0  0  0  0  0
  142.1148   78.5438  224.5234 H   0  0  0  0  0  0  0  0  0  0  0  0
  142.6935   81.2133  223.4827 H   0  0  0  0  0  0  0  0  0  0  0  0
  143.6947   79.7702  223.2835 H   0  0  0  0  0  0  0  0  0  0  0  0
  141.4894   80.8583  221.4397 H   0  0  0  0  0  0  0  0  0  0  0  0
  143.0019   80.1916  220.9396 H   0  0  0  0  0  0  0  0  0  0  0  0
  138.5766   69.8601  222.0160 H   0  0  0  0  0  0  0  0  0  0  0  0
  138.8502   68.2780  223.8749 H   0  0  0  0  0  0  0  0  0  0  0  0
  139.6585   67.8414  226.1496 H   0  0  0  0  0  0  0  0  0  0  0  0
  141.5547   71.0341  228.2741 H   0  0  0  0  0  0  0  0  0  0  0  0
  141.2412   72.5622  226.3587 H   0  0  0  0  0  0  0  0  0  0  0  0
  1  2  2  0
  2  3  1  0
  3  4  1  0
  4  5  1  0
  5  6  2  0
  5  7  1  0
  7  8  1  0
  8  9  1  0
  9 10  1  0
  9 11  1  0
 11 12  1  0
 12 13  1  0
 13 14  1  0
 14 15  1  0
 15 16  1  0
 16 17  1  0
  2 18  1  0
 18 19  2  0
 19 20  1  0
 20 21  2  0
 21 22  1  0
 22 23  2  0
 23 24  1  0
 23 25  1  0
 25 26  2  0
 26 27  1  0
 27 28  2  0
 12  7  1  0
 17 13  1  0
 28 18  1  0
 27 21  1  0
  3 29  1  0
  4 30  1  0
  4 31  1  0
  8 32  1  0
  8 33  1  0
  9 34  1  6
 10 35  1  0
 11 36  1  0
 11 37  1  0
 12 38  1  6
 13 39  1  0
 14 40  1  0
 14 41  1  0
 15 42  1  0
 15 43  1  0
 16 44  1  0
 16 45  1  0
 17 46  1  0
 17 47  1  0
 19 48  1  0
 20 49  1  0
 22 50  1  0
 25 51  1  0
 26 52  1  0
M  END
>  <smiles>  (27) 
O=C(NCC(=O)N1C[C@H](O)C[C@@H]1C1CCCC1)c1ccc2cc(Cl)ccc2n1

>  <score_type>  (27) 
oracle

>  <origin>  (27) 
autodockgpu

>  <m_score__min__energy>  (27) 
-8.4199999999999999

>  <m_primary>  (27) 
energy

>  <rmsd>  (27) 
1.5481197694843314

>  <m_score__min__rmsd>  (27) 
1.5481197694843314

>  <meeko>  (27) 
{"free_energy": -7.98, "intermolecular_energy": -9.77, "internal_energy": -2.05, "cluster_size": 14, "cluster_id": 1, "rank_in_cluster": 11}

>  <energy>  (27) 
-7.36

>  <cluster_rmsd>  (27) 
1.92

>  <cluster>  (27) 
2

$$$$

     RDKit          3D

 52 55  0  0  0  0  0  0  0  0999 V2000
  139.2400   72.0070  220.7910 O   0  0  0  0  0  0  0  0  0  0  0  0
  139.3910   72.4840  221.9420 C   0  0  0  0  0  0  0  0  0  0  0  0
  139.4190   73.8560  222.2480 N   0  0  0  0  0  0  0  0  0  0  0  0
  139.2690   74.8710  221.2240 C   0  0  0  0  0  0  0  0  0  0  0  0
  140.5590   75.6480  221.1990 C   0  0  0  0  0  0  0  0  0  0  0  0
  141.4450   75.2180  221.9740 O   0  0  0  0  0  0  0  0  0  0  0  0
  140.6480   76.7440  220.3380 N   0  0  0  0  0  0  0  0  0  0  0  0
  141.0040   76.6280  218.8840 C   0  0  0  0  0  0  0  0  0  0  0  0
  142.0360   77.7200  218.6900 C   0  0  2  0  0  0  0  0  0  0  0  0
  143.2800   77.1230  218.6350 O   0  0  0  0  0  0  0  0  0  0  0  0
  141.8540   78.6080  219.9100 C   0  0  0  0  0  0  0  0  0  0  0  0
  140.5070   78.1730  220.4470 C   0  0  2  0  0  0  0  0  0  0  0  0
  140.1900   78.6790  221.7730 C   0  0  0  0  0  0  0  0  0  0  0  0
  139.7410   80.1140  221.8440 C   0  0  0  0  0  0  0  0  0  0  0  0
  139.6010   80.2690  223.3680 C   0  0  0  0  0  0  0  0  0  0  0  0
  140.6780   79.3550  223.9470 C   0  0  0  0  0  0  0  0  0  0  0  0
  141.3660   78.7140  222.7340 C   0  0  0  0  0  0  0  0  0  0  0  0
  139.5510   71.5290  223.0540 C   0  0  0  0  0  0  0  0  0  0  0  0
  139.1180   70.2200  222.9580 C   0  0  0  0  0  0  0  0  0  0  0  0
  139.2540   69.3040  223.9780 C   0  0  0  0  0  0  0  0  0  0  0  0
  139.8470   69.6980  225.1610 C   0  0  0  0  0  0  0  0  0  0  0  0
  140.0110   68.8330  226.2130 C   0  0  0  0  0  0  0  0  0  0  0  0
  140.6140   69.2760  227.3810 C   0  0  0  0  0  0  0  0  0  0  0  0
  140.8050   68.1540  228.6960 Cl  0  0  0  0  0  0  0  0  0  0  0  0
  141.0290   70.5880  227.4320 C   0  0  0  0  0  0  0  0  0  0  0  0
  140.8750   71.4740  226.3860 C   0  0  0  0  0  0  0  0  0  0  0  0
  140.2720   71.0060  225.2380 C   0  0  0  0  0  0  0  0  0  0  0  0
  140.1280   71.8860  224.2210 N   0  0  0  0  0  0  0  0  0  0  0  0
  139.5520   74.1700  223.2340 H   0  0  0  0  0  0  0  0  0  0  0  0
  139.0899   74.4004  220.2460 H   0  0  0  0  0  0  0  0  0  0  0  0
  138.4132   75.5281  221.4379 H   0  0  0  0  0  0  0  0  0  0  0  0
  141.4301   75.6388  218.6603 H   0  0  0  0  0  0  0  0  0  0  0  0
  140.1348   76.7337  218.2181 H   0  0  0  0  0  0  0  0  0  0  0  0
  141.9325   78.3094  217.7670 H   0  0  0  0  0  0  0  0  0  0  0  0
  143.9130   77.4540  219.3220 H   0  0  0  0  0  0  0  0  0  0  0  0
  142.6499   78.4332  220.6490 H   0  0  0  0  0  0  0  0  0  0  0  0
  141.9025   79.6819  219.6768 H   0  0  0  0  0  0  0  0  0  0  0  0
  139.6391   78.5756  219.9041 H   0  0  0  0  0  0  0  0  0  0  0  0
  139.3986   77.9623  222.0377 H   0  0  0  0  0  0  0  0  0  0  0  0
  140.4953   80.7997  221.4306 H   0  0  0  0  0  0  0  0  0  0  0  0
  138.8338   80.3469  221.2672 H   0  0  0  0  0  0  0  0  0  0  0  0
  139.7735   81.3126  223.6699 H   0  0  0  0  0  0  0  0  0  0  0  0
  138.5940   80.0057  223.7239 H   0  0  0  0  0  0  0  0  0  0  0  0
  141.4014   79.9381  224.5358 H   0  0  0  0  0  0  0  0  0  0  0  0
  140.2518   78.5982  224.6221 H   0  0  0  0  0  0  0  0  0  0  0  0
  142.1898   79.3354  222.3529 H   0  0  0  0  0  0  0  0  0  0  0  0
  141.8454   77.7426  222.9251 H   0  0  0  0  0  0  0  0  0  0  0  0
  138.6417   69.8937  222.0217 H   0  0  0  0  0  0  0  0  0  0  0  0
  138.8948   68.2720  223.8516 H   0  0  0  0  0  0  0  0  0  0  0  0
  139.6656   67.7919  226.1306 H   0  0  0  0  0  0  0  0  0  0  0  0
  141.5080   70.9481  228.3544 H   0  0  0  0  0  0  0  0  0  0  0  0
  141.2205   72.5153  226.4650 H   0  0  0  0  0  0  0  0  0  0  0  0
  1  2  2  0
  2  3  1  0
  3  4  1  0
  4  5  1  0
  5  6  2  0
  5  7  1  0
  7  8  1  0
  8  9  1  0
  9 10  1  0
  9 11  1  0
 11 12  1  0
 12 13  1  0
 13 14  1  0
 14 15  1  0
 15 16  1  0
 16 17  1  0
  2 18  1  0
 18 19  2  0
 19 20  1  0
 20 21  2  0
 21 22  1  0
 22 23  2  0
 23 24  1  0
 23 25  1  0
 25 26  2  0
 26 27  1  0
 27 28  2  0
 12  7  1  0
 17 13  1  0
 28 18  1  0
 27 21  1  0
  3 29  1  0
  4 30  1  0
  4 31  1  0
  8 32  1  0
  8 33  1  0
  9 34  1  6
 10 35  1  0
 11 36  1  0
 11 37  1  0
 12 38  1  6
 13 39  1  0
 14 40  1  0
 14 41  1  0
 15 42  1  0
 15 43  1  0
 16 44  1  0
 16 45  1  0
 17 46  1  0
 17 47  1  0
 19 48  1  0
 20 49  1  0
 22 50  1  0
 25 51  1  0
 26 52  1  0
M  END
>  <smiles>  (28) 
O=C(NCC(=O)N1C[C@H](O)C[C@@H]1C1CCCC1)c1ccc2cc(Cl)ccc2n1

>  <score_type>  (28) 
oracle

>  <origin>  (28) 
autodockgpu

>  <m_score__min__energy>  (28) 
-8.4199999999999999

>  <m_primary>  (28) 
energy

>  <rmsd>  (28) 
1.7186576233444275

>  <m_score__min__rmsd>  (28) 
1.7186576233444275

>  <meeko>  (28) 
{"free_energy": -8.19, "intermolecular_energy": -9.98, "internal_energy": -1.75, "cluster_size": 14, "cluster_id": 1, "rank_in_cluster": 2}

>  <energy>  (28) 
-7.97

>  <cluster_rmsd>  (28) 
0.0

>  <cluster>  (28) 
3

$$$$

     RDKit          3D

 52 55  0  0  0  0  0  0  0  0999 V2000
  134.8660   68.5200  225.2200 O   0  0  0  0  0  0  0  0  0  0  0  0
  135.1870   69.7020  224.9410 C   0  0  0  0  0  0  0  0  0  0  0  0
  136.2120   70.0690  224.0520 N   0  0  0  0  0  0  0  0  0  0  0  0
  137.0120   69.0810  223.3570 C   0  0  0  0  0  0  0  0  0  0  0  0
  138.3210   68.9900  224.0980 C   0  0  0  0  0  0  0  0  0  0  0  0
  138.7430   67.8230  224.2750 O   0  0  0  0  0  0  0  0  0  0  0  0
  138.9280   70.1800  224.5080 N   0  0  0  0  0  0  0  0  0  0  0  0
  138.9280   71.4350  223.6850 C   0  0  0  0  0  0  0  0  0  0  0  0
  140.3680   71.8990  223.7590 C   0  0  2  0  0  0  0  0  0  0  0  0
  140.9760   71.5860  222.5590 O   0  0  0  0  0  0  0  0  0  0  0  0
  140.9350   71.1260  224.9360 C   0  0  0  0  0  0  0  0  0  0  0  0
  139.6940   70.6250  225.6420 C   0  0  2  0  0  0  0  0  0  0  0  0
  139.9420   69.6260  226.6710 C   0  0  0  0  0  0  0  0  0  0  0  0
  140.4850   70.1420  227.9770 C   0  0  0  0  0  0  0  0  0  0  0  0
  140.6820   68.8110  228.7220 C   0  0  0  0  0  0  0  0  0  0  0  0
  141.0360   67.8080  227.6280 C   0  0  0  0  0  0  0  0  0  0  0  0
  141.0100   68.6050  226.3170 C   0  0  0  0  0  0  0  0  0  0  0  0
  134.4280   70.7810  225.5970 C   0  0  0  0  0  0  0  0  0  0  0  0
  133.3990   70.5150  226.4820 C   0  0  0  0  0  0  0  0  0  0  0  0
  132.6710   71.5010  227.1110 C   0  0  0  0  0  0  0  0  0  0  0  0
  132.9710   72.8240  226.8560 C   0  0  0  0  0  0  0  0  0  0  0  0
  132.2830   73.8510  227.4520 C   0  0  0  0  0  0  0  0  0  0  0  0
  132.6220   75.1650  227.1630 C   0  0  0  0  0  0  0  0  0  0  0  0
  131.7290   76.4420  227.9350 Cl  0  0  0  0  0  0  0  0  0  0  0  0
  133.6530   75.3830  226.2760 C   0  0  0  0  0  0  0  0  0  0  0  0
  134.3570   74.3650  225.6670 C   0  0  0  0  0  0  0  0  0  0  0  0
  133.9990   73.0700  225.9720 C   0  0  0  0  0  0  0  0  0  0  0  0
  134.6990   72.0830  225.3670 N   0  0  0  0  0  0  0  0  0  0  0  0
  136.4160   71.0770  223.8760 H   0  0  0  0  0  0  0  0  0  0  0  0
  136.5026   68.1061  223.3649 H   0  0  0  0  0  0  0  0  0  0  0  0
  137.1694   69.3653  222.3061 H   0  0  0  0  0  0  0  0  0  0  0  0
  138.6344   71.2250  222.6459 H   0  0  0  0  0  0  0  0  0  0  0  0
  138.2134   72.1883  224.0481 H   0  0  0  0  0  0  0  0  0  0  0  0
  140.5100   72.9798  223.9066 H   0  0  0  0  0  0  0  0  0  0  0  0
  140.6440   70.7470  222.1500 H   0  0  0  0  0  0  0  0  0  0  0  0
  141.5612   70.2885  224.5946 H   0  0  0  0  0  0  0  0  0  0  0  0
  141.5859   71.7340  225.5815 H   0  0  0  0  0  0  0  0  0  0  0  0
  139.1772   71.3744  226.2596 H   0  0  0  0  0  0  0  0  0  0  0  0
  138.9235   69.2188  226.7537 H   0  0  0  0  0  0  0  0  0  0  0  0
  141.4351   70.6795  227.8413 H   0  0  0  0  0  0  0  0  0  0  0  0
  139.8438   70.8729  228.4914 H   0  0  0  0  0  0  0  0  0  0  0  0
  141.4993   68.8925  229.4537 H   0  0  0  0  0  0  0  0  0  0  0  0
  139.7874   68.5129  229.2884 H   0  0  0  0  0  0  0  0  0  0  0  0
  142.0371   67.3867  227.8020 H   0  0  0  0  0  0  0  0  0  0  0  0
  140.3321   66.9630  227.6059 H   0  0  0  0  0  0  0  0  0  0  0  0
  141.9792   69.0803  226.1056 H   0  0  0  0  0  0  0  0  0  0  0  0
  140.8125   68.0132  225.4110 H   0  0  0  0  0  0  0  0  0  0  0  0
  133.1497   69.4648  226.6940 H   0  0  0  0  0  0  0  0  0  0  0  0
  131.8613   71.2375  227.8073 H   0  0  0  0  0  0  0  0  0  0  0  0
  131.4662   73.6334  228.1559 H   0  0  0  0  0  0  0  0  0  0  0  0
  133.9290   76.4216  226.0414 H   0  0  0  0  0  0  0  0  0  0  0  0
  135.1747   74.5794  224.9632 H   0  0  0  0  0  0  0  0  0  0  0  0
  1  2  2  0
  2  3  1  0
  3  4  1  0
  4  5  1  0
  5  6  2  0
  5  7  1  0
  7  8  1  0
  8  9  1  0
  9 10  1  0
  9 11  1  0
 11 12  1  0
 12 13  1  0
 13 14  1  0
 14 15  1  0
 15 16  1  0
 16 17  1  0
  2 18  1  0
 18 19  2  0
 19 20  1  0
 20 21  2  0
 21 22  1  0
 22 23  2  0
 23 24  1  0
 23 25  1  0
 25 26  2  0
 26 27  1  0
 27 28  2  0
 12  7  1  0
 17 13  1  0
 28 18  1  0
 27 21  1  0
  3 29  1  0
  4 30  1  0
  4 31  1  0
  8 32  1  0
  8 33  1  0
  9 34  1  1
 10 35  1  0
 11 36  1  0
 11 37  1  0
 12 38  1  1
 13 39  1  0
 14 40  1  0
 14 41  1  0
 15 42  1  0
 15 43  1  0
 16 44  1  0
 16 45  1  0
 17 46  1  0
 17 47  1  0
 19 48  1  0
 20 49  1  0
 22 50  1  0
 25 51  1  0
 26 52  1  0
M  END
>  <smiles>  (29) 
O=C(NCC(=O)N1C[C@H](O)C[C@@H]1C1CCCC1)c1ccc2cc(Cl)ccc2n1

>  <score_type>  (29) 
oracle

>  <origin>  (29) 
autodockgpu

>  <m_score__min__energy>  (29) 
-8.4199999999999999

>  <m_primary>  (29) 
energy

>  <rmsd>  (29) 
7.444407508343545

>  <m_score__min__rmsd>  (29) 
7.444407508343545

>  <meeko>  (29) 
{"free_energy": -7.98, "intermolecular_energy": -9.77, "internal_energy": -1.78, "cluster_size": 13, "cluster_id": 2, "rank_in_cluster": 5}

>  <energy>  (29) 
-7.87

>  <cluster_rmsd>  (29) 
0.53

>  <cluster>  (29) 
3

$$$$

     RDKit          3D

 52 55  0  0  0  0  0  0  0  0999 V2000
  135.9140   70.6030  223.7100 O   0  0  0  0  0  0  0  0  0  0  0  0
  136.0510   71.8490  223.7940 C   0  0  0  0  0  0  0  0  0  0  0  0
  137.0140   72.6010  223.1000 N   0  0  0  0  0  0  0  0  0  0  0  0
  137.9620   71.9820  222.1960 C   0  0  0  0  0  0  0  0  0  0  0  0
  139.2070   71.7120  223.0010 C   0  0  0  0  0  0  0  0  0  0  0  0
  139.9650   72.7000  223.1400 O   0  0  0  0  0  0  0  0  0  0  0  0
  139.3980   70.4230  223.5040 N   0  0  0  0  0  0  0  0  0  0  0  0
  139.2000   69.1780  222.6900 C   0  0  0  0  0  0  0  0  0  0  0  0
  138.3890   68.2870  223.6080 C   0  0  2  0  0  0  0  0  0  0  0  0
  137.0790   68.3060  223.1680 O   0  0  0  0  0  0  0  0  0  0  0  0
  138.5690   68.9210  224.9760 C   0  0  0  0  0  0  0  0  0  0  0  0
  139.7540   69.8390  224.7710 C   0  0  2  0  0  0  0  0  0  0  0  0
  139.9920   70.7770  225.8570 C   0  0  0  0  0  0  0  0  0  0  0  0
  141.3400   71.4470  225.8690 C   0  0  0  0  0  0  0  0  0  0  0  0
  141.2180   72.2550  227.1730 C   0  0  0  0  0  0  0  0  0  0  0  0
  140.3350   71.3960  228.0750 C   0  0  0  0  0  0  0  0  0  0  0  0
  139.9850   70.1550  227.2430 C   0  0  0  0  0  0  0  0  0  0  0  0
  135.1290   72.5720  224.6890 C   0  0  0  0  0  0  0  0  0  0  0  0
  134.2080   71.9080  225.4780 C   0  0  0  0  0  0  0  0  0  0  0  0
  133.3340   72.5540  226.3250 C   0  0  0  0  0  0  0  0  0  0  0  0
  133.3660   73.9320  226.3990 C   0  0  0  0  0  0  0  0  0  0  0  0
  132.5210   74.6330  227.2220 C   0  0  0  0  0  0  0  0  0  0  0  0
  132.5910   76.0170  227.2620 C   0  0  0  0  0  0  0  0  0  0  0  0
  131.5060   76.8750  228.3150 Cl  0  0  0  0  0  0  0  0  0  0  0  0
  133.5230   76.6370  226.4580 C   0  0  0  0  0  0  0  0  0  0  0  0
  134.3810   75.9520  225.6240 C   0  0  0  0  0  0  0  0  0  0  0  0
  134.2890   74.5760  225.6050 C   0  0  0  0  0  0  0  0  0  0  0  0
  135.1370   73.9180  224.7820 N   0  0  0  0  0  0  0  0  0  0  0  0
  137.0610   73.6360  223.2280 H   0  0  0  0  0  0  0  0  0  0  0  0
  137.5523   71.0401  221.8022 H   0  0  0  0  0  0  0  0  0  0  0  0
  138.1773   72.6347  221.3372 H   0  0  0  0  0  0  0  0  0  0  0  0
  138.6479   69.3963  221.7639 H   0  0  0  0  0  0  0  0  0  0  0  0
  140.1465   68.7182  222.3694 H   0  0  0  0  0  0  0  0  0  0  0  0
  138.6936   67.2303  223.6324 H   0  0  0  0  0  0  0  0  0  0  0  0
  136.6250   69.1750  223.3050 H   0  0  0  0  0  0  0  0  0  0  0  0
  137.6742   69.4896  225.2693 H   0  0  0  0  0  0  0  0  0  0  0  0
  138.7241   68.1848  225.7785 H   0  0  0  0  0  0  0  0  0  0  0  0
  140.7332   69.3378  224.7686 H   0  0  0  0  0  0  0  0  0  0  0  0
  139.1626   71.4718  225.6589 H   0  0  0  0  0  0  0  0  0  0  0  0
  142.1602   70.7155  225.9160 H   0  0  0  0  0  0  0  0  0  0  0  0
  141.5727   72.0412  224.9730 H   0  0  0  0  0  0  0  0  0  0  0  0
  142.2071   72.4081  227.6293 H   0  0  0  0  0  0  0  0  0  0  0  0
  140.7954   73.2567  227.0059 H   0  0  0  0  0  0  0  0  0  0  0  0
  140.8808   71.1073  228.9853 H   0  0  0  0  0  0  0  0  0  0  0  0
  139.4342   71.9372  228.4000 H   0  0  0  0  0  0  0  0  0  0  0  0
  140.7445   69.3656  227.3430 H   0  0  0  0  0  0  0  0  0  0  0  0
  139.0505   69.6483  227.5257 H   0  0  0  0  0  0  0  0  0  0  0  0
  134.1712   70.8098  225.4270 H   0  0  0  0  0  0  0  0  0  0  0  0
  132.6205   71.9794  226.9339 H   0  0  0  0  0  0  0  0  0  0  0  0
  131.7908   74.0989  227.8477 H   0  0  0  0  0  0  0  0  0  0  0  0
  133.5855   77.7349  226.4830 H   0  0  0  0  0  0  0  0  0  0  0  0
  135.1120   76.4834  224.9969 H   0  0  0  0  0  0  0  0  0  0  0  0
  1  2  2  0
  2  3  1  0
  3  4  1  0
  4  5  1  0
  5  6  2  0
  5  7  1  0
  7  8  1  0
  8  9  1  0
  9 10  1  0
  9 11  1  0
 11 12  1  0
 12 13  1  0
 13 14  1  0
 14 15  1  0
 15 16  1  0
 16 17  1  0
  2 18  1  0
 18 19  2  0
 19 20  1  0
 20 21  2  0
 21 22  1  0
 22 23  2  0
 23 24  1  0
 23 25  1  0
 25 26  2  0
 26 27  1  0
 27 28  2  0
 12  7  1  0
 17 13  1  0
 28 18  1  0
 27 21  1  0
  3 29  1  0
  4 30  1  0
  4 31  1  0
  8 32  1  0
  8 33  1  0
  9 34  1  1
 10 35  1  0
 11 36  1  0
 11 37  1  0
 12 38  1  6
 13 39  1  0
 14 40  1  0
 14 41  1  0
 15 42  1  0
 15 43  1  0
 16 44  1  0
 16 45  1  0
 17 46  1  0
 17 47  1  0
 19 48  1  0
 20 49  1  0
 22 50  1  0
 25 51  1  0
 26 52  1  0
M  END
>  <smiles>  (30) 
O=C(NCC(=O)N1C[C@H](O)C[C@@H]1C1CCCC1)c1ccc2cc(Cl)ccc2n1

>  <score_type>  (30) 
oracle

>  <origin>  (30) 
autodockgpu

>  <m_score__min__energy>  (30) 
-8.4199999999999999

>  <m_primary>  (30) 
energy

>  <rmsd>  (30) 
7.564573509924964

>  <m_score__min__rmsd>  (30) 
7.564573509924964

>  <meeko>  (30) 
{"free_energy": -7.53, "intermolecular_energy": -9.32, "internal_energy": -2.75, "cluster_size": 13, "cluster_id": 2, "rank_in_cluster": 11}

>  <energy>  (30) 
-7.74

>  <cluster_rmsd>  (30) 
1.33

>  <cluster>  (30) 
3

$$$$

     RDKit          3D

 52 55  0  0  0  0  0  0  0  0999 V2000
  139.3230   79.6270  220.1210 O   0  0  0  0  0  0  0  0  0  0  0  0
  140.5360   79.3720  220.3250 C   0  0  0  0  0  0  0  0  0  0  0  0
  141.5540   80.3350  220.4340 N   0  0  0  0  0  0  0  0  0  0  0  0
  141.2800   81.7530  220.3190 C   0  0  0  0  0  0  0  0  0  0  0  0
  140.7380   82.1950  221.6530 C   0  0  0  0  0  0  0  0  0  0  0  0
  140.0910   83.2690  221.6250 O   0  0  0  0  0  0  0  0  0  0  0  0
  140.9960   81.3920  222.7660 N   0  0  0  0  0  0  0  0  0  0  0  0
  142.3770   81.1130  223.2830 C   0  0  0  0  0  0  0  0  0  0  0  0
  142.3650   79.6150  223.5140 C   0  0  2  0  0  0  0  0  0  0  0  0
  143.0620   79.0220  222.4800 O   0  0  0  0  0  0  0  0  0  0  0  0
  140.8880   79.2630  223.5180 C   0  0  0  0  0  0  0  0  0  0  0  0
  140.2190   80.6100  223.6920 C   0  0  2  0  0  0  0  0  0  0  0  0
  138.7820   80.6070  223.4690 C   0  0  0  0  0  0  0  0  0  0  0  0
  137.9260   80.9320  224.6650 C   0  0  0  0  0  0  0  0  0  0  0  0
  136.5300   80.7400  224.0480 C   0  0  0  0  0  0  0  0  0  0  0  0
  136.7170   79.6320  223.0150 C   0  0  0  0  0  0  0  0  0  0  0  0
  138.2040   79.2570  223.0810 C   0  0  0  0  0  0  0  0  0  0  0  0
  140.9150   77.9530  220.4580 C   0  0  0  0  0  0  0  0  0  0  0  0
  140.0570   77.0180  221.0070 C   0  0  0  0  0  0  0  0  0  0  0  0
  140.3810   75.6870  221.1450 C   0  0  0  0  0  0  0  0  0  0  0  0
  141.6200   75.2490  220.7210 C   0  0  0  0  0  0  0  0  0  0  0  0
  142.0010   73.9360  220.8310 C   0  0  0  0  0  0  0  0  0  0  0  0
  143.2570   73.5440  220.3910 C   0  0  0  0  0  0  0  0  0  0  0  0
  143.7090   71.8730  220.5460 Cl  0  0  0  0  0  0  0  0  0  0  0  0
  144.0780   74.5100  219.8510 C   0  0  0  0  0  0  0  0  0  0  0  0
  143.7140   75.8350  219.7310 C   0  0  0  0  0  0  0  0  0  0  0  0
  142.4610   76.1950  220.1770 C   0  0  0  0  0  0  0  0  0  0  0  0
  142.1180   77.4970  220.0520 N   0  0  0  0  0  0  0  0  0  0  0  0
  142.5390   80.0370  220.6020 H   0  0  0  0  0  0  0  0  0  0  0  0
  142.2047   82.3006  220.0845 H   0  0  0  0  0  0  0  0  0  0  0  0
  140.5606   81.9543  219.5116 H   0  0  0  0  0  0  0  0  0  0  0  0
  143.1396   81.3914  222.5408 H   0  0  0  0  0  0  0  0  0  0  0  0
  142.6224   81.6869  224.1888 H   0  0  0  0  0  0  0  0  0  0  0  0
  142.8419   79.2760  224.4455 H   0  0  0  0  0  0  0  0  0  0  0  0
  142.5840   78.2620  222.0600 H   0  0  0  0  0  0  0  0  0  0  0  0
  140.5907   78.7933  222.5688 H   0  0  0  0  0  0  0  0  0  0  0  0
  140.6164   78.5391  224.3004 H   0  0  0  0  0  0  0  0  0  0  0  0
  140.2264   81.0029  224.7194 H   0  0  0  0  0  0  0  0  0  0  0  0
  138.7371   81.3721  222.6800 H   0  0  0  0  0  0  0  0  0  0  0  0
  138.1047   80.2354  225.4973 H   0  0  0  0  0  0  0  0  0  0  0  0
  138.1056   81.9216  225.1105 H   0  0  0  0  0  0  0  0  0  0  0  0
  135.8038   80.4364  224.8165 H   0  0  0  0  0  0  0  0  0  0  0  0
  136.1394   81.6663  223.6014 H   0  0  0  0  0  0  0  0  0  0  0  0
  136.0900   78.7635  223.2650 H   0  0  0  0  0  0  0  0  0  0  0  0
  136.4230   79.9598  222.0070 H   0  0  0  0  0  0  0  0  0  0  0  0
  138.4010   78.4906  223.8451 H   0  0  0  0  0  0  0  0  0  0  0  0
  138.6181   78.8152  222.1627 H   0  0  0  0  0  0  0  0  0  0  0  0
  139.0674   77.3539  221.3502 H   0  0  0  0  0  0  0  0  0  0  0  0
  139.6621   74.9816  221.5873 H   0  0  0  0  0  0  0  0  0  0  0  0
  141.3131   73.1963  221.2666 H   0  0  0  0  0  0  0  0  0  0  0  0
  145.0751   74.2089  219.4974 H   0  0  0  0  0  0  0  0  0  0  0  0
  144.3990   76.5772  219.2952 H   0  0  0  0  0  0  0  0  0  0  0  0
  1  2  2  0
  2  3  1  0
  3  4  1  0
  4  5  1  0
  5  6  2  0
  5  7  1  0
  7  8  1  0
  8  9  1  0
  9 10  1  0
  9 11  1  0
 11 12  1  0
 12 13  1  0
 13 14  1  0
 14 15  1  0
 15 16  1  0
 16 17  1  0
  2 18  1  0
 18 19  2  0
 19 20  1  0
 20 21  2  0
 21 22  1  0
 22 23  2  0
 23 24  1  0
 23 25  1  0
 25 26  2  0
 26 27  1  0
 27 28  2  0
 12  7  1  0
 17 13  1  0
 28 18  1  0
 27 21  1  0
  3 29  1  0
  4 30  1  0
  4 31  1  0
  8 32  1  0
  8 33  1  0
  9 34  1  1
 10 35  1  0
 11 36  1  0
 11 37  1  0
 12 38  1  1
 13 39  1  0
 14 40  1  0
 14 41  1  0
 15 42  1  0
 15 43  1  0
 16 44  1  0
 16 45  1  0
 17 46  1  0
 17 47  1  0
 19 48  1  0
 20 49  1  0
 22 50  1  0
 25 51  1  0
 26 52  1  0
M  END
>  <smiles>  (31) 
O=C(NCC(=O)N1C[C@H](O)C[C@@H]1C1CCCC1)c1ccc2cc(Cl)ccc2n1

>  <score_type>  (31) 
oracle

>  <origin>  (31) 
autodockgpu

>  <m_score__min__energy>  (31) 
-8.4199999999999999

>  <m_primary>  (31) 
energy

>  <rmsd>  (31) 
8.111442315858305

>  <m_score__min__rmsd>  (31) 
8.111442315858305

>  <meeko>  (31) 
{"free_energy": -6.42, "intermolecular_energy": -8.21, "internal_energy": -3.78, "cluster_size": 15, "cluster_id": 6, "rank_in_cluster": 1}

>  <energy>  (31) 
-7.61

>  <cluster_rmsd>  (31) 
0.99

>  <cluster>  (31) 
3

$$$$

     RDKit          3D

 52 55  0  0  0  0  0  0  0  0999 V2000
  134.7490   68.4880  225.1930 O   0  0  0  0  0  0  0  0  0  0  0  0
  135.1570   69.6490  224.9440 C   0  0  0  0  0  0  0  0  0  0  0  0
  136.2370   69.9590  224.0990 N   0  0  0  0  0  0  0  0  0  0  0  0
  136.9950   68.9280  223.4180 C   0  0  0  0  0  0  0  0  0  0  0  0
  138.3550   68.8990  224.0660 C   0  0  0  0  0  0  0  0  0  0  0  0
  138.8610   67.7570  224.1690 O   0  0  0  0  0  0  0  0  0  0  0  0
  138.9130   70.1110  224.4780 N   0  0  0  0  0  0  0  0  0  0  0  0
  138.8720   71.3650  223.6530 C   0  0  0  0  0  0  0  0  0  0  0  0
  140.2930   71.8830  223.7380 C   0  0  2  0  0  0  0  0  0  0  0  0
  140.9230   71.5910  222.5440 O   0  0  0  0  0  0  0  0  0  0  0  0
  140.8800   71.1330  224.9210 C   0  0  0  0  0  0  0  0  0  0  0  0
  139.6530   70.5870  225.6180 C   0  0  2  0  0  0  0  0  0  0  0  0
  139.9290   69.6000  226.6500 C   0  0  0  0  0  0  0  0  0  0  0  0
  140.4500   70.1370  227.9570 C   0  0  0  0  0  0  0  0  0  0  0  0
  140.6880   68.8150  228.7070 C   0  0  0  0  0  0  0  0  0  0  0  0
  141.0790   67.8210  227.6170 C   0  0  0  0  0  0  0  0  0  0  0  0
  141.0320   68.6140  226.3040 C   0  0  0  0  0  0  0  0  0  0  0  0
  134.4470   70.7690  225.5890 C   0  0  0  0  0  0  0  0  0  0  0  0
  133.4460   70.5580  226.5180 C   0  0  0  0  0  0  0  0  0  0  0  0
  132.7640   71.5820  227.1380 C   0  0  0  0  0  0  0  0  0  0  0  0
  133.0840   72.8880  226.8260 C   0  0  0  0  0  0  0  0  0  0  0  0
  132.4420   73.9510  227.4090 C   0  0  0  0  0  0  0  0  0  0  0  0
  132.7990   75.2450  227.0620 C   0  0  0  0  0  0  0  0  0  0  0  0
  131.9640   76.5700  227.8200 Cl  0  0  0  0  0  0  0  0  0  0  0  0
  133.8010   75.4080  226.1310 C   0  0  0  0  0  0  0  0  0  0  0  0
  134.4590   74.3540  225.5330 C   0  0  0  0  0  0  0  0  0  0  0  0
  134.0840   73.0780  225.8970 C   0  0  0  0  0  0  0  0  0  0  0  0
  134.7380   72.0550  225.3030 N   0  0  0  0  0  0  0  0  0  0  0  0
  136.5130   70.9530  223.9460 H   0  0  0  0  0  0  0  0  0  0  0  0
  136.4986   67.9531  223.5324 H   0  0  0  0  0  0  0  0  0  0  0  0
  137.0718   69.1365  222.3407 H   0  0  0  0  0  0  0  0  0  0  0  0
  138.5948   71.1431  222.6119 H   0  0  0  0  0  0  0  0  0  0  0  0
  138.1265   72.0911  224.0093 H   0  0  0  0  0  0  0  0  0  0  0  0
  140.3919   72.9687  223.8848 H   0  0  0  0  0  0  0  0  0  0  0  0
  140.5150   72.0350  221.7580 H   0  0  0  0  0  0  0  0  0  0  0  0
  141.5397   70.3191  224.5857 H   0  0  0  0  0  0  0  0  0  0  0  0
  141.5030   71.7656  225.5704 H   0  0  0  0  0  0  0  0  0  0  0  0
  139.1041   71.3180  226.2299 H   0  0  0  0  0  0  0  0  0  0  0  0
  138.9240   69.1599  226.7291 H   0  0  0  0  0  0  0  0  0  0  0  0
  141.3824   70.7051  227.8233 H   0  0  0  0  0  0  0  0  0  0  0  0
  139.7830   70.8477  228.4670 H   0  0  0  0  0  0  0  0  0  0  0  0
  141.4994   68.9255  229.4414 H   0  0  0  0  0  0  0  0  0  0  0  0
  139.8016   68.4892  229.2711 H   0  0  0  0  0  0  0  0  0  0  0  0
  142.0927   67.4331  227.7959 H   0  0  0  0  0  0  0  0  0  0  0  0
  140.4035   66.9531  227.5943 H   0  0  0  0  0  0  0  0  0  0  0  0
  141.9858   69.1209  226.0957 H   0  0  0  0  0  0  0  0  0  0  0  0
  140.8581   68.0136  225.3989 H   0  0  0  0  0  0  0  0  0  0  0  0
  133.1807   69.5219  226.7750 H   0  0  0  0  0  0  0  0  0  0  0  0
  131.9749   71.3617  227.8720 H   0  0  0  0  0  0  0  0  0  0  0  0
  131.6469   73.7773  228.1490 H   0  0  0  0  0  0  0  0  0  0  0  0
  134.0911   76.4312  225.8502 H   0  0  0  0  0  0  0  0  0  0  0  0
  135.2542   74.5249  224.7925 H   0  0  0  0  0  0  0  0  0  0  0  0
  1  2  2  0
  2  3  1  0
  3  4  1  0
  4  5  1  0
  5  6  2  0
  5  7  1  0
  7  8  1  0
  8  9  1  0
  9 10  1  0
  9 11  1  0
 11 12  1  0
 12 13  1  0
 13 14  1  0
 14 15  1  0
 15 16  1  0
 16 17  1  0
  2 18  1  0
 18 19  2  0
 19 20  1  0
 20 21  2  0
 21 22  1  0
 22 23  2  0
 23 24  1  0
 23 25  1  0
 25 26  2  0
 26 27  1  0
 27 28  2  0
 12  7  1  0
 17 13  1  0
 28 18  1  0
 27 21  1  0
  3 29  1  0
  4 30  1  0
  4 31  1  0
  8 32  1  0
  8 33  1  0
  9 34  1  1
 10 35  1  0
 11 36  1  0
 11 37  1  0
 12 38  1  1
 13 39  1  0
 14 40  1  0
 14 41  1  0
 15 42  1  0
 15 43  1  0
 16 44  1  0
 16 45  1  0
 17 46  1  0
 17 47  1  0
 19 48  1  0
 20 49  1  0
 22 50  1  0
 25 51  1  0
 26 52  1  0
M  END
>  <smiles>  (32) 
O=C(NCC(=O)N1C[C@H](O)C[C@@H]1C1CCCC1)c1ccc2cc(Cl)ccc2n1

>  <score_type>  (32) 
oracle

>  <origin>  (32) 
autodockgpu

>  <m_score__min__energy>  (32) 
-8.4199999999999999

>  <m_primary>  (32) 
energy

>  <rmsd>  (32) 
7.440911032881011

>  <m_score__min__rmsd>  (32) 
7.440911032881011

>  <meeko>  (32) 
{"free_energy": -8.03, "intermolecular_energy": -9.82, "internal_energy": -1.75, "cluster_size": 13, "cluster_id": 2, "rank_in_cluster": 2}

>  <energy>  (32) 
-7.39

>  <cluster_rmsd>  (32) 
0.0

>  <cluster>  (32) 
4

$$$$

     RDKit          3D

 52 55  0  0  0  0  0  0  0  0999 V2000
  138.9510   79.3710  220.0450 O   0  0  0  0  0  0  0  0  0  0  0  0
  140.1750   79.2460  220.2970 C   0  0  0  0  0  0  0  0  0  0  0  0
  141.0800   80.3120  220.4410 N   0  0  0  0  0  0  0  0  0  0  0  0
  140.6620   81.6930  220.3080 C   0  0  0  0  0  0  0  0  0  0  0  0
  140.6010   82.2590  221.7020 C   0  0  0  0  0  0  0  0  0  0  0  0
  140.3000   83.4750  221.7610 O   0  0  0  0  0  0  0  0  0  0  0  0
  140.8770   81.4040  222.7710 N   0  0  0  0  0  0  0  0  0  0  0  0
  142.2660   81.1080  223.2570 C   0  0  0  0  0  0  0  0  0  0  0  0
  142.2650   79.6010  223.4150 C   0  0  2  0  0  0  0  0  0  0  0  0
  142.9500   79.0620  222.3440 O   0  0  0  0  0  0  0  0  0  0  0  0
  140.7890   79.2410  223.4210 C   0  0  0  0  0  0  0  0  0  0  0  0
  140.1170   80.5740  223.6680 C   0  0  2  0  0  0  0  0  0  0  0  0
  138.6760   80.5750  223.4650 C   0  0  0  0  0  0  0  0  0  0  0  0
  137.8370   80.8810  224.6770 C   0  0  0  0  0  0  0  0  0  0  0  0
  136.4330   80.6980  224.0750 C   0  0  0  0  0  0  0  0  0  0  0  0
  136.6060   79.6070  223.0220 C   0  0  0  0  0  0  0  0  0  0  0  0
  138.0930   79.2310  223.0620 C   0  0  0  0  0  0  0  0  0  0  0  0
  140.6970   77.8760  220.4530 C   0  0  0  0  0  0  0  0  0  0  0  0
  139.9500   76.8740  221.0440 C   0  0  0  0  0  0  0  0  0  0  0  0
  140.4090   75.5850  221.2040 C   0  0  0  0  0  0  0  0  0  0  0  0
  141.6750   75.2630  220.7590 C   0  0  0  0  0  0  0  0  0  0  0  0
  142.1880   73.9970  220.8890 C   0  0  0  0  0  0  0  0  0  0  0  0
  143.4660   73.7220  220.4260 C   0  0  0  0  0  0  0  0  0  0  0  0
  144.0870   72.1080  220.6080 Cl  0  0  0  0  0  0  0  0  0  0  0  0
  144.1750   74.7500  219.8450 C   0  0  0  0  0  0  0  0  0  0  0  0
  143.6770   76.0290  219.7040 C   0  0  0  0  0  0  0  0  0  0  0  0
  142.4040   76.2740  220.1730 C   0  0  0  0  0  0  0  0  0  0  0  0
  141.9300   77.5320  220.0280 N   0  0  0  0  0  0  0  0  0  0  0  0
  142.0840   80.1210  220.6490 H   0  0  0  0  0  0  0  0  0  0  0  0
  141.3894   82.2533  219.7022 H   0  0  0  0  0  0  0  0  0  0  0  0
  139.6856   81.7659  219.8067 H   0  0  0  0  0  0  0  0  0  0  0  0
  143.0178   81.4266  222.5200 H   0  0  0  0  0  0  0  0  0  0  0  0
  142.5195   81.6386  224.1867 H   0  0  0  0  0  0  0  0  0  0  0  0
  142.7568   79.2205  224.3224 H   0  0  0  0  0  0  0  0  0  0  0  0
  142.5610   78.2160  222.0050 H   0  0  0  0  0  0  0  0  0  0  0  0
  140.4814   78.8158  222.4542 H   0  0  0  0  0  0  0  0  0  0  0  0
  140.5308   78.4788  224.1709 H   0  0  0  0  0  0  0  0  0  0  0  0
  140.1373   80.9166  224.7131 H   0  0  0  0  0  0  0  0  0  0  0  0
  138.6198   81.3533  222.6897 H   0  0  0  0  0  0  0  0  0  0  0  0
  138.0268   80.1715  225.4959 H   0  0  0  0  0  0  0  0  0  0  0  0
  138.0226   81.8633  225.1359 H   0  0  0  0  0  0  0  0  0  0  0  0
  135.7170   80.3819  224.8480 H   0  0  0  0  0  0  0  0  0  0  0  0
  136.0368   81.6312  223.6482 H   0  0  0  0  0  0  0  0  0  0  0  0
  135.9821   78.7346  223.2662 H   0  0  0  0  0  0  0  0  0  0  0  0
  136.2987   79.9511  222.0234 H   0  0  0  0  0  0  0  0  0  0  0  0
  138.3001   78.4520  223.8105 H   0  0  0  0  0  0  0  0  0  0  0  0
  138.4951   78.8045  222.1312 H   0  0  0  0  0  0  0  0  0  0  0  0
  138.9397   77.1179  221.4041 H   0  0  0  0  0  0  0  0  0  0  0  0
  139.7749   74.8226  221.6801 H   0  0  0  0  0  0  0  0  0  0  0  0
  141.5881   73.2035  221.3585 H   0  0  0  0  0  0  0  0  0  0  0  0
  145.1895   74.5408  219.4747 H   0  0  0  0  0  0  0  0  0  0  0  0
  144.2742   76.8245  219.2343 H   0  0  0  0  0  0  0  0  0  0  0  0
  1  2  2  0
  2  3  1  0
  3  4  1  0
  4  5  1  0
  5  6  2  0
  5  7  1  0
  7  8  1  0
  8  9  1  0
  9 10  1  0
  9 11  1  0
 11 12  1  0
 12 13  1  0
 13 14  1  0
 14 15  1  0
 15 16  1  0
 16 17  1  0
  2 18  1  0
 18 19  2  0
 19 20  1  0
 20 21  2  0
 21 22  1  0
 22 23  2  0
 23 24  1  0
 23 25  1  0
 25 26  2  0
 26 27  1  0
 27 28  2  0
 12  7  1  0
 17 13  1  0
 28 18  1  0
 27 21  1  0
  3 29  1  0
  4 30  1  0
  4 31  1  0
  8 32  1  0
  8 33  1  0
  9 34  1  1
 10 35  1  0
 11 36  1  0
 11 37  1  0
 12 38  1  1
 13 39  1  0
 14 40  1  0
 14 41  1  0
 15 42  1  0
 15 43  1  0
 16 44  1  0
 16 45  1  0
 17 46  1  0
 17 47  1  0
 19 48  1  0
 20 49  1  0
 22 50  1  0
 25 51  1  0
 26 52  1  0
M  END
>  <smiles>  (33) 
O=C(NCC(=O)N1C[C@H](O)C[C@@H]1C1CCCC1)c1ccc2cc(Cl)ccc2n1

>  <score_type>  (33) 
oracle

>  <origin>  (33) 
autodockgpu

>  <m_score__min__energy>  (33) 
-8.4199999999999999

>  <m_primary>  (33) 
energy

>  <rmsd>  (33) 
8.045676046535768

>  <m_score__min__rmsd>  (33) 
8.045676046535768

>  <meeko>  (33) 
{"free_energy": -6.15, "intermolecular_energy": -7.94, "internal_energy": -3.77, "cluster_size": 15, "cluster_id": 6, "rank_in_cluster": 13}

>  <energy>  (33) 
-7.15

>  <cluster_rmsd>  (33) 
0.0

>  <cluster>  (33) 
5

$$$$

     RDKit          3D

 52 55  0  0  0  0  0  0  0  0999 V2000
  139.3470   71.8970  220.6940 O   0  0  0  0  0  0  0  0  0  0  0  0
  139.4750   72.4130  221.8320 C   0  0  0  0  0  0  0  0  0  0  0  0
  139.4770   73.7940  222.0940 N   0  0  0  0  0  0  0  0  0  0  0  0
  139.3260   74.7730  221.0370 C   0  0  0  0  0  0  0  0  0  0  0  0
  140.0680   76.0050  221.4840 C   0  0  0  0  0  0  0  0  0  0  0  0
  140.3450   76.0350  222.7060 O   0  0  0  0  0  0  0  0  0  0  0  0
  140.3720   76.9740  220.5250 N   0  0  0  0  0  0  0  0  0  0  0  0
  140.3900   76.7010  219.0490 C   0  0  0  0  0  0  0  0  0  0  0  0
  141.6810   77.3470  218.5920 C   0  0  2  0  0  0  0  0  0  0  0  0
  142.6080   76.3430  218.3870 O   0  0  0  0  0  0  0  0  0  0  0  0
  142.0470   78.2720  219.7400 C   0  0  0  0  0  0  0  0  0  0  0  0
  140.7580   78.3610  220.5270 C   0  0  2  0  0  0  0  0  0  0  0  0
  140.8880   78.9810  221.8370 C   0  0  0  0  0  0  0  0  0  0  0  0
  140.1740   80.2940  222.0210 C   0  0  0  0  0  0  0  0  0  0  0  0
  140.6240   80.6370  223.4520 C   0  0  0  0  0  0  0  0  0  0  0  0
  142.0270   80.0470  223.5640 C   0  0  0  0  0  0  0  0  0  0  0  0
  142.3040   79.3870  222.2070 C   0  0  0  0  0  0  0  0  0  0  0  0
  139.6340   71.4960  222.9750 C   0  0  0  0  0  0  0  0  0  0  0  0
  139.2220   70.1780  222.9160 C   0  0  0  0  0  0  0  0  0  0  0  0
  139.3570   69.2970  223.9660 C   0  0  0  0  0  0  0  0  0  0  0  0
  139.9280   69.7370  225.1430 C   0  0  0  0  0  0  0  0  0  0  0  0
  140.0900   68.9090  226.2240 C   0  0  0  0  0  0  0  0  0  0  0  0
  140.6690   69.3980  227.3860 C   0  0  0  0  0  0  0  0  0  0  0  0
  140.8590   68.3210  228.7380 Cl  0  0  0  0  0  0  0  0  0  0  0  0
  141.0630   70.7180  227.4010 C   0  0  0  0  0  0  0  0  0  0  0  0
  140.9100   71.5670  226.3250 C   0  0  0  0  0  0  0  0  0  0  0  0
  140.3310   71.0540  225.1840 C   0  0  0  0  0  0  0  0  0  0  0  0
  140.1880   71.8990  224.1380 N   0  0  0  0  0  0  0  0  0  0  0  0
  139.5910   74.1410  223.0710 H   0  0  0  0  0  0  0  0  0  0  0  0
  139.7562   74.3896  220.1000 H   0  0  0  0  0  0  0  0  0  0  0  0
  138.2650   74.9945  220.8494 H   0  0  0  0  0  0  0  0  0  0  0  0
  140.3977   75.6195  218.8482 H   0  0  0  0  0  0  0  0  0  0  0  0
  139.5041   77.0926  218.5276 H   0  0  0  0  0  0  0  0  0  0  0  0
  141.6196   77.9111  217.6497 H   0  0  0  0  0  0  0  0  0  0  0  0
  142.7230   75.7410  219.1660 H   0  0  0  0  0  0  0  0  0  0  0  0
  142.8550   77.8435  220.3512 H   0  0  0  0  0  0  0  0  0  0  0  0
  142.4206   79.2514  219.4064 H   0  0  0  0  0  0  0  0  0  0  0  0
  139.9990   79.0331  220.1001 H   0  0  0  0  0  0  0  0  0  0  0  0
  140.4674   78.1677  222.4466 H   0  0  0  0  0  0  0  0  0  0  0  0
  140.5104   81.0482  221.2943 H   0  0  0  0  0  0  0  0  0  0  0  0
  139.0848   80.2568  221.8716 H   0  0  0  0  0  0  0  0  0  0  0  0
  140.6475   81.7266  223.6014 H   0  0  0  0  0  0  0  0  0  0  0  0
  139.9394   80.2346  224.2132 H   0  0  0  0  0  0  0  0  0  0  0  0
  142.7627   80.8401  223.7630 H   0  0  0  0  0  0  0  0  0  0  0  0
  142.1014   79.3258  224.3912 H   0  0  0  0  0  0  0  0  0  0  0  0
  142.7302   80.0977  221.4836 H   0  0  0  0  0  0  0  0  0  0  0  0
  143.0383   78.5682  222.2240 H   0  0  0  0  0  0  0  0  0  0  0  0
  138.7636   69.8147  221.9844 H   0  0  0  0  0  0  0  0  0  0  0  0
  139.0142   68.2564  223.8679 H   0  0  0  0  0  0  0  0  0  0  0  0
  139.7619   67.8605  226.1700 H   0  0  0  0  0  0  0  0  0  0  0  0
  141.5231   71.1150  228.3179 H   0  0  0  0  0  0  0  0  0  0  0  0
  141.2382   72.6157  226.3754 H   0  0  0  0  0  0  0  0  0  0  0  0
  1  2  2  0
  2  3  1  0
  3  4  1  0
  4  5  1  0
  5  6  2  0
  5  7  1  0
  7  8  1  0
  8  9  1  0
  9 10  1  0
  9 11  1  0
 11 12  1  0
 12 13  1  0
 13 14  1  0
 14 15  1  0
 15 16  1  0
 16 17  1  0
  2 18  1  0
 18 19  2  0
 19 20  1  0
 20 21  2  0
 21 22  1  0
 22 23  2  0
 23 24  1  0
 23 25  1  0
 25 26  2  0
 26 27  1  0
 27 28  2  0
 12  7  1  0
 17 13  1  0
 28 18  1  0
 27 21  1  0
  3 29  1  0
  4 30  1  0
  4 31  1  0
  8 32  1  0
  8 33  1  0
  9 34  1  6
 10 35  1  0
 11 36  1  0
 11 37  1  0
 12 38  1  6
 13 39  1  0
 14 40  1  0
 14 41  1  0
 15 42  1  0
 15 43  1  0
 16 44  1  0
 16 45  1  0
 17 46  1  0
 17 47  1  0
 19 48  1  0
 20 49  1  0
 22 50  1  0
 25 51  1  0
 26 52  1  0
M  END
>  <smiles>  (34) 
O=C(NCC(=O)N1C[C@H](O)C[C@@H]1C1CCCC1)c1ccc2cc(Cl)ccc2n1

>  <score_type>  (34) 
oracle

>  <origin>  (34) 
autodockgpu

>  <m_score__min__energy>  (34) 
-8.4199999999999999

>  <m_primary>  (34) 
energy

>  <rmsd>  (34) 
1.6352457434337402

>  <m_score__min__rmsd>  (34) 
1.6352457434337402

>  <meeko>  (34) 
{"free_energy": -7.75, "intermolecular_energy": -9.54, "internal_energy": -2.07, "cluster_size": 14, "cluster_id": 1, "rank_in_cluster": 13}

>  <energy>  (34) 
-6.42

>  <cluster_rmsd>  (34) 
0.0

>  <cluster>  (34) 
6

$$$$

     RDKit          3D

 52 55  0  0  0  0  0  0  0  0999 V2000
  139.2670   79.4660  220.0200 O   0  0  0  0  0  0  0  0  0  0  0  0
  140.4790   79.2720  220.2830 C   0  0  0  0  0  0  0  0  0  0  0  0
  141.4400   80.2850  220.4450 N   0  0  0  0  0  0  0  0  0  0  0  0
  141.1010   81.6880  220.3180 C   0  0  0  0  0  0  0  0  0  0  0  0
  140.8930   82.2060  221.7170 C   0  0  0  0  0  0  0  0  0  0  0  0
  140.4990   83.3940  221.7820 O   0  0  0  0  0  0  0  0  0  0  0  0
  141.1510   81.3420  222.7840 N   0  0  0  0  0  0  0  0  0  0  0  0
  142.5300   81.0580  223.3040 C   0  0  0  0  0  0  0  0  0  0  0  0
  142.5440   79.5490  223.4440 C   0  0  2  0  0  0  0  0  0  0  0  0
  143.2660   79.0320  222.3870 O   0  0  0  0  0  0  0  0  0  0  0  0
  141.0740   79.1700  223.4040 C   0  0  0  0  0  0  0  0  0  0  0  0
  140.3770   80.4910  223.6490 C   0  0  2  0  0  0  0  0  0  0  0  0
  138.9430   80.4760  223.4050 C   0  0  0  0  0  0  0  0  0  0  0  0
  138.0700   80.8730  224.5660 C   0  0  0  0  0  0  0  0  0  0  0  0
  136.6830   80.6440  223.9400 C   0  0  0  0  0  0  0  0  0  0  0  0
  136.8840   79.4750  222.9790 C   0  0  0  0  0  0  0  0  0  0  0  0
  138.3690   79.1050  223.0900 C   0  0  0  0  0  0  0  0  0  0  0  0
  140.9230   77.8740  220.4330 C   0  0  0  0  0  0  0  0  0  0  0  0
  140.1130   76.9090  221.0020 C   0  0  0  0  0  0  0  0  0  0  0  0
  140.4970   75.5950  221.1560 C   0  0  0  0  0  0  0  0  0  0  0  0
  141.7510   75.2080  220.7270 C   0  0  0  0  0  0  0  0  0  0  0  0
  142.1920   73.9150  220.8530 C   0  0  0  0  0  0  0  0  0  0  0  0
  143.4610   73.5740  220.4060 C   0  0  0  0  0  0  0  0  0  0  0  0
  143.9890   71.9270  220.5810 Cl  0  0  0  0  0  0  0  0  0  0  0  0
  144.2330   74.5680  219.8460 C   0  0  0  0  0  0  0  0  0  0  0  0
  143.8090   75.8730  219.7110 C   0  0  0  0  0  0  0  0  0  0  0  0
  142.5440   76.1830  220.1630 C   0  0  0  0  0  0  0  0  0  0  0  0
  142.1420   77.4670  220.0230 N   0  0  0  0  0  0  0  0  0  0  0  0
  142.4300   80.0370  220.6610 H   0  0  0  0  0  0  0  0  0  0  0  0
  141.9208   82.2342  219.8285 H   0  0  0  0  0  0  0  0  0  0  0  0
  140.1982   81.8252  219.7047 H   0  0  0  0  0  0  0  0  0  0  0  0
  143.2973   81.3951  222.5915 H   0  0  0  0  0  0  0  0  0  0  0  0
  142.7515   81.5805  224.2463 H   0  0  0  0  0  0  0  0  0  0  0  0
  143.0148   79.1639  224.3605 H   0  0  0  0  0  0  0  0  0  0  0  0
  142.8240   78.2690  221.9360 H   0  0  0  0  0  0  0  0  0  0  0  0
  140.7993   78.7535  222.4237 H   0  0  0  0  0  0  0  0  0  0  0  0
  140.8053   78.3948  224.1368 H   0  0  0  0  0  0  0  0  0  0  0  0
  140.3629   80.8201  224.6985 H   0  0  0  0  0  0  0  0  0  0  0  0
  138.9108   81.1926  222.5710 H   0  0  0  0  0  0  0  0  0  0  0  0
  138.2353   80.2280  225.4416 H   0  0  0  0  0  0  0  0  0  0  0  0
  138.2440   81.8876  224.9538 H   0  0  0  0  0  0  0  0  0  0  0  0
  135.9447   80.3880  224.7142 H   0  0  0  0  0  0  0  0  0  0  0  0
  136.3008   81.5415  223.4318 H   0  0  0  0  0  0  0  0  0  0  0  0
  136.2525   78.6233  223.2720 H   0  0  0  0  0  0  0  0  0  0  0  0
  136.6051   79.7407  221.9486 H   0  0  0  0  0  0  0  0  0  0  0  0
  138.5537   78.3859  223.9017 H   0  0  0  0  0  0  0  0  0  0  0  0
  138.7964   78.6090  222.2061 H   0  0  0  0  0  0  0  0  0  0  0  0
  139.1121   77.2051  221.3491 H   0  0  0  0  0  0  0  0  0  0  0  0
  139.8142   74.8644  221.6143 H   0  0  0  0  0  0  0  0  0  0  0  0
  141.5425   73.1517  221.3064 H   0  0  0  0  0  0  0  0  0  0  0  0
  145.2399   74.3071  219.4880 H   0  0  0  0  0  0  0  0  0  0  0  0
  144.4565   76.6389  219.2591 H   0  0  0  0  0  0  0  0  0  0  0  0
  1  2  2  0
  2  3  1  0
  3  4  1  0
  4  5  1  0
  5  6  2  0
  5  7  1  0
  7  8  1  0
  8  9  1  0
  9 10  1  0
  9 11  1  0
 11 12  1  0
 12 13  1  0
 13 14  1  0
 14 15  1  0
 15 16  1  0
 16 17  1  0
  2 18  1  0
 18 19  2  0
 19 20  1  0
 20 21  2  0
 21 22  1  0
 22 23  2  0
 23 24  1  0
 23 25  1  0
 25 26  2  0
 26 27  1  0
 27 28  2  0
 12  7  1  0
 17 13  1  0
 28 18  1  0
 27 21  1  0
  3 29  1  0
  4 30  1  0
  4 31  1  0
  8 32  1  0
  8 33  1  0
  9 34  1  1
 10 35  1  0
 11 36  1  0
 11 37  1  0
 12 38  1  1
 13 39  1  0
 14 40  1  0
 14 41  1  0
 15 42  1  0
 15 43  1  0
 16 44  1  0
 16 45  1  0
 17 46  1  0
 17 47  1  0
 19 48  1  0
 20 49  1  0
 22 50  1  0
 25 51  1  0
 26 52  1  0
M  END
>  <smiles>  (35) 
O=C(NCC(=O)N1C[C@H](O)C[C@@H]1C1CCCC1)c1ccc2cc(Cl)ccc2n1

>  <score_type>  (35) 
oracle

>  <origin>  (35) 
autodockgpu

>  <m_score__min__energy>  (35) 
-8.4199999999999999

>  <m_primary>  (35) 
energy

>  <rmsd>  (35) 
8.071121679069144

>  <m_score__min__rmsd>  (35) 
8.071121679069144

>  <meeko>  (35) 
{"free_energy": -6.22, "intermolecular_energy": -8.01, "internal_energy": -3.82, "cluster_size": 15, "cluster_id": 6, "rank_in_cluster": 12}

>  <energy>  (35) 
-6.41

>  <cluster_rmsd>  (35) 
0.08

>  <cluster>  (35) 
6

$$$$

     RDKit          3D

 52 55  0  0  0  0  0  0  0  0999 V2000
  138.5550   76.2970  222.8320 O   0  0  0  0  0  0  0  0  0  0  0  0
  139.1730   76.3970  221.7440 C   0  0  0  0  0  0  0  0  0  0  0  0
  138.9380   77.3860  220.7740 N   0  0  0  0  0  0  0  0  0  0  0  0
  137.9290   78.4100  220.9540 C   0  0  0  0  0  0  0  0  0  0  0  0
  138.6280   79.7350  220.7930 C   0  0  0  0  0  0  0  0  0  0  0  0
  137.9940   80.7190  221.2390 O   0  0  0  0  0  0  0  0  0  0  0  0
  139.8840   79.7450  220.1800 N   0  0  0  0  0  0  0  0  0  0  0  0
  140.0840   79.5790  218.7020 C   0  0  0  0  0  0  0  0  0  0  0  0
  141.2120   78.5700  218.6160 C   0  0  2  0  0  0  0  0  0  0  0  0
  140.6630   77.3490  218.2780 O   0  0  0  0  0  0  0  0  0  0  0  0
  141.8170   78.5880  220.0090 C   0  0  0  0  0  0  0  0  0  0  0  0
  141.2530   79.8580  220.6080 C   0  0  2  0  0  0  0  0  0  0  0  0
  141.4610   79.9990  222.0410 C   0  0  0  0  0  0  0  0  0  0  0  0
  142.7970   80.5480  222.4650 C   0  0  0  0  0  0  0  0  0  0  0  0
  142.6450   80.4540  223.9930 C   0  0  0  0  0  0  0  0  0  0  0  0
  141.7660   79.2260  224.2150 C   0  0  0  0  0  0  0  0  0  0  0  0
  141.4470   78.6910  222.8130 C   0  0  0  0  0  0  0  0  0  0  0  0
  140.2240   75.4000  221.4680 C   0  0  0  0  0  0  0  0  0  0  0  0
  140.0870   74.0750  221.8380 C   0  0  0  0  0  0  0  0  0  0  0  0
  141.0490   73.1200  221.5950 C   0  0  0  0  0  0  0  0  0  0  0  0
  142.2140   73.4880  220.9520 C   0  0  0  0  0  0  0  0  0  0  0  0
  143.2090   72.5840  220.6810 C   0  0  0  0  0  0  0  0  0  0  0  0
  144.3610   73.0030  220.0320 C   0  0  0  0  0  0  0  0  0  0  0  0
  145.6030   71.8310  219.7040 Cl  0  0  0  0  0  0  0  0  0  0  0  0
  144.4550   74.3320  219.6820 C   0  0  0  0  0  0  0  0  0  0  0  0
  143.4660   75.2570  219.9450 C   0  0  0  0  0  0  0  0  0  0  0  0
  142.3320   74.8130  220.5910 C   0  0  0  0  0  0  0  0  0  0  0  0
  141.3720   75.7310  220.8420 N   0  0  0  0  0  0  0  0  0  0  0  0
  139.4970   77.3980  219.8930 H   0  0  0  0  0  0  0  0  0  0  0  0
  137.1395   78.3026  220.1956 H   0  0  0  0  0  0  0  0  0  0  0  0
  137.4536   78.3295  221.9427 H   0  0  0  0  0  0  0  0  0  0  0  0
  139.1726   79.1936  218.2215 H   0  0  0  0  0  0  0  0  0  0  0  0
  140.3114   80.5249  218.1886 H   0  0  0  0  0  0  0  0  0  0  0  0
  141.9823   78.7843  217.8605 H   0  0  0  0  0  0  0  0  0  0  0  0
  140.8470   76.6320  218.9370 H   0  0  0  0  0  0  0  0  0  0  0  0
  141.5051   77.7056  220.5871 H   0  0  0  0  0  0  0  0  0  0  0  0
  142.9167   78.5616  220.0046 H   0  0  0  0  0  0  0  0  0  0  0  0
  141.7451   80.7850  220.2787 H   0  0  0  0  0  0  0  0  0  0  0  0
  140.6226   80.6755  222.2634 H   0  0  0  0  0  0  0  0  0  0  0  0
  143.6289   79.9291  222.0977 H   0  0  0  0  0  0  0  0  0  0  0  0
  143.0307   81.5521  222.0813 H   0  0  0  0  0  0  0  0  0  0  0  0
  143.6255   80.3223  224.4739 H   0  0  0  0  0  0  0  0  0  0  0  0
  142.2075   81.3654  224.4266 H   0  0  0  0  0  0  0  0  0  0  0  0
  142.3055   78.4682  224.8020 H   0  0  0  0  0  0  0  0  0  0  0  0
  140.8521   79.4742  224.7746 H   0  0  0  0  0  0  0  0  0  0  0  0
  142.2181   77.9935  222.4539 H   0  0  0  0  0  0  0  0  0  0  0  0
  140.5176   78.1081  222.7329 H   0  0  0  0  0  0  0  0  0  0  0  0
  139.1640   73.7684  222.3519 H   0  0  0  0  0  0  0  0  0  0  0  0
  140.8913   72.0777  221.9091 H   0  0  0  0  0  0  0  0  0  0  0  0
  143.0940   71.5309  220.9771 H   0  0  0  0  0  0  0  0  0  0  0  0
  145.3650   74.6730  219.1666 H   0  0  0  0  0  0  0  0  0  0  0  0
  143.5782   76.3107  219.6499 H   0  0  0  0  0  0  0  0  0  0  0  0
  1  2  2  0
  2  3  1  0
  3  4  1  0
  4  5  1  0
  5  6  2  0
  5  7  1  0
  7  8  1  0
  8  9  1  0
  9 10  1  0
  9 11  1  0
 11 12  1  0
 12 13  1  0
 13 14  1  0
 14 15  1  0
 15 16  1  0
 16 17  1  0
  2 18  1  0
 18 19  2  0
 19 20  1  0
 20 21  2  0
 21 22  1  0
 22 23  2  0
 23 24  1  0
 23 25  1  0
 25 26  2  0
 26 27  1  0
 27 28  2  0
 12  7  1  0
 17 13  1  0
 28 18  1  0
 27 21  1  0
  3 29  1  0
  4 30  1  0
  4 31  1  0
  8 32  1  0
  8 33  1  0
  9 34  1  6
 10 35  1  0
 11 36  1  0
 11 37  1  0
 12 38  1  6
 13 39  1  0
 14 40  1  0
 14 41  1  0
 15 42  1  0
 15 43  1  0
 16 44  1  0
 16 45  1  0
 17 46  1  0
 17 47  1  0
 19 48  1  0
 20 49  1  0
 22 50  1  0
 25 51  1  0
 26 52  1  0
M  END
>  <smiles>  (36) 
O=C(NCC(=O)N1C[C@H](O)C[C@@H]1C1CCCC1)c1ccc2cc(Cl)ccc2n1

>  <score_type>  (36) 
oracle

>  <origin>  (36) 
autodockgpu

>  <m_score__min__energy>  (36) 
-8.4199999999999999

>  <m_primary>  (36) 
energy

>  <rmsd>  (36) 
5.926722297979331

>  <m_score__min__rmsd>  (36) 
5.926722297979331

>  <meeko>  (36) 
{"free_energy": -5.48, "intermolecular_energy": -7.27, "internal_energy": -3.83, "cluster_size": 2, "cluster_id": 7, "rank_in_cluster": 2}

>  <energy>  (36) 
-6.41

>  <cluster_rmsd>  (36) 
0.08

>  <cluster>  (36) 
6

$$$$

     RDKit          3D

 52 55  0  0  0  0  0  0  0  0999 V2000
  139.8150   79.9220  219.6450 O   0  0  0  0  0  0  0  0  0  0  0  0
  140.9910   79.7290  220.0410 C   0  0  0  0  0  0  0  0  0  0  0  0
  141.8480   80.7280  220.5360 N   0  0  0  0  0  0  0  0  0  0  0  0
  141.4320   82.1120  220.6340 C   0  0  0  0  0  0  0  0  0  0  0  0
  140.6240   82.2280  221.9010 C   0  0  0  0  0  0  0  0  0  0  0  0
  139.8050   83.1760  221.9140 O   0  0  0  0  0  0  0  0  0  0  0  0
  140.8550   81.2960  222.9150 N   0  0  0  0  0  0  0  0  0  0  0  0
  142.2200   80.9740  223.4490 C   0  0  0  0  0  0  0  0  0  0  0  0
  142.2290   79.4600  223.4920 C   0  0  2  0  0  0  0  0  0  0  0  0
  142.9760   79.0100  222.4200 O   0  0  0  0  0  0  0  0  0  0  0  0
  140.7590   79.0890  223.3920 C   0  0  0  0  0  0  0  0  0  0  0  0
  140.0590   80.3930  223.7040 C   0  0  2  0  0  0  0  0  0  0  0  0
  138.6310   80.3980  223.4250 C   0  0  0  0  0  0  0  0  0  0  0  0
  137.7340   80.7870  224.5700 C   0  0  0  0  0  0  0  0  0  0  0  0
  136.3610   80.5840  223.9080 C   0  0  0  0  0  0  0  0  0  0  0  0
  136.5730   79.4270  222.9340 C   0  0  0  0  0  0  0  0  0  0  0  0
  138.0500   79.0380  223.0760 C   0  0  0  0  0  0  0  0  0  0  0  0
  141.5070   78.3490  219.9820 C   0  0  0  0  0  0  0  0  0  0  0  0
  142.5040   77.9810  219.0990 C   0  0  0  0  0  0  0  0  0  0  0  0
  143.0080   76.7010  219.0200 C   0  0  0  0  0  0  0  0  0  0  0  0
  142.5000   75.7270  219.8560 C   0  0  0  0  0  0  0  0  0  0  0  0
  142.9600   74.4350  219.8250 C   0  0  0  0  0  0  0  0  0  0  0  0
  142.4180   73.4910  220.6860 C   0  0  0  0  0  0  0  0  0  0  0  0
  143.0230   71.8620  220.6200 Cl  0  0  0  0  0  0  0  0  0  0  0  0
  141.4260   73.9020  221.5480 C   0  0  0  0  0  0  0  0  0  0  0  0
  140.9500   75.1960  221.5950 C   0  0  0  0  0  0  0  0  0  0  0  0
  141.5060   76.1130  220.7290 C   0  0  0  0  0  0  0  0  0  0  0  0
  141.0300   77.3770  220.7870 N   0  0  0  0  0  0  0  0  0  0  0  0
  142.8140   80.4830  220.8440 H   0  0  0  0  0  0  0  0  0  0  0  0
  142.3117   82.7706  220.6828 H   0  0  0  0  0  0  0  0  0  0  0  0
  140.8406   82.4124  219.7565 H   0  0  0  0  0  0  0  0  0  0  0  0
  143.0051   81.3539  222.7787 H   0  0  0  0  0  0  0  0  0  0  0  0
  142.4186   81.4337  224.4284 H   0  0  0  0  0  0  0  0  0  0  0  0
  142.6772   79.0151  224.3927 H   0  0  0  0  0  0  0  0  0  0  0  0
  142.6170   78.1890  222.0000 H   0  0  0  0  0  0  0  0  0  0  0  0
  140.5076   78.7371  222.3806 H   0  0  0  0  0  0  0  0  0  0  0  0
  140.4711   78.2693  224.0668 H   0  0  0  0  0  0  0  0  0  0  0  0
  140.0202   80.6540  224.7719 H   0  0  0  0  0  0  0  0  0  0  0  0
  138.6272   81.1274  222.6016 H   0  0  0  0  0  0  0  0  0  0  0  0
  137.8706   80.1268  225.4392 H   0  0  0  0  0  0  0  0  0  0  0  0
  137.9097   81.7936  224.9773 H   0  0  0  0  0  0  0  0  0  0  0  0
  135.6013   80.3248  224.6601 H   0  0  0  0  0  0  0  0  0  0  0  0
  136.0008   81.4935  223.4049 H   0  0  0  0  0  0  0  0  0  0  0  0
  135.9248   78.5784  223.1980 H   0  0  0  0  0  0  0  0  0  0  0  0
  136.3232   79.7116  221.9013 H   0  0  0  0  0  0  0  0  0  0  0  0
  138.2064   78.3053  223.8814 H   0  0  0  0  0  0  0  0  0  0  0  0
  138.4937   78.5495  222.1960 H   0  0  0  0  0  0  0  0  0  0  0  0
  142.9156   78.7476  218.4260 H   0  0  0  0  0  0  0  0  0  0  0  0
  143.8042   76.4586  218.3007 H   0  0  0  0  0  0  0  0  0  0  0  0
  143.7550   74.1484  219.1208 H   0  0  0  0  0  0  0  0  0  0  0  0
  140.9908   73.1606  222.2343 H   0  0  0  0  0  0  0  0  0  0  0  0
  140.1553   75.4856  222.2983 H   0  0  0  0  0  0  0  0  0  0  0  0
  1  2  2  0
  2  3  1  0
  3  4  1  0
  4  5  1  0
  5  6  2  0
  5  7  1  0
  7  8  1  0
  8  9  1  0
  9 10  1  0
  9 11  1  0
 11 12  1  0
 12 13  1  0
 13 14  1  0
 14 15  1  0
 15 16  1  0
 16 17  1  0
  2 18  1  0
 18 19  2  0
 19 20  1  0
 20 21  2  0
 21 22  1  0
 22 23  2  0
 23 24  1  0
 23 25  1  0
 25 26  2  0
 26 27  1  0
 27 28  2  0
 12  7  1  0
 17 13  1  0
 28 18  1  0
 27 21  1  0
  3 29  1  0
  4 30  1  0
  4 31  1  0
  8 32  1  0
  8 33  1  0
  9 34  1  1
 10 35  1  0
 11 36  1  0
 11 37  1  0
 12 38  1  1
 13 39  1  0
 14 40  1  0
 14 41  1  0
 15 42  1  0
 15 43  1  0
 16 44  1  0
 16 45  1  0
 17 46  1  0
 17 47  1  0
 19 48  1  0
 20 49  1  0
 22 50  1  0
 25 51  1  0
 26 52  1  0
M  END
>  <smiles>  (37) 
O=C(NCC(=O)N1C[C@H](O)C[C@@H]1C1CCCC1)c1ccc2cc(Cl)ccc2n1

>  <score_type>  (37) 
oracle

>  <origin>  (37) 
autodockgpu

>  <m_score__min__energy>  (37) 
-8.4199999999999999

>  <m_primary>  (37) 
energy

>  <rmsd>  (37) 
8.356885539444066

>  <m_score__min__rmsd>  (37) 
8.356885539444066

>  <meeko>  (37) 
{"free_energy": -6.32, "intermolecular_energy": -8.11, "internal_energy": -3.54, "cluster_size": 15, "cluster_id": 6, "rank_in_cluster": 11}

>  <energy>  (37) 
-6.41

>  <cluster_rmsd>  (37) 
0.04

>  <cluster>  (37) 
6

$$$$

     RDKit          3D

 52 55  0  0  0  0  0  0  0  0999 V2000
  138.8480   71.9720  220.8240 O   0  0  0  0  0  0  0  0  0  0  0  0
  139.2400   72.4540  221.9160 C   0  0  0  0  0  0  0  0  0  0  0  0
  139.5160   73.8130  222.1420 N   0  0  0  0  0  0  0  0  0  0  0  0
  139.3660   74.8080  221.1000 C   0  0  0  0  0  0  0  0  0  0  0  0
  140.5830   75.6920  221.1720 C   0  0  0  0  0  0  0  0  0  0  0  0
  141.4400   75.3360  222.0160 O   0  0  0  0  0  0  0  0  0  0  0  0
  140.6470   76.7950  220.3180 N   0  0  0  0  0  0  0  0  0  0  0  0
  140.9840   76.6930  218.8590 C   0  0  0  0  0  0  0  0  0  0  0  0
  141.9980   77.8010  218.6580 C   0  0  2  0  0  0  0  0  0  0  0  0
  143.2500   77.2210  218.5820 O   0  0  0  0  0  0  0  0  0  0  0  0
  141.8210   78.6770  219.8860 C   0  0  0  0  0  0  0  0  0  0  0  0
  140.4880   78.2210  220.4390 C   0  0  2  0  0  0  0  0  0  0  0  0
  140.1830   78.7130  221.7730 C   0  0  0  0  0  0  0  0  0  0  0  0
  139.6860   80.1330  221.8560 C   0  0  0  0  0  0  0  0  0  0  0  0
  139.5730   80.2800  223.3830 C   0  0  0  0  0  0  0  0  0  0  0  0
  140.6930   79.4030  223.9370 C   0  0  0  0  0  0  0  0  0  0  0  0
  141.3770   78.7880  222.7080 C   0  0  0  0  0  0  0  0  0  0  0  0
  139.4220   71.5190  223.0410 C   0  0  0  0  0  0  0  0  0  0  0  0
  138.9430   70.2220  222.9960 C   0  0  0  0  0  0  0  0  0  0  0  0
  139.0970   69.3250  224.0300 C   0  0  0  0  0  0  0  0  0  0  0  0
  139.7590   69.7250  225.1740 C   0  0  0  0  0  0  0  0  0  0  0  0
  139.9440   68.8790  226.2370 C   0  0  0  0  0  0  0  0  0  0  0  0
  140.6150   69.3270  227.3650 C   0  0  0  0  0  0  0  0  0  0  0  0
  140.8330   68.2280  228.6960 Cl  0  0  0  0  0  0  0  0  0  0  0  0
  141.0740   70.6260  227.3660 C   0  0  0  0  0  0  0  0  0  0  0  0
  140.8990   71.4930  226.3080 C   0  0  0  0  0  0  0  0  0  0  0  0
  140.2280   71.0200  225.2000 C   0  0  0  0  0  0  0  0  0  0  0  0
  140.0640   71.8820  224.1710 N   0  0  0  0  0  0  0  0  0  0  0  0
  139.8410   74.1310  223.0810 H   0  0  0  0  0  0  0  0  0  0  0  0
  139.3082   74.3209  220.1154 H   0  0  0  0  0  0  0  0  0  0  0  0
  138.4432   75.3908  221.2374 H   0  0  0  0  0  0  0  0  0  0  0  0
  141.4207   75.7114  218.6230 H   0  0  0  0  0  0  0  0  0  0  0  0
  140.1043   76.7904  218.2058 H   0  0  0  0  0  0  0  0  0  0  0  0
  141.8735   78.3953  217.7407 H   0  0  0  0  0  0  0  0  0  0  0  0
  143.8830   77.5450  219.2710 H   0  0  0  0  0  0  0  0  0  0  0  0
  142.6294   78.5076  220.6125 H   0  0  0  0  0  0  0  0  0  0  0  0
  141.8515   79.7530  219.6595 H   0  0  0  0  0  0  0  0  0  0  0  0
  139.6073   78.6163  219.9116 H   0  0  0  0  0  0  0  0  0  0  0  0
  139.4237   77.9683  222.0539 H   0  0  0  0  0  0  0  0  0  0  0  0
  140.4074   80.8449  221.4285 H   0  0  0  0  0  0  0  0  0  0  0  0
  138.7597   80.3358  221.2985 H   0  0  0  0  0  0  0  0  0  0  0  0
  139.7155   81.3284  223.6840 H   0  0  0  0  0  0  0  0  0  0  0  0
  138.5835   79.9810  223.7592 H   0  0  0  0  0  0  0  0  0  0  0  0
  141.4081   80.0099  224.5117 H   0  0  0  0  0  0  0  0  0  0  0  0
  140.3077   78.6309  224.6192 H   0  0  0  0  0  0  0  0  0  0  0  0
  142.1700   79.4385  222.3105 H   0  0  0  0  0  0  0  0  0  0  0  0
  141.8943   77.8338  222.8867 H   0  0  0  0  0  0  0  0  0  0  0  0
  138.4134   69.8909  222.0905 H   0  0  0  0  0  0  0  0  0  0  0  0
  138.6979   68.3034  223.9455 H   0  0  0  0  0  0  0  0  0  0  0  0
  139.5615   67.8485  226.1953 H   0  0  0  0  0  0  0  0  0  0  0  0
  141.6074   70.9903  228.2564 H   0  0  0  0  0  0  0  0  0  0  0  0
  141.2806   72.5240  226.3465 H   0  0  0  0  0  0  0  0  0  0  0  0
  1  2  2  0
  2  3  1  0
  3  4  1  0
  4  5  1  0
  5  6  2  0
  5  7  1  0
  7  8  1  0
  8  9  1  0
  9 10  1  0
  9 11  1  0
 11 12  1  0
 12 13  1  0
 13 14  1  0
 14 15  1  0
 15 16  1  0
 16 17  1  0
  2 18  1  0
 18 19  2  0
 19 20  1  0
 20 21  2  0
 21 22  1  0
 22 23  2  0
 23 24  1  0
 23 25  1  0
 25 26  2  0
 26 27  1  0
 27 28  2  0
 12  7  1  0
 17 13  1  0
 28 18  1  0
 27 21  1  0
  3 29  1  0
  4 30  1  0
  4 31  1  0
  8 32  1  0
  8 33  1  0
  9 34  1  6
 10 35  1  0
 11 36  1  0
 11 37  1  0
 12 38  1  6
 13 39  1  0
 14 40  1  0
 14 41  1  0
 15 42  1  0
 15 43  1  0
 16 44  1  0
 16 45  1  0
 17 46  1  0
 17 47  1  0
 19 48  1  0
 20 49  1  0
 22 50  1  0
 25 51  1  0
 26 52  1  0
M  END
>  <smiles>  (38) 
O=C(NCC(=O)N1C[C@H](O)C[C@@H]1C1CCCC1)c1ccc2cc(Cl)ccc2n1

>  <score_type>  (38) 
oracle

>  <origin>  (38) 
autodockgpu

>  <m_score__min__energy>  (38) 
-8.4199999999999999

>  <m_primary>  (38) 
energy

>  <rmsd>  (38) 
1.73393167674924

>  <m_score__min__rmsd>  (38) 
1.73393167674924

>  <meeko>  (38) 
{"free_energy": -7.97, "intermolecular_energy": -9.76, "internal_energy": -2.01, "cluster_size": 4, "cluster_id": 3, "rank_in_cluster": 1}

>  <energy>  (38) 
-6.41

>  <cluster_rmsd>  (38) 
0.08

>  <cluster>  (38) 
6

$$$$

     RDKit          3D

 52 55  0  0  0  0  0  0  0  0999 V2000
  134.7230   68.4920  225.1930 O   0  0  0  0  0  0  0  0  0  0  0  0
  135.1650   69.6330  224.9080 C   0  0  0  0  0  0  0  0  0  0  0  0
  136.2530   69.8850  224.0550 N   0  0  0  0  0  0  0  0  0  0  0  0
  136.9820   68.8130  223.4080 C   0  0  0  0  0  0  0  0  0  0  0  0
  138.3820   68.8500  223.9640 C   0  0  0  0  0  0  0  0  0  0  0  0
  138.9630   67.7390  223.9930 O   0  0  0  0  0  0  0  0  0  0  0  0
  138.8910   70.0810  224.3820 N   0  0  0  0  0  0  0  0  0  0  0  0
  138.8500   71.3230  223.5400 C   0  0  0  0  0  0  0  0  0  0  0  0
  140.2520   71.8800  223.6750 C   0  0  2  0  0  0  0  0  0  0  0  0
  140.9370   71.5910  222.5110 O   0  0  0  0  0  0  0  0  0  0  0  0
  140.8100   71.1600  224.8910 C   0  0  0  0  0  0  0  0  0  0  0  0
  139.5710   70.5890  225.5450 C   0  0  2  0  0  0  0  0  0  0  0  0
  139.8310   69.6230  226.6000 C   0  0  0  0  0  0  0  0  0  0  0  0
  140.2140   70.1930  227.9400 C   0  0  0  0  0  0  0  0  0  0  0  0
  140.4790   68.8900  228.7130 C   0  0  0  0  0  0  0  0  0  0  0  0
  141.0180   67.9240  227.6600 C   0  0  0  0  0  0  0  0  0  0  0  0
  141.0190   68.7110  226.3440 C   0  0  0  0  0  0  0  0  0  0  0  0
  134.4860   70.7910  225.5170 C   0  0  0  0  0  0  0  0  0  0  0  0
  133.4840   70.6380  226.4570 C   0  0  0  0  0  0  0  0  0  0  0  0
  132.8320   71.7000  227.0440 C   0  0  0  0  0  0  0  0  0  0  0  0
  133.1840   72.9860  226.6860 C   0  0  0  0  0  0  0  0  0  0  0  0
  132.5720   74.0840  227.2350 C   0  0  0  0  0  0  0  0  0  0  0  0
  132.9600   75.3570  226.8430 C   0  0  0  0  0  0  0  0  0  0  0  0
  132.1640   76.7270  227.5580 Cl  0  0  0  0  0  0  0  0  0  0  0  0
  133.9620   75.4620  225.9040 C   0  0  0  0  0  0  0  0  0  0  0  0
  134.5910   74.3710  225.3400 C   0  0  0  0  0  0  0  0  0  0  0  0
  134.1840   73.1190  225.7480 C   0  0  0  0  0  0  0  0  0  0  0  0
  134.8090   72.0590  225.1860 N   0  0  0  0  0  0  0  0  0  0  0  0
  136.5580   70.8660  223.8720 H   0  0  0  0  0  0  0  0  0  0  0  0
  136.5103   67.8445  223.6306 H   0  0  0  0  0  0  0  0  0  0  0  0
  136.9850   68.9376  222.3151 H   0  0  0  0  0  0  0  0  0  0  0  0
  138.6210   71.0813  222.4916 H   0  0  0  0  0  0  0  0  0  0  0  0
  138.0717   72.0330  223.8566 H   0  0  0  0  0  0  0  0  0  0  0  0
  140.3167   72.9696  223.8114 H   0  0  0  0  0  0  0  0  0  0  0  0
  140.6630   70.7380  222.0870 H   0  0  0  0  0  0  0  0  0  0  0  0
  141.5043   70.3605  224.5933 H   0  0  0  0  0  0  0  0  0  0  0  0
  141.3886   71.8172  225.5569 H   0  0  0  0  0  0  0  0  0  0  0  0
  138.9780   71.3110  226.1255 H   0  0  0  0  0  0  0  0  0  0  0  0
  138.8536   69.1183  226.6048 H   0  0  0  0  0  0  0  0  0  0  0  0
  141.1151   70.8206  227.8751 H   0  0  0  0  0  0  0  0  0  0  0  0
  139.4650   70.8588  228.3936 H   0  0  0  0  0  0  0  0  0  0  0  0
  141.2221   69.0534  229.5075 H   0  0  0  0  0  0  0  0  0  0  0  0
  139.5752   68.5065  229.2090 H   0  0  0  0  0  0  0  0  0  0  0  0
  142.0386   67.6048  227.9178 H   0  0  0  0  0  0  0  0  0  0  0  0
  140.4052   67.0131  227.5902 H   0  0  0  0  0  0  0  0  0  0  0  0
  141.9508   69.2791  226.2057 H   0  0  0  0  0  0  0  0  0  0  0  0
  140.9537   68.1000  225.4316 H   0  0  0  0  0  0  0  0  0  0  0  0
  133.1932   69.6186  226.7505 H   0  0  0  0  0  0  0  0  0  0  0  0
  132.0411   71.5256  227.7884 H   0  0  0  0  0  0  0  0  0  0  0  0
  131.7763   73.9556  227.9835 H   0  0  0  0  0  0  0  0  0  0  0  0
  134.2771   76.4672  225.5874 H   0  0  0  0  0  0  0  0  0  0  0  0
  135.3880   74.4959  224.5922 H   0  0  0  0  0  0  0  0  0  0  0  0
  1  2  2  0
  2  3  1  0
  3  4  1  0
  4  5  1  0
  5  6  2  0
  5  7  1  0
  7  8  1  0
  8  9  1  0
  9 10  1  0
  9 11  1  0
 11 12  1  0
 12 13  1  0
 13 14  1  0
 14 15  1  0
 15 16  1  0
 16 17  1  0
  2 18  1  0
 18 19  2  0
 19 20  1  0
 20 21  2  0
 21 22  1  0
 22 23  2  0
 23 24  1  0
 23 25  1  0
 25 26  2  0
 26 27  1  0
 27 28  2  0
 12  7  1  0
 17 13  1  0
 28 18  1  0
 27 21  1  0
  3 29  1  0
  4 30  1  0
  4 31  1  0
  8 32  1  0
  8 33  1  0
  9 34  1  1
 10 35  1  0
 11 36  1  0
 11 37  1  0
 12 38  1  1
 13 39  1  0
 14 40  1  0
 14 41  1  0
 15 42  1  0
 15 43  1  0
 16 44  1  0
 16 45  1  0
 17 46  1  0
 17 47  1  0
 19 48  1  0
 20 49  1  0
 22 50  1  0
 25 51  1  0
 26 52  1  0
M  END
>  <smiles>  (39) 
O=C(NCC(=O)N1C[C@H](O)C[C@@H]1C1CCCC1)c1ccc2cc(Cl)ccc2n1

>  <score_type>  (39) 
oracle

>  <origin>  (39) 
autodockgpu

>  <m_score__min__energy>  (39) 
-8.4199999999999999

>  <m_primary>  (39) 
energy

>  <rmsd>  (39) 
7.411978201379566

>  <m_score__min__rmsd>  (39) 
7.411978201379566

>  <meeko>  (39) 
{"free_energy": -7.9, "intermolecular_energy": -9.69, "internal_energy": -1.81, "cluster_size": 13, "cluster_id": 2, "rank_in_cluster": 8}

>  <energy>  (39) 
-6.4

>  <cluster_rmsd>  (39) 
0.08

>  <cluster>  (39) 
6

$$$$

     RDKit          3D

 52 55  0  0  0  0  0  0  0  0999 V2000
  138.8720   79.2430  220.0130 O   0  0  0  0  0  0  0  0  0  0  0  0
  140.0970   79.1580  220.2740 C   0  0  0  0  0  0  0  0  0  0  0  0
  140.9650   80.2530  220.4260 N   0  0  0  0  0  0  0  0  0  0  0  0
  140.5030   81.6200  220.2920 C   0  0  0  0  0  0  0  0  0  0  0  0
  140.6390   82.2550  221.6510 C   0  0  0  0  0  0  0  0  0  0  0  0
  140.4760   83.4970  221.6670 O   0  0  0  0  0  0  0  0  0  0  0  0
  140.9260   81.4260  222.7380 N   0  0  0  0  0  0  0  0  0  0  0  0
  142.3210   81.1290  223.2070 C   0  0  0  0  0  0  0  0  0  0  0  0
  142.3090   79.6270  223.4050 C   0  0  2  0  0  0  0  0  0  0  0  0
  142.9710   79.0540  222.3380 O   0  0  0  0  0  0  0  0  0  0  0  0
  140.8300   79.2810  223.4450 C   0  0  0  0  0  0  0  0  0  0  0  0
  140.1740   80.6260  223.6690 C   0  0  2  0  0  0  0  0  0  0  0  0
  138.7300   80.6350  223.4890 C   0  0  0  0  0  0  0  0  0  0  0  0
  137.9130   80.9600  224.7120 C   0  0  0  0  0  0  0  0  0  0  0  0
  136.4980   80.7810  224.1360 C   0  0  0  0  0  0  0  0  0  0  0  0
  136.6460   79.6760  223.0930 C   0  0  0  0  0  0  0  0  0  0  0  0
  138.1310   79.2900  223.1130 C   0  0  0  0  0  0  0  0  0  0  0  0
  140.6640   77.8060  220.4320 C   0  0  0  0  0  0  0  0  0  0  0  0
  139.9410   76.7750  221.0040 C   0  0  0  0  0  0  0  0  0  0  0  0
  140.4410   75.5020  221.1650 C   0  0  0  0  0  0  0  0  0  0  0  0
  141.7250   75.2260  220.7410 C   0  0  0  0  0  0  0  0  0  0  0  0
  142.2790   73.9780  220.8730 C   0  0  0  0  0  0  0  0  0  0  0  0
  143.5740   73.7490  220.4310 C   0  0  0  0  0  0  0  0  0  0  0  0
  144.2470   72.1560  220.6150 Cl  0  0  0  0  0  0  0  0  0  0  0  0
  144.2570   74.8050  219.8680 C   0  0  0  0  0  0  0  0  0  0  0  0
  143.7180   76.0670  219.7250 C   0  0  0  0  0  0  0  0  0  0  0  0
  142.4300   76.2650  220.1740 C   0  0  0  0  0  0  0  0  0  0  0  0
  141.9150   77.5070  220.0260 N   0  0  0  0  0  0  0  0  0  0  0  0
  141.9740   80.0960  220.6420 H   0  0  0  0  0  0  0  0  0  0  0  0
  141.1198   82.1589  219.5578 H   0  0  0  0  0  0  0  0  0  0  0  0
  139.4612   81.6542  219.9405 H   0  0  0  0  0  0  0  0  0  0  0  0
  143.0623   81.4207  222.4485 H   0  0  0  0  0  0  0  0  0  0  0  0
  142.5960   81.6813  224.1177 H   0  0  0  0  0  0  0  0  0  0  0  0
  142.8123   79.2659  224.3140 H   0  0  0  0  0  0  0  0  0  0  0  0
  142.5410   78.2290  221.9960 H   0  0  0  0  0  0  0  0  0  0  0  0
  140.5023   78.8342  222.4948 H   0  0  0  0  0  0  0  0  0  0  0  0
  140.5779   78.5406  224.2185 H   0  0  0  0  0  0  0  0  0  0  0  0
  140.2150   80.9947  224.7046 H   0  0  0  0  0  0  0  0  0  0  0  0
  138.6665   81.4043  222.7053 H   0  0  0  0  0  0  0  0  0  0  0  0
  138.1115   80.2579  225.5352 H   0  0  0  0  0  0  0  0  0  0  0  0
  138.1131   81.9458  225.1570 H   0  0  0  0  0  0  0  0  0  0  0  0
  135.7927   80.4794  224.9244 H   0  0  0  0  0  0  0  0  0  0  0  0
  136.1013   81.7121  223.7051 H   0  0  0  0  0  0  0  0  0  0  0  0
  136.0203   78.8110  223.3579 H   0  0  0  0  0  0  0  0  0  0  0  0
  136.3246   80.0104  222.0956 H   0  0  0  0  0  0  0  0  0  0  0  0
  138.3452   78.5191  223.8679 H   0  0  0  0  0  0  0  0  0  0  0  0
  138.5144   78.8488  222.1811 H   0  0  0  0  0  0  0  0  0  0  0  0
  138.9166   76.9820  221.3471 H   0  0  0  0  0  0  0  0  0  0  0  0
  139.8251   74.7155  221.6255 H   0  0  0  0  0  0  0  0  0  0  0  0
  141.6985   73.1617  221.3277 H   0  0  0  0  0  0  0  0  0  0  0  0
  145.2844   74.6331  219.5145 H   0  0  0  0  0  0  0  0  0  0  0  0
  144.2951   76.8852  219.2694 H   0  0  0  0  0  0  0  0  0  0  0  0
  1  2  2  0
  2  3  1  0
  3  4  1  0
  4  5  1  0
  5  6  2  0
  5  7  1  0
  7  8  1  0
  8  9  1  0
  9 10  1  0
  9 11  1  0
 11 12  1  0
 12 13  1  0
 13 14  1  0
 14 15  1  0
 15 16  1  0
 16 17  1  0
  2 18  1  0
 18 19  2  0
 19 20  1  0
 20 21  2  0
 21 22  1  0
 22 23  2  0
 23 24  1  0
 23 25  1  0
 25 26  2  0
 26 27  1  0
 27 28  2  0
 12  7  1  0
 17 13  1  0
 28 18  1  0
 27 21  1  0
  3 29  1  0
  4 30  1  0
  4 31  1  0
  8 32  1  0
  8 33  1  0
  9 34  1  1
 10 35  1  0
 11 36  1  0
 11 37  1  0
 12 38  1  1
 13 39  1  0
 14 40  1  0
 14 41  1  0
 15 42  1  0
 15 43  1  0
 16 44  1  0
 16 45  1  0
 17 46  1  0
 17 47  1  0
 19 48  1  0
 20 49  1  0
 22 50  1  0
 25 51  1  0
 26 52  1  0
M  END
>  <smiles>  (40) 
O=C(NCC(=O)N1C[C@H](O)C[C@@H]1C1CCCC1)c1ccc2cc(Cl)ccc2n1

>  <score_type>  (40) 
oracle

>  <origin>  (40) 
autodockgpu

>  <m_score__min__energy>  (40) 
-8.4199999999999999

>  <m_primary>  (40) 
energy

>  <rmsd>  (40) 
8.02238517037997

>  <m_score__min__rmsd>  (40) 
8.02238517037997

>  <meeko>  (40) 
{"free_energy": -6.07, "intermolecular_energy": -7.86, "internal_energy": -3.76, "cluster_size": 15, "cluster_id": 6, "rank_in_cluster": 14}

>  <energy>  (40) 
-6.39

>  <cluster_rmsd>  (40) 
0.12

>  <cluster>  (40) 
6

$$$$

     RDKit          3D

 52 55  0  0  0  0  0  0  0  0999 V2000
  138.7330   71.8940  220.9000 O   0  0  0  0  0  0  0  0  0  0  0  0
  139.2080   72.3650  221.9630 C   0  0  0  0  0  0  0  0  0  0  0  0
  139.5490   73.7140  222.1640 N   0  0  0  0  0  0  0  0  0  0  0  0
  139.3730   74.7100  221.1270 C   0  0  0  0  0  0  0  0  0  0  0  0
  140.5580   75.6360  221.2160 C   0  0  0  0  0  0  0  0  0  0  0  0
  141.4430   75.2770  222.0280 O   0  0  0  0  0  0  0  0  0  0  0  0
  140.5640   76.7750  220.4080 N   0  0  0  0  0  0  0  0  0  0  0  0
  140.4970   76.7280  218.9090 C   0  0  0  0  0  0  0  0  0  0  0  0
  141.5800   77.6980  218.4820 C   0  0  2  0  0  0  0  0  0  0  0  0
  142.6680   76.9600  218.0610 O   0  0  0  0  0  0  0  0  0  0  0  0
  141.8560   78.5050  219.7390 C   0  0  0  0  0  0  0  0  0  0  0  0
  140.6560   78.1980  220.6090 C   0  0  2  0  0  0  0  0  0  0  0  0
  140.7800   78.6350  221.9910 C   0  0  0  0  0  0  0  0  0  0  0  0
  139.9540   79.8320  222.3830 C   0  0  0  0  0  0  0  0  0  0  0  0
  140.4270   80.0120  223.8360 C   0  0  0  0  0  0  0  0  0  0  0  0
  141.8830   79.5540  223.8240 C   0  0  0  0  0  0  0  0  0  0  0  0
  142.1660   79.1230  222.3790 C   0  0  0  0  0  0  0  0  0  0  0  0
  139.4230   71.4280  223.0810 C   0  0  0  0  0  0  0  0  0  0  0  0
  139.0040   70.1120  223.0200 C   0  0  0  0  0  0  0  0  0  0  0  0
  139.1900   69.2130  224.0470 C   0  0  0  0  0  0  0  0  0  0  0  0
  139.8230   69.6310  225.2000 C   0  0  0  0  0  0  0  0  0  0  0  0
  140.0380   68.7830  226.2560 C   0  0  0  0  0  0  0  0  0  0  0  0
  140.6790   69.2500  227.3940 C   0  0  0  0  0  0  0  0  0  0  0  0
  140.9350   68.1490  228.7160 Cl  0  0  0  0  0  0  0  0  0  0  0  0
  141.0790   70.5680  227.4110 C   0  0  0  0  0  0  0  0  0  0  0  0
  140.8730   71.4370  226.3600 C   0  0  0  0  0  0  0  0  0  0  0  0
  140.2330   70.9450  225.2420 C   0  0  0  0  0  0  0  0  0  0  0  0
  140.0390   71.8090  224.2190 N   0  0  0  0  0  0  0  0  0  0  0  0
  139.9410   74.0230  223.0800 H   0  0  0  0  0  0  0  0  0  0  0  0
  139.3411   74.2279  220.1388 H   0  0  0  0  0  0  0  0  0  0  0  0
  138.4290   75.2589  221.2595 H   0  0  0  0  0  0  0  0  0  0  0  0
  140.7065   75.7144  218.5366 H   0  0  0  0  0  0  0  0  0  0  0  0
  139.5043   76.9893  218.5137 H   0  0  0  0  0  0  0  0  0  0  0  0
  141.3155   78.3650  217.6483 H   0  0  0  0  0  0  0  0  0  0  0  0
  142.7200   76.0580  218.4680 H   0  0  0  0  0  0  0  0  0  0  0  0
  142.7888   78.1784  220.2220 H   0  0  0  0  0  0  0  0  0  0  0  0
  141.9879   79.5797  219.5448 H   0  0  0  0  0  0  0  0  0  0  0  0
  139.7389   78.7443  220.3435 H   0  0  0  0  0  0  0  0  0  0  0  0
  140.4627   77.7055  222.4863 H   0  0  0  0  0  0  0  0  0  0  0  0
  140.1884   80.7110  221.7646 H   0  0  0  0  0  0  0  0  0  0  0  0
  138.8680   79.7087  222.2591 H   0  0  0  0  0  0  0  0  0  0  0  0
  140.3537   81.0664  224.1409 H   0  0  0  0  0  0  0  0  0  0  0  0
  139.8147   79.4402  224.5489 H   0  0  0  0  0  0  0  0  0  0  0  0
  142.5481   80.3801  224.1159 H   0  0  0  0  0  0  0  0  0  0  0  0
  142.0584   78.7340  224.5359 H   0  0  0  0  0  0  0  0  0  0  0  0
  142.4940   79.9674  221.7550 H   0  0  0  0  0  0  0  0  0  0  0  0
  142.9741   78.3865  222.2582 H   0  0  0  0  0  0  0  0  0  0  0  0
  138.4974   69.7659  222.1070 H   0  0  0  0  0  0  0  0  0  0  0  0
  138.8385   68.1752  223.9494 H   0  0  0  0  0  0  0  0  0  0  0  0
  139.7034   67.7366  226.2008 H   0  0  0  0  0  0  0  0  0  0  0  0
  141.5889   70.9469  228.3090 H   0  0  0  0  0  0  0  0  0  0  0  0
  141.2069   72.4838  226.4117 H   0  0  0  0  0  0  0  0  0  0  0  0
  1  2  2  0
  2  3  1  0
  3  4  1  0
  4  5  1  0
  5  6  2  0
  5  7  1  0
  7  8  1  0
  8  9  1  0
  9 10  1  0
  9 11  1  0
 11 12  1  0
 12 13  1  0
 13 14  1  0
 14 15  1  0
 15 16  1  0
 16 17  1  0
  2 18  1  0
 18 19  2  0
 19 20  1  0
 20 21  2  0
 21 22  1  0
 22 23  2  0
 23 24  1  0
 23 25  1  0
 25 26  2  0
 26 27  1  0
 27 28  2  0
 12  7  1  0
 17 13  1  0
 28 18  1  0
 27 21  1  0
  3 29  1  0
  4 30  1  0
  4 31  1  0
  8 32  1  0
  8 33  1  0
  9 34  1  6
 10 35  1  0
 11 36  1  0
 11 37  1  0
 12 38  1  6
 13 39  1  0
 14 40  1  0
 14 41  1  0
 15 42  1  0
 15 43  1  0
 16 44  1  0
 16 45  1  0
 17 46  1  0
 17 47  1  0
 19 48  1  0
 20 49  1  0
 22 50  1  0
 25 51  1  0
 26 52  1  0
M  END
>  <smiles>  (41) 
O=C(NCC(=O)N1C[C@H](O)C[C@@H]1C1CCCC1)c1ccc2cc(Cl)ccc2n1

>  <score_type>  (41) 
oracle

>  <origin>  (41) 
autodockgpu

>  <m_score__min__energy>  (41) 
-8.4199999999999999

>  <m_primary>  (41) 
energy

>  <rmsd>  (41) 
1.6136415495342857

>  <m_score__min__rmsd>  (41) 
1.6136415495342857

>  <meeko>  (41) 
{"free_energy": -7.57, "intermolecular_energy": -9.36, "internal_energy": -2.07, "cluster_size": 14, "cluster_id": 1, "rank_in_cluster": 14}

>  <energy>  (41) 
-6.38

>  <cluster_rmsd>  (41) 
0.13

>  <cluster>  (41) 
6

$$$$

     RDKit          3D

 52 55  0  0  0  0  0  0  0  0999 V2000
  134.7270   68.5050  225.2430 O   0  0  0  0  0  0  0  0  0  0  0  0
  135.1590   69.6480  224.9510 C   0  0  0  0  0  0  0  0  0  0  0  0
  136.2420   69.9040  224.0920 N   0  0  0  0  0  0  0  0  0  0  0  0
  136.9760   68.8340  223.4480 C   0  0  0  0  0  0  0  0  0  0  0  0
  138.3650   68.8550  224.0310 C   0  0  0  0  0  0  0  0  0  0  0  0
  138.9230   67.7350  224.0960 O   0  0  0  0  0  0  0  0  0  0  0  0
  138.8900   70.0850  224.4330 N   0  0  0  0  0  0  0  0  0  0  0  0
  138.8370   71.3240  223.5870 C   0  0  0  0  0  0  0  0  0  0  0  0
  140.2450   71.8740  223.6870 C   0  0  2  0  0  0  0  0  0  0  0  0
  140.9010   71.5760  222.5090 O   0  0  0  0  0  0  0  0  0  0  0  0
  140.8270   71.1560  224.8920 C   0  0  0  0  0  0  0  0  0  0  0  0
  139.6000   70.5950  225.5770 C   0  0  2  0  0  0  0  0  0  0  0  0
  139.8790   69.6300  226.6300 C   0  0  0  0  0  0  0  0  0  0  0  0
  140.3660   70.2000  227.9360 C   0  0  0  0  0  0  0  0  0  0  0  0
  140.6180   68.8960  228.7120 C   0  0  0  0  0  0  0  0  0  0  0  0
  141.0500   67.8930  227.6450 C   0  0  0  0  0  0  0  0  0  0  0  0
  141.0080   68.6630  226.3180 C   0  0  0  0  0  0  0  0  0  0  0  0
  134.4740   70.8050  225.5570 C   0  0  0  0  0  0  0  0  0  0  0  0
  133.4710   70.6480  226.4950 C   0  0  0  0  0  0  0  0  0  0  0  0
  132.8130   71.7080  227.0790 C   0  0  0  0  0  0  0  0  0  0  0  0
  133.1600   72.9950  226.7200 C   0  0  0  0  0  0  0  0  0  0  0  0
  132.5420   74.0910  227.2660 C   0  0  0  0  0  0  0  0  0  0  0  0
  132.9260   75.3650  226.8730 C   0  0  0  0  0  0  0  0  0  0  0  0
  132.1210   76.7330  227.5840 Cl  0  0  0  0  0  0  0  0  0  0  0  0
  133.9290   75.4730  225.9350 C   0  0  0  0  0  0  0  0  0  0  0  0
  134.5630   74.3840  225.3740 C   0  0  0  0  0  0  0  0  0  0  0  0
  134.1610   73.1310  225.7830 C   0  0  0  0  0  0  0  0  0  0  0  0
  134.7920   72.0730  225.2240 N   0  0  0  0  0  0  0  0  0  0  0  0
  136.5380   70.8860  223.9030 H   0  0  0  0  0  0  0  0  0  0  0  0
  136.4935   67.8666  223.6511 H   0  0  0  0  0  0  0  0  0  0  0  0
  137.0011   68.9702  222.3568 H   0  0  0  0  0  0  0  0  0  0  0  0
  138.5825   71.0793  222.5452 H   0  0  0  0  0  0  0  0  0  0  0  0
  138.0705   72.0397  223.9189 H   0  0  0  0  0  0  0  0  0  0  0  0
  140.3187   72.9638  223.8172 H   0  0  0  0  0  0  0  0  0  0  0  0
  140.5630   70.7620  222.0580 H   0  0  0  0  0  0  0  0  0  0  0  0
  141.5095   70.3512  224.5814 H   0  0  0  0  0  0  0  0  0  0  0  0
  141.4250   71.8123  225.5414 H   0  0  0  0  0  0  0  0  0  0  0  0
  139.0256   71.3240  226.1675 H   0  0  0  0  0  0  0  0  0  0  0  0
  138.8828   69.1689  226.7003 H   0  0  0  0  0  0  0  0  0  0  0  0
  141.2887   70.7851  227.8084 H   0  0  0  0  0  0  0  0  0  0  0  0
  139.6760   70.9053  228.4223 H   0  0  0  0  0  0  0  0  0  0  0  0
  141.4133   69.0357  229.4590 H   0  0  0  0  0  0  0  0  0  0  0  0
  139.7287   68.5604  229.2656 H   0  0  0  0  0  0  0  0  0  0  0  0
  142.0689   67.5311  227.8475 H   0  0  0  0  0  0  0  0  0  0  0  0
  140.3944   67.0099  227.6255 H   0  0  0  0  0  0  0  0  0  0  0  0
  141.9540   69.1869  226.1166 H   0  0  0  0  0  0  0  0  0  0  0  0
  140.8621   68.0444  225.4202 H   0  0  0  0  0  0  0  0  0  0  0  0
  133.1844   69.6276  226.7893 H   0  0  0  0  0  0  0  0  0  0  0  0
  132.0212   71.5312  227.8219 H   0  0  0  0  0  0  0  0  0  0  0  0
  131.7449   73.9604  228.0127 H   0  0  0  0  0  0  0  0  0  0  0  0
  134.2402   76.4790  225.6171 H   0  0  0  0  0  0  0  0  0  0  0  0
  135.3606   74.5112  224.6272 H   0  0  0  0  0  0  0  0  0  0  0  0
  1  2  2  0
  2  3  1  0
  3  4  1  0
  4  5  1  0
  5  6  2  0
  5  7  1  0
  7  8  1  0
  8  9  1  0
  9 10  1  0
  9 11  1  0
 11 12  1  0
 12 13  1  0
 13 14  1  0
 14 15  1  0
 15 16  1  0
 16 17  1  0
  2 18  1  0
 18 19  2  0
 19 20  1  0
 20 21  2  0
 21 22  1  0
 22 23  2  0
 23 24  1  0
 23 25  1  0
 25 26  2  0
 26 27  1  0
 27 28  2  0
 12  7  1  0
 17 13  1  0
 28 18  1  0
 27 21  1  0
  3 29  1  0
  4 30  1  0
  4 31  1  0
  8 32  1  0
  8 33  1  0
  9 34  1  1
 10 35  1  0
 11 36  1  0
 11 37  1  0
 12 38  1  1
 13 39  1  0
 14 40  1  0
 14 41  1  0
 15 42  1  0
 15 43  1  0
 16 44  1  0
 16 45  1  0
 17 46  1  0
 17 47  1  0
 19 48  1  0
 20 49  1  0
 22 50  1  0
 25 51  1  0
 26 52  1  0
M  END
>  <smiles>  (42) 
O=C(NCC(=O)N1C[C@H](O)C[C@@H]1C1CCCC1)c1ccc2cc(Cl)ccc2n1

>  <score_type>  (42) 
oracle

>  <origin>  (42) 
autodockgpu

>  <m_score__min__energy>  (42) 
-8.4199999999999999

>  <m_primary>  (42) 
energy

>  <rmsd>  (42) 
7.431942925328643

>  <m_score__min__rmsd>  (42) 
7.431942925328643

>  <meeko>  (42) 
{"free_energy": -7.95, "intermolecular_energy": -9.74, "internal_energy": -1.79, "cluster_size": 13, "cluster_id": 2, "rank_in_cluster": 7}

>  <energy>  (42) 
-6.38

>  <cluster_rmsd>  (42) 
0.13

>  <cluster>  (42) 
6

$$$$

     RDKit          3D

 52 55  0  0  0  0  0  0  0  0999 V2000
  138.3690   81.3660  223.5680 O   0  0  0  0  0  0  0  0  0  0  0  0
  137.4210   80.6530  223.9790 C   0  0  0  0  0  0  0  0  0  0  0  0
  136.9460   79.4970  223.3360 N   0  0  0  0  0  0  0  0  0  0  0  0
  137.5310   79.0130  222.1020 C   0  0  0  0  0  0  0  0  0  0  0  0
  137.8880   77.5680  222.3340 C   0  0  0  0  0  0  0  0  0  0  0  0
  137.1010   76.9490  223.0890 O   0  0  0  0  0  0  0  0  0  0  0  0
  139.0290   77.0630  221.7060 N   0  0  0  0  0  0  0  0  0  0  0  0
  139.0520   75.7670  220.9490 C   0  0  0  0  0  0  0  0  0  0  0  0
  140.3090   75.0910  221.4560 C   0  0  2  0  0  0  0  0  0  0  0  0
  139.9300   74.1060  222.3470 O   0  0  0  0  0  0  0  0  0  0  0  0
  141.0860   76.2200  222.1100 C   0  0  0  0  0  0  0  0  0  0  0  0
  140.4060   77.4580  221.5670 C   0  0  2  0  0  0  0  0  0  0  0  0
  140.7800   78.6970  222.2320 C   0  0  0  0  0  0  0  0  0  0  0  0
  141.6870   79.6160  221.4570 C   0  0  0  0  0  0  0  0  0  0  0  0
  141.9020   80.7180  222.5080 C   0  0  0  0  0  0  0  0  0  0  0  0
  141.8520   79.9860  223.8460 C   0  0  0  0  0  0  0  0  0  0  0  0
  141.5970   78.5130  223.4990 C   0  0  0  0  0  0  0  0  0  0  0  0
  136.7610   81.0630  225.2320 C   0  0  0  0  0  0  0  0  0  0  0  0
  137.3050   82.0250  226.0620 C   0  0  0  0  0  0  0  0  0  0  0  0
  136.7120   82.4300  227.2380 C   0  0  0  0  0  0  0  0  0  0  0  0
  135.5170   81.8550  227.6200 C   0  0  0  0  0  0  0  0  0  0  0  0
  134.8780   82.2160  228.7790 C   0  0  0  0  0  0  0  0  0  0  0  0
  133.6780   81.6100  229.1210 C   0  0  0  0  0  0  0  0  0  0  0  0
  132.8950   82.0890  230.5980 Cl  0  0  0  0  0  0  0  0  0  0  0  0
  133.1730   80.6560  228.2650 C   0  0  0  0  0  0  0  0  0  0  0  0
  133.8000   80.2790  227.0950 C   0  0  0  0  0  0  0  0  0  0  0  0
  134.9910   80.8980  226.7810 C   0  0  0  0  0  0  0  0  0  0  0  0
  135.5920   80.5180  225.6310 N   0  0  0  0  0  0  0  0  0  0  0  0
  136.1500   78.9600  223.7450 H   0  0  0  0  0  0  0  0  0  0  0  0
  136.8059   79.0976  221.2792 H   0  0  0  0  0  0  0  0  0  0  0  0
  138.4180   79.6017  221.8253 H   0  0  0  0  0  0  0  0  0  0  0  0
  138.1610   75.1627  221.1747 H   0  0  0  0  0  0  0  0  0  0  0  0
  139.0472   75.9052  219.8577 H   0  0  0  0  0  0  0  0  0  0  0  0
  140.9230   74.5973  220.6884 H   0  0  0  0  0  0  0  0  0  0  0  0
  139.0940   74.3110  222.8370 H   0  0  0  0  0  0  0  0  0  0  0  0
  141.0053   76.1728  223.2060 H   0  0  0  0  0  0  0  0  0  0  0  0
  142.1641   76.1869  221.8944 H   0  0  0  0  0  0  0  0  0  0  0  0
  140.6881   77.7296  220.5390 H   0  0  0  0  0  0  0  0  0  0  0  0
  139.7727   79.1103  222.3887 H   0  0  0  0  0  0  0  0  0  0  0  0
  142.6311   79.1229  221.1821 H   0  0  0  0  0  0  0  0  0  0  0  0
  141.2849   79.9634  220.4938 H   0  0  0  0  0  0  0  0  0  0  0  0
  142.8786   81.2042  222.3672 H   0  0  0  0  0  0  0  0  0  0  0  0
  141.1466   81.5146  222.4389 H   0  0  0  0  0  0  0  0  0  0  0  0
  142.8076   80.0952  224.3798 H   0  0  0  0  0  0  0  0  0  0  0  0
  141.0691   80.3915  224.5037 H   0  0  0  0  0  0  0  0  0  0  0  0
  142.5330   77.9673  223.3090 H   0  0  0  0  0  0  0  0  0  0  0  0
  141.1121   77.9210  224.2892 H   0  0  0  0  0  0  0  0  0  0  0  0
  138.2579   82.4901  225.7694 H   0  0  0  0  0  0  0  0  0  0  0  0
  137.1847   83.2012  227.8639 H   0  0  0  0  0  0  0  0  0  0  0  0
  135.3156   82.9832  229.4347 H   0  0  0  0  0  0  0  0  0  0  0  0
  132.2217   80.1701  228.5275 H   0  0  0  0  0  0  0  0  0  0  0  0
  133.3652   79.5124  226.4368 H   0  0  0  0  0  0  0  0  0  0  0  0
  1  2  2  0
  2  3  1  0
  3  4  1  0
  4  5  1  0
  5  6  2  0
  5  7  1  0
  7  8  1  0
  8  9  1  0
  9 10  1  0
  9 11  1  0
 11 12  1  0
 12 13  1  0
 13 14  1  0
 14 15  1  0
 15 16  1  0
 16 17  1  0
  2 18  1  0
 18 19  2  0
 19 20  1  0
 20 21  2  0
 21 22  1  0
 22 23  2  0
 23 24  1  0
 23 25  1  0
 25 26  2  0
 26 27  1  0
 27 28  2  0
 12  7  1  0
 17 13  1  0
 28 18  1  0
 27 21  1  0
  3 29  1  0
  4 30  1  0
  4 31  1  0
  8 32  1  0
  8 33  1  0
  9 34  1  6
 10 35  1  0
 11 36  1  0
 11 37  1  0
 12 38  1  6
 13 39  1  0
 14 40  1  0
 14 41  1  0
 15 42  1  0
 15 43  1  0
 16 44  1  0
 16 45  1  0
 17 46  1  0
 17 47  1  0
 19 48  1  0
 20 49  1  0
 22 50  1  0
 25 51  1  0
 26 52  1  0
M  END
>  <smiles>  (43) 
O=C(NCC(=O)N1C[C@H](O)C[C@@H]1C1CCCC1)c1ccc2cc(Cl)ccc2n1

>  <score_type>  (43) 
oracle

>  <origin>  (43) 
autodockgpu

>  <m_score__min__energy>  (43) 
-8.4199999999999999

>  <m_primary>  (43) 
energy

>  <rmsd>  (43) 
9.43808225985914

>  <m_score__min__rmsd>  (43) 
9.43808225985914

>  <meeko>  (43) 
{"free_energy": -7.39, "intermolecular_energy": -9.18, "internal_energy": -2.34, "cluster_size": 1, "cluster_id": 4, "rank_in_cluster": 1}

>  <energy>  (43) 
-6.33

>  <cluster_rmsd>  (43) 
0.16

>  <cluster>  (43) 
6

$$$$

     RDKit          3D

 52 55  0  0  0  0  0  0  0  0999 V2000
  139.3540   79.6300  220.1080 O   0  0  0  0  0  0  0  0  0  0  0  0
  140.5670   79.3700  220.3010 C   0  0  0  0  0  0  0  0  0  0  0  0
  141.5900   80.3290  220.4050 N   0  0  0  0  0  0  0  0  0  0  0  0
  141.3200   81.7480  220.2960 C   0  0  0  0  0  0  0  0  0  0  0  0
  140.7430   82.1780  221.6200 C   0  0  0  0  0  0  0  0  0  0  0  0
  140.0640   83.2310  221.5770 O   0  0  0  0  0  0  0  0  0  0  0  0
  141.0080   81.3880  222.7410 N   0  0  0  0  0  0  0  0  0  0  0  0
  142.3920   81.1270  223.2610 C   0  0  0  0  0  0  0  0  0  0  0  0
  142.3950   79.6320  223.5060 C   0  0  2  0  0  0  0  0  0  0  0  0
  143.0980   79.0360  222.4770 O   0  0  0  0  0  0  0  0  0  0  0  0
  140.9210   79.2660  223.5120 C   0  0  0  0  0  0  0  0  0  0  0  0
  140.2390   80.6070  223.6730 C   0  0  2  0  0  0  0  0  0  0  0  0
  138.8020   80.5880  223.4510 C   0  0  0  0  0  0  0  0  0  0  0  0
  137.9430   80.8960  224.6480 C   0  0  0  0  0  0  0  0  0  0  0  0
  136.5490   80.6900  224.0300 C   0  0  0  0  0  0  0  0  0  0  0  0
  136.7500   79.5900  222.9910 C   0  0  0  0  0  0  0  0  0  0  0  0
  138.2410   79.2330  223.0540 C   0  0  0  0  0  0  0  0  0  0  0  0
  140.9430   77.9500  220.4280 C   0  0  0  0  0  0  0  0  0  0  0  0
  140.0750   77.0110  220.9550 C   0  0  0  0  0  0  0  0  0  0  0  0
  140.3950   75.6770  221.0860 C   0  0  0  0  0  0  0  0  0  0  0  0
  141.6400   75.2420  220.6770 C   0  0  0  0  0  0  0  0  0  0  0  0
  142.0180   73.9270  220.7820 C   0  0  0  0  0  0  0  0  0  0  0  0
  143.2790   73.5380  220.3560 C   0  0  0  0  0  0  0  0  0  0  0  0
  143.7270   71.8640  220.5040 Cl  0  0  0  0  0  0  0  0  0  0  0  0
  144.1100   74.5070  219.8380 C   0  0  0  0  0  0  0  0  0  0  0  0
  143.7500   75.8330  219.7240 C   0  0  0  0  0  0  0  0  0  0  0  0
  142.4900   76.1920  220.1550 C   0  0  0  0  0  0  0  0  0  0  0  0
  142.1510   77.4960  220.0360 N   0  0  0  0  0  0  0  0  0  0  0  0
  142.5760   80.0270  220.5650 H   0  0  0  0  0  0  0  0  0  0  0  0
  142.2509   82.2971  220.0911 H   0  0  0  0  0  0  0  0  0  0  0  0
  140.6223   81.9575  219.4718 H   0  0  0  0  0  0  0  0  0  0  0  0
  143.1520   81.4060  222.5163 H   0  0  0  0  0  0  0  0  0  0  0  0
  142.6313   81.7116  224.1615 H   0  0  0  0  0  0  0  0  0  0  0  0
  142.8750   79.3065  224.4407 H   0  0  0  0  0  0  0  0  0  0  0  0
  142.6170   78.2840  222.0480 H   0  0  0  0  0  0  0  0  0  0  0  0
  140.6291   78.7848  222.5669 H   0  0  0  0  0  0  0  0  0  0  0  0
  140.6557   78.5468  224.3009 H   0  0  0  0  0  0  0  0  0  0  0  0
  140.2423   81.0095  224.6967 H   0  0  0  0  0  0  0  0  0  0  0  0
  138.7469   81.3577  222.6671 H   0  0  0  0  0  0  0  0  0  0  0  0
  138.1304   80.1973  225.4767 H   0  0  0  0  0  0  0  0  0  0  0  0
  138.1105   81.8854  225.0987 H   0  0  0  0  0  0  0  0  0  0  0  0
  135.8267   80.3732  224.7968 H   0  0  0  0  0  0  0  0  0  0  0  0
  136.1466   81.6137  223.5886 H   0  0  0  0  0  0  0  0  0  0  0  0
  136.1340   78.7123  223.2364 H   0  0  0  0  0  0  0  0  0  0  0  0
  136.4519   79.9200  221.9849 H   0  0  0  0  0  0  0  0  0  0  0  0
  138.4479   78.4641  223.8129 H   0  0  0  0  0  0  0  0  0  0  0  0
  138.6604   78.8024  222.1328 H   0  0  0  0  0  0  0  0  0  0  0  0
  139.0806   77.3453  221.2858 H   0  0  0  0  0  0  0  0  0  0  0  0
  139.6686   74.9685  221.5106 H   0  0  0  0  0  0  0  0  0  0  0  0
  141.3236   73.1846  221.2023 H   0  0  0  0  0  0  0  0  0  0  0  0
  145.1123   74.2074  219.4979 H   0  0  0  0  0  0  0  0  0  0  0  0
  144.4426   76.5776  219.3045 H   0  0  0  0  0  0  0  0  0  0  0  0
  1  2  2  0
  2  3  1  0
  3  4  1  0
  4  5  1  0
  5  6  2  0
  5  7  1  0
  7  8  1  0
  8  9  1  0
  9 10  1  0
  9 11  1  0
 11 12  1  0
 12 13  1  0
 13 14  1  0
 14 15  1  0
 15 16  1  0
 16 17  1  0
  2 18  1  0
 18 19  2  0
 19 20  1  0
 20 21  2  0
 21 22  1  0
 22 23  2  0
 23 24  1  0
 23 25  1  0
 25 26  2  0
 26 27  1  0
 27 28  2  0
 12  7  1  0
 17 13  1  0
 28 18  1  0
 27 21  1  0
  3 29  1  0
  4 30  1  0
  4 31  1  0
  8 32  1  0
  8 33  1  0
  9 34  1  1
 10 35  1  0
 11 36  1  0
 11 37  1  0
 12 38  1  1
 13 39  1  0
 14 40  1  0
 14 41  1  0
 15 42  1  0
 15 43  1  0
 16 44  1  0
 16 45  1  0
 17 46  1  0
 17 47  1  0
 19 48  1  0
 20 49  1  0
 22 50  1  0
 25 51  1  0
 26 52  1  0
M  END
>  <smiles>  (44) 
O=C(NCC(=O)N1C[C@H](O)C[C@@H]1C1CCCC1)c1ccc2cc(Cl)ccc2n1

>  <score_type>  (44) 
oracle

>  <origin>  (44) 
autodockgpu

>  <m_score__min__energy>  (44) 
-8.4199999999999999

>  <m_primary>  (44) 
energy

>  <rmsd>  (44) 
8.12105785596043

>  <m_score__min__rmsd>  (44) 
8.12105785596043

>  <meeko>  (44) 
{"free_energy": -6.41, "intermolecular_energy": -8.2, "internal_energy": -3.77, "cluster_size": 15, "cluster_id": 6, "rank_in_cluster": 4}

>  <energy>  (44) 
-6.32

>  <cluster_rmsd>  (44) 
0.73

>  <cluster>  (44) 
6

$$$$

     RDKit          3D

 52 55  0  0  0  0  0  0  0  0999 V2000
  139.9650   79.8810  218.9680 O   0  0  0  0  0  0  0  0  0  0  0  0
  140.9850   79.6880  219.6740 C   0  0  0  0  0  0  0  0  0  0  0  0
  141.5820   80.6520  220.5050 N   0  0  0  0  0  0  0  0  0  0  0  0
  141.0510   81.9960  220.6220 C   0  0  0  0  0  0  0  0  0  0  0  0
  140.3100   82.0510  221.9320 C   0  0  0  0  0  0  0  0  0  0  0  0
  139.4330   82.9450  221.9990 O   0  0  0  0  0  0  0  0  0  0  0  0
  140.6550   81.1290  222.9220 N   0  0  0  0  0  0  0  0  0  0  0  0
  142.0610   80.9190  223.4030 C   0  0  0  0  0  0  0  0  0  0  0  0
  142.1990   79.4100  223.4210 C   0  0  2  0  0  0  0  0  0  0  0  0
  142.9430   79.0390  222.3180 O   0  0  0  0  0  0  0  0  0  0  0  0
  140.7640   78.9160  223.3670 C   0  0  0  0  0  0  0  0  0  0  0  0
  139.9670   80.1520  223.7250 C   0  0  2  0  0  0  0  0  0  0  0  0
  138.5350   80.0380  223.4960 C   0  0  0  0  0  0  0  0  0  0  0  0
  138.1070   79.8440  222.0650 C   0  0  0  0  0  0  0  0  0  0  0  0
  136.5790   79.8620  222.2450 C   0  0  0  0  0  0  0  0  0  0  0  0
  136.3420   80.8160  223.4130 C   0  0  0  0  0  0  0  0  0  0  0  0
  137.7370   81.2810  223.8510 C   0  0  0  0  0  0  0  0  0  0  0  0
  141.5990   78.3490  219.6260 C   0  0  0  0  0  0  0  0  0  0  0  0
  142.6200   78.0470  218.7440 C   0  0  0  0  0  0  0  0  0  0  0  0
  143.2140   76.8060  218.6740 C   0  0  0  0  0  0  0  0  0  0  0  0
  142.7790   75.8040  219.5190 C   0  0  0  0  0  0  0  0  0  0  0  0
  143.3300   74.5480  219.4970 C   0  0  0  0  0  0  0  0  0  0  0  0
  142.8590   73.5750  220.3660 C   0  0  0  0  0  0  0  0  0  0  0  0
  143.5800   71.9930  220.3130 Cl  0  0  0  0  0  0  0  0  0  0  0  0
  141.8410   73.9200  221.2270 C   0  0  0  0  0  0  0  0  0  0  0  0
  141.2730   75.1770  221.2650 C   0  0  0  0  0  0  0  0  0  0  0  0
  141.7610   76.1240  220.3900 C   0  0  0  0  0  0  0  0  0  0  0  0
  141.1940   77.3510  220.4390 N   0  0  0  0  0  0  0  0  0  0  0  0
  142.4320   80.4110  221.0600 H   0  0  0  0  0  0  0  0  0  0  0  0
  141.8703   82.7299  220.6179 H   0  0  0  0  0  0  0  0  0  0  0  0
  140.3864   82.2357  219.7789 H   0  0  0  0  0  0  0  0  0  0  0  0
  142.7863   81.3732  222.7119 H   0  0  0  0  0  0  0  0  0  0  0  0
  142.2558   81.3817  224.3818 H   0  0  0  0  0  0  0  0  0  0  0  0
  142.7149   78.9932  224.2985 H   0  0  0  0  0  0  0  0  0  0  0  0
  142.6100   78.2220  221.8680 H   0  0  0  0  0  0  0  0  0  0  0  0
  140.5066   78.5573  222.3595 H   0  0  0  0  0  0  0  0  0  0  0  0
  140.5718   78.0658  224.0380 H   0  0  0  0  0  0  0  0  0  0  0  0
  139.9444   80.3958  224.7974 H   0  0  0  0  0  0  0  0  0  0  0  0
  138.3357   79.1634  224.1327 H   0  0  0  0  0  0  0  0  0  0  0  0
  138.4527   80.6649  221.4196 H   0  0  0  0  0  0  0  0  0  0  0  0
  138.5078   78.9433  221.5771 H   0  0  0  0  0  0  0  0  0  0  0  0
  136.0847   80.2319  221.3346 H   0  0  0  0  0  0  0  0  0  0  0  0
  136.1687   78.8592  222.4346 H   0  0  0  0  0  0  0  0  0  0  0  0
  135.7340   81.6743  223.0912 H   0  0  0  0  0  0  0  0  0  0  0  0
  135.7974   80.3281  224.2348 H   0  0  0  0  0  0  0  0  0  0  0  0
  138.0736   82.1613  223.2837 H   0  0  0  0  0  0  0  0  0  0  0  0
  137.8159   81.6061  224.8989 H   0  0  0  0  0  0  0  0  0  0  0  0
  142.9753   78.8361  218.0650 H   0  0  0  0  0  0  0  0  0  0  0  0
  144.0241   76.6157  217.9546 H   0  0  0  0  0  0  0  0  0  0  0  0
  144.1421   74.3134  218.7931 H   0  0  0  0  0  0  0  0  0  0  0  0
  141.4613   73.1545  221.9197 H   0  0  0  0  0  0  0  0  0  0  0  0
  140.4607   75.4147  221.9676 H   0  0  0  0  0  0  0  0  0  0  0  0
  1  2  2  0
  2  3  1  0
  3  4  1  0
  4  5  1  0
  5  6  2  0
  5  7  1  0
  7  8  1  0
  8  9  1  0
  9 10  1  0
  9 11  1  0
 11 12  1  0
 12 13  1  0
 13 14  1  0
 14 15  1  0
 15 16  1  0
 16 17  1  0
  2 18  1  0
 18 19  2  0
 19 20  1  0
 20 21  2  0
 21 22  1  0
 22 23  2  0
 23 24  1  0
 23 25  1  0
 25 26  2  0
 26 27  1  0
 27 28  2  0
 12  7  1  0
 17 13  1  0
 28 18  1  0
 27 21  1  0
  3 29  1  0
  4 30  1  0
  4 31  1  0
  8 32  1  0
  8 33  1  0
  9 34  1  1
 10 35  1  0
 11 36  1  0
 11 37  1  0
 12 38  1  1
 13 39  1  0
 14 40  1  0
 14 41  1  0
 15 42  1  0
 15 43  1  0
 16 44  1  0
 16 45  1  0
 17 46  1  0
 17 47  1  0
 19 48  1  0
 20 49  1  0
 22 50  1  0
 25 51  1  0
 26 52  1  0
M  END
>  <smiles>  (45) 
O=C(NCC(=O)N1C[C@H](O)C[C@@H]1C1CCCC1)c1ccc2cc(Cl)ccc2n1

>  <score_type>  (45) 
oracle

>  <origin>  (45) 
autodockgpu

>  <m_score__min__energy>  (45) 
-8.4199999999999999

>  <m_primary>  (45) 
energy

>  <rmsd>  (45) 
8.4234155626235

>  <m_score__min__rmsd>  (45) 
8.4234155626235

>  <meeko>  (45) 
{"free_energy": -5.96, "intermolecular_energy": -7.75, "internal_energy": -3.48, "cluster_size": 15, "cluster_id": 6, "rank_in_cluster": 15}

>  <energy>  (45) 
-6.22

>  <cluster_rmsd>  (45) 
0.2

>  <cluster>  (45) 
6

$$$$

     RDKit          3D

 52 55  0  0  0  0  0  0  0  0999 V2000
  139.2670   71.9710  220.7140 O   0  0  0  0  0  0  0  0  0  0  0  0
  139.4210   72.4720  221.8550 C   0  0  0  0  0  0  0  0  0  0  0  0
  139.4530   73.8500  222.1310 N   0  0  0  0  0  0  0  0  0  0  0  0
  139.3040   74.8430  221.0860 C   0  0  0  0  0  0  0  0  0  0  0  0
  140.3700   75.8800  221.3250 C   0  0  0  0  0  0  0  0  0  0  0  0
  141.0050   75.7400  222.3960 O   0  0  0  0  0  0  0  0  0  0  0  0
  140.5500   76.8730  220.3590 N   0  0  0  0  0  0  0  0  0  0  0  0
  140.9930   76.5890  218.9530 C   0  0  0  0  0  0  0  0  0  0  0  0
  142.0700   77.6260  218.7120 C   0  0  2  0  0  0  0  0  0  0  0  0
  143.2950   76.9950  218.8030 O   0  0  0  0  0  0  0  0  0  0  0  0
  141.8400   78.6460  219.8140 C   0  0  0  0  0  0  0  0  0  0  0  0
  140.4490   78.3080  220.3040 C   0  0  2  0  0  0  0  0  0  0  0  0
  140.0660   78.9640  221.5450 C   0  0  0  0  0  0  0  0  0  0  0  0
  141.0120   78.7900  222.7040 C   0  0  0  0  0  0  0  0  0  0  0  0
  140.2240   79.5320  223.7970 C   0  0  0  0  0  0  0  0  0  0  0  0
  138.7580   79.2930  223.4420 C   0  0  0  0  0  0  0  0  0  0  0  0
  138.7790   78.4450  222.1640 C   0  0  0  0  0  0  0  0  0  0  0  0
  139.5800   71.5410  222.9870 C   0  0  0  0  0  0  0  0  0  0  0  0
  139.1350   70.2340  222.9230 C   0  0  0  0  0  0  0  0  0  0  0  0
  139.2690   69.3400  223.9630 C   0  0  0  0  0  0  0  0  0  0  0  0
  139.8730   69.7550  225.1320 C   0  0  0  0  0  0  0  0  0  0  0  0
  140.0360   68.9120  226.2020 C   0  0  0  0  0  0  0  0  0  0  0  0
  140.6490   69.3760  227.3570 C   0  0  0  0  0  0  0  0  0  0  0  0
  140.8390   68.2810  228.6950 Cl  0  0  0  0  0  0  0  0  0  0  0  0
  141.0760   70.6850  227.3760 C   0  0  0  0  0  0  0  0  0  0  0  0
  140.9230   71.5490  226.3110 C   0  0  0  0  0  0  0  0  0  0  0  0
  140.3090   71.0610  225.1770 C   0  0  0  0  0  0  0  0  0  0  0  0
  140.1660   71.9190  224.1420 N   0  0  0  0  0  0  0  0  0  0  0  0
  139.5870   74.1850  223.1100 H   0  0  0  0  0  0  0  0  0  0  0  0
  139.4406   74.3785  220.0983 H   0  0  0  0  0  0  0  0  0  0  0  0
  138.3004   75.2929  221.1055 H   0  0  0  0  0  0  0  0  0  0  0  0
  141.3997   75.5707  218.8659 H   0  0  0  0  0  0  0  0  0  0  0  0
  140.1717   76.6432  218.2232 H   0  0  0  0  0  0  0  0  0  0  0  0
  142.0446   78.1137  217.7263 H   0  0  0  0  0  0  0  0  0  0  0  0
  143.9340   77.4480  219.4100 H   0  0  0  0  0  0  0  0  0  0  0  0
  142.5813   78.5328  220.6188 H   0  0  0  0  0  0  0  0  0  0  0  0
  141.9380   79.6862  219.4699 H   0  0  0  0  0  0  0  0  0  0  0  0
  139.6308   78.6714  219.6649 H   0  0  0  0  0  0  0  0  0  0  0  0
  140.0154   79.9989  221.1757 H   0  0  0  0  0  0  0  0  0  0  0  0
  141.1608   77.7295  222.9552 H   0  0  0  0  0  0  0  0  0  0  0  0
  142.0328   79.1620  222.5319 H   0  0  0  0  0  0  0  0  0  0  0  0
  140.4554   79.1201  224.7904 H   0  0  0  0  0  0  0  0  0  0  0  0
  140.4746   80.6022  223.8392 H   0  0  0  0  0  0  0  0  0  0  0  0
  138.2490   78.7525  224.2537 H   0  0  0  0  0  0  0  0  0  0  0  0
  138.2141   80.2379  223.2960 H   0  0  0  0  0  0  0  0  0  0  0  0
  138.8342   77.3690  222.3856 H   0  0  0  0  0  0  0  0  0  0  0  0
  137.8847   78.5298  221.5291 H   0  0  0  0  0  0  0  0  0  0  0  0
  138.6504   69.8909  221.9970 H   0  0  0  0  0  0  0  0  0  0  0  0
  138.8992   68.3089  223.8625 H   0  0  0  0  0  0  0  0  0  0  0  0
  139.6820   67.8721  226.1445 H   0  0  0  0  0  0  0  0  0  0  0  0
  141.5642   71.0613  228.2871 H   0  0  0  0  0  0  0  0  0  0  0  0
  141.2778   72.5888  226.3648 H   0  0  0  0  0  0  0  0  0  0  0  0
  1  2  2  0
  2  3  1  0
  3  4  1  0
  4  5  1  0
  5  6  2  0
  5  7  1  0
  7  8  1  0
  8  9  1  0
  9 10  1  0
  9 11  1  0
 11 12  1  0
 12 13  1  0
 13 14  1  0
 14 15  1  0
 15 16  1  0
 16 17  1  0
  2 18  1  0
 18 19  2  0
 19 20  1  0
 20 21  2  0
 21 22  1  0
 22 23  2  0
 23 24  1  0
 23 25  1  0
 25 26  2  0
 26 27  1  0
 27 28  2  0
 12  7  1  0
 17 13  1  0
 28 18  1  0
 27 21  1  0
  3 29  1  0
  4 30  1  0
  4 31  1  0
  8 32  1  0
  8 33  1  0
  9 34  1  6
 10 35  1  0
 11 36  1  0
 11 37  1  0
 12 38  1  6
 13 39  1  0
 14 40  1  0
 14 41  1  0
 15 42  1  0
 15 43  1  0
 16 44  1  0
 16 45  1  0
 17 46  1  0
 17 47  1  0
 19 48  1  0
 20 49  1  0
 22 50  1  0
 25 51  1  0
 26 52  1  0
M  END
>  <smiles>  (46) 
O=C(NCC(=O)N1C[C@H](O)C[C@@H]1C1CCCC1)c1ccc2cc(Cl)ccc2n1

>  <score_type>  (46) 
oracle

>  <origin>  (46) 
autodockgpu

>  <m_score__min__energy>  (46) 
-8.4199999999999999

>  <m_primary>  (46) 
energy

>  <rmsd>  (46) 
1.721802298632597

>  <m_score__min__rmsd>  (46) 
1.721802298632597

>  <meeko>  (46) 
{"free_energy": -8.04, "intermolecular_energy": -9.83, "internal_energy": -2.04, "cluster_size": 14, "cluster_id": 1, "rank_in_cluster": 7}

>  <energy>  (46) 
-6.15

>  <cluster_rmsd>  (46) 
0.26

>  <cluster>  (46) 
6

$$$$

     RDKit          3D

 52 55  0  0  0  0  0  0  0  0999 V2000
  139.7980   72.2020  220.6200 O   0  0  0  0  0  0  0  0  0  0  0  0
  139.7410   72.6970  221.7730 C   0  0  0  0  0  0  0  0  0  0  0  0
  139.5790   74.0650  222.0540 N   0  0  0  0  0  0  0  0  0  0  0  0
  139.4580   75.0530  221.0020 C   0  0  0  0  0  0  0  0  0  0  0  0
  140.1160   76.3080  221.5140 C   0  0  0  0  0  0  0  0  0  0  0  0
  140.4480   76.2690  222.7220 O   0  0  0  0  0  0  0  0  0  0  0  0
  140.2930   77.3680  220.6220 N   0  0  0  0  0  0  0  0  0  0  0  0
  140.1660   77.2280  219.1330 C   0  0  0  0  0  0  0  0  0  0  0  0
  141.3850   77.9580  218.6100 C   0  0  2  0  0  0  0  0  0  0  0  0
  142.3120   77.0100  218.2210 O   0  0  0  0  0  0  0  0  0  0  0  0
  141.8430   78.7900  219.7950 C   0  0  0  0  0  0  0  0  0  0  0  0
  140.6400   78.7620  220.7130 C   0  0  2  0  0  0  0  0  0  0  0  0
  140.8880   79.2670  222.0540 C   0  0  0  0  0  0  0  0  0  0  0  0
  140.4120   80.6690  222.3320 C   0  0  0  0  0  0  0  0  0  0  0  0
  140.9290   80.8400  223.7710 C   0  0  0  0  0  0  0  0  0  0  0  0
  142.2120   80.0140  223.8180 C   0  0  0  0  0  0  0  0  0  0  0  0
  142.3570   79.4020  222.4180 C   0  0  0  0  0  0  0  0  0  0  0  0
  139.8530   71.7700  222.9140 C   0  0  0  0  0  0  0  0  0  0  0  0
  139.4520   70.4500  222.8210 C   0  0  0  0  0  0  0  0  0  0  0  0
  139.5440   69.5590  223.8680 C   0  0  0  0  0  0  0  0  0  0  0  0
  140.0580   69.9900  225.0750 C   0  0  0  0  0  0  0  0  0  0  0  0
  140.1750   69.1510  226.1540 C   0  0  0  0  0  0  0  0  0  0  0  0
  140.6980   69.6310  227.3450 C   0  0  0  0  0  0  0  0  0  0  0  0
  140.8320   68.5420  228.6940 Cl  0  0  0  0  0  0  0  0  0  0  0  0
  141.0830   70.9530  227.3920 C   0  0  0  0  0  0  0  0  0  0  0  0
  140.9740   71.8130  226.3190 C   0  0  0  0  0  0  0  0  0  0  0  0
  140.4510   71.3090  225.1470 C   0  0  0  0  0  0  0  0  0  0  0  0
  140.3510   72.1640  224.1040 N   0  0  0  0  0  0  0  0  0  0  0  0
  139.5430   74.3950  223.0430 H   0  0  0  0  0  0  0  0  0  0  0  0
  139.9658   74.7023  220.0914 H   0  0  0  0  0  0  0  0  0  0  0  0
  138.4035   75.2335  220.7460 H   0  0  0  0  0  0  0  0  0  0  0  0
  140.1819   76.1696  218.8338 H   0  0  0  0  0  0  0  0  0  0  0  0
  139.2209   77.6323  218.7414 H   0  0  0  0  0  0  0  0  0  0  0  0
  141.2115   78.6012  217.7347 H   0  0  0  0  0  0  0  0  0  0  0  0
  143.1750   77.0730  218.7050 H   0  0  0  0  0  0  0  0  0  0  0  0
  142.7212   78.3386  220.2797 H   0  0  0  0  0  0  0  0  0  0  0  0
  142.1536   79.8079  219.5169 H   0  0  0  0  0  0  0  0  0  0  0  0
  139.8232   79.4416  220.4284 H   0  0  0  0  0  0  0  0  0  0  0  0
  140.3403   78.5005  222.6219 H   0  0  0  0  0  0  0  0  0  0  0  0
  140.8652   81.3988  221.6450 H   0  0  0  0  0  0  0  0  0  0  0  0
  139.3311   80.8276  222.2038 H   0  0  0  0  0  0  0  0  0  0  0  0
  141.1400   81.8982  223.9850 H   0  0  0  0  0  0  0  0  0  0  0  0
  140.1937   80.5128  224.5208 H   0  0  0  0  0  0  0  0  0  0  0  0
  143.0747   80.6565  224.0479 H   0  0  0  0  0  0  0  0  0  0  0  0
  142.1712   79.2407  224.5993 H   0  0  0  0  0  0  0  0  0  0  0  0
  142.8910   80.0733  221.7294 H   0  0  0  0  0  0  0  0  0  0  0  0
  142.9400   78.4704  222.3708 H   0  0  0  0  0  0  0  0  0  0  0  0
  139.0397   70.0941  221.8653 H   0  0  0  0  0  0  0  0  0  0  0  0
  139.2122   68.5176  223.7439 H   0  0  0  0  0  0  0  0  0  0  0  0
  139.8551   68.1015  226.0746 H   0  0  0  0  0  0  0  0  0  0  0  0
  141.4984   71.3426  228.3331 H   0  0  0  0  0  0  0  0  0  0  0  0
  141.2928   72.8630  226.3956 H   0  0  0  0  0  0  0  0  0  0  0  0
  1  2  2  0
  2  3  1  0
  3  4  1  0
  4  5  1  0
  5  6  2  0
  5  7  1  0
  7  8  1  0
  8  9  1  0
  9 10  1  0
  9 11  1  0
 11 12  1  0
 12 13  1  0
 13 14  1  0
 14 15  1  0
 15 16  1  0
 16 17  1  0
  2 18  1  0
 18 19  2  0
 19 20  1  0
 20 21  2  0
 21 22  1  0
 22 23  2  0
 23 24  1  0
 23 25  1  0
 25 26  2  0
 26 27  1  0
 27 28  2  0
 12  7  1  0
 17 13  1  0
 28 18  1  0
 27 21  1  0
  3 29  1  0
  4 30  1  0
  4 31  1  0
  8 32  1  0
  8 33  1  0
  9 34  1  6
 10 35  1  0
 11 36  1  0
 11 37  1  0
 12 38  1  6
 13 39  1  0
 14 40  1  0
 14 41  1  0
 15 42  1  0
 15 43  1  0
 16 44  1  0
 16 45  1  0
 17 46  1  0
 17 47  1  0
 19 48  1  0
 20 49  1  0
 22 50  1  0
 25 51  1  0
 26 52  1  0
M  END
>  <smiles>  (47) 
O=C(NCC(=O)N1C[C@H](O)C[C@@H]1C1CCCC1)c1ccc2cc(Cl)ccc2n1

>  <score_type>  (47) 
oracle

>  <origin>  (47) 
autodockgpu

>  <m_score__min__energy>  (47) 
-8.4199999999999999

>  <m_primary>  (47) 
energy

>  <rmsd>  (47) 
1.9119746541897025

>  <m_score__min__rmsd>  (47) 
1.9119746541897025

>  <meeko>  (47) 
{"free_energy": -7.95, "intermolecular_energy": -9.74, "internal_energy": -2.02, "cluster_size": 14, "cluster_id": 1, "rank_in_cluster": 12}

>  <energy>  (47) 
-6.07

>  <cluster_rmsd>  (47) 
0.33

>  <cluster>  (47) 
6

$$$$

     RDKit          3D

 52 55  0  0  0  0  0  0  0  0999 V2000
  140.7410   72.2130  220.6840 O   0  0  0  0  0  0  0  0  0  0  0  0
  140.1950   72.6400  221.7310 C   0  0  0  0  0  0  0  0  0  0  0  0
  139.6400   73.9220  221.8830 N   0  0  0  0  0  0  0  0  0  0  0  0
  139.6490   74.8920  220.8070 C   0  0  0  0  0  0  0  0  0  0  0  0
  139.9660   76.2250  221.4330 C   0  0  0  0  0  0  0  0  0  0  0  0
  139.9970   76.2200  222.6870 O   0  0  0  0  0  0  0  0  0  0  0  0
  140.1930   77.3130  220.5870 N   0  0  0  0  0  0  0  0  0  0  0  0
  139.7020   77.3740  219.1690 C   0  0  0  0  0  0  0  0  0  0  0  0
  140.9130   77.8650  218.4030 C   0  0  2  0  0  0  0  0  0  0  0  0
  141.4660   76.7830  217.7460 O   0  0  0  0  0  0  0  0  0  0  0  0
  141.8170   78.4320  219.4840 C   0  0  0  0  0  0  0  0  0  0  0  0
  140.8830   78.5730  220.6670 C   0  0  2  0  0  0  0  0  0  0  0  0
  141.5440   78.8540  221.9320 C   0  0  0  0  0  0  0  0  0  0  0  0
  140.6430   79.0090  223.1290 C   0  0  0  0  0  0  0  0  0  0  0  0
  141.6880   79.3720  224.1970 C   0  0  0  0  0  0  0  0  0  0  0  0
  142.7600   80.1490  223.4370 C   0  0  0  0  0  0  0  0  0  0  0  0
  142.2860   80.1790  221.9770 C   0  0  0  0  0  0  0  0  0  0  0  0
  140.1350   71.7240  222.8850 C   0  0  0  0  0  0  0  0  0  0  0  0
  139.5630   70.4690  222.7900 C   0  0  0  0  0  0  0  0  0  0  0  0
  139.4920   69.5900  223.8480 C   0  0  0  0  0  0  0  0  0  0  0  0
  140.0120   69.9670  225.0700 C   0  0  0  0  0  0  0  0  0  0  0  0
  139.9710   69.1370  226.1620 C   0  0  0  0  0  0  0  0  0  0  0  0
  140.5070   69.5610  227.3690 C   0  0  0  0  0  0  0  0  0  0  0  0
  140.4390   68.4840  228.7330 Cl  0  0  0  0  0  0  0  0  0  0  0  0
  141.0670   70.8180  227.4170 C   0  0  0  0  0  0  0  0  0  0  0  0
  141.1180   71.6680  226.3320 C   0  0  0  0  0  0  0  0  0  0  0  0
  140.5770   71.2210  225.1460 C   0  0  0  0  0  0  0  0  0  0  0  0
  140.6350   72.0650  224.0910 N   0  0  0  0  0  0  0  0  0  0  0  0
  139.2060   74.2000  222.7900 H   0  0  0  0  0  0  0  0  0  0  0  0
  140.4171   74.6288  220.0649 H   0  0  0  0  0  0  0  0  0  0  0  0
  138.6797   74.9178  220.2876 H   0  0  0  0  0  0  0  0  0  0  0  0
  139.3893   76.3799  218.8170 H   0  0  0  0  0  0  0  0  0  0  0  0
  138.8219   78.0222  219.0452 H   0  0  0  0  0  0  0  0  0  0  0  0
  140.7100   78.6255  217.6346 H   0  0  0  0  0  0  0  0  0  0  0  0
  140.8100   76.2540  217.2260 H   0  0  0  0  0  0  0  0  0  0  0  0
  142.6425   77.7416  219.7117 H   0  0  0  0  0  0  0  0  0  0  0  0
  142.2982   79.3782  219.1955 H   0  0  0  0  0  0  0  0  0  0  0  0
  140.2162   79.4471  220.6303 H   0  0  0  0  0  0  0  0  0  0  0  0
  142.1870   77.9630  221.9836 H   0  0  0  0  0  0  0  0  0  0  0  0
  139.9074   79.8143  222.9859 H   0  0  0  0  0  0  0  0  0  0  0  0
  140.0243   78.1301  223.3629 H   0  0  0  0  0  0  0  0  0  0  0  0
  141.2391   79.9969  224.9831 H   0  0  0  0  0  0  0  0  0  0  0  0
  142.0952   78.4835  224.7017 H   0  0  0  0  0  0  0  0  0  0  0  0
  142.8481   81.1711  223.8338 H   0  0  0  0  0  0  0  0  0  0  0  0
  143.7506   79.6810  223.5353 H   0  0  0  0  0  0  0  0  0  0  0  0
  141.6188   81.0308  221.7788 H   0  0  0  0  0  0  0  0  0  0  0  0
  143.0817   80.2978  221.2269 H   0  0  0  0  0  0  0  0  0  0  0  0
  139.1440   70.1571  221.8219 H   0  0  0  0  0  0  0  0  0  0  0  0
  139.0273   68.6011  223.7210 H   0  0  0  0  0  0  0  0  0  0  0  0
  139.5148   68.1394  226.0805 H   0  0  0  0  0  0  0  0  0  0  0  0
  141.4958   71.1620  228.3698 H   0  0  0  0  0  0  0  0  0  0  0  0
  141.5738   72.6661  226.4105 H   0  0  0  0  0  0  0  0  0  0  0  0
  1  2  2  0
  2  3  1  0
  3  4  1  0
  4  5  1  0
  5  6  2  0
  5  7  1  0
  7  8  1  0
  8  9  1  0
  9 10  1  0
  9 11  1  0
 11 12  1  0
 12 13  1  0
 13 14  1  0
 14 15  1  0
 15 16  1  0
 16 17  1  0
  2 18  1  0
 18 19  2  0
 19 20  1  0
 20 21  2  0
 21 22  1  0
 22 23  2  0
 23 24  1  0
 23 25  1  0
 25 26  2  0
 26 27  1  0
 27 28  2  0
 12  7  1  0
 17 13  1  0
 28 18  1  0
 27 21  1  0
  3 29  1  0
  4 30  1  0
  4 31  1  0
  8 32  1  0
  8 33  1  0
  9 34  1  6
 10 35  1  0
 11 36  1  0
 11 37  1  0
 12 38  1  6
 13 39  1  0
 14 40  1  0
 14 41  1  0
 15 42  1  0
 15 43  1  0
 16 44  1  0
 16 45  1  0
 17 46  1  0
 17 47  1  0
 19 48  1  0
 20 49  1  0
 22 50  1  0
 25 51  1  0
 26 52  1  0
M  END
>  <smiles>  (48) 
O=C(NCC(=O)N1C[C@H](O)C[C@@H]1C1CCCC1)c1ccc2cc(Cl)ccc2n1

>  <score_type>  (48) 
oracle

>  <origin>  (48) 
autodockgpu

>  <m_score__min__energy>  (48) 
-8.4199999999999999

>  <m_primary>  (48) 
energy

>  <rmsd>  (48) 
1.8683370563096624

>  <m_score__min__rmsd>  (48) 
1.8683370563096624

>  <meeko>  (48) 
{"free_energy": -8.07, "intermolecular_energy": -9.86, "internal_energy": -1.83, "cluster_size": 14, "cluster_id": 1, "rank_in_cluster": 5}

>  <energy>  (48) 
-5.96

>  <cluster_rmsd>  (48) 
0.85

>  <cluster>  (48) 
6

$$$$

     RDKit          3D

 52 55  0  0  0  0  0  0  0  0999 V2000
  138.4880   76.2380  222.8020 O   0  0  0  0  0  0  0  0  0  0  0  0
  139.1510   76.3830  221.7450 C   0  0  0  0  0  0  0  0  0  0  0  0
  138.9620   77.4170  220.8120 N   0  0  0  0  0  0  0  0  0  0  0  0
  137.9520   78.4390  220.9970 C   0  0  0  0  0  0  0  0  0  0  0  0
  138.6370   79.7630  220.7790 C   0  0  0  0  0  0  0  0  0  0  0  0
  137.9900   80.7590  221.1800 O   0  0  0  0  0  0  0  0  0  0  0  0
  139.8930   79.7610  220.1690 N   0  0  0  0  0  0  0  0  0  0  0  0
  140.0960   79.5880  218.6920 C   0  0  0  0  0  0  0  0  0  0  0  0
  141.2150   78.5690  218.6120 C   0  0  2  0  0  0  0  0  0  0  0  0
  140.6560   77.3510  218.2770 O   0  0  0  0  0  0  0  0  0  0  0  0
  141.8170   78.5860  220.0070 C   0  0  0  0  0  0  0  0  0  0  0  0
  141.2630   79.8630  220.6000 C   0  0  2  0  0  0  0  0  0  0  0  0
  141.4680   80.0060  222.0330 C   0  0  0  0  0  0  0  0  0  0  0  0
  142.8090   80.5420  222.4590 C   0  0  0  0  0  0  0  0  0  0  0  0
  142.6520   80.4550  223.9870 C   0  0  0  0  0  0  0  0  0  0  0  0
  141.7580   79.2380  224.2110 C   0  0  0  0  0  0  0  0  0  0  0  0
  141.4380   78.7010  222.8100 C   0  0  0  0  0  0  0  0  0  0  0  0
  140.2070   75.3920  221.4680 C   0  0  0  0  0  0  0  0  0  0  0  0
  140.0760   74.0650  221.8370 C   0  0  0  0  0  0  0  0  0  0  0  0
  141.0430   73.1160  221.5910 C   0  0  0  0  0  0  0  0  0  0  0  0
  142.2060   73.4910  220.9480 C   0  0  0  0  0  0  0  0  0  0  0  0
  143.2060   72.5920  220.6760 C   0  0  0  0  0  0  0  0  0  0  0  0
  144.3560   73.0170  220.0270 C   0  0  0  0  0  0  0  0  0  0  0  0
  145.6040   71.8520  219.6980 Cl  0  0  0  0  0  0  0  0  0  0  0  0
  144.4430   74.3470  219.6790 C   0  0  0  0  0  0  0  0  0  0  0  0
  143.4490   75.2670  219.9440 C   0  0  0  0  0  0  0  0  0  0  0  0
  142.3180   74.8160  220.5890 C   0  0  0  0  0  0  0  0  0  0  0  0
  141.3530   75.7300  220.8410 N   0  0  0  0  0  0  0  0  0  0  0  0
  139.5570   77.4640  219.9560 H   0  0  0  0  0  0  0  0  0  0  0  0
  137.1397   78.3068  220.2671 H   0  0  0  0  0  0  0  0  0  0  0  0
  137.5081   78.3818  222.0018 H   0  0  0  0  0  0  0  0  0  0  0  0
  139.1826   79.2091  218.2102 H   0  0  0  0  0  0  0  0  0  0  0  0
  140.3335   80.5302  218.1764 H   0  0  0  0  0  0  0  0  0  0  0  0
  141.9886   78.7743  217.8575 H   0  0  0  0  0  0  0  0  0  0  0  0
  140.8300   76.6360  218.9390 H   0  0  0  0  0  0  0  0  0  0  0  0
  141.4956   77.7085  220.5872 H   0  0  0  0  0  0  0  0  0  0  0  0
  142.9164   78.5494  220.0056 H   0  0  0  0  0  0  0  0  0  0  0  0
  141.7644   80.7842  220.2685 H   0  0  0  0  0  0  0  0  0  0  0  0
  140.6358   80.6916  222.2504 H   0  0  0  0  0  0  0  0  0  0  0  0
  143.6351   79.9128  222.0961 H   0  0  0  0  0  0  0  0  0  0  0  0
  143.0545   81.5422  222.0726 H   0  0  0  0  0  0  0  0  0  0  0  0
  143.6297   80.3135  224.4708 H   0  0  0  0  0  0  0  0  0  0  0  0
  142.2241   81.3729  224.4163 H   0  0  0  0  0  0  0  0  0  0  0  0
  142.2866   78.4764  224.8031 H   0  0  0  0  0  0  0  0  0  0  0  0
  140.8450   79.4990  224.7663 H   0  0  0  0  0  0  0  0  0  0  0  0
  142.2030   77.9942  222.4561 H   0  0  0  0  0  0  0  0  0  0  0  0
  140.5029   78.1274  222.7290 H   0  0  0  0  0  0  0  0  0  0  0  0
  139.1552   73.7531  222.3516 H   0  0  0  0  0  0  0  0  0  0  0  0
  140.8909   72.0722  221.9029 H   0  0  0  0  0  0  0  0  0  0  0  0
  143.0963   71.5381  220.9714 H   0  0  0  0  0  0  0  0  0  0  0  0
  145.3510   74.6934  219.1636 H   0  0  0  0  0  0  0  0  0  0  0  0
  143.5558   76.3219  219.6510 H   0  0  0  0  0  0  0  0  0  0  0  0
  1  2  2  0
  2  3  1  0
  3  4  1  0
  4  5  1  0
  5  6  2  0
  5  7  1  0
  7  8  1  0
  8  9  1  0
  9 10  1  0
  9 11  1  0
 11 12  1  0
 12 13  1  0
 13 14  1  0
 14 15  1  0
 15 16  1  0
 16 17  1  0
  2 18  1  0
 18 19  2  0
 19 20  1  0
 20 21  2  0
 21 22  1  0
 22 23  2  0
 23 24  1  0
 23 25  1  0
 25 26  2  0
 26 27  1  0
 27 28  2  0
 12  7  1  0
 17 13  1  0
 28 18  1  0
 27 21  1  0
  3 29  1  0
  4 30  1  0
  4 31  1  0
  8 32  1  0
  8 33  1  0
  9 34  1  6
 10 35  1  0
 11 36  1  0
 11 37  1  0
 12 38  1  6
 13 39  1  0
 14 40  1  0
 14 41  1  0
 15 42  1  0
 15 43  1  0
 16 44  1  0
 16 45  1  0
 17 46  1  0
 17 47  1  0
 19 48  1  0
 20 49  1  0
 22 50  1  0
 25 51  1  0
 26 52  1  0
M  END
>  <smiles>  (49) 
O=C(NCC(=O)N1C[C@H](O)C[C@@H]1C1CCCC1)c1ccc2cc(Cl)ccc2n1

>  <score_type>  (49) 
oracle

>  <origin>  (49) 
autodockgpu

>  <m_score__min__energy>  (49) 
-8.4199999999999999

>  <m_primary>  (49) 
energy

>  <rmsd>  (49) 
5.9311206610470215

>  <m_score__min__rmsd>  (49) 
5.9311206610470215

>  <meeko>  (49) 
{"free_energy": -5.49, "intermolecular_energy": -7.28, "internal_energy": -3.83, "cluster_size": 2, "cluster_id": 7, "rank_in_cluster": 1}

>  <energy>  (49) 
-5.49

>  <cluster_rmsd>  (49) 
0.0

>  <cluster>  (49) 
7

$$$$

     RDKit          3D

 52 55  0  0  0  0  0  0  0  0999 V2000
  139.3480   79.5230  220.0420 O   0  0  0  0  0  0  0  0  0  0  0  0
  140.5590   79.2970  220.2850 C   0  0  0  0  0  0  0  0  0  0  0  0
  141.5490   80.2840  220.4300 N   0  0  0  0  0  0  0  0  0  0  0  0
  141.2440   81.6960  220.3080 C   0  0  0  0  0  0  0  0  0  0  0  0
  140.8780   82.1760  221.6880 C   0  0  0  0  0  0  0  0  0  0  0  0
  140.3600   83.3170  221.7240 O   0  0  0  0  0  0  0  0  0  0  0  0
  141.1390   81.3310  222.7690 N   0  0  0  0  0  0  0  0  0  0  0  0
  142.5190   81.0580  223.2910 C   0  0  0  0  0  0  0  0  0  0  0  0
  142.5360   79.5530  223.4580 C   0  0  2  0  0  0  0  0  0  0  0  0
  143.2570   79.0180  222.4080 O   0  0  0  0  0  0  0  0  0  0  0  0
  141.0670   79.1710  223.4280 C   0  0  0  0  0  0  0  0  0  0  0  0
  140.3680   80.4950  223.6510 C   0  0  2  0  0  0  0  0  0  0  0  0
  138.9340   80.4720  223.4100 C   0  0  0  0  0  0  0  0  0  0  0  0
  138.0610   80.8520  224.5770 C   0  0  0  0  0  0  0  0  0  0  0  0
  136.6740   80.6210  223.9530 C   0  0  0  0  0  0  0  0  0  0  0  0
  136.8810   79.4630  222.9790 C   0  0  0  0  0  0  0  0  0  0  0  0
  138.3680   79.1010  223.0830 C   0  0  0  0  0  0  0  0  0  0  0  0
  140.9680   77.8880  220.4290 C   0  0  0  0  0  0  0  0  0  0  0  0
  140.1310   76.9390  220.9860 C   0  0  0  0  0  0  0  0  0  0  0  0
  140.4840   75.6150  221.1340 C   0  0  0  0  0  0  0  0  0  0  0  0
  141.7310   75.2010  220.7110 C   0  0  0  0  0  0  0  0  0  0  0  0
  142.1410   73.8970  220.8310 C   0  0  0  0  0  0  0  0  0  0  0  0
  143.4040   73.5290  220.3920 C   0  0  0  0  0  0  0  0  0  0  0  0
  143.8920   71.8690  220.5590 Cl  0  0  0  0  0  0  0  0  0  0  0  0
  144.2040   74.5080  219.8440 C   0  0  0  0  0  0  0  0  0  0  0  0
  143.8120   75.8240  219.7140 C   0  0  0  0  0  0  0  0  0  0  0  0
  142.5510   76.1610  220.1600 C   0  0  0  0  0  0  0  0  0  0  0  0
  142.1810   77.4550  220.0250 N   0  0  0  0  0  0  0  0  0  0  0  0
  142.5350   80.0110  220.6300 H   0  0  0  0  0  0  0  0  0  0  0  0
  142.1224   82.2436  219.9359 H   0  0  0  0  0  0  0  0  0  0  0  0
  140.4217   81.8651  219.5972 H   0  0  0  0  0  0  0  0  0  0  0  0
  143.2843   81.3834  222.5710 H   0  0  0  0  0  0  0  0  0  0  0  0
  142.7414   81.5974  224.2235 H   0  0  0  0  0  0  0  0  0  0  0  0
  143.0095   79.1852  224.3802 H   0  0  0  0  0  0  0  0  0  0  0  0
  142.8010   78.2660  221.9520 H   0  0  0  0  0  0  0  0  0  0  0  0
  140.7909   78.7367  222.4558 H   0  0  0  0  0  0  0  0  0  0  0  0
  140.8013   78.4086  224.1751 H   0  0  0  0  0  0  0  0  0  0  0  0
  140.3551   80.8438  224.6941 H   0  0  0  0  0  0  0  0  0  0  0  0
  138.8955   81.1959  222.5826 H   0  0  0  0  0  0  0  0  0  0  0  0
  138.2325   80.1994  225.4457 H   0  0  0  0  0  0  0  0  0  0  0  0
  138.2297   81.8639  224.9740 H   0  0  0  0  0  0  0  0  0  0  0  0
  135.9396   80.3520  224.7265 H   0  0  0  0  0  0  0  0  0  0  0  0
  136.2839   81.5213  223.4557 H   0  0  0  0  0  0  0  0  0  0  0  0
  136.2554   78.6043  223.2641 H   0  0  0  0  0  0  0  0  0  0  0  0
  136.5988   79.7381  221.9520 H   0  0  0  0  0  0  0  0  0  0  0  0
  138.5589   78.3752  223.8872 H   0  0  0  0  0  0  0  0  0  0  0  0
  138.7965   78.6162  222.1934 H   0  0  0  0  0  0  0  0  0  0  0  0
  139.1347   77.2562  221.3277 H   0  0  0  0  0  0  0  0  0  0  0  0
  139.7813   74.8977  221.5832 H   0  0  0  0  0  0  0  0  0  0  0  0
  141.4702   73.1461  221.2739 H   0  0  0  0  0  0  0  0  0  0  0  0
  145.2071   74.2254  219.4920 H   0  0  0  0  0  0  0  0  0  0  0  0
  144.4804   76.5770  219.2710 H   0  0  0  0  0  0  0  0  0  0  0  0
  1  2  2  0
  2  3  1  0
  3  4  1  0
  4  5  1  0
  5  6  2  0
  5  7  1  0
  7  8  1  0
  8  9  1  0
  9 10  1  0
  9 11  1  0
 11 12  1  0
 12 13  1  0
 13 14  1  0
 14 15  1  0
 15 16  1  0
 16 17  1  0
  2 18  1  0
 18 19  2  0
 19 20  1  0
 20 21  2  0
 21 22  1  0
 22 23  2  0
 23 24  1  0
 23 25  1  0
 25 26  2  0
 26 27  1  0
 27 28  2  0
 12  7  1  0
 17 13  1  0
 28 18  1  0
 27 21  1  0
  3 29  1  0
  4 30  1  0
  4 31  1  0
  8 32  1  0
  8 33  1  0
  9 34  1  1
 10 35  1  0
 11 36  1  0
 11 37  1  0
 12 38  1  1
 13 39  1  0
 14 40  1  0
 14 41  1  0
 15 42  1  0
 15 43  1  0
 16 44  1  0
 16 45  1  0
 17 46  1  0
 17 47  1  0
 19 48  1  0
 20 49  1  0
 22 50  1  0
 25 51  1  0
 26 52  1  0
M  END
>  <smiles>  (50) 
O=C(NCC(=O)N1C[C@H](O)C[C@@H]1C1CCCC1)c1ccc2cc(Cl)ccc2n1

>  <score_type>  (50) 
oracle

>  <origin>  (50) 
autodockgpu

>  <m_score__min__energy>  (50) 
-8.4199999999999999

>  <m_primary>  (50) 
energy

>  <rmsd>  (50) 
8.08160192224052

>  <m_score__min__rmsd>  (50) 
8.08160192224052

>  <meeko>  (50) 
{"free_energy": -6.33, "intermolecular_energy": -8.12, "internal_energy": -3.82, "cluster_size": 15, "cluster_id": 6, "rank_in_cluster": 10}

>  <energy>  (50) 
-5.48

>  <cluster_rmsd>  (50) 
0.04

>  <cluster>  (50) 
7

$$$$
