
     RDKit          3D

 67 71  0  0  0  0  0  0  0  0999 V2000
  142.5650   79.9010  217.9410 C   0  0  0  0  0  0  0  0  0  0  0  0
  141.9140   81.0410  218.7140 C   0  0  0  0  0  0  0  0  0  0  0  0
  140.8390   80.5670  219.5840 C   0  0  0  0  0  0  0  0  0  0  0  0
  139.6640   80.9890  219.2930 O   0  0  0  0  0  0  0  0  0  0  0  0
  140.9400   79.7160  220.6920 N   0  0  0  0  0  0  0  0  0  0  0  0
  141.5260   80.2470  221.9000 C   0  0  0  0  0  0  0  0  0  0  0  0
  142.8290   79.9050  222.2620 C   0  0  0  0  0  0  0  0  0  0  0  0
  143.4260   80.4260  223.4100 C   0  0  0  0  0  0  0  0  0  0  0  0
  142.7450   81.2960  224.2280 C   0  0  0  0  0  0  0  0  0  0  0  0
  141.4660   81.6320  223.8760 C   0  0  0  0  0  0  0  0  0  0  0  0
  140.8610   81.1160  222.7250 C   0  0  0  0  0  0  0  0  0  0  0  0
  140.5250   78.3340  220.7440 C   0  0  0  0  0  0  0  0  0  0  0  0
  141.2370   77.4720  219.7260 C   0  0  0  0  0  0  0  0  0  0  0  0
  140.8380   76.0360  219.8070 C   0  0  0  0  0  0  0  0  0  0  0  0
  140.5130   75.6010  221.1370 N   0  0  0  0  0  0  0  0  0  0  0  0
  139.7360   74.4760  221.4810 C   0  0  0  0  0  0  0  0  0  0  0  0
  139.5160   74.2130  222.7190 O   0  0  0  0  0  0  0  0  0  0  0  0
  139.1270   73.5290  220.5250 C   0  0  2  0  0  0  0  0  0  0  0  0
  137.7610   73.1780  220.9390 N   0  0  0  0  0  0  0  0  0  0  0  0
  139.8770   72.2580  220.3200 C   0  0  0  0  0  0  0  0  0  0  0  0
  141.0720   72.1240  221.2420 C   0  0  0  0  0  0  0  0  0  0  0  0
  140.4980   71.5090  222.4700 C   0  0  0  0  0  0  0  0  0  0  0  0
  141.0630   71.4730  223.7300 C   0  0  0  0  0  0  0  0  0  0  0  0
  140.4100   70.8590  224.7720 C   0  0  0  0  0  0  0  0  0  0  0  0
  140.9940   70.8300  226.0160 C   0  0  0  0  0  0  0  0  0  0  0  0
  140.3580   70.2160  227.0680 C   0  0  0  0  0  0  0  0  0  0  0  0
  139.1170   69.6300  226.8360 C   0  0  0  0  0  0  0  0  0  0  0  0
  138.5520   69.6710  225.5800 C   0  0  0  0  0  0  0  0  0  0  0  0
  139.1720   70.2820  224.5050 C   0  0  0  0  0  0  0  0  0  0  0  0
  138.6250   70.3280  223.2430 C   0  0  0  0  0  0  0  0  0  0  0  0
  139.2690   70.9460  222.1750 C   0  0  0  0  0  0  0  0  0  0  0  0
  138.9360   71.1330  220.7410 C   0  0  0  0  0  0  0  0  0  0  0  0
  141.0550   76.3950  222.2430 C   0  0  0  0  0  0  0  0  0  0  0  0
  140.5330   77.7820  222.1380 C   0  0  0  0  0  0  0  0  0  0  0  0
  142.9826   79.1697  218.6486 H   0  0  0  0  0  0  0  0  0  0  0  0
  141.8113   79.4097  217.3081 H   0  0  0  0  0  0  0  0  0  0  0  0
  143.3711   80.3005  217.3081 H   0  0  0  0  0  0  0  0  0  0  0  0
  142.6792   81.5345  219.3312 H   0  0  0  0  0  0  0  0  0  0  0  0
  141.4789   81.7413  217.9858 H   0  0  0  0  0  0  0  0  0  0  0  0
  143.3983   79.2091  221.6282 H   0  0  0  0  0  0  0  0  0  0  0  0
  144.4563   80.1366  223.6644 H   0  0  0  0  0  0  0  0  0  0  0  0
  143.2123   81.7080  225.1346 H   0  0  0  0  0  0  0  0  0  0  0  0
  140.8991   82.3256  224.5144 H   0  0  0  0  0  0  0  0  0  0  0  0
  139.8314   81.4136  222.4774 H   0  0  0  0  0  0  0  0  0  0  0  0
  139.4685   78.3079  220.4390 H   0  0  0  0  0  0  0  0  0  0  0  0
  140.9993   77.8470  218.7196 H   0  0  0  0  0  0  0  0  0  0  0  0
  142.3149   77.5297  219.9377 H   0  0  0  0  0  0  0  0  0  0  0  0
  139.9566   75.8839  219.1668 H   0  0  0  0  0  0  0  0  0  0  0  0
  141.7037   75.4428  219.4773 H   0  0  0  0  0  0  0  0  0  0  0  0
  139.1435   74.0733  219.5693 H   0  0  0  0  0  0  0  0  0  0  0  0
  137.0440   73.8020  220.5050 H   0  0  0  0  0  0  0  0  0  0  0  0
  137.7250   73.2650  221.9830 H   0  0  0  0  0  0  0  0  0  0  0  0
  140.2162   72.2300  219.2740 H   0  0  0  0  0  0  0  0  0  0  0  0
  141.8395   71.4728  220.7983 H   0  0  0  0  0  0  0  0  0  0  0  0
  141.5712   73.0844  221.4377 H   0  0  0  0  0  0  0  0  0  0  0  0
  142.0442   71.9399  223.9010 H   0  0  0  0  0  0  0  0  0  0  0  0
  141.9760   71.3010  226.1703 H   0  0  0  0  0  0  0  0  0  0  0  0
  140.8175   70.1883  228.0670 H   0  0  0  0  0  0  0  0  0  0  0  0
  138.5846   69.1316  227.6595 H   0  0  0  0  0  0  0  0  0  0  0  0
  137.5701   69.1997  225.4262 H   0  0  0  0  0  0  0  0  0  0  0  0
  137.6443   69.8599  223.0723 H   0  0  0  0  0  0  0  0  0  0  0  0
  139.1321   70.2161  220.1658 H   0  0  0  0  0  0  0  0  0  0  0  0
  137.8748   71.3644  220.5667 H   0  0  0  0  0  0  0  0  0  0  0  0
  140.7436   75.9544  223.2016 H   0  0  0  0  0  0  0  0  0  0  0  0
  142.1538   76.4046  222.1926 H   0  0  0  0  0  0  0  0  0  0  0  0
  139.5009   77.7914  222.5183 H   0  0  0  0  0  0  0  0  0  0  0  0
  141.2106   78.4191  222.7253 H   0  0  0  0  0  0  0  0  0  0  0  0
  1  2  1  0
  2  3  1  0
  3  4  2  0
  3  5  1  0
  5  6  1  0
  6  7  2  0
  7  8  1  0
  8  9  2  0
  9 10  1  0
 10 11  2  0
  5 12  1  0
 12 13  1  0
 13 14  1  0
 14 15  1  0
 15 16  1  0
 16 17  2  0
 16 18  1  0
 18 19  1  0
 18 20  1  0
 20 21  1  0
 21 22  1  0
 22 23  2  0
 23 24  1  0
 24 25  2  0
 25 26  1  0
 26 27  2  0
 27 28  1  0
 28 29  2  0
 29 30  1  0
 30 31  2  0
 31 32  1  0
 15 33  1  0
 33 34  1  0
 11  6  1  0
 34 12  1  0
 32 20  1  0
 31 22  1  0
 29 24  1  0
  1 35  1  0
  1 36  1  0
  1 37  1  0
  2 38  1  0
  2 39  1  0
  7 40  1  0
  8 41  1  0
  9 42  1  0
 10 43  1  0
 11 44  1  0
 12 45  1  0
 13 46  1  0
 13 47  1  0
 14 48  1  0
 14 49  1  0
 18 50  1  6
 19 51  1  0
 19 52  1  0
 20 53  1  0
 21 54  1  0
 21 55  1  0
 23 56  1  0
 25 57  1  0
 26 58  1  0
 27 59  1  0
 28 60  1  0
 30 61  1  0
 32 62  1  0
 32 63  1  0
 33 64  1  0
 33 65  1  0
 34 66  1  0
 34 67  1  0
M  END
>  <smiles>  (1) 
CCC(=O)N(c1ccccc1)C1CCN(C(=O)[C@H](N)C2Cc3cc4ccccc4cc3C2)CC1

>  <score_type>  (1) 
oracle

>  <origin>  (1) 
autodockgpu

>  <m_score__min__energy>  (1) 
-8.8599999999999994

>  <m_primary>  (1) 
energy

>  <rmsd>  (1) 
4.164386098410777

>  <m_score__min__rmsd>  (1) 
4.164386098410777

>  <meeko>  (1) 
{"free_energy": -7.66, "intermolecular_energy": -9.75, "internal_energy": -2.39, "cluster_size": 8, "cluster_id": 3, "rank_in_cluster": 6}

>  <energy>  (1) 
-8.86

>  <cluster_rmsd>  (1) 
0.0

>  <cluster>  (1) 
1

$$$$

     RDKit          3D

 67 71  0  0  0  0  0  0  0  0999 V2000
  139.1670   68.4760  221.7270 C   0  0  0  0  0  0  0  0  0  0  0  0
  138.8250   67.9390  223.1090 C   0  0  0  0  0  0  0  0  0  0  0  0
  138.3290   68.9900  223.9970 C   0  0  0  0  0  0  0  0  0  0  0  0
  137.1080   68.8730  224.3670 O   0  0  0  0  0  0  0  0  0  0  0  0
  139.0250   70.1040  224.4840 N   0  0  0  0  0  0  0  0  0  0  0  0
  139.7050   69.9750  225.7500 C   0  0  0  0  0  0  0  0  0  0  0  0
  139.7690   68.7400  226.3940 C   0  0  0  0  0  0  0  0  0  0  0  0
  140.4440   68.5850  227.6060 C   0  0  0  0  0  0  0  0  0  0  0  0
  141.0690   69.6510  228.2080 C   0  0  0  0  0  0  0  0  0  0  0  0
  141.0070   70.8640  227.5780 C   0  0  0  0  0  0  0  0  0  0  0  0
  140.3340   71.0280  226.3620 C   0  0  0  0  0  0  0  0  0  0  0  0
  139.1180   71.3950  223.8430 C   0  0  0  0  0  0  0  0  0  0  0  0
  140.3470   71.5280  222.9720 C   0  0  0  0  0  0  0  0  0  0  0  0
  140.4230   72.8470  222.2780 C   0  0  0  0  0  0  0  0  0  0  0  0
  139.1390   73.3950  221.9400 N   0  0  0  0  0  0  0  0  0  0  0  0
  138.8550   74.7500  221.6680 C   0  0  0  0  0  0  0  0  0  0  0  0
  137.6500   75.1000  221.3880 O   0  0  0  0  0  0  0  0  0  0  0  0
  139.8390   75.8500  221.6690 C   0  0  2  0  0  0  0  0  0  0  0  0
  139.2870   77.0410  222.3280 N   0  0  0  0  0  0  0  0  0  0  0  0
  140.3340   76.2650  220.3260 C   0  0  0  0  0  0  0  0  0  0  0  0
  141.7860   76.6990  220.3410 C   0  0  0  0  0  0  0  0  0  0  0  0
  142.5320   75.4240  220.1490 C   0  0  0  0  0  0  0  0  0  0  0  0
  143.8680   75.1910  220.4110 C   0  0  0  0  0  0  0  0  0  0  0  0
  144.4200   73.9540  220.1750 C   0  0  0  0  0  0  0  0  0  0  0  0
  145.7530   73.7450  220.4380 C   0  0  0  0  0  0  0  0  0  0  0  0
  146.3230   72.5170  220.2030 C   0  0  0  0  0  0  0  0  0  0  0  0
  145.5170   71.5020  219.6960 C   0  0  0  0  0  0  0  0  0  0  0  0
  144.1840   71.7360  219.4400 C   0  0  0  0  0  0  0  0  0  0  0  0
  143.5860   72.9630  219.6670 C   0  0  0  0  0  0  0  0  0  0  0  0
  142.2580   73.2150  219.4120 C   0  0  0  0  0  0  0  0  0  0  0  0
  141.6790   74.4600  219.6450 C   0  0  0  0  0  0  0  0  0  0  0  0
  140.3140   75.0110  219.4570 C   0  0  0  0  0  0  0  0  0  0  0  0
  138.0200   72.4530  221.8520 C   0  0  0  0  0  0  0  0  0  0  0  0
  137.8390   71.8010  223.1740 C   0  0  0  0  0  0  0  0  0  0  0  0
  139.7554   69.3999  221.8279 H   0  0  0  0  0  0  0  0  0  0  0  0
  139.7540   67.7257  221.1770 H   0  0  0  0  0  0  0  0  0  0  0  0
  138.2389   68.6906  221.1770 H   0  0  0  0  0  0  0  0  0  0  0  0
  138.0503   67.1647  223.0076 H   0  0  0  0  0  0  0  0  0  0  0  0
  139.7441   67.5263  223.5506 H   0  0  0  0  0  0  0  0  0  0  0  0
  139.2768   67.8688  225.9370 H   0  0  0  0  0  0  0  0  0  0  0  0
  140.4762   67.5958  228.0861 H   0  0  0  0  0  0  0  0  0  0  0  0
  141.6009   69.5329  229.1636 H   0  0  0  0  0  0  0  0  0  0  0  0
  141.4990   71.7330  228.0394 H   0  0  0  0  0  0  0  0  0  0  0  0
  140.3093   72.0205  225.8884 H   0  0  0  0  0  0  0  0  0  0  0  0
  139.2628   72.1355  224.6434 H   0  0  0  0  0  0  0  0  0  0  0  0
  141.2399   71.4111  223.6037 H   0  0  0  0  0  0  0  0  0  0  0  0
  140.2905   70.7487  222.1977 H   0  0  0  0  0  0  0  0  0  0  0  0
  140.9413   73.5578  222.9384 H   0  0  0  0  0  0  0  0  0  0  0  0
  140.9621   72.6832  221.3332 H   0  0  0  0  0  0  0  0  0  0  0  0
  140.6976   75.4342  222.2167 H   0  0  0  0  0  0  0  0  0  0  0  0
  139.4510   77.0330  223.3620 H   0  0  0  0  0  0  0  0  0  0  0  0
  138.2580   77.0530  222.1310 H   0  0  0  0  0  0  0  0  0  0  0  0
  139.7067   77.0982  219.9764 H   0  0  0  0  0  0  0  0  0  0  0  0
  141.9943   77.4035  219.5223 H   0  0  0  0  0  0  0  0  0  0  0  0
  142.0666   77.2245  221.2657 H   0  0  0  0  0  0  0  0  0  0  0  0
  144.4951   76.0012  220.8115 H   0  0  0  0  0  0  0  0  0  0  0  0
  146.3667   74.5653  220.8387 H   0  0  0  0  0  0  0  0  0  0  0  0
  147.3888   72.3407  220.4103 H   0  0  0  0  0  0  0  0  0  0  0  0
  145.9463   70.5086  219.4989 H   0  0  0  0  0  0  0  0  0  0  0  0
  143.5708   70.9153  219.0394 H   0  0  0  0  0  0  0  0  0  0  0  0
  141.6316   72.4050  219.0101 H   0  0  0  0  0  0  0  0  0  0  0  0
  140.1300   75.2627  218.4021 H   0  0  0  0  0  0  0  0  0  0  0  0
  139.5170   74.3039  219.7305 H   0  0  0  0  0  0  0  0  0  0  0  0
  137.1022   72.9936  221.5775 H   0  0  0  0  0  0  0  0  0  0  0  0
  138.2307   71.6925  221.0856 H   0  0  0  0  0  0  0  0  0  0  0  0
  137.3125   72.5045  223.8357 H   0  0  0  0  0  0  0  0  0  0  0  0
  137.2710   70.8764  222.9937 H   0  0  0  0  0  0  0  0  0  0  0  0
  1  2  1  0
  2  3  1  0
  3  4  2  0
  3  5  1  0
  5  6  1  0
  6  7  2  0
  7  8  1  0
  8  9  2  0
  9 10  1  0
 10 11  2  0
  5 12  1  0
 12 13  1  0
 13 14  1  0
 14 15  1  0
 15 16  1  0
 16 17  2  0
 16 18  1  0
 18 19  1  0
 18 20  1  0
 20 21  1  0
 21 22  1  0
 22 23  2  0
 23 24  1  0
 24 25  2  0
 25 26  1  0
 26 27  2  0
 27 28  1  0
 28 29  2  0
 29 30  1  0
 30 31  2  0
 31 32  1  0
 15 33  1  0
 33 34  1  0
 11  6  1  0
 34 12  1  0
 32 20  1  0
 31 22  1  0
 29 24  1  0
  1 35  1  0
  1 36  1  0
  1 37  1  0
  2 38  1  0
  2 39  1  0
  7 40  1  0
  8 41  1  0
  9 42  1  0
 10 43  1  0
 11 44  1  0
 12 45  1  0
 13 46  1  0
 13 47  1  0
 14 48  1  0
 14 49  1  0
 18 50  1  1
 19 51  1  0
 19 52  1  0
 20 53  1  0
 21 54  1  0
 21 55  1  0
 23 56  1  0
 25 57  1  0
 26 58  1  0
 27 59  1  0
 28 60  1  0
 30 61  1  0
 32 62  1  0
 32 63  1  0
 33 64  1  0
 33 65  1  0
 34 66  1  0
 34 67  1  0
M  END
>  <smiles>  (2) 
CCC(=O)N(c1ccccc1)C1CCN(C(=O)[C@H](N)C2Cc3cc4ccccc4cc3C2)CC1

>  <score_type>  (2) 
oracle

>  <origin>  (2) 
autodockgpu

>  <m_score__min__energy>  (2) 
-8.8599999999999994

>  <m_primary>  (2) 
energy

>  <rmsd>  (2) 
7.568047256527268

>  <m_score__min__rmsd>  (2) 
7.568047256527268

>  <meeko>  (2) 
{"free_energy": -7.66, "intermolecular_energy": -9.74, "internal_energy": -2.79, "cluster_size": 21, "cluster_id": 5, "rank_in_cluster": 17}

>  <energy>  (2) 
-8.8

>  <cluster_rmsd>  (2) 
0.68

>  <cluster>  (2) 
1

$$$$

     RDKit          3D

 67 71  0  0  0  0  0  0  0  0999 V2000
  137.8490   67.7480  222.0910 C   0  0  0  0  0  0  0  0  0  0  0  0
  139.1180   68.4670  222.5290 C   0  0  0  0  0  0  0  0  0  0  0  0
  139.0320   68.9340  223.9120 C   0  0  0  0  0  0  0  0  0  0  0  0
  138.4230   68.1510  224.7250 O   0  0  0  0  0  0  0  0  0  0  0  0
  139.5280   70.1280  224.4510 N   0  0  0  0  0  0  0  0  0  0  0  0
  140.1000   70.0860  225.7750 C   0  0  0  0  0  0  0  0  0  0  0  0
  140.4630   68.8680  226.3480 C   0  0  0  0  0  0  0  0  0  0  0  0
  141.0420   68.8030  227.6160 C   0  0  0  0  0  0  0  0  0  0  0  0
  141.2730   69.9450  228.3460 C   0  0  0  0  0  0  0  0  0  0  0  0
  140.9160   71.1410  227.7860 C   0  0  0  0  0  0  0  0  0  0  0  0
  140.3370   71.2150  226.5150 C   0  0  0  0  0  0  0  0  0  0  0  0
  139.5100   71.4230  223.8100 C   0  0  0  0  0  0  0  0  0  0  0  0
  140.7170   71.6540  222.9280 C   0  0  0  0  0  0  0  0  0  0  0  0
  140.6780   72.9750  222.2340 C   0  0  0  0  0  0  0  0  0  0  0  0
  139.3510   73.4160  221.9070 N   0  0  0  0  0  0  0  0  0  0  0  0
  138.9540   74.7430  221.6380 C   0  0  0  0  0  0  0  0  0  0  0  0
  137.7230   74.9940  221.3680 O   0  0  0  0  0  0  0  0  0  0  0  0
  139.8460   75.9200  221.6310 C   0  0  2  0  0  0  0  0  0  0  0  0
  139.1800   77.0810  222.2370 N   0  0  0  0  0  0  0  0  0  0  0  0
  140.3440   76.3350  220.2890 C   0  0  0  0  0  0  0  0  0  0  0  0
  141.8000   76.7540  220.3050 C   0  0  0  0  0  0  0  0  0  0  0  0
  142.5340   75.4730  220.1070 C   0  0  0  0  0  0  0  0  0  0  0  0
  143.8670   75.2240  220.3680 C   0  0  0  0  0  0  0  0  0  0  0  0
  144.4060   73.9830  220.1270 C   0  0  0  0  0  0  0  0  0  0  0  0
  145.7370   73.7600  220.3890 C   0  0  0  0  0  0  0  0  0  0  0  0
  146.2950   72.5270  220.1500 C   0  0  0  0  0  0  0  0  0  0  0  0
  145.4790   71.5220  219.6390 C   0  0  0  0  0  0  0  0  0  0  0  0
  144.1470   71.7710  219.3840 C   0  0  0  0  0  0  0  0  0  0  0  0
  143.5620   73.0020  219.6160 C   0  0  0  0  0  0  0  0  0  0  0  0
  142.2360   73.2690  219.3620 C   0  0  0  0  0  0  0  0  0  0  0  0
  141.6700   74.5180  219.6000 C   0  0  0  0  0  0  0  0  0  0  0  0
  140.3110   75.0850  219.4150 C   0  0  0  0  0  0  0  0  0  0  0  0
  138.3120   72.3860  221.8290 C   0  0  0  0  0  0  0  0  0  0  0  0
  138.1960   71.7220  223.1520 C   0  0  0  0  0  0  0  0  0  0  0  0
  137.2839   67.4278  222.9788 H   0  0  0  0  0  0  0  0  0  0  0  0
  137.2305   68.4298  221.4889 H   0  0  0  0  0  0  0  0  0  0  0  0
  138.1160   66.8670  221.4889 H   0  0  0  0  0  0  0  0  0  0  0  0
  139.9677   67.7741  222.4401 H   0  0  0  0  0  0  0  0  0  0  0  0
  139.2523   69.3456  221.8809 H   0  0  0  0  0  0  0  0  0  0  0  0
  140.2891   67.9373  225.7880 H   0  0  0  0  0  0  0  0  0  0  0  0
  141.3174   67.8249  228.0372 H   0  0  0  0  0  0  0  0  0  0  0  0
  141.7291   69.8986  229.3459 H   0  0  0  0  0  0  0  0  0  0  0  0
  141.0889   72.0692  228.3504 H   0  0  0  0  0  0  0  0  0  0  0  0
  140.0668   72.1978  226.1015 H   0  0  0  0  0  0  0  0  0  0  0  0
  139.6009   72.1742  224.6084 H   0  0  0  0  0  0  0  0  0  0  0  0
  141.6222   71.6105  223.5515 H   0  0  0  0  0  0  0  0  0  0  0  0
  140.7183   70.8719  222.1545 H   0  0  0  0  0  0  0  0  0  0  0  0
  141.1417   73.7260  222.8904 H   0  0  0  0  0  0  0  0  0  0  0  0
  141.2203   72.8556  221.2845 H   0  0  0  0  0  0  0  0  0  0  0  0
  140.7190   75.5920  222.2144 H   0  0  0  0  0  0  0  0  0  0  0  0
  138.1500   76.9330  222.3470 H   0  0  0  0  0  0  0  0  0  0  0  0
  139.3570   77.9000  221.6080 H   0  0  0  0  0  0  0  0  0  0  0  0
  139.7246   77.1756  219.9429 H   0  0  0  0  0  0  0  0  0  0  0  0
  142.0147   77.4601  219.4893 H   0  0  0  0  0  0  0  0  0  0  0  0
  142.0860   77.2722  221.2322 H   0  0  0  0  0  0  0  0  0  0  0  0
  144.5027   76.0256  220.7721 H   0  0  0  0  0  0  0  0  0  0  0  0
  146.3588   74.5729  220.7922 H   0  0  0  0  0  0  0  0  0  0  0  0
  147.3589   72.3393  220.3572 H   0  0  0  0  0  0  0  0  0  0  0  0
  145.8983   70.5252  219.4378 H   0  0  0  0  0  0  0  0  0  0  0  0
  143.5254   70.9583  218.9801 H   0  0  0  0  0  0  0  0  0  0  0  0
  141.6013   72.4672  218.9567 H   0  0  0  0  0  0  0  0  0  0  0  0
  140.1295   75.3431  218.3612 H   0  0  0  0  0  0  0  0  0  0  0  0
  139.5067   74.3853  219.6862 H   0  0  0  0  0  0  0  0  0  0  0  0
  137.3508   72.8499  221.5627 H   0  0  0  0  0  0  0  0  0  0  0  0
  138.5776   71.6448  221.0609 H   0  0  0  0  0  0  0  0  0  0  0  0
  137.6190   72.3801  223.8183 H   0  0  0  0  0  0  0  0  0  0  0  0
  137.7042   70.7538  222.9764 H   0  0  0  0  0  0  0  0  0  0  0  0
  1  2  1  0
  2  3  1  0
  3  4  2  0
  3  5  1  0
  5  6  1  0
  6  7  2  0
  7  8  1  0
  8  9  2  0
  9 10  1  0
 10 11  2  0
  5 12  1  0
 12 13  1  0
 13 14  1  0
 14 15  1  0
 15 16  1  0
 16 17  2  0
 16 18  1  0
 18 19  1  0
 18 20  1  0
 20 21  1  0
 21 22  1  0
 22 23  2  0
 23 24  1  0
 24 25  2  0
 25 26  1  0
 26 27  2  0
 27 28  1  0
 28 29  2  0
 29 30  1  0
 30 31  2  0
 31 32  1  0
 15 33  1  0
 33 34  1  0
 11  6  1  0
 34 12  1  0
 32 20  1  0
 31 22  1  0
 29 24  1  0
  1 35  1  0
  1 36  1  0
  1 37  1  0
  2 38  1  0
  2 39  1  0
  7 40  1  0
  8 41  1  0
  9 42  1  0
 10 43  1  0
 11 44  1  0
 12 45  1  0
 13 46  1  0
 13 47  1  0
 14 48  1  0
 14 49  1  0
 18 50  1  1
 19 51  1  0
 19 52  1  0
 20 53  1  0
 21 54  1  0
 21 55  1  0
 23 56  1  0
 25 57  1  0
 26 58  1  0
 27 59  1  0
 28 60  1  0
 30 61  1  0
 32 62  1  0
 32 63  1  0
 33 64  1  0
 33 65  1  0
 34 66  1  0
 34 67  1  0
M  END
>  <smiles>  (3) 
CCC(=O)N(c1ccccc1)C1CCN(C(=O)[C@H](N)C2Cc3cc4ccccc4cc3C2)CC1

>  <score_type>  (3) 
oracle

>  <origin>  (3) 
autodockgpu

>  <m_score__min__energy>  (3) 
-8.8599999999999994

>  <m_primary>  (3) 
energy

>  <rmsd>  (3) 
7.619468525421301

>  <m_score__min__rmsd>  (3) 
7.619468525421301

>  <meeko>  (3) 
{"free_energy": -7.9, "intermolecular_energy": -9.99, "internal_energy": -2.58, "cluster_size": 21, "cluster_id": 5, "rank_in_cluster": 8}

>  <energy>  (3) 
-8.74

>  <cluster_rmsd>  (3) 
1.03

>  <cluster>  (3) 
1

$$$$

     RDKit          3D

 67 71  0  0  0  0  0  0  0  0999 V2000
  137.9980   80.1430  223.7740 C   0  0  0  0  0  0  0  0  0  0  0  0
  137.6310   79.3700  222.5150 C   0  0  0  0  0  0  0  0  0  0  0  0
  138.0650   77.9760  222.5840 C   0  0  0  0  0  0  0  0  0  0  0  0
  137.1490   77.1240  222.8650 O   0  0  0  0  0  0  0  0  0  0  0  0
  139.3540   77.4640  222.3860 N   0  0  0  0  0  0  0  0  0  0  0  0
  140.4610   78.3900  222.4130 C   0  0  0  0  0  0  0  0  0  0  0  0
  140.8300   79.0820  221.2600 C   0  0  0  0  0  0  0  0  0  0  0  0
  141.8790   80.0020  221.2670 C   0  0  0  0  0  0  0  0  0  0  0  0
  142.5860   80.2570  222.4180 C   0  0  0  0  0  0  0  0  0  0  0  0
  142.2260   79.5790  223.5510 C   0  0  0  0  0  0  0  0  0  0  0  0
  141.1750   78.6570  223.5520 C   0  0  0  0  0  0  0  0  0  0  0  0
  139.6910   76.0820  222.1370 C   0  0  0  0  0  0  0  0  0  0  0  0
  138.8400   75.4590  221.0540 C   0  0  0  0  0  0  0  0  0  0  0  0
  139.2160   74.0430  220.7680 C   0  0  0  0  0  0  0  0  0  0  0  0
  140.6160   73.7710  220.9410 N   0  0  0  0  0  0  0  0  0  0  0  0
  141.2010   72.5050  221.1480 C   0  0  0  0  0  0  0  0  0  0  0  0
  142.4740   72.4130  221.3000 O   0  0  0  0  0  0  0  0  0  0  0  0
  140.4720   71.2220  221.2080 C   0  0  2  0  0  0  0  0  0  0  0  0
  140.2640   70.6790  219.8580 N   0  0  0  0  0  0  0  0  0  0  0  0
  139.1450   71.2730  221.8830 C   0  0  0  0  0  0  0  0  0  0  0  0
  138.7330   69.9410  222.4750 C   0  0  0  0  0  0  0  0  0  0  0  0
  139.3500   69.9560  223.8310 C   0  0  0  0  0  0  0  0  0  0  0  0
  139.5710   68.8740  224.6600 C   0  0  0  0  0  0  0  0  0  0  0  0
  140.1490   69.0470  225.8950 C   0  0  0  0  0  0  0  0  0  0  0  0
  140.3540   67.9560  226.7060 C   0  0  0  0  0  0  0  0  0  0  0  0
  140.9260   68.1110  227.9460 C   0  0  0  0  0  0  0  0  0  0  0  0
  141.2860   69.3930  228.3510 C   0  0  0  0  0  0  0  0  0  0  0  0
  141.0690   70.4710  227.5200 C   0  0  0  0  0  0  0  0  0  0  0  0
  140.4950   70.3420  226.2680 C   0  0  0  0  0  0  0  0  0  0  0  0
  140.2660   71.4070  225.4280 C   0  0  0  0  0  0  0  0  0  0  0  0
  139.6840   71.2530  224.1730 C   0  0  0  0  0  0  0  0  0  0  0  0
  139.3130   72.1950  223.0880 C   0  0  0  0  0  0  0  0  0  0  0  0
  141.5240   74.9190  220.8820 C   0  0  0  0  0  0  0  0  0  0  0  0
  141.1660   75.8710  221.9640 C   0  0  0  0  0  0  0  0  0  0  0  0
  137.7185   79.5543  224.6602 H   0  0  0  0  0  0  0  0  0  0  0  0
  139.0817   80.3314  223.7858 H   0  0  0  0  0  0  0  0  0  0  0  0
  137.4590   81.1018  223.7858 H   0  0  0  0  0  0  0  0  0  0  0  0
  136.5387   79.3963  222.3876 H   0  0  0  0  0  0  0  0  0  0  0  0
  138.1417   79.8438  221.6637 H   0  0  0  0  0  0  0  0  0  0  0  0
  140.2819   78.8985  220.3241 H   0  0  0  0  0  0  0  0  0  0  0  0
  142.1438   80.5302  220.3392 H   0  0  0  0  0  0  0  0  0  0  0  0
  143.4134   80.9818  222.4280 H   0  0  0  0  0  0  0  0  0  0  0  0
  142.7775   79.7642  224.4845 H   0  0  0  0  0  0  0  0  0  0  0  0
  140.9161   78.1356  224.4853 H   0  0  0  0  0  0  0  0  0  0  0  0
  139.4324   75.5232  223.0485 H   0  0  0  0  0  0  0  0  0  0  0  0
  137.7880   75.4858  221.3742 H   0  0  0  0  0  0  0  0  0  0  0  0
  138.9999   76.0376  220.1322 H   0  0  0  0  0  0  0  0  0  0  0  0
  138.6487   73.3892  221.4468 H   0  0  0  0  0  0  0  0  0  0  0  0
  138.9804   73.8552  219.7101 H   0  0  0  0  0  0  0  0  0  0  0  0
  141.1221   70.5781  221.8186 H   0  0  0  0  0  0  0  0  0  0  0  0
  139.5870   71.2500  219.3030 H   0  0  0  0  0  0  0  0  0  0  0  0
  139.8970   69.7040  219.9730 H   0  0  0  0  0  0  0  0  0  0  0  0
  138.3992   71.5898  221.1390 H   0  0  0  0  0  0  0  0  0  0  0  0
  137.6379   69.8628  222.5424 H   0  0  0  0  0  0  0  0  0  0  0  0
  139.0572   69.0837  221.8668 H   0  0  0  0  0  0  0  0  0  0  0  0
  139.2821   67.8654  224.3293 H   0  0  0  0  0  0  0  0  0  0  0  0
  140.0588   66.9542  226.3607 H   0  0  0  0  0  0  0  0  0  0  0  0
  141.0950   67.2440  228.6016 H   0  0  0  0  0  0  0  0  0  0  0  0
  141.7457   69.5465  229.3385 H   0  0  0  0  0  0  0  0  0  0  0  0
  141.3637   71.4728  227.8658 H   0  0  0  0  0  0  0  0  0  0  0  0
  140.5529   72.4158  225.7597 H   0  0  0  0  0  0  0  0  0  0  0  0
  138.3736   72.7177  223.3210 H   0  0  0  0  0  0  0  0  0  0  0  0
  140.0564   72.9899  222.9281 H   0  0  0  0  0  0  0  0  0  0  0  0
  142.5606   74.5774  221.0187 H   0  0  0  0  0  0  0  0  0  0  0  0
  141.4348   75.4151  219.9043 H   0  0  0  0  0  0  0  0  0  0  0  0
  141.5723   75.4853  222.9107 H   0  0  0  0  0  0  0  0  0  0  0  0
  141.5926   76.8446  221.6811 H   0  0  0  0  0  0  0  0  0  0  0  0
  1  2  1  0
  2  3  1  0
  3  4  2  0
  3  5  1  0
  5  6  1  0
  6  7  2  0
  7  8  1  0
  8  9  2  0
  9 10  1  0
 10 11  2  0
  5 12  1  0
 12 13  1  0
 13 14  1  0
 14 15  1  0
 15 16  1  0
 16 17  2  0
 16 18  1  0
 18 19  1  0
 18 20  1  0
 20 21  1  0
 21 22  1  0
 22 23  2  0
 23 24  1  0
 24 25  2  0
 25 26  1  0
 26 27  2  0
 27 28  1  0
 28 29  2  0
 29 30  1  0
 30 31  2  0
 31 32  1  0
 15 33  1  0
 33 34  1  0
 11  6  1  0
 34 12  1  0
 32 20  1  0
 31 22  1  0
 29 24  1  0
  1 35  1  0
  1 36  1  0
  1 37  1  0
  2 38  1  0
  2 39  1  0
  7 40  1  0
  8 41  1  0
  9 42  1  0
 10 43  1  0
 11 44  1  0
 12 45  1  0
 13 46  1  0
 13 47  1  0
 14 48  1  0
 14 49  1  0
 18 50  1  1
 19 51  1  0
 19 52  1  0
 20 53  1  0
 21 54  1  0
 21 55  1  0
 23 56  1  0
 25 57  1  0
 26 58  1  0
 27 59  1  0
 28 60  1  0
 30 61  1  0
 32 62  1  0
 32 63  1  0
 33 64  1  0
 33 65  1  0
 34 66  1  0
 34 67  1  0
M  END
>  <smiles>  (4) 
CCC(=O)N(c1ccccc1)C1CCN(C(=O)[C@H](N)C2Cc3cc4ccccc4cc3C2)CC1

>  <score_type>  (4) 
oracle

>  <origin>  (4) 
autodockgpu

>  <m_score__min__energy>  (4) 
-8.8599999999999994

>  <m_primary>  (4) 
energy

>  <rmsd>  (4) 
2.5764654686162887

>  <m_score__min__rmsd>  (4) 
2.5764654686162887

>  <meeko>  (4) 
{"free_energy": -8.8, "intermolecular_energy": -10.89, "internal_energy": -1.56, "cluster_size": 5, "cluster_id": 2, "rank_in_cluster": 1}

>  <energy>  (4) 
-8.42

>  <cluster_rmsd>  (4) 
1.7

>  <cluster>  (4) 
1

$$$$

     RDKit          3D

 67 71  0  0  0  0  0  0  0  0999 V2000
  138.9960   68.3710  221.6930 C   0  0  0  0  0  0  0  0  0  0  0  0
  138.8150   67.8870  223.1250 C   0  0  0  0  0  0  0  0  0  0  0  0
  138.3340   68.9500  224.0060 C   0  0  0  0  0  0  0  0  0  0  0  0
  137.1100   68.8540  224.3730 O   0  0  0  0  0  0  0  0  0  0  0  0
  139.0460   70.0560  224.4890 N   0  0  0  0  0  0  0  0  0  0  0  0
  139.7490   69.9120  225.7410 C   0  0  0  0  0  0  0  0  0  0  0  0
  140.3400   71.0190  226.3490 C   0  0  0  0  0  0  0  0  0  0  0  0
  141.0030   70.9110  227.5720 C   0  0  0  0  0  0  0  0  0  0  0  0
  141.0950   69.7020  228.2200 C   0  0  0  0  0  0  0  0  0  0  0  0
  140.5160   68.6140  227.6250 C   0  0  0  0  0  0  0  0  0  0  0  0
  139.8490   68.7150  226.4000 C   0  0  0  0  0  0  0  0  0  0  0  0
  139.1350   71.3520  223.8570 C   0  0  0  0  0  0  0  0  0  0  0  0
  140.3230   71.4690  222.9300 C   0  0  0  0  0  0  0  0  0  0  0  0
  140.3920   72.7940  222.2460 C   0  0  0  0  0  0  0  0  0  0  0  0
  139.1050   73.3720  221.9750 N   0  0  0  0  0  0  0  0  0  0  0  0
  138.8360   74.7350  221.7310 C   0  0  0  0  0  0  0  0  0  0  0  0
  137.6280   75.1130  221.5140 O   0  0  0  0  0  0  0  0  0  0  0  0
  139.8430   75.8150  221.6960 C   0  0  2  0  0  0  0  0  0  0  0  0
  139.3320   77.0240  222.3570 N   0  0  0  0  0  0  0  0  0  0  0  0
  140.3100   76.2080  220.3370 C   0  0  0  0  0  0  0  0  0  0  0  0
  141.7590   76.6520  220.3180 C   0  0  0  0  0  0  0  0  0  0  0  0
  142.5110   75.3790  220.1370 C   0  0  0  0  0  0  0  0  0  0  0  0
  143.8530   75.1600  220.3790 C   0  0  0  0  0  0  0  0  0  0  0  0
  144.4110   73.9240  220.1580 C   0  0  0  0  0  0  0  0  0  0  0  0
  145.7490   73.7300  220.4020 C   0  0  0  0  0  0  0  0  0  0  0  0
  146.3250   72.5010  220.1810 C   0  0  0  0  0  0  0  0  0  0  0  0
  145.5180   71.4710  219.7080 C   0  0  0  0  0  0  0  0  0  0  0  0
  144.1780   71.6900  219.4710 C   0  0  0  0  0  0  0  0  0  0  0  0
  143.5750   72.9170  219.6840 C   0  0  0  0  0  0  0  0  0  0  0  0
  142.2410   73.1540  219.4480 C   0  0  0  0  0  0  0  0  0  0  0  0
  141.6570   74.3980  219.6670 C   0  0  0  0  0  0  0  0  0  0  0  0
  140.2850   74.9370  219.4920 C   0  0  0  0  0  0  0  0  0  0  0  0
  137.9650   72.4530  221.9330 C   0  0  0  0  0  0  0  0  0  0  0  0
  137.8340   71.7910  223.2550 C   0  0  0  0  0  0  0  0  0  0  0  0
  139.3813   69.4013  221.7001 H   0  0  0  0  0  0  0  0  0  0  0  0
  139.7100   67.7161  221.1721 H   0  0  0  0  0  0  0  0  0  0  0  0
  138.0275   68.3453  221.1721 H   0  0  0  0  0  0  0  0  0  0  0  0
  138.0862   67.0631  223.1319 H   0  0  0  0  0  0  0  0  0  0  0  0
  139.7951   67.5545  223.4976 H   0  0  0  0  0  0  0  0  0  0  0  0
  140.2823   71.9993  225.8534 H   0  0  0  0  0  0  0  0  0  0  0  0
  141.4580   71.8049  228.0236 H   0  0  0  0  0  0  0  0  0  0  0  0
  141.6165   69.6122  229.1844 H   0  0  0  0  0  0  0  0  0  0  0  0
  140.5768   67.6351  228.1230 H   0  0  0  0  0  0  0  0  0  0  0  0
  139.3958   67.8159  225.9569 H   0  0  0  0  0  0  0  0  0  0  0  0
  139.3334   72.0813  224.6562 H   0  0  0  0  0  0  0  0  0  0  0  0
  141.2425   71.3277  223.5169 H   0  0  0  0  0  0  0  0  0  0  0  0
  140.2144   70.6989  222.1521 H   0  0  0  0  0  0  0  0  0  0  0  0
  140.9557   73.4871  222.8877 H   0  0  0  0  0  0  0  0  0  0  0  0
  140.8812   72.6291  221.2747 H   0  0  0  0  0  0  0  0  0  0  0  0
  140.7068   75.3864  222.2253 H   0  0  0  0  0  0  0  0  0  0  0  0
  139.4960   77.0080  223.3900 H   0  0  0  0  0  0  0  0  0  0  0  0
  138.3040   77.0700  222.1610 H   0  0  0  0  0  0  0  0  0  0  0  0
  139.6698   77.0295  219.9831 H   0  0  0  0  0  0  0  0  0  0  0  0
  141.9477   77.3422  219.4825 H   0  0  0  0  0  0  0  0  0  0  0  0
  142.0519   77.1967  221.2276 H   0  0  0  0  0  0  0  0  0  0  0  0
  144.4808   75.9826  220.7521 H   0  0  0  0  0  0  0  0  0  0  0  0
  146.3630   74.5624  220.7762 H   0  0  0  0  0  0  0  0  0  0  0  0
  147.3955   72.3366  220.3731 H   0  0  0  0  0  0  0  0  0  0  0  0
  145.9515   70.4772  219.5223 H   0  0  0  0  0  0  0  0  0  0  0  0
  143.5641   70.8569  219.0980 H   0  0  0  0  0  0  0  0  0  0  0  0
  141.6139   72.3317  219.0731 H   0  0  0  0  0  0  0  0  0  0  0  0
  140.0817   75.1674  218.4358 H   0  0  0  0  0  0  0  0  0  0  0  0
  139.4979   74.2298  219.7927 H   0  0  0  0  0  0  0  0  0  0  0  0
  137.0460   73.0142  221.7081 H   0  0  0  0  0  0  0  0  0  0  0  0
  138.1242   71.6963  221.1507 H   0  0  0  0  0  0  0  0  0  0  0  0
  137.3548   72.4979  223.9483 H   0  0  0  0  0  0  0  0  0  0  0  0
  137.2385   70.8803  223.0935 H   0  0  0  0  0  0  0  0  0  0  0  0
  1  2  1  0
  2  3  1  0
  3  4  2  0
  3  5  1  0
  5  6  1  0
  6  7  2  0
  7  8  1  0
  8  9  2  0
  9 10  1  0
 10 11  2  0
  5 12  1  0
 12 13  1  0
 13 14  1  0
 14 15  1  0
 15 16  1  0
 16 17  2  0
 16 18  1  0
 18 19  1  0
 18 20  1  0
 20 21  1  0
 21 22  1  0
 22 23  2  0
 23 24  1  0
 24 25  2  0
 25 26  1  0
 26 27  2  0
 27 28  1  0
 28 29  2  0
 29 30  1  0
 30 31  2  0
 31 32  1  0
 15 33  1  0
 33 34  1  0
 11  6  1  0
 34 12  1  0
 32 20  1  0
 31 22  1  0
 29 24  1  0
  1 35  1  0
  1 36  1  0
  1 37  1  0
  2 38  1  0
  2 39  1  0
  7 40  1  0
  8 41  1  0
  9 42  1  0
 10 43  1  0
 11 44  1  0
 12 45  1  0
 13 46  1  0
 13 47  1  0
 14 48  1  0
 14 49  1  0
 18 50  1  1
 19 51  1  0
 19 52  1  0
 20 53  1  0
 21 54  1  0
 21 55  1  0
 23 56  1  0
 25 57  1  0
 26 58  1  0
 27 59  1  0
 28 60  1  0
 30 61  1  0
 32 62  1  0
 32 63  1  0
 33 64  1  0
 33 65  1  0
 34 66  1  0
 34 67  1  0
M  END
>  <smiles>  (5) 
CCC(=O)N(c1ccccc1)C1CCN(C(=O)[C@H](N)C2Cc3cc4ccccc4cc3C2)CC1

>  <score_type>  (5) 
oracle

>  <origin>  (5) 
autodockgpu

>  <m_score__min__energy>  (5) 
-8.8599999999999994

>  <m_primary>  (5) 
energy

>  <rmsd>  (5) 
7.546724085122649

>  <m_score__min__rmsd>  (5) 
7.546724085122649

>  <meeko>  (5) 
{"free_energy": -7.66, "intermolecular_energy": -9.74, "internal_energy": -2.78, "cluster_size": 21, "cluster_id": 5, "rank_in_cluster": 16}

>  <energy>  (5) 
-8.38

>  <cluster_rmsd>  (5) 
1.32

>  <cluster>  (5) 
1

$$$$

     RDKit          3D

 67 71  0  0  0  0  0  0  0  0999 V2000
  138.7750   67.1930  222.3600 C   0  0  0  0  0  0  0  0  0  0  0  0
  137.6510   68.2180  222.4310 C   0  0  0  0  0  0  0  0  0  0  0  0
  137.6850   68.9810  223.6780 C   0  0  0  0  0  0  0  0  0  0  0  0
  136.6370   68.8920  224.4100 O   0  0  0  0  0  0  0  0  0  0  0  0
  138.7180   69.7940  224.1620 N   0  0  0  0  0  0  0  0  0  0  0  0
  139.4000   69.3760  225.3630 C   0  0  0  0  0  0  0  0  0  0  0  0
  139.9850   70.3190  226.2070 C   0  0  0  0  0  0  0  0  0  0  0  0
  140.6280   69.9420  227.3870 C   0  0  0  0  0  0  0  0  0  0  0  0
  140.7050   68.6200  227.7570 C   0  0  0  0  0  0  0  0  0  0  0  0
  140.1320   67.6930  226.9300 C   0  0  0  0  0  0  0  0  0  0  0  0
  139.4860   68.0630  225.7470 C   0  0  0  0  0  0  0  0  0  0  0  0
  139.1650   71.0380  223.5800 C   0  0  0  0  0  0  0  0  0  0  0  0
  140.2910   70.8470  222.5890 C   0  0  0  0  0  0  0  0  0  0  0  0
  140.7260   72.1280  221.9570 C   0  0  0  0  0  0  0  0  0  0  0  0
  139.6620   73.0770  221.7870 N   0  0  0  0  0  0  0  0  0  0  0  0
  139.8060   74.4700  221.6150 C   0  0  0  0  0  0  0  0  0  0  0  0
  138.7590   75.2030  221.4850 O   0  0  0  0  0  0  0  0  0  0  0  0
  141.0880   75.2000  221.5640 C   0  0  2  0  0  0  0  0  0  0  0  0
  141.0070   76.4480  222.3360 N   0  0  0  0  0  0  0  0  0  0  0  0
  141.5730   75.5450  220.1980 C   0  0  0  0  0  0  0  0  0  0  0  0
  143.0840   75.5180  220.0840 C   0  0  0  0  0  0  0  0  0  0  0  0
  143.3830   74.0960  219.7590 C   0  0  0  0  0  0  0  0  0  0  0  0
  144.5990   73.4510  219.8730 C   0  0  0  0  0  0  0  0  0  0  0  0
  144.7230   72.1270  219.5270 C   0  0  0  0  0  0  0  0  0  0  0  0
  145.9440   71.5070  219.6430 C   0  0  0  0  0  0  0  0  0  0  0  0
  146.0880   70.1850  219.2970 C   0  0  0  0  0  0  0  0  0  0  0  0
  144.9690   69.5000  218.8290 C   0  0  0  0  0  0  0  0  0  0  0  0
  143.7560   70.1440  218.7210 C   0  0  0  0  0  0  0  0  0  0  0  0
  143.5850   71.4740  219.0620 C   0  0  0  0  0  0  0  0  0  0  0  0
  142.3820   72.1330  218.9560 C   0  0  0  0  0  0  0  0  0  0  0  0
  142.2350   73.4730  219.3020 C   0  0  0  0  0  0  0  0  0  0  0  0
  141.0960   74.4240  219.2790 C   0  0  0  0  0  0  0  0  0  0  0  0
  138.2970   72.5460  221.7750 C   0  0  0  0  0  0  0  0  0  0  0  0
  138.0310   71.8780  223.0750 C   0  0  0  0  0  0  0  0  0  0  0  0
  139.0814   66.9136  223.3789 H   0  0  0  0  0  0  0  0  0  0  0  0
  138.4226   66.2989  221.8249 H   0  0  0  0  0  0  0  0  0  0  0  0
  139.6330   67.6261  221.8249 H   0  0  0  0  0  0  0  0  0  0  0  0
  137.7512   68.9144  221.5854 H   0  0  0  0  0  0  0  0  0  0  0  0
  136.6941   67.6771  222.3890 H   0  0  0  0  0  0  0  0  0  0  0  0
  139.9387   71.3843  225.9368 H   0  0  0  0  0  0  0  0  0  0  0  0
  141.0791   70.7126  228.0294 H   0  0  0  0  0  0  0  0  0  0  0  0
  141.2101   68.3180  228.6863 H   0  0  0  0  0  0  0  0  0  0  0  0
  140.1810   66.6286  227.2032 H   0  0  0  0  0  0  0  0  0  0  0  0
  139.0377   67.2850  225.1115 H   0  0  0  0  0  0  0  0  0  0  0  0
  139.6093   71.6286  224.3947 H   0  0  0  0  0  0  0  0  0  0  0  0
  141.1503   70.4039  223.1138 H   0  0  0  0  0  0  0  0  0  0  0  0
  139.9208   70.1903  221.7880 H   0  0  0  0  0  0  0  0  0  0  0  0
  141.4998   72.5837  222.5922 H   0  0  0  0  0  0  0  0  0  0  0  0
  141.1003   71.8807  220.9527 H   0  0  0  0  0  0  0  0  0  0  0  0
  141.8107   74.4917  221.9953 H   0  0  0  0  0  0  0  0  0  0  0  0
  141.7490   76.5070  223.0710 H   0  0  0  0  0  0  0  0  0  0  0  0
  140.0600   76.4710  222.7830 H   0  0  0  0  0  0  0  0  0  0  0  0
  141.2055   76.5524  219.9530 H   0  0  0  0  0  0  0  0  0  0  0  0
  143.4297   76.1858  219.2812 H   0  0  0  0  0  0  0  0  0  0  0  0
  143.5888   75.8637  220.9982 H   0  0  0  0  0  0  0  0  0  0  0  0
  145.4758   74.0020  220.2440 H   0  0  0  0  0  0  0  0  0  0  0  0
  146.8111   72.0724  220.0150 H   0  0  0  0  0  0  0  0  0  0  0  0
  147.0615   69.6808  219.3872 H   0  0  0  0  0  0  0  0  0  0  0  0
  145.0542   68.4408  218.5446 H   0  0  0  0  0  0  0  0  0  0  0  0
  142.8890   69.5784  218.3489 H   0  0  0  0  0  0  0  0  0  0  0  0
  141.5056   71.5815  218.5848 H   0  0  0  0  0  0  0  0  0  0  0  0
  140.9122   74.7975  218.2608 H   0  0  0  0  0  0  0  0  0  0  0  0
  140.1454   73.9728  219.5996 H   0  0  0  0  0  0  0  0  0  0  0  0
  137.5816   73.3688  221.6291 H   0  0  0  0  0  0  0  0  0  0  0  0
  138.1848   71.8229  220.9537 H   0  0  0  0  0  0  0  0  0  0  0  0
  137.8173   72.6547  223.8241 H   0  0  0  0  0  0  0  0  0  0  0  0
  137.1828   71.1969  222.9116 H   0  0  0  0  0  0  0  0  0  0  0  0
  1  2  1  0
  2  3  1  0
  3  4  2  0
  3  5  1  0
  5  6  1  0
  6  7  2  0
  7  8  1  0
  8  9  2  0
  9 10  1  0
 10 11  2  0
  5 12  1  0
 12 13  1  0
 13 14  1  0
 14 15  1  0
 15 16  1  0
 16 17  2  0
 16 18  1  0
 18 19  1  0
 18 20  1  0
 20 21  1  0
 21 22  1  0
 22 23  2  0
 23 24  1  0
 24 25  2  0
 25 26  1  0
 26 27  2  0
 27 28  1  0
 28 29  2  0
 29 30  1  0
 30 31  2  0
 31 32  1  0
 15 33  1  0
 33 34  1  0
 11  6  1  0
 34 12  1  0
 32 20  1  0
 31 22  1  0
 29 24  1  0
  1 35  1  0
  1 36  1  0
  1 37  1  0
  2 38  1  0
  2 39  1  0
  7 40  1  0
  8 41  1  0
  9 42  1  0
 10 43  1  0
 11 44  1  0
 12 45  1  0
 13 46  1  0
 13 47  1  0
 14 48  1  0
 14 49  1  0
 18 50  1  1
 19 51  1  0
 19 52  1  0
 20 53  1  0
 21 54  1  0
 21 55  1  0
 23 56  1  0
 25 57  1  0
 26 58  1  0
 27 59  1  0
 28 60  1  0
 30 61  1  0
 32 62  1  0
 32 63  1  0
 33 64  1  0
 33 65  1  0
 34 66  1  0
 34 67  1  0
M  END
>  <smiles>  (6) 
CCC(=O)N(c1ccccc1)C1CCN(C(=O)[C@H](N)C2Cc3cc4ccccc4cc3C2)CC1

>  <score_type>  (6) 
oracle

>  <origin>  (6) 
autodockgpu

>  <m_score__min__energy>  (6) 
-8.8599999999999994

>  <m_primary>  (6) 
energy

>  <rmsd>  (6) 
7.486751748138821

>  <m_score__min__rmsd>  (6) 
7.486751748138821

>  <meeko>  (6) 
{"free_energy": -7.55, "intermolecular_energy": -9.64, "internal_energy": -2.71, "cluster_size": 21, "cluster_id": 5, "rank_in_cluster": 18}

>  <energy>  (6) 
-8.34

>  <cluster_rmsd>  (6) 
1.16

>  <cluster>  (6) 
1

$$$$

     RDKit          3D

 67 71  0  0  0  0  0  0  0  0999 V2000
  138.8360   66.8590  222.5980 C   0  0  0  0  0  0  0  0  0  0  0  0
  138.9540   68.3770  222.6460 C   0  0  0  0  0  0  0  0  0  0  0  0
  138.9220   68.8840  224.0160 C   0  0  0  0  0  0  0  0  0  0  0  0
  138.3150   68.1430  224.8680 O   0  0  0  0  0  0  0  0  0  0  0  0
  139.4680   70.0780  224.5060 N   0  0  0  0  0  0  0  0  0  0  0  0
  140.0880   70.0530  225.8090 C   0  0  0  0  0  0  0  0  0  0  0  0
  140.4660   68.8420  226.3880 C   0  0  0  0  0  0  0  0  0  0  0  0
  141.0900   68.7940  227.6350 C   0  0  0  0  0  0  0  0  0  0  0  0
  141.3540   69.9460  228.3370 C   0  0  0  0  0  0  0  0  0  0  0  0
  140.9840   71.1350  227.7710 C   0  0  0  0  0  0  0  0  0  0  0  0
  140.3590   71.1920  226.5210 C   0  0  0  0  0  0  0  0  0  0  0  0
  139.4590   71.3560  223.8330 C   0  0  0  0  0  0  0  0  0  0  0  0
  140.7120   71.5970  223.0220 C   0  0  0  0  0  0  0  0  0  0  0  0
  140.6850   72.9000  222.2940 C   0  0  0  0  0  0  0  0  0  0  0  0
  139.3710   73.3010  221.8750 N   0  0  0  0  0  0  0  0  0  0  0  0
  138.9610   74.6100  221.5500 C   0  0  0  0  0  0  0  0  0  0  0  0
  137.7430   74.8240  221.2000 O   0  0  0  0  0  0  0  0  0  0  0  0
  139.8230   75.8090  221.5680 C   0  0  2  0  0  0  0  0  0  0  0  0
  139.1160   76.9490  222.1680 N   0  0  0  0  0  0  0  0  0  0  0  0
  140.3380   76.2450  220.2400 C   0  0  0  0  0  0  0  0  0  0  0  0
  141.7920   76.6700  220.2820 C   0  0  0  0  0  0  0  0  0  0  0  0
  142.5350   75.3960  220.0780 C   0  0  0  0  0  0  0  0  0  0  0  0
  143.8660   75.1510  220.3550 C   0  0  0  0  0  0  0  0  0  0  0  0
  144.4150   73.9160  220.1060 C   0  0  0  0  0  0  0  0  0  0  0  0
  145.7430   73.6960  220.3840 C   0  0  0  0  0  0  0  0  0  0  0  0
  146.3110   72.4690  220.1360 C   0  0  0  0  0  0  0  0  0  0  0  0
  145.5070   71.4670  219.6000 C   0  0  0  0  0  0  0  0  0  0  0  0
  144.1780   71.7120  219.3290 C   0  0  0  0  0  0  0  0  0  0  0  0
  143.5830   72.9380  219.5690 C   0  0  0  0  0  0  0  0  0  0  0  0
  142.2600   73.2010  219.3000 C   0  0  0  0  0  0  0  0  0  0  0  0
  141.6840   74.4440  219.5460 C   0  0  0  0  0  0  0  0  0  0  0  0
  140.3250   75.0060  219.3480 C   0  0  0  0  0  0  0  0  0  0  0  0
  138.3640   72.2430  221.7590 C   0  0  0  0  0  0  0  0  0  0  0  0
  138.1820   71.6070  223.0890 C   0  0  0  0  0  0  0  0  0  0  0  0
  138.8051   66.4610  223.6230 H   0  0  0  0  0  0  0  0  0  0  0  0
  137.9134   66.5795  222.0682 H   0  0  0  0  0  0  0  0  0  0  0  0
  139.7043   66.4403  222.0682 H   0  0  0  0  0  0  0  0  0  0  0  0
  139.9045   68.6745  222.1790 H   0  0  0  0  0  0  0  0  0  0  0  0
  138.0956   68.8024  222.1054 H   0  0  0  0  0  0  0  0  0  0  0  0
  140.2678   67.9035  225.8495 H   0  0  0  0  0  0  0  0  0  0  0  0
  141.3746   67.8211  228.0622 H   0  0  0  0  0  0  0  0  0  0  0  0
  141.8460   69.9128  229.3203 H   0  0  0  0  0  0  0  0  0  0  0  0
  141.1832   72.0711  228.3132 H   0  0  0  0  0  0  0  0  0  0  0  0
  140.0797   72.1698  226.1015 H   0  0  0  0  0  0  0  0  0  0  0  0
  139.4823   72.1275  224.6167 H   0  0  0  0  0  0  0  0  0  0  0  0
  141.5773   71.5911  223.7011 H   0  0  0  0  0  0  0  0  0  0  0  0
  140.7800   70.7973  222.2697 H   0  0  0  0  0  0  0  0  0  0  0  0
  141.0897   73.6774  222.9587 H   0  0  0  0  0  0  0  0  0  0  0  0
  141.2873   72.7712  221.3826 H   0  0  0  0  0  0  0  0  0  0  0  0
  140.6921   75.4989  222.1667 H   0  0  0  0  0  0  0  0  0  0  0  0
  139.2570   77.0010  223.2030 H   0  0  0  0  0  0  0  0  0  0  0  0
  138.0980   76.8270  221.9520 H   0  0  0  0  0  0  0  0  0  0  0  0
  139.7191   77.0874  219.8975 H   0  0  0  0  0  0  0  0  0  0  0  0
  142.0148   77.3876  219.4786 H   0  0  0  0  0  0  0  0  0  0  0  0
  142.0623   77.1770  221.2200 H   0  0  0  0  0  0  0  0  0  0  0  0
  144.4914   75.9508  220.7782 H   0  0  0  0  0  0  0  0  0  0  0  0
  146.3547   74.5063  220.8073 H   0  0  0  0  0  0  0  0  0  0  0  0
  147.3729   72.2838  220.3553 H   0  0  0  0  0  0  0  0  0  0  0  0
  145.9343   70.4750  219.3918 H   0  0  0  0  0  0  0  0  0  0  0  0
  143.5666   70.9015  218.9055 H   0  0  0  0  0  0  0  0  0  0  0  0
  141.6354   72.4011  218.8757 H   0  0  0  0  0  0  0  0  0  0  0  0
  140.1580   75.2775  218.2952 H   0  0  0  0  0  0  0  0  0  0  0  0
  139.5206   74.2984  219.5973 H   0  0  0  0  0  0  0  0  0  0  0  0
  137.4103   72.6757  221.4226 H   0  0  0  0  0  0  0  0  0  0  0  0
  138.6947   71.4911  221.0274 H   0  0  0  0  0  0  0  0  0  0  0  0
  137.5499   72.2660  223.7023 H   0  0  0  0  0  0  0  0  0  0  0  0
  137.7246   70.6232  222.9076 H   0  0  0  0  0  0  0  0  0  0  0  0
  1  2  1  0
  2  3  1  0
  3  4  2  0
  3  5  1  0
  5  6  1  0
  6  7  2  0
  7  8  1  0
  8  9  2  0
  9 10  1  0
 10 11  2  0
  5 12  1  0
 12 13  1  0
 13 14  1  0
 14 15  1  0
 15 16  1  0
 16 17  2  0
 16 18  1  0
 18 19  1  0
 18 20  1  0
 20 21  1  0
 21 22  1  0
 22 23  2  0
 23 24  1  0
 24 25  2  0
 25 26  1  0
 26 27  2  0
 27 28  1  0
 28 29  2  0
 29 30  1  0
 30 31  2  0
 31 32  1  0
 15 33  1  0
 33 34  1  0
 11  6  1  0
 34 12  1  0
 32 20  1  0
 31 22  1  0
 29 24  1  0
  1 35  1  0
  1 36  1  0
  1 37  1  0
  2 38  1  0
  2 39  1  0
  7 40  1  0
  8 41  1  0
  9 42  1  0
 10 43  1  0
 11 44  1  0
 12 45  1  0
 13 46  1  0
 13 47  1  0
 14 48  1  0
 14 49  1  0
 18 50  1  1
 19 51  1  0
 19 52  1  0
 20 53  1  0
 21 54  1  0
 21 55  1  0
 23 56  1  0
 25 57  1  0
 26 58  1  0
 27 59  1  0
 28 60  1  0
 30 61  1  0
 32 62  1  0
 32 63  1  0
 33 64  1  0
 33 65  1  0
 34 66  1  0
 34 67  1  0
M  END
>  <smiles>  (7) 
CCC(=O)N(c1ccccc1)C1CCN(C(=O)[C@H](N)C2Cc3cc4ccccc4cc3C2)CC1

>  <score_type>  (7) 
oracle

>  <origin>  (7) 
autodockgpu

>  <m_score__min__energy>  (7) 
-8.8599999999999994

>  <m_primary>  (7) 
energy

>  <rmsd>  (7) 
7.590061052387233

>  <m_score__min__rmsd>  (7) 
7.590061052387233

>  <meeko>  (7) 
{"free_energy": -7.95, "intermolecular_energy": -10.03, "internal_energy": -2.62, "cluster_size": 21, "cluster_id": 5, "rank_in_cluster": 6}

>  <energy>  (7) 
-7.93

>  <cluster_rmsd>  (7) 
1.44

>  <cluster>  (7) 
1

$$$$

     RDKit          3D

 67 71  0  0  0  0  0  0  0  0999 V2000
  146.2850   73.0730  221.9020 C   0  0  0  0  0  0  0  0  0  0  0  0
  146.3500   73.7950  220.5630 C   0  0  0  0  0  0  0  0  0  0  0  0
  145.4170   73.2270  219.5910 C   0  0  0  0  0  0  0  0  0  0  0  0
  145.9390   72.4670  218.7000 O   0  0  0  0  0  0  0  0  0  0  0  0
  144.0310   73.4170  219.5150 N   0  0  0  0  0  0  0  0  0  0  0  0
  143.5470   74.7190  219.1220 C   0  0  0  0  0  0  0  0  0  0  0  0
  143.0730   75.6140  220.0800 C   0  0  0  0  0  0  0  0  0  0  0  0
  142.6250   76.8880  219.7290 C   0  0  0  0  0  0  0  0  0  0  0  0
  142.6370   77.3030  218.4180 C   0  0  0  0  0  0  0  0  0  0  0  0
  143.1010   76.4270  217.4760 C   0  0  0  0  0  0  0  0  0  0  0  0
  143.5530   75.1490  217.8210 C   0  0  0  0  0  0  0  0  0  0  0  0
  143.0190   72.4280  219.8100 C   0  0  0  0  0  0  0  0  0  0  0  0
  142.1960   72.7830  221.0280 C   0  0  0  0  0  0  0  0  0  0  0  0
  141.1240   71.7820  221.3090 C   0  0  0  0  0  0  0  0  0  0  0  0
  140.5850   71.1670  220.1290 N   0  0  0  0  0  0  0  0  0  0  0  0
  139.8900   69.9410  220.0700 C   0  0  0  0  0  0  0  0  0  0  0  0
  139.4710   69.5040  218.9360 O   0  0  0  0  0  0  0  0  0  0  0  0
  139.5790   69.0740  221.2240 C   0  0  2  0  0  0  0  0  0  0  0  0
  139.4990   67.6660  220.8110 N   0  0  0  0  0  0  0  0  0  0  0  0
  138.3190   69.4040  221.9490 C   0  0  0  0  0  0  0  0  0  0  0  0
  138.0360   68.4590  223.0990 C   0  0  0  0  0  0  0  0  0  0  0  0
  138.7750   69.0680  224.2400 C   0  0  0  0  0  0  0  0  0  0  0  0
  139.1300   68.4580  225.4270 C   0  0  0  0  0  0  0  0  0  0  0  0
  139.8100   69.1560  226.3960 C   0  0  0  0  0  0  0  0  0  0  0  0
  140.1480   68.5300  227.5720 C   0  0  0  0  0  0  0  0  0  0  0  0
  140.8240   69.2140  228.5540 C   0  0  0  0  0  0  0  0  0  0  0  0
  141.1500   70.5470  228.3230 C   0  0  0  0  0  0  0  0  0  0  0  0
  140.7990   71.1530  227.1360 C   0  0  0  0  0  0  0  0  0  0  0  0
  140.1190   70.4870  226.1330 C   0  0  0  0  0  0  0  0  0  0  0  0
  139.7570   71.0780  224.9440 C   0  0  0  0  0  0  0  0  0  0  0  0
  139.0690   70.3880  223.9500 C   0  0  0  0  0  0  0  0  0  0  0  0
  138.5490   70.7600  222.6110 C   0  0  0  0  0  0  0  0  0  0  0  0
  140.7600   71.8910  218.8670 C   0  0  0  0  0  0  0  0  0  0  0  0
  142.2120   72.0510  218.6050 C   0  0  0  0  0  0  0  0  0  0  0  0
  146.3511   73.8075  222.7182 H   0  0  0  0  0  0  0  0  0  0  0  0
  145.3339   72.5255  221.9776 H   0  0  0  0  0  0  0  0  0  0  0  0
  147.1230   72.3644  221.9776 H   0  0  0  0  0  0  0  0  0  0  0  0
  146.1003   74.8550  220.7181 H   0  0  0  0  0  0  0  0  0  0  0  0
  147.3688   73.6817  220.1639 H   0  0  0  0  0  0  0  0  0  0  0  0
  143.0517   75.3089  221.1366 H   0  0  0  0  0  0  0  0  0  0  0  0
  142.2576   77.5690  220.5108 H   0  0  0  0  0  0  0  0  0  0  0  0
  142.2850   78.3064  218.1364 H   0  0  0  0  0  0  0  0  0  0  0  0
  143.1193   76.7352  216.4202 H   0  0  0  0  0  0  0  0  0  0  0  0
  143.9205   74.4759  217.0324 H   0  0  0  0  0  0  0  0  0  0  0  0
  143.5480   71.5053  220.0904 H   0  0  0  0  0  0  0  0  0  0  0  0
  142.8637   72.8382  221.9004 H   0  0  0  0  0  0  0  0  0  0  0  0
  141.7067   73.7480  220.8295 H   0  0  0  0  0  0  0  0  0  0  0  0
  141.5446   70.9935  221.9504 H   0  0  0  0  0  0  0  0  0  0  0  0
  140.2987   72.3228  221.7953 H   0  0  0  0  0  0  0  0  0  0  0  0
  140.4114   69.2547  221.9201 H   0  0  0  0  0  0  0  0  0  0  0  0
  140.4450   67.2340  220.6970 H   0  0  0  0  0  0  0  0  0  0  0  0
  138.9830   67.6430  219.9000 H   0  0  0  0  0  0  0  0  0  0  0  0
  137.4910   69.3597  221.2262 H   0  0  0  0  0  0  0  0  0  0  0  0
  136.9577   68.4093  223.3107 H   0  0  0  0  0  0  0  0  0  0  0  0
  138.3474   67.4249  222.8901 H   0  0  0  0  0  0  0  0  0  0  0  0
  138.8661   67.4040  225.5984 H   0  0  0  0  0  0  0  0  0  0  0  0
  139.8760   67.4757  227.7282 H   0  0  0  0  0  0  0  0  0  0  0  0
  141.1001   68.7207  229.4976 H   0  0  0  0  0  0  0  0  0  0  0  0
  141.6903   71.1196  229.0913 H   0  0  0  0  0  0  0  0  0  0  0  0
  141.0704   72.2076  226.9805 H   0  0  0  0  0  0  0  0  0  0  0  0
  140.0205   72.1322  224.7733 H   0  0  0  0  0  0  0  0  0  0  0  0
  137.6088   71.3250  222.6940 H   0  0  0  0  0  0  0  0  0  0  0  0
  139.2309   71.4112  222.0444 H   0  0  0  0  0  0  0  0  0  0  0  0
  140.2968   71.3223  218.0472 H   0  0  0  0  0  0  0  0  0  0  0  0
  140.2810   72.8790  218.9333 H   0  0  0  0  0  0  0  0  0  0  0  0
  142.5988   71.0976  218.2160 H   0  0  0  0  0  0  0  0  0  0  0  0
  142.3129   72.8785  217.8873 H   0  0  0  0  0  0  0  0  0  0  0  0
  1  2  1  0
  2  3  1  0
  3  4  2  0
  3  5  1  0
  5  6  1  0
  6  7  2  0
  7  8  1  0
  8  9  2  0
  9 10  1  0
 10 11  2  0
  5 12  1  0
 12 13  1  0
 13 14  1  0
 14 15  1  0
 15 16  1  0
 16 17  2  0
 16 18  1  0
 18 19  1  0
 18 20  1  0
 20 21  1  0
 21 22  1  0
 22 23  2  0
 23 24  1  0
 24 25  2  0
 25 26  1  0
 26 27  2  0
 27 28  1  0
 28 29  2  0
 29 30  1  0
 30 31  2  0
 31 32  1  0
 15 33  1  0
 33 34  1  0
 11  6  1  0
 34 12  1  0
 32 20  1  0
 31 22  1  0
 29 24  1  0
  1 35  1  0
  1 36  1  0
  1 37  1  0
  2 38  1  0
  2 39  1  0
  7 40  1  0
  8 41  1  0
  9 42  1  0
 10 43  1  0
 11 44  1  0
 12 45  1  0
 13 46  1  0
 13 47  1  0
 14 48  1  0
 14 49  1  0
 18 50  1  1
 19 51  1  0
 19 52  1  0
 20 53  1  0
 21 54  1  0
 21 55  1  0
 23 56  1  0
 25 57  1  0
 26 58  1  0
 27 59  1  0
 28 60  1  0
 30 61  1  0
 32 62  1  0
 32 63  1  0
 33 64  1  0
 33 65  1  0
 34 66  1  0
 34 67  1  0
M  END
>  <smiles>  (8) 
CCC(=O)N(c1ccccc1)C1CCN(C(=O)[C@H](N)C2Cc3cc4ccccc4cc3C2)CC1

>  <score_type>  (8) 
oracle

>  <origin>  (8) 
autodockgpu

>  <m_score__min__energy>  (8) 
-8.8599999999999994

>  <m_primary>  (8) 
energy

>  <rmsd>  (8) 
2.666864038917077

>  <m_score__min__rmsd>  (8) 
2.666864038917077

>  <meeko>  (8) 
{"free_energy": -8.68, "intermolecular_energy": -10.76, "internal_energy": -2.4, "cluster_size": 2, "cluster_id": 4, "rank_in_cluster": 1}

>  <energy>  (8) 
-8.8

>  <cluster_rmsd>  (8) 
0.0

>  <cluster>  (8) 
2

$$$$

     RDKit          3D

 67 71  0  0  0  0  0  0  0  0999 V2000
  146.3010   73.2210  221.9860 C   0  0  0  0  0  0  0  0  0  0  0  0
  146.3840   73.8570  220.6050 C   0  0  0  0  0  0  0  0  0  0  0  0
  145.7190   73.0440  219.5880 C   0  0  0  0  0  0  0  0  0  0  0  0
  146.2330   73.0940  218.4150 O   0  0  0  0  0  0  0  0  0  0  0  0
  144.5930   72.2250  219.7410 N   0  0  0  0  0  0  0  0  0  0  0  0
  144.7680   70.8000  219.5870 C   0  0  0  0  0  0  0  0  0  0  0  0
  145.9100   70.2920  218.9690 C   0  0  0  0  0  0  0  0  0  0  0  0
  146.1140   68.9190  218.8320 C   0  0  0  0  0  0  0  0  0  0  0  0
  145.1900   68.0170  219.3030 C   0  0  0  0  0  0  0  0  0  0  0  0
  144.0680   68.5130  219.9090 C   0  0  0  0  0  0  0  0  0  0  0  0
  143.8570   69.8880  220.0520 C   0  0  0  0  0  0  0  0  0  0  0  0
  143.2490   72.6710  220.0260 C   0  0  0  0  0  0  0  0  0  0  0  0
  143.1800   74.1470  220.3460 C   0  0  0  0  0  0  0  0  0  0  0  0
  141.7850   74.6160  220.6000 C   0  0  0  0  0  0  0  0  0  0  0  0
  140.7920   73.9140  219.8370 N   0  0  0  0  0  0  0  0  0  0  0  0
  139.4160   73.8300  220.1350 C   0  0  0  0  0  0  0  0  0  0  0  0
  138.6410   73.1540  219.3640 O   0  0  0  0  0  0  0  0  0  0  0  0
  138.7470   74.4670  221.2870 C   0  0  2  0  0  0  0  0  0  0  0  0
  137.8950   73.5000  221.9940 N   0  0  0  0  0  0  0  0  0  0  0  0
  137.9070   75.6540  220.9610 C   0  0  0  0  0  0  0  0  0  0  0  0
  137.7190   76.5850  222.1420 C   0  0  0  0  0  0  0  0  0  0  0  0
  138.9040   77.4850  222.0680 C   0  0  0  0  0  0  0  0  0  0  0  0
  139.4030   78.2920  223.0710 C   0  0  0  0  0  0  0  0  0  0  0  0
  140.5090   79.0770  222.8500 C   0  0  0  0  0  0  0  0  0  0  0  0
  140.9860   79.8760  223.8610 C   0  0  0  0  0  0  0  0  0  0  0  0
  142.0880   80.6720  223.6570 C   0  0  0  0  0  0  0  0  0  0  0  0
  142.6980   80.6440  222.4070 C   0  0  0  0  0  0  0  0  0  0  0  0
  142.2010   79.8340  221.4090 C   0  0  0  0  0  0  0  0  0  0  0  0
  141.0940   79.0250  221.5890 C   0  0  0  0  0  0  0  0  0  0  0  0
  140.5810   78.2150  220.6020 C   0  0  0  0  0  0  0  0  0  0  0  0
  139.4630   77.4110  220.8050 C   0  0  0  0  0  0  0  0  0  0  0  0
  138.7000   76.4730  219.9460 C   0  0  0  0  0  0  0  0  0  0  0  0
  141.2500   73.2340  218.6230 C   0  0  0  0  0  0  0  0  0  0  0  0
  142.2590   72.2120  218.9980 C   0  0  0  0  0  0  0  0  0  0  0  0
  146.4027   74.0005  222.7554 H   0  0  0  0  0  0  0  0  0  0  0  0
  145.3295   72.7177  222.1001 H   0  0  0  0  0  0  0  0  0  0  0  0
  147.1107   72.4853  222.1001 H   0  0  0  0  0  0  0  0  0  0  0  0
  145.9033   74.8458  220.6397 H   0  0  0  0  0  0  0  0  0  0  0  0
  147.4464   73.9410  220.3323 H   0  0  0  0  0  0  0  0  0  0  0  0
  146.6669   70.9895  218.5809 H   0  0  0  0  0  0  0  0  0  0  0  0
  147.0272   68.5529  218.3401 H   0  0  0  0  0  0  0  0  0  0  0  0
  145.3472   66.9335  219.1964 H   0  0  0  0  0  0  0  0  0  0  0  0
  143.3125   67.8121  220.2936 H   0  0  0  0  0  0  0  0  0  0  0  0
  142.9419   70.2445  220.5474 H   0  0  0  0  0  0  0  0  0  0  0  0
  142.9383   72.1709  220.9552 H   0  0  0  0  0  0  0  0  0  0  0  0
  143.7857   74.3414  221.2434 H   0  0  0  0  0  0  0  0  0  0  0  0
  143.5613   74.6951  219.4719 H   0  0  0  0  0  0  0  0  0  0  0  0
  141.5621   74.4800  221.6686 H   0  0  0  0  0  0  0  0  0  0  0  0
  141.7398   75.6712  220.2927 H   0  0  0  0  0  0  0  0  0  0  0  0
  139.5802   74.8204  221.9123 H   0  0  0  0  0  0  0  0  0  0  0  0
  138.2870   73.2360  222.9270 H   0  0  0  0  0  0  0  0  0  0  0  0
  137.8240   72.6510  221.3840 H   0  0  0  0  0  0  0  0  0  0  0  0
  136.9259   75.2915  220.6203 H   0  0  0  0  0  0  0  0  0  0  0  0
  136.7843   77.1571  222.0467 H   0  0  0  0  0  0  0  0  0  0  0  0
  137.6460   76.0510  223.1009 H   0  0  0  0  0  0  0  0  0  0  0  0
  138.9113   78.3067  224.0549 H   0  0  0  0  0  0  0  0  0  0  0  0
  140.4831   79.8787  224.8393 H   0  0  0  0  0  0  0  0  0  0  0  0
  142.4772   81.3141  224.4609 H   0  0  0  0  0  0  0  0  0  0  0  0
  143.5809   81.2712  222.2144 H   0  0  0  0  0  0  0  0  0  0  0  0
  142.7045   79.8308  220.4310 H   0  0  0  0  0  0  0  0  0  0  0  0
  141.0718   78.2024  219.6177 H   0  0  0  0  0  0  0  0  0  0  0  0
  138.0291   77.0164  219.2644 H   0  0  0  0  0  0  0  0  0  0  0  0
  139.3404   75.8589  219.2958 H   0  0  0  0  0  0  0  0  0  0  0  0
  140.3969   72.7469  218.1281 H   0  0  0  0  0  0  0  0  0  0  0  0
  141.6969   73.9640  217.9321 H   0  0  0  0  0  0  0  0  0  0  0  0
  141.7289   71.3349  219.3976 H   0  0  0  0  0  0  0  0  0  0  0  0
  142.8325   71.9862  218.0869 H   0  0  0  0  0  0  0  0  0  0  0  0
  1  2  1  0
  2  3  1  0
  3  4  2  0
  3  5  1  0
  5  6  1  0
  6  7  2  0
  7  8  1  0
  8  9  2  0
  9 10  1  0
 10 11  2  0
  5 12  1  0
 12 13  1  0
 13 14  1  0
 14 15  1  0
 15 16  1  0
 16 17  2  0
 16 18  1  0
 18 19  1  0
 18 20  1  0
 20 21  1  0
 21 22  1  0
 22 23  2  0
 23 24  1  0
 24 25  2  0
 25 26  1  0
 26 27  2  0
 27 28  1  0
 28 29  2  0
 29 30  1  0
 30 31  2  0
 31 32  1  0
 15 33  1  0
 33 34  1  0
 11  6  1  0
 34 12  1  0
 32 20  1  0
 31 22  1  0
 29 24  1  0
  1 35  1  0
  1 36  1  0
  1 37  1  0
  2 38  1  0
  2 39  1  0
  7 40  1  0
  8 41  1  0
  9 42  1  0
 10 43  1  0
 11 44  1  0
 12 45  1  0
 13 46  1  0
 13 47  1  0
 14 48  1  0
 14 49  1  0
 18 50  1  1
 19 51  1  0
 19 52  1  0
 20 53  1  0
 21 54  1  0
 21 55  1  0
 23 56  1  0
 25 57  1  0
 26 58  1  0
 27 59  1  0
 28 60  1  0
 30 61  1  0
 32 62  1  0
 32 63  1  0
 33 64  1  0
 33 65  1  0
 34 66  1  0
 34 67  1  0
M  END
>  <smiles>  (9) 
CCC(=O)N(c1ccccc1)C1CCN(C(=O)[C@H](N)C2Cc3cc4ccccc4cc3C2)CC1

>  <score_type>  (9) 
oracle

>  <origin>  (9) 
autodockgpu

>  <m_score__min__energy>  (9) 
-8.8599999999999994

>  <m_primary>  (9) 
energy

>  <rmsd>  (9) 
7.5810565373719765

>  <m_score__min__rmsd>  (9) 
7.5810565373719765

>  <meeko>  (9) 
{"free_energy": -8.02, "intermolecular_energy": -10.11, "internal_energy": -2.36, "cluster_size": 2, "cluster_id": 6, "rank_in_cluster": 1}

>  <energy>  (9) 
-8.77

>  <cluster_rmsd>  (9) 
0.25

>  <cluster>  (9) 
2

$$$$

     RDKit          3D

 67 71  0  0  0  0  0  0  0  0999 V2000
  138.8320   66.9990  222.3200 C   0  0  0  0  0  0  0  0  0  0  0  0
  139.0670   68.4970  222.4580 C   0  0  0  0  0  0  0  0  0  0  0  0
  139.0250   68.9310  223.8530 C   0  0  0  0  0  0  0  0  0  0  0  0
  138.4490   68.1260  224.6670 O   0  0  0  0  0  0  0  0  0  0  0  0
  139.5330   70.1160  224.4030 N   0  0  0  0  0  0  0  0  0  0  0  0
  140.1070   70.0550  225.7250 C   0  0  0  0  0  0  0  0  0  0  0  0
  140.3170   71.2230  226.4580 C   0  0  0  0  0  0  0  0  0  0  0  0
  140.8460   71.1890  227.7480 C   0  0  0  0  0  0  0  0  0  0  0  0
  141.1810   69.9950  228.3420 C   0  0  0  0  0  0  0  0  0  0  0  0
  140.9770   68.8480  227.6250 C   0  0  0  0  0  0  0  0  0  0  0  0
  140.4450   68.8740  226.3320 C   0  0  0  0  0  0  0  0  0  0  0  0
  139.5240   71.4170  223.7750 C   0  0  0  0  0  0  0  0  0  0  0  0
  140.7200   71.6390  222.8770 C   0  0  0  0  0  0  0  0  0  0  0  0
  140.6900   72.9670  222.1960 C   0  0  0  0  0  0  0  0  0  0  0  0
  139.3650   73.4320  221.8940 N   0  0  0  0  0  0  0  0  0  0  0  0
  138.9850   74.7670  221.6450 C   0  0  0  0  0  0  0  0  0  0  0  0
  137.7540   75.0390  221.3980 O   0  0  0  0  0  0  0  0  0  0  0  0
  139.8940   75.9300  221.6350 C   0  0  2  0  0  0  0  0  0  0  0  0
  139.2480   77.1000  222.2450 N   0  0  0  0  0  0  0  0  0  0  0  0
  140.3930   76.3390  220.2920 C   0  0  0  0  0  0  0  0  0  0  0  0
  141.8510   76.7520  220.3050 C   0  0  0  0  0  0  0  0  0  0  0  0
  142.5790   75.4670  220.1110 C   0  0  0  0  0  0  0  0  0  0  0  0
  143.9110   75.2150  220.3710 C   0  0  0  0  0  0  0  0  0  0  0  0
  144.4460   73.9710  220.1340 C   0  0  0  0  0  0  0  0  0  0  0  0
  145.7760   73.7430  220.3950 C   0  0  0  0  0  0  0  0  0  0  0  0
  146.3280   72.5070  220.1600 C   0  0  0  0  0  0  0  0  0  0  0  0
  145.5080   71.5040  219.6520 C   0  0  0  0  0  0  0  0  0  0  0  0
  144.1770   71.7570  219.3980 C   0  0  0  0  0  0  0  0  0  0  0  0
  143.5970   72.9920  219.6260 C   0  0  0  0  0  0  0  0  0  0  0  0
  142.2720   73.2630  219.3730 C   0  0  0  0  0  0  0  0  0  0  0  0
  141.7110   74.5150  219.6070 C   0  0  0  0  0  0  0  0  0  0  0  0
  140.3540   75.0860  219.4210 C   0  0  0  0  0  0  0  0  0  0  0  0
  138.3100   72.4180  221.8230 C   0  0  0  0  0  0  0  0  0  0  0  0
  138.2050   71.7420  223.1410 C   0  0  0  0  0  0  0  0  0  0  0  0
  138.7608   66.5454  223.3196 H   0  0  0  0  0  0  0  0  0  0  0  0
  137.8954   66.8239  221.7704 H   0  0  0  0  0  0  0  0  0  0  0  0
  139.6700   66.5455  221.7704 H   0  0  0  0  0  0  0  0  0  0  0  0
  140.0544   68.7417  222.0394 H   0  0  0  0  0  0  0  0  0  0  0  0
  138.2647   69.0185  221.9154 H   0  0  0  0  0  0  0  0  0  0  0  0
  140.0595   72.1933  226.0082 H   0  0  0  0  0  0  0  0  0  0  0  0
  140.9972   72.1298  228.2975 H   0  0  0  0  0  0  0  0  0  0  0  0
  141.5988   69.9632  229.3591 H   0  0  0  0  0  0  0  0  0  0  0  0
  141.2383   67.8799  228.0773 H   0  0  0  0  0  0  0  0  0  0  0  0
  140.2949   67.9277  225.7916 H   0  0  0  0  0  0  0  0  0  0  0  0
  139.6381   72.1588  224.5792 H   0  0  0  0  0  0  0  0  0  0  0  0
  141.6339   71.5763  223.4860 H   0  0  0  0  0  0  0  0  0  0  0  0
  140.6978   70.8645  222.0962 H   0  0  0  0  0  0  0  0  0  0  0  0
  141.1756   73.7045  222.8519 H   0  0  0  0  0  0  0  0  0  0  0  0
  141.2150   72.8479  221.2367 H   0  0  0  0  0  0  0  0  0  0  0  0
  140.7645   75.5881  222.2141 H   0  0  0  0  0  0  0  0  0  0  0  0
  138.2190   76.9630  222.3710 H   0  0  0  0  0  0  0  0  0  0  0  0
  139.4240   77.9140  221.6090 H   0  0  0  0  0  0  0  0  0  0  0  0
  139.7770   77.1815  219.9445 H   0  0  0  0  0  0  0  0  0  0  0  0
  142.0679   77.4541  219.4865 H   0  0  0  0  0  0  0  0  0  0  0  0
  142.1403   77.2725  221.2299 H   0  0  0  0  0  0  0  0  0  0  0  0
  144.5497   76.0162  220.7712 H   0  0  0  0  0  0  0  0  0  0  0  0
  146.4020   74.5546  220.7943 H   0  0  0  0  0  0  0  0  0  0  0  0
  147.3910   72.3152  220.3681 H   0  0  0  0  0  0  0  0  0  0  0  0
  145.9236   70.5053  219.4523 H   0  0  0  0  0  0  0  0  0  0  0  0
  143.5516   70.9451  218.9984 H   0  0  0  0  0  0  0  0  0  0  0  0
  141.6337   72.4620  218.9717 H   0  0  0  0  0  0  0  0  0  0  0  0
  140.1727   75.3417  218.3666 H   0  0  0  0  0  0  0  0  0  0  0  0
  139.5471   74.3901  219.6944 H   0  0  0  0  0  0  0  0  0  0  0  0
  137.3516   72.8985  221.5768 H   0  0  0  0  0  0  0  0  0  0  0  0
  138.5527   71.6807  221.0436 H   0  0  0  0  0  0  0  0  0  0  0  0
  137.6483   72.4015  223.8230 H   0  0  0  0  0  0  0  0  0  0  0  0
  137.6964   70.7830  222.9633 H   0  0  0  0  0  0  0  0  0  0  0  0
  1  2  1  0
  2  3  1  0
  3  4  2  0
  3  5  1  0
  5  6  1  0
  6  7  2  0
  7  8  1  0
  8  9  2  0
  9 10  1  0
 10 11  2  0
  5 12  1  0
 12 13  1  0
 13 14  1  0
 14 15  1  0
 15 16  1  0
 16 17  2  0
 16 18  1  0
 18 19  1  0
 18 20  1  0
 20 21  1  0
 21 22  1  0
 22 23  2  0
 23 24  1  0
 24 25  2  0
 25 26  1  0
 26 27  2  0
 27 28  1  0
 28 29  2  0
 29 30  1  0
 30 31  2  0
 31 32  1  0
 15 33  1  0
 33 34  1  0
 11  6  1  0
 34 12  1  0
 32 20  1  0
 31 22  1  0
 29 24  1  0
  1 35  1  0
  1 36  1  0
  1 37  1  0
  2 38  1  0
  2 39  1  0
  7 40  1  0
  8 41  1  0
  9 42  1  0
 10 43  1  0
 11 44  1  0
 12 45  1  0
 13 46  1  0
 13 47  1  0
 14 48  1  0
 14 49  1  0
 18 50  1  1
 19 51  1  0
 19 52  1  0
 20 53  1  0
 21 54  1  0
 21 55  1  0
 23 56  1  0
 25 57  1  0
 26 58  1  0
 27 59  1  0
 28 60  1  0
 30 61  1  0
 32 62  1  0
 32 63  1  0
 33 64  1  0
 33 65  1  0
 34 66  1  0
 34 67  1  0
M  END
>  <smiles>  (10) 
CCC(=O)N(c1ccccc1)C1CCN(C(=O)[C@H](N)C2Cc3cc4ccccc4cc3C2)CC1

>  <score_type>  (10) 
oracle

>  <origin>  (10) 
autodockgpu

>  <m_score__min__energy>  (10) 
-8.8599999999999994

>  <m_primary>  (10) 
energy

>  <rmsd>  (10) 
7.626779723876765

>  <m_score__min__rmsd>  (10) 
7.626779723876765

>  <meeko>  (10) 
{"free_energy": -8.04, "intermolecular_energy": -10.13, "internal_energy": -2.55, "cluster_size": 21, "cluster_id": 5, "rank_in_cluster": 4}

>  <energy>  (10) 
-8.56

>  <cluster_rmsd>  (10) 
1.76

>  <cluster>  (10) 
2

$$$$

     RDKit          3D

 67 71  0  0  0  0  0  0  0  0999 V2000
  138.8160   66.8050  221.9300 C   0  0  0  0  0  0  0  0  0  0  0  0
  138.7790   68.2800  222.3050 C   0  0  0  0  0  0  0  0  0  0  0  0
  139.0260   68.4870  223.7310 C   0  0  0  0  0  0  0  0  0  0  0  0
  139.1770   67.4220  224.4280 O   0  0  0  0  0  0  0  0  0  0  0  0
  139.1150   69.7030  224.4220 N   0  0  0  0  0  0  0  0  0  0  0  0
  139.6840   69.6860  225.7480 C   0  0  0  0  0  0  0  0  0  0  0  0
  140.5080   70.7280  226.1760 C   0  0  0  0  0  0  0  0  0  0  0  0
  141.0490   70.7480  227.4620 C   0  0  0  0  0  0  0  0  0  0  0  0
  140.7860   69.7350  228.3540 C   0  0  0  0  0  0  0  0  0  0  0  0
  139.9790   68.7120  227.9360 C   0  0  0  0  0  0  0  0  0  0  0  0
  139.4320   68.6850  226.6490 C   0  0  0  0  0  0  0  0  0  0  0  0
  138.6710   70.9900  223.9390 C   0  0  0  0  0  0  0  0  0  0  0  0
  139.6010   71.5760  222.9010 C   0  0  0  0  0  0  0  0  0  0  0  0
  139.1210   72.8870  222.3720 C   0  0  0  0  0  0  0  0  0  0  0  0
  137.6900   73.0000  222.3210 N   0  0  0  0  0  0  0  0  0  0  0  0
  136.9480   74.1980  222.2690 C   0  0  0  0  0  0  0  0  0  0  0  0
  135.6650   74.1470  222.2370 O   0  0  0  0  0  0  0  0  0  0  0  0
  137.5180   75.5600  222.2440 C   0  0  2  0  0  0  0  0  0  0  0  0
  136.4680   76.5680  222.4410 N   0  0  0  0  0  0  0  0  0  0  0  0
  138.2600   75.9180  221.0020 C   0  0  0  0  0  0  0  0  0  0  0  0
  138.1350   77.3850  220.6440 C   0  0  0  0  0  0  0  0  0  0  0  0
  139.2400   78.0260  221.4090 C   0  0  0  0  0  0  0  0  0  0  0  0
  139.3800   79.3670  221.7090 C   0  0  0  0  0  0  0  0  0  0  0  0
  140.4660   79.8130  222.4250 C   0  0  0  0  0  0  0  0  0  0  0  0
  140.5880   81.1520  222.7080 C   0  0  0  0  0  0  0  0  0  0  0  0
  141.6690   81.6170  223.4180 C   0  0  0  0  0  0  0  0  0  0  0  0
  142.6270   80.6980  223.8360 C   0  0  0  0  0  0  0  0  0  0  0  0
  142.4830   79.3600  223.5400 C   0  0  0  0  0  0  0  0  0  0  0  0
  141.4050   78.8670  222.8270 C   0  0  0  0  0  0  0  0  0  0  0  0
  141.2480   77.5360  222.5170 C   0  0  0  0  0  0  0  0  0  0  0  0
  140.1550   77.0640  221.7950 C   0  0  0  0  0  0  0  0  0  0  0  0
  139.7400   75.7220  221.3160 C   0  0  0  0  0  0  0  0  0  0  0  0
  136.9290   71.7480  222.3030 C   0  0  0  0  0  0  0  0  0  0  0  0
  137.2240   70.9910  223.5460 C   0  0  0  0  0  0  0  0  0  0  0  0
  138.8313   66.1944  222.8448 H   0  0  0  0  0  0  0  0  0  0  0  0
  137.9238   66.5549  221.3371 H   0  0  0  0  0  0  0  0  0  0  0  0
  139.7196   66.5999  221.3371 H   0  0  0  0  0  0  0  0  0  0  0  0
  139.5506   68.8125  221.7296 H   0  0  0  0  0  0  0  0  0  0  0  0
  137.7749   68.6651  222.0738 H   0  0  0  0  0  0  0  0  0  0  0  0
  140.7361   71.5520  225.4839 H   0  0  0  0  0  0  0  0  0  0  0  0
  141.6944   71.5852  227.7663 H   0  0  0  0  0  0  0  0  0  0  0  0
  141.2099   69.7466  229.3690 H   0  0  0  0  0  0  0  0  0  0  0  0
  139.7545   67.8891  228.6306 H   0  0  0  0  0  0  0  0  0  0  0  0
  138.7871   67.8439  226.3545 H   0  0  0  0  0  0  0  0  0  0  0  0
  138.7299   71.6856  224.7891 H   0  0  0  0  0  0  0  0  0  0  0  0
  140.5910   71.7220  223.3578 H   0  0  0  0  0  0  0  0  0  0  0  0
  139.6424   70.8721  222.0567 H   0  0  0  0  0  0  0  0  0  0  0  0
  139.5096   73.6863  223.0201 H   0  0  0  0  0  0  0  0  0  0  0  0
  139.4871   72.9699  221.3380 H   0  0  0  0  0  0  0  0  0  0  0  0
  138.2465   75.5550  223.0682 H   0  0  0  0  0  0  0  0  0  0  0  0
  136.1730   76.6400  223.4420 H   0  0  0  0  0  0  0  0  0  0  0  0
  135.6520   76.2810  221.8490 H   0  0  0  0  0  0  0  0  0  0  0  0
  137.8612   75.3046  220.1806 H   0  0  0  0  0  0  0  0  0  0  0  0
  138.2653   77.5381  219.5625 H   0  0  0  0  0  0  0  0  0  0  0  0
  137.1470   77.8025  220.8882 H   0  0  0  0  0  0  0  0  0  0  0  0
  138.6166   80.0839  221.3725 H   0  0  0  0  0  0  0  0  0  0  0  0
  139.8159   81.8560  222.3642 H   0  0  0  0  0  0  0  0  0  0  0  0
  141.7743   82.6871  223.6498 H   0  0  0  0  0  0  0  0  0  0  0  0
  143.5033   81.0414  224.4054 H   0  0  0  0  0  0  0  0  0  0  0  0
  143.2554   78.6564  223.8841 H   0  0  0  0  0  0  0  0  0  0  0  0
  142.0128   76.8194  222.8512 H   0  0  0  0  0  0  0  0  0  0  0  0
  140.3011   75.4318  220.4154 H   0  0  0  0  0  0  0  0  0  0  0  0
  139.9279   74.9215  222.0467 H   0  0  0  0  0  0  0  0  0  0  0  0
  135.8529   71.9701  222.2520 H   0  0  0  0  0  0  0  0  0  0  0  0
  137.2137   71.1501  221.4247 H   0  0  0  0  0  0  0  0  0  0  0  0
  136.6443   71.4377  224.3672 H   0  0  0  0  0  0  0  0  0  0  0  0
  136.9501   69.9439  223.3497 H   0  0  0  0  0  0  0  0  0  0  0  0
  1  2  1  0
  2  3  1  0
  3  4  2  0
  3  5  1  0
  5  6  1  0
  6  7  2  0
  7  8  1  0
  8  9  2  0
  9 10  1  0
 10 11  2  0
  5 12  1  0
 12 13  1  0
 13 14  1  0
 14 15  1  0
 15 16  1  0
 16 17  2  0
 16 18  1  0
 18 19  1  0
 18 20  1  0
 20 21  1  0
 21 22  1  0
 22 23  2  0
 23 24  1  0
 24 25  2  0
 25 26  1  0
 26 27  2  0
 27 28  1  0
 28 29  2  0
 29 30  1  0
 30 31  2  0
 31 32  1  0
 15 33  1  0
 33 34  1  0
 11  6  1  0
 34 12  1  0
 32 20  1  0
 31 22  1  0
 29 24  1  0
  1 35  1  0
  1 36  1  0
  1 37  1  0
  2 38  1  0
  2 39  1  0
  7 40  1  0
  8 41  1  0
  9 42  1  0
 10 43  1  0
 11 44  1  0
 12 45  1  0
 13 46  1  0
 13 47  1  0
 14 48  1  0
 14 49  1  0
 18 50  1  1
 19 51  1  0
 19 52  1  0
 20 53  1  0
 21 54  1  0
 21 55  1  0
 23 56  1  0
 25 57  1  0
 26 58  1  0
 27 59  1  0
 28 60  1  0
 30 61  1  0
 32 62  1  0
 32 63  1  0
 33 64  1  0
 33 65  1  0
 34 66  1  0
 34 67  1  0
M  END
>  <smiles>  (11) 
CCC(=O)N(c1ccccc1)C1CCN(C(=O)[C@H](N)C2Cc3cc4ccccc4cc3C2)CC1

>  <score_type>  (11) 
oracle

>  <origin>  (11) 
autodockgpu

>  <m_score__min__energy>  (11) 
-8.8599999999999994

>  <m_primary>  (11) 
energy

>  <rmsd>  (11) 
8.184098181759156

>  <m_score__min__rmsd>  (11) 
8.184098181759156

>  <meeko>  (11) 
{"free_energy": -8.74, "intermolecular_energy": -10.82, "internal_energy": -1.94, "cluster_size": 7, "cluster_id": 1, "rank_in_cluster": 3}

>  <energy>  (11) 
-8.54

>  <cluster_rmsd>  (11) 
0.73

>  <cluster>  (11) 
2

$$$$

     RDKit          3D

 67 71  0  0  0  0  0  0  0  0999 V2000
  138.8090   75.6640  220.8940 C   0  0  0  0  0  0  0  0  0  0  0  0
  139.8710   75.4300  221.9600 C   0  0  0  0  0  0  0  0  0  0  0  0
  140.9510   74.5710  221.4760 C   0  0  0  0  0  0  0  0  0  0  0  0
  141.0570   73.4340  222.0590 O   0  0  0  0  0  0  0  0  0  0  0  0
  141.8780   74.8420  220.4620 N   0  0  0  0  0  0  0  0  0  0  0  0
  143.0320   73.9820  220.3550 C   0  0  0  0  0  0  0  0  0  0  0  0
  142.9110   72.7030  219.8120 C   0  0  0  0  0  0  0  0  0  0  0  0
  144.0170   71.8630  219.6730 C   0  0  0  0  0  0  0  0  0  0  0  0
  145.2680   72.2710  220.0710 C   0  0  0  0  0  0  0  0  0  0  0  0
  145.3890   73.5250  220.6050 C   0  0  0  0  0  0  0  0  0  0  0  0
  144.2860   74.3730  220.7460 C   0  0  0  0  0  0  0  0  0  0  0  0
  141.8030   75.9230  219.5070 C   0  0  0  0  0  0  0  0  0  0  0  0
  142.9710   76.8770  219.6120 C   0  0  0  0  0  0  0  0  0  0  0  0
  142.9150   77.9700  218.5980 C   0  0  0  0  0  0  0  0  0  0  0  0
  142.3140   77.5750  217.3550 N   0  0  0  0  0  0  0  0  0  0  0  0
  141.7550   78.4350  216.3860 C   0  0  0  0  0  0  0  0  0  0  0  0
  141.2390   77.9370  215.3200 O   0  0  0  0  0  0  0  0  0  0  0  0
  141.7040   79.9080  216.4740 C   0  0  2  0  0  0  0  0  0  0  0  0
  142.8590   80.4250  217.2220 N   0  0  0  0  0  0  0  0  0  0  0  0
  140.4740   80.4670  217.1010 C   0  0  0  0  0  0  0  0  0  0  0  0
  139.7880   79.4860  218.0310 C   0  0  0  0  0  0  0  0  0  0  0  0
  140.4730   79.7060  219.3360 C   0  0  0  0  0  0  0  0  0  0  0  0
  140.4760   78.8630  220.4300 C   0  0  0  0  0  0  0  0  0  0  0  0
  141.1540   79.2070  221.5750 C   0  0  0  0  0  0  0  0  0  0  0  0
  141.1390   78.3560  222.6540 C   0  0  0  0  0  0  0  0  0  0  0  0
  141.8070   78.6860  223.8080 C   0  0  0  0  0  0  0  0  0  0  0  0
  142.4910   79.8980  223.8510 C   0  0  0  0  0  0  0  0  0  0  0  0
  142.4910   80.7340  222.7560 C   0  0  0  0  0  0  0  0  0  0  0  0
  141.8270   80.4260  221.5830 C   0  0  0  0  0  0  0  0  0  0  0  0
  141.8120   81.2520  220.4830 C   0  0  0  0  0  0  0  0  0  0  0  0
  141.1330   80.9210  219.3130 C   0  0  0  0  0  0  0  0  0  0  0  0
  140.9350   81.6030  218.0100 C   0  0  0  0  0  0  0  0  0  0  0  0
  142.2940   76.1400  217.0580 C   0  0  0  0  0  0  0  0  0  0  0  0
  141.5180   75.4430  218.1150 C   0  0  0  0  0  0  0  0  0  0  0  0
  137.8443   75.8766  221.3779 H   0  0  0  0  0  0  0  0  0  0  0  0
  139.1010   76.5193  220.2670 H   0  0  0  0  0  0  0  0  0  0  0  0
  138.7145   74.7651  220.2670 H   0  0  0  0  0  0  0  0  0  0  0  0
  140.2951   76.4002  222.2582 H   0  0  0  0  0  0  0  0  0  0  0  0
  139.3921   74.9269  222.8130 H   0  0  0  0  0  0  0  0  0  0  0  0
  141.9220   72.3484  219.4861 H   0  0  0  0  0  0  0  0  0  0  0  0
  143.8858   70.8608  219.2390 H   0  0  0  0  0  0  0  0  0  0  0  0
  146.1420   71.6118  219.9638 H   0  0  0  0  0  0  0  0  0  0  0  0
  146.3793   73.8750  220.9317 H   0  0  0  0  0  0  0  0  0  0  0  0
  144.4277   75.3740  221.1795 H   0  0  0  0  0  0  0  0  0  0  0  0
  140.9257   76.5278  219.7801 H   0  0  0  0  0  0  0  0  0  0  0  0
  142.9682   77.3275  220.6155 H   0  0  0  0  0  0  0  0  0  0  0  0
  143.8890   76.2997  219.4277 H   0  0  0  0  0  0  0  0  0  0  0  0
  142.3308   78.8026  219.0170 H   0  0  0  0  0  0  0  0  0  0  0  0
  143.9538   78.2556  218.3760 H   0  0  0  0  0  0  0  0  0  0  0  0
  141.7107   80.2346  215.4236 H   0  0  0  0  0  0  0  0  0  0  0  0
  143.3240   81.2210  216.7280 H   0  0  0  0  0  0  0  0  0  0  0  0
  143.5330   79.6300  217.3320 H   0  0  0  0  0  0  0  0  0  0  0  0
  139.7827   80.7517  216.2942 H   0  0  0  0  0  0  0  0  0  0  0  0
  138.7129   79.7049  218.1096 H   0  0  0  0  0  0  0  0  0  0  0  0
  139.8563   78.4452  217.6816 H   0  0  0  0  0  0  0  0  0  0  0  0
  139.9313   77.9084  220.3846 H   0  0  0  0  0  0  0  0  0  0  0  0
  140.5890   77.4053  222.5932 H   0  0  0  0  0  0  0  0  0  0  0  0
  141.8017   78.0101  224.6758 H   0  0  0  0  0  0  0  0  0  0  0  0
  143.0334   80.1891  224.7626 H   0  0  0  0  0  0  0  0  0  0  0  0
  143.0412   81.6845  222.8173 H   0  0  0  0  0  0  0  0  0  0  0  0
  142.3553   82.2073  220.5292 H   0  0  0  0  0  0  0  0  0  0  0  0
  140.1668   82.3867  218.0856 H   0  0  0  0  0  0  0  0  0  0  0  0
  141.8376   82.1146  217.6444 H   0  0  0  0  0  0  0  0  0  0  0  0
  141.8201   75.9716  216.0797 H   0  0  0  0  0  0  0  0  0  0  0  0
  143.3221   75.7498  217.0306 H   0  0  0  0  0  0  0  0  0  0  0  0
  140.4473   75.5922  217.9115 H   0  0  0  0  0  0  0  0  0  0  0  0
  141.8163   74.3848  218.0791 H   0  0  0  0  0  0  0  0  0  0  0  0
  1  2  1  0
  2  3  1  0
  3  4  2  0
  3  5  1  0
  5  6  1  0
  6  7  2  0
  7  8  1  0
  8  9  2  0
  9 10  1  0
 10 11  2  0
  5 12  1  0
 12 13  1  0
 13 14  1  0
 14 15  1  0
 15 16  1  0
 16 17  2  0
 16 18  1  0
 18 19  1  0
 18 20  1  0
 20 21  1  0
 21 22  1  0
 22 23  2  0
 23 24  1  0
 24 25  2  0
 25 26  1  0
 26 27  2  0
 27 28  1  0
 28 29  2  0
 29 30  1  0
 30 31  2  0
 31 32  1  0
 15 33  1  0
 33 34  1  0
 11  6  1  0
 34 12  1  0
 32 20  1  0
 31 22  1  0
 29 24  1  0
  1 35  1  0
  1 36  1  0
  1 37  1  0
  2 38  1  0
  2 39  1  0
  7 40  1  0
  8 41  1  0
  9 42  1  0
 10 43  1  0
 11 44  1  0
 12 45  1  0
 13 46  1  0
 13 47  1  0
 14 48  1  0
 14 49  1  0
 18 50  1  6
 19 51  1  0
 19 52  1  0
 20 53  1  0
 21 54  1  0
 21 55  1  0
 23 56  1  0
 25 57  1  0
 26 58  1  0
 27 59  1  0
 28 60  1  0
 30 61  1  0
 32 62  1  0
 32 63  1  0
 33 64  1  0
 33 65  1  0
 34 66  1  0
 34 67  1  0
M  END
>  <smiles>  (12) 
CCC(=O)N(c1ccccc1)C1CCN(C(=O)[C@H](N)C2Cc3cc4ccccc4cc3C2)CC1

>  <score_type>  (12) 
oracle

>  <origin>  (12) 
autodockgpu

>  <m_score__min__energy>  (12) 
-8.8599999999999994

>  <m_primary>  (12) 
energy

>  <rmsd>  (12) 
10.793736728883497

>  <m_score__min__rmsd>  (12) 
10.793736728883497

>  <meeko>  (12) 
{"free_energy": -7.83, "intermolecular_energy": -9.92, "internal_energy": -2.75, "cluster_size": 3, "cluster_id": 7, "rank_in_cluster": 1}

>  <energy>  (12) 
-8.29

>  <cluster_rmsd>  (12) 
1.82

>  <cluster>  (12) 
2

$$$$

     RDKit          3D

 67 71  0  0  0  0  0  0  0  0999 V2000
  142.5640   79.4830  217.8440 C   0  0  0  0  0  0  0  0  0  0  0  0
  141.5290   80.3480  218.5520 C   0  0  0  0  0  0  0  0  0  0  0  0
  140.4440   79.5480  219.1180 C   0  0  0  0  0  0  0  0  0  0  0  0
  139.3500   79.5460  218.4490 O   0  0  0  0  0  0  0  0  0  0  0  0
  140.4560   78.7920  220.2970 N   0  0  0  0  0  0  0  0  0  0  0  0
  140.9620   79.4170  221.4960 C   0  0  0  0  0  0  0  0  0  0  0  0
  140.1840   80.3420  222.1910 C   0  0  0  0  0  0  0  0  0  0  0  0
  140.6400   80.9400  223.3660 C   0  0  0  0  0  0  0  0  0  0  0  0
  141.8790   80.6350  223.8790 C   0  0  0  0  0  0  0  0  0  0  0  0
  142.6440   79.7280  223.1980 C   0  0  0  0  0  0  0  0  0  0  0  0
  142.1930   79.1230  222.0200 C   0  0  0  0  0  0  0  0  0  0  0  0
  140.0200   77.4210  220.4330 C   0  0  0  0  0  0  0  0  0  0  0  0
  141.1570   76.4320  220.3050 C   0  0  0  0  0  0  0  0  0  0  0  0
  140.7140   75.0180  220.4870 C   0  0  0  0  0  0  0  0  0  0  0  0
  139.6230   74.8690  221.4090 N   0  0  0  0  0  0  0  0  0  0  0  0
  138.7370   73.7740  221.4850 C   0  0  0  0  0  0  0  0  0  0  0  0
  137.7950   73.7820  222.3590 O   0  0  0  0  0  0  0  0  0  0  0  0
  138.7860   72.5710  220.6310 C   0  0  2  0  0  0  0  0  0  0  0  0
  137.6550   71.6790  220.9230 N   0  0  0  0  0  0  0  0  0  0  0  0
  140.0340   71.7640  220.7350 C   0  0  0  0  0  0  0  0  0  0  0  0
  140.9640   72.2560  221.8260 C   0  0  0  0  0  0  0  0  0  0  0  0
  140.4810   71.5440  223.0420 C   0  0  0  0  0  0  0  0  0  0  0  0
  140.7480   71.8640  224.3590 C   0  0  0  0  0  0  0  0  0  0  0  0
  140.2320   71.1030  225.3810 C   0  0  0  0  0  0  0  0  0  0  0  0
  140.5150   71.4370  226.6840 C   0  0  0  0  0  0  0  0  0  0  0  0
  140.0120   70.6850  227.7180 C   0  0  0  0  0  0  0  0  0  0  0  0
  139.2180   69.5850  227.4080 C   0  0  0  0  0  0  0  0  0  0  0  0
  138.9490   69.2700  226.0940 C   0  0  0  0  0  0  0  0  0  0  0  0
  139.4420   70.0110  225.0350 C   0  0  0  0  0  0  0  0  0  0  0  0
  139.1890   69.7070  223.7170 C   0  0  0  0  0  0  0  0  0  0  0  0
  139.7000   70.4660  222.6670 C   0  0  0  0  0  0  0  0  0  0  0  0
  139.6080   70.3720  221.1890 C   0  0  0  0  0  0  0  0  0  0  0  0
  139.4220   75.9520  222.3750 C   0  0  0  0  0  0  0  0  0  0  0  0
  139.1480   77.2100  221.6340 C   0  0  0  0  0  0  0  0  0  0  0  0
  143.1829   78.9657  218.5919 H   0  0  0  0  0  0  0  0  0  0  0  0
  142.0522   78.7402  217.2144 H   0  0  0  0  0  0  0  0  0  0  0  0
  143.2042   80.1185  217.2144 H   0  0  0  0  0  0  0  0  0  0  0  0
  142.0236   80.9013  219.3639 H   0  0  0  0  0  0  0  0  0  0  0  0
  141.0947   81.0349  217.8107 H   0  0  0  0  0  0  0  0  0  0  0  0
  139.1887   80.6061  221.8043 H   0  0  0  0  0  0  0  0  0  0  0  0
  139.9998   81.6654  223.8893 H   0  0  0  0  0  0  0  0  0  0  0  0
  142.2425   81.1042  224.8051 H   0  0  0  0  0  0  0  0  0  0  0  0
  143.6395   79.4677  223.5868 H   0  0  0  0  0  0  0  0  0  0  0  0
  142.8393   78.3973  221.5047 H   0  0  0  0  0  0  0  0  0  0  0  0
  139.3680   77.2081  219.5730 H   0  0  0  0  0  0  0  0  0  0  0  0
  141.6022   76.5353  219.3044 H   0  0  0  0  0  0  0  0  0  0  0  0
  141.8841   76.6572  221.0991 H   0  0  0  0  0  0  0  0  0  0  0  0
  140.3988   74.6242  219.5094 H   0  0  0  0  0  0  0  0  0  0  0  0
  141.5674   74.4652  220.9067 H   0  0  0  0  0  0  0  0  0  0  0  0
  138.7438   72.9738  219.6083 H   0  0  0  0  0  0  0  0  0  0  0  0
  136.7710   71.9990  220.4640 H   0  0  0  0  0  0  0  0  0  0  0  0
  137.5320   71.6700  221.9640 H   0  0  0  0  0  0  0  0  0  0  0  0
  140.5496   71.8117  219.7645 H   0  0  0  0  0  0  0  0  0  0  0  0
  142.0076   71.9894  221.6028 H   0  0  0  0  0  0  0  0  0  0  0  0
  140.9526   73.3503  221.9374 H   0  0  0  0  0  0  0  0  0  0  0  0
  141.3786   72.7347  224.5918 H   0  0  0  0  0  0  0  0  0  0  0  0
  141.1474   72.3108  226.9000 H   0  0  0  0  0  0  0  0  0  0  0  0
  140.2312   70.9457  228.7639 H   0  0  0  0  0  0  0  0  0  0  0  0
  138.8032   68.9641  228.2158 H   0  0  0  0  0  0  0  0  0  0  0  0
  138.3177   68.3953  225.8786 H   0  0  0  0  0  0  0  0  0  0  0  0
  138.5613   68.8341  223.4846 H   0  0  0  0  0  0  0  0  0  0  0  0
  140.2891   69.6019  220.7978 H   0  0  0  0  0  0  0  0  0  0  0  0
  138.6080   70.0845  220.8322 H   0  0  0  0  0  0  0  0  0  0  0  0
  138.5681   75.7130  223.0260 H   0  0  0  0  0  0  0  0  0  0  0  0
  140.3229   76.0720  222.9946 H   0  0  0  0  0  0  0  0  0  0  0  0
  138.1001   77.1918  221.3000 H   0  0  0  0  0  0  0  0  0  0  0  0
  139.3614   78.0369  222.3274 H   0  0  0  0  0  0  0  0  0  0  0  0
  1  2  1  0
  2  3  1  0
  3  4  2  0
  3  5  1  0
  5  6  1  0
  6  7  2  0
  7  8  1  0
  8  9  2  0
  9 10  1  0
 10 11  2  0
  5 12  1  0
 12 13  1  0
 13 14  1  0
 14 15  1  0
 15 16  1  0
 16 17  2  0
 16 18  1  0
 18 19  1  0
 18 20  1  0
 20 21  1  0
 21 22  1  0
 22 23  2  0
 23 24  1  0
 24 25  2  0
 25 26  1  0
 26 27  2  0
 27 28  1  0
 28 29  2  0
 29 30  1  0
 30 31  2  0
 31 32  1  0
 15 33  1  0
 33 34  1  0
 11  6  1  0
 34 12  1  0
 32 20  1  0
 31 22  1  0
 29 24  1  0
  1 35  1  0
  1 36  1  0
  1 37  1  0
  2 38  1  0
  2 39  1  0
  7 40  1  0
  8 41  1  0
  9 42  1  0
 10 43  1  0
 11 44  1  0
 12 45  1  0
 13 46  1  0
 13 47  1  0
 14 48  1  0
 14 49  1  0
 18 50  1  6
 19 51  1  0
 19 52  1  0
 20 53  1  0
 21 54  1  0
 21 55  1  0
 23 56  1  0
 25 57  1  0
 26 58  1  0
 27 59  1  0
 28 60  1  0
 30 61  1  0
 32 62  1  0
 32 63  1  0
 33 64  1  0
 33 65  1  0
 34 66  1  0
 34 67  1  0
M  END
>  <smiles>  (13) 
CCC(=O)N(c1ccccc1)C1CCN(C(=O)[C@H](N)C2Cc3cc4ccccc4cc3C2)CC1

>  <score_type>  (13) 
oracle

>  <origin>  (13) 
autodockgpu

>  <m_score__min__energy>  (13) 
-8.8599999999999994

>  <m_primary>  (13) 
energy

>  <rmsd>  (13) 
3.7612261997394367

>  <m_score__min__rmsd>  (13) 
3.7612261997394367

>  <meeko>  (13) 
{"free_energy": -7.45, "intermolecular_energy": -9.53, "internal_energy": -2.59, "cluster_size": 8, "cluster_id": 3, "rank_in_cluster": 8}

>  <energy>  (13) 
-8.7

>  <cluster_rmsd>  (13) 
0.0

>  <cluster>  (13) 
3

$$$$

     RDKit          3D

 67 71  0  0  0  0  0  0  0  0999 V2000
  137.7060   67.8690  221.7870 C   0  0  0  0  0  0  0  0  0  0  0  0
  137.4080   68.5040  223.1390 C   0  0  0  0  0  0  0  0  0  0  0  0
  138.6030   68.5950  223.9750 C   0  0  0  0  0  0  0  0  0  0  0  0
  139.1970   67.4850  224.2160 O   0  0  0  0  0  0  0  0  0  0  0  0
  139.1710   69.7420  224.5440 N   0  0  0  0  0  0  0  0  0  0  0  0
  139.7680   69.6230  225.8530 C   0  0  0  0  0  0  0  0  0  0  0  0
  140.4760   70.6900  226.4060 C   0  0  0  0  0  0  0  0  0  0  0  0
  141.0400   70.6080  227.6790 C   0  0  0  0  0  0  0  0  0  0  0  0
  140.9160   69.4650  228.4340 C   0  0  0  0  0  0  0  0  0  0  0  0
  140.2230   68.4170  227.8930 C   0  0  0  0  0  0  0  0  0  0  0  0
  139.6530   68.4920  226.6180 C   0  0  0  0  0  0  0  0  0  0  0  0
  139.2050   71.0590  223.9510 C   0  0  0  0  0  0  0  0  0  0  0  0
  140.3210   71.2160  222.9430 C   0  0  0  0  0  0  0  0  0  0  0  0
  140.3310   72.5630  222.2990 C   0  0  0  0  0  0  0  0  0  0  0  0
  139.0240   73.1370  222.1420 N   0  0  0  0  0  0  0  0  0  0  0  0
  138.7290   74.5050  221.9630 C   0  0  0  0  0  0  0  0  0  0  0  0
  137.5050   74.8780  221.8470 O   0  0  0  0  0  0  0  0  0  0  0  0
  139.7220   75.5940  221.8890 C   0  0  2  0  0  0  0  0  0  0  0  0
  139.2340   76.7920  222.5870 N   0  0  0  0  0  0  0  0  0  0  0  0
  140.1190   76.0040  220.5130 C   0  0  0  0  0  0  0  0  0  0  0  0
  141.5470   76.5060  220.4360 C   0  0  0  0  0  0  0  0  0  0  0  0
  142.3420   75.2650  220.2240 C   0  0  0  0  0  0  0  0  0  0  0  0
  143.7000   75.1000  220.4120 C   0  0  0  0  0  0  0  0  0  0  0  0
  144.2970   73.8860  220.1670 C   0  0  0  0  0  0  0  0  0  0  0  0
  145.6510   73.7460  220.3570 C   0  0  0  0  0  0  0  0  0  0  0  0
  146.2660   72.5420  220.1120 C   0  0  0  0  0  0  0  0  0  0  0  0
  145.4820   71.4800  219.6700 C   0  0  0  0  0  0  0  0  0  0  0  0
  144.1270   71.6450  219.4880 C   0  0  0  0  0  0  0  0  0  0  0  0
  143.4840   72.8460  219.7260 C   0  0  0  0  0  0  0  0  0  0  0  0
  142.1330   73.0300  219.5440 C   0  0  0  0  0  0  0  0  0  0  0  0
  141.5090   74.2500  219.7880 C   0  0  0  0  0  0  0  0  0  0  0  0
  140.1100   74.7330  219.6690 C   0  0  0  0  0  0  0  0  0  0  0  0
  137.8890   72.2100  222.1540 C   0  0  0  0  0  0  0  0  0  0  0  0
  137.8600   71.5050  223.4600 C   0  0  0  0  0  0  0  0  0  0  0  0
  138.1688   66.8828  221.9391 H   0  0  0  0  0  0  0  0  0  0  0  0
  136.7691   67.7513  221.2227 H   0  0  0  0  0  0  0  0  0  0  0  0
  138.3953   68.5144  221.2227 H   0  0  0  0  0  0  0  0  0  0  0  0
  137.0103   69.5166  222.9761 H   0  0  0  0  0  0  0  0  0  0  0  0
  136.6762   67.8687  223.6594 H   0  0  0  0  0  0  0  0  0  0  0  0
  140.5921   71.6169  225.8251 H   0  0  0  0  0  0  0  0  0  0  0  0
  141.5914   71.4691  228.0846 H   0  0  0  0  0  0  0  0  0  0  0  0
  141.3590   69.3960  229.4385 H   0  0  0  0  0  0  0  0  0  0  0  0
  140.1111   67.4910  228.4760 H   0  0  0  0  0  0  0  0  0  0  0  0
  139.1018   67.6265  226.2217 H   0  0  0  0  0  0  0  0  0  0  0  0
  139.4568   71.7639  224.7571 H   0  0  0  0  0  0  0  0  0  0  0  0
  141.2822   71.0640  223.4558 H   0  0  0  0  0  0  0  0  0  0  0  0
  140.1601   70.4702  222.1506 H   0  0  0  0  0  0  0  0  0  0  0  0
  140.9356   73.2404  222.9199 H   0  0  0  0  0  0  0  0  0  0  0  0
  140.7490   72.4339  221.2897 H   0  0  0  0  0  0  0  0  0  0  0  0
  140.6145   75.1683  222.3709 H   0  0  0  0  0  0  0  0  0  0  0  0
  138.2210   76.7190  222.8350 H   0  0  0  0  0  0  0  0  0  0  0  0
  139.3860   77.6050  221.9450 H   0  0  0  0  0  0  0  0  0  0  0  0
  139.4334   76.7995  220.1857 H   0  0  0  0  0  0  0  0  0  0  0  0
  141.6738   77.2026  219.5942 H   0  0  0  0  0  0  0  0  0  0  0  0
  141.8539   77.0627  221.3337 H   0  0  0  0  0  0  0  0  0  0  0  0
  144.3092   75.9469  220.7607 H   0  0  0  0  0  0  0  0  0  0  0  0
  146.2456   74.6026  220.7071 H   0  0  0  0  0  0  0  0  0  0  0  0
  147.3491   72.4205  220.2612 H   0  0  0  0  0  0  0  0  0  0  0  0
  145.9470   70.5044  219.4651 H   0  0  0  0  0  0  0  0  0  0  0  0
  143.5326   70.7876  219.1395 H   0  0  0  0  0  0  0  0  0  0  0  0
  141.5245   72.1834  219.1934 H   0  0  0  0  0  0  0  0  0  0  0  0
  139.8548   74.9542  218.6221 H   0  0  0  0  0  0  0  0  0  0  0  0
  139.3646   73.9951  220.0004 H   0  0  0  0  0  0  0  0  0  0  0  0
  136.9526   72.7704  222.0157 H   0  0  0  0  0  0  0  0  0  0  0  0
  137.9944   71.4801  221.3379 H   0  0  0  0  0  0  0  0  0  0  0  0
  137.4281   72.1850  224.2090 H   0  0  0  0  0  0  0  0  0  0  0  0
  137.2607   70.5944  223.3130 H   0  0  0  0  0  0  0  0  0  0  0  0
  1  2  1  0
  2  3  1  0
  3  4  2  0
  3  5  1  0
  5  6  1  0
  6  7  2  0
  7  8  1  0
  8  9  2  0
  9 10  1  0
 10 11  2  0
  5 12  1  0
 12 13  1  0
 13 14  1  0
 14 15  1  0
 15 16  1  0
 16 17  2  0
 16 18  1  0
 18 19  1  0
 18 20  1  0
 20 21  1  0
 21 22  1  0
 22 23  2  0
 23 24  1  0
 24 25  2  0
 25 26  1  0
 26 27  2  0
 27 28  1  0
 28 29  2  0
 29 30  1  0
 30 31  2  0
 31 32  1  0
 15 33  1  0
 33 34  1  0
 11  6  1  0
 34 12  1  0
 32 20  1  0
 31 22  1  0
 29 24  1  0
  1 35  1  0
  1 36  1  0
  1 37  1  0
  2 38  1  0
  2 39  1  0
  7 40  1  0
  8 41  1  0
  9 42  1  0
 10 43  1  0
 11 44  1  0
 12 45  1  0
 13 46  1  0
 13 47  1  0
 14 48  1  0
 14 49  1  0
 18 50  1  1
 19 51  1  0
 19 52  1  0
 20 53  1  0
 21 54  1  0
 21 55  1  0
 23 56  1  0
 25 57  1  0
 26 58  1  0
 27 59  1  0
 28 60  1  0
 30 61  1  0
 32 62  1  0
 32 63  1  0
 33 64  1  0
 33 65  1  0
 34 66  1  0
 34 67  1  0
M  END
>  <smiles>  (14) 
CCC(=O)N(c1ccccc1)C1CCN(C(=O)[C@H](N)C2Cc3cc4ccccc4cc3C2)CC1

>  <score_type>  (14) 
oracle

>  <origin>  (14) 
autodockgpu

>  <m_score__min__energy>  (14) 
-8.8599999999999994

>  <m_primary>  (14) 
energy

>  <rmsd>  (14) 
7.416583130569323

>  <m_score__min__rmsd>  (14) 
7.416583130569323

>  <meeko>  (14) 
{"free_energy": -8.16, "intermolecular_energy": -10.24, "internal_energy": -2.34, "cluster_size": 21, "cluster_id": 5, "rank_in_cluster": 2}

>  <energy>  (14) 
-8.65

>  <cluster_rmsd>  (14) 
1.29

>  <cluster>  (14) 
3

$$$$

     RDKit          3D

 67 71  0  0  0  0  0  0  0  0999 V2000
  136.7730   76.5280  222.9960 C   0  0  0  0  0  0  0  0  0  0  0  0
  137.1210   77.9740  222.6670 C   0  0  0  0  0  0  0  0  0  0  0  0
  138.2530   78.0670  221.7470 C   0  0  0  0  0  0  0  0  0  0  0  0
  138.0410   78.7360  220.6740 O   0  0  0  0  0  0  0  0  0  0  0  0
  139.5310   77.5140  221.8960 N   0  0  0  0  0  0  0  0  0  0  0  0
  140.6220   78.4070  222.2040 C   0  0  0  0  0  0  0  0  0  0  0  0
  141.1600   79.2320  221.2170 C   0  0  0  0  0  0  0  0  0  0  0  0
  142.1970   80.1230  221.4970 C   0  0  0  0  0  0  0  0  0  0  0  0
  142.7260   80.2150  222.7630 C   0  0  0  0  0  0  0  0  0  0  0  0
  142.2000   79.4070  223.7330 C   0  0  0  0  0  0  0  0  0  0  0  0
  141.1600   78.5130  223.4610 C   0  0  0  0  0  0  0  0  0  0  0  0
  139.8760   76.1190  221.7530 C   0  0  0  0  0  0  0  0  0  0  0  0
  139.0450   75.4170  220.7030 C   0  0  0  0  0  0  0  0  0  0  0  0
  139.4290   73.9850  220.5260 C   0  0  0  0  0  0  0  0  0  0  0  0
  140.8260   73.7320  220.7430 N   0  0  0  0  0  0  0  0  0  0  0  0
  141.4110   72.4850  221.0500 C   0  0  0  0  0  0  0  0  0  0  0  0
  142.6810   72.4090  221.2290 O   0  0  0  0  0  0  0  0  0  0  0  0
  140.6840   71.2080  221.1900 C   0  0  2  0  0  0  0  0  0  0  0  0
  140.5160   70.5590  219.8820 N   0  0  0  0  0  0  0  0  0  0  0  0
  139.3380   71.3050  221.8220 C   0  0  0  0  0  0  0  0  0  0  0  0
  138.8670   69.9910  222.4110 C   0  0  0  0  0  0  0  0  0  0  0  0
  139.4400   69.9990  223.7850 C   0  0  0  0  0  0  0  0  0  0  0  0
  139.6020   68.9190  224.6300 C   0  0  0  0  0  0  0  0  0  0  0  0
  140.1450   69.0850  225.8820 C   0  0  0  0  0  0  0  0  0  0  0  0
  140.2910   67.9970  226.7080 C   0  0  0  0  0  0  0  0  0  0  0  0
  140.8270   68.1450  227.9640 C   0  0  0  0  0  0  0  0  0  0  0  0
  141.2130   69.4200  228.3700 C   0  0  0  0  0  0  0  0  0  0  0  0
  141.0560   70.4960  227.5240 C   0  0  0  0  0  0  0  0  0  0  0  0
  140.5190   70.3730  226.2550 C   0  0  0  0  0  0  0  0  0  0  0  0
  140.3500   71.4370  225.4000 C   0  0  0  0  0  0  0  0  0  0  0  0
  139.8030   71.2900  224.1280 C   0  0  0  0  0  0  0  0  0  0  0  0
  139.4960   72.2320  223.0240 C   0  0  0  0  0  0  0  0  0  0  0  0
  141.7330   74.8760  220.6150 C   0  0  0  0  0  0  0  0  0  0  0  0
  141.3540   75.9010  221.6200 C   0  0  0  0  0  0  0  0  0  0  0  0
  136.7416   76.3977  224.0878 H   0  0  0  0  0  0  0  0  0  0  0  0
  135.7898   76.2812  222.5689 H   0  0  0  0  0  0  0  0  0  0  0  0
  137.5362   75.8609  222.5689 H   0  0  0  0  0  0  0  0  0  0  0  0
  136.2461   78.4537  222.2039 H   0  0  0  0  0  0  0  0  0  0  0  0
  137.4008   78.4786  223.6035 H   0  0  0  0  0  0  0  0  0  0  0  0
  140.7579   79.1794  220.1945 H   0  0  0  0  0  0  0  0  0  0  0  0
  142.5966   80.7602  220.6943 H   0  0  0  0  0  0  0  0  0  0  0  0
  143.5444   80.9147  222.9879 H   0  0  0  0  0  0  0  0  0  0  0  0
  142.6058   79.4619  224.7539 H   0  0  0  0  0  0  0  0  0  0  0  0
  140.7655   77.8822  224.2712 H   0  0  0  0  0  0  0  0  0  0  0  0
  139.6040   75.6267  222.6983 H   0  0  0  0  0  0  0  0  0  0  0  0
  137.9875   75.4632  221.0024 H   0  0  0  0  0  0  0  0  0  0  0  0
  139.2195   75.9284  219.7449 H   0  0  0  0  0  0  0  0  0  0  0  0
  138.8512   73.3795  221.2398 H   0  0  0  0  0  0  0  0  0  0  0  0
  139.2125   73.7204  219.4805 H   0  0  0  0  0  0  0  0  0  0  0  0
  141.3184   70.6176  221.8674 H   0  0  0  0  0  0  0  0  0  0  0  0
  140.5010   69.5160  219.9580 H   0  0  0  0  0  0  0  0  0  0  0  0
  141.3220   70.8610  219.2840 H   0  0  0  0  0  0  0  0  0  0  0  0
  138.6259   71.6375  221.0523 H   0  0  0  0  0  0  0  0  0  0  0  0
  137.7684   69.9464  222.4437 H   0  0  0  0  0  0  0  0  0  0  0  0
  139.1844   69.1191  221.8202 H   0  0  0  0  0  0  0  0  0  0  0  0
  139.2937   67.9165  224.2983 H   0  0  0  0  0  0  0  0  0  0  0  0
  139.9768   67.0014  226.3615 H   0  0  0  0  0  0  0  0  0  0  0  0
  140.9482   67.2792  228.6316 H   0  0  0  0  0  0  0  0  0  0  0  0
  141.6452   69.5686  229.3706 H   0  0  0  0  0  0  0  0  0  0  0  0
  141.3698   71.4915  227.8710 H   0  0  0  0  0  0  0  0  0  0  0  0
  140.6578   72.4393  225.7327 H   0  0  0  0  0  0  0  0  0  0  0  0
  138.5663   72.7854  223.2224 H   0  0  0  0  0  0  0  0  0  0  0  0
  140.2685   73.0020  222.8813 H   0  0  0  0  0  0  0  0  0  0  0  0
  142.7681   74.5489  220.7926 H   0  0  0  0  0  0  0  0  0  0  0  0
  141.6599   75.2999  219.6026 H   0  0  0  0  0  0  0  0  0  0  0  0
  141.7449   75.5850  222.5984 H   0  0  0  0  0  0  0  0  0  0  0  0
  141.7829   76.8535  221.2752 H   0  0  0  0  0  0  0  0  0  0  0  0
  1  2  1  0
  2  3  1  0
  3  4  2  0
  3  5  1  0
  5  6  1  0
  6  7  2  0
  7  8  1  0
  8  9  2  0
  9 10  1  0
 10 11  2  0
  5 12  1  0
 12 13  1  0
 13 14  1  0
 14 15  1  0
 15 16  1  0
 16 17  2  0
 16 18  1  0
 18 19  1  0
 18 20  1  0
 20 21  1  0
 21 22  1  0
 22 23  2  0
 23 24  1  0
 24 25  2  0
 25 26  1  0
 26 27  2  0
 27 28  1  0
 28 29  2  0
 29 30  1  0
 30 31  2  0
 31 32  1  0
 15 33  1  0
 33 34  1  0
 11  6  1  0
 34 12  1  0
 32 20  1  0
 31 22  1  0
 29 24  1  0
  1 35  1  0
  1 36  1  0
  1 37  1  0
  2 38  1  0
  2 39  1  0
  7 40  1  0
  8 41  1  0
  9 42  1  0
 10 43  1  0
 11 44  1  0
 12 45  1  0
 13 46  1  0
 13 47  1  0
 14 48  1  0
 14 49  1  0
 18 50  1  1
 19 51  1  0
 19 52  1  0
 20 53  1  0
 21 54  1  0
 21 55  1  0
 23 56  1  0
 25 57  1  0
 26 58  1  0
 27 59  1  0
 28 60  1  0
 30 61  1  0
 32 62  1  0
 32 63  1  0
 33 64  1  0
 33 65  1  0
 34 66  1  0
 34 67  1  0
M  END
>  <smiles>  (15) 
CCC(=O)N(c1ccccc1)C1CCN(C(=O)[C@H](N)C2Cc3cc4ccccc4cc3C2)CC1

>  <score_type>  (15) 
oracle

>  <origin>  (15) 
autodockgpu

>  <m_score__min__energy>  (15) 
-8.8599999999999994

>  <m_primary>  (15) 
energy

>  <rmsd>  (15) 
2.648107941034607

>  <m_score__min__rmsd>  (15) 
2.648107941034607

>  <meeko>  (15) 
{"free_energy": -8.54, "intermolecular_energy": -10.63, "internal_energy": -1.75, "cluster_size": 5, "cluster_id": 2, "rank_in_cluster": 4}

>  <energy>  (15) 
-8.16

>  <cluster_rmsd>  (15) 
1.29

>  <cluster>  (15) 
3

$$$$

     RDKit          3D

 67 71  0  0  0  0  0  0  0  0999 V2000
  138.8760   66.7570  222.6640 C   0  0  0  0  0  0  0  0  0  0  0  0
  138.8660   68.2650  222.4560 C   0  0  0  0  0  0  0  0  0  0  0  0
  138.5350   68.9840  223.6860 C   0  0  0  0  0  0  0  0  0  0  0  0
  137.5200   68.5400  224.3310 O   0  0  0  0  0  0  0  0  0  0  0  0
  139.1870   70.0940  224.2360 N   0  0  0  0  0  0  0  0  0  0  0  0
  139.8410   69.9290  225.5130 C   0  0  0  0  0  0  0  0  0  0  0  0
  140.3520   71.0350  226.1910 C   0  0  0  0  0  0  0  0  0  0  0  0
  140.9650   70.9050  227.4390 C   0  0  0  0  0  0  0  0  0  0  0  0
  141.0860   69.6750  228.0410 C   0  0  0  0  0  0  0  0  0  0  0  0
  140.5850   68.5890  227.3760 C   0  0  0  0  0  0  0  0  0  0  0  0
  139.9690   68.7110  226.1270 C   0  0  0  0  0  0  0  0  0  0  0  0
  139.2600   71.4140  223.6540 C   0  0  0  0  0  0  0  0  0  0  0  0
  140.4250   71.5690  222.7020 C   0  0  0  0  0  0  0  0  0  0  0  0
  140.4760   72.9200  222.0690 C   0  0  0  0  0  0  0  0  0  0  0  0
  139.1820   73.5050  221.8520 N   0  0  0  0  0  0  0  0  0  0  0  0
  138.9060   74.8760  221.6680 C   0  0  0  0  0  0  0  0  0  0  0  0
  137.6920   75.2590  221.4940 O   0  0  0  0  0  0  0  0  0  0  0  0
  139.9100   75.9580  221.6500 C   0  0  2  0  0  0  0  0  0  0  0  0
  139.3890   77.1620  222.3110 N   0  0  0  0  0  0  0  0  0  0  0  0
  140.3920   76.3590  220.2980 C   0  0  0  0  0  0  0  0  0  0  0  0
  141.8500   76.7710  220.2910 C   0  0  0  0  0  0  0  0  0  0  0  0
  142.5750   75.4850  220.0950 C   0  0  0  0  0  0  0  0  0  0  0  0
  143.9110   75.2330  220.3410 C   0  0  0  0  0  0  0  0  0  0  0  0
  144.4420   73.9880  220.1050 C   0  0  0  0  0  0  0  0  0  0  0  0
  145.7750   73.7610  220.3510 C   0  0  0  0  0  0  0  0  0  0  0  0
  146.3240   72.5240  220.1160 C   0  0  0  0  0  0  0  0  0  0  0  0
  145.4970   71.5180  219.6250 C   0  0  0  0  0  0  0  0  0  0  0  0
  144.1640   71.7700  219.3860 C   0  0  0  0  0  0  0  0  0  0  0  0
  143.5870   73.0060  219.6140 C   0  0  0  0  0  0  0  0  0  0  0  0
  142.2590   73.2760  219.3750 C   0  0  0  0  0  0  0  0  0  0  0  0
  141.7010   74.5300  219.6090 C   0  0  0  0  0  0  0  0  0  0  0  0
  140.3420   75.1000  219.4360 C   0  0  0  0  0  0  0  0  0  0  0  0
  138.0420   72.5860  221.8020 C   0  0  0  0  0  0  0  0  0  0  0  0
  137.9440   71.8730  223.1010 C   0  0  0  0  0  0  0  0  0  0  0  0
  138.8775   66.5355  223.7415 H   0  0  0  0  0  0  0  0  0  0  0  0
  137.9808   66.3170  222.2004 H   0  0  0  0  0  0  0  0  0  0  0  0
  139.7770   66.3289  222.2004 H   0  0  0  0  0  0  0  0  0  0  0  0
  139.8622   68.5834  222.1153 H   0  0  0  0  0  0  0  0  0  0  0  0
  138.0961   68.5002  221.7064 H   0  0  0  0  0  0  0  0  0  0  0  0
  140.2705   72.0317  225.7328 H   0  0  0  0  0  0  0  0  0  0  0  0
  141.3563   71.7987  227.9471 H   0  0  0  0  0  0  0  0  0  0  0  0
  141.5689   69.5675  229.0235 H   0  0  0  0  0  0  0  0  0  0  0  0
  140.6692   67.5936  227.8365 H   0  0  0  0  0  0  0  0  0  0  0  0
  139.5795   67.8116  225.6275 H   0  0  0  0  0  0  0  0  0  0  0  0
  139.4781   72.1116  224.4760 H   0  0  0  0  0  0  0  0  0  0  0  0
  141.3591   71.4061  223.2595 H   0  0  0  0  0  0  0  0  0  0  0  0
  140.2972   70.8298  221.8975 H   0  0  0  0  0  0  0  0  0  0  0  0
  141.0541   73.5887  222.7237 H   0  0  0  0  0  0  0  0  0  0  0  0
  140.9421   72.7946  221.0805 H   0  0  0  0  0  0  0  0  0  0  0  0
  140.7686   75.5287  222.1871 H   0  0  0  0  0  0  0  0  0  0  0  0
  138.3620   77.0960  222.5000 H   0  0  0  0  0  0  0  0  0  0  0  0
  139.5820   77.9710  221.6740 H   0  0  0  0  0  0  0  0  0  0  0  0
  139.7721   77.1994  219.9524 H   0  0  0  0  0  0  0  0  0  0  0  0
  142.0573   77.4686  219.4662 H   0  0  0  0  0  0  0  0  0  0  0  0
  142.1507   77.2961  221.2096 H   0  0  0  0  0  0  0  0  0  0  0  0
  144.5550   76.0359  220.7291 H   0  0  0  0  0  0  0  0  0  0  0  0
  146.4059   74.5746  220.7383 H   0  0  0  0  0  0  0  0  0  0  0  0
  147.3897   72.3334  220.3108 H   0  0  0  0  0  0  0  0  0  0  0  0
  145.9095   70.5177  219.4270 H   0  0  0  0  0  0  0  0  0  0  0  0
  143.5336   70.9561  218.9985 H   0  0  0  0  0  0  0  0  0  0  0  0
  141.6158   72.4731  218.9855 H   0  0  0  0  0  0  0  0  0  0  0  0
  140.1476   75.3486  218.3822 H   0  0  0  0  0  0  0  0  0  0  0  0
  139.5385   74.4062  219.7241 H   0  0  0  0  0  0  0  0  0  0  0  0
  137.1173   73.1537  221.6213 H   0  0  0  0  0  0  0  0  0  0  0  0
  138.1827   71.8604  220.9873 H   0  0  0  0  0  0  0  0  0  0  0  0
  137.4809   72.5517  223.8324 H   0  0  0  0  0  0  0  0  0  0  0  0
  137.3459   70.9679  222.9191 H   0  0  0  0  0  0  0  0  0  0  0  0
  1  2  1  0
  2  3  1  0
  3  4  2  0
  3  5  1  0
  5  6  1  0
  6  7  2  0
  7  8  1  0
  8  9  2  0
  9 10  1  0
 10 11  2  0
  5 12  1  0
 12 13  1  0
 13 14  1  0
 14 15  1  0
 15 16  1  0
 16 17  2  0
 16 18  1  0
 18 19  1  0
 18 20  1  0
 20 21  1  0
 21 22  1  0
 22 23  2  0
 23 24  1  0
 24 25  2  0
 25 26  1  0
 26 27  2  0
 27 28  1  0
 28 29  2  0
 29 30  1  0
 30 31  2  0
 31 32  1  0
 15 33  1  0
 33 34  1  0
 11  6  1  0
 34 12  1  0
 32 20  1  0
 31 22  1  0
 29 24  1  0
  1 35  1  0
  1 36  1  0
  1 37  1  0
  2 38  1  0
  2 39  1  0
  7 40  1  0
  8 41  1  0
  9 42  1  0
 10 43  1  0
 11 44  1  0
 12 45  1  0
 13 46  1  0
 13 47  1  0
 14 48  1  0
 14 49  1  0
 18 50  1  1
 19 51  1  0
 19 52  1  0
 20 53  1  0
 21 54  1  0
 21 55  1  0
 23 56  1  0
 25 57  1  0
 26 58  1  0
 27 59  1  0
 28 60  1  0
 30 61  1  0
 32 62  1  0
 32 63  1  0
 33 64  1  0
 33 65  1  0
 34 66  1  0
 34 67  1  0
M  END
>  <smiles>  (16) 
CCC(=O)N(c1ccccc1)C1CCN(C(=O)[C@H](N)C2Cc3cc4ccccc4cc3C2)CC1

>  <score_type>  (16) 
oracle

>  <origin>  (16) 
autodockgpu

>  <m_score__min__energy>  (16) 
-8.8599999999999994

>  <m_primary>  (16) 
energy

>  <rmsd>  (16) 
7.6379064622206965

>  <m_score__min__rmsd>  (16) 
7.6379064622206965

>  <meeko>  (16) 
{"free_energy": -7.74, "intermolecular_energy": -9.83, "internal_energy": -2.65, "cluster_size": 21, "cluster_id": 5, "rank_in_cluster": 11}

>  <energy>  (16) 
-7.97

>  <cluster_rmsd>  (16) 
1.17

>  <cluster>  (16) 
3

$$$$

     RDKit          3D

 67 71  0  0  0  0  0  0  0  0999 V2000
  143.3270   76.4460  218.8360 C   0  0  0  0  0  0  0  0  0  0  0  0
  142.6900   77.7020  218.2600 C   0  0  0  0  0  0  0  0  0  0  0  0
  142.0740   78.5280  219.2980 C   0  0  0  0  0  0  0  0  0  0  0  0
  142.2300   79.7930  219.1650 O   0  0  0  0  0  0  0  0  0  0  0  0
  141.3430   78.1040  220.4150 N   0  0  0  0  0  0  0  0  0  0  0  0
  141.3110   78.9690  221.5700 C   0  0  0  0  0  0  0  0  0  0  0  0
  142.4170   79.0590  222.4140 C   0  0  0  0  0  0  0  0  0  0  0  0
  142.4200   79.9080  223.5220 C   0  0  0  0  0  0  0  0  0  0  0  0
  141.3260   80.6860  223.8190 C   0  0  0  0  0  0  0  0  0  0  0  0
  140.2390   80.5970  222.9920 C   0  0  0  0  0  0  0  0  0  0  0  0
  140.2290   79.7510  221.8790 C   0  0  0  0  0  0  0  0  0  0  0  0
  140.6180   76.8600  220.5350 C   0  0  0  0  0  0  0  0  0  0  0  0
  140.2310   76.5450  221.9620 C   0  0  0  0  0  0  0  0  0  0  0  0
  139.4470   75.2810  222.0810 C   0  0  0  0  0  0  0  0  0  0  0  0
  138.6080   75.0130  220.9470 N   0  0  0  0  0  0  0  0  0  0  0  0
  138.0830   73.7580  220.5740 C   0  0  0  0  0  0  0  0  0  0  0  0
  137.3520   73.6640  219.5210 O   0  0  0  0  0  0  0  0  0  0  0  0
  138.2940   72.4900  221.3010 C   0  0  2  0  0  0  0  0  0  0  0  0
  137.9420   72.6390  222.7190 N   0  0  0  0  0  0  0  0  0  0  0  0
  139.6760   71.9380  221.2340 C   0  0  0  0  0  0  0  0  0  0  0  0
  140.5880   72.5030  222.3050 C   0  0  0  0  0  0  0  0  0  0  0  0
  140.3560   71.6040  223.4700 C   0  0  0  0  0  0  0  0  0  0  0  0
  140.6710   71.8510  224.7920 C   0  0  0  0  0  0  0  0  0  0  0  0
  140.4000   70.9160  225.7610 C   0  0  0  0  0  0  0  0  0  0  0  0
  140.7260   71.1800  227.0700 C   0  0  0  0  0  0  0  0  0  0  0  0
  140.4670   70.2550  228.0520 C   0  0  0  0  0  0  0  0  0  0  0  0
  139.8700   69.0530  227.6830 C   0  0  0  0  0  0  0  0  0  0  0  0
  139.5520   68.8100  226.3650 C   0  0  0  0  0  0  0  0  0  0  0  0
  139.8030   69.7250  225.3580 C   0  0  0  0  0  0  0  0  0  0  0  0
  139.4970   69.4970  224.0360 C   0  0  0  0  0  0  0  0  0  0  0  0
  139.7620   70.4310  223.0390 C   0  0  0  0  0  0  0  0  0  0  0  0
  139.5610   70.4540  221.5690 C   0  0  0  0  0  0  0  0  0  0  0  0
  138.2500   76.1570  220.1040 C   0  0  0  0  0  0  0  0  0  0  0  0
  139.4940   76.7510  219.5500 C   0  0  0  0  0  0  0  0  0  0  0  0
  143.3029   76.4935  219.9347 H   0  0  0  0  0  0  0  0  0  0  0  0
  142.7683   75.5620  218.4949 H   0  0  0  0  0  0  0  0  0  0  0  0
  144.3703   76.3745  218.4949 H   0  0  0  0  0  0  0  0  0  0  0  0
  143.4658   78.2921  217.7501 H   0  0  0  0  0  0  0  0  0  0  0  0
  141.9011   77.3925  217.5587 H   0  0  0  0  0  0  0  0  0  0  0  0
  143.3066   78.4477  222.2022 H   0  0  0  0  0  0  0  0  0  0  0  0
  143.3101   79.9552  224.1666 H   0  0  0  0  0  0  0  0  0  0  0  0
  141.3244   81.3566  224.6909 H   0  0  0  0  0  0  0  0  0  0  0  0
  139.3498   81.2072  223.2088 H   0  0  0  0  0  0  0  0  0  0  0  0
  139.3352   79.7124  221.2389 H   0  0  0  0  0  0  0  0  0  0  0  0
  141.3158   76.0576  220.2533 H   0  0  0  0  0  0  0  0  0  0  0  0
  141.1479   76.4481  222.5620 H   0  0  0  0  0  0  0  0  0  0  0  0
  139.5937   77.3661  222.3222 H   0  0  0  0  0  0  0  0  0  0  0  0
  140.1521   74.4447  222.1966 H   0  0  0  0  0  0  0  0  0  0  0  0
  138.7841   75.3947  222.9514 H   0  0  0  0  0  0  0  0  0  0  0  0
  137.6351   71.7774  220.7833 H   0  0  0  0  0  0  0  0  0  0  0  0
  136.9140   72.5380  222.8840 H   0  0  0  0  0  0  0  0  0  0  0  0
  138.2580   73.5930  223.0160 H   0  0  0  0  0  0  0  0  0  0  0  0
  140.0866   72.1726  220.2408 H   0  0  0  0  0  0  0  0  0  0  0  0
  141.6397   72.4676  221.9845 H   0  0  0  0  0  0  0  0  0  0  0  0
  140.3799   73.5592  222.5311 H   0  0  0  0  0  0  0  0  0  0  0  0
  141.1429   72.8046  225.0712 H   0  0  0  0  0  0  0  0  0  0  0  0
  141.1975   72.1384  227.3330 H   0  0  0  0  0  0  0  0  0  0  0  0
  140.7245   70.4588  229.1018 H   0  0  0  0  0  0  0  0  0  0  0  0
  139.6510   68.2933  228.4478 H   0  0  0  0  0  0  0  0  0  0  0  0
  139.0803   67.8515  226.1029 H   0  0  0  0  0  0  0  0  0  0  0  0
  139.0262   68.5427  223.7574 H   0  0  0  0  0  0  0  0  0  0  0  0
  140.3382   69.8704  221.0539 H   0  0  0  0  0  0  0  0  0  0  0  0
  138.6055   70.0096  221.2536 H   0  0  0  0  0  0  0  0  0  0  0  0
  137.6021   75.8213  219.2809 H   0  0  0  0  0  0  0  0  0  0  0  0
  137.7112   76.9073  220.7012 H   0  0  0  0  0  0  0  0  0  0  0  0
  139.8309   76.1243  218.7111 H   0  0  0  0  0  0  0  0  0  0  0  0
  139.2433   77.7774  219.2438 H   0  0  0  0  0  0  0  0  0  0  0  0
  1  2  1  0
  2  3  1  0
  3  4  2  0
  3  5  1  0
  5  6  1  0
  6  7  2  0
  7  8  1  0
  8  9  2  0
  9 10  1  0
 10 11  2  0
  5 12  1  0
 12 13  1  0
 13 14  1  0
 14 15  1  0
 15 16  1  0
 16 17  2  0
 16 18  1  0
 18 19  1  0
 18 20  1  0
 20 21  1  0
 21 22  1  0
 22 23  2  0
 23 24  1  0
 24 25  2  0
 25 26  1  0
 26 27  2  0
 27 28  1  0
 28 29  2  0
 29 30  1  0
 30 31  2  0
 31 32  1  0
 15 33  1  0
 33 34  1  0
 11  6  1  0
 34 12  1  0
 32 20  1  0
 31 22  1  0
 29 24  1  0
  1 35  1  0
  1 36  1  0
  1 37  1  0
  2 38  1  0
  2 39  1  0
  7 40  1  0
  8 41  1  0
  9 42  1  0
 10 43  1  0
 11 44  1  0
 12 45  1  0
 13 46  1  0
 13 47  1  0
 14 48  1  0
 14 49  1  0
 18 50  1  6
 19 51  1  0
 19 52  1  0
 20 53  1  0
 21 54  1  0
 21 55  1  0
 23 56  1  0
 25 57  1  0
 26 58  1  0
 27 59  1  0
 28 60  1  0
 30 61  1  0
 32 62  1  0
 32 63  1  0
 33 64  1  0
 33 65  1  0
 34 66  1  0
 34 67  1  0
M  END
>  <smiles>  (17) 
CCC(=O)N(c1ccccc1)C1CCN(C(=O)[C@H](N)C2Cc3cc4ccccc4cc3C2)CC1

>  <score_type>  (17) 
oracle

>  <origin>  (17) 
autodockgpu

>  <m_score__min__energy>  (17) 
-8.8599999999999994

>  <m_primary>  (17) 
energy

>  <rmsd>  (17) 
3.5097391632976596

>  <m_score__min__rmsd>  (17) 
3.5097391632976596

>  <meeko>  (17) 
{"free_energy": -8.7, "intermolecular_energy": -10.78, "internal_energy": -1.43, "cluster_size": 8, "cluster_id": 3, "rank_in_cluster": 1}

>  <energy>  (17) 
-7.68

>  <cluster_rmsd>  (17) 
1.56

>  <cluster>  (17) 
3

$$$$

     RDKit          3D

 67 71  0  0  0  0  0  0  0  0999 V2000
  136.5740   69.8260  224.6230 C   0  0  0  0  0  0  0  0  0  0  0  0
  137.3750   68.8770  223.7410 C   0  0  0  0  0  0  0  0  0  0  0  0
  138.7310   69.3670  223.5020 C   0  0  0  0  0  0  0  0  0  0  0  0
  139.4400   68.6660  222.6960 O   0  0  0  0  0  0  0  0  0  0  0  0
  139.3460   70.5020  224.0470 N   0  0  0  0  0  0  0  0  0  0  0  0
  139.9380   70.3860  225.3580 C   0  0  0  0  0  0  0  0  0  0  0  0
  140.4830   71.5040  225.9880 C   0  0  0  0  0  0  0  0  0  0  0  0
  141.0380   71.4220  227.2660 C   0  0  0  0  0  0  0  0  0  0  0  0
  141.0650   70.2290  227.9490 C   0  0  0  0  0  0  0  0  0  0  0  0
  140.5310   69.1310  227.3320 C   0  0  0  0  0  0  0  0  0  0  0  0
  139.9720   69.2050  226.0530 C   0  0  0  0  0  0  0  0  0  0  0  0
  139.4330   71.8030  223.4260 C   0  0  0  0  0  0  0  0  0  0  0  0
  140.6920   71.9740  222.6050 C   0  0  0  0  0  0  0  0  0  0  0  0
  140.7630   73.3040  221.9300 C   0  0  0  0  0  0  0  0  0  0  0  0
  139.4810   73.8270  221.5490 N   0  0  0  0  0  0  0  0  0  0  0  0
  139.1750   75.1780  221.2820 C   0  0  0  0  0  0  0  0  0  0  0  0
  137.9750   75.5040  220.9600 O   0  0  0  0  0  0  0  0  0  0  0  0
  140.1340   76.3000  221.3340 C   0  0  2  0  0  0  0  0  0  0  0  0
  139.5030   77.4960  221.9090 N   0  0  0  0  0  0  0  0  0  0  0  0
  140.7320   76.6900  220.0260 C   0  0  0  0  0  0  0  0  0  0  0  0
  142.2180   76.9710  220.1190 C   0  0  0  0  0  0  0  0  0  0  0  0
  142.8400   75.6310  219.9300 C   0  0  0  0  0  0  0  0  0  0  0  0
  144.1310   75.2560  220.2470 C   0  0  0  0  0  0  0  0  0  0  0  0
  144.5650   73.9750  220.0060 C   0  0  0  0  0  0  0  0  0  0  0  0
  145.8550   73.6250  220.3260 C   0  0  0  0  0  0  0  0  0  0  0  0
  146.3090   72.3500  220.0870 C   0  0  0  0  0  0  0  0  0  0  0  0
  145.4300   71.4330  219.5180 C   0  0  0  0  0  0  0  0  0  0  0  0
  144.1410   71.8080  219.2060 C   0  0  0  0  0  0  0  0  0  0  0  0
  143.6600   73.0850  219.4360 C   0  0  0  0  0  0  0  0  0  0  0  0
  142.3780   73.4770  219.1260 C   0  0  0  0  0  0  0  0  0  0  0  0
  141.9180   74.7690  219.3630 C   0  0  0  0  0  0  0  0  0  0  0  0
  140.6270   75.4620  219.1260 C   0  0  0  0  0  0  0  0  0  0  0  0
  138.3880   72.8610  221.4070 C   0  0  0  0  0  0  0  0  0  0  0  0
  138.1720   72.1880  222.7130 C   0  0  0  0  0  0  0  0  0  0  0  0
  136.7685   69.5955  225.6808 H   0  0  0  0  0  0  0  0  0  0  0  0
  136.8739   70.8632  224.4126 H   0  0  0  0  0  0  0  0  0  0  0  0
  135.5012   69.7046  224.4126 H   0  0  0  0  0  0  0  0  0  0  0  0
  137.4335   67.8962  224.2357 H   0  0  0  0  0  0  0  0  0  0  0  0
  136.8640   68.8021  222.7698 H   0  0  0  0  0  0  0  0  0  0  0  0
  140.4754   72.4723  225.4662 H   0  0  0  0  0  0  0  0  0  0  0  0
  141.4596   72.3242  227.7332 H   0  0  0  0  0  0  0  0  0  0  0  0
  141.5009   70.1598  228.9566 H   0  0  0  0  0  0  0  0  0  0  0  0
  140.5418   68.1641  227.8564 H   0  0  0  0  0  0  0  0  0  0  0  0
  139.5511   68.2977  225.5952 H   0  0  0  0  0  0  0  0  0  0  0  0
  139.5288   72.5371  224.2396 H   0  0  0  0  0  0  0  0  0  0  0  0
  141.5624   71.8696  223.2694 H   0  0  0  0  0  0  0  0  0  0  0  0
  140.6846   71.2030  221.8205 H   0  0  0  0  0  0  0  0  0  0  0  0
  141.2387   74.0179  222.6185 H   0  0  0  0  0  0  0  0  0  0  0  0
  141.3412   73.1645  221.0047 H   0  0  0  0  0  0  0  0  0  0  0  0
  140.9515   75.9187  221.9635 H   0  0  0  0  0  0  0  0  0  0  0  0
  138.4610   77.4160  221.9430 H   0  0  0  0  0  0  0  0  0  0  0  0
  139.7780   78.3080  221.3060 H   0  0  0  0  0  0  0  0  0  0  0  0
  140.2102   77.5902  219.6690 H   0  0  0  0  0  0  0  0  0  0  0  0
  142.5364   77.6668  219.3288 H   0  0  0  0  0  0  0  0  0  0  0  0
  142.5048   77.4453  221.0692 H   0  0  0  0  0  0  0  0  0  0  0  0
  144.8173   75.9890  220.6961 H   0  0  0  0  0  0  0  0  0  0  0  0
  146.5280   74.3697  220.7760 H   0  0  0  0  0  0  0  0  0  0  0  0
  147.3403   72.0617  220.3389 H   0  0  0  0  0  0  0  0  0  0  0  0
  145.7654   70.4049  219.3166 H   0  0  0  0  0  0  0  0  0  0  0  0
  143.4681   71.0629  218.7565 H   0  0  0  0  0  0  0  0  0  0  0  0
  141.6930   72.7438  218.6753 H   0  0  0  0  0  0  0  0  0  0  0  0
  140.5212   75.7524  218.0703 H   0  0  0  0  0  0  0  0  0  0  0  0
  139.7498   74.8354  219.3450 H   0  0  0  0  0  0  0  0  0  0  0  0
  137.4690   73.3843  221.1042 H   0  0  0  0  0  0  0  0  0  0  0  0
  138.6452   72.1155  220.6402 H   0  0  0  0  0  0  0  0  0  0  0  0
  137.6041   72.8706  223.3623 H   0  0  0  0  0  0  0  0  0  0  0  0
  137.6334   71.2529  222.4996 H   0  0  0  0  0  0  0  0  0  0  0  0
  1  2  1  0
  2  3  1  0
  3  4  2  0
  3  5  1  0
  5  6  1  0
  6  7  2  0
  7  8  1  0
  8  9  2  0
  9 10  1  0
 10 11  2  0
  5 12  1  0
 12 13  1  0
 13 14  1  0
 14 15  1  0
 15 16  1  0
 16 17  2  0
 16 18  1  0
 18 19  1  0
 18 20  1  0
 20 21  1  0
 21 22  1  0
 22 23  2  0
 23 24  1  0
 24 25  2  0
 25 26  1  0
 26 27  2  0
 27 28  1  0
 28 29  2  0
 29 30  1  0
 30 31  2  0
 31 32  1  0
 15 33  1  0
 33 34  1  0
 11  6  1  0
 34 12  1  0
 32 20  1  0
 31 22  1  0
 29 24  1  0
  1 35  1  0
  1 36  1  0
  1 37  1  0
  2 38  1  0
  2 39  1  0
  7 40  1  0
  8 41  1  0
  9 42  1  0
 10 43  1  0
 11 44  1  0
 12 45  1  0
 13 46  1  0
 13 47  1  0
 14 48  1  0
 14 49  1  0
 18 50  1  1
 19 51  1  0
 19 52  1  0
 20 53  1  0
 21 54  1  0
 21 55  1  0
 23 56  1  0
 25 57  1  0
 26 58  1  0
 27 59  1  0
 28 60  1  0
 30 61  1  0
 32 62  1  0
 32 63  1  0
 33 64  1  0
 33 65  1  0
 34 66  1  0
 34 67  1  0
M  END
>  <smiles>  (18) 
CCC(=O)N(c1ccccc1)C1CCN(C(=O)[C@H](N)C2Cc3cc4ccccc4cc3C2)CC1

>  <score_type>  (18) 
oracle

>  <origin>  (18) 
autodockgpu

>  <m_score__min__energy>  (18) 
-8.8599999999999994

>  <m_primary>  (18) 
energy

>  <rmsd>  (18) 
7.867383766727317

>  <m_score__min__rmsd>  (18) 
7.867383766727317

>  <meeko>  (18) 
{"free_energy": -7.38, "intermolecular_energy": -9.46, "internal_energy": -2.79, "cluster_size": 21, "cluster_id": 5, "rank_in_cluster": 21}

>  <energy>  (18) 
-7.66

>  <cluster_rmsd>  (18) 
1.59

>  <cluster>  (18) 
3

$$$$

     RDKit          3D

 67 71  0  0  0  0  0  0  0  0999 V2000
  136.4330   67.6880  221.9320 C   0  0  0  0  0  0  0  0  0  0  0  0
  137.8200   68.0850  222.4190 C   0  0  0  0  0  0  0  0  0  0  0  0
  137.7600   68.9270  223.6120 C   0  0  0  0  0  0  0  0  0  0  0  0
  136.6520   68.8970  224.2570 O   0  0  0  0  0  0  0  0  0  0  0  0
  138.7600   69.7600  224.1290 N   0  0  0  0  0  0  0  0  0  0  0  0
  139.4090   69.3570  225.3540 C   0  0  0  0  0  0  0  0  0  0  0  0
  139.5200   68.0070  225.6820 C   0  0  0  0  0  0  0  0  0  0  0  0
  140.1660   67.5910  226.8470 C   0  0  0  0  0  0  0  0  0  0  0  0
  140.7160   68.5050  227.7140 C   0  0  0  0  0  0  0  0  0  0  0  0
  140.6070   69.8310  227.3950 C   0  0  0  0  0  0  0  0  0  0  0  0
  139.9630   70.2560  226.2280 C   0  0  0  0  0  0  0  0  0  0  0  0
  139.2040   71.0110  223.5590 C   0  0  0  0  0  0  0  0  0  0  0  0
  140.3120   70.8310  222.5470 C   0  0  0  0  0  0  0  0  0  0  0  0
  140.7430   72.1190  221.9280 C   0  0  0  0  0  0  0  0  0  0  0  0
  139.6820   73.0770  221.7910 N   0  0  0  0  0  0  0  0  0  0  0  0
  139.8290   74.4710  221.6380 C   0  0  0  0  0  0  0  0  0  0  0  0
  138.7840   75.2110  221.5370 O   0  0  0  0  0  0  0  0  0  0  0  0
  141.1140   75.1960  221.5780 C   0  0  2  0  0  0  0  0  0  0  0  0
  141.0440   76.4450  222.3480 N   0  0  0  0  0  0  0  0  0  0  0  0
  141.5900   75.5370  220.2080 C   0  0  0  0  0  0  0  0  0  0  0  0
  143.1010   75.5120  220.0850 C   0  0  0  0  0  0  0  0  0  0  0  0
  143.4010   74.0890  219.7640 C   0  0  0  0  0  0  0  0  0  0  0  0
  144.6190   73.4480  219.8730 C   0  0  0  0  0  0  0  0  0  0  0  0
  144.7430   72.1220  219.5310 C   0  0  0  0  0  0  0  0  0  0  0  0
  145.9660   71.5050  219.6430 C   0  0  0  0  0  0  0  0  0  0  0  0
  146.1110   70.1820  219.3010 C   0  0  0  0  0  0  0  0  0  0  0  0
  144.9910   69.4940  218.8410 C   0  0  0  0  0  0  0  0  0  0  0  0
  143.7760   70.1350  218.7380 C   0  0  0  0  0  0  0  0  0  0  0  0
  143.6040   71.4650  219.0750 C   0  0  0  0  0  0  0  0  0  0  0  0
  142.4000   72.1220  218.9730 C   0  0  0  0  0  0  0  0  0  0  0  0
  142.2520   73.4630  219.3160 C   0  0  0  0  0  0  0  0  0  0  0  0
  141.1110   74.4110  219.2960 C   0  0  0  0  0  0  0  0  0  0  0  0
  138.3140   72.5520  221.7930 C   0  0  0  0  0  0  0  0  0  0  0  0
  138.0660   71.8650  223.0860 C   0  0  0  0  0  0  0  0  0  0  0  0
  135.7801   67.5011  222.7974 H   0  0  0  0  0  0  0  0  0  0  0  0
  136.0113   68.5015  221.3234 H   0  0  0  0  0  0  0  0  0  0  0  0
  136.5056   66.7746  221.3234 H   0  0  0  0  0  0  0  0  0  0  0  0
  138.3879   67.1732  222.6558 H   0  0  0  0  0  0  0  0  0  0  0  0
  138.3091   68.6615  221.6200 H   0  0  0  0  0  0  0  0  0  0  0  0
  139.0888   67.2526  225.0076 H   0  0  0  0  0  0  0  0  0  0  0  0
  140.2360   66.5171  227.0746 H   0  0  0  0  0  0  0  0  0  0  0  0
  141.2264   68.1813  228.6331 H   0  0  0  0  0  0  0  0  0  0  0  0
  141.0368   70.5824  228.0737 H   0  0  0  0  0  0  0  0  0  0  0  0
  139.9000   71.3319  226.0076 H   0  0  0  0  0  0  0  0  0  0  0  0
  139.6649   71.5857  224.3759 H   0  0  0  0  0  0  0  0  0  0  0  0
  141.1776   70.3757  223.0504 H   0  0  0  0  0  0  0  0  0  0  0  0
  139.9250   70.1891  221.7419 H   0  0  0  0  0  0  0  0  0  0  0  0
  141.5303   72.5603  222.5569 H   0  0  0  0  0  0  0  0  0  0  0  0
  141.0981   71.8852  220.9135 H   0  0  0  0  0  0  0  0  0  0  0  0
  141.8366   74.4858  222.0063 H   0  0  0  0  0  0  0  0  0  0  0  0
  140.1240   76.9290  222.2330 H   0  0  0  0  0  0  0  0  0  0  0  0
  141.8170   77.0630  222.0030 H   0  0  0  0  0  0  0  0  0  0  0  0
  141.2185   76.5426  219.9617 H   0  0  0  0  0  0  0  0  0  0  0  0
  143.4407   76.1771  219.2774 H   0  0  0  0  0  0  0  0  0  0  0  0
  143.6104   75.8622  220.9949 H   0  0  0  0  0  0  0  0  0  0  0  0
  145.4969   74.0024  220.2362 H   0  0  0  0  0  0  0  0  0  0  0  0
  146.8338   72.0735  220.0086 H   0  0  0  0  0  0  0  0  0  0  0  0
  147.0858   69.6798  219.3882 H   0  0  0  0  0  0  0  0  0  0  0  0
  145.0769   68.4343  218.5587 H   0  0  0  0  0  0  0  0  0  0  0  0
  142.9081   69.5662  218.3732 H   0  0  0  0  0  0  0  0  0  0  0  0
  141.5228   71.5681  218.6074 H   0  0  0  0  0  0  0  0  0  0  0  0
  140.9205   74.7801  218.2775 H   0  0  0  0  0  0  0  0  0  0  0  0
  140.1635   73.9586  219.6240 H   0  0  0  0  0  0  0  0  0  0  0  0
  137.6002   73.3801  221.6717 H   0  0  0  0  0  0  0  0  0  0  0  0
  138.1852   71.8424  220.9624 H   0  0  0  0  0  0  0  0  0  0  0  0
  137.8688   72.6307  223.8507 H   0  0  0  0  0  0  0  0  0  0  0  0
  137.2116   71.1909  222.9258 H   0  0  0  0  0  0  0  0  0  0  0  0
  1  2  1  0
  2  3  1  0
  3  4  2  0
  3  5  1  0
  5  6  1  0
  6  7  2  0
  7  8  1  0
  8  9  2  0
  9 10  1  0
 10 11  2  0
  5 12  1  0
 12 13  1  0
 13 14  1  0
 14 15  1  0
 15 16  1  0
 16 17  2  0
 16 18  1  0
 18 19  1  0
 18 20  1  0
 20 21  1  0
 21 22  1  0
 22 23  2  0
 23 24  1  0
 24 25  2  0
 25 26  1  0
 26 27  2  0
 27 28  1  0
 28 29  2  0
 29 30  1  0
 30 31  2  0
 31 32  1  0
 15 33  1  0
 33 34  1  0
 11  6  1  0
 34 12  1  0
 32 20  1  0
 31 22  1  0
 29 24  1  0
  1 35  1  0
  1 36  1  0
  1 37  1  0
  2 38  1  0
  2 39  1  0
  7 40  1  0
  8 41  1  0
  9 42  1  0
 10 43  1  0
 11 44  1  0
 12 45  1  0
 13 46  1  0
 13 47  1  0
 14 48  1  0
 14 49  1  0
 18 50  1  1
 19 51  1  0
 19 52  1  0
 20 53  1  0
 21 54  1  0
 21 55  1  0
 23 56  1  0
 25 57  1  0
 26 58  1  0
 27 59  1  0
 28 60  1  0
 30 61  1  0
 32 62  1  0
 32 63  1  0
 33 64  1  0
 33 65  1  0
 34 66  1  0
 34 67  1  0
M  END
>  <smiles>  (19) 
CCC(=O)N(c1ccccc1)C1CCN(C(=O)[C@H](N)C2Cc3cc4ccccc4cc3C2)CC1

>  <score_type>  (19) 
oracle

>  <origin>  (19) 
autodockgpu

>  <m_score__min__energy>  (19) 
-8.8599999999999994

>  <m_primary>  (19) 
energy

>  <rmsd>  (19) 
7.488698282428255

>  <m_score__min__rmsd>  (19) 
7.488698282428255

>  <meeko>  (19) 
{"free_energy": -7.51, "intermolecular_energy": -9.6, "internal_energy": -2.55, "cluster_size": 21, "cluster_id": 5, "rank_in_cluster": 19}

>  <energy>  (19) 
-7.54

>  <cluster_rmsd>  (19) 
1.22

>  <cluster>  (19) 
3

$$$$

     RDKit          3D

 67 71  0  0  0  0  0  0  0  0999 V2000
  139.1980   68.3030  221.4320 C   0  0  0  0  0  0  0  0  0  0  0  0
  138.4420   67.6540  222.5840 C   0  0  0  0  0  0  0  0  0  0  0  0
  137.7000   68.6360  223.3720 C   0  0  0  0  0  0  0  0  0  0  0  0
  136.4320   68.4560  223.4320 O   0  0  0  0  0  0  0  0  0  0  0  0
  138.2060   69.7450  224.0630 N   0  0  0  0  0  0  0  0  0  0  0  0
  139.1140   69.5030  225.1580 C   0  0  0  0  0  0  0  0  0  0  0  0
  139.1950   68.2390  225.7410 C   0  0  0  0  0  0  0  0  0  0  0  0
  140.0840   67.9720  226.7830 C   0  0  0  0  0  0  0  0  0  0  0  0
  140.9130   68.9540  227.2720 C   0  0  0  0  0  0  0  0  0  0  0  0
  140.8340   70.1960  226.7020 C   0  0  0  0  0  0  0  0  0  0  0  0
  139.9470   70.4700  225.6570 C   0  0  0  0  0  0  0  0  0  0  0  0
  137.8920   71.1300  223.7950 C   0  0  0  0  0  0  0  0  0  0  0  0
  138.6340   71.6750  222.5960 C   0  0  0  0  0  0  0  0  0  0  0  0
  138.2790   73.0930  222.2940 C   0  0  0  0  0  0  0  0  0  0  0  0
  136.9200   73.4290  222.6160 N   0  0  0  0  0  0  0  0  0  0  0  0
  136.4090   74.7250  222.8340 C   0  0  0  0  0  0  0  0  0  0  0  0
  135.1670   74.8750  223.1260 O   0  0  0  0  0  0  0  0  0  0  0  0
  137.1860   75.9780  222.7550 C   0  0  2  0  0  0  0  0  0  0  0  0
  136.3390   77.1370  223.0700 N   0  0  0  0  0  0  0  0  0  0  0  0
  137.8400   76.2410  221.4420 C   0  0  0  0  0  0  0  0  0  0  0  0
  137.8180   77.7070  221.0560 C   0  0  0  0  0  0  0  0  0  0  0  0
  139.0420   78.2560  221.7010 C   0  0  0  0  0  0  0  0  0  0  0  0
  139.3320   79.5830  221.9500 C   0  0  0  0  0  0  0  0  0  0  0  0
  140.5140   79.9400  222.5530 C   0  0  0  0  0  0  0  0  0  0  0  0
  140.7840   81.2670  222.7870 C   0  0  0  0  0  0  0  0  0  0  0  0
  141.9640   81.6420  223.3830 C   0  0  0  0  0  0  0  0  0  0  0  0
  142.8680   80.6460  223.7390 C   0  0  0  0  0  0  0  0  0  0  0  0
  142.5750   79.3210  223.4940 C   0  0  0  0  0  0  0  0  0  0  0  0
  141.3960   78.9180  222.8950 C   0  0  0  0  0  0  0  0  0  0  0  0
  141.0900   77.6020  222.6380 C   0  0  0  0  0  0  0  0  0  0  0  0
  139.8970   77.2200  222.0300 C   0  0  0  0  0  0  0  0  0  0  0  0
  139.3190   75.9140  221.6270 C   0  0  0  0  0  0  0  0  0  0  0  0
  135.9700   72.3180  222.7090 C   0  0  0  0  0  0  0  0  0  0  0  0
  136.4170   71.3950  223.7840 C   0  0  0  0  0  0  0  0  0  0  0  0
  139.9752   68.9702  221.8331 H   0  0  0  0  0  0  0  0  0  0  0  0
  139.6674   67.5223  220.8155 H   0  0  0  0  0  0  0  0  0  0  0  0
  138.4974   68.8852  220.8155 H   0  0  0  0  0  0  0  0  0  0  0  0
  137.7339   66.9183  222.1748 H   0  0  0  0  0  0  0  0  0  0  0  0
  139.1773   67.1722  223.2453 H   0  0  0  0  0  0  0  0  0  0  0  0
  138.5432   67.4338  225.3711 H   0  0  0  0  0  0  0  0  0  0  0  0
  140.1221   66.9628  227.2189 H   0  0  0  0  0  0  0  0  0  0  0  0
  141.6156   68.7486  228.0931 H   0  0  0  0  0  0  0  0  0  0  0  0
  141.4856   70.9994  227.0761 H   0  0  0  0  0  0  0  0  0  0  0  0
  139.9170   71.4819  225.2266 H   0  0  0  0  0  0  0  0  0  0  0  0
  138.2741   71.7126  224.6462 H   0  0  0  0  0  0  0  0  0  0  0  0
  139.7143   71.6175  222.7948 H   0  0  0  0  0  0  0  0  0  0  0  0
  138.3477   71.0682  221.7243 H   0  0  0  0  0  0  0  0  0  0  0  0
  138.9455   73.7488  222.8733 H   0  0  0  0  0  0  0  0  0  0  0  0
  138.3955   73.2295  221.2087 H   0  0  0  0  0  0  0  0  0  0  0  0
  137.9873   75.8374  223.4954 H   0  0  0  0  0  0  0  0  0  0  0  0
  135.6330   76.9200  223.8110 H   0  0  0  0  0  0  0  0  0  0  0  0
  135.8530   77.4120  222.1840 H   0  0  0  0  0  0  0  0  0  0  0  0
  137.3125   75.6518  220.6774 H   0  0  0  0  0  0  0  0  0  0  0  0
  137.8624   77.8264  219.9634 H   0  0  0  0  0  0  0  0  0  0  0  0
  136.8990   78.2200  221.3759 H   0  0  0  0  0  0  0  0  0  0  0  0
  138.6100   80.3616  221.6629 H   0  0  0  0  0  0  0  0  0  0  0  0
  140.0510   82.0337  222.4954 H   0  0  0  0  0  0  0  0  0  0  0  0
  142.1881   82.7019  223.5737 H   0  0  0  0  0  0  0  0  0  0  0  0
  143.8205   80.9167  224.2180 H   0  0  0  0  0  0  0  0  0  0  0  0
  143.3080   78.5548  223.7866 H   0  0  0  0  0  0  0  0  0  0  0  0
  141.8133   76.8237  222.9228 H   0  0  0  0  0  0  0  0  0  0  0  0
  139.7660   75.5558  220.6879 H   0  0  0  0  0  0  0  0  0  0  0  0
  139.4995   75.1134  222.3595 H   0  0  0  0  0  0  0  0  0  0  0  0
  134.9690   72.7065  222.9478 H   0  0  0  0  0  0  0  0  0  0  0  0
  135.9269   71.7816  221.7496 H   0  0  0  0  0  0  0  0  0  0  0  0
  136.1386   71.8344  224.7532 H   0  0  0  0  0  0  0  0  0  0  0  0
  135.9247   70.4296  223.5953 H   0  0  0  0  0  0  0  0  0  0  0  0
  1  2  1  0
  2  3  1  0
  3  4  2  0
  3  5  1  0
  5  6  1  0
  6  7  2  0
  7  8  1  0
  8  9  2  0
  9 10  1  0
 10 11  2  0
  5 12  1  0
 12 13  1  0
 13 14  1  0
 14 15  1  0
 15 16  1  0
 16 17  2  0
 16 18  1  0
 18 19  1  0
 18 20  1  0
 20 21  1  0
 21 22  1  0
 22 23  2  0
 23 24  1  0
 24 25  2  0
 25 26  1  0
 26 27  2  0
 27 28  1  0
 28 29  2  0
 29 30  1  0
 30 31  2  0
 31 32  1  0
 15 33  1  0
 33 34  1  0
 11  6  1  0
 34 12  1  0
 32 20  1  0
 31 22  1  0
 29 24  1  0
  1 35  1  0
  1 36  1  0
  1 37  1  0
  2 38  1  0
  2 39  1  0
  7 40  1  0
  8 41  1  0
  9 42  1  0
 10 43  1  0
 11 44  1  0
 12 45  1  0
 13 46  1  0
 13 47  1  0
 14 48  1  0
 14 49  1  0
 18 50  1  1
 19 51  1  0
 19 52  1  0
 20 53  1  0
 21 54  1  0
 21 55  1  0
 23 56  1  0
 25 57  1  0
 26 58  1  0
 27 59  1  0
 28 60  1  0
 30 61  1  0
 32 62  1  0
 32 63  1  0
 33 64  1  0
 33 65  1  0
 34 66  1  0
 34 67  1  0
M  END
>  <smiles>  (20) 
CCC(=O)N(c1ccccc1)C1CCN(C(=O)[C@H](N)C2Cc3cc4ccccc4cc3C2)CC1

>  <score_type>  (20) 
oracle

>  <origin>  (20) 
autodockgpu

>  <m_score__min__energy>  (20) 
-8.8599999999999994

>  <m_primary>  (20) 
energy

>  <rmsd>  (20) 
8.322719175804822

>  <m_score__min__rmsd>  (20) 
8.322719175804822

>  <meeko>  (20) 
{"free_energy": -7.93, "intermolecular_energy": -10.02, "internal_energy": -2.23, "cluster_size": 7, "cluster_id": 1, "rank_in_cluster": 7}

>  <energy>  (20) 
-7.45

>  <cluster_rmsd>  (20) 
1.27

>  <cluster>  (20) 
3

$$$$

     RDKit          3D

 67 71  0  0  0  0  0  0  0  0999 V2000
  138.8280   66.8670  222.5200 C   0  0  0  0  0  0  0  0  0  0  0  0
  138.9500   68.3820  222.4330 C   0  0  0  0  0  0  0  0  0  0  0  0
  138.6470   69.0290  223.7090 C   0  0  0  0  0  0  0  0  0  0  0  0
  137.6950   68.5010  224.3850 O   0  0  0  0  0  0  0  0  0  0  0  0
  139.2670   70.1510  224.2740 N   0  0  0  0  0  0  0  0  0  0  0  0
  139.8660   70.0060  225.5790 C   0  0  0  0  0  0  0  0  0  0  0  0
  140.0290   68.7420  226.1440 C   0  0  0  0  0  0  0  0  0  0  0  0
  140.6300   68.5740  227.3930 C   0  0  0  0  0  0  0  0  0  0  0  0
  141.0820   69.6560  228.1100 C   0  0  0  0  0  0  0  0  0  0  0  0
  140.9230   70.8980  227.5570 C   0  0  0  0  0  0  0  0  0  0  0  0
  140.3240   71.0740  226.3060 C   0  0  0  0  0  0  0  0  0  0  0  0
  139.3530   71.4650  223.6790 C   0  0  0  0  0  0  0  0  0  0  0  0
  140.5400   71.6090  222.7540 C   0  0  0  0  0  0  0  0  0  0  0  0
  140.6070   72.9540  222.1080 C   0  0  0  0  0  0  0  0  0  0  0  0
  139.3190   73.5370  221.8560 N   0  0  0  0  0  0  0  0  0  0  0  0
  139.0480   74.9060  221.6510 C   0  0  0  0  0  0  0  0  0  0  0  0
  137.8380   75.2880  221.4450 O   0  0  0  0  0  0  0  0  0  0  0  0
  140.0530   75.9880  221.6450 C   0  0  2  0  0  0  0  0  0  0  0  0
  139.5180   77.1980  222.2840 N   0  0  0  0  0  0  0  0  0  0  0  0
  140.5640   76.3760  220.3000 C   0  0  0  0  0  0  0  0  0  0  0  0
  142.0390   76.7240  220.3080 C   0  0  0  0  0  0  0  0  0  0  0  0
  142.7080   75.4080  220.1100 C   0  0  0  0  0  0  0  0  0  0  0  0
  144.0290   75.0960  220.3650 C   0  0  0  0  0  0  0  0  0  0  0  0
  144.5070   73.8300  220.1240 C   0  0  0  0  0  0  0  0  0  0  0  0
  145.8260   73.5430  220.3800 C   0  0  0  0  0  0  0  0  0  0  0  0
  146.3220   72.2840  220.1410 C   0  0  0  0  0  0  0  0  0  0  0  0
  145.4560   71.3190  219.6350 C   0  0  0  0  0  0  0  0  0  0  0  0
  144.1370   71.6310  219.3860 C   0  0  0  0  0  0  0  0  0  0  0  0
  143.6130   72.8900  219.6180 C   0  0  0  0  0  0  0  0  0  0  0  0
  142.3010   73.2210  219.3700 C   0  0  0  0  0  0  0  0  0  0  0  0
  141.7970   74.4960  219.6080 C   0  0  0  0  0  0  0  0  0  0  0  0
  140.4660   75.1280  219.4280 C   0  0  0  0  0  0  0  0  0  0  0  0
  138.1790   72.6190  221.7890 C   0  0  0  0  0  0  0  0  0  0  0  0
  138.0510   71.9180  223.0920 C   0  0  0  0  0  0  0  0  0  0  0  0
  138.8034   66.5612  223.5764 H   0  0  0  0  0  0  0  0  0  0  0  0
  137.9010   66.5447  222.0233 H   0  0  0  0  0  0  0  0  0  0  0  0
  139.6915   66.4005  222.0233 H   0  0  0  0  0  0  0  0  0  0  0  0
  139.9784   68.6394  222.1394 H   0  0  0  0  0  0  0  0  0  0  0  0
  138.2231   68.7398  221.6890 H   0  0  0  0  0  0  0  0  0  0  0  0
  139.6763   67.8573  225.5936 H   0  0  0  0  0  0  0  0  0  0  0  0
  140.7433   67.5619  227.8088 H   0  0  0  0  0  0  0  0  0  0  0  0
  141.5554   69.5282  229.0947 H   0  0  0  0  0  0  0  0  0  0  0  0
  141.2756   71.7804  228.1111 H   0  0  0  0  0  0  0  0  0  0  0  0
  140.2182   72.0897  225.8971 H   0  0  0  0  0  0  0  0  0  0  0  0
  139.5511   72.1727  224.4975 H   0  0  0  0  0  0  0  0  0  0  0  0
  141.4604   71.4515  223.3354 H   0  0  0  0  0  0  0  0  0  0  0  0
  140.4311   70.8613  221.9546 H   0  0  0  0  0  0  0  0  0  0  0  0
  141.1708   73.6291  222.7686 H   0  0  0  0  0  0  0  0  0  0  0  0
  141.0956   72.8184  221.1318 H   0  0  0  0  0  0  0  0  0  0  0  0
  140.8999   75.5641  222.2045 H   0  0  0  0  0  0  0  0  0  0  0  0
  138.4790   77.1570  222.4010 H   0  0  0  0  0  0  0  0  0  0  0  0
  139.7760   78.0080  221.6720 H   0  0  0  0  0  0  0  0  0  0  0  0
  139.9843   77.2451  219.9557 H   0  0  0  0  0  0  0  0  0  0  0  0
  142.2840   77.4167  219.4893 H   0  0  0  0  0  0  0  0  0  0  0  0
  142.3547   77.2303  221.2321 H   0  0  0  0  0  0  0  0  0  0  0  0
  144.7043   75.8671  220.7643 H   0  0  0  0  0  0  0  0  0  0  0  0
  146.4886   74.3254  220.7785 H   0  0  0  0  0  0  0  0  0  0  0  0
  147.3763   72.0450  220.3444 H   0  0  0  0  0  0  0  0  0  0  0  0
  145.8260   70.3030  219.4330 H   0  0  0  0  0  0  0  0  0  0  0  0
  143.4750   70.8483  218.9872 H   0  0  0  0  0  0  0  0  0  0  0  0
  141.6262   72.4503  218.9692 H   0  0  0  0  0  0  0  0  0  0  0  0
  140.2925   75.3932  218.3746 H   0  0  0  0  0  0  0  0  0  0  0  0
  139.6298   74.4686  219.7036 H   0  0  0  0  0  0  0  0  0  0  0  0
  137.2594   73.1862  221.5826 H   0  0  0  0  0  0  0  0  0  0  0  0
  138.3367   71.8858  220.9843 H   0  0  0  0  0  0  0  0  0  0  0  0
  137.5710   72.6033  223.8062 H   0  0  0  0  0  0  0  0  0  0  0  0
  137.4574   71.0110  222.9048 H   0  0  0  0  0  0  0  0  0  0  0  0
  1  2  1  0
  2  3  1  0
  3  4  2  0
  3  5  1  0
  5  6  1  0
  6  7  2  0
  7  8  1  0
  8  9  2  0
  9 10  1  0
 10 11  2  0
  5 12  1  0
 12 13  1  0
 13 14  1  0
 14 15  1  0
 15 16  1  0
 16 17  2  0
 16 18  1  0
 18 19  1  0
 18 20  1  0
 20 21  1  0
 21 22  1  0
 22 23  2  0
 23 24  1  0
 24 25  2  0
 25 26  1  0
 26 27  2  0
 27 28  1  0
 28 29  2  0
 29 30  1  0
 30 31  2  0
 31 32  1  0
 15 33  1  0
 33 34  1  0
 11  6  1  0
 34 12  1  0
 32 20  1  0
 31 22  1  0
 29 24  1  0
  1 35  1  0
  1 36  1  0
  1 37  1  0
  2 38  1  0
  2 39  1  0
  7 40  1  0
  8 41  1  0
  9 42  1  0
 10 43  1  0
 11 44  1  0
 12 45  1  0
 13 46  1  0
 13 47  1  0
 14 48  1  0
 14 49  1  0
 18 50  1  1
 19 51  1  0
 19 52  1  0
 20 53  1  0
 21 54  1  0
 21 55  1  0
 23 56  1  0
 25 57  1  0
 26 58  1  0
 27 59  1  0
 28 60  1  0
 30 61  1  0
 32 62  1  0
 32 63  1  0
 33 64  1  0
 33 65  1  0
 34 66  1  0
 34 67  1  0
M  END
>  <smiles>  (21) 
CCC(=O)N(c1ccccc1)C1CCN(C(=O)[C@H](N)C2Cc3cc4ccccc4cc3C2)CC1

>  <score_type>  (21) 
oracle

>  <origin>  (21) 
autodockgpu

>  <m_score__min__energy>  (21) 
-8.8599999999999994

>  <m_primary>  (21) 
energy

>  <rmsd>  (21) 
7.635507157766064

>  <m_score__min__rmsd>  (21) 
7.635507157766064

>  <meeko>  (21) 
{"free_energy": -7.72, "intermolecular_energy": -9.81, "internal_energy": -2.65, "cluster_size": 21, "cluster_id": 5, "rank_in_cluster": 12}

>  <energy>  (21) 
-8.68

>  <cluster_rmsd>  (21) 
0.0

>  <cluster>  (21) 
4

$$$$

     RDKit          3D

 67 71  0  0  0  0  0  0  0  0999 V2000
  138.0790   68.5150  221.2010 C   0  0  0  0  0  0  0  0  0  0  0  0
  139.3780   68.4750  221.9950 C   0  0  0  0  0  0  0  0  0  0  0  0
  139.1460   68.6400  223.4290 C   0  0  0  0  0  0  0  0  0  0  0  0
  138.8210   67.5740  224.0640 O   0  0  0  0  0  0  0  0  0  0  0  0
  139.2330   69.8150  224.1860 N   0  0  0  0  0  0  0  0  0  0  0  0
  139.8460   69.7350  225.4900 C   0  0  0  0  0  0  0  0  0  0  0  0
  140.0210   68.5000  226.1130 C   0  0  0  0  0  0  0  0  0  0  0  0
  140.6340   68.3940  227.3620 C   0  0  0  0  0  0  0  0  0  0  0  0
  141.0880   69.5110  228.0230 C   0  0  0  0  0  0  0  0  0  0  0  0
  140.9170   70.7240  227.4130 C   0  0  0  0  0  0  0  0  0  0  0  0
  140.3040   70.8380  226.1610 C   0  0  0  0  0  0  0  0  0  0  0  0
  138.7480   71.1180  223.7930 C   0  0  0  0  0  0  0  0  0  0  0  0
  139.6480   71.7950  222.7840 C   0  0  0  0  0  0  0  0  0  0  0  0
  139.1250   73.1240  222.3470 C   0  0  0  0  0  0  0  0  0  0  0  0
  137.6920   73.2000  222.3200 N   0  0  0  0  0  0  0  0  0  0  0  0
  136.9170   74.3780  222.3540 C   0  0  0  0  0  0  0  0  0  0  0  0
  135.6350   74.2930  222.3340 O   0  0  0  0  0  0  0  0  0  0  0  0
  137.4500   75.7540  222.4110 C   0  0  2  0  0  0  0  0  0  0  0  0
  136.4180   76.6930  222.8700 N   0  0  0  0  0  0  0  0  0  0  0  0
  137.9990   76.2780  221.1280 C   0  0  0  0  0  0  0  0  0  0  0  0
  137.8380   77.7790  220.9890 C   0  0  0  0  0  0  0  0  0  0  0  0
  139.0540   78.3230  221.6560 C   0  0  0  0  0  0  0  0  0  0  0  0
  139.2540   79.6140  222.1040 C   0  0  0  0  0  0  0  0  0  0  0  0
  140.4400   79.9700  222.6990 C   0  0  0  0  0  0  0  0  0  0  0  0
  140.6200   81.2620  223.1340 C   0  0  0  0  0  0  0  0  0  0  0  0
  141.8010   81.6380  223.7260 C   0  0  0  0  0  0  0  0  0  0  0  0
  142.8010   80.6800  223.8700 C   0  0  0  0  0  0  0  0  0  0  0  0
  142.5970   79.3920  223.4260 C   0  0  0  0  0  0  0  0  0  0  0  0
  141.4180   78.9880  222.8260 C   0  0  0  0  0  0  0  0  0  0  0  0
  141.2000   77.7080  222.3720 C   0  0  0  0  0  0  0  0  0  0  0  0
  140.0060   77.3250  221.7690 C   0  0  0  0  0  0  0  0  0  0  0  0
  139.5070   76.0550  221.1860 C   0  0  0  0  0  0  0  0  0  0  0  0
  136.9640   71.9310  222.2300 C   0  0  0  0  0  0  0  0  0  0  0  0
  137.2970   71.1040  223.4180 C   0  0  0  0  0  0  0  0  0  0  0  0
  137.2258   68.5413  221.8948 H   0  0  0  0  0  0  0  0  0  0  0  0
  138.0641   69.4140  220.5673 H   0  0  0  0  0  0  0  0  0  0  0  0
  138.0088   67.6186  220.5673 H   0  0  0  0  0  0  0  0  0  0  0  0
  139.8699   67.5061  221.8235 H   0  0  0  0  0  0  0  0  0  0  0  0
  140.0115   69.3072  221.6543 H   0  0  0  0  0  0  0  0  0  0  0  0
  139.6678   67.5886  225.6085 H   0  0  0  0  0  0  0  0  0  0  0  0
  140.7557   67.4033  227.8242 H   0  0  0  0  0  0  0  0  0  0  0  0
  141.5718   69.4323  229.0078 H   0  0  0  0  0  0  0  0  0  0  0  0
  141.2710   71.6334  227.9207 H   0  0  0  0  0  0  0  0  0  0  0  0
  140.1874   71.8328  225.7063 H   0  0  0  0  0  0  0  0  0  0  0  0
  138.7995   71.7588  224.6856 H   0  0  0  0  0  0  0  0  0  0  0  0
  140.6398   71.9387  223.2374 H   0  0  0  0  0  0  0  0  0  0  0  0
  139.6973   71.1483  221.8955 H   0  0  0  0  0  0  0  0  0  0  0  0
  139.5003   73.8902  223.0413 H   0  0  0  0  0  0  0  0  0  0  0  0
  139.4747   73.2838  221.3164 H   0  0  0  0  0  0  0  0  0  0  0  0
  138.2888   75.6828  223.1190 H   0  0  0  0  0  0  0  0  0  0  0  0
  136.2540   76.6270  223.9010 H   0  0  0  0  0  0  0  0  0  0  0  0
  135.5370   76.4580  222.3540 H   0  0  0  0  0  0  0  0  0  0  0  0
  137.4735   75.7747  220.3031 H   0  0  0  0  0  0  0  0  0  0  0  0
  137.8052   78.0744  219.9299 H   0  0  0  0  0  0  0  0  0  0  0  0
  136.9031   78.1523  221.4325 H   0  0  0  0  0  0  0  0  0  0  0  0
  138.4575   80.3630  221.9835 H   0  0  0  0  0  0  0  0  0  0  0  0
  139.8132   81.9989  223.0071 H   0  0  0  0  0  0  0  0  0  0  0  0
  141.9528   82.6693  224.0772 H   0  0  0  0  0  0  0  0  0  0  0  0
  143.7574   80.9526  224.3400 H   0  0  0  0  0  0  0  0  0  0  0  0
  143.4039   78.6554  223.5537 H   0  0  0  0  0  0  0  0  0  0  0  0
  141.9982   76.9604  222.4899 H   0  0  0  0  0  0  0  0  0  0  0  0
  139.9220   75.8907  220.1806 H   0  0  0  0  0  0  0  0  0  0  0  0
  139.7934   75.1668  221.7683 H   0  0  0  0  0  0  0  0  0  0  0  0
  135.8817   72.1263  222.2068 H   0  0  0  0  0  0  0  0  0  0  0  0
  137.2516   71.3990  221.3112 H   0  0  0  0  0  0  0  0  0  0  0  0
  136.7166   71.4804  224.2733 H   0  0  0  0  0  0  0  0  0  0  0  0
  137.0494   70.0644  223.1572 H   0  0  0  0  0  0  0  0  0  0  0  0
  1  2  1  0
  2  3  1  0
  3  4  2  0
  3  5  1  0
  5  6  1  0
  6  7  2  0
  7  8  1  0
  8  9  2  0
  9 10  1  0
 10 11  2  0
  5 12  1  0
 12 13  1  0
 13 14  1  0
 14 15  1  0
 15 16  1  0
 16 17  2  0
 16 18  1  0
 18 19  1  0
 18 20  1  0
 20 21  1  0
 21 22  1  0
 22 23  2  0
 23 24  1  0
 24 25  2  0
 25 26  1  0
 26 27  2  0
 27 28  1  0
 28 29  2  0
 29 30  1  0
 30 31  2  0
 31 32  1  0
 15 33  1  0
 33 34  1  0
 11  6  1  0
 34 12  1  0
 32 20  1  0
 31 22  1  0
 29 24  1  0
  1 35  1  0
  1 36  1  0
  1 37  1  0
  2 38  1  0
  2 39  1  0
  7 40  1  0
  8 41  1  0
  9 42  1  0
 10 43  1  0
 11 44  1  0
 12 45  1  0
 13 46  1  0
 13 47  1  0
 14 48  1  0
 14 49  1  0
 18 50  1  1
 19 51  1  0
 19 52  1  0
 20 53  1  0
 21 54  1  0
 21 55  1  0
 23 56  1  0
 25 57  1  0
 26 58  1  0
 27 59  1  0
 28 60  1  0
 30 61  1  0
 32 62  1  0
 32 63  1  0
 33 64  1  0
 33 65  1  0
 34 66  1  0
 34 67  1  0
M  END
>  <smiles>  (22) 
CCC(=O)N(c1ccccc1)C1CCN(C(=O)[C@H](N)C2Cc3cc4ccccc4cc3C2)CC1

>  <score_type>  (22) 
oracle

>  <origin>  (22) 
autodockgpu

>  <m_score__min__energy>  (22) 
-8.8599999999999994

>  <m_primary>  (22) 
energy

>  <rmsd>  (22) 
8.293395389231605

>  <m_score__min__rmsd>  (22) 
8.293395389231605

>  <meeko>  (22) 
{"free_energy": -8.34, "intermolecular_energy": -10.43, "internal_energy": -2.0, "cluster_size": 7, "cluster_id": 1, "rank_in_cluster": 6}

>  <energy>  (22) 
-8.54

>  <cluster_rmsd>  (22) 
0.4

>  <cluster>  (22) 
4

$$$$

     RDKit          3D

 67 71  0  0  0  0  0  0  0  0999 V2000
  138.8310   66.9040  222.7240 C   0  0  0  0  0  0  0  0  0  0  0  0
  138.9420   68.4210  222.6450 C   0  0  0  0  0  0  0  0  0  0  0  0
  138.7360   69.0520  223.9470 C   0  0  0  0  0  0  0  0  0  0  0  0
  137.8950   68.4690  224.7190 O   0  0  0  0  0  0  0  0  0  0  0  0
  139.3410   70.2120  224.4470 N   0  0  0  0  0  0  0  0  0  0  0  0
  139.9580   70.1450  225.7510 C   0  0  0  0  0  0  0  0  0  0  0  0
  140.1660   68.9130  226.3700 C   0  0  0  0  0  0  0  0  0  0  0  0
  140.7830   68.8200  227.6180 C   0  0  0  0  0  0  0  0  0  0  0  0
  141.2070   69.9470  228.2810 C   0  0  0  0  0  0  0  0  0  0  0  0
  141.0030   71.1570  227.6760 C   0  0  0  0  0  0  0  0  0  0  0  0
  140.3870   71.2580  226.4250 C   0  0  0  0  0  0  0  0  0  0  0  0
  139.3980   71.4950  223.7860 C   0  0  0  0  0  0  0  0  0  0  0  0
  140.6660   71.6820  222.9830 C   0  0  0  0  0  0  0  0  0  0  0  0
  140.7060   72.9910  222.2660 C   0  0  0  0  0  0  0  0  0  0  0  0
  139.4150   73.4580  221.8440 N   0  0  0  0  0  0  0  0  0  0  0  0
  139.0700   74.7890  221.5280 C   0  0  0  0  0  0  0  0  0  0  0  0
  137.8660   75.0630  221.1730 O   0  0  0  0  0  0  0  0  0  0  0  0
  139.9890   75.9440  221.5610 C   0  0  2  0  0  0  0  0  0  0  0  0
  139.3380   77.1090  222.1740 N   0  0  0  0  0  0  0  0  0  0  0  0
  140.5260   76.3700  220.2380 C   0  0  0  0  0  0  0  0  0  0  0  0
  141.9970   76.7300  220.2870 C   0  0  0  0  0  0  0  0  0  0  0  0
  142.6830   75.4260  220.0700 C   0  0  0  0  0  0  0  0  0  0  0  0
  144.0000   75.1180  220.3460 C   0  0  0  0  0  0  0  0  0  0  0  0
  144.4940   73.8630  220.0840 C   0  0  0  0  0  0  0  0  0  0  0  0
  145.8110   73.5800  220.3610 C   0  0  0  0  0  0  0  0  0  0  0  0
  146.3230   72.3320  220.1010 C   0  0  0  0  0  0  0  0  0  0  0  0
  145.4770   71.3730  219.5520 C   0  0  0  0  0  0  0  0  0  0  0  0
  144.1610   71.6800  219.2830 C   0  0  0  0  0  0  0  0  0  0  0  0
  143.6210   72.9290  219.5350 C   0  0  0  0  0  0  0  0  0  0  0  0
  142.3110   73.2540  219.2670 C   0  0  0  0  0  0  0  0  0  0  0  0
  141.7910   74.5190  219.5260 C   0  0  0  0  0  0  0  0  0  0  0  0
  140.4590   75.1430  219.3330 C   0  0  0  0  0  0  0  0  0  0  0  0
  138.3580   72.4510  221.7140 C   0  0  0  0  0  0  0  0  0  0  0  0
  138.1390   71.8140  223.0370 C   0  0  0  0  0  0  0  0  0  0  0  0
  138.8082   66.5925  223.7787 H   0  0  0  0  0  0  0  0  0  0  0  0
  137.9066   66.5775  222.2252 H   0  0  0  0  0  0  0  0  0  0  0  0
  139.6981   66.4464  222.2252 H   0  0  0  0  0  0  0  0  0  0  0  0
  139.9442   68.6853  222.2765 H   0  0  0  0  0  0  0  0  0  0  0  0
  138.1594   68.7846  221.9628 H   0  0  0  0  0  0  0  0  0  0  0  0
  139.8364   67.9940  225.8632 H   0  0  0  0  0  0  0  0  0  0  0  0
  140.9321   67.8317  228.0774 H   0  0  0  0  0  0  0  0  0  0  0  0
  141.6940   69.8783  229.2650 H   0  0  0  0  0  0  0  0  0  0  0  0
  141.3321   72.0739  228.1869 H   0  0  0  0  0  0  0  0  0  0  0  0
  140.2439   72.2506  225.9730 H   0  0  0  0  0  0  0  0  0  0  0  0
  139.4544   72.2572  224.5771 H   0  0  0  0  0  0  0  0  0  0  0  0
  141.5264   71.6286  223.6663 H   0  0  0  0  0  0  0  0  0  0  0  0
  140.6992   70.8863  222.2242 H   0  0  0  0  0  0  0  0  0  0  0  0
  141.1441   73.7425  222.9393 H   0  0  0  0  0  0  0  0  0  0  0  0
  141.3066   72.8412  221.3567 H   0  0  0  0  0  0  0  0  0  0  0  0
  140.8414   75.5853  222.1566 H   0  0  0  0  0  0  0  0  0  0  0  0
  139.5030   77.1570  223.2060 H   0  0  0  0  0  0  0  0  0  0  0  0
  138.3120   77.0250  221.9810 H   0  0  0  0  0  0  0  0  0  0  0  0
  139.9460   77.2426  219.9030 H   0  0  0  0  0  0  0  0  0  0  0  0
  142.2530   77.4458  219.4919 H   0  0  0  0  0  0  0  0  0  0  0  0
  142.2877   77.2145  221.2308 H   0  0  0  0  0  0  0  0  0  0  0  0
  144.6597   75.8840  220.7795 H   0  0  0  0  0  0  0  0  0  0  0  0
  146.4582   74.3574  220.7932 H   0  0  0  0  0  0  0  0  0  0  0  0
  147.3748   72.0967  220.3211 H   0  0  0  0  0  0  0  0  0  0  0  0
  145.8605   70.3658  219.3319 H   0  0  0  0  0  0  0  0  0  0  0  0
  143.5144   70.9020  218.8511 H   0  0  0  0  0  0  0  0  0  0  0  0
  141.6519   72.4876  218.8331 H   0  0  0  0  0  0  0  0  0  0  0  0
  140.3057   75.4330  218.2830 H   0  0  0  0  0  0  0  0  0  0  0  0
  139.6235   74.4693  219.5739 H   0  0  0  0  0  0  0  0  0  0  0  0
  137.4281   72.9324  221.3770 H   0  0  0  0  0  0  0  0  0  0  0  0
  138.6552   71.6901  220.9773 H   0  0  0  0  0  0  0  0  0  0  0  0
  137.5361   72.4978  223.6526 H   0  0  0  0  0  0  0  0  0  0  0  0
  137.6362   70.8548  222.8446 H   0  0  0  0  0  0  0  0  0  0  0  0
  1  2  1  0
  2  3  1  0
  3  4  2  0
  3  5  1  0
  5  6  1  0
  6  7  2  0
  7  8  1  0
  8  9  2  0
  9 10  1  0
 10 11  2  0
  5 12  1  0
 12 13  1  0
 13 14  1  0
 14 15  1  0
 15 16  1  0
 16 17  2  0
 16 18  1  0
 18 19  1  0
 18 20  1  0
 20 21  1  0
 21 22  1  0
 22 23  2  0
 23 24  1  0
 24 25  2  0
 25 26  1  0
 26 27  2  0
 27 28  1  0
 28 29  2  0
 29 30  1  0
 30 31  2  0
 31 32  1  0
 15 33  1  0
 33 34  1  0
 11  6  1  0
 34 12  1  0
 32 20  1  0
 31 22  1  0
 29 24  1  0
  1 35  1  0
  1 36  1  0
  1 37  1  0
  2 38  1  0
  2 39  1  0
  7 40  1  0
  8 41  1  0
  9 42  1  0
 10 43  1  0
 11 44  1  0
 12 45  1  0
 13 46  1  0
 13 47  1  0
 14 48  1  0
 14 49  1  0
 18 50  1  1
 19 51  1  0
 19 52  1  0
 20 53  1  0
 21 54  1  0
 21 55  1  0
 23 56  1  0
 25 57  1  0
 26 58  1  0
 27 59  1  0
 28 60  1  0
 30 61  1  0
 32 62  1  0
 32 63  1  0
 33 64  1  0
 33 65  1  0
 34 66  1  0
 34 67  1  0
M  END
>  <smiles>  (23) 
CCC(=O)N(c1ccccc1)C1CCN(C(=O)[C@H](N)C2Cc3cc4ccccc4cc3C2)CC1

>  <score_type>  (23) 
oracle

>  <origin>  (23) 
autodockgpu

>  <m_score__min__energy>  (23) 
-8.8599999999999994

>  <m_primary>  (23) 
energy

>  <rmsd>  (23) 
7.656059410125137

>  <m_score__min__rmsd>  (23) 
7.656059410125137

>  <meeko>  (23) 
{"free_energy": -7.76, "intermolecular_energy": -9.85, "internal_energy": -2.7, "cluster_size": 21, "cluster_id": 5, "rank_in_cluster": 10}

>  <energy>  (23) 
-8.16

>  <cluster_rmsd>  (23) 
0.0

>  <cluster>  (23) 
5

$$$$

     RDKit          3D

 67 71  0  0  0  0  0  0  0  0999 V2000
  146.3430   73.2520  221.9740 C   0  0  0  0  0  0  0  0  0  0  0  0
  146.3430   73.9440  220.6180 C   0  0  0  0  0  0  0  0  0  0  0  0
  145.6270   73.1670  219.6080 C   0  0  0  0  0  0  0  0  0  0  0  0
  146.0630   73.2830  218.4080 O   0  0  0  0  0  0  0  0  0  0  0  0
  144.5270   72.3200  219.7930 N   0  0  0  0  0  0  0  0  0  0  0  0
  144.7390   70.8980  219.6600 C   0  0  0  0  0  0  0  0  0  0  0  0
  145.9210   70.4100  219.1060 C   0  0  0  0  0  0  0  0  0  0  0  0
  146.1600   69.0400  218.9910 C   0  0  0  0  0  0  0  0  0  0  0  0
  145.2310   68.1230  219.4220 C   0  0  0  0  0  0  0  0  0  0  0  0
  144.0700   68.6000  219.9650 C   0  0  0  0  0  0  0  0  0  0  0  0
  143.8240   69.9710  220.0850 C   0  0  0  0  0  0  0  0  0  0  0  0
  143.1760   72.7340  220.0930 C   0  0  0  0  0  0  0  0  0  0  0  0
  143.0790   74.2010  220.4440 C   0  0  0  0  0  0  0  0  0  0  0  0
  141.6770   74.6380  220.7130 C   0  0  0  0  0  0  0  0  0  0  0  0
  140.6940   73.9330  219.9400 N   0  0  0  0  0  0  0  0  0  0  0  0
  139.3210   73.8150  220.2410 C   0  0  0  0  0  0  0  0  0  0  0  0
  138.5570   73.1410  219.4590 O   0  0  0  0  0  0  0  0  0  0  0  0
  138.6450   74.4150  221.4090 C   0  0  2  0  0  0  0  0  0  0  0  0
  137.7780   73.4300  222.0700 N   0  0  0  0  0  0  0  0  0  0  0  0
  137.8180   75.6200  221.1180 C   0  0  0  0  0  0  0  0  0  0  0  0
  137.7030   76.5560  222.3050 C   0  0  0  0  0  0  0  0  0  0  0  0
  138.9030   77.4290  222.1780 C   0  0  0  0  0  0  0  0  0  0  0  0
  139.4630   78.2260  223.1570 C   0  0  0  0  0  0  0  0  0  0  0  0
  140.5760   78.9860  222.8870 C   0  0  0  0  0  0  0  0  0  0  0  0
  141.1140   79.7750  223.8750 C   0  0  0  0  0  0  0  0  0  0  0  0
  142.2230   80.5460  223.6210 C   0  0  0  0  0  0  0  0  0  0  0  0
  142.7780   80.5040  222.3450 C   0  0  0  0  0  0  0  0  0  0  0  0
  142.2190   79.7050  221.3710 C   0  0  0  0  0  0  0  0  0  0  0  0
  141.1040   78.9200  221.6010 C   0  0  0  0  0  0  0  0  0  0  0  0
  140.5300   78.1220  220.6390 C   0  0  0  0  0  0  0  0  0  0  0  0
  139.4050   77.3430  220.8920 C   0  0  0  0  0  0  0  0  0  0  0  0
  138.5840   76.4210  220.0680 C   0  0  0  0  0  0  0  0  0  0  0  0
  141.1600   73.2880  218.7090 C   0  0  0  0  0  0  0  0  0  0  0  0
  142.1910   72.2770  219.0590 C   0  0  0  0  0  0  0  0  0  0  0  0
  147.3801   73.0853  222.3006 H   0  0  0  0  0  0  0  0  0  0  0  0
  145.8245   73.8853  222.7089 H   0  0  0  0  0  0  0  0  0  0  0  0
  145.8245   72.2853  221.8923 H   0  0  0  0  0  0  0  0  0  0  0  0
  145.8583   74.9262  220.7203 H   0  0  0  0  0  0  0  0  0  0  0  0
  147.3875   74.0487  220.2894 H   0  0  0  0  0  0  0  0  0  0  0  0
  146.6824   71.1204  218.7516 H   0  0  0  0  0  0  0  0  0  0  0  0
  147.1045   68.6891  218.5495 H   0  0  0  0  0  0  0  0  0  0  0  0
  145.4152   67.0422  219.3331 H   0  0  0  0  0  0  0  0  0  0  0  0
  143.3101   67.8865  220.3164 H   0  0  0  0  0  0  0  0  0  0  0  0
  142.8773   70.3121  220.5293 H   0  0  0  0  0  0  0  0  0  0  0  0
  142.8796   72.2094  221.0133 H   0  0  0  0  0  0  0  0  0  0  0  0
  143.6846   74.3885  221.3430 H   0  0  0  0  0  0  0  0  0  0  0  0
  143.4454   74.7742  219.5796 H   0  0  0  0  0  0  0  0  0  0  0  0
  141.4615   74.4762  221.7795 H   0  0  0  0  0  0  0  0  0  0  0  0
  141.6105   75.6982  220.4273 H   0  0  0  0  0  0  0  0  0  0  0  0
  139.4740   74.7383  222.0558 H   0  0  0  0  0  0  0  0  0  0  0  0
  138.1400   73.1560  223.0130 H   0  0  0  0  0  0  0  0  0  0  0  0
  137.7360   72.5900  221.4460 H   0  0  0  0  0  0  0  0  0  0  0  0
  136.8152   75.2791  220.8210 H   0  0  0  0  0  0  0  0  0  0  0  0
  136.7781   77.1488  222.2499 H   0  0  0  0  0  0  0  0  0  0  0  0
  137.6604   76.0242  223.2670 H   0  0  0  0  0  0  0  0  0  0  0  0
  139.0146   78.2528  224.1611 H   0  0  0  0  0  0  0  0  0  0  0  0
  140.6547   79.7896  224.8744 H   0  0  0  0  0  0  0  0  0  0  0  0
  142.6609   81.1801  224.4059 H   0  0  0  0  0  0  0  0  0  0  0  0
  143.6658   81.1107  222.1133 H   0  0  0  0  0  0  0  0  0  0  0  0
  142.6778   79.6912  220.3714 H   0  0  0  0  0  0  0  0  0  0  0  0
  140.9761   78.0987  219.6338 H   0  0  0  0  0  0  0  0  0  0  0  0
  137.8961   76.9788  219.4156 H   0  0  0  0  0  0  0  0  0  0  0  0
  139.1817   75.7925  219.3914 H   0  0  0  0  0  0  0  0  0  0  0  0
  140.3144   72.7952  218.2069 H   0  0  0  0  0  0  0  0  0  0  0  0
  141.5896   74.0411  218.0320 H   0  0  0  0  0  0  0  0  0  0  0  0
  141.6796   71.3816  219.4421 H   0  0  0  0  0  0  0  0  0  0  0  0
  142.7650   72.0811  218.1413 H   0  0  0  0  0  0  0  0  0  0  0  0
  1  2  1  0
  2  3  1  0
  3  4  2  0
  3  5  1  0
  5  6  1  0
  6  7  2  0
  7  8  1  0
  8  9  2  0
  9 10  1  0
 10 11  2  0
  5 12  1  0
 12 13  1  0
 13 14  1  0
 14 15  1  0
 15 16  1  0
 16 17  2  0
 16 18  1  0
 18 19  1  0
 18 20  1  0
 20 21  1  0
 21 22  1  0
 22 23  2  0
 23 24  1  0
 24 25  2  0
 25 26  1  0
 26 27  2  0
 27 28  1  0
 28 29  2  0
 29 30  1  0
 30 31  2  0
 31 32  1  0
 15 33  1  0
 33 34  1  0
 11  6  1  0
 34 12  1  0
 32 20  1  0
 31 22  1  0
 29 24  1  0
  1 35  1  0
  1 36  1  0
  1 37  1  0
  2 38  1  0
  2 39  1  0
  7 40  1  0
  8 41  1  0
  9 42  1  0
 10 43  1  0
 11 44  1  0
 12 45  1  0
 13 46  1  0
 13 47  1  0
 14 48  1  0
 14 49  1  0
 18 50  1  1
 19 51  1  0
 19 52  1  0
 20 53  1  0
 21 54  1  0
 21 55  1  0
 23 56  1  0
 25 57  1  0
 26 58  1  0
 27 59  1  0
 28 60  1  0
 30 61  1  0
 32 62  1  0
 32 63  1  0
 33 64  1  0
 33 65  1  0
 34 66  1  0
 34 67  1  0
M  END
>  <smiles>  (24) 
CCC(=O)N(c1ccccc1)C1CCN(C(=O)[C@H](N)C2Cc3cc4ccccc4cc3C2)CC1

>  <score_type>  (24) 
oracle

>  <origin>  (24) 
autodockgpu

>  <m_score__min__energy>  (24) 
-8.8599999999999994

>  <m_primary>  (24) 
energy

>  <rmsd>  (24) 
7.503015875202655

>  <m_score__min__rmsd>  (24) 
7.503015875202655

>  <meeko>  (24) 
{"free_energy": -7.9, "intermolecular_energy": -9.98, "internal_energy": -2.46, "cluster_size": 2, "cluster_id": 6, "rank_in_cluster": 2}

>  <energy>  (24) 
-8.16

>  <cluster_rmsd>  (24) 
0.49

>  <cluster>  (24) 
5

$$$$

     RDKit          3D

 67 71  0  0  0  0  0  0  0  0999 V2000
  142.6510   81.3320  217.7620 C   0  0  0  0  0  0  0  0  0  0  0  0
  142.5920   79.8870  218.2380 C   0  0  0  0  0  0  0  0  0  0  0  0
  141.3190   79.5770  218.8850 C   0  0  0  0  0  0  0  0  0  0  0  0
  140.2680   79.9190  218.2350 O   0  0  0  0  0  0  0  0  0  0  0  0
  141.1110   78.9570  220.1250 N   0  0  0  0  0  0  0  0  0  0  0  0
  141.5090   79.6730  221.3130 C   0  0  0  0  0  0  0  0  0  0  0  0
  141.1010   80.9920  221.5120 C   0  0  0  0  0  0  0  0  0  0  0  0
  141.4510   81.6960  222.6650 C   0  0  0  0  0  0  0  0  0  0  0  0
  142.2150   81.1090  223.6460 C   0  0  0  0  0  0  0  0  0  0  0  0
  142.6160   79.8160  223.4520 C   0  0  0  0  0  0  0  0  0  0  0  0
  142.2680   79.1030  222.3010 C   0  0  0  0  0  0  0  0  0  0  0  0
  140.5440   77.6450  220.3360 C   0  0  0  0  0  0  0  0  0  0  0  0
  141.5910   76.5550  220.3690 C   0  0  0  0  0  0  0  0  0  0  0  0
  141.0090   75.2050  220.6280 C   0  0  0  0  0  0  0  0  0  0  0  0
  139.8510   75.2290  221.4770 N   0  0  0  0  0  0  0  0  0  0  0  0
  138.8650   74.2250  221.5740 C   0  0  0  0  0  0  0  0  0  0  0  0
  137.8730   74.3870  222.3730 O   0  0  0  0  0  0  0  0  0  0  0  0
  138.8600   72.9540  220.8230 C   0  0  2  0  0  0  0  0  0  0  0  0
  137.7810   72.0750  221.2960 N   0  0  0  0  0  0  0  0  0  0  0  0
  140.1300   72.1770  220.8730 C   0  0  0  0  0  0  0  0  0  0  0  0
  141.0140   72.5680  222.0410 C   0  0  0  0  0  0  0  0  0  0  0  0
  140.5220   71.7100  223.1540 C   0  0  0  0  0  0  0  0  0  0  0  0
  140.7430   71.8870  224.5060 C   0  0  0  0  0  0  0  0  0  0  0  0
  140.2250   71.0010  225.4200 C   0  0  0  0  0  0  0  0  0  0  0  0
  140.4610   71.1940  226.7600 C   0  0  0  0  0  0  0  0  0  0  0  0
  139.9550   70.3150  227.6880 C   0  0  0  0  0  0  0  0  0  0  0  0
  139.2040   69.2350  227.2330 C   0  0  0  0  0  0  0  0  0  0  0  0
  138.9810   69.0640  225.8840 C   0  0  0  0  0  0  0  0  0  0  0  0
  139.4790   69.9330  224.9300 C   0  0  0  0  0  0  0  0  0  0  0  0
  139.2710   69.7730  223.5800 C   0  0  0  0  0  0  0  0  0  0  0  0
  139.7850   70.6590  222.6370 C   0  0  0  0  0  0  0  0  0  0  0  0
  139.7360   70.7300  221.1560 C   0  0  0  0  0  0  0  0  0  0  0  0
  139.6870   76.4040  222.3380 C   0  0  0  0  0  0  0  0  0  0  0  0
  139.5790   77.6130  221.4830 C   0  0  0  0  0  0  0  0  0  0  0  0
  142.6784   82.0040  218.6325 H   0  0  0  0  0  0  0  0  0  0  0  0
  143.5560   81.4814  217.1548 H   0  0  0  0  0  0  0  0  0  0  0  0
  141.7612   81.5547  217.1548 H   0  0  0  0  0  0  0  0  0  0  0  0
  142.7216   79.2218  217.3716 H   0  0  0  0  0  0  0  0  0  0  0  0
  143.3940   79.7386  218.9760 H   0  0  0  0  0  0  0  0  0  0  0  0
  140.4901   81.4880  220.7434 H   0  0  0  0  0  0  0  0  0  0  0  0
  141.1111   82.7346  222.7907 H   0  0  0  0  0  0  0  0  0  0  0  0
  142.4941   81.6606  224.5558 H   0  0  0  0  0  0  0  0  0  0  0  0
  143.2285   79.3241  224.2219 H   0  0  0  0  0  0  0  0  0  0  0  0
  142.6103   78.0639  222.1863 H   0  0  0  0  0  0  0  0  0  0  0  0
  139.9337   77.4158  219.4500 H   0  0  0  0  0  0  0  0  0  0  0  0
  142.1087   76.5348  219.3987 H   0  0  0  0  0  0  0  0  0  0  0  0
  142.2820   76.7828  221.1940 H   0  0  0  0  0  0  0  0  0  0  0  0
  140.7236   74.7590  219.6638 H   0  0  0  0  0  0  0  0  0  0  0  0
  141.7786   74.6179  221.1505 H   0  0  0  0  0  0  0  0  0  0  0  0
  138.7127   73.2666  219.7787 H   0  0  0  0  0  0  0  0  0  0  0  0
  136.8710   72.2770  220.8230 H   0  0  0  0  0  0  0  0  0  0  0  0
  137.6900   72.2300  222.3280 H   0  0  0  0  0  0  0  0  0  0  0  0
  140.6695   72.3494  219.9300 H   0  0  0  0  0  0  0  0  0  0  0  0
  142.0712   72.3583  221.8211 H   0  0  0  0  0  0  0  0  0  0  0  0
  140.9642   73.6418  222.2745 H   0  0  0  0  0  0  0  0  0  0  0  0
  141.3384   72.7440  224.8539 H   0  0  0  0  0  0  0  0  0  0  0  0
  141.0579   72.0563  227.0918 H   0  0  0  0  0  0  0  0  0  0  0  0
  140.1389   70.4614  228.7626 H   0  0  0  0  0  0  0  0  0  0  0  0
  138.7870   68.5154  227.9529 H   0  0  0  0  0  0  0  0  0  0  0  0
  138.3832   68.2022  225.5526 H   0  0  0  0  0  0  0  0  0  0  0  0
  138.6774   68.9144  223.2329 H   0  0  0  0  0  0  0  0  0  0  0  0
  140.4514   70.0286  220.7019 H   0  0  0  0  0  0  0  0  0  0  0  0
  138.7554   70.4565  220.7394 H   0  0  0  0  0  0  0  0  0  0  0  0
  138.7738   76.2954  222.9416 H   0  0  0  0  0  0  0  0  0  0  0  0
  140.5525   76.4981  223.0104 H   0  0  0  0  0  0  0  0  0  0  0  0
  138.5581   77.6570  221.0758 H   0  0  0  0  0  0  0  0  0  0  0  0
  139.8212   78.4743  222.1229 H   0  0  0  0  0  0  0  0  0  0  0  0
  1  2  1  0
  2  3  1  0
  3  4  2  0
  3  5  1  0
  5  6  1  0
  6  7  2  0
  7  8  1  0
  8  9  2  0
  9 10  1  0
 10 11  2  0
  5 12  1  0
 12 13  1  0
 13 14  1  0
 14 15  1  0
 15 16  1  0
 16 17  2  0
 16 18  1  0
 18 19  1  0
 18 20  1  0
 20 21  1  0
 21 22  1  0
 22 23  2  0
 23 24  1  0
 24 25  2  0
 25 26  1  0
 26 27  2  0
 27 28  1  0
 28 29  2  0
 29 30  1  0
 30 31  2  0
 31 32  1  0
 15 33  1  0
 33 34  1  0
 11  6  1  0
 34 12  1  0
 32 20  1  0
 31 22  1  0
 29 24  1  0
  1 35  1  0
  1 36  1  0
  1 37  1  0
  2 38  1  0
  2 39  1  0
  7 40  1  0
  8 41  1  0
  9 42  1  0
 10 43  1  0
 11 44  1  0
 12 45  1  0
 13 46  1  0
 13 47  1  0
 14 48  1  0
 14 49  1  0
 18 50  1  6
 19 51  1  0
 19 52  1  0
 20 53  1  0
 21 54  1  0
 21 55  1  0
 23 56  1  0
 25 57  1  0
 26 58  1  0
 27 59  1  0
 28 60  1  0
 30 61  1  0
 32 62  1  0
 32 63  1  0
 33 64  1  0
 33 65  1  0
 34 66  1  0
 34 67  1  0
M  END
>  <smiles>  (25) 
CCC(=O)N(c1ccccc1)C1CCN(C(=O)[C@H](N)C2Cc3cc4ccccc4cc3C2)CC1

>  <score_type>  (25) 
oracle

>  <origin>  (25) 
autodockgpu

>  <m_score__min__energy>  (25) 
-8.8599999999999994

>  <m_primary>  (25) 
energy

>  <rmsd>  (25) 
3.88118102299488

>  <m_score__min__rmsd>  (25) 
3.88118102299488

>  <meeko>  (25) 
{"free_energy": -8.16, "intermolecular_energy": -10.25, "internal_energy": -2.25, "cluster_size": 8, "cluster_id": 3, "rank_in_cluster": 3}

>  <energy>  (25) 
-8.14

>  <cluster_rmsd>  (25) 
0.5

>  <cluster>  (25) 
5

$$$$

     RDKit          3D

 67 71  0  0  0  0  0  0  0  0999 V2000
  136.4420   68.5610  222.9940 C   0  0  0  0  0  0  0  0  0  0  0  0
  137.9070   68.5460  222.5780 C   0  0  0  0  0  0  0  0  0  0  0  0
  138.8020   68.6740  223.7270 C   0  0  0  0  0  0  0  0  0  0  0  0
  139.2120   67.5720  224.2360 O   0  0  0  0  0  0  0  0  0  0  0  0
  139.2590   69.8510  224.3350 N   0  0  0  0  0  0  0  0  0  0  0  0
  139.7480   69.7640  225.6910 C   0  0  0  0  0  0  0  0  0  0  0  0
  140.6290   70.7260  226.1850 C   0  0  0  0  0  0  0  0  0  0  0  0
  141.0940   70.6790  227.5000 C   0  0  0  0  0  0  0  0  0  0  0  0
  140.6980   69.6770  228.3540 C   0  0  0  0  0  0  0  0  0  0  0  0
  139.8350   68.7320  227.8700 C   0  0  0  0  0  0  0  0  0  0  0  0
  139.3630   68.7730  226.5550 C   0  0  0  0  0  0  0  0  0  0  0  0
  139.2760   71.1660  223.7380 C   0  0  0  0  0  0  0  0  0  0  0  0
  140.4580   71.3740  222.8180 C   0  0  0  0  0  0  0  0  0  0  0  0
  140.4530   72.7180  222.1690 C   0  0  0  0  0  0  0  0  0  0  0  0
  139.1360   73.2290  221.9100 N   0  0  0  0  0  0  0  0  0  0  0  0
  138.7910   74.5810  221.7010 C   0  0  0  0  0  0  0  0  0  0  0  0
  137.5630   74.8960  221.4890 O   0  0  0  0  0  0  0  0  0  0  0  0
  139.7350   75.7170  221.6970 C   0  0  2  0  0  0  0  0  0  0  0  0
  139.1410   76.8890  222.3530 N   0  0  0  0  0  0  0  0  0  0  0  0
  140.2120   76.1450  220.3520 C   0  0  0  0  0  0  0  0  0  0  0  0
  141.6480   76.6270  220.3620 C   0  0  0  0  0  0  0  0  0  0  0  0
  142.4360   75.3780  220.1700 C   0  0  0  0  0  0  0  0  0  0  0  0
  143.7800   75.1890  220.4290 C   0  0  0  0  0  0  0  0  0  0  0  0
  144.3720   73.9720  220.1940 C   0  0  0  0  0  0  0  0  0  0  0  0
  145.7120   73.8080  220.4540 C   0  0  0  0  0  0  0  0  0  0  0  0
  146.3220   72.5990  220.2210 C   0  0  0  0  0  0  0  0  0  0  0  0
  145.5500   71.5570  219.7170 C   0  0  0  0  0  0  0  0  0  0  0  0
  144.2080   71.7450  219.4640 C   0  0  0  0  0  0  0  0  0  0  0  0
  143.5700   72.9520  219.6900 C   0  0  0  0  0  0  0  0  0  0  0  0
  142.2340   73.1590  219.4380 C   0  0  0  0  0  0  0  0  0  0  0  0
  141.6140   74.3840  219.6700 C   0  0  0  0  0  0  0  0  0  0  0  0
  140.2320   74.8900  219.4850 C   0  0  0  0  0  0  0  0  0  0  0  0
  138.0490   72.2500  221.8400 C   0  0  0  0  0  0  0  0  0  0  0  0
  137.9530   71.5460  223.1440 C   0  0  0  0  0  0  0  0  0  0  0  0
  136.3726   68.5617  224.0918 H   0  0  0  0  0  0  0  0  0  0  0  0
  135.9569   69.4642  222.5953 H   0  0  0  0  0  0  0  0  0  0  0  0
  135.9385   67.6680  222.5953 H   0  0  0  0  0  0  0  0  0  0  0  0
  138.1211   67.5970  222.0646 H   0  0  0  0  0  0  0  0  0  0  0  0
  138.0811   69.4049  221.9132 H   0  0  0  0  0  0  0  0  0  0  0  0
  140.9643   71.5389  225.5241 H   0  0  0  0  0  0  0  0  0  0  0  0
  141.7870   71.4545  227.8582 H   0  0  0  0  0  0  0  0  0  0  0  0
  141.0625   69.6364  229.3910 H   0  0  0  0  0  0  0  0  0  0  0  0
  139.5041   67.9190  228.5329 H   0  0  0  0  0  0  0  0  0  0  0  0
  138.6686   67.9941  226.2069 H   0  0  0  0  0  0  0  0  0  0  0  0
  139.4318   71.8847  224.5560 H   0  0  0  0  0  0  0  0  0  0  0  0
  141.3829   71.2697  223.4042 H   0  0  0  0  0  0  0  0  0  0  0  0
  140.3949   70.6194  222.0201 H   0  0  0  0  0  0  0  0  0  0  0  0
  140.9760   73.4248  222.8300 H   0  0  0  0  0  0  0  0  0  0  0  0
  140.9520   72.6066  221.1950 H   0  0  0  0  0  0  0  0  0  0  0  0
  140.6091   75.3349  222.2448 H   0  0  0  0  0  0  0  0  0  0  0  0
  139.2510   76.8580  223.3930 H   0  0  0  0  0  0  0  0  0  0  0  0
  138.1230   76.8990  222.1020 H   0  0  0  0  0  0  0  0  0  0  0  0
  139.5557   76.9557  220.0028 H   0  0  0  0  0  0  0  0  0  0  0  0
  141.8301   77.3367  219.5415 H   0  0  0  0  0  0  0  0  0  0  0  0
  141.9133   77.1630  221.2852 H   0  0  0  0  0  0  0  0  0  0  0  0
  144.3809   76.0201  220.8267 H   0  0  0  0  0  0  0  0  0  0  0  0
  146.2991   74.6493  220.8508 H   0  0  0  0  0  0  0  0  0  0  0  0
  147.3933   72.4586  220.4276 H   0  0  0  0  0  0  0  0  0  0  0  0
  146.0126   70.5787  219.5195 H   0  0  0  0  0  0  0  0  0  0  0  0
  143.6217   70.9031  219.0672 H   0  0  0  0  0  0  0  0  0  0  0  0
  141.6341   72.3277  219.0392 H   0  0  0  0  0  0  0  0  0  0  0  0
  140.0374   75.1341  218.4302 H   0  0  0  0  0  0  0  0  0  0  0  0
  139.4596   74.1574  219.7618 H   0  0  0  0  0  0  0  0  0  0  0  0
  137.1007   72.7653  221.6276 H   0  0  0  0  0  0  0  0  0  0  0  0
  138.2509   71.5246  221.0381 H   0  0  0  0  0  0  0  0  0  0  0  0
  137.4330   72.2056  223.8543 H   0  0  0  0  0  0  0  0  0  0  0  0
  137.4103   70.6077  222.9566 H   0  0  0  0  0  0  0  0  0  0  0  0
  1  2  1  0
  2  3  1  0
  3  4  2  0
  3  5  1  0
  5  6  1  0
  6  7  2  0
  7  8  1  0
  8  9  2  0
  9 10  1  0
 10 11  2  0
  5 12  1  0
 12 13  1  0
 13 14  1  0
 14 15  1  0
 15 16  1  0
 16 17  2  0
 16 18  1  0
 18 19  1  0
 18 20  1  0
 20 21  1  0
 21 22  1  0
 22 23  2  0
 23 24  1  0
 24 25  2  0
 25 26  1  0
 26 27  2  0
 27 28  1  0
 28 29  2  0
 29 30  1  0
 30 31  2  0
 31 32  1  0
 15 33  1  0
 33 34  1  0
 11  6  1  0
 34 12  1  0
 32 20  1  0
 31 22  1  0
 29 24  1  0
  1 35  1  0
  1 36  1  0
  1 37  1  0
  2 38  1  0
  2 39  1  0
  7 40  1  0
  8 41  1  0
  9 42  1  0
 10 43  1  0
 11 44  1  0
 12 45  1  0
 13 46  1  0
 13 47  1  0
 14 48  1  0
 14 49  1  0
 18 50  1  1
 19 51  1  0
 19 52  1  0
 20 53  1  0
 21 54  1  0
 21 55  1  0
 23 56  1  0
 25 57  1  0
 26 58  1  0
 27 59  1  0
 28 60  1  0
 30 61  1  0
 32 62  1  0
 32 63  1  0
 33 64  1  0
 33 65  1  0
 34 66  1  0
 34 67  1  0
M  END
>  <smiles>  (26) 
CCC(=O)N(c1ccccc1)C1CCN(C(=O)[C@H](N)C2Cc3cc4ccccc4cc3C2)CC1

>  <score_type>  (26) 
oracle

>  <origin>  (26) 
autodockgpu

>  <m_score__min__energy>  (26) 
-8.8599999999999994

>  <m_primary>  (26) 
energy

>  <rmsd>  (26) 
7.5034752676474135

>  <m_score__min__rmsd>  (26) 
7.5034752676474135

>  <meeko>  (26) 
{"free_energy": -7.98, "intermolecular_energy": -10.07, "internal_energy": -2.37, "cluster_size": 21, "cluster_id": 5, "rank_in_cluster": 5}

>  <energy>  (26) 
-8.04

>  <cluster_rmsd>  (26) 
0.3

>  <cluster>  (26) 
5

$$$$

     RDKit          3D

 67 71  0  0  0  0  0  0  0  0999 V2000
  139.0430   68.4110  221.7790 C   0  0  0  0  0  0  0  0  0  0  0  0
  138.8320   67.9170  223.2040 C   0  0  0  0  0  0  0  0  0  0  0  0
  138.3340   68.9760  224.0810 C   0  0  0  0  0  0  0  0  0  0  0  0
  137.1160   68.8530  224.4630 O   0  0  0  0  0  0  0  0  0  0  0  0
  139.0220   70.1040  224.5460 N   0  0  0  0  0  0  0  0  0  0  0  0
  139.7030   70.0030  225.8150 C   0  0  0  0  0  0  0  0  0  0  0  0
  139.7780   68.7800  226.4810 C   0  0  0  0  0  0  0  0  0  0  0  0
  140.4530   68.6520  227.6950 C   0  0  0  0  0  0  0  0  0  0  0  0
  141.0680   69.7350  228.2790 C   0  0  0  0  0  0  0  0  0  0  0  0
  140.9950   70.9360  227.6280 C   0  0  0  0  0  0  0  0  0  0  0  0
  140.3220   71.0720  226.4090 C   0  0  0  0  0  0  0  0  0  0  0  0
  139.1080   71.3830  223.8810 C   0  0  0  0  0  0  0  0  0  0  0  0
  140.3560   71.5200  223.0380 C   0  0  0  0  0  0  0  0  0  0  0  0
  140.4240   72.8260  222.3180 C   0  0  0  0  0  0  0  0  0  0  0  0
  139.1400   73.3430  221.9370 N   0  0  0  0  0  0  0  0  0  0  0  0
  138.8380   74.6860  221.6300 C   0  0  0  0  0  0  0  0  0  0  0  0
  137.6340   75.0080  221.3140 O   0  0  0  0  0  0  0  0  0  0  0  0
  139.8020   75.8040  221.6320 C   0  0  2  0  0  0  0  0  0  0  0  0
  139.2220   76.9900  222.2770 N   0  0  0  0  0  0  0  0  0  0  0  0
  140.3010   76.2190  220.2900 C   0  0  0  0  0  0  0  0  0  0  0  0
  141.7490   76.6650  220.3120 C   0  0  0  0  0  0  0  0  0  0  0  0
  142.5080   75.3970  220.1290 C   0  0  0  0  0  0  0  0  0  0  0  0
  143.8440   75.1760  220.4000 C   0  0  0  0  0  0  0  0  0  0  0  0
  144.4080   73.9440  220.1730 C   0  0  0  0  0  0  0  0  0  0  0  0
  145.7410   73.7480  220.4450 C   0  0  0  0  0  0  0  0  0  0  0  0
  146.3240   72.5240  220.2190 C   0  0  0  0  0  0  0  0  0  0  0  0
  145.5310   71.5000  219.7100 C   0  0  0  0  0  0  0  0  0  0  0  0
  144.1960   71.7210  219.4450 C   0  0  0  0  0  0  0  0  0  0  0  0
  143.5860   72.9430  219.6630 C   0  0  0  0  0  0  0  0  0  0  0  0
  142.2580   73.1830  219.3990 C   0  0  0  0  0  0  0  0  0  0  0  0
  141.6660   74.4230  219.6240 C   0  0  0  0  0  0  0  0  0  0  0  0
  140.2980   74.9610  219.4250 C   0  0  0  0  0  0  0  0  0  0  0  0
  138.0400   72.3790  221.8430 C   0  0  0  0  0  0  0  0  0  0  0  0
  137.8390   71.7510  223.1730 C   0  0  0  0  0  0  0  0  0  0  0  0
  139.4750   69.4224  221.8017 H   0  0  0  0  0  0  0  0  0  0  0  0
  139.7292   67.7309  221.2530 H   0  0  0  0  0  0  0  0  0  0  0  0
  138.0773   68.4365  221.2530 H   0  0  0  0  0  0  0  0  0  0  0  0
  138.1022   67.0941  223.1905 H   0  0  0  0  0  0  0  0  0  0  0  0
  139.8033   67.5798  223.5949 H   0  0  0  0  0  0  0  0  0  0  0  0
  139.2940   67.8965  226.0391 H   0  0  0  0  0  0  0  0  0  0  0  0
  140.4941   67.6716  228.1921 H   0  0  0  0  0  0  0  0  0  0  0  0
  141.6003   69.6386  229.2368 H   0  0  0  0  0  0  0  0  0  0  0  0
  141.4780   71.8176  228.0746 H   0  0  0  0  0  0  0  0  0  0  0  0
  140.2890   72.0557  225.9178 H   0  0  0  0  0  0  0  0  0  0  0  0
  139.2198   72.1431  224.6683 H   0  0  0  0  0  0  0  0  0  0  0  0
  141.2349   71.4334  223.6937 H   0  0  0  0  0  0  0  0  0  0  0  0
  140.3342   70.7232  222.2799 H   0  0  0  0  0  0  0  0  0  0  0  0
  140.9126   73.5600  222.9757 H   0  0  0  0  0  0  0  0  0  0  0  0
  140.9886   72.6522  221.3901 H   0  0  0  0  0  0  0  0  0  0  0  0
  140.6628   75.4078  222.1906 H   0  0  0  0  0  0  0  0  0  0  0  0
  139.4500   77.0360  223.2970 H   0  0  0  0  0  0  0  0  0  0  0  0
  138.1850   76.9350  222.1450 H   0  0  0  0  0  0  0  0  0  0  0  0
  139.6681   77.0453  219.9340 H   0  0  0  0  0  0  0  0  0  0  0  0
  141.9559   77.3685  219.4921 H   0  0  0  0  0  0  0  0  0  0  0  0
  142.0191   77.1955  221.2370 H   0  0  0  0  0  0  0  0  0  0  0  0
  144.4617   75.9932  220.8009 H   0  0  0  0  0  0  0  0  0  0  0  0
  146.3447   74.5755  220.8459 H   0  0  0  0  0  0  0  0  0  0  0  0
  147.3898   72.3582  220.4349 H   0  0  0  0  0  0  0  0  0  0  0  0
  145.9710   70.5102  219.5183 H   0  0  0  0  0  0  0  0  0  0  0  0
  143.5926   70.8930  219.0446 H   0  0  0  0  0  0  0  0  0  0  0  0
  141.6414   72.3662  218.9957 H   0  0  0  0  0  0  0  0  0  0  0  0
  140.1188   75.2072  218.3680 H   0  0  0  0  0  0  0  0  0  0  0  0
  139.5056   74.2478  219.6959 H   0  0  0  0  0  0  0  0  0  0  0  0
  137.1196   72.8972  221.5360 H   0  0  0  0  0  0  0  0  0  0  0  0
  138.2825   71.6069  221.0980 H   0  0  0  0  0  0  0  0  0  0  0  0
  137.2836   72.4578  223.8070 H   0  0  0  0  0  0  0  0  0  0  0  0
  137.2929   70.8123  222.9982 H   0  0  0  0  0  0  0  0  0  0  0  0
  1  2  1  0
  2  3  1  0
  3  4  2  0
  3  5  1  0
  5  6  1  0
  6  7  2  0
  7  8  1  0
  8  9  2  0
  9 10  1  0
 10 11  2  0
  5 12  1  0
 12 13  1  0
 13 14  1  0
 14 15  1  0
 15 16  1  0
 16 17  2  0
 16 18  1  0
 18 19  1  0
 18 20  1  0
 20 21  1  0
 21 22  1  0
 22 23  2  0
 23 24  1  0
 24 25  2  0
 25 26  1  0
 26 27  2  0
 27 28  1  0
 28 29  2  0
 29 30  1  0
 30 31  2  0
 31 32  1  0
 15 33  1  0
 33 34  1  0
 11  6  1  0
 34 12  1  0
 32 20  1  0
 31 22  1  0
 29 24  1  0
  1 35  1  0
  1 36  1  0
  1 37  1  0
  2 38  1  0
  2 39  1  0
  7 40  1  0
  8 41  1  0
  9 42  1  0
 10 43  1  0
 11 44  1  0
 12 45  1  0
 13 46  1  0
 13 47  1  0
 14 48  1  0
 14 49  1  0
 18 50  1  1
 19 51  1  0
 19 52  1  0
 20 53  1  0
 21 54  1  0
 21 55  1  0
 23 56  1  0
 25 57  1  0
 26 58  1  0
 27 59  1  0
 28 60  1  0
 30 61  1  0
 32 62  1  0
 32 63  1  0
 33 64  1  0
 33 65  1  0
 34 66  1  0
 34 67  1  0
M  END
>  <smiles>  (27) 
CCC(=O)N(c1ccccc1)C1CCN(C(=O)[C@H](N)C2Cc3cc4ccccc4cc3C2)CC1

>  <score_type>  (27) 
oracle

>  <origin>  (27) 
autodockgpu

>  <m_score__min__energy>  (27) 
-8.8599999999999994

>  <m_primary>  (27) 
energy

>  <rmsd>  (27) 
7.5534392665928864

>  <m_score__min__rmsd>  (27) 
7.5534392665928864

>  <meeko>  (27) 
{"free_energy": -7.67, "intermolecular_energy": -9.76, "internal_energy": -2.79, "cluster_size": 21, "cluster_id": 5, "rank_in_cluster": 15}

>  <energy>  (27) 
-7.98

>  <cluster_rmsd>  (27) 
0.64

>  <cluster>  (27) 
5

$$$$

     RDKit          3D

 67 71  0  0  0  0  0  0  0  0999 V2000
  142.7880   77.6350  217.1740 C   0  0  0  0  0  0  0  0  0  0  0  0
  142.5630   78.4720  218.4260 C   0  0  0  0  0  0  0  0  0  0  0  0
  141.3460   78.0790  219.1350 C   0  0  0  0  0  0  0  0  0  0  0  0
  140.2440   78.3890  218.5600 O   0  0  0  0  0  0  0  0  0  0  0  0
  141.2430   77.4110  220.3620 N   0  0  0  0  0  0  0  0  0  0  0  0
  141.1650   78.2100  221.5620 C   0  0  0  0  0  0  0  0  0  0  0  0
  142.2280   79.0320  221.9320 C   0  0  0  0  0  0  0  0  0  0  0  0
  142.1660   79.8340  223.0730 C   0  0  0  0  0  0  0  0  0  0  0  0
  141.0490   79.8370  223.8730 C   0  0  0  0  0  0  0  0  0  0  0  0
  140.0050   79.0300  223.5130 C   0  0  0  0  0  0  0  0  0  0  0  0
  140.0580   78.2250  222.3700 C   0  0  0  0  0  0  0  0  0  0  0  0
  141.2220   75.9790  220.5530 C   0  0  0  0  0  0  0  0  0  0  0  0
  140.1780   75.2920  219.7020 C   0  0  0  0  0  0  0  0  0  0  0  0
  140.1840   73.8090  219.8680 C   0  0  0  0  0  0  0  0  0  0  0  0
  141.4860   73.2630  220.1330 N   0  0  0  0  0  0  0  0  0  0  0  0
  141.7630   72.0130  220.7250 C   0  0  0  0  0  0  0  0  0  0  0  0
  142.9830   71.6580  220.9120 O   0  0  0  0  0  0  0  0  0  0  0  0
  140.7530   71.0300  221.1660 C   0  0  2  0  0  0  0  0  0  0  0  0
  140.2710   70.2330  220.0290 N   0  0  0  0  0  0  0  0  0  0  0  0
  139.5610   71.6040  221.8520 C   0  0  0  0  0  0  0  0  0  0  0  0
  138.6850   70.5470  222.4950 C   0  0  0  0  0  0  0  0  0  0  0  0
  139.2910   70.3640  223.8430 C   0  0  0  0  0  0  0  0  0  0  0  0
  139.1010   69.3040  224.7080 C   0  0  0  0  0  0  0  0  0  0  0  0
  139.7290   69.2790  225.9300 C   0  0  0  0  0  0  0  0  0  0  0  0
  139.5220   68.2170  226.7770 C   0  0  0  0  0  0  0  0  0  0  0  0
  140.1370   68.1760  228.0050 C   0  0  0  0  0  0  0  0  0  0  0  0
  140.9680   69.2350  228.3610 C   0  0  0  0  0  0  0  0  0  0  0  0
  141.1600   70.2890  227.4950 C   0  0  0  0  0  0  0  0  0  0  0  0
  140.5520   70.3540  226.2540 C   0  0  0  0  0  0  0  0  0  0  0  0
  140.7280   71.4010  225.3790 C   0  0  0  0  0  0  0  0  0  0  0  0
  140.1030   71.4450  224.1360 C   0  0  0  0  0  0  0  0  0  0  0  0
  140.0960   72.4260  223.0220 C   0  0  0  0  0  0  0  0  0  0  0  0
  142.6370   74.0770  219.7350 C   0  0  0  0  0  0  0  0  0  0  0  0
  142.5880   75.3670  220.4700 C   0  0  0  0  0  0  0  0  0  0  0  0
  143.0635   76.6100  217.4628 H   0  0  0  0  0  0  0  0  0  0  0  0
  141.8641   77.6120  216.5774 H   0  0  0  0  0  0  0  0  0  0  0  0
  143.5988   78.0783  216.5774 H   0  0  0  0  0  0  0  0  0  0  0  0
  143.4236   78.3432  219.0989 H   0  0  0  0  0  0  0  0  0  0  0  0
  142.4532   79.5223  218.1179 H   0  0  0  0  0  0  0  0  0  0  0  0
  143.1359   79.0492  221.3112 H   0  0  0  0  0  0  0  0  0  0  0  0
  143.0229   80.4720  223.3350 H   0  0  0  0  0  0  0  0  0  0  0  0
  140.9961   80.4673  224.7729 H   0  0  0  0  0  0  0  0  0  0  0  0
  139.1002   79.0135  224.1384 H   0  0  0  0  0  0  0  0  0  0  0  0
  139.1951   77.5923  222.1150 H   0  0  0  0  0  0  0  0  0  0  0  0
  140.8973   75.8016  221.5889 H   0  0  0  0  0  0  0  0  0  0  0  0
  139.1861   75.6738  219.9855 H   0  0  0  0  0  0  0  0  0  0  0  0
  140.4121   75.5093  218.6494 H   0  0  0  0  0  0  0  0  0  0  0  0
  139.5217   73.5508  220.7074 H   0  0  0  0  0  0  0  0  0  0  0  0
  139.8421   73.3775  218.9157 H   0  0  0  0  0  0  0  0  0  0  0  0
  141.2889   70.4160  221.9048 H   0  0  0  0  0  0  0  0  0  0  0  0
  140.7350   69.2970  219.9790 H   0  0  0  0  0  0  0  0  0  0  0  0
  140.4780   70.7810  219.1610 H   0  0  0  0  0  0  0  0  0  0  0  0
  138.9756   72.1604  221.1052 H   0  0  0  0  0  0  0  0  0  0  0  0
  137.6446   70.8949  222.5759 H   0  0  0  0  0  0  0  0  0  0  0  0
  138.6442   69.6138  221.9140 H   0  0  0  0  0  0  0  0  0  0  0  0
  138.4417   68.4732  224.4163 H   0  0  0  0  0  0  0  0  0  0  0  0
  138.8596   67.3943  226.4699 H   0  0  0  0  0  0  0  0  0  0  0  0
  139.9771   67.3292  228.6886 H   0  0  0  0  0  0  0  0  0  0  0  0
  141.4734   69.2300  229.3380 H   0  0  0  0  0  0  0  0  0  0  0  0
  141.8228   71.1113  227.8023 H   0  0  0  0  0  0  0  0  0  0  0  0
  141.3857   72.2326  225.6720 H   0  0  0  0  0  0  0  0  0  0  0  0
  139.4334   73.2750  223.2457 H   0  0  0  0  0  0  0  0  0  0  0  0
  141.0829   72.8709  222.8269 H   0  0  0  0  0  0  0  0  0  0  0  0
  143.5683   73.5461  219.9817 H   0  0  0  0  0  0  0  0  0  0  0  0
  142.6065   74.2629  218.6513 H   0  0  0  0  0  0  0  0  0  0  0  0
  142.9506   75.1939  221.4940 H   0  0  0  0  0  0  0  0  0  0  0  0
  143.2158   76.0737  219.9075 H   0  0  0  0  0  0  0  0  0  0  0  0
  1  2  1  0
  2  3  1  0
  3  4  2  0
  3  5  1  0
  5  6  1  0
  6  7  2  0
  7  8  1  0
  8  9  2  0
  9 10  1  0
 10 11  2  0
  5 12  1  0
 12 13  1  0
 13 14  1  0
 14 15  1  0
 15 16  1  0
 16 17  2  0
 16 18  1  0
 18 19  1  0
 18 20  1  0
 20 21  1  0
 21 22  1  0
 22 23  2  0
 23 24  1  0
 24 25  2  0
 25 26  1  0
 26 27  2  0
 27 28  1  0
 28 29  2  0
 29 30  1  0
 30 31  2  0
 31 32  1  0
 15 33  1  0
 33 34  1  0
 11  6  1  0
 34 12  1  0
 32 20  1  0
 31 22  1  0
 29 24  1  0
  1 35  1  0
  1 36  1  0
  1 37  1  0
  2 38  1  0
  2 39  1  0
  7 40  1  0
  8 41  1  0
  9 42  1  0
 10 43  1  0
 11 44  1  0
 12 45  1  0
 13 46  1  0
 13 47  1  0
 14 48  1  0
 14 49  1  0
 18 50  1  1
 19 51  1  0
 19 52  1  0
 20 53  1  0
 21 54  1  0
 21 55  1  0
 23 56  1  0
 25 57  1  0
 26 58  1  0
 27 59  1  0
 28 60  1  0
 30 61  1  0
 32 62  1  0
 32 63  1  0
 33 64  1  0
 33 65  1  0
 34 66  1  0
 34 67  1  0
M  END
>  <smiles>  (28) 
CCC(=O)N(c1ccccc1)C1CCN(C(=O)[C@H](N)C2Cc3cc4ccccc4cc3C2)CC1

>  <score_type>  (28) 
oracle

>  <origin>  (28) 
autodockgpu

>  <m_score__min__energy>  (28) 
-8.8599999999999994

>  <m_primary>  (28) 
energy

>  <rmsd>  (28) 
2.9183184099556154

>  <m_score__min__rmsd>  (28) 
2.9183184099556154

>  <meeko>  (28) 
{"free_energy": -8.29, "intermolecular_energy": -10.38, "internal_energy": -1.8, "cluster_size": 5, "cluster_id": 2, "rank_in_cluster": 5}

>  <energy>  (28) 
-7.95

>  <cluster_rmsd>  (28) 
0.35

>  <cluster>  (28) 
5

$$$$

     RDKit          3D

 67 71  0  0  0  0  0  0  0  0999 V2000
  138.7840   66.8100  222.4630 C   0  0  0  0  0  0  0  0  0  0  0  0
  138.8210   68.3200  222.6550 C   0  0  0  0  0  0  0  0  0  0  0  0
  138.9410   68.6880  224.0650 C   0  0  0  0  0  0  0  0  0  0  0  0
  138.5150   67.8180  224.9040 O   0  0  0  0  0  0  0  0  0  0  0  0
  139.4600   69.8730  224.6040 N   0  0  0  0  0  0  0  0  0  0  0  0
  140.0580   69.8120  225.9160 C   0  0  0  0  0  0  0  0  0  0  0  0
  140.4720   68.5910  226.4480 C   0  0  0  0  0  0  0  0  0  0  0  0
  141.0770   68.5100  227.7030 C   0  0  0  0  0  0  0  0  0  0  0  0
  141.2840   69.6380  228.4600 C   0  0  0  0  0  0  0  0  0  0  0  0
  140.8790   70.8370  227.9410 C   0  0  0  0  0  0  0  0  0  0  0  0
  140.2730   70.9270  226.6830 C   0  0  0  0  0  0  0  0  0  0  0  0
  139.4430   71.1730  223.9750 C   0  0  0  0  0  0  0  0  0  0  0  0
  140.6060   71.3810  223.0310 C   0  0  0  0  0  0  0  0  0  0  0  0
  140.5650   72.7090  222.3510 C   0  0  0  0  0  0  0  0  0  0  0  0
  139.2350   73.1880  222.1000 N   0  0  0  0  0  0  0  0  0  0  0  0
  138.8610   74.5280  221.8640 C   0  0  0  0  0  0  0  0  0  0  0  0
  137.6240   74.8140  221.6640 O   0  0  0  0  0  0  0  0  0  0  0  0
  139.7820   75.6810  221.8180 C   0  0  2  0  0  0  0  0  0  0  0  0
  139.1810   76.8530  222.4670 N   0  0  0  0  0  0  0  0  0  0  0  0
  140.2190   76.0940  220.4540 C   0  0  0  0  0  0  0  0  0  0  0  0
  141.6560   76.5730  220.4160 C   0  0  0  0  0  0  0  0  0  0  0  0
  142.4360   75.3200  220.2140 C   0  0  0  0  0  0  0  0  0  0  0  0
  143.7860   75.1310  220.4340 C   0  0  0  0  0  0  0  0  0  0  0  0
  144.3690   73.9100  220.1950 C   0  0  0  0  0  0  0  0  0  0  0  0
  145.7150   73.7460  220.4160 C   0  0  0  0  0  0  0  0  0  0  0  0
  146.3160   72.5330  220.1770 C   0  0  0  0  0  0  0  0  0  0  0  0
  145.5270   71.4870  219.7080 C   0  0  0  0  0  0  0  0  0  0  0  0
  144.1790   71.6760  219.4940 C   0  0  0  0  0  0  0  0  0  0  0  0
  143.5500   72.8860  219.7260 C   0  0  0  0  0  0  0  0  0  0  0  0
  142.2070   73.0940  219.5120 C   0  0  0  0  0  0  0  0  0  0  0  0
  141.5970   74.3230  219.7500 C   0  0  0  0  0  0  0  0  0  0  0  0
  140.2100   74.8290  219.6000 C   0  0  0  0  0  0  0  0  0  0  0  0
  138.1660   72.1870  222.0710 C   0  0  0  0  0  0  0  0  0  0  0  0
  138.1040   71.5140  223.3930 C   0  0  0  0  0  0  0  0  0  0  0  0
  138.7719   66.3156  223.4456 H   0  0  0  0  0  0  0  0  0  0  0  0
  137.8788   66.5337  221.9024 H   0  0  0  0  0  0  0  0  0  0  0  0
  139.6746   66.4897  221.9024 H   0  0  0  0  0  0  0  0  0  0  0  0
  139.6833   68.7271  222.1067 H   0  0  0  0  0  0  0  0  0  0  0  0
  137.8764   68.7352  222.2737 H   0  0  0  0  0  0  0  0  0  0  0  0
  140.3182   67.6709  225.8651 H   0  0  0  0  0  0  0  0  0  0  0  0
  141.3923   67.5303  228.0913 H   0  0  0  0  0  0  0  0  0  0  0  0
  141.7595   69.5787  229.4502 H   0  0  0  0  0  0  0  0  0  0  0  0
  141.0337   71.7544  228.5279 H   0  0  0  0  0  0  0  0  0  0  0  0
  139.9633   71.9115  226.3025 H   0  0  0  0  0  0  0  0  0  0  0  0
  139.5983   71.9136  224.7734 H   0  0  0  0  0  0  0  0  0  0  0  0
  141.5420   71.3078  223.6042 H   0  0  0  0  0  0  0  0  0  0  0  0
  140.5446   70.6067  222.2521 H   0  0  0  0  0  0  0  0  0  0  0  0
  141.0835   73.4412  222.9874 H   0  0  0  0  0  0  0  0  0  0  0  0
  141.0518   72.5843  221.3725 H   0  0  0  0  0  0  0  0  0  0  0  0
  140.6758   75.3255  222.3517 H   0  0  0  0  0  0  0  0  0  0  0  0
  138.1540   76.7350  222.6240 H   0  0  0  0  0  0  0  0  0  0  0  0
  139.3540   77.6740  221.8400 H   0  0  0  0  0  0  0  0  0  0  0  0
  139.5542   76.9025  220.1157 H   0  0  0  0  0  0  0  0  0  0  0  0
  141.8149   77.2735  219.5829 H   0  0  0  0  0  0  0  0  0  0  0  0
  141.9497   77.1182  221.3251 H   0  0  0  0  0  0  0  0  0  0  0  0
  144.4001   75.9653  220.8039 H   0  0  0  0  0  0  0  0  0  0  0  0
  146.3152   74.5902  220.7863 H   0  0  0  0  0  0  0  0  0  0  0  0
  147.3929   72.3928  220.3520 H   0  0  0  0  0  0  0  0  0  0  0  0
  145.9812   70.5055  219.5073 H   0  0  0  0  0  0  0  0  0  0  0  0
  143.5793   70.8313  219.1241 H   0  0  0  0  0  0  0  0  0  0  0  0
  141.5935   72.2603  219.1398 H   0  0  0  0  0  0  0  0  0  0  0  0
  139.9844   75.0618  218.5489 H   0  0  0  0  0  0  0  0  0  0  0  0
  139.4446   74.1010  219.9070 H   0  0  0  0  0  0  0  0  0  0  0  0
  137.2047   72.6788  221.8612 H   0  0  0  0  0  0  0  0  0  0  0  0
  138.3694   71.4460  221.2838 H   0  0  0  0  0  0  0  0  0  0  0  0
  137.5830   72.1814  224.0952 H   0  0  0  0  0  0  0  0  0  0  0  0
  137.5764   70.5615  223.2372 H   0  0  0  0  0  0  0  0  0  0  0  0
  1  2  1  0
  2  3  1  0
  3  4  2  0
  3  5  1  0
  5  6  1  0
  6  7  2  0
  7  8  1  0
  8  9  2  0
  9 10  1  0
 10 11  2  0
  5 12  1  0
 12 13  1  0
 13 14  1  0
 14 15  1  0
 15 16  1  0
 16 17  2  0
 16 18  1  0
 18 19  1  0
 18 20  1  0
 20 21  1  0
 21 22  1  0
 22 23  2  0
 23 24  1  0
 24 25  2  0
 25 26  1  0
 26 27  2  0
 27 28  1  0
 28 29  2  0
 29 30  1  0
 30 31  2  0
 31 32  1  0
 15 33  1  0
 33 34  1  0
 11  6  1  0
 34 12  1  0
 32 20  1  0
 31 22  1  0
 29 24  1  0
  1 35  1  0
  1 36  1  0
  1 37  1  0
  2 38  1  0
  2 39  1  0
  7 40  1  0
  8 41  1  0
  9 42  1  0
 10 43  1  0
 11 44  1  0
 12 45  1  0
 13 46  1  0
 13 47  1  0
 14 48  1  0
 14 49  1  0
 18 50  1  1
 19 51  1  0
 19 52  1  0
 20 53  1  0
 21 54  1  0
 21 55  1  0
 23 56  1  0
 25 57  1  0
 26 58  1  0
 27 59  1  0
 28 60  1  0
 30 61  1  0
 32 62  1  0
 32 63  1  0
 33 64  1  0
 33 65  1  0
 34 66  1  0
 34 67  1  0
M  END
>  <smiles>  (29) 
CCC(=O)N(c1ccccc1)C1CCN(C(=O)[C@H](N)C2Cc3cc4ccccc4cc3C2)CC1

>  <score_type>  (29) 
oracle

>  <origin>  (29) 
autodockgpu

>  <m_score__min__energy>  (29) 
-8.8599999999999994

>  <m_primary>  (29) 
energy

>  <rmsd>  (29) 
7.471552802374096

>  <m_score__min__rmsd>  (29) 
7.471552802374096

>  <meeko>  (29) 
{"free_energy": -8.16, "intermolecular_energy": -10.25, "internal_energy": -2.41, "cluster_size": 21, "cluster_id": 5, "rank_in_cluster": 1}

>  <energy>  (29) 
-7.92

>  <cluster_rmsd>  (29) 
0.45

>  <cluster>  (29) 
5

$$$$

     RDKit          3D

 67 71  0  0  0  0  0  0  0  0999 V2000
  138.8550   66.6750  222.5710 C   0  0  0  0  0  0  0  0  0  0  0  0
  138.7710   68.1600  222.2450 C   0  0  0  0  0  0  0  0  0  0  0  0
  138.4370   68.9600  223.4220 C   0  0  0  0  0  0  0  0  0  0  0  0
  137.2860   68.7340  223.9380 O   0  0  0  0  0  0  0  0  0  0  0  0
  139.2190   69.9400  224.0480 N   0  0  0  0  0  0  0  0  0  0  0  0
  139.7130   69.6640  225.3760 C   0  0  0  0  0  0  0  0  0  0  0  0
  139.7500   68.3560  225.8570 C   0  0  0  0  0  0  0  0  0  0  0  0
  140.2470   68.0620  227.1280 C   0  0  0  0  0  0  0  0  0  0  0  0
  140.7180   69.0580  227.9500 C   0  0  0  0  0  0  0  0  0  0  0  0
  140.6810   70.3420  227.4800 C   0  0  0  0  0  0  0  0  0  0  0  0
  140.1860   70.6450  226.2080 C   0  0  0  0  0  0  0  0  0  0  0  0
  139.5740   71.2270  223.4950 C   0  0  0  0  0  0  0  0  0  0  0  0
  140.6710   71.1340  222.4580 C   0  0  0  0  0  0  0  0  0  0  0  0
  141.0080   72.4580  221.8570 C   0  0  0  0  0  0  0  0  0  0  0  0
  139.8880   73.3500  221.7590 N   0  0  0  0  0  0  0  0  0  0  0  0
  139.9460   74.7540  221.6320 C   0  0  0  0  0  0  0  0  0  0  0  0
  138.8550   75.4290  221.5650 O   0  0  0  0  0  0  0  0  0  0  0  0
  141.1820   75.5580  221.5610 C   0  0  2  0  0  0  0  0  0  0  0  0
  141.0160   76.8310  222.2760 N   0  0  0  0  0  0  0  0  0  0  0  0
  141.6620   75.8710  220.1860 C   0  0  0  0  0  0  0  0  0  0  0  0
  143.1710   75.8130  220.0600 C   0  0  0  0  0  0  0  0  0  0  0  0
  143.4410   74.3810  219.7570 C   0  0  0  0  0  0  0  0  0  0  0  0
  144.6460   73.7150  219.8710 C   0  0  0  0  0  0  0  0  0  0  0  0
  144.7410   72.3830  219.5460 C   0  0  0  0  0  0  0  0  0  0  0  0
  145.9510   71.7410  219.6630 C   0  0  0  0  0  0  0  0  0  0  0  0
  146.0670   70.4110  219.3370 C   0  0  0  0  0  0  0  0  0  0  0  0
  144.9320   69.7410  218.8890 C   0  0  0  0  0  0  0  0  0  0  0  0
  143.7300   70.4060  218.7800 C   0  0  0  0  0  0  0  0  0  0  0  0
  143.5880   71.7440  219.1010 C   0  0  0  0  0  0  0  0  0  0  0  0
  142.3970   72.4250  218.9930 C   0  0  0  0  0  0  0  0  0  0  0  0
  142.2780   73.7730  219.3190 C   0  0  0  0  0  0  0  0  0  0  0  0
  141.1570   74.7440  219.2890 C   0  0  0  0  0  0  0  0  0  0  0  0
  138.5550   72.7410  221.7760 C   0  0  0  0  0  0  0  0  0  0  0  0
  138.3760   72.0170  223.0600 C   0  0  0  0  0  0  0  0  0  0  0  0
  138.8627   66.5391  223.6625 H   0  0  0  0  0  0  0  0  0  0  0  0
  137.9848   66.1558  222.1430 H   0  0  0  0  0  0  0  0  0  0  0  0
  139.7782   66.2573  222.1430 H   0  0  0  0  0  0  0  0  0  0  0  0
  139.7433   68.4933  221.8531 H   0  0  0  0  0  0  0  0  0  0  0  0
  137.9733   68.3003  221.5007 H   0  0  0  0  0  0  0  0  0  0  0  0
  139.3797   67.5381  225.2214 H   0  0  0  0  0  0  0  0  0  0  0  0
  140.2619   67.0188  227.4766 H   0  0  0  0  0  0  0  0  0  0  0  0
  141.1113   68.8302  228.9517 H   0  0  0  0  0  0  0  0  0  0  0  0
  141.0503   71.1574  228.1194 H   0  0  0  0  0  0  0  0  0  0  0  0
  140.1760   71.6912  225.8684 H   0  0  0  0  0  0  0  0  0  0  0  0
  140.0149   71.8143  224.3140 H   0  0  0  0  0  0  0  0  0  0  0  0
  141.5732   70.7243  222.9356 H   0  0  0  0  0  0  0  0  0  0  0  0
  140.3090   70.4835  221.6482 H   0  0  0  0  0  0  0  0  0  0  0  0
  141.7788   72.9357  222.4796 H   0  0  0  0  0  0  0  0  0  0  0  0
  141.3560   72.2658  220.8313 H   0  0  0  0  0  0  0  0  0  0  0  0
  141.9412   74.9152  222.0305 H   0  0  0  0  0  0  0  0  0  0  0  0
  141.7830   76.9990  222.9670 H   0  0  0  0  0  0  0  0  0  0  0  0
  140.0930   76.7880  222.7700 H   0  0  0  0  0  0  0  0  0  0  0  0
  141.3112   76.8811  219.9278 H   0  0  0  0  0  0  0  0  0  0  0  0
  143.5223   76.4605  219.2431 H   0  0  0  0  0  0  0  0  0  0  0  0
  143.6897   76.1642  220.9642 H   0  0  0  0  0  0  0  0  0  0  0  0
  145.5366   74.2551  220.2247 H   0  0  0  0  0  0  0  0  0  0  0  0
  146.8317   72.2952  220.0197 H   0  0  0  0  0  0  0  0  0  0  0  0
  147.0313   69.8896  219.4277 H   0  0  0  0  0  0  0  0  0  0  0  0
  144.9949   68.6760  218.6208 H   0  0  0  0  0  0  0  0  0  0  0  0
  142.8493   69.8514  218.4239 H   0  0  0  0  0  0  0  0  0  0  0  0
  141.5075   71.8849  218.6364 H   0  0  0  0  0  0  0  0  0  0  0  0
  140.9721   75.1042  218.2662 H   0  0  0  0  0  0  0  0  0  0  0  0
  140.2008   74.3158  219.6241 H   0  0  0  0  0  0  0  0  0  0  0  0
  137.7891   73.5251  221.6839 H   0  0  0  0  0  0  0  0  0  0  0  0
  138.4536   72.0400  220.9344 H   0  0  0  0  0  0  0  0  0  0  0  0
  138.1473   72.7552  223.8428 H   0  0  0  0  0  0  0  0  0  0  0  0
  137.5619   71.2941  222.9032 H   0  0  0  0  0  0  0  0  0  0  0  0
  1  2  1  0
  2  3  1  0
  3  4  2  0
  3  5  1  0
  5  6  1  0
  6  7  2  0
  7  8  1  0
  8  9  2  0
  9 10  1  0
 10 11  2  0
  5 12  1  0
 12 13  1  0
 13 14  1  0
 14 15  1  0
 15 16  1  0
 16 17  2  0
 16 18  1  0
 18 19  1  0
 18 20  1  0
 20 21  1  0
 21 22  1  0
 22 23  2  0
 23 24  1  0
 24 25  2  0
 25 26  1  0
 26 27  2  0
 27 28  1  0
 28 29  2  0
 29 30  1  0
 30 31  2  0
 31 32  1  0
 15 33  1  0
 33 34  1  0
 11  6  1  0
 34 12  1  0
 32 20  1  0
 31 22  1  0
 29 24  1  0
  1 35  1  0
  1 36  1  0
  1 37  1  0
  2 38  1  0
  2 39  1  0
  7 40  1  0
  8 41  1  0
  9 42  1  0
 10 43  1  0
 11 44  1  0
 12 45  1  0
 13 46  1  0
 13 47  1  0
 14 48  1  0
 14 49  1  0
 18 50  1  1
 19 51  1  0
 19 52  1  0
 20 53  1  0
 21 54  1  0
 21 55  1  0
 23 56  1  0
 25 57  1  0
 26 58  1  0
 27 59  1  0
 28 60  1  0
 30 61  1  0
 32 62  1  0
 32 63  1  0
 33 64  1  0
 33 65  1  0
 34 66  1  0
 34 67  1  0
M  END
>  <smiles>  (30) 
CCC(=O)N(c1ccccc1)C1CCN(C(=O)[C@H](N)C2Cc3cc4ccccc4cc3C2)CC1

>  <score_type>  (30) 
oracle

>  <origin>  (30) 
autodockgpu

>  <m_score__min__energy>  (30) 
-8.8599999999999994

>  <m_primary>  (30) 
energy

>  <rmsd>  (30) 
7.633574566500334

>  <m_score__min__rmsd>  (30) 
7.633574566500334

>  <meeko>  (30) 
{"free_energy": -7.45, "intermolecular_energy": -9.54, "internal_energy": -2.67, "cluster_size": 21, "cluster_id": 5, "rank_in_cluster": 20}

>  <energy>  (30) 
-7.9

>  <cluster_rmsd>  (30) 
0.35

>  <cluster>  (30) 
5

$$$$

     RDKit          3D

 67 71  0  0  0  0  0  0  0  0999 V2000
  142.5970   77.7100  217.6090 C   0  0  0  0  0  0  0  0  0  0  0  0
  141.7930   78.8120  218.2860 C   0  0  0  0  0  0  0  0  0  0  0  0
  140.8730   78.2800  219.2890 C   0  0  0  0  0  0  0  0  0  0  0  0
  139.6270   78.4700  219.0540 O   0  0  0  0  0  0  0  0  0  0  0  0
  141.1880   77.5940  220.4690 N   0  0  0  0  0  0  0  0  0  0  0  0
  141.5140   78.3760  221.6380 C   0  0  0  0  0  0  0  0  0  0  0  0
  142.0100   79.6730  221.5030 C   0  0  0  0  0  0  0  0  0  0  0  0
  142.3090   80.4580  222.6180 C   0  0  0  0  0  0  0  0  0  0  0  0
  142.1230   79.9750  223.8910 C   0  0  0  0  0  0  0  0  0  0  0  0
  141.6370   78.7030  224.0260 C   0  0  0  0  0  0  0  0  0  0  0  0
  141.3340   77.9110  222.9140 C   0  0  0  0  0  0  0  0  0  0  0  0
  141.2350   76.1600  220.6340 C   0  0  0  0  0  0  0  0  0  0  0  0
  140.1510   75.4470  219.8570 C   0  0  0  0  0  0  0  0  0  0  0  0
  140.2250   73.9630  219.9940 C   0  0  0  0  0  0  0  0  0  0  0  0
  141.5630   73.4630  220.1440 N   0  0  0  0  0  0  0  0  0  0  0  0
  141.9320   72.2150  220.6880 C   0  0  0  0  0  0  0  0  0  0  0  0
  143.1760   71.9040  220.7700 O   0  0  0  0  0  0  0  0  0  0  0  0
  140.9980   71.1880  221.1900 C   0  0  2  0  0  0  0  0  0  0  0  0
  140.6010   70.2740  220.1100 N   0  0  0  0  0  0  0  0  0  0  0  0
  139.7530   71.7110  221.8190 C   0  0  0  0  0  0  0  0  0  0  0  0
  138.8750   70.6150  222.3900 C   0  0  0  0  0  0  0  0  0  0  0  0
  139.4110   70.4210  223.7660 C   0  0  0  0  0  0  0  0  0  0  0  0
  139.2060   69.3370  224.5970 C   0  0  0  0  0  0  0  0  0  0  0  0
  139.7650   69.3030  225.8520 C   0  0  0  0  0  0  0  0  0  0  0  0
  139.5440   68.2170  226.6640 C   0  0  0  0  0  0  0  0  0  0  0  0
  140.0900   68.1680  227.9240 C   0  0  0  0  0  0  0  0  0  0  0  0
  140.8660   69.2430  228.3480 C   0  0  0  0  0  0  0  0  0  0  0  0
  141.0740   70.3210  227.5150 C   0  0  0  0  0  0  0  0  0  0  0  0
  140.5350   70.3950  226.2430 C   0  0  0  0  0  0  0  0  0  0  0  0
  140.7270   71.4660  225.4010 C   0  0  0  0  0  0  0  0  0  0  0  0
  140.1710   71.5190  224.1260 C   0  0  0  0  0  0  0  0  0  0  0  0
  140.1950   72.5220  223.0340 C   0  0  0  0  0  0  0  0  0  0  0  0
  142.6480   74.3270  219.6700 C   0  0  0  0  0  0  0  0  0  0  0  0
  142.6110   75.6020  220.4310 C   0  0  0  0  0  0  0  0  0  0  0  0
  143.0623   77.0722  218.3750 H   0  0  0  0  0  0  0  0  0  0  0  0
  141.9292   77.1015  216.9815 H   0  0  0  0  0  0  0  0  0  0  0  0
  143.3803   78.1603  216.9815 H   0  0  0  0  0  0  0  0  0  0  0  0
  142.4884   79.5093  218.7761 H   0  0  0  0  0  0  0  0  0  0  0  0
  141.1973   79.3215  217.5143 H   0  0  0  0  0  0  0  0  0  0  0  0
  142.1689   80.0861  220.4960 H   0  0  0  0  0  0  0  0  0  0  0  0
  142.6987   81.4768  222.4757 H   0  0  0  0  0  0  0  0  0  0  0  0
  142.3570   80.5904  224.7722 H   0  0  0  0  0  0  0  0  0  0  0  0
  141.4807   78.2931  225.0347 H   0  0  0  0  0  0  0  0  0  0  0  0
  140.9433   76.8942  223.0669 H   0  0  0  0  0  0  0  0  0  0  0  0
  141.0017   75.9539  221.6890 H   0  0  0  0  0  0  0  0  0  0  0  0
  139.1721   75.7861  220.2267 H   0  0  0  0  0  0  0  0  0  0  0  0
  140.2906   75.6897  218.7932 H   0  0  0  0  0  0  0  0  0  0  0  0
  139.6423   73.6664  220.8786 H   0  0  0  0  0  0  0  0  0  0  0  0
  139.8239   73.5339  219.0639 H   0  0  0  0  0  0  0  0  0  0  0  0
  141.5692   70.6752  221.9779 H   0  0  0  0  0  0  0  0  0  0  0  0
  140.3490   69.3240  220.4690 H   0  0  0  0  0  0  0  0  0  0  0  0
  141.4140   70.2020  219.4540 H   0  0  0  0  0  0  0  0  0  0  0  0
  139.1942   72.2662  221.0512 H   0  0  0  0  0  0  0  0  0  0  0  0
  137.8216   70.9304  222.4193 H   0  0  0  0  0  0  0  0  0  0  0  0
  138.8945   69.6939  221.7890 H   0  0  0  0  0  0  0  0  0  0  0  0
  138.5900   68.4937  224.2514 H   0  0  0  0  0  0  0  0  0  0  0  0
  138.9261   67.3815  226.3032 H   0  0  0  0  0  0  0  0  0  0  0  0
  139.9184   67.3021  228.5803 H   0  0  0  0  0  0  0  0  0  0  0  0
  141.3151   69.2320  229.3521 H   0  0  0  0  0  0  0  0  0  0  0  0
  141.6931   71.1556  227.8758 H   0  0  0  0  0  0  0  0  0  0  0  0
  141.3414   72.3100  225.7475 H   0  0  0  0  0  0  0  0  0  0  0  0
  139.4943   73.3453  223.2369 H   0  0  0  0  0  0  0  0  0  0  0  0
  141.1770   73.0004  222.9041 H   0  0  0  0  0  0  0  0  0  0  0  0
  143.6151   73.8282  219.8310 H   0  0  0  0  0  0  0  0  0  0  0  0
  142.5233   74.5288  218.5959 H   0  0  0  0  0  0  0  0  0  0  0  0
  143.0606   75.4263  221.4194 H   0  0  0  0  0  0  0  0  0  0  0  0
  143.1654   76.3411  219.8340 H   0  0  0  0  0  0  0  0  0  0  0  0
  1  2  1  0
  2  3  1  0
  3  4  2  0
  3  5  1  0
  5  6  1  0
  6  7  2  0
  7  8  1  0
  8  9  2  0
  9 10  1  0
 10 11  2  0
  5 12  1  0
 12 13  1  0
 13 14  1  0
 14 15  1  0
 15 16  1  0
 16 17  2  0
 16 18  1  0
 18 19  1  0
 18 20  1  0
 20 21  1  0
 21 22  1  0
 22 23  2  0
 23 24  1  0
 24 25  2  0
 25 26  1  0
 26 27  2  0
 27 28  1  0
 28 29  2  0
 29 30  1  0
 30 31  2  0
 31 32  1  0
 15 33  1  0
 33 34  1  0
 11  6  1  0
 34 12  1  0
 32 20  1  0
 31 22  1  0
 29 24  1  0
  1 35  1  0
  1 36  1  0
  1 37  1  0
  2 38  1  0
  2 39  1  0
  7 40  1  0
  8 41  1  0
  9 42  1  0
 10 43  1  0
 11 44  1  0
 12 45  1  0
 13 46  1  0
 13 47  1  0
 14 48  1  0
 14 49  1  0
 18 50  1  1
 19 51  1  0
 19 52  1  0
 20 53  1  0
 21 54  1  0
 21 55  1  0
 23 56  1  0
 25 57  1  0
 26 58  1  0
 27 59  1  0
 28 60  1  0
 30 61  1  0
 32 62  1  0
 32 63  1  0
 33 64  1  0
 33 65  1  0
 34 66  1  0
 34 67  1  0
M  END
>  <smiles>  (31) 
CCC(=O)N(c1ccccc1)C1CCN(C(=O)[C@H](N)C2Cc3cc4ccccc4cc3C2)CC1

>  <score_type>  (31) 
oracle

>  <origin>  (31) 
autodockgpu

>  <m_score__min__energy>  (31) 
-8.8599999999999994

>  <m_primary>  (31) 
energy

>  <rmsd>  (31) 
2.9875804744476726

>  <m_score__min__rmsd>  (31) 
2.9875804744476726

>  <meeko>  (31) 
{"free_energy": -8.56, "intermolecular_energy": -10.65, "internal_energy": -1.78, "cluster_size": 5, "cluster_id": 2, "rank_in_cluster": 3}

>  <energy>  (31) 
-7.81

>  <cluster_rmsd>  (31) 
0.41

>  <cluster>  (31) 
5

$$$$

     RDKit          3D

 67 71  0  0  0  0  0  0  0  0999 V2000
  139.0000   68.3430  221.7320 C   0  0  0  0  0  0  0  0  0  0  0  0
  138.8220   67.8610  223.1650 C   0  0  0  0  0  0  0  0  0  0  0  0
  138.3490   68.9280  224.0450 C   0  0  0  0  0  0  0  0  0  0  0  0
  137.1300   68.8290  224.4310 O   0  0  0  0  0  0  0  0  0  0  0  0
  139.0620   70.0390  224.5120 N   0  0  0  0  0  0  0  0  0  0  0  0
  139.7580   69.9160  225.7700 C   0  0  0  0  0  0  0  0  0  0  0  0
  140.3200   71.0380  226.3780 C   0  0  0  0  0  0  0  0  0  0  0  0
  140.9750   70.9490  227.6070 C   0  0  0  0  0  0  0  0  0  0  0  0
  141.0890   69.7450  228.2610 C   0  0  0  0  0  0  0  0  0  0  0  0
  140.5390   68.6430  227.6660 C   0  0  0  0  0  0  0  0  0  0  0  0
  139.8790   68.7240  226.4350 C   0  0  0  0  0  0  0  0  0  0  0  0
  139.1600   71.3230  223.8570 C   0  0  0  0  0  0  0  0  0  0  0  0
  140.4290   71.4710  223.0480 C   0  0  0  0  0  0  0  0  0  0  0  0
  140.5110   72.7820  222.3390 C   0  0  0  0  0  0  0  0  0  0  0  0
  139.2350   73.2950  221.9270 N   0  0  0  0  0  0  0  0  0  0  0  0
  138.9350   74.6390  221.6200 C   0  0  0  0  0  0  0  0  0  0  0  0
  137.7390   74.9580  221.2730 O   0  0  0  0  0  0  0  0  0  0  0  0
  139.8940   75.7620  221.6540 C   0  0  2  0  0  0  0  0  0  0  0  0
  139.3010   76.9330  222.3140 N   0  0  0  0  0  0  0  0  0  0  0  0
  140.4070   76.2030  220.3270 C   0  0  0  0  0  0  0  0  0  0  0  0
  141.8700   76.5960  220.3630 C   0  0  0  0  0  0  0  0  0  0  0  0
  142.5830   75.3080  220.1360 C   0  0  0  0  0  0  0  0  0  0  0  0
  143.9100   75.0300  220.3970 C   0  0  0  0  0  0  0  0  0  0  0  0
  144.4300   73.7870  220.1270 C   0  0  0  0  0  0  0  0  0  0  0  0
  145.7550   73.5340  220.3910 C   0  0  0  0  0  0  0  0  0  0  0  0
  146.2930   72.2980  220.1230 C   0  0  0  0  0  0  0  0  0  0  0  0
  145.4630   71.3220  219.5800 C   0  0  0  0  0  0  0  0  0  0  0  0
  144.1380   71.5990  219.3250 C   0  0  0  0  0  0  0  0  0  0  0  0
  143.5720   72.8350  219.5850 C   0  0  0  0  0  0  0  0  0  0  0  0
  142.2530   73.1310  219.3310 C   0  0  0  0  0  0  0  0  0  0  0  0
  141.7070   74.3830  219.5990 C   0  0  0  0  0  0  0  0  0  0  0  0
  140.3590   74.9770  219.4200 C   0  0  0  0  0  0  0  0  0  0  0  0
  138.1430   72.3270  221.7970 C   0  0  0  0  0  0  0  0  0  0  0  0
  137.9080   71.6900  223.1180 C   0  0  0  0  0  0  0  0  0  0  0  0
  139.3811   69.3749  221.7369 H   0  0  0  0  0  0  0  0  0  0  0  0
  139.7163   67.6901  221.2118 H   0  0  0  0  0  0  0  0  0  0  0  0
  138.0312   68.3123  221.2118 H   0  0  0  0  0  0  0  0  0  0  0  0
  138.0894   67.0405  223.1756 H   0  0  0  0  0  0  0  0  0  0  0  0
  139.8014   67.5235  223.5349 H   0  0  0  0  0  0  0  0  0  0  0  0
  140.2454   72.0149  225.8778 H   0  0  0  0  0  0  0  0  0  0  0  0
  141.4061   71.8546  228.0587 H   0  0  0  0  0  0  0  0  0  0  0  0
  141.6049   69.6705  229.2297 H   0  0  0  0  0  0  0  0  0  0  0  0
  140.6176   67.6676  228.1684 H   0  0  0  0  0  0  0  0  0  0  0  0
  139.4490   67.8133  225.9925 H   0  0  0  0  0  0  0  0  0  0  0  0
  139.2480   72.0785  224.6517 H   0  0  0  0  0  0  0  0  0  0  0  0
  141.2907   71.3832  223.7260 H   0  0  0  0  0  0  0  0  0  0  0  0
  140.4300   70.6796  222.2840 H   0  0  0  0  0  0  0  0  0  0  0  0
  140.9780   73.5138  223.0146 H   0  0  0  0  0  0  0  0  0  0  0  0
  141.1020   72.6177  221.4259 H   0  0  0  0  0  0  0  0  0  0  0  0
  140.7501   75.3598  222.2156 H   0  0  0  0  0  0  0  0  0  0  0  0
  138.2570   76.8720  222.3630 H   0  0  0  0  0  0  0  0  0  0  0  0
  139.5830   77.7740  221.7580 H   0  0  0  0  0  0  0  0  0  0  0  0
  139.8038   77.0626  219.9994 H   0  0  0  0  0  0  0  0  0  0  0  0
  142.1023   77.3193  219.5675 H   0  0  0  0  0  0  0  0  0  0  0  0
  142.1588   77.0847  221.3052 H   0  0  0  0  0  0  0  0  0  0  0  0
  144.5566   75.8103  220.8248 H   0  0  0  0  0  0  0  0  0  0  0  0
  146.3882   74.3251  220.8191 H   0  0  0  0  0  0  0  0  0  0  0  0
  147.3519   72.0859  220.3322 H   0  0  0  0  0  0  0  0  0  0  0  0
  145.8670   70.3243  219.3533 H   0  0  0  0  0  0  0  0  0  0  0  0
  143.5051   70.8071  218.8981 H   0  0  0  0  0  0  0  0  0  0  0  0
  141.6072   72.3512  218.9011 H   0  0  0  0  0  0  0  0  0  0  0  0
  140.1891   75.2656  218.3722 H   0  0  0  0  0  0  0  0  0  0  0  0
  139.5413   74.2840  219.6672 H   0  0  0  0  0  0  0  0  0  0  0  0
  137.2290   72.8428  221.4675 H   0  0  0  0  0  0  0  0  0  0  0  0
  138.4097   71.5604  221.0546 H   0  0  0  0  0  0  0  0  0  0  0  0
  137.3330   72.3908  223.7411 H   0  0  0  0  0  0  0  0  0  0  0  0
  137.3698   70.7505  222.9236 H   0  0  0  0  0  0  0  0  0  0  0  0
  1  2  1  0
  2  3  1  0
  3  4  2  0
  3  5  1  0
  5  6  1  0
  6  7  2  0
  7  8  1  0
  8  9  2  0
  9 10  1  0
 10 11  2  0
  5 12  1  0
 12 13  1  0
 13 14  1  0
 14 15  1  0
 15 16  1  0
 16 17  2  0
 16 18  1  0
 18 19  1  0
 18 20  1  0
 20 21  1  0
 21 22  1  0
 22 23  2  0
 23 24  1  0
 24 25  2  0
 25 26  1  0
 26 27  2  0
 27 28  1  0
 28 29  2  0
 29 30  1  0
 30 31  2  0
 31 32  1  0
 15 33  1  0
 33 34  1  0
 11  6  1  0
 34 12  1  0
 32 20  1  0
 31 22  1  0
 29 24  1  0
  1 35  1  0
  1 36  1  0
  1 37  1  0
  2 38  1  0
  2 39  1  0
  7 40  1  0
  8 41  1  0
  9 42  1  0
 10 43  1  0
 11 44  1  0
 12 45  1  0
 13 46  1  0
 13 47  1  0
 14 48  1  0
 14 49  1  0
 18 50  1  1
 19 51  1  0
 19 52  1  0
 20 53  1  0
 21 54  1  0
 21 55  1  0
 23 56  1  0
 25 57  1  0
 26 58  1  0
 27 59  1  0
 28 60  1  0
 30 61  1  0
 32 62  1  0
 32 63  1  0
 33 64  1  0
 33 65  1  0
 34 66  1  0
 34 67  1  0
M  END
>  <smiles>  (32) 
CCC(=O)N(c1ccccc1)C1CCN(C(=O)[C@H](N)C2Cc3cc4ccccc4cc3C2)CC1

>  <score_type>  (32) 
oracle

>  <origin>  (32) 
autodockgpu

>  <m_score__min__energy>  (32) 
-8.8599999999999994

>  <m_primary>  (32) 
energy

>  <rmsd>  (32) 
7.536309954964703

>  <m_score__min__rmsd>  (32) 
7.536309954964703

>  <meeko>  (32) 
{"free_energy": -7.69, "intermolecular_energy": -9.78, "internal_energy": -2.73, "cluster_size": 21, "cluster_id": 5, "rank_in_cluster": 13}

>  <energy>  (32) 
-7.76

>  <cluster_rmsd>  (32) 
0.48

>  <cluster>  (32) 
5

$$$$

     RDKit          3D

 67 71  0  0  0  0  0  0  0  0999 V2000
  142.8910   81.3770  217.4850 C   0  0  0  0  0  0  0  0  0  0  0  0
  142.3370   80.1030  218.1070 C   0  0  0  0  0  0  0  0  0  0  0  0
  141.5280   80.3810  219.2920 C   0  0  0  0  0  0  0  0  0  0  0  0
  140.8700   81.4810  219.2690 O   0  0  0  0  0  0  0  0  0  0  0  0
  141.3890   79.5950  220.4440 N   0  0  0  0  0  0  0  0  0  0  0  0
  141.7890   80.1700  221.7060 C   0  0  0  0  0  0  0  0  0  0  0  0
  140.9650   81.0890  222.3560 C   0  0  0  0  0  0  0  0  0  0  0  0
  141.3180   81.6380  223.5890 C   0  0  0  0  0  0  0  0  0  0  0  0
  142.4950   81.2890  224.2070 C   0  0  0  0  0  0  0  0  0  0  0  0
  143.3050   80.3880  223.5710 C   0  0  0  0  0  0  0  0  0  0  0  0
  142.9580   79.8320  222.3350 C   0  0  0  0  0  0  0  0  0  0  0  0
  140.8930   78.2390  220.4940 C   0  0  0  0  0  0  0  0  0  0  0  0
  141.9550   77.2160  220.1590 C   0  0  0  0  0  0  0  0  0  0  0  0
  141.4530   75.8140  220.2510 C   0  0  0  0  0  0  0  0  0  0  0  0
  140.4490   75.6250  221.2610 N   0  0  0  0  0  0  0  0  0  0  0  0
  139.5150   74.5700  221.3230 C   0  0  0  0  0  0  0  0  0  0  0  0
  138.6630   74.5340  222.2840 O   0  0  0  0  0  0  0  0  0  0  0  0
  139.4140   73.4560  220.3590 C   0  0  2  0  0  0  0  0  0  0  0  0
  138.1850   72.6830  220.5850 N   0  0  0  0  0  0  0  0  0  0  0  0
  140.5560   72.5000  220.3660 C   0  0  0  0  0  0  0  0  0  0  0  0
  141.4090   72.6100  221.6140 C   0  0  0  0  0  0  0  0  0  0  0  0
  140.7300   71.7040  222.5820 C   0  0  0  0  0  0  0  0  0  0  0  0
  140.8860   71.6800  223.9540 C   0  0  0  0  0  0  0  0  0  0  0  0
  140.1910   70.7750  224.7200 C   0  0  0  0  0  0  0  0  0  0  0  0
  140.3650   70.7650  226.0830 C   0  0  0  0  0  0  0  0  0  0  0  0
  139.6820   69.8640  226.8640 C   0  0  0  0  0  0  0  0  0  0  0  0
  138.8170   68.9710  226.2380 C   0  0  0  0  0  0  0  0  0  0  0  0
  138.6600   69.0000  224.8690 C   0  0  0  0  0  0  0  0  0  0  0  0
  139.3360   69.8960  224.0610 C   0  0  0  0  0  0  0  0  0  0  0  0
  139.1940   69.9360  222.6930 C   0  0  0  0  0  0  0  0  0  0  0  0
  139.8880   70.8450  221.8990 C   0  0  0  0  0  0  0  0  0  0  0  0
  139.9450   71.1030  220.4390 C   0  0  0  0  0  0  0  0  0  0  0  0
  140.4030   76.6150  222.3400 C   0  0  0  0  0  0  0  0  0  0  0  0
  140.1300   77.9510  221.7520 C   0  0  0  0  0  0  0  0  0  0  0  0
  143.1935   82.0725  218.2817 H   0  0  0  0  0  0  0  0  0  0  0  0
  143.7636   81.1314  216.8619 H   0  0  0  0  0  0  0  0  0  0  0  0
  142.1163   81.8477  216.8619 H   0  0  0  0  0  0  0  0  0  0  0  0
  141.7122   79.5869  217.3632 H   0  0  0  0  0  0  0  0  0  0  0  0
  143.1873   79.4766  218.4146 H   0  0  0  0  0  0  0  0  0  0  0  0
  140.0162   81.3873  221.8861 H   0  0  0  0  0  0  0  0  0  0  0  0
  140.6447   82.3605  224.0735 H   0  0  0  0  0  0  0  0  0  0  0  0
  142.7762   81.7192  225.1795 H   0  0  0  0  0  0  0  0  0  0  0  0
  144.2535   80.0933  224.0438 H   0  0  0  0  0  0  0  0  0  0  0  0
  143.6371   79.1093  221.8590 H   0  0  0  0  0  0  0  0  0  0  0  0
  140.1508   78.1423  219.6879 H   0  0  0  0  0  0  0  0  0  0  0  0
  142.3069   77.3972  219.1327 H   0  0  0  0  0  0  0  0  0  0  0  0
  142.7668   77.3272  220.8929 H   0  0  0  0  0  0  0  0  0  0  0  0
  141.0234   75.5344  219.2777 H   0  0  0  0  0  0  0  0  0  0  0  0
  142.3105   75.1832  220.5282 H   0  0  0  0  0  0  0  0  0  0  0  0
  139.4155   73.9555  219.3790 H   0  0  0  0  0  0  0  0  0  0  0  0
  137.3390   73.1660  220.2040 H   0  0  0  0  0  0  0  0  0  0  0  0
  138.0870   72.5570  221.6200 H   0  0  0  0  0  0  0  0  0  0  0  0
  141.1741   72.7053  219.4796 H   0  0  0  0  0  0  0  0  0  0  0  0
  142.4381   72.2748  221.4174 H   0  0  0  0  0  0  0  0  0  0  0  0
  141.4961   73.6426  221.9831 H   0  0  0  0  0  0  0  0  0  0  0  0
  141.5721   72.3910  224.4376 H   0  0  0  0  0  0  0  0  0  0  0  0
  141.0549   71.4823  226.5515 H   0  0  0  0  0  0  0  0  0  0  0  0
  139.8154   69.8488  227.9558 H   0  0  0  0  0  0  0  0  0  0  0  0
  138.2565   68.2392  226.8383 H   0  0  0  0  0  0  0  0  0  0  0  0
  137.9701   68.2825  224.4008 H   0  0  0  0  0  0  0  0  0  0  0  0
  138.5080   69.2248  222.2097 H   0  0  0  0  0  0  0  0  0  0  0  0
  140.5826   70.3646  219.9308 H   0  0  0  0  0  0  0  0  0  0  0  0
  138.9647   71.0301  219.9453 H   0  0  0  0  0  0  0  0  0  0  0  0
  139.6037   76.3526  223.0487 H   0  0  0  0  0  0  0  0  0  0  0  0
  141.3646   76.6310  222.8740 H   0  0  0  0  0  0  0  0  0  0  0  0
  139.0555   78.0146  221.5254 H   0  0  0  0  0  0  0  0  0  0  0  0
  140.4550   78.6944  222.4947 H   0  0  0  0  0  0  0  0  0  0  0  0
  1  2  1  0
  2  3  1  0
  3  4  2  0
  3  5  1  0
  5  6  1  0
  6  7  2  0
  7  8  1  0
  8  9  2  0
  9 10  1  0
 10 11  2  0
  5 12  1  0
 12 13  1  0
 13 14  1  0
 14 15  1  0
 15 16  1  0
 16 17  2  0
 16 18  1  0
 18 19  1  0
 18 20  1  0
 20 21  1  0
 21 22  1  0
 22 23  2  0
 23 24  1  0
 24 25  2  0
 25 26  1  0
 26 27  2  0
 27 28  1  0
 28 29  2  0
 29 30  1  0
 30 31  2  0
 31 32  1  0
 15 33  1  0
 33 34  1  0
 11  6  1  0
 34 12  1  0
 32 20  1  0
 31 22  1  0
 29 24  1  0
  1 35  1  0
  1 36  1  0
  1 37  1  0
  2 38  1  0
  2 39  1  0
  7 40  1  0
  8 41  1  0
  9 42  1  0
 10 43  1  0
 11 44  1  0
 12 45  1  0
 13 46  1  0
 13 47  1  0
 14 48  1  0
 14 49  1  0
 18 50  1  6
 19 51  1  0
 19 52  1  0
 20 53  1  0
 21 54  1  0
 21 55  1  0
 23 56  1  0
 25 57  1  0
 26 58  1  0
 27 59  1  0
 28 60  1  0
 30 61  1  0
 32 62  1  0
 32 63  1  0
 33 64  1  0
 33 65  1  0
 34 66  1  0
 34 67  1  0
M  END
>  <smiles>  (33) 
CCC(=O)N(c1ccccc1)C1CCN(C(=O)[C@H](N)C2Cc3cc4ccccc4cc3C2)CC1

>  <score_type>  (33) 
oracle

>  <origin>  (33) 
autodockgpu

>  <m_score__min__energy>  (33) 
-8.8599999999999994

>  <m_primary>  (33) 
energy

>  <rmsd>  (33) 
4.348750668720777

>  <m_score__min__rmsd>  (33) 
4.348750668720777

>  <meeko>  (33) 
{"free_energy": -7.68, "intermolecular_energy": -9.76, "internal_energy": -2.48, "cluster_size": 8, "cluster_id": 3, "rank_in_cluster": 5}

>  <energy>  (33) 
-7.74

>  <cluster_rmsd>  (33) 
0.44

>  <cluster>  (33) 
5

$$$$

     RDKit          3D

 67 71  0  0  0  0  0  0  0  0999 V2000
  146.0460   73.0380  221.9670 C   0  0  0  0  0  0  0  0  0  0  0  0
  146.2910   73.7730  220.6560 C   0  0  0  0  0  0  0  0  0  0  0  0
  145.3900   73.3190  219.5980 C   0  0  0  0  0  0  0  0  0  0  0  0
  145.9310   72.6150  218.6730 O   0  0  0  0  0  0  0  0  0  0  0  0
  144.0160   73.5630  219.4730 N   0  0  0  0  0  0  0  0  0  0  0  0
  143.6010   74.8650  219.0100 C   0  0  0  0  0  0  0  0  0  0  0  0
  143.0970   75.8060  219.9080 C   0  0  0  0  0  0  0  0  0  0  0  0
  142.7140   77.0800  219.4880 C   0  0  0  0  0  0  0  0  0  0  0  0
  142.8190   77.4510  218.1690 C   0  0  0  0  0  0  0  0  0  0  0  0
  143.3120   76.5290  217.2860 C   0  0  0  0  0  0  0  0  0  0  0  0
  143.7010   75.2500  217.6990 C   0  0  0  0  0  0  0  0  0  0  0  0
  142.9550   72.6320  219.7820 C   0  0  0  0  0  0  0  0  0  0  0  0
  142.4210   72.8020  221.1860 C   0  0  0  0  0  0  0  0  0  0  0  0
  141.2970   71.8680  221.4920 C   0  0  0  0  0  0  0  0  0  0  0  0
  140.4760   71.5620  220.3540 N   0  0  0  0  0  0  0  0  0  0  0  0
  139.6280   70.4430  220.2130 C   0  0  0  0  0  0  0  0  0  0  0  0
  138.9560   70.2900  219.1280 O   0  0  0  0  0  0  0  0  0  0  0  0
  139.4220   69.3900  221.2270 C   0  0  2  0  0  0  0  0  0  0  0  0
  139.4150   68.0600  220.6020 N   0  0  0  0  0  0  0  0  0  0  0  0
  138.1750   69.5150  222.0340 C   0  0  0  0  0  0  0  0  0  0  0  0
  138.0660   68.4610  223.1170 C   0  0  0  0  0  0  0  0  0  0  0  0
  138.7920   69.0660  224.2670 C   0  0  0  0  0  0  0  0  0  0  0  0
  139.2800   68.4150  225.3840 C   0  0  0  0  0  0  0  0  0  0  0  0
  139.9290   69.1140  226.3730 C   0  0  0  0  0  0  0  0  0  0  0  0
  140.4010   68.4470  227.4770 C   0  0  0  0  0  0  0  0  0  0  0  0
  141.0490   69.1310  228.4780 C   0  0  0  0  0  0  0  0  0  0  0  0
  141.2090   70.5060  228.3400 C   0  0  0  0  0  0  0  0  0  0  0  0
  140.7260   71.1530  227.2230 C   0  0  0  0  0  0  0  0  0  0  0  0
  140.0710   70.4880  226.2020 C   0  0  0  0  0  0  0  0  0  0  0  0
  139.5780   71.1190  225.0830 C   0  0  0  0  0  0  0  0  0  0  0  0
  138.9190   70.4290  224.0700 C   0  0  0  0  0  0  0  0  0  0  0  0
  138.2870   70.8360  222.7910 C   0  0  0  0  0  0  0  0  0  0  0  0
  140.5110   72.5110  219.2390 C   0  0  0  0  0  0  0  0  0  0  0  0
  141.9000   72.5880  218.7190 C   0  0  0  0  0  0  0  0  0  0  0  0
  146.2693   73.7080  222.8103 H   0  0  0  0  0  0  0  0  0  0  0  0
  144.9938   72.7215  222.0188 H   0  0  0  0  0  0  0  0  0  0  0  0
  146.6979   72.1535  222.0188 H   0  0  0  0  0  0  0  0  0  0  0  0
  146.1349   74.8498  220.8178 H   0  0  0  0  0  0  0  0  0  0  0  0
  147.3228   73.5645  220.3368 H   0  0  0  0  0  0  0  0  0  0  0  0
  142.9995   75.5377  220.9703 H   0  0  0  0  0  0  0  0  0  0  0  0
  142.3222   77.7981  220.2234 H   0  0  0  0  0  0  0  0  0  0  0  0
  142.5172   78.4545  217.8345 H   0  0  0  0  0  0  0  0  0  0  0  0
  143.4048   76.8004  216.2241 H   0  0  0  0  0  0  0  0  0  0  0  0
  144.0947   74.5400  216.9568 H   0  0  0  0  0  0  0  0  0  0  0  0
  143.4015   71.6267  219.7745 H   0  0  0  0  0  0  0  0  0  0  0  0
  143.2380   72.6147  221.8983 H   0  0  0  0  0  0  0  0  0  0  0  0
  142.0334   73.8278  221.2721 H   0  0  0  0  0  0  0  0  0  0  0  0
  141.7207   70.9289  221.8774 H   0  0  0  0  0  0  0  0  0  0  0  0
  140.6524   72.3703  222.2284 H   0  0  0  0  0  0  0  0  0  0  0  0
  140.2694   69.5203  221.9162 H   0  0  0  0  0  0  0  0  0  0  0  0
  139.2510   68.1100  219.5700 H   0  0  0  0  0  0  0  0  0  0  0  0
  138.6500   67.5100  221.0590 H   0  0  0  0  0  0  0  0  0  0  0  0
  137.3182   69.4273  221.3497 H   0  0  0  0  0  0  0  0  0  0  0  0
  137.0138   68.2688  223.3738 H   0  0  0  0  0  0  0  0  0  0  0  0
  138.4818   67.4894  222.8119 H   0  0  0  0  0  0  0  0  0  0  0  0
  139.1477   67.3274  225.4823 H   0  0  0  0  0  0  0  0  0  0  0  0
  140.2597   67.3593  227.5607 H   0  0  0  0  0  0  0  0  0  0  0  0
  141.4311   68.6047  229.3651 H   0  0  0  0  0  0  0  0  0  0  0  0
  141.7231   71.0792  229.1256 H   0  0  0  0  0  0  0  0  0  0  0  0
  140.8669   72.2408  227.1401 H   0  0  0  0  0  0  0  0  0  0  0  0
  139.7094   72.2068  224.9858 H   0  0  0  0  0  0  0  0  0  0  0  0
  137.2952   71.2797  222.9626 H   0  0  0  0  0  0  0  0  0  0  0  0
  138.8586   71.6026  222.2472 H   0  0  0  0  0  0  0  0  0  0  0  0
  139.8360   72.1686  218.4408 H   0  0  0  0  0  0  0  0  0  0  0  0
  140.1853   73.5038  219.5830 H   0  0  0  0  0  0  0  0  0  0  0  0
  142.0817   71.7043  218.0897 H   0  0  0  0  0  0  0  0  0  0  0  0
  141.9755   73.5330  218.1611 H   0  0  0  0  0  0  0  0  0  0  0  0
  1  2  1  0
  2  3  1  0
  3  4  2  0
  3  5  1  0
  5  6  1  0
  6  7  2  0
  7  8  1  0
  8  9  2  0
  9 10  1  0
 10 11  2  0
  5 12  1  0
 12 13  1  0
 13 14  1  0
 14 15  1  0
 15 16  1  0
 16 17  2  0
 16 18  1  0
 18 19  1  0
 18 20  1  0
 20 21  1  0
 21 22  1  0
 22 23  2  0
 23 24  1  0
 24 25  2  0
 25 26  1  0
 26 27  2  0
 27 28  1  0
 28 29  2  0
 29 30  1  0
 30 31  2  0
 31 32  1  0
 15 33  1  0
 33 34  1  0
 11  6  1  0
 34 12  1  0
 32 20  1  0
 31 22  1  0
 29 24  1  0
  1 35  1  0
  1 36  1  0
  1 37  1  0
  2 38  1  0
  2 39  1  0
  7 40  1  0
  8 41  1  0
  9 42  1  0
 10 43  1  0
 11 44  1  0
 12 45  1  0
 13 46  1  0
 13 47  1  0
 14 48  1  0
 14 49  1  0
 18 50  1  1
 19 51  1  0
 19 52  1  0
 20 53  1  0
 21 54  1  0
 21 55  1  0
 23 56  1  0
 25 57  1  0
 26 58  1  0
 27 59  1  0
 28 60  1  0
 30 61  1  0
 32 62  1  0
 32 63  1  0
 33 64  1  0
 33 65  1  0
 34 66  1  0
 34 67  1  0
M  END
>  <smiles>  (34) 
CCC(=O)N(c1ccccc1)C1CCN(C(=O)[C@H](N)C2Cc3cc4ccccc4cc3C2)CC1

>  <score_type>  (34) 
oracle

>  <origin>  (34) 
autodockgpu

>  <m_score__min__energy>  (34) 
-8.8599999999999994

>  <m_primary>  (34) 
energy

>  <rmsd>  (34) 
2.6315487007673717

>  <m_score__min__rmsd>  (34) 
2.6315487007673717

>  <meeko>  (34) 
{"free_energy": -8.54, "intermolecular_energy": -10.62, "internal_energy": -2.44, "cluster_size": 2, "cluster_id": 4, "rank_in_cluster": 2}

>  <energy>  (34) 
-7.72

>  <cluster_rmsd>  (34) 
0.45

>  <cluster>  (34) 
5

$$$$

     RDKit          3D

 67 71  0  0  0  0  0  0  0  0999 V2000
  142.6030   78.5800  218.1010 C   0  0  0  0  0  0  0  0  0  0  0  0
  141.6840   79.7890  218.2100 C   0  0  0  0  0  0  0  0  0  0  0  0
  140.5400   79.5280  219.0820 C   0  0  0  0  0  0  0  0  0  0  0  0
  139.4270   80.0420  218.7060 O   0  0  0  0  0  0  0  0  0  0  0  0
  140.5150   78.7920  220.2730 N   0  0  0  0  0  0  0  0  0  0  0  0
  140.9790   79.4390  221.4770 C   0  0  0  0  0  0  0  0  0  0  0  0
  142.2080   79.0920  222.0370 C   0  0  0  0  0  0  0  0  0  0  0  0
  142.6890   79.7210  223.1850 C   0  0  0  0  0  0  0  0  0  0  0  0
  141.9630   80.7100  223.8060 C   0  0  0  0  0  0  0  0  0  0  0  0
  140.7570   81.0530  223.2580 C   0  0  0  0  0  0  0  0  0  0  0  0
  140.2680   80.4270  222.1070 C   0  0  0  0  0  0  0  0  0  0  0  0
  140.0810   77.4220  220.4180 C   0  0  0  0  0  0  0  0  0  0  0  0
  141.2230   76.4350  220.3270 C   0  0  0  0  0  0  0  0  0  0  0  0
  140.7790   75.0220  220.5180 C   0  0  0  0  0  0  0  0  0  0  0  0
  139.6700   74.8820  221.4190 N   0  0  0  0  0  0  0  0  0  0  0  0
  138.7850   73.7850  221.4900 C   0  0  0  0  0  0  0  0  0  0  0  0
  137.8250   73.8010  222.3430 O   0  0  0  0  0  0  0  0  0  0  0  0
  138.8550   72.5710  220.6530 C   0  0  2  0  0  0  0  0  0  0  0  0
  137.7380   71.6660  220.9550 N   0  0  0  0  0  0  0  0  0  0  0  0
  140.1170   71.7870  220.7700 C   0  0  0  0  0  0  0  0  0  0  0  0
  141.0180   72.2840  221.8830 C   0  0  0  0  0  0  0  0  0  0  0  0
  140.5280   71.5500  223.0830 C   0  0  0  0  0  0  0  0  0  0  0  0
  140.7650   71.8620  224.4070 C   0  0  0  0  0  0  0  0  0  0  0  0
  140.2460   71.0810  225.4120 C   0  0  0  0  0  0  0  0  0  0  0  0
  140.4990   71.4070  226.7230 C   0  0  0  0  0  0  0  0  0  0  0  0
  139.9930   70.6350  227.7410 C   0  0  0  0  0  0  0  0  0  0  0  0
  139.2240   69.5240  227.4070 C   0  0  0  0  0  0  0  0  0  0  0  0
  138.9840   69.2180  226.0850 C   0  0  0  0  0  0  0  0  0  0  0  0
  139.4820   69.9780  225.0420 C   0  0  0  0  0  0  0  0  0  0  0  0
  139.2570   69.6840  223.7170 C   0  0  0  0  0  0  0  0  0  0  0  0
  139.7730   70.4620  222.6840 C   0  0  0  0  0  0  0  0  0  0  0  0
  139.7080   70.3820  221.2040 C   0  0  0  0  0  0  0  0  0  0  0  0
  139.4450   75.9770  222.3660 C   0  0  0  0  0  0  0  0  0  0  0  0
  139.1840   77.2240  221.6030 C   0  0  0  0  0  0  0  0  0  0  0  0
  142.8692   78.2297  219.1092 H   0  0  0  0  0  0  0  0  0  0  0  0
  142.0868   77.7749  217.5575 H   0  0  0  0  0  0  0  0  0  0  0  0
  143.5169   78.8619  217.5575 H   0  0  0  0  0  0  0  0  0  0  0  0
  142.2564   80.6350  218.6182 H   0  0  0  0  0  0  0  0  0  0  0  0
  141.3008   80.0174  217.2045 H   0  0  0  0  0  0  0  0  0  0  0  0
  142.8117   78.3043  221.5626 H   0  0  0  0  0  0  0  0  0  0  0  0
  143.6629   79.4217  223.5996 H   0  0  0  0  0  0  0  0  0  0  0  0
  142.3387   81.2082  224.7119 H   0  0  0  0  0  0  0  0  0  0  0  0
  140.1566   81.8416  223.7352 H   0  0  0  0  0  0  0  0  0  0  0  0
  139.2935   80.7336  221.6992 H   0  0  0  0  0  0  0  0  0  0  0  0
  139.4484   77.1956  219.5471 H   0  0  0  0  0  0  0  0  0  0  0  0
  141.6892   76.5265  219.3349 H   0  0  0  0  0  0  0  0  0  0  0  0
  141.9329   76.6724  221.1330 H   0  0  0  0  0  0  0  0  0  0  0  0
  140.4847   74.6152  219.5393 H   0  0  0  0  0  0  0  0  0  0  0  0
  141.6248   74.4767  220.9622 H   0  0  0  0  0  0  0  0  0  0  0  0
  138.8078   72.9575  219.6242 H   0  0  0  0  0  0  0  0  0  0  0  0
  136.8520   71.9600  220.4840 H   0  0  0  0  0  0  0  0  0  0  0  0
  137.6090   71.6740  221.9950 H   0  0  0  0  0  0  0  0  0  0  0  0
  140.6487   71.8550  219.8094 H   0  0  0  0  0  0  0  0  0  0  0  0
  142.0702   72.0396  221.6754 H   0  0  0  0  0  0  0  0  0  0  0  0
  140.9832   73.3765  222.0060 H   0  0  0  0  0  0  0  0  0  0  0  0
  141.3740   72.7426  224.6595 H   0  0  0  0  0  0  0  0  0  0  0  0
  141.1099   72.2908  226.9587 H   0  0  0  0  0  0  0  0  0  0  0  0
  140.1907   70.8886  228.7930 H   0  0  0  0  0  0  0  0  0  0  0  0
  138.8063   68.8879  228.2013 H   0  0  0  0  0  0  0  0  0  0  0  0
  138.3723   68.3345  225.8499 H   0  0  0  0  0  0  0  0  0  0  0  0
  138.6481   68.8033  223.4648 H   0  0  0  0  0  0  0  0  0  0  0  0
  140.4093   69.6281  220.8170 H   0  0  0  0  0  0  0  0  0  0  0  0
  138.7192   70.0809  220.8276 H   0  0  0  0  0  0  0  0  0  0  0  0
  138.5777   75.7440  223.0012 H   0  0  0  0  0  0  0  0  0  0  0  0
  140.3319   76.1078  223.0035 H   0  0  0  0  0  0  0  0  0  0  0  0
  138.1435   77.1985  221.2469 H   0  0  0  0  0  0  0  0  0  0  0  0
  139.3807   78.0603  222.2899 H   0  0  0  0  0  0  0  0  0  0  0  0
  1  2  1  0
  2  3  1  0
  3  4  2  0
  3  5  1  0
  5  6  1  0
  6  7  2  0
  7  8  1  0
  8  9  2  0
  9 10  1  0
 10 11  2  0
  5 12  1  0
 12 13  1  0
 13 14  1  0
 14 15  1  0
 15 16  1  0
 16 17  2  0
 16 18  1  0
 18 19  1  0
 18 20  1  0
 20 21  1  0
 21 22  1  0
 22 23  2  0
 23 24  1  0
 24 25  2  0
 25 26  1  0
 26 27  2  0
 27 28  1  0
 28 29  2  0
 29 30  1  0
 30 31  2  0
 31 32  1  0
 15 33  1  0
 33 34  1  0
 11  6  1  0
 34 12  1  0
 32 20  1  0
 31 22  1  0
 29 24  1  0
  1 35  1  0
  1 36  1  0
  1 37  1  0
  2 38  1  0
  2 39  1  0
  7 40  1  0
  8 41  1  0
  9 42  1  0
 10 43  1  0
 11 44  1  0
 12 45  1  0
 13 46  1  0
 13 47  1  0
 14 48  1  0
 14 49  1  0
 18 50  1  6
 19 51  1  0
 19 52  1  0
 20 53  1  0
 21 54  1  0
 21 55  1  0
 23 56  1  0
 25 57  1  0
 26 58  1  0
 27 59  1  0
 28 60  1  0
 30 61  1  0
 32 62  1  0
 32 63  1  0
 33 64  1  0
 33 65  1  0
 34 66  1  0
 34 67  1  0
M  END
>  <smiles>  (35) 
CCC(=O)N(c1ccccc1)C1CCN(C(=O)[C@H](N)C2Cc3cc4ccccc4cc3C2)CC1

>  <score_type>  (35) 
oracle

>  <origin>  (35) 
autodockgpu

>  <m_score__min__energy>  (35) 
-8.8599999999999994

>  <m_primary>  (35) 
energy

>  <rmsd>  (35) 
3.763289672203164

>  <m_score__min__rmsd>  (35) 
3.763289672203164

>  <meeko>  (35) 
{"free_energy": -7.54, "intermolecular_energy": -9.63, "internal_energy": -2.57, "cluster_size": 8, "cluster_id": 3, "rank_in_cluster": 7}

>  <energy>  (35) 
-7.69

>  <cluster_rmsd>  (35) 
0.46

>  <cluster>  (35) 
5

$$$$

     RDKit          3D

 67 71  0  0  0  0  0  0  0  0999 V2000
  138.7700   75.6140  220.8750 C   0  0  0  0  0  0  0  0  0  0  0  0
  139.7940   75.3940  221.9800 C   0  0  0  0  0  0  0  0  0  0  0  0
  140.9080   74.5580  221.5340 C   0  0  0  0  0  0  0  0  0  0  0  0
  141.0540   73.4490  222.1600 O   0  0  0  0  0  0  0  0  0  0  0  0
  141.8300   74.8250  220.5140 N   0  0  0  0  0  0  0  0  0  0  0  0
  142.9800   73.9600  220.3990 C   0  0  0  0  0  0  0  0  0  0  0  0
  142.8560   72.6950  219.8250 C   0  0  0  0  0  0  0  0  0  0  0  0
  143.9580   71.8510  219.6780 C   0  0  0  0  0  0  0  0  0  0  0  0
  145.2070   72.2410  220.0990 C   0  0  0  0  0  0  0  0  0  0  0  0
  145.3300   73.4820  220.6630 C   0  0  0  0  0  0  0  0  0  0  0  0
  144.2310   74.3340  220.8110 C   0  0  0  0  0  0  0  0  0  0  0  0
  141.7530   75.9070  219.5590 C   0  0  0  0  0  0  0  0  0  0  0  0
  142.9510   76.8270  219.6230 C   0  0  0  0  0  0  0  0  0  0  0  0
  142.8920   77.9210  218.6080 C   0  0  0  0  0  0  0  0  0  0  0  0
  142.2380   77.5410  217.3880 N   0  0  0  0  0  0  0  0  0  0  0  0
  141.6720   78.4150  216.4360 C   0  0  0  0  0  0  0  0  0  0  0  0
  141.1060   77.9310  215.3890 O   0  0  0  0  0  0  0  0  0  0  0  0
  141.6660   79.8890  216.5230 C   0  0  2  0  0  0  0  0  0  0  0  0
  142.8380   80.3720  217.2650 N   0  0  0  0  0  0  0  0  0  0  0  0
  140.4550   80.4860  217.1540 C   0  0  0  0  0  0  0  0  0  0  0  0
  139.7400   79.5260  218.0830 C   0  0  0  0  0  0  0  0  0  0  0  0
  140.4340   79.7200  219.3870 C   0  0  0  0  0  0  0  0  0  0  0  0
  140.4120   78.8750  220.4790 C   0  0  0  0  0  0  0  0  0  0  0  0
  141.1040   79.1940  221.6230 C   0  0  0  0  0  0  0  0  0  0  0  0
  141.0640   78.3410  222.7000 C   0  0  0  0  0  0  0  0  0  0  0  0
  141.7440   78.6460  223.8540 C   0  0  0  0  0  0  0  0  0  0  0  0
  142.4670   79.8350  223.8980 C   0  0  0  0  0  0  0  0  0  0  0  0
  142.4920   80.6740  222.8050 C   0  0  0  0  0  0  0  0  0  0  0  0
  141.8150   80.3900  221.6330 C   0  0  0  0  0  0  0  0  0  0  0  0
  141.8250   81.2190  220.5350 C   0  0  0  0  0  0  0  0  0  0  0  0
  141.1330   80.9130  219.3660 C   0  0  0  0  0  0  0  0  0  0  0  0
  140.9550   81.6040  218.0650 C   0  0  0  0  0  0  0  0  0  0  0  0
  142.1670   76.1070  217.0940 C   0  0  0  0  0  0  0  0  0  0  0  0
  141.4080   75.4340  218.1790 C   0  0  0  0  0  0  0  0  0  0  0  0
  137.7875   75.8251  221.3223 H   0  0  0  0  0  0  0  0  0  0  0  0
  139.0800   76.4660  220.2522 H   0  0  0  0  0  0  0  0  0  0  0  0
  138.7027   74.7098  220.2522 H   0  0  0  0  0  0  0  0  0  0  0  0
  140.1878   76.3702  222.2991 H   0  0  0  0  0  0  0  0  0  0  0  0
  139.2921   74.8773  222.8113 H   0  0  0  0  0  0  0  0  0  0  0  0
  141.8682   72.3550  219.4806 H   0  0  0  0  0  0  0  0  0  0  0  0
  143.8251   70.8602  219.2190 H   0  0  0  0  0  0  0  0  0  0  0  0
  146.0778   71.5784  219.9865 H   0  0  0  0  0  0  0  0  0  0  0  0
  146.3188   73.8178  221.0087 H   0  0  0  0  0  0  0  0  0  0  0  0
  144.3745   75.3244  221.2676 H   0  0  0  0  0  0  0  0  0  0  0  0
  140.9025   76.5366  219.8595 H   0  0  0  0  0  0  0  0  0  0  0  0
  142.9949   77.2786  220.6251 H   0  0  0  0  0  0  0  0  0  0  0  0
  143.8455   76.2234  219.4095 H   0  0  0  0  0  0  0  0  0  0  0  0
  142.3465   78.7707  219.0444 H   0  0  0  0  0  0  0  0  0  0  0  0
  143.9303   78.1769  218.3502 H   0  0  0  0  0  0  0  0  0  0  0  0
  141.6788   80.2139  215.4721 H   0  0  0  0  0  0  0  0  0  0  0  0
  143.3000   81.1820  216.7920 H   0  0  0  0  0  0  0  0  0  0  0  0
  143.5090   79.5700  217.3340 H   0  0  0  0  0  0  0  0  0  0  0  0
  139.7714   80.7946  216.3494 H   0  0  0  0  0  0  0  0  0  0  0  0
  138.6727   79.7794  218.1644 H   0  0  0  0  0  0  0  0  0  0  0  0
  139.7741   78.4844  217.7309 H   0  0  0  0  0  0  0  0  0  0  0  0
  139.8360   77.9390  220.4330 H   0  0  0  0  0  0  0  0  0  0  0  0
  140.4840   77.4085  222.6375 H   0  0  0  0  0  0  0  0  0  0  0  0
  141.7180   77.9687  224.7204 H   0  0  0  0  0  0  0  0  0  0  0  0
  143.0206   80.1059  224.8091 H   0  0  0  0  0  0  0  0  0  0  0  0
  143.0731   81.6059  222.8672 H   0  0  0  0  0  0  0  0  0  0  0  0
  142.3995   82.1559  220.5822 H   0  0  0  0  0  0  0  0  0  0  0  0
  140.2132   82.4124  218.1439 H   0  0  0  0  0  0  0  0  0  0  0  0
  141.8733   82.0863  217.6988 H   0  0  0  0  0  0  0  0  0  0  0  0
  141.6550   75.9514  216.1329 H   0  0  0  0  0  0  0  0  0  0  0  0
  143.1818   75.6872  217.0312 H   0  0  0  0  0  0  0  0  0  0  0  0
  140.3357   75.6133  218.0115 H   0  0  0  0  0  0  0  0  0  0  0  0
  141.6754   74.3679  218.1357 H   0  0  0  0  0  0  0  0  0  0  0  0
  1  2  1  0
  2  3  1  0
  3  4  2  0
  3  5  1  0
  5  6  1  0
  6  7  2  0
  7  8  1  0
  8  9  2  0
  9 10  1  0
 10 11  2  0
  5 12  1  0
 12 13  1  0
 13 14  1  0
 14 15  1  0
 15 16  1  0
 16 17  2  0
 16 18  1  0
 18 19  1  0
 18 20  1  0
 20 21  1  0
 21 22  1  0
 22 23  2  0
 23 24  1  0
 24 25  2  0
 25 26  1  0
 26 27  2  0
 27 28  1  0
 28 29  2  0
 29 30  1  0
 30 31  2  0
 31 32  1  0
 15 33  1  0
 33 34  1  0
 11  6  1  0
 34 12  1  0
 32 20  1  0
 31 22  1  0
 29 24  1  0
  1 35  1  0
  1 36  1  0
  1 37  1  0
  2 38  1  0
  2 39  1  0
  7 40  1  0
  8 41  1  0
  9 42  1  0
 10 43  1  0
 11 44  1  0
 12 45  1  0
 13 46  1  0
 13 47  1  0
 14 48  1  0
 14 49  1  0
 18 50  1  6
 19 51  1  0
 19 52  1  0
 20 53  1  0
 21 54  1  0
 21 55  1  0
 23 56  1  0
 25 57  1  0
 26 58  1  0
 27 59  1  0
 28 60  1  0
 30 61  1  0
 32 62  1  0
 32 63  1  0
 33 64  1  0
 33 65  1  0
 34 66  1  0
 34 67  1  0
M  END
>  <smiles>  (36) 
CCC(=O)N(c1ccccc1)C1CCN(C(=O)[C@H](N)C2Cc3cc4ccccc4cc3C2)CC1

>  <score_type>  (36) 
oracle

>  <origin>  (36) 
autodockgpu

>  <m_score__min__energy>  (36) 
-8.8599999999999994

>  <m_primary>  (36) 
energy

>  <rmsd>  (36) 
10.764461325943467

>  <m_score__min__rmsd>  (36) 
10.764461325943467

>  <meeko>  (36) 
{"free_energy": -7.78, "intermolecular_energy": -9.87, "internal_energy": -2.79, "cluster_size": 3, "cluster_id": 7, "rank_in_cluster": 3}

>  <energy>  (36) 
-7.69

>  <cluster_rmsd>  (36) 
0.47

>  <cluster>  (36) 
5

$$$$

     RDKit          3D

 67 71  0  0  0  0  0  0  0  0999 V2000
  139.3810   68.3310  221.1120 C   0  0  0  0  0  0  0  0  0  0  0  0
  138.3020   68.0820  222.1570 C   0  0  0  0  0  0  0  0  0  0  0  0
  138.8190   68.2150  223.5180 C   0  0  0  0  0  0  0  0  0  0  0  0
  139.1970   67.1240  224.0760 O   0  0  0  0  0  0  0  0  0  0  0  0
  138.9460   69.3820  224.2810 N   0  0  0  0  0  0  0  0  0  0  0  0
  139.6170   69.2870  225.5560 C   0  0  0  0  0  0  0  0  0  0  0  0
  140.5490   70.2520  225.9370 C   0  0  0  0  0  0  0  0  0  0  0  0
  141.1910   70.1960  227.1750 C   0  0  0  0  0  0  0  0  0  0  0  0
  140.9240   69.1810  228.0630 C   0  0  0  0  0  0  0  0  0  0  0  0
  140.0110   68.2330  227.6910 C   0  0  0  0  0  0  0  0  0  0  0  0
  139.3620   68.2830  226.4530 C   0  0  0  0  0  0  0  0  0  0  0  0
  138.4520   70.6910  223.9230 C   0  0  0  0  0  0  0  0  0  0  0  0
  139.2470   71.3300  222.8070 C   0  0  0  0  0  0  0  0  0  0  0  0
  138.7110   72.6650  222.4080 C   0  0  0  0  0  0  0  0  0  0  0  0
  137.2860   72.7780  222.5410 N   0  0  0  0  0  0  0  0  0  0  0  0
  136.5480   73.9760  222.6430 C   0  0  0  0  0  0  0  0  0  0  0  0
  135.2710   73.9250  222.7690 O   0  0  0  0  0  0  0  0  0  0  0  0
  137.1170   75.3380  222.6140 C   0  0  2  0  0  0  0  0  0  0  0  0
  136.1010   76.3340  222.9800 N   0  0  0  0  0  0  0  0  0  0  0  0
  137.7100   75.7550  221.3120 C   0  0  0  0  0  0  0  0  0  0  0  0
  137.5640   77.2400  221.0470 C   0  0  0  0  0  0  0  0  0  0  0  0
  138.7620   77.8310  221.7060 C   0  0  0  0  0  0  0  0  0  0  0  0
  138.9560   79.1530  222.0550 C   0  0  0  0  0  0  0  0  0  0  0  0
  140.1260   79.5520  222.6570 C   0  0  0  0  0  0  0  0  0  0  0  0
  140.3000   80.8740  222.9910 C   0  0  0  0  0  0  0  0  0  0  0  0
  141.4650   81.2920  223.5890 C   0  0  0  0  0  0  0  0  0  0  0  0
  142.4530   80.3450  223.8410 C   0  0  0  0  0  0  0  0  0  0  0  0
  142.2550   79.0250  223.4960 C   0  0  0  0  0  0  0  0  0  0  0  0
  141.0920   78.5790  222.8940 C   0  0  0  0  0  0  0  0  0  0  0  0
  140.8800   77.2670  222.5380 C   0  0  0  0  0  0  0  0  0  0  0  0
  139.7030   76.8420  221.9300 C   0  0  0  0  0  0  0  0  0  0  0  0
  139.2150   75.5310  221.4360 C   0  0  0  0  0  0  0  0  0  0  0  0
  136.5230   71.5270  222.5570 C   0  0  0  0  0  0  0  0  0  0  0  0
  136.9670   70.7090  223.7140 C   0  0  0  0  0  0  0  0  0  0  0  0
  140.3344   68.5510  221.6146 H   0  0  0  0  0  0  0  0  0  0  0  0
  139.4960   67.4358  220.4832 H   0  0  0  0  0  0  0  0  0  0  0  0
  139.0921   69.1861  220.4832 H   0  0  0  0  0  0  0  0  0  0  0  0
  137.4915   68.8113  222.0118 H   0  0  0  0  0  0  0  0  0  0  0  0
  137.9367   67.0521  222.0306 H   0  0  0  0  0  0  0  0  0  0  0  0
  140.7833   71.0756  225.2465 H   0  0  0  0  0  0  0  0  0  0  0  0
  141.9203   70.9744  227.4438 H   0  0  0  0  0  0  0  0  0  0  0  0
  141.4277   69.1329  229.0397 H   0  0  0  0  0  0  0  0  0  0  0  0
  139.7811   67.4098  228.3835 H   0  0  0  0  0  0  0  0  0  0  0  0
  138.6327   67.5012  226.1944 H   0  0  0  0  0  0  0  0  0  0  0  0
  138.6209   71.3428  224.7929 H   0  0  0  0  0  0  0  0  0  0  0  0
  140.2871   71.4546  223.1427 H   0  0  0  0  0  0  0  0  0  0  0  0
  139.1785   70.6693  221.9302 H   0  0  0  0  0  0  0  0  0  0  0  0
  139.1808   73.4314  223.0419 H   0  0  0  0  0  0  0  0  0  0  0  0
  138.9461   72.8002  221.3420 H   0  0  0  0  0  0  0  0  0  0  0  0
  137.9378   75.2954  223.3451 H   0  0  0  0  0  0  0  0  0  0  0  0
  135.9250   76.3600  224.0100 H   0  0  0  0  0  0  0  0  0  0  0  0
  135.2210   76.0740  222.4740 H   0  0  0  0  0  0  0  0  0  0  0  0
  137.2072   75.1890  220.5140 H   0  0  0  0  0  0  0  0  0  0  0  0
  137.5665   77.4486  219.9670 H   0  0  0  0  0  0  0  0  0  0  0  0
  136.6183   77.6521  221.4289 H   0  0  0  0  0  0  0  0  0  0  0  0
  138.1682   79.8927  221.8497 H   0  0  0  0  0  0  0  0  0  0  0  0
  139.5026   81.6014  222.7786 H   0  0  0  0  0  0  0  0  0  0  0  0
  141.6124   82.3475  223.8612 H   0  0  0  0  0  0  0  0  0  0  0  0
  143.3960   80.6510  224.3175 H   0  0  0  0  0  0  0  0  0  0  0  0
  143.0529   78.2980  223.7077 H   0  0  0  0  0  0  0  0  0  0  0  0
  141.6690   76.5280  222.7413 H   0  0  0  0  0  0  0  0  0  0  0  0
  139.6605   75.2842  220.4610 H   0  0  0  0  0  0  0  0  0  0  0  0
  139.4773   74.6916  222.0968 H   0  0  0  0  0  0  0  0  0  0  0  0
  135.4500   71.7498  222.6521 H   0  0  0  0  0  0  0  0  0  0  0  0
  136.6934   70.9739  221.6216 H   0  0  0  0  0  0  0  0  0  0  0  0
  136.4960   71.1128  224.6224 H   0  0  0  0  0  0  0  0  0  0  0  0
  136.6661   69.6726  223.5012 H   0  0  0  0  0  0  0  0  0  0  0  0
  1  2  1  0
  2  3  1  0
  3  4  2  0
  3  5  1  0
  5  6  1  0
  6  7  2  0
  7  8  1  0
  8  9  2  0
  9 10  1  0
 10 11  2  0
  5 12  1  0
 12 13  1  0
 13 14  1  0
 14 15  1  0
 15 16  1  0
 16 17  2  0
 16 18  1  0
 18 19  1  0
 18 20  1  0
 20 21  1  0
 21 22  1  0
 22 23  2  0
 23 24  1  0
 24 25  2  0
 25 26  1  0
 26 27  2  0
 27 28  1  0
 28 29  2  0
 29 30  1  0
 30 31  2  0
 31 32  1  0
 15 33  1  0
 33 34  1  0
 11  6  1  0
 34 12  1  0
 32 20  1  0
 31 22  1  0
 29 24  1  0
  1 35  1  0
  1 36  1  0
  1 37  1  0
  2 38  1  0
  2 39  1  0
  7 40  1  0
  8 41  1  0
  9 42  1  0
 10 43  1  0
 11 44  1  0
 12 45  1  0
 13 46  1  0
 13 47  1  0
 14 48  1  0
 14 49  1  0
 18 50  1  1
 19 51  1  0
 19 52  1  0
 20 53  1  0
 21 54  1  0
 21 55  1  0
 23 56  1  0
 25 57  1  0
 26 58  1  0
 27 59  1  0
 28 60  1  0
 30 61  1  0
 32 62  1  0
 32 63  1  0
 33 64  1  0
 33 65  1  0
 34 66  1  0
 34 67  1  0
M  END
>  <smiles>  (37) 
CCC(=O)N(c1ccccc1)C1CCN(C(=O)[C@H](N)C2Cc3cc4ccccc4cc3C2)CC1

>  <score_type>  (37) 
oracle

>  <origin>  (37) 
autodockgpu

>  <m_score__min__energy>  (37) 
-8.8599999999999994

>  <m_primary>  (37) 
energy

>  <rmsd>  (37) 
7.996594939360975

>  <m_score__min__rmsd>  (37) 
7.996594939360975

>  <meeko>  (37) 
{"free_energy": -8.38, "intermolecular_energy": -10.47, "internal_energy": -2.12, "cluster_size": 7, "cluster_id": 1, "rank_in_cluster": 5}

>  <energy>  (37) 
-7.67

>  <cluster_rmsd>  (37) 
0.54

>  <cluster>  (37) 
5

$$$$

     RDKit          3D

 67 71  0  0  0  0  0  0  0  0999 V2000
  139.4230   68.6100  221.9730 C   0  0  0  0  0  0  0  0  0  0  0  0
  138.3970   68.1480  222.9980 C   0  0  0  0  0  0  0  0  0  0  0  0
  138.7070   68.6390  224.3400 C   0  0  0  0  0  0  0  0  0  0  0  0
  138.5660   67.7870  225.2880 O   0  0  0  0  0  0  0  0  0  0  0  0
  139.1320   69.9210  224.7110 N   0  0  0  0  0  0  0  0  0  0  0  0
  139.8940   70.0540  225.9300 C   0  0  0  0  0  0  0  0  0  0  0  0
  140.1880   71.3160  226.4440 C   0  0  0  0  0  0  0  0  0  0  0  0
  140.9000   71.4700  227.6340 C   0  0  0  0  0  0  0  0  0  0  0  0
  141.3390   70.3750  228.3410 C   0  0  0  0  0  0  0  0  0  0  0  0
  141.0530   69.1360  227.8370 C   0  0  0  0  0  0  0  0  0  0  0  0
  140.3380   68.9730  226.6460 C   0  0  0  0  0  0  0  0  0  0  0  0
  138.8650   71.1470  223.9940 C   0  0  0  0  0  0  0  0  0  0  0  0
  140.0080   71.5560  223.0930 C   0  0  0  0  0  0  0  0  0  0  0  0
  139.7170   72.8000  222.3210 C   0  0  0  0  0  0  0  0  0  0  0  0
  138.3310   72.9540  221.9770 N   0  0  0  0  0  0  0  0  0  0  0  0
  137.6860   74.1600  221.6320 C   0  0  0  0  0  0  0  0  0  0  0  0
  136.4310   74.1490  221.3560 O   0  0  0  0  0  0  0  0  0  0  0  0
  138.3310   75.4850  221.5490 C   0  0  2  0  0  0  0  0  0  0  0  0
  137.4560   76.4480  220.8670 N   0  0  0  0  0  0  0  0  0  0  0  0
  139.6520   75.5090  220.8600 C   0  0  0  0  0  0  0  0  0  0  0  0
  139.8550   76.7540  220.0190 C   0  0  0  0  0  0  0  0  0  0  0  0
  140.4150   77.7400  220.9850 C   0  0  0  0  0  0  0  0  0  0  0  0
  140.4730   79.1120  220.8380 C   0  0  0  0  0  0  0  0  0  0  0  0
  141.0290   79.8960  221.8210 C   0  0  0  0  0  0  0  0  0  0  0  0
  141.0810   81.2590  221.6520 C   0  0  0  0  0  0  0  0  0  0  0  0
  141.6370   82.0580  222.6220 C   0  0  0  0  0  0  0  0  0  0  0  0
  142.1420   81.4510  223.7680 C   0  0  0  0  0  0  0  0  0  0  0  0
  142.0780   80.0820  223.9140 C   0  0  0  0  0  0  0  0  0  0  0  0
  141.5240   79.2550  222.9530 C   0  0  0  0  0  0  0  0  0  0  0  0
  141.4570   77.8870  223.0800 C   0  0  0  0  0  0  0  0  0  0  0  0
  140.8970   77.0750  222.0980 C   0  0  0  0  0  0  0  0  0  0  0  0
  140.7060   75.6100  221.9590 C   0  0  0  0  0  0  0  0  0  0  0  0
  137.5140   71.7380  221.9670 C   0  0  0  0  0  0  0  0  0  0  0  0
  137.5220   71.1450  223.3290 C   0  0  0  0  0  0  0  0  0  0  0  0
  140.3070   69.0080  222.4928 H   0  0  0  0  0  0  0  0  0  0  0  0
  139.7205   67.7590  221.3427 H   0  0  0  0  0  0  0  0  0  0  0  0
  138.9830   69.3969  221.3427 H   0  0  0  0  0  0  0  0  0  0  0  0
  137.4058   68.5225  222.7026 H   0  0  0  0  0  0  0  0  0  0  0  0
  138.4139   67.0485  223.0252 H   0  0  0  0  0  0  0  0  0  0  0  0
  139.8512   72.2103  225.8993 H   0  0  0  0  0  0  0  0  0  0  0  0
  141.1131   72.4809  228.0118 H   0  0  0  0  0  0  0  0  0  0  0  0
  141.9008   70.4916  229.2795 H   0  0  0  0  0  0  0  0  0  0  0  0
  141.3944   68.2441  228.3829 H   0  0  0  0  0  0  0  0  0  0  0  0
  140.1281   67.9582  226.2771 H   0  0  0  0  0  0  0  0  0  0  0  0
  138.8033   71.9478  224.7456 H   0  0  0  0  0  0  0  0  0  0  0  0
  140.9005   71.7272  223.7127 H   0  0  0  0  0  0  0  0  0  0  0  0
  140.1657   70.7443  222.3675 H   0  0  0  0  0  0  0  0  0  0  0  0
  140.0226   73.6650  222.9279 H   0  0  0  0  0  0  0  0  0  0  0  0
  140.2773   72.7314  221.3769 H   0  0  0  0  0  0  0  0  0  0  0  0
  138.5074   75.7580  222.5999 H   0  0  0  0  0  0  0  0  0  0  0  0
  136.8170   76.9420  221.5320 H   0  0  0  0  0  0  0  0  0  0  0  0
  136.8930   75.9090  220.1660 H   0  0  0  0  0  0  0  0  0  0  0  0
  139.7154   74.6180  220.2180 H   0  0  0  0  0  0  0  0  0  0  0  0
  140.5620   76.5629  219.1982 H   0  0  0  0  0  0  0  0  0  0  0  0
  138.9282   77.1029  219.5402 H   0  0  0  0  0  0  0  0  0  0  0  0
  140.0714   79.5810  219.9276 H   0  0  0  0  0  0  0  0  0  0  0  0
  140.6755   81.7126  220.7356 H   0  0  0  0  0  0  0  0  0  0  0  0
  141.6818   83.1498  222.4958 H   0  0  0  0  0  0  0  0  0  0  0  0
  142.5939   82.0661  224.5602 H   0  0  0  0  0  0  0  0  0  0  0  0
  142.4834   79.6290  224.8308 H   0  0  0  0  0  0  0  0  0  0  0  0
  141.8602   77.4182  223.9898 H   0  0  0  0  0  0  0  0  0  0  0  0
  141.6412   75.1154  221.6577 H   0  0  0  0  0  0  0  0  0  0  0  0
  140.4059   75.1191  222.8965 H   0  0  0  0  0  0  0  0  0  0  0  0
  136.4823   71.9880  221.6786 H   0  0  0  0  0  0  0  0  0  0  0  0
  137.9240   71.0181  221.2434 H   0  0  0  0  0  0  0  0  0  0  0  0
  136.8250   71.7178  223.9583 H   0  0  0  0  0  0  0  0  0  0  0  0
  137.2279   70.0911  223.2157 H   0  0  0  0  0  0  0  0  0  0  0  0
  1  2  1  0
  2  3  1  0
  3  4  2  0
  3  5  1  0
  5  6  1  0
  6  7  2  0
  7  8  1  0
  8  9  2  0
  9 10  1  0
 10 11  2  0
  5 12  1  0
 12 13  1  0
 13 14  1  0
 14 15  1  0
 15 16  1  0
 16 17  2  0
 16 18  1  0
 18 19  1  0
 18 20  1  0
 20 21  1  0
 21 22  1  0
 22 23  2  0
 23 24  1  0
 24 25  2  0
 25 26  1  0
 26 27  2  0
 27 28  1  0
 28 29  2  0
 29 30  1  0
 30 31  2  0
 31 32  1  0
 15 33  1  0
 33 34  1  0
 11  6  1  0
 34 12  1  0
 32 20  1  0
 31 22  1  0
 29 24  1  0
  1 35  1  0
  1 36  1  0
  1 37  1  0
  2 38  1  0
  2 39  1  0
  7 40  1  0
  8 41  1  0
  9 42  1  0
 10 43  1  0
 11 44  1  0
 12 45  1  0
 13 46  1  0
 13 47  1  0
 14 48  1  0
 14 49  1  0
 18 50  1  1
 19 51  1  0
 19 52  1  0
 20 53  1  0
 21 54  1  0
 21 55  1  0
 23 56  1  0
 25 57  1  0
 26 58  1  0
 27 59  1  0
 28 60  1  0
 30 61  1  0
 32 62  1  0
 32 63  1  0
 33 64  1  0
 33 65  1  0
 34 66  1  0
 34 67  1  0
M  END
>  <smiles>  (38) 
CCC(=O)N(c1ccccc1)C1CCN(C(=O)[C@H](N)C2Cc3cc4ccccc4cc3C2)CC1

>  <score_type>  (38) 
oracle

>  <origin>  (38) 
autodockgpu

>  <m_score__min__energy>  (38) 
-8.8599999999999994

>  <m_primary>  (38) 
energy

>  <rmsd>  (38) 
8.219562266698892

>  <m_score__min__rmsd>  (38) 
8.219562266698892

>  <meeko>  (38) 
{"free_energy": -8.86, "intermolecular_energy": -10.95, "internal_energy": -1.72, "cluster_size": 7, "cluster_id": 1, "rank_in_cluster": 1}

>  <energy>  (38) 
-7.66

>  <cluster_rmsd>  (38) 
0.54

>  <cluster>  (38) 
5

$$$$

     RDKit          3D

 67 71  0  0  0  0  0  0  0  0999 V2000
  139.0330   68.2020  221.4030 C   0  0  0  0  0  0  0  0  0  0  0  0
  138.0620   68.2680  222.5740 C   0  0  0  0  0  0  0  0  0  0  0  0
  138.7490   68.5160  223.8400 C   0  0  0  0  0  0  0  0  0  0  0  0
  139.1930   67.4760  224.4440 O   0  0  0  0  0  0  0  0  0  0  0  0
  138.9760   69.7470  224.4700 N   0  0  0  0  0  0  0  0  0  0  0  0
  139.5800   69.7340  225.7810 C   0  0  0  0  0  0  0  0  0  0  0  0
  139.2490   68.7390  226.7010 C   0  0  0  0  0  0  0  0  0  0  0  0
  139.8390   68.6900  227.9650 C   0  0  0  0  0  0  0  0  0  0  0  0
  140.7710   69.6270  228.3460 C   0  0  0  0  0  0  0  0  0  0  0  0
  141.0970   70.6030  227.4450 C   0  0  0  0  0  0  0  0  0  0  0  0
  140.5110   70.6590  226.1760 C   0  0  0  0  0  0  0  0  0  0  0  0
  138.6450   71.0490  223.9390 C   0  0  0  0  0  0  0  0  0  0  0  0
  139.5750   71.4780  222.8260 C   0  0  0  0  0  0  0  0  0  0  0  0
  139.2080   72.8050  222.2490 C   0  0  0  0  0  0  0  0  0  0  0  0
  137.7970   73.0690  222.2590 N   0  0  0  0  0  0  0  0  0  0  0  0
  137.1830   74.3360  222.1760 C   0  0  0  0  0  0  0  0  0  0  0  0
  135.9020   74.4230  222.2090 O   0  0  0  0  0  0  0  0  0  0  0  0
  137.8920   75.6250  222.0480 C   0  0  2  0  0  0  0  0  0  0  0  0
  136.9640   76.6910  221.6470 N   0  0  0  0  0  0  0  0  0  0  0  0
  139.0320   75.6340  221.0880 C   0  0  0  0  0  0  0  0  0  0  0  0
  139.1320   76.9280  220.3050 C   0  0  0  0  0  0  0  0  0  0  0  0
  139.9530   77.8050  221.1850 C   0  0  0  0  0  0  0  0  0  0  0  0
  140.0720   79.1790  221.1180 C   0  0  0  0  0  0  0  0  0  0  0  0
  140.8780   79.8550  222.0020 C   0  0  0  0  0  0  0  0  0  0  0  0
  140.9860   81.2220  221.9140 C   0  0  0  0  0  0  0  0  0  0  0  0
  141.7910   81.9140  222.7870 C   0  0  0  0  0  0  0  0  0  0  0  0
  142.4890   81.1930  223.7520 C   0  0  0  0  0  0  0  0  0  0  0  0
  142.3650   79.8220  223.8200 C   0  0  0  0  0  0  0  0  0  0  0  0
  141.5620   79.1030  222.9540 C   0  0  0  0  0  0  0  0  0  0  0  0
  141.4310   77.7340  223.0040 C   0  0  0  0  0  0  0  0  0  0  0  0
  140.6180   77.0320  222.1190 C   0  0  0  0  0  0  0  0  0  0  0  0
  140.3020   75.5940  221.9320 C   0  0  0  0  0  0  0  0  0  0  0  0
  136.9080   71.9070  222.3480 C   0  0  0  0  0  0  0  0  0  0  0  0
  137.1880   71.1860  223.6160 C   0  0  0  0  0  0  0  0  0  0  0  0
  140.0626   68.1320  221.7839 H   0  0  0  0  0  0  0  0  0  0  0  0
  138.8081   67.3171  220.7896 H   0  0  0  0  0  0  0  0  0  0  0  0
  138.9299   69.1092  220.7896 H   0  0  0  0  0  0  0  0  0  0  0  0
  137.3434   69.0812  222.3944 H   0  0  0  0  0  0  0  0  0  0  0  0
  137.5518   67.2963  222.6483 H   0  0  0  0  0  0  0  0  0  0  0  0
  138.5065   67.9761  226.4242 H   0  0  0  0  0  0  0  0  0  0  0  0
  139.5548   67.8913  228.6659 H   0  0  0  0  0  0  0  0  0  0  0  0
  141.2382   69.5926  229.3413 H   0  0  0  0  0  0  0  0  0  0  0  0
  141.8398   71.3642  227.7257 H   0  0  0  0  0  0  0  0  0  0  0  0
  140.8030   71.4608  225.4818 H   0  0  0  0  0  0  0  0  0  0  0  0
  138.8221   71.7759  224.7454 H   0  0  0  0  0  0  0  0  0  0  0  0
  140.5980   71.5387  223.2258 H   0  0  0  0  0  0  0  0  0  0  0  0
  139.4968   70.7322  222.0212 H   0  0  0  0  0  0  0  0  0  0  0  0
  139.7120   73.5890  222.8333 H   0  0  0  0  0  0  0  0  0  0  0  0
  139.5256   72.7962  221.1959 H   0  0  0  0  0  0  0  0  0  0  0  0
  138.3109   75.7956  223.0507 H   0  0  0  0  0  0  0  0  0  0  0  0
  136.0320   76.6000  222.1130 H   0  0  0  0  0  0  0  0  0  0  0  0
  136.8500   76.6250  220.6070 H   0  0  0  0  0  0  0  0  0  0  0  0
  138.8953   74.7937  220.3915 H   0  0  0  0  0  0  0  0  0  0  0  0
  139.6301   76.7647  219.3379 H   0  0  0  0  0  0  0  0  0  0  0  0
  138.1494   77.3608  220.0658 H   0  0  0  0  0  0  0  0  0  0  0  0
  139.5166   79.7374  220.3501 H   0  0  0  0  0  0  0  0  0  0  0  0
  140.4246   81.7659  221.1400 H   0  0  0  0  0  0  0  0  0  0  0  0
  141.8814   83.0085  222.7249 H   0  0  0  0  0  0  0  0  0  0  0  0
  143.1422   81.7198  224.4632 H   0  0  0  0  0  0  0  0  0  0  0  0
  142.9270   79.2784  224.5937 H   0  0  0  0  0  0  0  0  0  0  0  0
  141.9883   77.1751  223.7702 H   0  0  0  0  0  0  0  0  0  0  0  0
  141.1142   75.0756  221.4014 H   0  0  0  0  0  0  0  0  0  0  0  0
  140.1784   75.0485  222.8792 H   0  0  0  0  0  0  0  0  0  0  0  0
  135.8601   72.2415  222.3365 H   0  0  0  0  0  0  0  0  0  0  0  0
  137.0804   71.2382  221.4919 H   0  0  0  0  0  0  0  0  0  0  0  0
  136.7030   71.7332  224.4378 H   0  0  0  0  0  0  0  0  0  0  0  0
  136.7958   70.1659  223.4914 H   0  0  0  0  0  0  0  0  0  0  0  0
  1  2  1  0
  2  3  1  0
  3  4  2  0
  3  5  1  0
  5  6  1  0
  6  7  2  0
  7  8  1  0
  8  9  2  0
  9 10  1  0
 10 11  2  0
  5 12  1  0
 12 13  1  0
 13 14  1  0
 14 15  1  0
 15 16  1  0
 16 17  2  0
 16 18  1  0
 18 19  1  0
 18 20  1  0
 20 21  1  0
 21 22  1  0
 22 23  2  0
 23 24  1  0
 24 25  2  0
 25 26  1  0
 26 27  2  0
 27 28  1  0
 28 29  2  0
 29 30  1  0
 30 31  2  0
 31 32  1  0
 15 33  1  0
 33 34  1  0
 11  6  1  0
 34 12  1  0
 32 20  1  0
 31 22  1  0
 29 24  1  0
  1 35  1  0
  1 36  1  0
  1 37  1  0
  2 38  1  0
  2 39  1  0
  7 40  1  0
  8 41  1  0
  9 42  1  0
 10 43  1  0
 11 44  1  0
 12 45  1  0
 13 46  1  0
 13 47  1  0
 14 48  1  0
 14 49  1  0
 18 50  1  1
 19 51  1  0
 19 52  1  0
 20 53  1  0
 21 54  1  0
 21 55  1  0
 23 56  1  0
 25 57  1  0
 26 58  1  0
 27 59  1  0
 28 60  1  0
 30 61  1  0
 32 62  1  0
 32 63  1  0
 33 64  1  0
 33 65  1  0
 34 66  1  0
 34 67  1  0
M  END
>  <smiles>  (39) 
CCC(=O)N(c1ccccc1)C1CCN(C(=O)[C@H](N)C2Cc3cc4ccccc4cc3C2)CC1

>  <score_type>  (39) 
oracle

>  <origin>  (39) 
autodockgpu

>  <m_score__min__energy>  (39) 
-8.8599999999999994

>  <m_primary>  (39) 
energy

>  <rmsd>  (39) 
8.17401453101883

>  <m_score__min__rmsd>  (39) 
8.17401453101883

>  <meeko>  (39) 
{"free_energy": -8.8, "intermolecular_energy": -10.89, "internal_energy": -1.84, "cluster_size": 7, "cluster_id": 1, "rank_in_cluster": 2}

>  <energy>  (39) 
-7.66

>  <cluster_rmsd>  (39) 
0.55

>  <cluster>  (39) 
5

$$$$

     RDKit          3D

 67 71  0  0  0  0  0  0  0  0999 V2000
  139.0750   68.3220  221.6990 C   0  0  0  0  0  0  0  0  0  0  0  0
  138.7970   67.8300  223.1120 C   0  0  0  0  0  0  0  0  0  0  0  0
  138.3190   68.9050  223.9800 C   0  0  0  0  0  0  0  0  0  0  0  0
  137.0880   68.8290  224.3300 O   0  0  0  0  0  0  0  0  0  0  0  0
  139.0400   70.0020  224.4690 N   0  0  0  0  0  0  0  0  0  0  0  0
  139.7410   69.8470  225.7210 C   0  0  0  0  0  0  0  0  0  0  0  0
  140.3270   70.9490  226.3430 C   0  0  0  0  0  0  0  0  0  0  0  0
  140.9870   70.8290  227.5660 C   0  0  0  0  0  0  0  0  0  0  0  0
  141.0820   69.6130  228.2010 C   0  0  0  0  0  0  0  0  0  0  0  0
  140.5080   68.5310  227.5930 C   0  0  0  0  0  0  0  0  0  0  0  0
  139.8430   68.6430  226.3670 C   0  0  0  0  0  0  0  0  0  0  0  0
  139.1410   71.3000  223.8430 C   0  0  0  0  0  0  0  0  0  0  0  0
  140.3500   71.4220  222.9440 C   0  0  0  0  0  0  0  0  0  0  0  0
  140.4320   72.7500  222.2660 C   0  0  0  0  0  0  0  0  0  0  0  0
  139.1510   73.3250  221.9670 N   0  0  0  0  0  0  0  0  0  0  0  0
  138.8850   74.6880  221.7200 C   0  0  0  0  0  0  0  0  0  0  0  0
  137.6800   75.0640  221.4750 O   0  0  0  0  0  0  0  0  0  0  0  0
  139.8890   75.7700  221.7110 C   0  0  2  0  0  0  0  0  0  0  0  0
  139.3690   76.9680  222.3850 N   0  0  0  0  0  0  0  0  0  0  0  0
  140.3690   76.1840  220.3630 C   0  0  0  0  0  0  0  0  0  0  0  0
  141.8250   76.6040  220.3600 C   0  0  0  0  0  0  0  0  0  0  0  0
  142.5580   75.3240  220.1550 C   0  0  0  0  0  0  0  0  0  0  0  0
  143.8950   75.0770  220.3990 C   0  0  0  0  0  0  0  0  0  0  0  0
  144.4320   73.8370  220.1540 C   0  0  0  0  0  0  0  0  0  0  0  0
  145.7670   73.6150  220.3990 C   0  0  0  0  0  0  0  0  0  0  0  0
  146.3230   72.3830  220.1550 C   0  0  0  0  0  0  0  0  0  0  0  0
  145.5010   71.3760  219.6560 C   0  0  0  0  0  0  0  0  0  0  0  0
  144.1670   71.6220  219.4180 C   0  0  0  0  0  0  0  0  0  0  0  0
  143.5830   72.8540  219.6550 C   0  0  0  0  0  0  0  0  0  0  0  0
  142.2540   73.1190  219.4170 C   0  0  0  0  0  0  0  0  0  0  0  0
  141.6890   74.3680  219.6600 C   0  0  0  0  0  0  0  0  0  0  0  0
  140.3270   74.9320  219.4910 C   0  0  0  0  0  0  0  0  0  0  0  0
  138.0130   72.4040  221.8950 C   0  0  0  0  0  0  0  0  0  0  0  0
  137.8530   71.7380  223.2120 C   0  0  0  0  0  0  0  0  0  0  0  0
  139.6157   69.2789  221.7437 H   0  0  0  0  0  0  0  0  0  0  0  0
  139.6871   67.5795  221.1660 H   0  0  0  0  0  0  0  0  0  0  0  0
  138.1232   68.4632  221.1660 H   0  0  0  0  0  0  0  0  0  0  0  0
  138.0321   67.0406  223.0696 H   0  0  0  0  0  0  0  0  0  0  0  0
  139.7393   67.4473  223.5310 H   0  0  0  0  0  0  0  0  0  0  0  0
  140.2674   71.9347  225.8585 H   0  0  0  0  0  0  0  0  0  0  0  0
  141.4377   71.7193  228.0288 H   0  0  0  0  0  0  0  0  0  0  0  0
  141.6020   69.5140  229.1652 H   0  0  0  0  0  0  0  0  0  0  0  0
  140.5707   67.5469  228.0804 H   0  0  0  0  0  0  0  0  0  0  0  0
  139.3936   67.7474  225.9132 H   0  0  0  0  0  0  0  0  0  0  0  0
  139.3194   72.0275  224.6486 H   0  0  0  0  0  0  0  0  0  0  0  0
  141.2561   71.2804  223.5515 H   0  0  0  0  0  0  0  0  0  0  0  0
  140.2611   70.6542  222.1614 H   0  0  0  0  0  0  0  0  0  0  0  0
  140.9786   73.4423  222.9232 H   0  0  0  0  0  0  0  0  0  0  0  0
  140.9447   72.5899  221.3060 H   0  0  0  0  0  0  0  0  0  0  0  0
  140.7484   75.3353  222.2425 H   0  0  0  0  0  0  0  0  0  0  0  0
  138.3350   76.9210  222.5330 H   0  0  0  0  0  0  0  0  0  0  0  0
  139.6050   77.7890  221.7780 H   0  0  0  0  0  0  0  0  0  0  0  0
  139.7442   77.0235  220.0239 H   0  0  0  0  0  0  0  0  0  0  0  0
  142.0288   77.3089  219.5405 H   0  0  0  0  0  0  0  0  0  0  0  0
  142.1220   77.1236  221.2829 H   0  0  0  0  0  0  0  0  0  0  0  0
  144.5350   75.8803  220.7929 H   0  0  0  0  0  0  0  0  0  0  0  0
  146.3933   74.4291  220.7928 H   0  0  0  0  0  0  0  0  0  0  0  0
  147.3897   72.1968  220.3487 H   0  0  0  0  0  0  0  0  0  0  0  0
  145.9190   70.3794  219.4510 H   0  0  0  0  0  0  0  0  0  0  0  0
  143.5414   70.8075  219.0242 H   0  0  0  0  0  0  0  0  0  0  0  0
  141.6154   72.3157  219.0208 H   0  0  0  0  0  0  0  0  0  0  0  0
  140.1319   75.1881  218.4392 H   0  0  0  0  0  0  0  0  0  0  0  0
  139.5273   74.2313  219.7732 H   0  0  0  0  0  0  0  0  0  0  0  0
  137.0986   72.9645  221.6506 H   0  0  0  0  0  0  0  0  0  0  0  0
  138.1909   71.6501  221.1140 H   0  0  0  0  0  0  0  0  0  0  0  0
  137.3563   72.4420  223.8959 H   0  0  0  0  0  0  0  0  0  0  0  0
  137.2635   70.8265  223.0343 H   0  0  0  0  0  0  0  0  0  0  0  0
  1  2  1  0
  2  3  1  0
  3  4  2  0
  3  5  1  0
  5  6  1  0
  6  7  2  0
  7  8  1  0
  8  9  2  0
  9 10  1  0
 10 11  2  0
  5 12  1  0
 12 13  1  0
 13 14  1  0
 14 15  1  0
 15 16  1  0
 16 17  2  0
 16 18  1  0
 18 19  1  0
 18 20  1  0
 20 21  1  0
 21 22  1  0
 22 23  2  0
 23 24  1  0
 24 25  2  0
 25 26  1  0
 26 27  2  0
 27 28  1  0
 28 29  2  0
 29 30  1  0
 30 31  2  0
 31 32  1  0
 15 33  1  0
 33 34  1  0
 11  6  1  0
 34 12  1  0
 32 20  1  0
 31 22  1  0
 29 24  1  0
  1 35  1  0
  1 36  1  0
  1 37  1  0
  2 38  1  0
  2 39  1  0
  7 40  1  0
  8 41  1  0
  9 42  1  0
 10 43  1  0
 11 44  1  0
 12 45  1  0
 13 46  1  0
 13 47  1  0
 14 48  1  0
 14 49  1  0
 18 50  1  1
 19 51  1  0
 19 52  1  0
 20 53  1  0
 21 54  1  0
 21 55  1  0
 23 56  1  0
 25 57  1  0
 26 58  1  0
 27 59  1  0
 28 60  1  0
 30 61  1  0
 32 62  1  0
 32 63  1  0
 33 64  1  0
 33 65  1  0
 34 66  1  0
 34 67  1  0
M  END
>  <smiles>  (40) 
CCC(=O)N(c1ccccc1)C1CCN(C(=O)[C@H](N)C2Cc3cc4ccccc4cc3C2)CC1

>  <score_type>  (40) 
oracle

>  <origin>  (40) 
autodockgpu

>  <m_score__min__energy>  (40) 
-8.8599999999999994

>  <m_primary>  (40) 
energy

>  <rmsd>  (40) 
7.526106814132575

>  <m_score__min__rmsd>  (40) 
7.526106814132575

>  <meeko>  (40) 
{"free_energy": -7.69, "intermolecular_energy": -9.77, "internal_energy": -2.74, "cluster_size": 21, "cluster_id": 5, "rank_in_cluster": 14}

>  <energy>  (40) 
-7.55

>  <cluster_rmsd>  (40) 
1.25

>  <cluster>  (40) 
5

$$$$

     RDKit          3D

 67 71  0  0  0  0  0  0  0  0999 V2000
  138.8270   66.9060  222.7170 C   0  0  0  0  0  0  0  0  0  0  0  0
  138.8990   68.4240  222.6180 C   0  0  0  0  0  0  0  0  0  0  0  0
  138.6790   69.0670  223.9130 C   0  0  0  0  0  0  0  0  0  0  0  0
  137.8010   68.5130  224.6650 O   0  0  0  0  0  0  0  0  0  0  0  0
  139.3070   70.2100  224.4240 N   0  0  0  0  0  0  0  0  0  0  0  0
  139.9420   70.1110  225.7170 C   0  0  0  0  0  0  0  0  0  0  0  0
  140.3610   71.2600  226.3870 C   0  0  0  0  0  0  0  0  0  0  0  0
  140.9530   71.1920  227.6490 C   0  0  0  0  0  0  0  0  0  0  0  0
  141.1430   69.9830  228.2760 C   0  0  0  0  0  0  0  0  0  0  0  0
  140.7330   68.8550  227.6200 C   0  0  0  0  0  0  0  0  0  0  0  0
  140.1380   68.9140  226.3550 C   0  0  0  0  0  0  0  0  0  0  0  0
  139.3710   71.5040  223.7850 C   0  0  0  0  0  0  0  0  0  0  0  0
  140.6000   71.6670  222.9200 C   0  0  0  0  0  0  0  0  0  0  0  0
  140.6460   72.9880  222.2270 C   0  0  0  0  0  0  0  0  0  0  0  0
  139.3500   73.5040  221.8830 N   0  0  0  0  0  0  0  0  0  0  0  0
  139.0330   74.8520  221.6110 C   0  0  0  0  0  0  0  0  0  0  0  0
  137.8220   75.1720  221.3270 O   0  0  0  0  0  0  0  0  0  0  0  0
  139.9910   75.9760  221.6170 C   0  0  2  0  0  0  0  0  0  0  0  0
  139.3950   77.1630  222.2460 N   0  0  0  0  0  0  0  0  0  0  0  0
  140.5040   76.3840  220.2790 C   0  0  0  0  0  0  0  0  0  0  0  0
  141.9740   76.7510  220.2990 C   0  0  0  0  0  0  0  0  0  0  0  0
  142.6620   75.4460  220.0920 C   0  0  0  0  0  0  0  0  0  0  0  0
  143.9860   75.1490  220.3510 C   0  0  0  0  0  0  0  0  0  0  0  0
  144.4810   73.8920  220.1020 C   0  0  0  0  0  0  0  0  0  0  0  0
  145.8030   73.6190  220.3620 C   0  0  0  0  0  0  0  0  0  0  0  0
  146.3170   72.3690  220.1140 C   0  0  0  0  0  0  0  0  0  0  0  0
  145.4660   71.3980  219.5940 C   0  0  0  0  0  0  0  0  0  0  0  0
  144.1450   71.6950  219.3410 C   0  0  0  0  0  0  0  0  0  0  0  0
  143.6030   72.9450  219.5820 C   0  0  0  0  0  0  0  0  0  0  0  0
  142.2880   73.2610  219.3300 C   0  0  0  0  0  0  0  0  0  0  0  0
  141.7660   74.5270  219.5770 C   0  0  0  0  0  0  0  0  0  0  0  0
  140.4280   75.1420  219.3950 C   0  0  0  0  0  0  0  0  0  0  0  0
  138.2560   72.5350  221.7910 C   0  0  0  0  0  0  0  0  0  0  0  0
  138.0850   71.8780  223.1120 C   0  0  0  0  0  0  0  0  0  0  0  0
  138.8129   66.6079  223.7757 H   0  0  0  0  0  0  0  0  0  0  0  0
  137.9109   66.5494  222.2234 H   0  0  0  0  0  0  0  0  0  0  0  0
  139.7052   66.4643  222.2234 H   0  0  0  0  0  0  0  0  0  0  0  0
  139.8934   68.7090  222.2440 H   0  0  0  0  0  0  0  0  0  0  0  0
  138.1062   68.7585  221.9327 H   0  0  0  0  0  0  0  0  0  0  0  0
  140.2218   72.2415  225.9103 H   0  0  0  0  0  0  0  0  0  0  0  0
  141.2720   72.1184  228.1491 H   0  0  0  0  0  0  0  0  0  0  0  0
  141.6087   69.9250  229.2709 H   0  0  0  0  0  0  0  0  0  0  0  0
  140.8748   67.8753  228.0997 H   0  0  0  0  0  0  0  0  0  0  0  0
  139.8216   67.9822  225.8634 H   0  0  0  0  0  0  0  0  0  0  0  0
  139.4945   72.2484  224.5854 H   0  0  0  0  0  0  0  0  0  0  0  0
  141.4927   71.5719  223.5556 H   0  0  0  0  0  0  0  0  0  0  0  0
  140.5668   70.8867  222.1454 H   0  0  0  0  0  0  0  0  0  0  0  0
  141.1431   73.7112  222.8902 H   0  0  0  0  0  0  0  0  0  0  0  0
  141.1934   72.8383  221.2847 H   0  0  0  0  0  0  0  0  0  0  0  0
  140.8474   75.5894  222.1890 H   0  0  0  0  0  0  0  0  0  0  0  0
  138.3570   77.0800  222.3430 H   0  0  0  0  0  0  0  0  0  0  0  0
  139.6320   77.9830  221.6390 H   0  0  0  0  0  0  0  0  0  0  0  0
  139.9148   77.2486  219.9394 H   0  0  0  0  0  0  0  0  0  0  0  0
  142.2144   77.4549  219.4886 H   0  0  0  0  0  0  0  0  0  0  0  0
  142.2775   77.2520  221.2301 H   0  0  0  0  0  0  0  0  0  0  0  0
  144.6493   75.9254  220.7600 H   0  0  0  0  0  0  0  0  0  0  0  0
  146.4534   74.4061  220.7711 H   0  0  0  0  0  0  0  0  0  0  0  0
  147.3732   72.1417  220.3210 H   0  0  0  0  0  0  0  0  0  0  0  0
  145.8502   70.3889  219.3841 H   0  0  0  0  0  0  0  0  0  0  0  0
  143.4955   70.9075  218.9313 H   0  0  0  0  0  0  0  0  0  0  0  0
  141.6255   72.4852  218.9186 H   0  0  0  0  0  0  0  0  0  0  0  0
  140.2567   75.4142  218.3431 H   0  0  0  0  0  0  0  0  0  0  0  0
  139.5994   74.4688  219.6600 H   0  0  0  0  0  0  0  0  0  0  0  0
  137.3262   73.0527  221.5127 H   0  0  0  0  0  0  0  0  0  0  0  0
  138.4894   71.7799  221.0259 H   0  0  0  0  0  0  0  0  0  0  0  0
  137.5386   72.5679  223.7719 H   0  0  0  0  0  0  0  0  0  0  0  0
  137.5401   70.9400  222.9296 H   0  0  0  0  0  0  0  0  0  0  0  0
  1  2  1  0
  2  3  1  0
  3  4  2  0
  3  5  1  0
  5  6  1  0
  6  7  2  0
  7  8  1  0
  8  9  2  0
  9 10  1  0
 10 11  2  0
  5 12  1  0
 12 13  1  0
 13 14  1  0
 14 15  1  0
 15 16  1  0
 16 17  2  0
 16 18  1  0
 18 19  1  0
 18 20  1  0
 20 21  1  0
 21 22  1  0
 22 23  2  0
 23 24  1  0
 24 25  2  0
 25 26  1  0
 26 27  2  0
 27 28  1  0
 28 29  2  0
 29 30  1  0
 30 31  2  0
 31 32  1  0
 15 33  1  0
 33 34  1  0
 11  6  1  0
 34 12  1  0
 32 20  1  0
 31 22  1  0
 29 24  1  0
  1 35  1  0
  1 36  1  0
  1 37  1  0
  2 38  1  0
  2 39  1  0
  7 40  1  0
  8 41  1  0
  9 42  1  0
 10 43  1  0
 11 44  1  0
 12 45  1  0
 13 46  1  0
 13 47  1  0
 14 48  1  0
 14 49  1  0
 18 50  1  1
 19 51  1  0
 19 52  1  0
 20 53  1  0
 21 54  1  0
 21 55  1  0
 23 56  1  0
 25 57  1  0
 26 58  1  0
 27 59  1  0
 28 60  1  0
 30 61  1  0
 32 62  1  0
 32 63  1  0
 33 64  1  0
 33 65  1  0
 34 66  1  0
 34 67  1  0
M  END
>  <smiles>  (41) 
CCC(=O)N(c1ccccc1)C1CCN(C(=O)[C@H](N)C2Cc3cc4ccccc4cc3C2)CC1

>  <score_type>  (41) 
oracle

>  <origin>  (41) 
autodockgpu

>  <m_score__min__energy>  (41) 
-8.8599999999999994

>  <m_primary>  (41) 
energy

>  <rmsd>  (41) 
7.651957034544507

>  <m_score__min__rmsd>  (41) 
7.651957034544507

>  <meeko>  (41) 
{"free_energy": -7.81, "intermolecular_energy": -9.9, "internal_energy": -2.66, "cluster_size": 21, "cluster_id": 5, "rank_in_cluster": 9}

>  <energy>  (41) 
-7.51

>  <cluster_rmsd>  (41) 
1.28

>  <cluster>  (41) 
5

$$$$

     RDKit          3D

 67 71  0  0  0  0  0  0  0  0999 V2000
  137.8280   68.1380  221.8220 C   0  0  0  0  0  0  0  0  0  0  0  0
  139.1840   68.4630  222.4340 C   0  0  0  0  0  0  0  0  0  0  0  0
  139.0630   68.9190  223.8180 C   0  0  0  0  0  0  0  0  0  0  0  0
  138.4380   68.1270  224.6100 O   0  0  0  0  0  0  0  0  0  0  0  0
  139.5420   70.1100  224.3780 N   0  0  0  0  0  0  0  0  0  0  0  0
  140.0920   70.0580  225.7110 C   0  0  0  0  0  0  0  0  0  0  0  0
  140.3270   71.2330  226.4240 C   0  0  0  0  0  0  0  0  0  0  0  0
  140.8330   71.2070  227.7240 C   0  0  0  0  0  0  0  0  0  0  0  0
  141.1190   70.0150  228.3470 C   0  0  0  0  0  0  0  0  0  0  0  0
  140.8900   68.8610  227.6490 C   0  0  0  0  0  0  0  0  0  0  0  0
  140.3810   68.8780  226.3460 C   0  0  0  0  0  0  0  0  0  0  0  0
  139.5250   71.4120  223.7500 C   0  0  0  0  0  0  0  0  0  0  0  0
  140.7140   71.6370  222.8440 C   0  0  0  0  0  0  0  0  0  0  0  0
  140.6760   72.9660  222.1640 C   0  0  0  0  0  0  0  0  0  0  0  0
  139.3480   73.4260  221.8710 N   0  0  0  0  0  0  0  0  0  0  0  0
  138.9620   74.7610  221.6250 C   0  0  0  0  0  0  0  0  0  0  0  0
  137.7280   75.0290  221.3860 O   0  0  0  0  0  0  0  0  0  0  0  0
  139.8680   75.9270  221.6090 C   0  0  2  0  0  0  0  0  0  0  0  0
  139.2170   77.0990  222.2100 N   0  0  0  0  0  0  0  0  0  0  0  0
  140.3680   76.3280  220.2650 C   0  0  0  0  0  0  0  0  0  0  0  0
  141.8250   76.7470  220.2790 C   0  0  0  0  0  0  0  0  0  0  0  0
  142.5590   75.4640  220.0970 C   0  0  0  0  0  0  0  0  0  0  0  0
  143.8920   75.2190  220.3630 C   0  0  0  0  0  0  0  0  0  0  0  0
  144.4320   73.9760  220.1370 C   0  0  0  0  0  0  0  0  0  0  0  0
  145.7620   73.7560  220.4040 C   0  0  0  0  0  0  0  0  0  0  0  0
  146.3210   72.5210  220.1790 C   0  0  0  0  0  0  0  0  0  0  0  0
  145.5060   71.5100  219.6770 C   0  0  0  0  0  0  0  0  0  0  0  0
  144.1750   71.7550  219.4170 C   0  0  0  0  0  0  0  0  0  0  0  0
  143.5890   72.9890  219.6340 C   0  0  0  0  0  0  0  0  0  0  0  0
  142.2640   73.2530  219.3750 C   0  0  0  0  0  0  0  0  0  0  0  0
  141.6970   74.5040  219.5980 C   0  0  0  0  0  0  0  0  0  0  0  0
  140.3380   75.0680  219.4040 C   0  0  0  0  0  0  0  0  0  0  0  0
  138.2950   72.4100  221.8070 C   0  0  0  0  0  0  0  0  0  0  0  0
  138.2010   71.7330  223.1260 C   0  0  0  0  0  0  0  0  0  0  0  0
  137.0962   67.9626  222.6243 H   0  0  0  0  0  0  0  0  0  0  0  0
  137.4948   68.9817  221.1998 H   0  0  0  0  0  0  0  0  0  0  0  0
  137.9135   67.2349  221.1998 H   0  0  0  0  0  0  0  0  0  0  0  0
  139.8103   67.5590  222.4110 H   0  0  0  0  0  0  0  0  0  0  0  0
  139.6373   69.2748  221.8462 H   0  0  0  0  0  0  0  0  0  0  0  0
  140.1086   72.2019  225.9511 H   0  0  0  0  0  0  0  0  0  0  0  0
  141.0055   72.1531  228.2579 H   0  0  0  0  0  0  0  0  0  0  0  0
  141.5183   69.9902  229.3717 H   0  0  0  0  0  0  0  0  0  0  0  0
  141.1119   67.8943  228.1247 H   0  0  0  0  0  0  0  0  0  0  0  0
  140.2095   67.9266  225.8212 H   0  0  0  0  0  0  0  0  0  0  0  0
  139.6428   72.1545  224.5530 H   0  0  0  0  0  0  0  0  0  0  0  0
  141.6323   71.5759  223.4465 H   0  0  0  0  0  0  0  0  0  0  0  0
  140.6882   70.8629  222.0629 H   0  0  0  0  0  0  0  0  0  0  0  0
  141.1632   73.7046  222.8175 H   0  0  0  0  0  0  0  0  0  0  0  0
  141.1959   72.8499  221.2016 H   0  0  0  0  0  0  0  0  0  0  0  0
  140.7386   75.5920  222.1920 H   0  0  0  0  0  0  0  0  0  0  0  0
  139.2890   77.1000  223.2530 H   0  0  0  0  0  0  0  0  0  0  0  0
  138.2090   77.0720  221.9230 H   0  0  0  0  0  0  0  0  0  0  0  0
  139.7489   77.1648  219.9094 H   0  0  0  0  0  0  0  0  0  0  0  0
  142.0414   77.4437  219.4557 H   0  0  0  0  0  0  0  0  0  0  0  0
  142.1093   77.2755  221.2008 H   0  0  0  0  0  0  0  0  0  0  0  0
  144.5265   76.0256  220.7590 H   0  0  0  0  0  0  0  0  0  0  0  0
  146.3827   74.5732  220.8001 H   0  0  0  0  0  0  0  0  0  0  0  0
  147.3846   72.3360  220.3900 H   0  0  0  0  0  0  0  0  0  0  0  0
  145.9263   70.5114  219.4871 H   0  0  0  0  0  0  0  0  0  0  0  0
  143.5545   70.9374  219.0215 H   0  0  0  0  0  0  0  0  0  0  0  0
  141.6303   72.4466  218.9775 H   0  0  0  0  0  0  0  0  0  0  0  0
  140.1586   75.3146  218.3471 H   0  0  0  0  0  0  0  0  0  0  0  0
  139.5337   74.3706  219.6810 H   0  0  0  0  0  0  0  0  0  0  0  0
  137.3338   72.8885  221.5679 H   0  0  0  0  0  0  0  0  0  0  0  0
  138.5337   71.6736  221.0255 H   0  0  0  0  0  0  0  0  0  0  0  0
  137.6472   72.3907  223.8121 H   0  0  0  0  0  0  0  0  0  0  0  0
  137.6937   70.7726  222.9518 H   0  0  0  0  0  0  0  0  0  0  0  0
  1  2  1  0
  2  3  1  0
  3  4  2  0
  3  5  1  0
  5  6  1  0
  6  7  2  0
  7  8  1  0
  8  9  2  0
  9 10  1  0
 10 11  2  0
  5 12  1  0
 12 13  1  0
 13 14  1  0
 14 15  1  0
 15 16  1  0
 16 17  2  0
 16 18  1  0
 18 19  1  0
 18 20  1  0
 20 21  1  0
 21 22  1  0
 22 23  2  0
 23 24  1  0
 24 25  2  0
 25 26  1  0
 26 27  2  0
 27 28  1  0
 28 29  2  0
 29 30  1  0
 30 31  2  0
 31 32  1  0
 15 33  1  0
 33 34  1  0
 11  6  1  0
 34 12  1  0
 32 20  1  0
 31 22  1  0
 29 24  1  0
  1 35  1  0
  1 36  1  0
  1 37  1  0
  2 38  1  0
  2 39  1  0
  7 40  1  0
  8 41  1  0
  9 42  1  0
 10 43  1  0
 11 44  1  0
 12 45  1  0
 13 46  1  0
 13 47  1  0
 14 48  1  0
 14 49  1  0
 18 50  1  1
 19 51  1  0
 19 52  1  0
 20 53  1  0
 21 54  1  0
 21 55  1  0
 23 56  1  0
 25 57  1  0
 26 58  1  0
 27 59  1  0
 28 60  1  0
 30 61  1  0
 32 62  1  0
 32 63  1  0
 33 64  1  0
 33 65  1  0
 34 66  1  0
 34 67  1  0
M  END
>  <smiles>  (42) 
CCC(=O)N(c1ccccc1)C1CCN(C(=O)[C@H](N)C2Cc3cc4ccccc4cc3C2)CC1

>  <score_type>  (42) 
oracle

>  <origin>  (42) 
autodockgpu

>  <m_score__min__energy>  (42) 
-8.8599999999999994

>  <m_primary>  (42) 
energy

>  <rmsd>  (42) 
7.622433736116532

>  <m_score__min__rmsd>  (42) 
7.622433736116532

>  <meeko>  (42) 
{"free_energy": -7.92, "intermolecular_energy": -10.01, "internal_energy": -2.62, "cluster_size": 21, "cluster_id": 5, "rank_in_cluster": 7}

>  <energy>  (42) 
-7.45

>  <cluster_rmsd>  (42) 
1.13

>  <cluster>  (42) 
5

$$$$

     RDKit          3D

 67 71  0  0  0  0  0  0  0  0999 V2000
  131.8050   66.0470  225.6350 C   0  0  0  0  0  0  0  0  0  0  0  0
  132.4800   67.1540  224.8360 C   0  0  0  0  0  0  0  0  0  0  0  0
  133.1620   68.1150  225.7020 C   0  0  0  0  0  0  0  0  0  0  0  0
  133.6180   67.6420  226.8030 O   0  0  0  0  0  0  0  0  0  0  0  0
  133.3710   69.4810  225.4760 N   0  0  0  0  0  0  0  0  0  0  0  0
  132.5220   70.4190  226.1710 C   0  0  0  0  0  0  0  0  0  0  0  0
  133.0530   71.5980  226.6930 C   0  0  0  0  0  0  0  0  0  0  0  0
  132.2480   72.5330  227.3460 C   0  0  0  0  0  0  0  0  0  0  0  0
  130.8990   72.3190  227.4970 C   0  0  0  0  0  0  0  0  0  0  0  0
  130.3760   71.1620  226.9870 C   0  0  0  0  0  0  0  0  0  0  0  0
  131.1760   70.2220  226.3300 C   0  0  0  0  0  0  0  0  0  0  0  0
  134.3570   70.0560  224.5900 C   0  0  0  0  0  0  0  0  0  0  0  0
  135.7570   69.9980  225.1580 C   0  0  0  0  0  0  0  0  0  0  0  0
  136.7800   70.5540  224.2250 C   0  0  0  0  0  0  0  0  0  0  0  0
  136.4700   70.3470  222.8380 N   0  0  0  0  0  0  0  0  0  0  0  0
  136.9900   71.0770  221.7480 C   0  0  0  0  0  0  0  0  0  0  0  0
  136.6120   70.7860  220.5550 O   0  0  0  0  0  0  0  0  0  0  0  0
  137.9640   72.1820  221.8420 C   0  0  2  0  0  0  0  0  0  0  0  0
  137.6810   73.2130  220.8340 N   0  0  0  0  0  0  0  0  0  0  0  0
  139.3940   71.7870  221.6930 C   0  0  0  0  0  0  0  0  0  0  0  0
  140.2770   72.3500  222.7880 C   0  0  0  0  0  0  0  0  0  0  0  0
  140.1780   71.3350  223.8730 C   0  0  0  0  0  0  0  0  0  0  0  0
  140.5100   71.4990  225.2040 C   0  0  0  0  0  0  0  0  0  0  0  0
  140.3680   70.4600  226.0920 C   0  0  0  0  0  0  0  0  0  0  0  0
  140.7090   70.6440  227.4110 C   0  0  0  0  0  0  0  0  0  0  0  0
  140.5790   69.6150  228.3130 C   0  0  0  0  0  0  0  0  0  0  0  0
  140.0970   68.3930  227.8530 C   0  0  0  0  0  0  0  0  0  0  0  0
  139.7620   68.2330  226.5260 C   0  0  0  0  0  0  0  0  0  0  0  0
  139.8840   69.2520  225.5990 C   0  0  0  0  0  0  0  0  0  0  0  0
  139.5590   69.1080  224.2700 C   0  0  0  0  0  0  0  0  0  0  0  0
  139.6940   70.1480  223.3540 C   0  0  0  0  0  0  0  0  0  0  0  0
  139.4430   70.2750  221.8970 C   0  0  0  0  0  0  0  0  0  0  0  0
  135.5370   69.2630  222.5240 C   0  0  0  0  0  0  0  0  0  0  0  0
  134.2370   69.5440  223.1860 C   0  0  0  0  0  0  0  0  0  0  0  0
  131.9257   66.2450  226.7103 H   0  0  0  0  0  0  0  0  0  0  0  0
  130.7340   66.0158  225.3859 H   0  0  0  0  0  0  0  0  0  0  0  0
  132.2677   65.0806  225.3859 H   0  0  0  0  0  0  0  0  0  0  0  0
  133.2175   66.7025  224.1561 H   0  0  0  0  0  0  0  0  0  0  0  0
  131.7014   67.6930  224.2762 H   0  0  0  0  0  0  0  0  0  0  0  0
  134.1300   71.7956  226.5879 H   0  0  0  0  0  0  0  0  0  0  0  0
  132.6995   73.4533  227.7450 H   0  0  0  0  0  0  0  0  0  0  0  0
  130.2610   73.0532  228.0106 H   0  0  0  0  0  0  0  0  0  0  0  0
  129.2991   70.9664  227.0966 H   0  0  0  0  0  0  0  0  0  0  0  0
  130.7149   69.3057  225.9328 H   0  0  0  0  0  0  0  0  0  0  0  0
  134.1312   71.1301  224.5176 H   0  0  0  0  0  0  0  0  0  0  0  0
  135.7818   70.5769  226.0930 H   0  0  0  0  0  0  0  0  0  0  0  0
  136.0030   68.9395  225.3285 H   0  0  0  0  0  0  0  0  0  0  0  0
  136.8621   71.6361  224.4047 H   0  0  0  0  0  0  0  0  0  0  0  0
  137.7216   70.0222  224.4266 H   0  0  0  0  0  0  0  0  0  0  0  0
  137.8354   72.5585  222.8675 H   0  0  0  0  0  0  0  0  0  0  0  0
  136.9550   72.9040  220.1470 H   0  0  0  0  0  0  0  0  0  0  0  0
  138.5810   73.4120  220.3370 H   0  0  0  0  0  0  0  0  0  0  0  0
  139.7458   72.1488  220.7156 H   0  0  0  0  0  0  0  0  0  0  0  0
  141.3156   72.4539  222.4407 H   0  0  0  0  0  0  0  0  0  0  0  0
  139.9680   73.3546  223.1125 H   0  0  0  0  0  0  0  0  0  0  0  0
  140.8911   72.4691  225.5557 H   0  0  0  0  0  0  0  0  0  0  0  0
  141.0882   71.6205  227.7466 H   0  0  0  0  0  0  0  0  0  0  0  0
  140.8487   69.7536  229.3704 H   0  0  0  0  0  0  0  0  0  0  0  0
  139.9830   67.5512  228.5519 H   0  0  0  0  0  0  0  0  0  0  0  0
  139.3826   67.2564  226.1908 H   0  0  0  0  0  0  0  0  0  0  0  0
  139.1792   68.1373  223.9187 H   0  0  0  0  0  0  0  0  0  0  0  0
  140.2584   69.8227  221.3135 H   0  0  0  0  0  0  0  0  0  0  0  0
  138.5285   69.7610  221.5661 H   0  0  0  0  0  0  0  0  0  0  0  0
  135.3923   69.2035  221.4352 H   0  0  0  0  0  0  0  0  0  0  0  0
  135.9411   68.3056  222.8847 H   0  0  0  0  0  0  0  0  0  0  0  0
  133.7023   70.2976  222.5891 H   0  0  0  0  0  0  0  0  0  0  0  0
  133.7003   68.5857  223.2452 H   0  0  0  0  0  0  0  0  0  0  0  0
  1  2  1  0
  2  3  1  0
  3  4  2  0
  3  5  1  0
  5  6  1  0
  6  7  2  0
  7  8  1  0
  8  9  2  0
  9 10  1  0
 10 11  2  0
  5 12  1  0
 12 13  1  0
 13 14  1  0
 14 15  1  0
 15 16  1  0
 16 17  2  0
 16 18  1  0
 18 19  1  0
 18 20  1  0
 20 21  1  0
 21 22  1  0
 22 23  2  0
 23 24  1  0
 24 25  2  0
 25 26  1  0
 26 27  2  0
 27 28  1  0
 28 29  2  0
 29 30  1  0
 30 31  2  0
 31 32  1  0
 15 33  1  0
 33 34  1  0
 11  6  1  0
 34 12  1  0
 32 20  1  0
 31 22  1  0
 29 24  1  0
  1 35  1  0
  1 36  1  0
  1 37  1  0
  2 38  1  0
  2 39  1  0
  7 40  1  0
  8 41  1  0
  9 42  1  0
 10 43  1  0
 11 44  1  0
 12 45  1  0
 13 46  1  0
 13 47  1  0
 14 48  1  0
 14 49  1  0
 18 50  1  1
 19 51  1  0
 19 52  1  0
 20 53  1  0
 21 54  1  0
 21 55  1  0
 23 56  1  0
 25 57  1  0
 26 58  1  0
 27 59  1  0
 28 60  1  0
 30 61  1  0
 32 62  1  0
 32 63  1  0
 33 64  1  0
 33 65  1  0
 34 66  1  0
 34 67  1  0
M  END
>  <smiles>  (43) 
CCC(=O)N(c1ccccc1)C1CCN(C(=O)[C@H](N)C2Cc3cc4ccccc4cc3C2)CC1

>  <score_type>  (43) 
oracle

>  <origin>  (43) 
autodockgpu

>  <m_score__min__energy>  (43) 
-8.8599999999999994

>  <m_primary>  (43) 
energy

>  <rmsd>  (43) 
3.9740270548575527

>  <m_score__min__rmsd>  (43) 
3.9740270548575527

>  <meeko>  (43) 
{"free_energy": -7.57, "intermolecular_energy": -9.66, "internal_energy": -2.74, "cluster_size": 1, "cluster_id": 9, "rank_in_cluster": 1}

>  <energy>  (43) 
-7.38

>  <cluster_rmsd>  (43) 
0.98

>  <cluster>  (43) 
5

$$$$

     RDKit          3D

 67 71  0  0  0  0  0  0  0  0999 V2000
  142.7620   77.6910  218.5470 C   0  0  0  0  0  0  0  0  0  0  0  0
  142.2210   79.0730  218.2070 C   0  0  0  0  0  0  0  0  0  0  0  0
  141.8540   79.8260  219.4050 C   0  0  0  0  0  0  0  0  0  0  0  0
  141.9760   81.0990  219.3190 O   0  0  0  0  0  0  0  0  0  0  0  0
  141.3920   79.3250  220.6290 N   0  0  0  0  0  0  0  0  0  0  0  0
  141.7600   80.0340  221.8320 C   0  0  0  0  0  0  0  0  0  0  0  0
  140.8860   80.9590  222.4010 C   0  0  0  0  0  0  0  0  0  0  0  0
  141.2080   81.6370  223.5780 C   0  0  0  0  0  0  0  0  0  0  0  0
  142.4050   81.4140  224.2160 C   0  0  0  0  0  0  0  0  0  0  0  0
  143.2640   80.5080  223.6580 C   0  0  0  0  0  0  0  0  0  0  0  0
  142.9480   79.8230  222.4800 C   0  0  0  0  0  0  0  0  0  0  0  0
  140.5840   78.1420  220.8140 C   0  0  0  0  0  0  0  0  0  0  0  0
  141.0780   77.2690  221.9450 C   0  0  0  0  0  0  0  0  0  0  0  0
  140.2190   76.0670  222.1620 C   0  0  0  0  0  0  0  0  0  0  0  0
  138.8300   76.2900  221.8700 N   0  0  0  0  0  0  0  0  0  0  0  0
  137.8680   75.2990  221.5840 C   0  0  0  0  0  0  0  0  0  0  0  0
  136.6570   75.6480  221.3300 O   0  0  0  0  0  0  0  0  0  0  0  0
  138.1180   73.8450  221.5490 C   0  0  2  0  0  0  0  0  0  0  0  0
  139.1970   73.4800  222.4770 N   0  0  0  0  0  0  0  0  0  0  0  0
  138.4680   73.2900  220.2100 C   0  0  0  0  0  0  0  0  0  0  0  0
  139.3810   74.2020  219.4150 C   0  0  0  0  0  0  0  0  0  0  0  0
  140.7450   73.8050  219.8630 C   0  0  0  0  0  0  0  0  0  0  0  0
  141.9150   74.5240  219.7130 C   0  0  0  0  0  0  0  0  0  0  0  0
  143.1080   74.0220  220.1760 C   0  0  0  0  0  0  0  0  0  0  0  0
  144.2600   74.7510  220.0110 C   0  0  0  0  0  0  0  0  0  0  0  0
  145.4630   74.2630  220.4640 C   0  0  0  0  0  0  0  0  0  0  0  0
  145.4760   73.0180  221.0860 C   0  0  0  0  0  0  0  0  0  0  0  0
  144.3070   72.3050  221.2390 C   0  0  0  0  0  0  0  0  0  0  0  0
  143.0840   72.7740  220.7930 C   0  0  0  0  0  0  0  0  0  0  0  0
  141.9090   72.0730  220.9320 C   0  0  0  0  0  0  0  0  0  0  0  0
  140.6910   72.5650  220.4720 C   0  0  0  0  0  0  0  0  0  0  0  0
  139.3030   72.0390  220.4710 C   0  0  0  0  0  0  0  0  0  0  0  0
  138.3660   77.6800  221.8880 C   0  0  0  0  0  0  0  0  0  0  0  0
  139.1170   78.4490  220.8630 C   0  0  0  0  0  0  0  0  0  0  0  0
  142.8079   77.5738  219.6398 H   0  0  0  0  0  0  0  0  0  0  0  0
  142.0981   76.9230  218.1234 H   0  0  0  0  0  0  0  0  0  0  0  0
  143.7708   77.5778  218.1234 H   0  0  0  0  0  0  0  0  0  0  0  0
  142.9935   79.6320  217.6586 H   0  0  0  0  0  0  0  0  0  0  0  0
  141.3156   78.9432  217.5960 H   0  0  0  0  0  0  0  0  0  0  0  0
  139.9213   81.1591  221.9117 H   0  0  0  0  0  0  0  0  0  0  0  0
  140.4942   82.3594  224.0006 H   0  0  0  0  0  0  0  0  0  0  0  0
  142.6630   81.9461  225.1435 H   0  0  0  0  0  0  0  0  0  0  0  0
  144.2290   80.3127  224.1485 H   0  0  0  0  0  0  0  0  0  0  0  0
  143.6674   79.1011  222.0662 H   0  0  0  0  0  0  0  0  0  0  0  0
  140.7113   77.5254  219.9120 H   0  0  0  0  0  0  0  0  0  0  0  0
  142.0993   76.9342  221.7110 H   0  0  0  0  0  0  0  0  0  0  0  0
  141.0482   77.8696  222.8661 H   0  0  0  0  0  0  0  0  0  0  0  0
  140.5846   75.2571  221.5136 H   0  0  0  0  0  0  0  0  0  0  0  0
  140.2863   75.8121  223.2299 H   0  0  0  0  0  0  0  0  0  0  0  0
  137.1532   73.4051  221.8417 H   0  0  0  0  0  0  0  0  0  0  0  0
  138.9480   72.6510  223.0650 H   0  0  0  0  0  0  0  0  0  0  0  0
  139.3690   74.3120  223.0900 H   0  0  0  0  0  0  0  0  0  0  0  0
  137.5326   73.1321  219.6532 H   0  0  0  0  0  0  0  0  0  0  0  0
  139.2583   74.0364  218.3345 H   0  0  0  0  0  0  0  0  0  0  0  0
  139.1697   75.2689  219.5794 H   0  0  0  0  0  0  0  0  0  0  0  0
  141.8918   75.5065  219.2189 H   0  0  0  0  0  0  0  0  0  0  0  0
  144.2201   75.7312  219.5134 H   0  0  0  0  0  0  0  0  0  0  0  0
  146.3903   74.8411  220.3382 H   0  0  0  0  0  0  0  0  0  0  0  0
  146.4240   72.6013  221.4572 H   0  0  0  0  0  0  0  0  0  0  0  0
  144.3476   71.3242  221.7353 H   0  0  0  0  0  0  0  0  0  0  0  0
  141.9326   71.0893  221.4238 H   0  0  0  0  0  0  0  0  0  0  0  0
  139.1618   71.2948  219.6734 H   0  0  0  0  0  0  0  0  0  0  0  0
  139.0326   71.5213  221.4031 H   0  0  0  0  0  0  0  0  0  0  0  0
  137.2903   77.7136  221.6606 H   0  0  0  0  0  0  0  0  0  0  0  0
  138.5363   78.1179  222.8826 H   0  0  0  0  0  0  0  0  0  0  0  0
  138.6845   78.2229  219.8772 H   0  0  0  0  0  0  0  0  0  0  0  0
  139.0261   79.5107  221.1362 H   0  0  0  0  0  0  0  0  0  0  0  0
  1  2  1  0
  2  3  1  0
  3  4  2  0
  3  5  1  0
  5  6  1  0
  6  7  2  0
  7  8  1  0
  8  9  2  0
  9 10  1  0
 10 11  2  0
  5 12  1  0
 12 13  1  0
 13 14  1  0
 14 15  1  0
 15 16  1  0
 16 17  2  0
 16 18  1  0
 18 19  1  0
 18 20  1  0
 20 21  1  0
 21 22  1  0
 22 23  2  0
 23 24  1  0
 24 25  2  0
 25 26  1  0
 26 27  2  0
 27 28  1  0
 28 29  2  0
 29 30  1  0
 30 31  2  0
 31 32  1  0
 15 33  1  0
 33 34  1  0
 11  6  1  0
 34 12  1  0
 32 20  1  0
 31 22  1  0
 29 24  1  0
  1 35  1  0
  1 36  1  0
  1 37  1  0
  2 38  1  0
  2 39  1  0
  7 40  1  0
  8 41  1  0
  9 42  1  0
 10 43  1  0
 11 44  1  0
 12 45  1  0
 13 46  1  0
 13 47  1  0
 14 48  1  0
 14 49  1  0
 18 50  1  1
 19 51  1  0
 19 52  1  0
 20 53  1  0
 21 54  1  0
 21 55  1  0
 23 56  1  0
 25 57  1  0
 26 58  1  0
 27 59  1  0
 28 60  1  0
 30 61  1  0
 32 62  1  0
 32 63  1  0
 33 64  1  0
 33 65  1  0
 34 66  1  0
 34 67  1  0
M  END
>  <smiles>  (44) 
CCC(=O)N(c1ccccc1)C1CCN(C(=O)[C@H](N)C2Cc3cc4ccccc4cc3C2)CC1

>  <score_type>  (44) 
oracle

>  <origin>  (44) 
autodockgpu

>  <m_score__min__energy>  (44) 
-8.8599999999999994

>  <m_primary>  (44) 
energy

>  <rmsd>  (44) 
6.631020303128745

>  <m_score__min__rmsd>  (44) 
6.631020303128745

>  <meeko>  (44) 
{"free_energy": -7.8, "intermolecular_energy": -9.89, "internal_energy": -2.27, "cluster_size": 1, "cluster_id": 8, "rank_in_cluster": 1}

>  <energy>  (44) 
-8.02

>  <cluster_rmsd>  (44) 
0.0

>  <cluster>  (44) 
6

$$$$

     RDKit          3D

 67 71  0  0  0  0  0  0  0  0999 V2000
  142.8180   81.2880  217.8210 C   0  0  0  0  0  0  0  0  0  0  0  0
  141.7020   80.2540  217.8970 C   0  0  0  0  0  0  0  0  0  0  0  0
  142.0580   79.1280  218.7580 C   0  0  0  0  0  0  0  0  0  0  0  0
  142.9580   78.3400  218.2970 O   0  0  0  0  0  0  0  0  0  0  0  0
  141.5350   78.8080  220.0180 N   0  0  0  0  0  0  0  0  0  0  0  0
  141.7290   79.7550  221.0910 C   0  0  0  0  0  0  0  0  0  0  0  0
  142.4730   79.4020  222.2160 C   0  0  0  0  0  0  0  0  0  0  0  0
  142.6970   80.3080  223.2540 C   0  0  0  0  0  0  0  0  0  0  0  0
  142.1880   81.5830  223.2000 C   0  0  0  0  0  0  0  0  0  0  0  0
  141.4570   81.9310  222.0970 C   0  0  0  0  0  0  0  0  0  0  0  0
  141.2290   81.0300  221.0520 C   0  0  0  0  0  0  0  0  0  0  0  0
  140.8220   77.6000  220.3610 C   0  0  0  0  0  0  0  0  0  0  0  0
  141.7380   76.4070  220.5190 C   0  0  0  0  0  0  0  0  0  0  0  0
  141.0070   75.1670  220.9140 C   0  0  0  0  0  0  0  0  0  0  0  0
  139.8610   75.4130  221.7450 N   0  0  0  0  0  0  0  0  0  0  0  0
  138.7670   74.5430  221.9370 C   0  0  0  0  0  0  0  0  0  0  0  0
  137.8020   74.9010  222.7050 O   0  0  0  0  0  0  0  0  0  0  0  0
  138.6150   73.2080  221.3250 C   0  0  2  0  0  0  0  0  0  0  0  0
  137.6130   72.4150  222.0500 N   0  0  0  0  0  0  0  0  0  0  0  0
  139.8620   72.3970  221.2440 C   0  0  0  0  0  0  0  0  0  0  0  0
  140.8280   72.6870  222.3750 C   0  0  0  0  0  0  0  0  0  0  0  0
  140.3800   71.7700  223.4600 C   0  0  0  0  0  0  0  0  0  0  0  0
  140.6890   71.8510  224.8030 C   0  0  0  0  0  0  0  0  0  0  0  0
  140.2020   70.9210  225.6900 C   0  0  0  0  0  0  0  0  0  0  0  0
  140.5270   71.0180  227.0220 C   0  0  0  0  0  0  0  0  0  0  0  0
  140.0530   70.0930  227.9220 C   0  0  0  0  0  0  0  0  0  0  0  0
  139.2430   69.0660  227.4470 C   0  0  0  0  0  0  0  0  0  0  0  0
  138.9310   68.9900  226.1070 C   0  0  0  0  0  0  0  0  0  0  0  0
  139.3960   69.9070  225.1810 C   0  0  0  0  0  0  0  0  0  0  0  0
  139.0990   69.8420  223.8390 C   0  0  0  0  0  0  0  0  0  0  0  0
  139.5810   70.7750  222.9250 C   0  0  0  0  0  0  0  0  0  0  0  0
  139.4420   70.9450  221.4570 C   0  0  0  0  0  0  0  0  0  0  0  0
  139.8350   76.6830  222.4750 C   0  0  0  0  0  0  0  0  0  0  0  0
  139.8630   77.7990  221.4960 C   0  0  0  0  0  0  0  0  0  0  0  0
  143.1246   81.5721  218.8385 H   0  0  0  0  0  0  0  0  0  0  0  0
  143.6781   80.8605  217.2848 H   0  0  0  0  0  0  0  0  0  0  0  0
  142.4572   82.1781  217.2848 H   0  0  0  0  0  0  0  0  0  0  0  0
  140.7979   80.7357  218.2977 H   0  0  0  0  0  0  0  0  0  0  0  0
  141.5287   79.8652  216.8827 H   0  0  0  0  0  0  0  0  0  0  0  0
  142.8925   78.3876  222.2872 H   0  0  0  0  0  0  0  0  0  0  0  0
  143.2892   79.9969  224.1272 H   0  0  0  0  0  0  0  0  0  0  0  0
  142.3623   82.2998  224.0160 H   0  0  0  0  0  0  0  0  0  0  0  0
  141.0378   82.9458  222.0305 H   0  0  0  0  0  0  0  0  0  0  0  0
  140.6370   81.3511  220.1822 H   0  0  0  0  0  0  0  0  0  0  0  0
  140.1866   77.3506  219.4984 H   0  0  0  0  0  0  0  0  0  0  0  0
  142.2472   76.2251  219.5611 H   0  0  0  0  0  0  0  0  0  0  0  0
  142.4525   76.6411  221.3219 H   0  0  0  0  0  0  0  0  0  0  0  0
  140.6701   74.6562  219.9999 H   0  0  0  0  0  0  0  0  0  0  0  0
  141.7061   74.5550  221.5028 H   0  0  0  0  0  0  0  0  0  0  0  0
  138.3030   73.4256  220.2928 H   0  0  0  0  0  0  0  0  0  0  0  0
  136.6480   72.5540  221.6710 H   0  0  0  0  0  0  0  0  0  0  0  0
  137.6490   72.7170  223.0520 H   0  0  0  0  0  0  0  0  0  0  0  0
  140.3477   72.6175  220.2820 H   0  0  0  0  0  0  0  0  0  0  0  0
  141.8627   72.4648  222.0748 H   0  0  0  0  0  0  0  0  0  0  0  0
  140.8255   73.7440  222.6796 H   0  0  0  0  0  0  0  0  0  0  0  0
  141.3307   72.6672  225.1664 H   0  0  0  0  0  0  0  0  0  0  0  0
  141.1698   71.8401  227.3698 H   0  0  0  0  0  0  0  0  0  0  0  0
  140.3075   70.1629  228.9899 H   0  0  0  0  0  0  0  0  0  0  0  0
  138.8500   68.3115  228.1444 H   0  0  0  0  0  0  0  0  0  0  0  0
  138.2872   68.1684  225.7599 H   0  0  0  0  0  0  0  0  0  0  0  0
  138.4586   69.0247  223.4758 H   0  0  0  0  0  0  0  0  0  0  0  0
  140.1060   70.2566  220.9137 H   0  0  0  0  0  0  0  0  0  0  0  0
  138.4297   70.7255  221.0869 H   0  0  0  0  0  0  0  0  0  0  0  0
  138.9173   76.7437  223.0785 H   0  0  0  0  0  0  0  0  0  0  0  0
  140.7078   76.7487  223.1413 H   0  0  0  0  0  0  0  0  0  0  0  0
  138.8526   77.9151  221.0770 H   0  0  0  0  0  0  0  0  0  0  0  0
  140.2037   78.6901  222.0437 H   0  0  0  0  0  0  0  0  0  0  0  0
  1  2  1  0
  2  3  1  0
  3  4  2  0
  3  5  1  0
  5  6  1  0
  6  7  2  0
  7  8  1  0
  8  9  2  0
  9 10  1  0
 10 11  2  0
  5 12  1  0
 12 13  1  0
 13 14  1  0
 14 15  1  0
 15 16  1  0
 16 17  2  0
 16 18  1  0
 18 19  1  0
 18 20  1  0
 20 21  1  0
 21 22  1  0
 22 23  2  0
 23 24  1  0
 24 25  2  0
 25 26  1  0
 26 27  2  0
 27 28  1  0
 28 29  2  0
 29 30  1  0
 30 31  2  0
 31 32  1  0
 15 33  1  0
 33 34  1  0
 11  6  1  0
 34 12  1  0
 32 20  1  0
 31 22  1  0
 29 24  1  0
  1 35  1  0
  1 36  1  0
  1 37  1  0
  2 38  1  0
  2 39  1  0
  7 40  1  0
  8 41  1  0
  9 42  1  0
 10 43  1  0
 11 44  1  0
 12 45  1  0
 13 46  1  0
 13 47  1  0
 14 48  1  0
 14 49  1  0
 18 50  1  6
 19 51  1  0
 19 52  1  0
 20 53  1  0
 21 54  1  0
 21 55  1  0
 23 56  1  0
 25 57  1  0
 26 58  1  0
 27 59  1  0
 28 60  1  0
 30 61  1  0
 32 62  1  0
 32 63  1  0
 33 64  1  0
 33 65  1  0
 34 66  1  0
 34 67  1  0
M  END
>  <smiles>  (45) 
CCC(=O)N(c1ccccc1)C1CCN(C(=O)[C@H](N)C2Cc3cc4ccccc4cc3C2)CC1

>  <score_type>  (45) 
oracle

>  <origin>  (45) 
autodockgpu

>  <m_score__min__energy>  (45) 
-8.8599999999999994

>  <m_primary>  (45) 
energy

>  <rmsd>  (45) 
3.8013800098249964

>  <m_score__min__rmsd>  (45) 
3.8013800098249964

>  <meeko>  (45) 
{"free_energy": -8.65, "intermolecular_energy": -10.74, "internal_energy": -1.89, "cluster_size": 8, "cluster_id": 3, "rank_in_cluster": 2}

>  <energy>  (45) 
-7.9

>  <cluster_rmsd>  (45) 
0.15

>  <cluster>  (45) 
6

$$$$

     RDKit          3D

 67 71  0  0  0  0  0  0  0  0999 V2000
  138.7650   75.6260  220.8870 C   0  0  0  0  0  0  0  0  0  0  0  0
  139.8120   75.4090  221.9710 C   0  0  0  0  0  0  0  0  0  0  0  0
  140.9120   74.5640  221.5070 C   0  0  0  0  0  0  0  0  0  0  0  0
  141.0400   73.4400  222.1100 O   0  0  0  0  0  0  0  0  0  0  0  0
  141.8370   74.8360  220.4910 N   0  0  0  0  0  0  0  0  0  0  0  0
  142.9900   73.9750  220.3790 C   0  0  0  0  0  0  0  0  0  0  0  0
  142.8730   72.7100  219.8050 C   0  0  0  0  0  0  0  0  0  0  0  0
  143.9780   71.8700  219.6610 C   0  0  0  0  0  0  0  0  0  0  0  0
  145.2250   72.2650  220.0840 C   0  0  0  0  0  0  0  0  0  0  0  0
  145.3420   73.5060  220.6480 C   0  0  0  0  0  0  0  0  0  0  0  0
  144.2400   74.3540  220.7940 C   0  0  0  0  0  0  0  0  0  0  0  0
  141.7600   75.9200  219.5380 C   0  0  0  0  0  0  0  0  0  0  0  0
  142.9600   76.8380  219.6010 C   0  0  0  0  0  0  0  0  0  0  0  0
  142.9010   77.9340  218.5890 C   0  0  0  0  0  0  0  0  0  0  0  0
  142.2440   77.5570  217.3690 N   0  0  0  0  0  0  0  0  0  0  0  0
  141.6780   78.4340  216.4200 C   0  0  0  0  0  0  0  0  0  0  0  0
  141.1090   77.9520  215.3730 O   0  0  0  0  0  0  0  0  0  0  0  0
  141.6740   79.9080  216.5090 C   0  0  2  0  0  0  0  0  0  0  0  0
  142.8480   80.3870  217.2520 N   0  0  0  0  0  0  0  0  0  0  0  0
  140.4650   80.5050  217.1420 C   0  0  0  0  0  0  0  0  0  0  0  0
  139.7520   79.5460  218.0740 C   0  0  0  0  0  0  0  0  0  0  0  0
  140.4490   79.7410  219.3750 C   0  0  0  0  0  0  0  0  0  0  0  0
  140.4290   78.8970  220.4690 C   0  0  0  0  0  0  0  0  0  0  0  0
  141.1220   79.2180  221.6110 C   0  0  0  0  0  0  0  0  0  0  0  0
  141.0850   78.3660  222.6890 C   0  0  0  0  0  0  0  0  0  0  0  0
  141.7680   78.6720  223.8410 C   0  0  0  0  0  0  0  0  0  0  0  0
  142.4910   79.8610  223.8820 C   0  0  0  0  0  0  0  0  0  0  0  0
  142.5130   80.6990  222.7890 C   0  0  0  0  0  0  0  0  0  0  0  0
  141.8340   80.4140  221.6180 C   0  0  0  0  0  0  0  0  0  0  0  0
  141.8410   81.2410  220.5190 C   0  0  0  0  0  0  0  0  0  0  0  0
  141.1470   80.9350  219.3520 C   0  0  0  0  0  0  0  0  0  0  0  0
  140.9660   81.6240  218.0510 C   0  0  0  0  0  0  0  0  0  0  0  0
  142.1700   76.1240  217.0730 C   0  0  0  0  0  0  0  0  0  0  0  0
  141.4120   75.4500  218.1580 C   0  0  0  0  0  0  0  0  0  0  0  0
  137.7899   75.8281  221.3542 H   0  0  0  0  0  0  0  0  0  0  0  0
  139.0566   76.4828  220.2618 H   0  0  0  0  0  0  0  0  0  0  0  0
  138.6921   74.7239  220.2618 H   0  0  0  0  0  0  0  0  0  0  0  0
  140.2175   76.3856  222.2741 H   0  0  0  0  0  0  0  0  0  0  0  0
  139.3259   74.9009  222.8169 H   0  0  0  0  0  0  0  0  0  0  0  0
  141.8875   72.3662  219.4578 H   0  0  0  0  0  0  0  0  0  0  0  0
  143.8495   70.8783  219.2028 H   0  0  0  0  0  0  0  0  0  0  0  0
  146.0987   71.6060  219.9728 H   0  0  0  0  0  0  0  0  0  0  0  0
  146.3289   73.8455  220.9957 H   0  0  0  0  0  0  0  0  0  0  0  0
  144.3790   75.3449  221.2510 H   0  0  0  0  0  0  0  0  0  0  0  0
  140.9112   76.5504  219.8415 H   0  0  0  0  0  0  0  0  0  0  0  0
  143.0070   77.2873  220.6039 H   0  0  0  0  0  0  0  0  0  0  0  0
  143.8527   76.2331  219.3838 H   0  0  0  0  0  0  0  0  0  0  0  0
  142.3575   78.7836  219.0282 H   0  0  0  0  0  0  0  0  0  0  0  0
  143.9391   78.1893  218.3300 H   0  0  0  0  0  0  0  0  0  0  0  0
  141.6862   80.2355  215.4590 H   0  0  0  0  0  0  0  0  0  0  0  0
  143.3200   81.1870  216.7710 H   0  0  0  0  0  0  0  0  0  0  0  0
  143.5100   79.5790  217.3330 H   0  0  0  0  0  0  0  0  0  0  0  0
  139.7800   80.8124  216.3381 H   0  0  0  0  0  0  0  0  0  0  0  0
  138.6850   79.7999  218.1579 H   0  0  0  0  0  0  0  0  0  0  0  0
  139.7848   78.5041  217.7229 H   0  0  0  0  0  0  0  0  0  0  0  0
  139.8536   77.9606  220.4251 H   0  0  0  0  0  0  0  0  0  0  0  0
  140.5049   77.4333  222.6289 H   0  0  0  0  0  0  0  0  0  0  0  0
  141.7443   77.9955  224.7080 H   0  0  0  0  0  0  0  0  0  0  0  0
  143.0472   80.1325  224.7914 H   0  0  0  0  0  0  0  0  0  0  0  0
  143.0933   81.6315  222.8497 H   0  0  0  0  0  0  0  0  0  0  0  0
  142.4157   82.1778  220.5640 H   0  0  0  0  0  0  0  0  0  0  0  0
  140.2238   82.4320  218.1305 H   0  0  0  0  0  0  0  0  0  0  0  0
  141.8834   82.1063  217.6825 H   0  0  0  0  0  0  0  0  0  0  0  0
  141.6560   75.9709  216.1126 H   0  0  0  0  0  0  0  0  0  0  0  0
  143.1841   75.7028  217.0080 H   0  0  0  0  0  0  0  0  0  0  0  0
  140.3397   75.6309  217.9927 H   0  0  0  0  0  0  0  0  0  0  0  0
  141.6779   74.3836  218.1123 H   0  0  0  0  0  0  0  0  0  0  0  0
  1  2  1  0
  2  3  1  0
  3  4  2  0
  3  5  1  0
  5  6  1  0
  6  7  2  0
  7  8  1  0
  8  9  2  0
  9 10  1  0
 10 11  2  0
  5 12  1  0
 12 13  1  0
 13 14  1  0
 14 15  1  0
 15 16  1  0
 16 17  2  0
 16 18  1  0
 18 19  1  0
 18 20  1  0
 20 21  1  0
 21 22  1  0
 22 23  2  0
 23 24  1  0
 24 25  2  0
 25 26  1  0
 26 27  2  0
 27 28  1  0
 28 29  2  0
 29 30  1  0
 30 31  2  0
 31 32  1  0
 15 33  1  0
 33 34  1  0
 11  6  1  0
 34 12  1  0
 32 20  1  0
 31 22  1  0
 29 24  1  0
  1 35  1  0
  1 36  1  0
  1 37  1  0
  2 38  1  0
  2 39  1  0
  7 40  1  0
  8 41  1  0
  9 42  1  0
 10 43  1  0
 11 44  1  0
 12 45  1  0
 13 46  1  0
 13 47  1  0
 14 48  1  0
 14 49  1  0
 18 50  1  6
 19 51  1  0
 19 52  1  0
 20 53  1  0
 21 54  1  0
 21 55  1  0
 23 56  1  0
 25 57  1  0
 26 58  1  0
 27 59  1  0
 28 60  1  0
 30 61  1  0
 32 62  1  0
 32 63  1  0
 33 64  1  0
 33 65  1  0
 34 66  1  0
 34 67  1  0
M  END
>  <smiles>  (46) 
CCC(=O)N(c1ccccc1)C1CCN(C(=O)[C@H](N)C2Cc3cc4ccccc4cc3C2)CC1

>  <score_type>  (46) 
oracle

>  <origin>  (46) 
autodockgpu

>  <m_score__min__energy>  (46) 
-8.8599999999999994

>  <m_primary>  (46) 
energy

>  <rmsd>  (46) 
10.788012608950842

>  <m_score__min__rmsd>  (46) 
10.788012608950842

>  <meeko>  (46) 
{"free_energy": -7.8, "intermolecular_energy": -9.89, "internal_energy": -2.78, "cluster_size": 3, "cluster_id": 7, "rank_in_cluster": 2}

>  <energy>  (46) 
-7.83

>  <cluster_rmsd>  (46) 
0.0

>  <cluster>  (46) 
7

$$$$

     RDKit          3D

 67 71  0  0  0  0  0  0  0  0999 V2000
  137.6740   67.8610  221.7880 C   0  0  0  0  0  0  0  0  0  0  0  0
  137.3920   68.5010  223.1410 C   0  0  0  0  0  0  0  0  0  0  0  0
  138.5980   68.5950  223.9620 C   0  0  0  0  0  0  0  0  0  0  0  0
  139.2050   67.4880  224.1850 O   0  0  0  0  0  0  0  0  0  0  0  0
  139.1630   69.7420  224.5340 N   0  0  0  0  0  0  0  0  0  0  0  0
  139.7580   69.6210  225.8430 C   0  0  0  0  0  0  0  0  0  0  0  0
  140.4530   70.6930  226.4040 C   0  0  0  0  0  0  0  0  0  0  0  0
  141.0150   70.6090  227.6780 C   0  0  0  0  0  0  0  0  0  0  0  0
  140.9020   69.4610  228.4260 C   0  0  0  0  0  0  0  0  0  0  0  0
  140.2220   68.4090  227.8780 C   0  0  0  0  0  0  0  0  0  0  0  0
  139.6540   68.4850  226.6020 C   0  0  0  0  0  0  0  0  0  0  0  0
  139.1950   71.0600  223.9430 C   0  0  0  0  0  0  0  0  0  0  0  0
  140.3050   71.2170  222.9280 C   0  0  0  0  0  0  0  0  0  0  0  0
  140.3130   72.5650  222.2870 C   0  0  0  0  0  0  0  0  0  0  0  0
  139.0060   73.1420  222.1400 N   0  0  0  0  0  0  0  0  0  0  0  0
  138.7120   74.5100  221.9650 C   0  0  0  0  0  0  0  0  0  0  0  0
  137.4880   74.8860  221.8570 O   0  0  0  0  0  0  0  0  0  0  0  0
  139.7070   75.5980  221.8870 C   0  0  2  0  0  0  0  0  0  0  0  0
  139.2200   76.8000  222.5770 N   0  0  0  0  0  0  0  0  0  0  0  0
  140.1070   76.0000  220.5080 C   0  0  0  0  0  0  0  0  0  0  0  0
  141.5330   76.5070  220.4320 C   0  0  0  0  0  0  0  0  0  0  0  0
  142.3330   75.2680  220.2310 C   0  0  0  0  0  0  0  0  0  0  0  0
  143.6920   75.1100  220.4250 C   0  0  0  0  0  0  0  0  0  0  0  0
  144.2950   73.8970  220.1910 C   0  0  0  0  0  0  0  0  0  0  0  0
  145.6490   73.7640  220.3860 C   0  0  0  0  0  0  0  0  0  0  0  0
  146.2690   72.5610  220.1520 C   0  0  0  0  0  0  0  0  0  0  0  0
  145.4920   71.4920  219.7150 C   0  0  0  0  0  0  0  0  0  0  0  0
  144.1360   71.6500  219.5270 C   0  0  0  0  0  0  0  0  0  0  0  0
  143.4880   72.8510  219.7550 C   0  0  0  0  0  0  0  0  0  0  0  0
  142.1360   73.0280  219.5670 C   0  0  0  0  0  0  0  0  0  0  0  0
  141.5060   74.2470  219.8000 C   0  0  0  0  0  0  0  0  0  0  0  0
  140.1060   74.7230  219.6730 C   0  0  0  0  0  0  0  0  0  0  0  0
  137.8700   72.2170  222.1570 C   0  0  0  0  0  0  0  0  0  0  0  0
  137.8480   71.5090  223.4620 C   0  0  0  0  0  0  0  0  0  0  0  0
  138.1134   66.8638  221.9385 H   0  0  0  0  0  0  0  0  0  0  0  0
  136.7342   67.7663  221.2242 H   0  0  0  0  0  0  0  0  0  0  0  0
  138.3780   68.4906  221.2242 H   0  0  0  0  0  0  0  0  0  0  0  0
  136.9922   69.5129  222.9793 H   0  0  0  0  0  0  0  0  0  0  0  0
  136.6663   67.8680  223.6727 H   0  0  0  0  0  0  0  0  0  0  0  0
  140.5601   71.6247  225.8291 H   0  0  0  0  0  0  0  0  0  0  0  0
  141.5562   71.4735  228.0900 H   0  0  0  0  0  0  0  0  0  0  0  0
  141.3436   69.3912  229.4310 H   0  0  0  0  0  0  0  0  0  0  0  0
  140.1189   67.4786  228.4557 H   0  0  0  0  0  0  0  0  0  0  0  0
  139.1132   67.6156  226.2000 H   0  0  0  0  0  0  0  0  0  0  0  0
  139.4530   71.7632  224.7486 H   0  0  0  0  0  0  0  0  0  0  0  0
  141.2692   71.0623  223.4342 H   0  0  0  0  0  0  0  0  0  0  0  0
  140.1379   70.4731  222.1351 H   0  0  0  0  0  0  0  0  0  0  0  0
  140.9231   73.2399  222.9053 H   0  0  0  0  0  0  0  0  0  0  0  0
  140.7238   72.4372  221.2746 H   0  0  0  0  0  0  0  0  0  0  0  0
  140.5979   75.1739  222.3732 H   0  0  0  0  0  0  0  0  0  0  0  0
  138.2090   76.7240  222.8360 H   0  0  0  0  0  0  0  0  0  0  0  0
  139.3610   77.6070  221.9240 H   0  0  0  0  0  0  0  0  0  0  0  0
  139.4190   76.7902  220.1728 H   0  0  0  0  0  0  0  0  0  0  0  0
  141.6598   77.1983  219.5858 H   0  0  0  0  0  0  0  0  0  0  0  0
  141.8350   77.0711  221.3267 H   0  0  0  0  0  0  0  0  0  0  0  0
  144.2964   75.9620  220.7696 H   0  0  0  0  0  0  0  0  0  0  0  0
  146.2392   74.6256  220.7313 H   0  0  0  0  0  0  0  0  0  0  0  0
  147.3520   72.4453  220.3060 H   0  0  0  0  0  0  0  0  0  0  0  0
  145.9623   70.5171  219.5189 H   0  0  0  0  0  0  0  0  0  0  0  0
  143.5460   70.7880  219.1823 H   0  0  0  0  0  0  0  0  0  0  0  0
  141.5323   72.1762  219.2205 H   0  0  0  0  0  0  0  0  0  0  0  0
  139.8533   74.9357  218.6238 H   0  0  0  0  0  0  0  0  0  0  0  0
  139.3625   73.9844  220.0072 H   0  0  0  0  0  0  0  0  0  0  0  0
  136.9337   72.7792  222.0257 H   0  0  0  0  0  0  0  0  0  0  0  0
  137.9692   71.4887  221.3386 H   0  0  0  0  0  0  0  0  0  0  0  0
  137.4220   72.1881  224.2152 H   0  0  0  0  0  0  0  0  0  0  0  0
  137.2461   70.5998  223.3170 H   0  0  0  0  0  0  0  0  0  0  0  0
  1  2  1  0
  2  3  1  0
  3  4  2  0
  3  5  1  0
  5  6  1  0
  6  7  2  0
  7  8  1  0
  8  9  2  0
  9 10  1  0
 10 11  2  0
  5 12  1  0
 12 13  1  0
 13 14  1  0
 14 15  1  0
 15 16  1  0
 16 17  2  0
 16 18  1  0
 18 19  1  0
 18 20  1  0
 20 21  1  0
 21 22  1  0
 22 23  2  0
 23 24  1  0
 24 25  2  0
 25 26  1  0
 26 27  2  0
 27 28  1  0
 28 29  2  0
 29 30  1  0
 30 31  2  0
 31 32  1  0
 15 33  1  0
 33 34  1  0
 11  6  1  0
 34 12  1  0
 32 20  1  0
 31 22  1  0
 29 24  1  0
  1 35  1  0
  1 36  1  0
  1 37  1  0
  2 38  1  0
  2 39  1  0
  7 40  1  0
  8 41  1  0
  9 42  1  0
 10 43  1  0
 11 44  1  0
 12 45  1  0
 13 46  1  0
 13 47  1  0
 14 48  1  0
 14 49  1  0
 18 50  1  1
 19 51  1  0
 19 52  1  0
 20 53  1  0
 21 54  1  0
 21 55  1  0
 23 56  1  0
 25 57  1  0
 26 58  1  0
 27 59  1  0
 28 60  1  0
 30 61  1  0
 32 62  1  0
 32 63  1  0
 33 64  1  0
 33 65  1  0
 34 66  1  0
 34 67  1  0
M  END
>  <smiles>  (47) 
CCC(=O)N(c1ccccc1)C1CCN(C(=O)[C@H](N)C2Cc3cc4ccccc4cc3C2)CC1

>  <score_type>  (47) 
oracle

>  <origin>  (47) 
autodockgpu

>  <m_score__min__energy>  (47) 
-8.8599999999999994

>  <m_primary>  (47) 
energy

>  <rmsd>  (47) 
7.409449334254438

>  <m_score__min__rmsd>  (47) 
7.409449334254438

>  <meeko>  (47) 
{"free_energy": -8.14, "intermolecular_energy": -10.23, "internal_energy": -2.36, "cluster_size": 21, "cluster_id": 5, "rank_in_cluster": 3}

>  <energy>  (47) 
-7.8

>  <cluster_rmsd>  (47) 
0.07

>  <cluster>  (47) 
7

$$$$

     RDKit          3D

 67 71  0  0  0  0  0  0  0  0999 V2000
  142.6420   78.0890  217.6060 C   0  0  0  0  0  0  0  0  0  0  0  0
  142.5970   79.5070  218.1570 C   0  0  0  0  0  0  0  0  0  0  0  0
  141.4720   79.7050  219.0690 C   0  0  0  0  0  0  0  0  0  0  0  0
  140.6130   80.5840  218.7070 O   0  0  0  0  0  0  0  0  0  0  0  0
  141.2250   79.0540  220.2850 N   0  0  0  0  0  0  0  0  0  0  0  0
  141.5690   79.7470  221.5040 C   0  0  0  0  0  0  0  0  0  0  0  0
  140.8490   80.8730  221.9020 C   0  0  0  0  0  0  0  0  0  0  0  0
  141.1450   81.5440  223.0900 C   0  0  0  0  0  0  0  0  0  0  0  0
  142.1630   81.1140  223.9080 C   0  0  0  0  0  0  0  0  0  0  0  0
  142.8700   80.0090  223.5190 C   0  0  0  0  0  0  0  0  0  0  0  0
  142.5790   79.3310  222.3310 C   0  0  0  0  0  0  0  0  0  0  0  0
  140.6660   77.7320  220.4440 C   0  0  0  0  0  0  0  0  0  0  0  0
  141.7190   76.6470  220.4230 C   0  0  0  0  0  0  0  0  0  0  0  0
  141.1460   75.2840  220.6290 C   0  0  0  0  0  0  0  0  0  0  0  0
  139.9940   75.2650  221.4860 N   0  0  0  0  0  0  0  0  0  0  0  0
  139.0140   74.2520  221.5470 C   0  0  0  0  0  0  0  0  0  0  0  0
  138.0260   74.3750  222.3590 O   0  0  0  0  0  0  0  0  0  0  0  0
  139.0100   73.0140  220.7420 C   0  0  2  0  0  0  0  0  0  0  0  0
  137.8950   72.1420  221.1350 N   0  0  0  0  0  0  0  0  0  0  0  0
  140.2600   72.2060  220.8080 C   0  0  0  0  0  0  0  0  0  0  0  0
  141.1380   72.5740  221.9870 C   0  0  0  0  0  0  0  0  0  0  0  0
  140.6100   71.7270  223.0930 C   0  0  0  0  0  0  0  0  0  0  0  0
  140.8170   71.8970  224.4480 C   0  0  0  0  0  0  0  0  0  0  0  0
  140.2650   71.0230  225.3540 C   0  0  0  0  0  0  0  0  0  0  0  0
  140.4890   71.2090  226.6970 C   0  0  0  0  0  0  0  0  0  0  0  0
  139.9490   70.3420  227.6180 C   0  0  0  0  0  0  0  0  0  0  0  0
  139.1780   69.2820  227.1510 C   0  0  0  0  0  0  0  0  0  0  0  0
  138.9680   69.1170  225.7990 C   0  0  0  0  0  0  0  0  0  0  0  0
  139.5000   69.9740  224.8530 C   0  0  0  0  0  0  0  0  0  0  0  0
  139.3050   69.8210  223.5000 C   0  0  0  0  0  0  0  0  0  0  0  0
  139.8540   70.6950  222.5660 C   0  0  0  0  0  0  0  0  0  0  0  0
  139.8260   70.7690  221.0840 C   0  0  0  0  0  0  0  0  0  0  0  0
  139.8300   76.4010  222.3970 C   0  0  0  0  0  0  0  0  0  0  0  0
  139.7100   77.6450  221.5950 C   0  0  0  0  0  0  0  0  0  0  0  0
  142.6647   77.3721  218.4400 H   0  0  0  0  0  0  0  0  0  0  0  0
  141.7492   77.9065  216.9899 H   0  0  0  0  0  0  0  0  0  0  0  0
  143.5446   77.9635  216.9899 H   0  0  0  0  0  0  0  0  0  0  0  0
  143.5330   79.7072  218.6991 H   0  0  0  0  0  0  0  0  0  0  0  0
  142.4725   80.1969  217.3094 H   0  0  0  0  0  0  0  0  0  0  0  0
  140.0301   81.2405  221.2661 H   0  0  0  0  0  0  0  0  0  0  0  0
  140.5561   82.4282  223.3753 H   0  0  0  0  0  0  0  0  0  0  0  0
  142.4011   81.6407  224.8439 H   0  0  0  0  0  0  0  0  0  0  0  0
  143.6884   79.6445  224.1572 H   0  0  0  0  0  0  0  0  0  0  0  0
  143.1724   78.4468  222.0552 H   0  0  0  0  0  0  0  0  0  0  0  0
  140.0498   77.5386  219.5535 H   0  0  0  0  0  0  0  0  0  0  0  0
  142.2293   76.6707  219.4488 H   0  0  0  0  0  0  0  0  0  0  0  0
  142.4151   76.8435  221.2518 H   0  0  0  0  0  0  0  0  0  0  0  0
  140.8563   74.8774  219.6488 H   0  0  0  0  0  0  0  0  0  0  0  0
  141.9225   74.6801  221.1213 H   0  0  0  0  0  0  0  0  0  0  0  0
  138.9101   73.3733  219.7072 H   0  0  0  0  0  0  0  0  0  0  0  0
  137.0000   72.4090  220.6640 H   0  0  0  0  0  0  0  0  0  0  0  0
  137.7890   72.2280  222.1740 H   0  0  0  0  0  0  0  0  0  0  0  0
  140.8163   72.3659  219.8726 H   0  0  0  0  0  0  0  0  0  0  0  0
  142.1924   72.3382  221.7805 H   0  0  0  0  0  0  0  0  0  0  0  0
  141.1121   73.6485  222.2210 H   0  0  0  0  0  0  0  0  0  0  0  0
  141.4286   72.7387  224.8050 H   0  0  0  0  0  0  0  0  0  0  0  0
  141.1034   72.0557  227.0372 H   0  0  0  0  0  0  0  0  0  0  0  0
  140.1220   70.4828  228.6951 H   0  0  0  0  0  0  0  0  0  0  0  0
  138.7339   68.5722  227.8645 H   0  0  0  0  0  0  0  0  0  0  0  0
  138.3532   68.2706  225.4591 H   0  0  0  0  0  0  0  0  0  0  0  0
  138.6939   68.9786  223.1437 H   0  0  0  0  0  0  0  0  0  0  0  0
  140.5294   70.0503  220.6382 H   0  0  0  0  0  0  0  0  0  0  0  0
  138.8442   70.5208  220.6544 H   0  0  0  0  0  0  0  0  0  0  0  0
  138.9215   76.2619  223.0014 H   0  0  0  0  0  0  0  0  0  0  0  0
  140.6996   76.4710  223.0670 H   0  0  0  0  0  0  0  0  0  0  0  0
  138.6860   77.7008  221.1972 H   0  0  0  0  0  0  0  0  0  0  0  0
  139.9529   78.4791  222.2697 H   0  0  0  0  0  0  0  0  0  0  0  0
  1  2  1  0
  2  3  1  0
  3  4  2  0
  3  5  1  0
  5  6  1  0
  6  7  2  0
  7  8  1  0
  8  9  2  0
  9 10  1  0
 10 11  2  0
  5 12  1  0
 12 13  1  0
 13 14  1  0
 14 15  1  0
 15 16  1  0
 16 17  2  0
 16 18  1  0
 18 19  1  0
 18 20  1  0
 20 21  1  0
 21 22  1  0
 22 23  2  0
 23 24  1  0
 24 25  2  0
 25 26  1  0
 26 27  2  0
 27 28  1  0
 28 29  2  0
 29 30  1  0
 30 31  2  0
 31 32  1  0
 15 33  1  0
 33 34  1  0
 11  6  1  0
 34 12  1  0
 32 20  1  0
 31 22  1  0
 29 24  1  0
  1 35  1  0
  1 36  1  0
  1 37  1  0
  2 38  1  0
  2 39  1  0
  7 40  1  0
  8 41  1  0
  9 42  1  0
 10 43  1  0
 11 44  1  0
 12 45  1  0
 13 46  1  0
 13 47  1  0
 14 48  1  0
 14 49  1  0
 18 50  1  6
 19 51  1  0
 19 52  1  0
 20 53  1  0
 21 54  1  0
 21 55  1  0
 23 56  1  0
 25 57  1  0
 26 58  1  0
 27 59  1  0
 28 60  1  0
 30 61  1  0
 32 62  1  0
 32 63  1  0
 33 64  1  0
 33 65  1  0
 34 66  1  0
 34 67  1  0
M  END
>  <smiles>  (48) 
CCC(=O)N(c1ccccc1)C1CCN(C(=O)[C@H](N)C2Cc3cc4ccccc4cc3C2)CC1

>  <score_type>  (48) 
oracle

>  <origin>  (48) 
autodockgpu

>  <m_score__min__energy>  (48) 
-8.8599999999999994

>  <m_primary>  (48) 
energy

>  <rmsd>  (48) 
3.949791614587397

>  <m_score__min__rmsd>  (48) 
3.949791614587397

>  <meeko>  (48) 
{"free_energy": -7.97, "intermolecular_energy": -10.05, "internal_energy": -2.4, "cluster_size": 8, "cluster_id": 3, "rank_in_cluster": 4}

>  <energy>  (48) 
-7.78

>  <cluster_rmsd>  (48) 
0.08

>  <cluster>  (48) 
7

$$$$

     RDKit          3D

 67 71  0  0  0  0  0  0  0  0999 V2000
  136.1690   69.2450  224.0710 C   0  0  0  0  0  0  0  0  0  0  0  0
  137.3640   68.5440  223.4400 C   0  0  0  0  0  0  0  0  0  0  0  0
  138.6200   68.9100  224.0930 C   0  0  0  0  0  0  0  0  0  0  0  0
  139.2690   67.9420  224.6280 O   0  0  0  0  0  0  0  0  0  0  0  0
  139.1920   70.1830  224.2060 N   0  0  0  0  0  0  0  0  0  0  0  0
  139.8260   70.5310  225.4550 C   0  0  0  0  0  0  0  0  0  0  0  0
  139.5170   69.8320  226.6220 C   0  0  0  0  0  0  0  0  0  0  0  0
  140.1350   70.1310  227.8360 C   0  0  0  0  0  0  0  0  0  0  0  0
  141.0740   71.1320  227.9220 C   0  0  0  0  0  0  0  0  0  0  0  0
  141.3780   71.8200  226.7790 C   0  0  0  0  0  0  0  0  0  0  0  0
  140.7640   71.5240  225.5580 C   0  0  0  0  0  0  0  0  0  0  0  0
  139.1990   71.2070  223.1870 C   0  0  0  0  0  0  0  0  0  0  0  0
  139.8730   70.7560  221.9110 C   0  0  0  0  0  0  0  0  0  0  0  0
  139.8430   71.7990  220.8430 C   0  0  0  0  0  0  0  0  0  0  0  0
  138.6710   72.6280  220.8790 N   0  0  0  0  0  0  0  0  0  0  0  0
  138.5360   73.9090  220.3030 C   0  0  0  0  0  0  0  0  0  0  0  0
  137.4260   74.5430  220.4250 O   0  0  0  0  0  0  0  0  0  0  0  0
  139.5820   74.6210  219.5420 C   0  0  2  0  0  0  0  0  0  0  0  0
  139.6100   74.1660  218.1460 N   0  0  0  0  0  0  0  0  0  0  0  0
  140.9640   74.4960  220.0860 C   0  0  0  0  0  0  0  0  0  0  0  0
  141.8940   75.5830  219.5850 C   0  0  0  0  0  0  0  0  0  0  0  0
  141.6850   76.6950  220.5540 C   0  0  0  0  0  0  0  0  0  0  0  0
  142.0230   78.0230  220.3880 C   0  0  0  0  0  0  0  0  0  0  0  0
  141.7700   78.9380  221.3820 C   0  0  0  0  0  0  0  0  0  0  0  0
  142.1200   80.2550  221.1970 C   0  0  0  0  0  0  0  0  0  0  0  0
  141.8800   81.1830  222.1810 C   0  0  0  0  0  0  0  0  0  0  0  0
  141.2780   80.7520  223.3600 C   0  0  0  0  0  0  0  0  0  0  0  0
  140.9360   79.4270  223.5220 C   0  0  0  0  0  0  0  0  0  0  0  0
  141.1680   78.4740  222.5470 C   0  0  0  0  0  0  0  0  0  0  0  0
  140.8380   77.1460  222.6940 C   0  0  0  0  0  0  0  0  0  0  0  0
  141.0840   76.2040  221.7000 C   0  0  0  0  0  0  0  0  0  0  0  0
  140.8560   74.7420  221.5880 C   0  0  0  0  0  0  0  0  0  0  0  0
  137.4980   72.0840  221.5670 C   0  0  0  0  0  0  0  0  0  0  0  0
  137.8500   71.8300  222.9870 C   0  0  0  0  0  0  0  0  0  0  0  0
  136.2520   69.1963  225.1668 H   0  0  0  0  0  0  0  0  0  0  0  0
  136.1502   70.2973  223.7511 H   0  0  0  0  0  0  0  0  0  0  0  0
  135.2414   68.7479  223.7511 H   0  0  0  0  0  0  0  0  0  0  0  0
  137.2233   67.4563  223.5246 H   0  0  0  0  0  0  0  0  0  0  0  0
  137.4245   68.8561  222.3869 H   0  0  0  0  0  0  0  0  0  0  0  0
  138.7688   69.0266  226.5838 H   0  0  0  0  0  0  0  0  0  0  0  0
  139.8678   69.5586  228.7365 H   0  0  0  0  0  0  0  0  0  0  0  0
  141.5641   71.3715  228.8772 H   0  0  0  0  0  0  0  0  0  0  0  0
  142.1246   72.6267  226.8217 H   0  0  0  0  0  0  0  0  0  0  0  0
  141.0397   72.1000  224.6624 H   0  0  0  0  0  0  0  0  0  0  0  0
  139.8326   72.0240  223.5626 H   0  0  0  0  0  0  0  0  0  0  0  0
  140.9219   70.5115  222.1346 H   0  0  0  0  0  0  0  0  0  0  0  0
  139.3221   69.8809  221.5359 H   0  0  0  0  0  0  0  0  0  0  0  0
  140.7273   72.4424  220.9609 H   0  0  0  0  0  0  0  0  0  0  0  0
  139.8340   71.2711  219.8780 H   0  0  0  0  0  0  0  0  0  0  0  0
  139.2946   75.6794  219.6269 H   0  0  0  0  0  0  0  0  0  0  0  0
  138.6800   74.2690  217.6780 H   0  0  0  0  0  0  0  0  0  0  0  0
  139.8940   73.1580  218.1570 H   0  0  0  0  0  0  0  0  0  0  0  0
  141.3571   73.5120  219.7906 H   0  0  0  0  0  0  0  0  0  0  0  0
  142.9398   75.2421  219.5977 H   0  0  0  0  0  0  0  0  0  0  0  0
  141.6878   75.8770  218.5453 H   0  0  0  0  0  0  0  0  0  0  0  0
  142.4988   78.3518  219.4523 H   0  0  0  0  0  0  0  0  0  0  0  0
  142.5950   80.5672  220.2553 H   0  0  0  0  0  0  0  0  0  0  0  0
  142.1561   82.2385  222.0411 H   0  0  0  0  0  0  0  0  0  0  0  0
  141.0744   81.4725  224.1659 H   0  0  0  0  0  0  0  0  0  0  0  0
  140.4600   79.1152  224.4634 H   0  0  0  0  0  0  0  0  0  0  0  0
  140.3630   76.8178  223.6303 H   0  0  0  0  0  0  0  0  0  0  0  0
  141.6239   74.1781  222.1379 H   0  0  0  0  0  0  0  0  0  0  0  0
  139.8951   74.4176  222.0140 H   0  0  0  0  0  0  0  0  0  0  0  0
  136.6707   72.8071  221.5150 H   0  0  0  0  0  0  0  0  0  0  0  0
  137.1852   71.1454  221.0863 H   0  0  0  0  0  0  0  0  0  0  0  0
  137.8311   72.7901  223.5235 H   0  0  0  0  0  0  0  0  0  0  0  0
  137.1113   71.1109  223.3706 H   0  0  0  0  0  0  0  0  0  0  0  0
  1  2  1  0
  2  3  1  0
  3  4  2  0
  3  5  1  0
  5  6  1  0
  6  7  2  0
  7  8  1  0
  8  9  2  0
  9 10  1  0
 10 11  2  0
  5 12  1  0
 12 13  1  0
 13 14  1  0
 14 15  1  0
 15 16  1  0
 16 17  2  0
 16 18  1  0
 18 19  1  0
 18 20  1  0
 20 21  1  0
 21 22  1  0
 22 23  2  0
 23 24  1  0
 24 25  2  0
 25 26  1  0
 26 27  2  0
 27 28  1  0
 28 29  2  0
 29 30  1  0
 30 31  2  0
 31 32  1  0
 15 33  1  0
 33 34  1  0
 11  6  1  0
 34 12  1  0
 32 20  1  0
 31 22  1  0
 29 24  1  0
  1 35  1  0
  1 36  1  0
  1 37  1  0
  2 38  1  0
  2 39  1  0
  7 40  1  0
  8 41  1  0
  9 42  1  0
 10 43  1  0
 11 44  1  0
 12 45  1  0
 13 46  1  0
 13 47  1  0
 14 48  1  0
 14 49  1  0
 18 50  1  6
 19 51  1  0
 19 52  1  0
 20 53  1  0
 21 54  1  0
 21 55  1  0
 23 56  1  0
 25 57  1  0
 26 58  1  0
 27 59  1  0
 28 60  1  0
 30 61  1  0
 32 62  1  0
 32 63  1  0
 33 64  1  0
 33 65  1  0
 34 66  1  0
 34 67  1  0
M  END
>  <smiles>  (49) 
CCC(=O)N(c1ccccc1)C1CCN(C(=O)[C@H](N)C2Cc3cc4ccccc4cc3C2)CC1

>  <score_type>  (49) 
oracle

>  <origin>  (49) 
autodockgpu

>  <m_score__min__energy>  (49) 
-8.8599999999999994

>  <m_primary>  (49) 
energy

>  <rmsd>  (49) 
7.900259759598555

>  <m_score__min__rmsd>  (49) 
7.900259759598555

>  <meeko>  (49) 
{"free_energy": -8.42, "intermolecular_energy": -10.51, "internal_energy": -1.73, "cluster_size": 7, "cluster_id": 1, "rank_in_cluster": 4}

>  <energy>  (49) 
-7.8

>  <cluster_rmsd>  (49) 
0.0

>  <cluster>  (49) 
8

$$$$

     RDKit          3D

 67 71  0  0  0  0  0  0  0  0999 V2000
  137.9350   80.1590  223.7580 C   0  0  0  0  0  0  0  0  0  0  0  0
  137.5350   79.3480  222.5330 C   0  0  0  0  0  0  0  0  0  0  0  0
  137.9860   77.9610  222.6250 C   0  0  0  0  0  0  0  0  0  0  0  0
  137.0960   77.1110  222.9840 O   0  0  0  0  0  0  0  0  0  0  0  0
  139.2670   77.4530  222.3740 N   0  0  0  0  0  0  0  0  0  0  0  0
  140.3690   78.3850  222.3420 C   0  0  0  0  0  0  0  0  0  0  0  0
  141.1020   78.6510  223.4980 C   0  0  0  0  0  0  0  0  0  0  0  0
  142.1880   79.5280  223.4870 C   0  0  0  0  0  0  0  0  0  0  0  0
  142.5710   80.1610  222.3290 C   0  0  0  0  0  0  0  0  0  0  0  0
  141.8540   79.9020  221.1940 C   0  0  0  0  0  0  0  0  0  0  0  0
  140.7650   79.0240  221.1960 C   0  0  0  0  0  0  0  0  0  0  0  0
  139.6000   76.0700  222.1230 C   0  0  0  0  0  0  0  0  0  0  0  0
  138.7640   75.4590  221.0220 C   0  0  0  0  0  0  0  0  0  0  0  0
  139.1360   74.0420  220.7350 C   0  0  0  0  0  0  0  0  0  0  0  0
  140.5300   73.7600  220.9310 N   0  0  0  0  0  0  0  0  0  0  0  0
  141.1040   72.4890  221.1410 C   0  0  0  0  0  0  0  0  0  0  0  0
  142.3730   72.3880  221.3130 O   0  0  0  0  0  0  0  0  0  0  0  0
  140.3660   71.2110  221.1810 C   0  0  2  0  0  0  0  0  0  0  0  0
  140.1600   70.6860  219.8240 N   0  0  0  0  0  0  0  0  0  0  0  0
  139.0360   71.2630  221.8510 C   0  0  0  0  0  0  0  0  0  0  0  0
  138.6250   69.9320  222.4480 C   0  0  0  0  0  0  0  0  0  0  0  0
  139.2360   69.9540  223.8060 C   0  0  0  0  0  0  0  0  0  0  0  0
  139.4560   68.8770  224.6410 C   0  0  0  0  0  0  0  0  0  0  0  0
  140.0290   69.0570  225.8770 C   0  0  0  0  0  0  0  0  0  0  0  0
  140.2340   67.9710  226.6940 C   0  0  0  0  0  0  0  0  0  0  0  0
  140.8000   68.1320  227.9360 C   0  0  0  0  0  0  0  0  0  0  0  0
  141.1560   69.4170  228.3360 C   0  0  0  0  0  0  0  0  0  0  0  0
  140.9400   70.4900  227.4990 C   0  0  0  0  0  0  0  0  0  0  0  0
  140.3710   70.3540  226.2450 C   0  0  0  0  0  0  0  0  0  0  0  0
  140.1440   71.4150  225.3990 C   0  0  0  0  0  0  0  0  0  0  0  0
  139.5670   71.2540  224.1430 C   0  0  0  0  0  0  0  0  0  0  0  0
  139.1980   72.1900  223.0520 C   0  0  0  0  0  0  0  0  0  0  0  0
  141.4470   74.9030  220.8930 C   0  0  0  0  0  0  0  0  0  0  0  0
  141.0760   75.8500  221.9740 C   0  0  0  0  0  0  0  0  0  0  0  0
  137.6622   79.6060  224.6689 H   0  0  0  0  0  0  0  0  0  0  0  0
  139.0214   80.3312  223.7450 H   0  0  0  0  0  0  0  0  0  0  0  0
  137.4104   81.1257  223.7450 H   0  0  0  0  0  0  0  0  0  0  0  0
  136.4389   79.3599  222.4413 H   0  0  0  0  0  0  0  0  0  0  0  0
  138.0123   79.8033  221.6527 H   0  0  0  0  0  0  0  0  0  0  0  0
  140.8181   78.1587  224.4398 H   0  0  0  0  0  0  0  0  0  0  0  0
  142.7444   79.7148  224.4173 H   0  0  0  0  0  0  0  0  0  0  0  0
  143.4259   80.8530  222.3156 H   0  0  0  0  0  0  0  0  0  0  0  0
  142.1410   80.3971  220.2546 H   0  0  0  0  0  0  0  0  0  0  0  0
  140.2161   78.8430  220.2601 H   0  0  0  0  0  0  0  0  0  0  0  0
  139.3228   75.5081  223.0271 H   0  0  0  0  0  0  0  0  0  0  0  0
  137.7067   75.4910  221.3239 H   0  0  0  0  0  0  0  0  0  0  0  0
  138.9434   76.0416  220.1064 H   0  0  0  0  0  0  0  0  0  0  0  0
  138.5526   73.3883  221.4001 H   0  0  0  0  0  0  0  0  0  0  0  0
  138.9180   73.8615  219.6720 H   0  0  0  0  0  0  0  0  0  0  0  0
  141.0093   70.5550  221.7858 H   0  0  0  0  0  0  0  0  0  0  0  0
  140.8060   71.1250  219.1280 H   0  0  0  0  0  0  0  0  0  0  0  0
  139.1660   70.8880  219.5640 H   0  0  0  0  0  0  0  0  0  0  0  0
  138.2922   71.5754  221.1032 H   0  0  0  0  0  0  0  0  0  0  0  0
  137.5298   69.8513  222.5113 H   0  0  0  0  0  0  0  0  0  0  0  0
  138.9543   69.0730  221.8449 H   0  0  0  0  0  0  0  0  0  0  0  0
  139.1702   67.8663  224.3143 H   0  0  0  0  0  0  0  0  0  0  0  0
  139.9433   66.9668  226.3518 H   0  0  0  0  0  0  0  0  0  0  0  0
  140.9673   67.2684  228.5965 H   0  0  0  0  0  0  0  0  0  0  0  0
  141.6117   69.5764  229.3244 H   0  0  0  0  0  0  0  0  0  0  0  0
  141.2313   71.4941  227.8410 H   0  0  0  0  0  0  0  0  0  0  0  0
  140.4285   72.4257  225.7269 H   0  0  0  0  0  0  0  0  0  0  0  0
  138.2568   72.7120  223.2793 H   0  0  0  0  0  0  0  0  0  0  0  0
  139.9407   72.9853  222.8910 H   0  0  0  0  0  0  0  0  0  0  0  0
  142.4791   74.5542  221.0452 H   0  0  0  0  0  0  0  0  0  0  0  0
  141.3784   75.4049  219.9166 H   0  0  0  0  0  0  0  0  0  0  0  0
  141.4632   75.4557  222.9251 H   0  0  0  0  0  0  0  0  0  0  0  0
  141.5135   76.8225  221.7042 H   0  0  0  0  0  0  0  0  0  0  0  0
  1  2  1  0
  2  3  1  0
  3  4  2  0
  3  5  1  0
  5  6  1  0
  6  7  2  0
  7  8  1  0
  8  9  2  0
  9 10  1  0
 10 11  2  0
  5 12  1  0
 12 13  1  0
 13 14  1  0
 14 15  1  0
 15 16  1  0
 16 17  2  0
 16 18  1  0
 18 19  1  0
 18 20  1  0
 20 21  1  0
 21 22  1  0
 22 23  2  0
 23 24  1  0
 24 25  2  0
 25 26  1  0
 26 27  2  0
 27 28  1  0
 28 29  2  0
 29 30  1  0
 30 31  2  0
 31 32  1  0
 15 33  1  0
 33 34  1  0
 11  6  1  0
 34 12  1  0
 32 20  1  0
 31 22  1  0
 29 24  1  0
  1 35  1  0
  1 36  1  0
  1 37  1  0
  2 38  1  0
  2 39  1  0
  7 40  1  0
  8 41  1  0
  9 42  1  0
 10 43  1  0
 11 44  1  0
 12 45  1  0
 13 46  1  0
 13 47  1  0
 14 48  1  0
 14 49  1  0
 18 50  1  1
 19 51  1  0
 19 52  1  0
 20 53  1  0
 21 54  1  0
 21 55  1  0
 23 56  1  0
 25 57  1  0
 26 58  1  0
 27 59  1  0
 28 60  1  0
 30 61  1  0
 32 62  1  0
 32 63  1  0
 33 64  1  0
 33 65  1  0
 34 66  1  0
 34 67  1  0
M  END
>  <smiles>  (50) 
CCC(=O)N(c1ccccc1)C1CCN(C(=O)[C@H](N)C2Cc3cc4ccccc4cc3C2)CC1

>  <score_type>  (50) 
oracle

>  <origin>  (50) 
autodockgpu

>  <m_score__min__energy>  (50) 
-8.8599999999999994

>  <m_primary>  (50) 
energy

>  <rmsd>  (50) 
2.58023251921645

>  <m_score__min__rmsd>  (50) 
2.58023251921645

>  <meeko>  (50) 
{"free_energy": -8.77, "intermolecular_energy": -10.86, "internal_energy": -1.67, "cluster_size": 5, "cluster_id": 2, "rank_in_cluster": 2}

>  <energy>  (50) 
-7.57

>  <cluster_rmsd>  (50) 
0.0

>  <cluster>  (50) 
9

$$$$
