
     RDKit          3D

 45 48  0  0  0  0  0  0  0  0999 V2000
  141.4870   75.9070  219.8670 O   0  0  0  0  0  0  0  0  0  0  0  0
  141.5830   74.7950  220.4420 C   0  0  0  0  0  0  0  0  0  0  0  0
  142.7200   74.0600  220.2030 C   0  0  0  0  0  0  0  0  0  0  0  0
  143.6950   74.5530  219.3640 C   0  0  0  0  0  0  0  0  0  0  0  0
  144.8160   73.7820  219.1570 C   0  0  0  0  0  0  0  0  0  0  0  0
  144.9020   72.5630  219.7980 C   0  0  0  0  0  0  0  0  0  0  0  0
  146.0160   71.8220  219.5780 F   0  0  0  0  0  0  0  0  0  0  0  0
  143.9240   72.0740  220.6360 C   0  0  0  0  0  0  0  0  0  0  0  0
  142.8050   72.8510  220.8400 C   0  0  0  0  0  0  0  0  0  0  0  0
  141.8570   72.4370  221.6210 N   0  0  0  0  0  0  0  0  0  0  0  0
  140.7140   73.1460  221.8770 C   0  0  0  0  0  0  0  0  0  0  0  0
  139.7740   72.4830  222.7360 C   0  0  0  0  0  0  0  0  0  0  0  0
  139.7410   71.2930  223.2520 C   0  0  0  0  0  0  0  0  0  0  0  0
  140.1140   70.9760  224.6410 C   0  0  0  0  0  0  0  0  0  0  0  0
  139.8730   69.7010  225.1460 C   0  0  0  0  0  0  0  0  0  0  0  0
  140.1960   69.3350  226.4330 C   0  0  0  0  0  0  0  0  0  0  0  0
  140.7810   70.2390  227.2880 C   0  0  0  0  0  0  0  0  0  0  0  0
  141.0850   69.8450  228.5480 F   0  0  0  0  0  0  0  0  0  0  0  0
  141.0250   71.5020  226.8060 C   0  0  0  0  0  0  0  0  0  0  0  0
  140.6970   71.8710  225.4960 C   0  0  0  0  0  0  0  0  0  0  0  0
  140.5840   74.3360  221.2780 N   0  0  0  0  0  0  0  0  0  0  0  0
  139.4820   75.2310  221.4330 C   0  0  0  0  0  0  0  0  0  0  0  0
  139.7770   76.5030  222.1050 C   0  0  0  0  0  0  0  0  0  0  0  0
  138.6940   77.3370  222.4450 C   0  0  0  0  0  0  0  0  0  0  0  0
  138.8730   78.5560  223.0450 C   0  0  0  0  0  0  0  0  0  0  0  0
  140.1280   79.0410  223.3530 C   0  0  0  0  0  0  0  0  0  0  0  0
  141.1990   78.2440  223.0300 C   0  0  0  0  0  0  0  0  0  0  0  0
  142.4770   78.7010  223.3250 O   0  0  0  0  0  0  0  0  0  0  0  0
  141.0070   77.0060  222.4190 C   0  0  0  0  0  0  0  0  0  0  0  0
  143.5812   75.5318  218.8751 H   0  0  0  0  0  0  0  0  0  0  0  0
  145.6241   74.1291  218.4964 H   0  0  0  0  0  0  0  0  0  0  0  0
  144.0331   71.0953  221.1261 H   0  0  0  0  0  0  0  0  0  0  0  0
  138.9111   73.1073  223.0111 H   0  0  0  0  0  0  0  0  0  0  0  0
  139.4119   70.4642  222.6080 H   0  0  0  0  0  0  0  0  0  0  0  0
  139.4044   68.9542  224.4882 H   0  0  0  0  0  0  0  0  0  0  0  0
  139.9847   68.3127  226.7797 H   0  0  0  0  0  0  0  0  0  0  0  0
  141.4919   72.2454  227.4689 H   0  0  0  0  0  0  0  0  0  0  0  0
  140.9106   72.8930  225.1498 H   0  0  0  0  0  0  0  0  0  0  0  0
  139.0922   75.4621  220.4307 H   0  0  0  0  0  0  0  0  0  0  0  0
  138.7653   74.7098  222.0847 H   0  0  0  0  0  0  0  0  0  0  0  0
  137.6714   76.9988  222.2217 H   0  0  0  0  0  0  0  0  0  0  0  0
  137.9905   79.1659  223.2883 H   0  0  0  0  0  0  0  0  0  0  0  0
  140.2642   80.0204  223.8348 H   0  0  0  0  0  0  0  0  0  0  0  0
  143.2370   78.5450  222.6690 H   0  0  0  0  0  0  0  0  0  0  0  0
  141.8938   76.4019  222.1768 H   0  0  0  0  0  0  0  0  0  0  0  0
  1  2  2  0
  2  3  1  0
  3  4  2  0
  4  5  1  0
  5  6  2  0
  6  7  1  0
  6  8  1  0
  8  9  2  0
  9 10  1  0
 10 11  2  0
 11 12  1  0
 12 13  2  0
 13 14  1  0
 14 15  2  0
 15 16  1  0
 16 17  2  0
 17 18  1  0
 17 19  1  0
 19 20  2  0
 11 21  1  0
 21 22  1  0
 22 23  1  0
 23 24  2  0
 24 25  1  0
 25 26  2  0
 26 27  1  0
 27 28  1  0
 27 29  2  0
 21  2  1  0
 29 23  1  0
  9  3  1  0
 20 14  1  0
  4 30  1  0
  5 31  1  0
  8 32  1  0
 12 33  1  0
 13 34  1  0
 15 35  1  0
 16 36  1  0
 19 37  1  0
 20 38  1  0
 22 39  1  0
 22 40  1  0
 24 41  1  0
 25 42  1  0
 26 43  1  0
 28 44  1  0
 29 45  1  0
M  END
>  <smiles>  (1) 
O=c1c2ccc(F)cc2nc(/C=C/c2ccc(F)cc2)n1Cc1cccc(O)c1

>  <score_type>  (1) 
oracle

>  <origin>  (1) 
autodockgpu

>  <m_score__min__energy>  (1) 
-8.3399999999999999

>  <m_primary>  (1) 
energy

>  <rmsd>  (1) 
4.5191572196585446

>  <m_score__min__rmsd>  (1) 
4.5191572196585446

>  <meeko>  (1) 
{"free_energy": -7.58, "intermolecular_energy": -9.37, "internal_energy": -0.77, "cluster_size": 4, "cluster_id": 2, "rank_in_cluster": 1}

>  <energy>  (1) 
-8.34

>  <cluster_rmsd>  (1) 
0.0

>  <cluster>  (1) 
1

$$$$

     RDKit          3D

 45 48  0  0  0  0  0  0  0  0999 V2000
  140.0330   74.4300  221.8660 O   0  0  0  0  0  0  0  0  0  0  0  0
  140.7710   75.1710  221.1700 C   0  0  0  0  0  0  0  0  0  0  0  0
  142.0040   74.6760  220.8160 C   0  0  0  0  0  0  0  0  0  0  0  0
  142.3810   73.4150  221.2210 C   0  0  0  0  0  0  0  0  0  0  0  0
  143.6240   72.9620  220.8400 C   0  0  0  0  0  0  0  0  0  0  0  0
  144.4200   73.7910  220.0780 C   0  0  0  0  0  0  0  0  0  0  0  0
  145.6390   73.3220  219.7160 F   0  0  0  0  0  0  0  0  0  0  0  0
  144.0380   75.0520  219.6740 C   0  0  0  0  0  0  0  0  0  0  0  0
  142.7930   75.4990  220.0580 C   0  0  0  0  0  0  0  0  0  0  0  0
  142.3850   76.6770  219.7040 N   0  0  0  0  0  0  0  0  0  0  0  0
  141.1650   77.1970  220.0420 C   0  0  0  0  0  0  0  0  0  0  0  0
  140.9330   78.5380  219.5830 C   0  0  0  0  0  0  0  0  0  0  0  0
  141.5630   79.6550  219.7790 C   0  0  0  0  0  0  0  0  0  0  0  0
  141.7980   80.2600  221.1000 C   0  0  0  0  0  0  0  0  0  0  0  0
  142.5620   79.5800  222.0460 C   0  0  0  0  0  0  0  0  0  0  0  0
  142.8230   80.0860  223.2980 C   0  0  0  0  0  0  0  0  0  0  0  0
  142.3250   81.3120  223.6720 C   0  0  0  0  0  0  0  0  0  0  0  0
  142.6000   81.7800  224.9130 F   0  0  0  0  0  0  0  0  0  0  0  0
  141.5680   81.9970  222.7510 C   0  0  0  0  0  0  0  0  0  0  0  0
  141.3060   81.4800  221.4780 C   0  0  0  0  0  0  0  0  0  0  0  0
  140.3560   76.4300  220.7830 N   0  0  0  0  0  0  0  0  0  0  0  0
  139.0420   76.7810  221.2160 C   0  0  0  0  0  0  0  0  0  0  0  0
  138.9350   78.0080  222.0150 C   0  0  0  0  0  0  0  0  0  0  0  0
  139.8310   78.1770  223.0900 C   0  0  0  0  0  0  0  0  0  0  0  0
  139.7870   79.2740  223.9110 C   0  0  0  0  0  0  0  0  0  0  0  0
  138.8610   80.2820  223.7330 C   0  0  0  0  0  0  0  0  0  0  0  0
  137.9780   80.1390  222.6900 C   0  0  0  0  0  0  0  0  0  0  0  0
  137.0320   81.1340  222.4820 O   0  0  0  0  0  0  0  0  0  0  0  0
  138.0300   79.0190  221.8610 C   0  0  0  0  0  0  0  0  0  0  0  0
  141.7107   72.7899  221.8292 H   0  0  0  0  0  0  0  0  0  0  0  0
  143.9740   71.9622  221.1365 H   0  0  0  0  0  0  0  0  0  0  0  0
  144.7049   75.6804  219.0654 H   0  0  0  0  0  0  0  0  0  0  0  0
  140.0471   78.6375  218.9386 H   0  0  0  0  0  0  0  0  0  0  0  0
  141.9483   80.1869  218.8966 H   0  0  0  0  0  0  0  0  0  0  0  0
  142.9744   78.5955  221.7800 H   0  0  0  0  0  0  0  0  0  0  0  0
  143.4343   79.5060  224.0050 H   0  0  0  0  0  0  0  0  0  0  0  0
  141.1565   82.9801  223.0232 H   0  0  0  0  0  0  0  0  0  0  0  0
  140.6963   82.0618  220.7711 H   0  0  0  0  0  0  0  0  0  0  0  0
  138.4147   76.9061  220.3211 H   0  0  0  0  0  0  0  0  0  0  0  0
  138.7203   75.9652  221.8800 H   0  0  0  0  0  0  0  0  0  0  0  0
  140.5904   77.4033  223.2762 H   0  0  0  0  0  0  0  0  0  0  0  0
  140.5107   79.3532  224.7356 H   0  0  0  0  0  0  0  0  0  0  0  0
  138.8313   81.1595  224.3957 H   0  0  0  0  0  0  0  0  0  0  0  0
  136.9760   81.6010  221.5820 H   0  0  0  0  0  0  0  0  0  0  0  0
  137.3030   78.9459  221.0388 H   0  0  0  0  0  0  0  0  0  0  0  0
  1  2  2  0
  2  3  1  0
  3  4  2  0
  4  5  1  0
  5  6  2  0
  6  7  1  0
  6  8  1  0
  8  9  2  0
  9 10  1  0
 10 11  2  0
 11 12  1  0
 12 13  2  0
 13 14  1  0
 14 15  2  0
 15 16  1  0
 16 17  2  0
 17 18  1  0
 17 19  1  0
 19 20  2  0
 11 21  1  0
 21 22  1  0
 22 23  1  0
 23 24  2  0
 24 25  1  0
 25 26  2  0
 26 27  1  0
 27 28  1  0
 27 29  2  0
 21  2  1  0
 29 23  1  0
  9  3  1  0
 20 14  1  0
  4 30  1  0
  5 31  1  0
  8 32  1  0
 12 33  1  0
 13 34  1  0
 15 35  1  0
 16 36  1  0
 19 37  1  0
 20 38  1  0
 22 39  1  0
 22 40  1  0
 24 41  1  0
 25 42  1  0
 26 43  1  0
 28 44  1  0
 29 45  1  0
M  END
>  <smiles>  (2) 
O=c1c2ccc(F)cc2nc(/C=C/c2ccc(F)cc2)n1Cc1cccc(O)c1

>  <score_type>  (2) 
oracle

>  <origin>  (2) 
autodockgpu

>  <m_score__min__energy>  (2) 
-8.3399999999999999

>  <m_primary>  (2) 
energy

>  <rmsd>  (2) 
4.412855243599893

>  <m_score__min__rmsd>  (2) 
4.412855243599893

>  <meeko>  (2) 
{"free_energy": -6.42, "intermolecular_energy": -8.21, "internal_energy": -1.88, "cluster_size": 1, "cluster_id": 9, "rank_in_cluster": 1}

>  <energy>  (2) 
-8.23

>  <cluster_rmsd>  (2) 
0.68

>  <cluster>  (2) 
1

$$$$

     RDKit          3D

 45 48  0  0  0  0  0  0  0  0999 V2000
  141.7770   75.9910  219.8080 O   0  0  0  0  0  0  0  0  0  0  0  0
  141.7840   74.8800  220.3930 C   0  0  0  0  0  0  0  0  0  0  0  0
  142.9150   74.1080  220.2620 C   0  0  0  0  0  0  0  0  0  0  0  0
  143.9770   74.5670  219.5150 C   0  0  0  0  0  0  0  0  0  0  0  0
  145.0890   73.7600  219.4150 C   0  0  0  0  0  0  0  0  0  0  0  0
  145.0770   72.5420  220.0630 C   0  0  0  0  0  0  0  0  0  0  0  0
  146.1820   71.7660  219.9490 F   0  0  0  0  0  0  0  0  0  0  0  0
  144.0110   72.0880  220.8090 C   0  0  0  0  0  0  0  0  0  0  0  0
  142.9030   72.9010  220.9060 C   0  0  0  0  0  0  0  0  0  0  0  0
  141.8740   72.5200  221.5970 N   0  0  0  0  0  0  0  0  0  0  0  0
  140.7360   73.2650  221.7450 C   0  0  0  0  0  0  0  0  0  0  0  0
  139.7000   72.6370  222.5150 C   0  0  0  0  0  0  0  0  0  0  0  0
  139.5740   71.4450  223.0130 C   0  0  0  0  0  0  0  0  0  0  0  0
  139.8810   71.0870  224.4070 C   0  0  0  0  0  0  0  0  0  0  0  0
  140.7400   71.8880  225.1540 C   0  0  0  0  0  0  0  0  0  0  0  0
  141.0700   71.6130  226.4610 C   0  0  0  0  0  0  0  0  0  0  0  0
  140.5500   70.5080  227.0930 C   0  0  0  0  0  0  0  0  0  0  0  0
  140.8960   70.2670  228.3800 F   0  0  0  0  0  0  0  0  0  0  0  0
  139.7000   69.7050  226.3700 C   0  0  0  0  0  0  0  0  0  0  0  0
  139.3660   69.9880  225.0410 C   0  0  0  0  0  0  0  0  0  0  0  0
  140.6980   74.4560  221.1330 N   0  0  0  0  0  0  0  0  0  0  0  0
  139.6160   75.3850  221.1850 C   0  0  0  0  0  0  0  0  0  0  0  0
  139.8550   76.6090  221.9600 C   0  0  0  0  0  0  0  0  0  0  0  0
  138.7350   77.3290  222.4200 C   0  0  0  0  0  0  0  0  0  0  0  0
  138.8590   78.4990  223.1240 C   0  0  0  0  0  0  0  0  0  0  0  0
  140.0910   79.0420  223.4260 C   0  0  0  0  0  0  0  0  0  0  0  0
  141.1970   78.3560  222.9870 C   0  0  0  0  0  0  0  0  0  0  0  0
  142.4540   78.8750  223.2730 O   0  0  0  0  0  0  0  0  0  0  0  0
  141.0610   77.1670  222.2710 C   0  0  0  0  0  0  0  0  0  0  0  0
  143.9386   75.5459  219.0146 H   0  0  0  0  0  0  0  0  0  0  0  0
  145.9657   74.0791  218.8323 H   0  0  0  0  0  0  0  0  0  0  0  0
  144.0437   71.1094  221.3102 H   0  0  0  0  0  0  0  0  0  0  0  0
  138.8443   73.2958  222.7242 H   0  0  0  0  0  0  0  0  0  0  0  0
  139.2128   70.6474  222.3471 H   0  0  0  0  0  0  0  0  0  0  0  0
  141.1740   72.7799  224.6785 H   0  0  0  0  0  0  0  0  0  0  0  0
  141.7543   72.2815  227.0040 H   0  0  0  0  0  0  0  0  0  0  0  0
  139.2698   68.8138  226.8504 H   0  0  0  0  0  0  0  0  0  0  0  0
  138.6812   69.3193  224.4988 H   0  0  0  0  0  0  0  0  0  0  0  0
  139.3771   75.6814  220.1530 H   0  0  0  0  0  0  0  0  0  0  0  0
  138.7997   74.8606  221.7033 H   0  0  0  0  0  0  0  0  0  0  0  0
  137.7283   76.9399  222.2075 H   0  0  0  0  0  0  0  0  0  0  0  0
  137.9496   79.0201  223.4578 H   0  0  0  0  0  0  0  0  0  0  0  0
  140.1831   79.9807  223.9920 H   0  0  0  0  0  0  0  0  0  0  0  0
  143.2520   78.6150  222.7010 H   0  0  0  0  0  0  0  0  0  0  0  0
  141.9744   76.6515  221.9393 H   0  0  0  0  0  0  0  0  0  0  0  0
  1  2  2  0
  2  3  1  0
  3  4  2  0
  4  5  1  0
  5  6  2  0
  6  7  1  0
  6  8  1  0
  8  9  2  0
  9 10  1  0
 10 11  2  0
 11 12  1  0
 12 13  2  0
 13 14  1  0
 14 15  2  0
 15 16  1  0
 16 17  2  0
 17 18  1  0
 17 19  1  0
 19 20  2  0
 11 21  1  0
 21 22  1  0
 22 23  1  0
 23 24  2  0
 24 25  1  0
 25 26  2  0
 26 27  1  0
 27 28  1  0
 27 29  2  0
 21  2  1  0
 29 23  1  0
  9  3  1  0
 20 14  1  0
  4 30  1  0
  5 31  1  0
  8 32  1  0
 12 33  1  0
 13 34  1  0
 15 35  1  0
 16 36  1  0
 19 37  1  0
 20 38  1  0
 22 39  1  0
 22 40  1  0
 24 41  1  0
 25 42  1  0
 26 43  1  0
 28 44  1  0
 29 45  1  0
M  END
>  <smiles>  (3) 
O=c1c2ccc(F)cc2nc(/C=C/c2ccc(F)cc2)n1Cc1cccc(O)c1

>  <score_type>  (3) 
oracle

>  <origin>  (3) 
autodockgpu

>  <m_score__min__energy>  (3) 
-8.3399999999999999

>  <m_primary>  (3) 
energy

>  <rmsd>  (3) 
4.582372117933937

>  <m_score__min__rmsd>  (3) 
4.582372117933937

>  <meeko>  (3) 
{"free_energy": -7.51, "intermolecular_energy": -9.3, "internal_energy": -0.83, "cluster_size": 4, "cluster_id": 2, "rank_in_cluster": 4}

>  <energy>  (3) 
-8.19

>  <cluster_rmsd>  (3) 
0.38

>  <cluster>  (3) 
1

$$$$

     RDKit          3D

 45 48  0  0  0  0  0  0  0  0999 V2000
  142.1760   76.2610  218.9200 O   0  0  0  0  0  0  0  0  0  0  0  0
  141.6150   76.0070  220.0150 C   0  0  0  0  0  0  0  0  0  0  0  0
  141.4510   77.0520  220.8930 C   0  0  0  0  0  0  0  0  0  0  0  0
  141.8910   78.3110  220.5550 C   0  0  0  0  0  0  0  0  0  0  0  0
  141.7030   79.3260  221.4670 C   0  0  0  0  0  0  0  0  0  0  0  0
  141.0860   79.0260  222.6640 C   0  0  0  0  0  0  0  0  0  0  0  0
  140.9120   80.0410  223.5450 F   0  0  0  0  0  0  0  0  0  0  0  0
  140.6470   77.7640  222.9980 C   0  0  0  0  0  0  0  0  0  0  0  0
  140.8380   76.7540  222.0810 C   0  0  0  0  0  0  0  0  0  0  0  0
  140.4410   75.5480  222.3460 N   0  0  0  0  0  0  0  0  0  0  0  0
  140.5920   74.4890  221.4920 C   0  0  0  0  0  0  0  0  0  0  0  0
  140.1220   73.2320  222.0020 C   0  0  0  0  0  0  0  0  0  0  0  0
  140.7350   72.1930  222.4800 C   0  0  0  0  0  0  0  0  0  0  0  0
  140.3010   71.4420  223.6690 C   0  0  0  0  0  0  0  0  0  0  0  0
  139.1570   70.6500  223.6080 C   0  0  0  0  0  0  0  0  0  0  0  0
  138.6950   69.9220  224.6810 C   0  0  0  0  0  0  0  0  0  0  0  0
  139.3630   69.9510  225.8820 C   0  0  0  0  0  0  0  0  0  0  0  0
  138.8800   69.2230  226.9170 F   0  0  0  0  0  0  0  0  0  0  0  0
  140.4940   70.7280  225.9600 C   0  0  0  0  0  0  0  0  0  0  0  0
  140.9620   71.4670  224.8680 C   0  0  0  0  0  0  0  0  0  0  0  0
  141.1860   74.7300  220.3160 N   0  0  0  0  0  0  0  0  0  0  0  0
  141.4140   73.7680  219.2870 C   0  0  0  0  0  0  0  0  0  0  0  0
  142.6650   73.0050  219.3850 C   0  0  0  0  0  0  0  0  0  0  0  0
  142.6070   71.7080  219.9300 C   0  0  0  0  0  0  0  0  0  0  0  0
  143.7270   70.9330  220.0910 C   0  0  0  0  0  0  0  0  0  0  0  0
  144.9810   71.3790  219.7270 C   0  0  0  0  0  0  0  0  0  0  0  0
  145.0610   72.6420  219.1920 C   0  0  0  0  0  0  0  0  0  0  0  0
  146.3080   73.1240  218.8150 O   0  0  0  0  0  0  0  0  0  0  0  0
  143.9170   73.4230  219.0340 C   0  0  0  0  0  0  0  0  0  0  0  0
  142.3776   78.5010  219.5869 H   0  0  0  0  0  0  0  0  0  0  0  0
  142.0366   80.3507  221.2463 H   0  0  0  0  0  0  0  0  0  0  0  0
  140.1601   77.5691  223.9649 H   0  0  0  0  0  0  0  0  0  0  0  0
  139.0269   73.1295  221.9840 H   0  0  0  0  0  0  0  0  0  0  0  0
  141.6418   71.8497  221.9606 H   0  0  0  0  0  0  0  0  0  0  0  0
  138.5985   70.6043  222.6614 H   0  0  0  0  0  0  0  0  0  0  0  0
  137.7850   69.3129  224.5767 H   0  0  0  0  0  0  0  0  0  0  0  0
  141.0479   70.7701  226.9095 H   0  0  0  0  0  0  0  0  0  0  0  0
  141.8722   72.0756  224.9739 H   0  0  0  0  0  0  0  0  0  0  0  0
  140.5801   73.0509  219.3058 H   0  0  0  0  0  0  0  0  0  0  0  0
  141.4906   74.3447  218.3534 H   0  0  0  0  0  0  0  0  0  0  0  0
  141.6313   71.3030  220.2367 H   0  0  0  0  0  0  0  0  0  0  0  0
  143.6226   69.9267  220.5228 H   0  0  0  0  0  0  0  0  0  0  0  0
  145.8753   70.7523  219.8591 H   0  0  0  0  0  0  0  0  0  0  0  0
  146.4130   74.0910  218.5260 H   0  0  0  0  0  0  0  0  0  0  0  0
  144.0286   74.4292  218.6038 H   0  0  0  0  0  0  0  0  0  0  0  0
  1  2  2  0
  2  3  1  0
  3  4  2  0
  4  5  1  0
  5  6  2  0
  6  7  1  0
  6  8  1  0
  8  9  2  0
  9 10  1  0
 10 11  2  0
 11 12  1  0
 12 13  2  0
 13 14  1  0
 14 15  2  0
 15 16  1  0
 16 17  2  0
 17 18  1  0
 17 19  1  0
 19 20  2  0
 11 21  1  0
 21 22  1  0
 22 23  1  0
 23 24  2  0
 24 25  1  0
 25 26  2  0
 26 27  1  0
 27 28  1  0
 27 29  2  0
 21  2  1  0
 29 23  1  0
  9  3  1  0
 20 14  1  0
  4 30  1  0
  5 31  1  0
  8 32  1  0
 12 33  1  0
 13 34  1  0
 15 35  1  0
 16 36  1  0
 19 37  1  0
 20 38  1  0
 22 39  1  0
 22 40  1  0
 24 41  1  0
 25 42  1  0
 26 43  1  0
 28 44  1  0
 29 45  1  0
M  END
>  <smiles>  (4) 
O=c1c2ccc(F)cc2nc(/C=C/c2ccc(F)cc2)n1Cc1cccc(O)c1

>  <score_type>  (4) 
oracle

>  <origin>  (4) 
autodockgpu

>  <m_score__min__energy>  (4) 
-8.3399999999999999

>  <m_primary>  (4) 
energy

>  <rmsd>  (4) 
7.923078740541541

>  <m_score__min__rmsd>  (4) 
7.923078740541541

>  <meeko>  (4) 
{"free_energy": -7.34, "intermolecular_energy": -9.13, "internal_energy": -1.06, "cluster_size": 20, "cluster_id": 1, "rank_in_cluster": 15}

>  <energy>  (4) 
-8.18

>  <cluster_rmsd>  (4) 
0.35

>  <cluster>  (4) 
1

$$$$

     RDKit          3D

 45 48  0  0  0  0  0  0  0  0999 V2000
  140.6860   75.3300  218.8100 O   0  0  0  0  0  0  0  0  0  0  0  0
  140.3260   74.9730  219.9590 C   0  0  0  0  0  0  0  0  0  0  0  0
  139.4820   75.8150  220.6430 C   0  0  0  0  0  0  0  0  0  0  0  0
  139.0660   76.9930  220.0630 C   0  0  0  0  0  0  0  0  0  0  0  0
  138.2200   77.8020  220.7870 C   0  0  0  0  0  0  0  0  0  0  0  0
  137.8370   77.3920  222.0470 C   0  0  0  0  0  0  0  0  0  0  0  0
  137.0040   78.2070  222.7400 F   0  0  0  0  0  0  0  0  0  0  0  0
  138.2560   76.2130  222.6240 C   0  0  0  0  0  0  0  0  0  0  0  0
  139.1020   75.4070  221.8940 C   0  0  0  0  0  0  0  0  0  0  0  0
  139.5240   74.2860  222.3900 N   0  0  0  0  0  0  0  0  0  0  0  0
  140.3650   73.4290  221.7330 C   0  0  0  0  0  0  0  0  0  0  0  0
  140.7440   72.2650  222.4820 C   0  0  0  0  0  0  0  0  0  0  0  0
  140.0570   71.3220  223.0510 C   0  0  0  0  0  0  0  0  0  0  0  0
  140.1600   70.9560  224.4730 C   0  0  0  0  0  0  0  0  0  0  0  0
  139.4230   69.8820  224.9660 C   0  0  0  0  0  0  0  0  0  0  0  0
  139.4720   69.4840  226.2820 C   0  0  0  0  0  0  0  0  0  0  0  0
  140.2690   70.1510  227.1820 C   0  0  0  0  0  0  0  0  0  0  0  0
  140.2920   69.7330  228.4700 F   0  0  0  0  0  0  0  0  0  0  0  0
  141.0030   71.2140  226.7130 C   0  0  0  0  0  0  0  0  0  0  0  0
  140.9520   71.6160  225.3740 C   0  0  0  0  0  0  0  0  0  0  0  0
  140.7650   73.7830  220.5050 N   0  0  0  0  0  0  0  0  0  0  0  0
  141.6190   73.0180  219.6540 C   0  0  0  0  0  0  0  0  0  0  0  0
  143.0610   73.1870  219.8700 C   0  0  0  0  0  0  0  0  0  0  0  0
  143.5240   74.4550  220.2740 C   0  0  0  0  0  0  0  0  0  0  0  0
  144.8560   74.7160  220.4690 C   0  0  0  0  0  0  0  0  0  0  0  0
  145.8250   73.7510  220.2820 C   0  0  0  0  0  0  0  0  0  0  0  0
  145.3950   72.5070  219.8890 C   0  0  0  0  0  0  0  0  0  0  0  0
  146.3430   71.5110  219.6910 O   0  0  0  0  0  0  0  0  0  0  0  0
  144.0390   72.2510  219.6920 C   0  0  0  0  0  0  0  0  0  0  0  0
  139.3990   77.2779  219.0541 H   0  0  0  0  0  0  0  0  0  0  0  0
  137.8577   78.7534  220.3704 H   0  0  0  0  0  0  0  0  0  0  0  0
  137.9263   75.9251  223.6331 H   0  0  0  0  0  0  0  0  0  0  0  0
  141.8318   72.1490  222.5966 H   0  0  0  0  0  0  0  0  0  0  0  0
  139.3486   70.7571  222.4272 H   0  0  0  0  0  0  0  0  0  0  0  0
  138.7733   69.3277  224.2728 H   0  0  0  0  0  0  0  0  0  0  0  0
  138.8696   68.6265  226.6163 H   0  0  0  0  0  0  0  0  0  0  0  0
  141.6499   71.7652  227.4113 H   0  0  0  0  0  0  0  0  0  0  0  0
  141.5557   72.4730  225.0408 H   0  0  0  0  0  0  0  0  0  0  0  0
  141.3786   71.9551  219.8035 H   0  0  0  0  0  0  0  0  0  0  0  0
  141.4268   73.3838  218.6346 H   0  0  0  0  0  0  0  0  0  0  0  0
  142.7938   75.2611  220.4382 H   0  0  0  0  0  0  0  0  0  0  0  0
  145.1614   75.7247  220.7839 H   0  0  0  0  0  0  0  0  0  0  0  0
  146.8917   73.9680  220.4403 H   0  0  0  0  0  0  0  0  0  0  0  0
  146.8530   71.1310  220.4830 H   0  0  0  0  0  0  0  0  0  0  0  0
  143.7408   71.2404  219.3761 H   0  0  0  0  0  0  0  0  0  0  0  0
  1  2  2  0
  2  3  1  0
  3  4  2  0
  4  5  1  0
  5  6  2  0
  6  7  1  0
  6  8  1  0
  8  9  2  0
  9 10  1  0
 10 11  2  0
 11 12  1  0
 12 13  2  0
 13 14  1  0
 14 15  2  0
 15 16  1  0
 16 17  2  0
 17 18  1  0
 17 19  1  0
 19 20  2  0
 11 21  1  0
 21 22  1  0
 22 23  1  0
 23 24  2  0
 24 25  1  0
 25 26  2  0
 26 27  1  0
 27 28  1  0
 27 29  2  0
 21  2  1  0
 29 23  1  0
  9  3  1  0
 20 14  1  0
  4 30  1  0
  5 31  1  0
  8 32  1  0
 12 33  1  0
 13 34  1  0
 15 35  1  0
 16 36  1  0
 19 37  1  0
 20 38  1  0
 22 39  1  0
 22 40  1  0
 24 41  1  0
 25 42  1  0
 26 43  1  0
 28 44  1  0
 29 45  1  0
M  END
>  <smiles>  (5) 
O=c1c2ccc(F)cc2nc(/C=C/c2ccc(F)cc2)n1Cc1cccc(O)c1

>  <score_type>  (5) 
oracle

>  <origin>  (5) 
autodockgpu

>  <m_score__min__energy>  (5) 
-8.3399999999999999

>  <m_primary>  (5) 
energy

>  <rmsd>  (5) 
7.275097113713932

>  <m_score__min__rmsd>  (5) 
7.275097113713932

>  <meeko>  (5) 
{"free_energy": -7.23, "intermolecular_energy": -9.02, "internal_energy": -0.98, "cluster_size": 20, "cluster_id": 1, "rank_in_cluster": 19}

>  <energy>  (5) 
-8.16

>  <cluster_rmsd>  (5) 
0.56

>  <cluster>  (5) 
1

$$$$

     RDKit          3D

 45 48  0  0  0  0  0  0  0  0999 V2000
  141.7490   74.8410  219.0510 O   0  0  0  0  0  0  0  0  0  0  0  0
  141.1390   74.6050  220.1240 C   0  0  0  0  0  0  0  0  0  0  0  0
  140.3980   75.6300  220.6640 C   0  0  0  0  0  0  0  0  0  0  0  0
  140.3470   76.8510  220.0290 C   0  0  0  0  0  0  0  0  0  0  0  0
  139.5910   77.8450  220.6070 C   0  0  0  0  0  0  0  0  0  0  0  0
  138.9300   77.5660  221.7850 C   0  0  0  0  0  0  0  0  0  0  0  0
  138.1920   78.5630  222.3350 F   0  0  0  0  0  0  0  0  0  0  0  0
  138.9840   76.3430  222.4170 C   0  0  0  0  0  0  0  0  0  0  0  0
  139.7410   75.3520  221.8320 C   0  0  0  0  0  0  0  0  0  0  0  0
  139.8240   74.1830  222.3860 N   0  0  0  0  0  0  0  0  0  0  0  0
  140.5530   73.1450  221.8720 C   0  0  0  0  0  0  0  0  0  0  0  0
  140.5440   71.9500  222.6680 C   0  0  0  0  0  0  0  0  0  0  0  0
  140.6670   71.7410  223.9430 C   0  0  0  0  0  0  0  0  0  0  0  0
  140.2540   70.5070  224.6310 C   0  0  0  0  0  0  0  0  0  0  0  0
  140.8730   70.1390  225.8230 C   0  0  0  0  0  0  0  0  0  0  0  0
  140.5370   69.0010  226.5180 C   0  0  0  0  0  0  0  0  0  0  0  0
  139.5540   68.1620  226.0480 C   0  0  0  0  0  0  0  0  0  0  0  0
  139.2490   67.0490  226.7580 F   0  0  0  0  0  0  0  0  0  0  0  0
  138.9330   68.5090  224.8720 C   0  0  0  0  0  0  0  0  0  0  0  0
  139.2760   69.6680  224.1680 C   0  0  0  0  0  0  0  0  0  0  0  0
  141.2140   73.3660  220.7290 N   0  0  0  0  0  0  0  0  0  0  0  0
  142.0070   72.4090  220.0270 C   0  0  0  0  0  0  0  0  0  0  0  0
  143.4500   72.6760  219.9870 C   0  0  0  0  0  0  0  0  0  0  0  0
  144.1370   72.7780  221.2130 C   0  0  0  0  0  0  0  0  0  0  0  0
  145.4780   73.0560  221.2760 C   0  0  0  0  0  0  0  0  0  0  0  0
  146.2380   73.2520  220.1400 C   0  0  0  0  0  0  0  0  0  0  0  0
  145.5880   73.1560  218.9340 C   0  0  0  0  0  0  0  0  0  0  0  0
  146.3220   73.3480  217.7700 O   0  0  0  0  0  0  0  0  0  0  0  0
  144.2240   72.8740  218.8790 C   0  0  0  0  0  0  0  0  0  0  0  0
  140.8929   77.0260  219.0902 H   0  0  0  0  0  0  0  0  0  0  0  0
  139.5156   78.8384  220.1407 H   0  0  0  0  0  0  0  0  0  0  0  0
  138.4411   76.1640  223.3568 H   0  0  0  0  0  0  0  0  0  0  0  0
  140.4055   71.0299  222.0813 H   0  0  0  0  0  0  0  0  0  0  0  0
  141.1110   72.5421  224.5521 H   0  0  0  0  0  0  0  0  0  0  0  0
  141.6653   70.7869  226.2262 H   0  0  0  0  0  0  0  0  0  0  0  0
  141.0581   68.7601  227.4563 H   0  0  0  0  0  0  0  0  0  0  0  0
  138.1430   67.8560  224.4727 H   0  0  0  0  0  0  0  0  0  0  0  0
  138.7534   69.9085  223.2304 H   0  0  0  0  0  0  0  0  0  0  0  0
  141.8587   71.4309  220.5080 H   0  0  0  0  0  0  0  0  0  0  0  0
  141.6678   72.4517  218.9815 H   0  0  0  0  0  0  0  0  0  0  0  0
  143.5795   72.6298  222.1496 H   0  0  0  0  0  0  0  0  0  0  0  0
  145.9629   73.1250  222.2609 H   0  0  0  0  0  0  0  0  0  0  0  0
  147.3137   73.4746  220.1982 H   0  0  0  0  0  0  0  0  0  0  0  0
  146.4510   74.2850  217.4000 H   0  0  0  0  0  0  0  0  0  0  0  0
  143.7455   72.8074  217.8908 H   0  0  0  0  0  0  0  0  0  0  0  0
  1  2  2  0
  2  3  1  0
  3  4  2  0
  4  5  1  0
  5  6  2  0
  6  7  1  0
  6  8  1  0
  8  9  2  0
  9 10  1  0
 10 11  2  0
 11 12  1  0
 12 13  2  0
 13 14  1  0
 14 15  2  0
 15 16  1  0
 16 17  2  0
 17 18  1  0
 17 19  1  0
 19 20  2  0
 11 21  1  0
 21 22  1  0
 22 23  1  0
 23 24  2  0
 24 25  1  0
 25 26  2  0
 26 27  1  0
 27 28  1  0
 27 29  2  0
 21  2  1  0
 29 23  1  0
  9  3  1  0
 20 14  1  0
  4 30  1  0
  5 31  1  0
  8 32  1  0
 12 33  1  0
 13 34  1  0
 15 35  1  0
 16 36  1  0
 19 37  1  0
 20 38  1  0
 22 39  1  0
 22 40  1  0
 24 41  1  0
 25 42  1  0
 26 43  1  0
 28 44  1  0
 29 45  1  0
M  END
>  <smiles>  (6) 
O=c1c2ccc(F)cc2nc(/C=C/c2ccc(F)cc2)n1Cc1cccc(O)c1

>  <score_type>  (6) 
oracle

>  <origin>  (6) 
autodockgpu

>  <m_score__min__energy>  (6) 
-8.3399999999999999

>  <m_primary>  (6) 
energy

>  <rmsd>  (6) 
7.656490253517176

>  <m_score__min__rmsd>  (6) 
7.656490253517176

>  <meeko>  (6) 
{"free_energy": -7.56, "intermolecular_energy": -9.35, "internal_energy": -0.94, "cluster_size": 20, "cluster_id": 1, "rank_in_cluster": 12}

>  <energy>  (6) 
-8.01

>  <cluster_rmsd>  (6) 
0.56

>  <cluster>  (6) 
1

$$$$

     RDKit          3D

 45 48  0  0  0  0  0  0  0  0999 V2000
  138.8370   67.8170  225.3730 O   0  0  0  0  0  0  0  0  0  0  0  0
  139.1860   68.9970  225.1210 C   0  0  0  0  0  0  0  0  0  0  0  0
  139.8500   69.6810  226.1110 C   0  0  0  0  0  0  0  0  0  0  0  0
  140.1080   69.0670  227.3170 C   0  0  0  0  0  0  0  0  0  0  0  0
  140.7770   69.7920  228.2780 C   0  0  0  0  0  0  0  0  0  0  0  0
  141.1520   71.0860  227.9810 C   0  0  0  0  0  0  0  0  0  0  0  0
  141.8090   71.7790  228.9440 F   0  0  0  0  0  0  0  0  0  0  0  0
  140.8920   71.6960  226.7740 C   0  0  0  0  0  0  0  0  0  0  0  0
  140.2220   70.9650  225.8170 C   0  0  0  0  0  0  0  0  0  0  0  0
  139.9550   71.4920  224.6630 N   0  0  0  0  0  0  0  0  0  0  0  0
  139.2950   70.8370  223.6590 C   0  0  0  0  0  0  0  0  0  0  0  0
  139.0630   71.6200  222.4790 C   0  0  0  0  0  0  0  0  0  0  0  0
  139.5280   72.7630  222.0760 C   0  0  0  0  0  0  0  0  0  0  0  0
  140.8780   72.9670  221.5260 C   0  0  0  0  0  0  0  0  0  0  0  0
  141.7180   71.8740  221.3310 C   0  0  0  0  0  0  0  0  0  0  0  0
  142.9910   71.9920  220.8210 C   0  0  0  0  0  0  0  0  0  0  0  0
  143.4920   73.2260  220.4790 C   0  0  0  0  0  0  0  0  0  0  0  0
  144.7490   73.3060  219.9810 F   0  0  0  0  0  0  0  0  0  0  0  0
  142.6770   74.3160  220.6660 C   0  0  0  0  0  0  0  0  0  0  0  0
  141.3830   74.1930  221.1840 C   0  0  0  0  0  0  0  0  0  0  0  0
  138.9100   69.5760  223.8980 N   0  0  0  0  0  0  0  0  0  0  0  0
  138.2330   68.7230  222.9750 C   0  0  0  0  0  0  0  0  0  0  0  0
  139.0720   68.0930  221.9480 C   0  0  0  0  0  0  0  0  0  0  0  0
  139.1450   66.6870  221.9250 C   0  0  0  0  0  0  0  0  0  0  0  0
  139.9260   66.0120  221.0230 C   0  0  0  0  0  0  0  0  0  0  0  0
  140.6900   66.6710  220.0810 C   0  0  0  0  0  0  0  0  0  0  0  0
  140.6330   68.0440  220.0850 C   0  0  0  0  0  0  0  0  0  0  0  0
  141.3890   68.7400  219.1500 O   0  0  0  0  0  0  0  0  0  0  0  0
  139.8360   68.7210  221.0060 C   0  0  0  0  0  0  0  0  0  0  0  0
  139.7899   68.0311  227.5062 H   0  0  0  0  0  0  0  0  0  0  0  0
  141.0068   69.3500  229.2587 H   0  0  0  0  0  0  0  0  0  0  0  0
  141.2084   72.7316  226.5804 H   0  0  0  0  0  0  0  0  0  0  0  0
  138.3506   71.1611  221.7776 H   0  0  0  0  0  0  0  0  0  0  0  0
  138.8676   73.6395  222.1507 H   0  0  0  0  0  0  0  0  0  0  0  0
  141.3482   70.8725  221.5960 H   0  0  0  0  0  0  0  0  0  0  0  0
  143.6113   71.0937  220.6862 H   0  0  0  0  0  0  0  0  0  0  0  0
  143.0529   75.3152  220.4006 H   0  0  0  0  0  0  0  0  0  0  0  0
  140.7638   75.0922  221.3181 H   0  0  0  0  0  0  0  0  0  0  0  0
  137.7472   67.9217  223.5511 H   0  0  0  0  0  0  0  0  0  0  0  0
  137.5327   69.3723  222.4292 H   0  0  0  0  0  0  0  0  0  0  0  0
  138.5562   66.1116  222.6545 H   0  0  0  0  0  0  0  0  0  0  0  0
  139.9444   64.9125  221.0507 H   0  0  0  0  0  0  0  0  0  0  0  0
  141.3152   66.1228  219.3608 H   0  0  0  0  0  0  0  0  0  0  0  0
  140.9790   69.5190  218.6440 H   0  0  0  0  0  0  0  0  0  0  0  0
  139.8214   69.8204  220.9725 H   0  0  0  0  0  0  0  0  0  0  0  0
  1  2  2  0
  2  3  1  0
  3  4  2  0
  4  5  1  0
  5  6  2  0
  6  7  1  0
  6  8  1  0
  8  9  2  0
  9 10  1  0
 10 11  2  0
 11 12  1  0
 12 13  2  0
 13 14  1  0
 14 15  2  0
 15 16  1  0
 16 17  2  0
 17 18  1  0
 17 19  1  0
 19 20  2  0
 11 21  1  0
 21 22  1  0
 22 23  1  0
 23 24  2  0
 24 25  1  0
 25 26  2  0
 26 27  1  0
 27 28  1  0
 27 29  2  0
 21  2  1  0
 29 23  1  0
  9  3  1  0
 20 14  1  0
  4 30  1  0
  5 31  1  0
  8 32  1  0
 12 33  1  0
 13 34  1  0
 15 35  1  0
 16 36  1  0
 19 37  1  0
 20 38  1  0
 22 39  1  0
 22 40  1  0
 24 41  1  0
 25 42  1  0
 26 43  1  0
 28 44  1  0
 29 45  1  0
M  END
>  <smiles>  (7) 
O=c1c2ccc(F)cc2nc(/C=C/c2ccc(F)cc2)n1Cc1cccc(O)c1

>  <score_type>  (7) 
oracle

>  <origin>  (7) 
autodockgpu

>  <m_score__min__energy>  (7) 
-8.3399999999999999

>  <m_primary>  (7) 
energy

>  <rmsd>  (7) 
12.84896699161307

>  <m_score__min__rmsd>  (7) 
12.84896699161307

>  <meeko>  (7) 
{"free_energy": -6.9, "intermolecular_energy": -8.69, "internal_energy": -1.32, "cluster_size": 1, "cluster_id": 6, "rank_in_cluster": 1}

>  <energy>  (7) 
-7.83

>  <cluster_rmsd>  (7) 
1.27

>  <cluster>  (7) 
1

$$$$

     RDKit          3D

 45 48  0  0  0  0  0  0  0  0999 V2000
  142.1370   75.7100  219.0430 O   0  0  0  0  0  0  0  0  0  0  0  0
  141.5290   75.3880  220.0940 C   0  0  0  0  0  0  0  0  0  0  0  0
  140.9340   76.3990  220.8100 C   0  0  0  0  0  0  0  0  0  0  0  0
  141.0180   77.6990  220.3650 C   0  0  0  0  0  0  0  0  0  0  0  0
  140.4040   78.6770  221.1160 C   0  0  0  0  0  0  0  0  0  0  0  0
  139.7430   78.3030  222.2670 C   0  0  0  0  0  0  0  0  0  0  0  0
  139.1470   79.2840  222.9890 F   0  0  0  0  0  0  0  0  0  0  0  0
  139.6620   77.0000  222.7090 C   0  0  0  0  0  0  0  0  0  0  0  0
  140.2770   76.0270  221.9520 C   0  0  0  0  0  0  0  0  0  0  0  0
  140.2290   74.7860  222.3230 N   0  0  0  0  0  0  0  0  0  0  0  0
  140.8120   73.7590  221.6320 C   0  0  0  0  0  0  0  0  0  0  0  0
  140.6770   72.4670  222.2430 C   0  0  0  0  0  0  0  0  0  0  0  0
  139.7260   71.9160  222.9330 C   0  0  0  0  0  0  0  0  0  0  0  0
  139.9160   71.2490  224.2310 C   0  0  0  0  0  0  0  0  0  0  0  0
  140.7420   71.8280  225.1920 C   0  0  0  0  0  0  0  0  0  0  0  0
  140.9640   71.2600  226.4250 C   0  0  0  0  0  0  0  0  0  0  0  0
  140.3650   70.0690  226.7620 C   0  0  0  0  0  0  0  0  0  0  0  0
  140.6060   69.5390  227.9850 F   0  0  0  0  0  0  0  0  0  0  0  0
  139.5480   69.4830  225.8260 C   0  0  0  0  0  0  0  0  0  0  0  0
  139.3230   70.0630  224.5720 C   0  0  0  0  0  0  0  0  0  0  0  0
  141.4670   74.0720  220.5060 N   0  0  0  0  0  0  0  0  0  0  0  0
  142.1190   73.1450  219.6370 C   0  0  0  0  0  0  0  0  0  0  0  0
  143.5440   72.9100  219.9010 C   0  0  0  0  0  0  0  0  0  0  0  0
  144.2350   73.8530  220.6880 C   0  0  0  0  0  0  0  0  0  0  0  0
  145.5730   73.7350  220.9600 C   0  0  0  0  0  0  0  0  0  0  0  0
  146.3260   72.6820  220.4800 C   0  0  0  0  0  0  0  0  0  0  0  0
  145.6720   71.7510  219.7100 C   0  0  0  0  0  0  0  0  0  0  0  0
  146.4000   70.6790  219.2100 O   0  0  0  0  0  0  0  0  0  0  0  0
  144.3110   71.8800  219.4370 C   0  0  0  0  0  0  0  0  0  0  0  0
  141.5579   77.9487  219.4397 H   0  0  0  0  0  0  0  0  0  0  0  0
  140.4401   79.7315  220.8049 H   0  0  0  0  0  0  0  0  0  0  0  0
  139.1247   76.7457  223.6345 H   0  0  0  0  0  0  0  0  0  0  0  0
  141.5517   71.8160  222.0977 H   0  0  0  0  0  0  0  0  0  0  0  0
  138.7074   71.9498  222.5190 H   0  0  0  0  0  0  0  0  0  0  0  0
  141.2381   72.7806  224.9545 H   0  0  0  0  0  0  0  0  0  0  0  0
  141.6254   71.7621  227.1465 H   0  0  0  0  0  0  0  0  0  0  0  0
  139.0560   68.5297  226.0691 H   0  0  0  0  0  0  0  0  0  0  0  0
  138.6615   69.5596  223.8516 H   0  0  0  0  0  0  0  0  0  0  0  0
  141.5973   72.1802  219.7212 H   0  0  0  0  0  0  0  0  0  0  0  0
  142.0729   73.5949  218.6342 H   0  0  0  0  0  0  0  0  0  0  0  0
  143.6825   74.7116  221.0972 H   0  0  0  0  0  0  0  0  0  0  0  0
  146.0615   74.5019  221.5791 H   0  0  0  0  0  0  0  0  0  0  0  0
  147.3993   72.5927  220.7036 H   0  0  0  0  0  0  0  0  0  0  0  0
  145.9220   69.9210  218.7310 H   0  0  0  0  0  0  0  0  0  0  0  0
  143.8295   71.1113  218.8148 H   0  0  0  0  0  0  0  0  0  0  0  0
  1  2  2  0
  2  3  1  0
  3  4  2  0
  4  5  1  0
  5  6  2  0
  6  7  1  0
  6  8  1  0
  8  9  2  0
  9 10  1  0
 10 11  2  0
 11 12  1  0
 12 13  2  0
 13 14  1  0
 14 15  2  0
 15 16  1  0
 16 17  2  0
 17 18  1  0
 17 19  1  0
 19 20  2  0
 11 21  1  0
 21 22  1  0
 22 23  1  0
 23 24  2  0
 24 25  1  0
 25 26  2  0
 26 27  1  0
 27 28  1  0
 27 29  2  0
 21  2  1  0
 29 23  1  0
  9  3  1  0
 20 14  1  0
  4 30  1  0
  5 31  1  0
  8 32  1  0
 12 33  1  0
 13 34  1  0
 15 35  1  0
 16 36  1  0
 19 37  1  0
 20 38  1  0
 22 39  1  0
 22 40  1  0
 24 41  1  0
 25 42  1  0
 26 43  1  0
 28 44  1  0
 29 45  1  0
M  END
>  <smiles>  (8) 
O=c1c2ccc(F)cc2nc(/C=C/c2ccc(F)cc2)n1Cc1cccc(O)c1

>  <score_type>  (8) 
oracle

>  <origin>  (8) 
autodockgpu

>  <m_score__min__energy>  (8) 
-8.3399999999999999

>  <m_primary>  (8) 
energy

>  <rmsd>  (8) 
7.779665439210935

>  <m_score__min__rmsd>  (8) 
7.779665439210935

>  <meeko>  (8) 
{"free_energy": -7.3, "intermolecular_energy": -9.09, "internal_energy": -0.97, "cluster_size": 20, "cluster_id": 1, "rank_in_cluster": 16}

>  <energy>  (8) 
-7.81

>  <cluster_rmsd>  (8) 
1.22

>  <cluster>  (8) 
1

$$$$

     RDKit          3D

 45 48  0  0  0  0  0  0  0  0999 V2000
  141.0720   74.5170  221.9730 O   0  0  0  0  0  0  0  0  0  0  0  0
  141.7490   75.0170  221.0410 C   0  0  0  0  0  0  0  0  0  0  0  0
  142.7110   74.2210  220.4650 C   0  0  0  0  0  0  0  0  0  0  0  0
  142.8970   72.9330  220.9150 C   0  0  0  0  0  0  0  0  0  0  0  0
  143.8710   72.1740  220.3060 C   0  0  0  0  0  0  0  0  0  0  0  0
  144.6040   72.7430  219.2850 C   0  0  0  0  0  0  0  0  0  0  0  0
  145.5580   71.9750  218.7020 F   0  0  0  0  0  0  0  0  0  0  0  0
  144.4150   74.0320  218.8390 C   0  0  0  0  0  0  0  0  0  0  0  0
  143.4370   74.7860  219.4520 C   0  0  0  0  0  0  0  0  0  0  0  0
  143.2180   76.0040  219.0680 N   0  0  0  0  0  0  0  0  0  0  0  0
  142.2690   76.8200  219.6220 C   0  0  0  0  0  0  0  0  0  0  0  0
  142.2230   78.1480  219.0780 C   0  0  0  0  0  0  0  0  0  0  0  0
  141.2420   78.9420  218.7780 C   0  0  0  0  0  0  0  0  0  0  0  0
  140.9060   80.1700  219.5170 C   0  0  0  0  0  0  0  0  0  0  0  0
  139.5940   80.3920  219.9290 C   0  0  0  0  0  0  0  0  0  0  0  0
  139.2110   81.5170  220.6230 C   0  0  0  0  0  0  0  0  0  0  0  0
  140.1310   82.4870  220.9410 C   0  0  0  0  0  0  0  0  0  0  0  0
  139.7190   83.5810  221.6250 F   0  0  0  0  0  0  0  0  0  0  0  0
  141.4310   82.2840  220.5420 C   0  0  0  0  0  0  0  0  0  0  0  0
  141.8180   81.1390  219.8370 C   0  0  0  0  0  0  0  0  0  0  0  0
  141.5300   76.3130  220.6180 N   0  0  0  0  0  0  0  0  0  0  0  0
  140.4810   76.9940  221.3060 C   0  0  0  0  0  0  0  0  0  0  0  0
  140.8910   78.1250  222.1470 C   0  0  0  0  0  0  0  0  0  0  0  0
  139.9150   78.7310  222.9620 C   0  0  0  0  0  0  0  0  0  0  0  0
  140.1970   79.8120  223.7560 C   0  0  0  0  0  0  0  0  0  0  0  0
  141.4570   80.3730  223.8070 C   0  0  0  0  0  0  0  0  0  0  0  0
  142.4250   79.7970  223.0200 C   0  0  0  0  0  0  0  0  0  0  0  0
  143.7050   80.3360  223.0460 O   0  0  0  0  0  0  0  0  0  0  0  0
  142.1290   78.6980  222.2150 C   0  0  0  0  0  0  0  0  0  0  0  0
  142.2874   72.5239  221.7342 H   0  0  0  0  0  0  0  0  0  0  0  0
  144.0602   71.1387  220.6258 H   0  0  0  0  0  0  0  0  0  0  0  0
  145.0236   74.4460  218.0215 H   0  0  0  0  0  0  0  0  0  0  0  0
  143.2156   78.5768  218.8757 H   0  0  0  0  0  0  0  0  0  0  0  0
  140.6178   78.6794  217.9111 H   0  0  0  0  0  0  0  0  0  0  0  0
  138.8317   79.6360  219.6895 H   0  0  0  0  0  0  0  0  0  0  0  0
  138.1606   81.6407  220.9254 H   0  0  0  0  0  0  0  0  0  0  0  0
  142.1888   83.0437  220.7840 H   0  0  0  0  0  0  0  0  0  0  0  0
  142.8689   81.0161  219.5361 H   0  0  0  0  0  0  0  0  0  0  0  0
  139.7752   77.3735  220.5524 H   0  0  0  0  0  0  0  0  0  0  0  0
  140.0488   76.2535  221.9951 H   0  0  0  0  0  0  0  0  0  0  0  0
  138.8933   78.3234  222.9612 H   0  0  0  0  0  0  0  0  0  0  0  0
  139.3948   80.2456  224.3712 H   0  0  0  0  0  0  0  0  0  0  0  0
  141.6759   81.2402  224.4474 H   0  0  0  0  0  0  0  0  0  0  0  0
  144.3880   80.0570  222.3470 H   0  0  0  0  0  0  0  0  0  0  0  0
  142.9355   78.2694  221.6019 H   0  0  0  0  0  0  0  0  0  0  0  0
  1  2  2  0
  2  3  1  0
  3  4  2  0
  4  5  1  0
  5  6  2  0
  6  7  1  0
  6  8  1  0
  8  9  2  0
  9 10  1  0
 10 11  2  0
 11 12  1  0
 12 13  2  0
 13 14  1  0
 14 15  2  0
 15 16  1  0
 16 17  2  0
 17 18  1  0
 17 19  1  0
 19 20  2  0
 11 21  1  0
 21 22  1  0
 22 23  1  0
 23 24  2  0
 24 25  1  0
 25 26  2  0
 26 27  1  0
 27 28  1  0
 27 29  2  0
 21  2  1  0
 29 23  1  0
  9  3  1  0
 20 14  1  0
  4 30  1  0
  5 31  1  0
  8 32  1  0
 12 33  1  0
 13 34  1  0
 15 35  1  0
 16 36  1  0
 19 37  1  0
 20 38  1  0
 22 39  1  0
 22 40  1  0
 24 41  1  0
 25 42  1  0
 26 43  1  0
 28 44  1  0
 29 45  1  0
M  END
>  <smiles>  (9) 
O=c1c2ccc(F)cc2nc(/C=C/c2ccc(F)cc2)n1Cc1cccc(O)c1

>  <score_type>  (9) 
oracle

>  <origin>  (9) 
autodockgpu

>  <m_score__min__energy>  (9) 
-8.3399999999999999

>  <m_primary>  (9) 
energy

>  <rmsd>  (9) 
4.338680579346402

>  <m_score__min__rmsd>  (9) 
4.338680579346402

>  <meeko>  (9) 
{"free_energy": -6.59, "intermolecular_energy": -8.38, "internal_energy": -1.76, "cluster_size": 17, "cluster_id": 8, "rank_in_cluster": 1}

>  <energy>  (9) 
-7.73

>  <cluster_rmsd>  (9) 
1.21

>  <cluster>  (9) 
1

$$$$

     RDKit          3D

 45 48  0  0  0  0  0  0  0  0999 V2000
  140.9080   74.5040  221.9750 O   0  0  0  0  0  0  0  0  0  0  0  0
  141.6110   75.0110  221.0660 C   0  0  0  0  0  0  0  0  0  0  0  0
  142.5610   74.2060  220.4840 C   0  0  0  0  0  0  0  0  0  0  0  0
  142.7090   72.9020  220.9020 C   0  0  0  0  0  0  0  0  0  0  0  0
  143.6730   72.1350  220.2880 C   0  0  0  0  0  0  0  0  0  0  0  0
  144.4350   72.7100  219.2930 C   0  0  0  0  0  0  0  0  0  0  0  0
  145.3780   71.9340  218.7040 F   0  0  0  0  0  0  0  0  0  0  0  0
  144.2840   74.0150  218.8770 C   0  0  0  0  0  0  0  0  0  0  0  0
  143.3170   74.7780  219.4950 C   0  0  0  0  0  0  0  0  0  0  0  0
  143.1330   76.0110  219.1400 N   0  0  0  0  0  0  0  0  0  0  0  0
  142.1960   76.8360  219.7010 C   0  0  0  0  0  0  0  0  0  0  0  0
  142.1910   78.1770  219.1910 C   0  0  0  0  0  0  0  0  0  0  0  0
  141.2380   78.9660  218.8010 C   0  0  0  0  0  0  0  0  0  0  0  0
  140.8140   80.1800  219.5180 C   0  0  0  0  0  0  0  0  0  0  0  0
  141.7580   81.1410  219.8710 C   0  0  0  0  0  0  0  0  0  0  0  0
  141.4320   82.2980  220.5400 C   0  0  0  0  0  0  0  0  0  0  0  0
  140.1280   82.5530  220.8950 C   0  0  0  0  0  0  0  0  0  0  0  0
  139.8430   83.7020  221.5540 F   0  0  0  0  0  0  0  0  0  0  0  0
  139.1830   81.6150  220.5560 C   0  0  0  0  0  0  0  0  0  0  0  0
  139.5180   80.4400  219.8740 C   0  0  0  0  0  0  0  0  0  0  0  0
  141.4310   76.3230  220.6730 N   0  0  0  0  0  0  0  0  0  0  0  0
  140.3890   77.0120  221.3640 C   0  0  0  0  0  0  0  0  0  0  0  0
  140.8060   78.1630  222.1740 C   0  0  0  0  0  0  0  0  0  0  0  0
  139.8230   78.8270  222.9340 C   0  0  0  0  0  0  0  0  0  0  0  0
  140.1120   79.9300  223.6950 C   0  0  0  0  0  0  0  0  0  0  0  0
  141.3860   80.4570  223.7630 C   0  0  0  0  0  0  0  0  0  0  0  0
  142.3600   79.8250  223.0300 C   0  0  0  0  0  0  0  0  0  0  0  0
  143.6540   80.3290  223.0750 O   0  0  0  0  0  0  0  0  0  0  0  0
  142.0570   78.7040  222.2580 C   0  0  0  0  0  0  0  0  0  0  0  0
  142.0770   72.4868  221.7009 H   0  0  0  0  0  0  0  0  0  0  0  0
  143.8318   71.0876  220.5842 H   0  0  0  0  0  0  0  0  0  0  0  0
  144.9141   74.4336  218.0785 H   0  0  0  0  0  0  0  0  0  0  0  0
  143.1931   78.6244  219.1158 H   0  0  0  0  0  0  0  0  0  0  0  0
  140.7103   78.7104  217.8703 H   0  0  0  0  0  0  0  0  0  0  0  0
  142.8106   80.9673  219.6031 H   0  0  0  0  0  0  0  0  0  0  0  0
  142.2192   83.0237  220.7925 H   0  0  0  0  0  0  0  0  0  0  0  0
  138.1323   81.7929  220.8287 H   0  0  0  0  0  0  0  0  0  0  0  0
  138.7297   79.7158  219.6206 H   0  0  0  0  0  0  0  0  0  0  0  0
  139.6684   77.3712  220.6146 H   0  0  0  0  0  0  0  0  0  0  0  0
  139.9728   76.2837  222.0756 H   0  0  0  0  0  0  0  0  0  0  0  0
  138.7904   78.4482  222.9162 H   0  0  0  0  0  0  0  0  0  0  0  0
  139.3048   80.4093  224.2684 H   0  0  0  0  0  0  0  0  0  0  0  0
  141.6106   81.3423  224.3760 H   0  0  0  0  0  0  0  0  0  0  0  0
  144.3230   80.0750  222.3540 H   0  0  0  0  0  0  0  0  0  0  0  0
  142.8687   78.2304  221.6864 H   0  0  0  0  0  0  0  0  0  0  0  0
  1  2  2  0
  2  3  1  0
  3  4  2  0
  4  5  1  0
  5  6  2  0
  6  7  1  0
  6  8  1  0
  8  9  2  0
  9 10  1  0
 10 11  2  0
 11 12  1  0
 12 13  2  0
 13 14  1  0
 14 15  2  0
 15 16  1  0
 16 17  2  0
 17 18  1  0
 17 19  1  0
 19 20  2  0
 11 21  1  0
 21 22  1  0
 22 23  1  0
 23 24  2  0
 24 25  1  0
 25 26  2  0
 26 27  1  0
 27 28  1  0
 27 29  2  0
 21  2  1  0
 29 23  1  0
  9  3  1  0
 20 14  1  0
  4 30  1  0
  5 31  1  0
  8 32  1  0
 12 33  1  0
 13 34  1  0
 15 35  1  0
 16 36  1  0
 19 37  1  0
 20 38  1  0
 22 39  1  0
 22 40  1  0
 24 41  1  0
 25 42  1  0
 26 43  1  0
 28 44  1  0
 29 45  1  0
M  END
>  <smiles>  (10) 
O=c1c2ccc(F)cc2nc(/C=C/c2ccc(F)cc2)n1Cc1cccc(O)c1

>  <score_type>  (10) 
oracle

>  <origin>  (10) 
autodockgpu

>  <m_score__min__energy>  (10) 
-8.3399999999999999

>  <m_primary>  (10) 
energy

>  <rmsd>  (10) 
4.265038873058382

>  <m_score__min__rmsd>  (10) 
4.265038873058382

>  <meeko>  (10) 
{"free_energy": -6.56, "intermolecular_energy": -8.35, "internal_energy": -1.73, "cluster_size": 17, "cluster_id": 8, "rank_in_cluster": 11}

>  <energy>  (10) 
-7.72

>  <cluster_rmsd>  (10) 
0.79

>  <cluster>  (10) 
1

$$$$

     RDKit          3D

 45 48  0  0  0  0  0  0  0  0999 V2000
  142.9700   74.8390  220.6270 O   0  0  0  0  0  0  0  0  0  0  0  0
  141.9020   74.4760  221.1790 C   0  0  0  0  0  0  0  0  0  0  0  0
  140.9590   75.4460  221.4240 C   0  0  0  0  0  0  0  0  0  0  0  0
  141.2060   76.7520  221.0630 C   0  0  0  0  0  0  0  0  0  0  0  0
  140.2310   77.6870  221.3270 C   0  0  0  0  0  0  0  0  0  0  0  0
  139.0660   77.2670  221.9340 C   0  0  0  0  0  0  0  0  0  0  0  0
  138.1210   78.2080  222.1840 F   0  0  0  0  0  0  0  0  0  0  0  0
  138.8230   75.9600  222.2930 C   0  0  0  0  0  0  0  0  0  0  0  0
  139.8030   75.0290  222.0260 C   0  0  0  0  0  0  0  0  0  0  0  0
  139.6230   73.7840  222.3420 N   0  0  0  0  0  0  0  0  0  0  0  0
  140.5430   72.7980  222.1120 C   0  0  0  0  0  0  0  0  0  0  0  0
  140.1610   71.4960  222.5810 C   0  0  0  0  0  0  0  0  0  0  0  0
  139.4070   71.1000  223.5610 C   0  0  0  0  0  0  0  0  0  0  0  0
  139.9080   70.6490  224.8700 C   0  0  0  0  0  0  0  0  0  0  0  0
  140.6130   71.5330  225.6830 C   0  0  0  0  0  0  0  0  0  0  0  0
  141.1090   71.1780  226.9160 C   0  0  0  0  0  0  0  0  0  0  0  0
  140.9220   69.9060  227.4030 C   0  0  0  0  0  0  0  0  0  0  0  0
  141.4240   69.5920  228.6210 F   0  0  0  0  0  0  0  0  0  0  0  0
  140.2290   69.0200  226.6130 C   0  0  0  0  0  0  0  0  0  0  0  0
  139.7250   69.3840  225.3590 C   0  0  0  0  0  0  0  0  0  0  0  0
  141.6920   73.1550  221.5240 N   0  0  0  0  0  0  0  0  0  0  0  0
  142.7620   72.2740  221.1810 C   0  0  0  0  0  0  0  0  0  0  0  0
  143.3000   72.4150  219.8230 C   0  0  0  0  0  0  0  0  0  0  0  0
  142.4410   72.1430  218.7400 C   0  0  0  0  0  0  0  0  0  0  0  0
  142.8630   72.2160  217.4380 C   0  0  0  0  0  0  0  0  0  0  0  0
  144.1580   72.5620  217.1080 C   0  0  0  0  0  0  0  0  0  0  0  0
  145.0130   72.8320  218.1490 C   0  0  0  0  0  0  0  0  0  0  0  0
  146.3240   73.1830  217.8530 O   0  0  0  0  0  0  0  0  0  0  0  0
  144.5750   72.7540  219.4700 C   0  0  0  0  0  0  0  0  0  0  0  0
  142.1516   77.0385  220.5795 H   0  0  0  0  0  0  0  0  0  0  0  0
  140.3775   78.7440  221.0602 H   0  0  0  0  0  0  0  0  0  0  0  0
  137.8787   75.6691  222.7764 H   0  0  0  0  0  0  0  0  0  0  0  0
  140.5921   70.6713  221.9944 H   0  0  0  0  0  0  0  0  0  0  0  0
  138.3185   71.1015  223.4024 H   0  0  0  0  0  0  0  0  0  0  0  0
  140.7804   72.5591  225.3238 H   0  0  0  0  0  0  0  0  0  0  0  0
  141.6592   71.9172  227.5167 H   0  0  0  0  0  0  0  0  0  0  0  0
  140.0657   67.9949  226.9770 H   0  0  0  0  0  0  0  0  0  0  0  0
  139.1750   68.6441  224.7590 H   0  0  0  0  0  0  0  0  0  0  0  0
  143.5847   72.4517  221.8893 H   0  0  0  0  0  0  0  0  0  0  0  0
  142.3386   71.2599  221.2289 H   0  0  0  0  0  0  0  0  0  0  0  0
  141.3974   71.8629  218.9461 H   0  0  0  0  0  0  0  0  0  0  0  0
  142.1486   71.9922  216.6321 H   0  0  0  0  0  0  0  0  0  0  0  0
  144.4898   72.6189  216.0608 H   0  0  0  0  0  0  0  0  0  0  0  0
  146.6070   74.1580  217.8810 H   0  0  0  0  0  0  0  0  0  0  0  0
  145.2949   72.9775  220.2711 H   0  0  0  0  0  0  0  0  0  0  0  0
  1  2  2  0
  2  3  1  0
  3  4  2  0
  4  5  1  0
  5  6  2  0
  6  7  1  0
  6  8  1  0
  8  9  2  0
  9 10  1  0
 10 11  2  0
 11 12  1  0
 12 13  2  0
 13 14  1  0
 14 15  2  0
 15 16  1  0
 16 17  2  0
 17 18  1  0
 17 19  1  0
 19 20  2  0
 11 21  1  0
 21 22  1  0
 22 23  1  0
 23 24  2  0
 24 25  1  0
 25 26  2  0
 26 27  1  0
 27 28  1  0
 27 29  2  0
 21  2  1  0
 29 23  1  0
  9  3  1  0
 20 14  1  0
  4 30  1  0
  5 31  1  0
  8 32  1  0
 12 33  1  0
 13 34  1  0
 15 35  1  0
 16 36  1  0
 19 37  1  0
 20 38  1  0
 22 39  1  0
 22 40  1  0
 24 41  1  0
 25 42  1  0
 26 43  1  0
 28 44  1  0
 29 45  1  0
M  END
>  <smiles>  (11) 
O=c1c2ccc(F)cc2nc(/C=C/c2ccc(F)cc2)n1Cc1cccc(O)c1

>  <score_type>  (11) 
oracle

>  <origin>  (11) 
autodockgpu

>  <m_score__min__energy>  (11) 
-8.3399999999999999

>  <m_primary>  (11) 
energy

>  <rmsd>  (11) 
7.818719798196121

>  <m_score__min__rmsd>  (11) 
7.818719798196121

>  <meeko>  (11) 
{"free_energy": -7.46, "intermolecular_energy": -9.25, "internal_energy": -0.72, "cluster_size": 20, "cluster_id": 1, "rank_in_cluster": 13}

>  <energy>  (11) 
-7.65

>  <cluster_rmsd>  (11) 
1.29

>  <cluster>  (11) 
1

$$$$

     RDKit          3D

 45 48  0  0  0  0  0  0  0  0999 V2000
  141.0350   74.4910  221.9700 O   0  0  0  0  0  0  0  0  0  0  0  0
  141.7150   74.9910  221.0390 C   0  0  0  0  0  0  0  0  0  0  0  0
  142.6760   74.1930  220.4640 C   0  0  0  0  0  0  0  0  0  0  0  0
  142.8580   72.9040  220.9120 C   0  0  0  0  0  0  0  0  0  0  0  0
  143.8310   72.1430  220.3040 C   0  0  0  0  0  0  0  0  0  0  0  0
  144.5670   72.7110  219.2850 C   0  0  0  0  0  0  0  0  0  0  0  0
  145.5200   71.9420  218.7030 F   0  0  0  0  0  0  0  0  0  0  0  0
  144.3820   74.0020  218.8410 C   0  0  0  0  0  0  0  0  0  0  0  0
  143.4060   74.7570  219.4530 C   0  0  0  0  0  0  0  0  0  0  0  0
  143.1910   75.9770  219.0710 N   0  0  0  0  0  0  0  0  0  0  0  0
  142.2430   76.7950  219.6250 C   0  0  0  0  0  0  0  0  0  0  0  0
  142.2020   78.1230  219.0830 C   0  0  0  0  0  0  0  0  0  0  0  0
  141.2230   78.9020  218.7370 C   0  0  0  0  0  0  0  0  0  0  0  0
  140.8090   80.1020  219.4830 C   0  0  0  0  0  0  0  0  0  0  0  0
  141.7590   81.0540  219.8460 C   0  0  0  0  0  0  0  0  0  0  0  0
  141.4420   82.1970  220.5410 C   0  0  0  0  0  0  0  0  0  0  0  0
  140.1420   82.4480  220.9140 C   0  0  0  0  0  0  0  0  0  0  0  0
  139.8660   83.5840  221.5990 F   0  0  0  0  0  0  0  0  0  0  0  0
  139.1910   81.5200  220.5650 C   0  0  0  0  0  0  0  0  0  0  0  0
  139.5170   80.3580  219.8570 C   0  0  0  0  0  0  0  0  0  0  0  0
  141.5010   76.2880  220.6190 N   0  0  0  0  0  0  0  0  0  0  0  0
  140.4530   76.9710  221.3060 C   0  0  0  0  0  0  0  0  0  0  0  0
  140.8630   78.1090  222.1380 C   0  0  0  0  0  0  0  0  0  0  0  0
  139.8820   78.7340  222.9330 C   0  0  0  0  0  0  0  0  0  0  0  0
  140.1640   79.8220  223.7170 C   0  0  0  0  0  0  0  0  0  0  0  0
  141.4290   80.3720  223.7760 C   0  0  0  0  0  0  0  0  0  0  0  0
  142.4020   79.7770  223.0090 C   0  0  0  0  0  0  0  0  0  0  0  0
  143.6860   80.3040  223.0450 O   0  0  0  0  0  0  0  0  0  0  0  0
  142.1050   78.6710  222.2140 C   0  0  0  0  0  0  0  0  0  0  0  0
  142.2458   72.4953  221.7294 H   0  0  0  0  0  0  0  0  0  0  0  0
  144.0170   71.1069  220.6232 H   0  0  0  0  0  0  0  0  0  0  0  0
  144.9931   74.4158  218.0253 H   0  0  0  0  0  0  0  0  0  0  0  0
  143.1960   78.5687  218.9307 H   0  0  0  0  0  0  0  0  0  0  0  0
  140.6645   78.6483  217.8240 H   0  0  0  0  0  0  0  0  0  0  0  0
  142.8086   80.8838  219.5642 H   0  0  0  0  0  0  0  0  0  0  0  0
  142.2333   82.9157  220.8006 H   0  0  0  0  0  0  0  0  0  0  0  0
  138.1432   81.6955  220.8503 H   0  0  0  0  0  0  0  0  0  0  0  0
  138.7247   79.6405  219.5974 H   0  0  0  0  0  0  0  0  0  0  0  0
  139.7436   77.3435  220.5524 H   0  0  0  0  0  0  0  0  0  0  0  0
  140.0253   76.2341  222.0018 H   0  0  0  0  0  0  0  0  0  0  0  0
  138.8567   78.3358  222.9241 H   0  0  0  0  0  0  0  0  0  0  0  0
  139.3586   80.2705  224.3171 H   0  0  0  0  0  0  0  0  0  0  0  0
  141.6479   81.2457  224.4074 H   0  0  0  0  0  0  0  0  0  0  0  0
  144.3650   80.0370  222.3370 H   0  0  0  0  0  0  0  0  0  0  0  0
  142.9146   78.2273  221.6159 H   0  0  0  0  0  0  0  0  0  0  0  0
  1  2  2  0
  2  3  1  0
  3  4  2  0
  4  5  1  0
  5  6  2  0
  6  7  1  0
  6  8  1  0
  8  9  2  0
  9 10  1  0
 10 11  2  0
 11 12  1  0
 12 13  2  0
 13 14  1  0
 14 15  2  0
 15 16  1  0
 16 17  2  0
 17 18  1  0
 17 19  1  0
 19 20  2  0
 11 21  1  0
 21 22  1  0
 22 23  1  0
 23 24  2  0
 24 25  1  0
 25 26  2  0
 26 27  1  0
 27 28  1  0
 27 29  2  0
 21  2  1  0
 29 23  1  0
  9  3  1  0
 20 14  1  0
  4 30  1  0
  5 31  1  0
  8 32  1  0
 12 33  1  0
 13 34  1  0
 15 35  1  0
 16 36  1  0
 19 37  1  0
 20 38  1  0
 22 39  1  0
 22 40  1  0
 24 41  1  0
 25 42  1  0
 26 43  1  0
 28 44  1  0
 29 45  1  0
M  END
>  <smiles>  (12) 
O=c1c2ccc(F)cc2nc(/C=C/c2ccc(F)cc2)n1Cc1cccc(O)c1

>  <score_type>  (12) 
oracle

>  <origin>  (12) 
autodockgpu

>  <m_score__min__energy>  (12) 
-8.3399999999999999

>  <m_primary>  (12) 
energy

>  <rmsd>  (12) 
4.334213363420564

>  <m_score__min__rmsd>  (12) 
4.334213363420564

>  <meeko>  (12) 
{"free_energy": -6.57, "intermolecular_energy": -8.36, "internal_energy": -1.77, "cluster_size": 17, "cluster_id": 8, "rank_in_cluster": 7}

>  <energy>  (12) 
-7.56

>  <cluster_rmsd>  (12) 
0.86

>  <cluster>  (12) 
1

$$$$

     RDKit          3D

 45 48  0  0  0  0  0  0  0  0999 V2000
  139.1760   68.0410  224.7050 O   0  0  0  0  0  0  0  0  0  0  0  0
  139.4760   69.2550  224.5850 C   0  0  0  0  0  0  0  0  0  0  0  0
  140.0380   69.8740  225.6770 C   0  0  0  0  0  0  0  0  0  0  0  0
  140.2510   69.1630  226.8360 C   0  0  0  0  0  0  0  0  0  0  0  0
  140.8180   69.8250  227.9020 C   0  0  0  0  0  0  0  0  0  0  0  0
  141.1390   71.1580  227.7500 C   0  0  0  0  0  0  0  0  0  0  0  0
  141.6960   71.7880  228.8140 F   0  0  0  0  0  0  0  0  0  0  0  0
  140.9240   71.8660  226.5880 C   0  0  0  0  0  0  0  0  0  0  0  0
  140.3570   71.1960  225.5250 C   0  0  0  0  0  0  0  0  0  0  0  0
  140.1350   71.8160  224.4090 N   0  0  0  0  0  0  0  0  0  0  0  0
  139.5760   71.2270  223.3070 C   0  0  0  0  0  0  0  0  0  0  0  0
  139.3770   72.1060  222.1890 C   0  0  0  0  0  0  0  0  0  0  0  0
  140.1060   73.0440  221.6670 C   0  0  0  0  0  0  0  0  0  0  0  0
  141.5090   72.8780  221.2540 C   0  0  0  0  0  0  0  0  0  0  0  0
  142.2490   73.9890  220.8580 C   0  0  0  0  0  0  0  0  0  0  0  0
  143.5640   73.9070  220.4610 C   0  0  0  0  0  0  0  0  0  0  0  0
  144.2110   72.6940  220.4390 C   0  0  0  0  0  0  0  0  0  0  0  0
  145.5050   72.6500  220.0420 F   0  0  0  0  0  0  0  0  0  0  0  0
  143.4960   71.5870  220.8260 C   0  0  0  0  0  0  0  0  0  0  0  0
  142.1590   71.6730  221.2300 C   0  0  0  0  0  0  0  0  0  0  0  0
  139.2470   69.9330  223.4040 N   0  0  0  0  0  0  0  0  0  0  0  0
  138.6770   69.1380  222.3640 C   0  0  0  0  0  0  0  0  0  0  0  0
  137.2120   69.0420  222.3570 C   0  0  0  0  0  0  0  0  0  0  0  0
  136.4930   69.9530  221.5590 C   0  0  0  0  0  0  0  0  0  0  0  0
  135.1230   69.9610  221.5140 C   0  0  0  0  0  0  0  0  0  0  0  0
  134.3640   69.0730  222.2490 C   0  0  0  0  0  0  0  0  0  0  0  0
  135.0440   68.1740  223.0340 C   0  0  0  0  0  0  0  0  0  0  0  0
  134.3110   67.2660  223.7870 O   0  0  0  0  0  0  0  0  0  0  0  0
  136.4380   68.1750  223.0740 C   0  0  0  0  0  0  0  0  0  0  0  0
  139.9771   68.1001  226.9084 H   0  0  0  0  0  0  0  0  0  0  0  0
  141.0102   69.3038  228.8514 H   0  0  0  0  0  0  0  0  0  0  0  0
  141.1954   72.9292  226.5110 H   0  0  0  0  0  0  0  0  0  0  0  0
  138.4172   71.9542  221.6734 H   0  0  0  0  0  0  0  0  0  0  0  0
  139.6435   74.0316  221.5232 H   0  0  0  0  0  0  0  0  0  0  0  0
  141.7613   74.9750  220.8627 H   0  0  0  0  0  0  0  0  0  0  0  0
  144.1013   74.8182  220.1592 H   0  0  0  0  0  0  0  0  0  0  0  0
  143.9890   70.6037  220.8182 H   0  0  0  0  0  0  0  0  0  0  0  0
  141.6233   70.7610  221.5321 H   0  0  0  0  0  0  0  0  0  0  0  0
  138.9907   69.5679  221.4013 H   0  0  0  0  0  0  0  0  0  0  0  0
  139.0405   68.1148  222.5397 H   0  0  0  0  0  0  0  0  0  0  0  0
  137.0493   70.6823  220.9518 H   0  0  0  0  0  0  0  0  0  0  0  0
  134.6139   70.6963  220.8737 H   0  0  0  0  0  0  0  0  0  0  0  0
  133.2648   69.0846  222.2080 H   0  0  0  0  0  0  0  0  0  0  0  0
  134.6110   66.2970  223.8470 H   0  0  0  0  0  0  0  0  0  0  0  0
  136.9409   67.4381  223.7175 H   0  0  0  0  0  0  0  0  0  0  0  0
  1  2  2  0
  2  3  1  0
  3  4  2  0
  4  5  1  0
  5  6  2  0
  6  7  1  0
  6  8  1  0
  8  9  2  0
  9 10  1  0
 10 11  2  0
 11 12  1  0
 12 13  2  0
 13 14  1  0
 14 15  2  0
 15 16  1  0
 16 17  2  0
 17 18  1  0
 17 19  1  0
 19 20  2  0
 11 21  1  0
 21 22  1  0
 22 23  1  0
 23 24  2  0
 24 25  1  0
 25 26  2  0
 26 27  1  0
 27 28  1  0
 27 29  2  0
 21  2  1  0
 29 23  1  0
  9  3  1  0
 20 14  1  0
  4 30  1  0
  5 31  1  0
  8 32  1  0
 12 33  1  0
 13 34  1  0
 15 35  1  0
 16 36  1  0
 19 37  1  0
 20 38  1  0
 22 39  1  0
 22 40  1  0
 24 41  1  0
 25 42  1  0
 26 43  1  0
 28 44  1  0
 29 45  1  0
M  END
>  <smiles>  (13) 
O=c1c2ccc(F)cc2nc(/C=C/c2ccc(F)cc2)n1Cc1cccc(O)c1

>  <score_type>  (13) 
oracle

>  <origin>  (13) 
autodockgpu

>  <m_score__min__energy>  (13) 
-8.3399999999999999

>  <m_primary>  (13) 
energy

>  <rmsd>  (13) 
12.043659816179696

>  <m_score__min__rmsd>  (13) 
12.043659816179696

>  <meeko>  (13) 
{"free_energy": -6.92, "intermolecular_energy": -8.71, "internal_energy": -1.16, "cluster_size": 1, "cluster_id": 4, "rank_in_cluster": 1}

>  <energy>  (13) 
-7.46

>  <cluster_rmsd>  (13) 
0.95

>  <cluster>  (13) 
1

$$$$

     RDKit          3D

 45 48  0  0  0  0  0  0  0  0999 V2000
  142.5030   75.1040  219.4580 O   0  0  0  0  0  0  0  0  0  0  0  0
  141.6980   74.8130  220.3770 C   0  0  0  0  0  0  0  0  0  0  0  0
  141.0080   75.8510  220.9590 C   0  0  0  0  0  0  0  0  0  0  0  0
  141.2130   77.1420  220.5260 C   0  0  0  0  0  0  0  0  0  0  0  0
  140.4970   78.1460  221.1380 C   0  0  0  0  0  0  0  0  0  0  0  0
  139.6190   77.8070  222.1470 C   0  0  0  0  0  0  0  0  0  0  0  0
  138.9270   78.8140  222.7340 F   0  0  0  0  0  0  0  0  0  0  0  0
  139.4180   76.5130  222.5770 C   0  0  0  0  0  0  0  0  0  0  0  0
  140.1360   75.5130  221.9590 C   0  0  0  0  0  0  0  0  0  0  0  0
  139.9830   74.2790  222.3260 N   0  0  0  0  0  0  0  0  0  0  0  0
  140.6560   73.2270  221.7660 C   0  0  0  0  0  0  0  0  0  0  0  0
  140.3690   71.9480  222.3520 C   0  0  0  0  0  0  0  0  0  0  0  0
  139.5320   71.5680  223.2680 C   0  0  0  0  0  0  0  0  0  0  0  0
  139.9090   70.8430  224.4930 C   0  0  0  0  0  0  0  0  0  0  0  0
  140.6530   71.4880  225.4770 C   0  0  0  0  0  0  0  0  0  0  0  0
  141.0390   70.8720  226.6460 C   0  0  0  0  0  0  0  0  0  0  0  0
  140.6950   69.5630  226.8890 C   0  0  0  0  0  0  0  0  0  0  0  0
  141.0920   68.9880  228.0500 F   0  0  0  0  0  0  0  0  0  0  0  0
  139.9610   68.9110  225.9280 C   0  0  0  0  0  0  0  0  0  0  0  0
  139.5700   69.5400  224.7410 C   0  0  0  0  0  0  0  0  0  0  0  0
  141.5200   73.5050  220.7820 N   0  0  0  0  0  0  0  0  0  0  0  0
  142.2980   72.5490  220.0610 C   0  0  0  0  0  0  0  0  0  0  0  0
  143.7400   72.8130  219.9940 C   0  0  0  0  0  0  0  0  0  0  0  0
  144.4420   72.9620  221.2070 C   0  0  0  0  0  0  0  0  0  0  0  0
  145.7830   73.2410  221.2440 C   0  0  0  0  0  0  0  0  0  0  0  0
  146.5300   73.3920  220.0920 C   0  0  0  0  0  0  0  0  0  0  0  0
  145.8660   73.2510  218.8980 C   0  0  0  0  0  0  0  0  0  0  0  0
  146.5860   73.3970  217.7190 O   0  0  0  0  0  0  0  0  0  0  0  0
  144.5010   72.9680  218.8710 C   0  0  0  0  0  0  0  0  0  0  0  0
  141.9254   77.3637  219.7177 H   0  0  0  0  0  0  0  0  0  0  0  0
  140.6220   79.1945  220.8297 H   0  0  0  0  0  0  0  0  0  0  0  0
  138.7082   76.2865  223.3863 H   0  0  0  0  0  0  0  0  0  0  0  0
  140.9790   71.1286  221.9440 H   0  0  0  0  0  0  0  0  0  0  0  0
  138.4679   71.8036  223.1192 H   0  0  0  0  0  0  0  0  0  0  0  0
  140.9453   72.5358  225.3133 H   0  0  0  0  0  0  0  0  0  0  0  0
  141.6261   71.4302  227.3901 H   0  0  0  0  0  0  0  0  0  0  0  0
  139.6721   67.8631  226.0968 H   0  0  0  0  0  0  0  0  0  0  0  0
  138.9829   68.9806  223.9978 H   0  0  0  0  0  0  0  0  0  0  0  0
  142.1570   71.5694  220.5411 H   0  0  0  0  0  0  0  0  0  0  0  0
  141.9389   72.5968  219.0224 H   0  0  0  0  0  0  0  0  0  0  0  0
  143.8954   72.8507  222.1551 H   0  0  0  0  0  0  0  0  0  0  0  0
  146.2793   73.3479  222.2199 H   0  0  0  0  0  0  0  0  0  0  0  0
  147.6066   73.6148  220.1291 H   0  0  0  0  0  0  0  0  0  0  0  0
  146.6420   74.3050  217.2680 H   0  0  0  0  0  0  0  0  0  0  0  0
  144.0106   72.8640  217.8919 H   0  0  0  0  0  0  0  0  0  0  0  0
  1  2  2  0
  2  3  1  0
  3  4  2  0
  4  5  1  0
  5  6  2  0
  6  7  1  0
  6  8  1  0
  8  9  2  0
  9 10  1  0
 10 11  2  0
 11 12  1  0
 12 13  2  0
 13 14  1  0
 14 15  2  0
 15 16  1  0
 16 17  2  0
 17 18  1  0
 17 19  1  0
 19 20  2  0
 11 21  1  0
 21 22  1  0
 22 23  1  0
 23 24  2  0
 24 25  1  0
 25 26  2  0
 26 27  1  0
 27 28  1  0
 27 29  2  0
 21  2  1  0
 29 23  1  0
  9  3  1  0
 20 14  1  0
  4 30  1  0
  5 31  1  0
  8 32  1  0
 12 33  1  0
 13 34  1  0
 15 35  1  0
 16 36  1  0
 19 37  1  0
 20 38  1  0
 22 39  1  0
 22 40  1  0
 24 41  1  0
 25 42  1  0
 26 43  1  0
 28 44  1  0
 29 45  1  0
M  END
>  <smiles>  (14) 
O=c1c2ccc(F)cc2nc(/C=C/c2ccc(F)cc2)n1Cc1cccc(O)c1

>  <score_type>  (14) 
oracle

>  <origin>  (14) 
autodockgpu

>  <m_score__min__energy>  (14) 
-8.3399999999999999

>  <m_primary>  (14) 
energy

>  <rmsd>  (14) 
7.738921781314191

>  <m_score__min__rmsd>  (14) 
7.738921781314191

>  <meeko>  (14) 
{"free_energy": -8.34, "intermolecular_energy": -10.13, "internal_energy": -0.82, "cluster_size": 20, "cluster_id": 1, "rank_in_cluster": 1}

>  <energy>  (14) 
-7.38

>  <cluster_rmsd>  (14) 
1.36

>  <cluster>  (14) 
1

$$$$

     RDKit          3D

 45 48  0  0  0  0  0  0  0  0999 V2000
  141.0900   74.4720  221.9670 O   0  0  0  0  0  0  0  0  0  0  0  0
  141.7700   74.9820  221.0430 C   0  0  0  0  0  0  0  0  0  0  0  0
  142.7380   74.1940  220.4660 C   0  0  0  0  0  0  0  0  0  0  0  0
  142.9250   72.9020  220.9060 C   0  0  0  0  0  0  0  0  0  0  0  0
  143.9050   72.1510  220.2960 C   0  0  0  0  0  0  0  0  0  0  0  0
  144.6420   72.7300  219.2840 C   0  0  0  0  0  0  0  0  0  0  0  0
  145.6010   71.9700  218.7000 F   0  0  0  0  0  0  0  0  0  0  0  0
  144.4510   74.0230  218.8470 C   0  0  0  0  0  0  0  0  0  0  0  0
  143.4680   74.7690  219.4610 C   0  0  0  0  0  0  0  0  0  0  0  0
  143.2480   75.9900  219.0860 N   0  0  0  0  0  0  0  0  0  0  0  0
  142.2930   76.7980  219.6420 C   0  0  0  0  0  0  0  0  0  0  0  0
  142.2470   78.1300  219.1080 C   0  0  0  0  0  0  0  0  0  0  0  0
  141.2660   78.9020  218.7530 C   0  0  0  0  0  0  0  0  0  0  0  0
  140.8370   80.1010  219.4910 C   0  0  0  0  0  0  0  0  0  0  0  0
  141.7770   81.0650  219.8490 C   0  0  0  0  0  0  0  0  0  0  0  0
  141.4470   82.2090  220.5380 C   0  0  0  0  0  0  0  0  0  0  0  0
  140.1450   82.4480  220.9080 C   0  0  0  0  0  0  0  0  0  0  0  0
  139.8560   83.5850  221.5860 F   0  0  0  0  0  0  0  0  0  0  0  0
  139.2040   81.5080  220.5630 C   0  0  0  0  0  0  0  0  0  0  0  0
  139.5430   80.3450  219.8620 C   0  0  0  0  0  0  0  0  0  0  0  0
  141.5510   76.2820  220.6290 N   0  0  0  0  0  0  0  0  0  0  0  0
  140.4960   76.9530  221.3180 C   0  0  0  0  0  0  0  0  0  0  0  0
  140.8960   78.0950  222.1500 C   0  0  0  0  0  0  0  0  0  0  0  0
  139.9070   78.7180  222.9360 C   0  0  0  0  0  0  0  0  0  0  0  0
  140.1790   79.8090  223.7200 C   0  0  0  0  0  0  0  0  0  0  0  0
  141.4410   80.3630  223.7880 C   0  0  0  0  0  0  0  0  0  0  0  0
  142.4210   79.7710  223.0300 C   0  0  0  0  0  0  0  0  0  0  0  0
  143.7040   80.3030  223.0730 O   0  0  0  0  0  0  0  0  0  0  0  0
  142.1350   78.6620  222.2350 C   0  0  0  0  0  0  0  0  0  0  0  0
  142.3117   72.4840  221.7179 H   0  0  0  0  0  0  0  0  0  0  0  0
  144.0956   71.1137  220.6085 H   0  0  0  0  0  0  0  0  0  0  0  0
  145.0622   74.4453  218.0358 H   0  0  0  0  0  0  0  0  0  0  0  0
  143.2388   78.5861  218.9732 H   0  0  0  0  0  0  0  0  0  0  0  0
  140.7166   78.6420  217.8362 H   0  0  0  0  0  0  0  0  0  0  0  0
  142.8285   80.9044  219.5686 H   0  0  0  0  0  0  0  0  0  0  0  0
  142.2304   82.9374  220.7945 H   0  0  0  0  0  0  0  0  0  0  0  0
  138.1541   81.6743  220.8459 H   0  0  0  0  0  0  0  0  0  0  0  0
  138.7586   79.6175  219.6060 H   0  0  0  0  0  0  0  0  0  0  0  0
  139.7814   77.3183  220.5657 H   0  0  0  0  0  0  0  0  0  0  0  0
  140.0766   76.2112  222.0136 H   0  0  0  0  0  0  0  0  0  0  0  0
  138.8832   78.3160  222.9202 H   0  0  0  0  0  0  0  0  0  0  0  0
  139.3672   80.2561  224.3125 H   0  0  0  0  0  0  0  0  0  0  0  0
  141.6521   81.2382  224.4200 H   0  0  0  0  0  0  0  0  0  0  0  0
  144.3860   80.0410  222.3680 H   0  0  0  0  0  0  0  0  0  0  0  0
  142.9513   78.2202  221.6447 H   0  0  0  0  0  0  0  0  0  0  0  0
  1  2  2  0
  2  3  1  0
  3  4  2  0
  4  5  1  0
  5  6  2  0
  6  7  1  0
  6  8  1  0
  8  9  2  0
  9 10  1  0
 10 11  2  0
 11 12  1  0
 12 13  2  0
 13 14  1  0
 14 15  2  0
 15 16  1  0
 16 17  2  0
 17 18  1  0
 17 19  1  0
 19 20  2  0
 11 21  1  0
 21 22  1  0
 22 23  1  0
 23 24  2  0
 24 25  1  0
 25 26  2  0
 26 27  1  0
 27 28  1  0
 27 29  2  0
 21  2  1  0
 29 23  1  0
  9  3  1  0
 20 14  1  0
  4 30  1  0
  5 31  1  0
  8 32  1  0
 12 33  1  0
 13 34  1  0
 15 35  1  0
 16 36  1  0
 19 37  1  0
 20 38  1  0
 22 39  1  0
 22 40  1  0
 24 41  1  0
 25 42  1  0
 26 43  1  0
 28 44  1  0
 29 45  1  0
M  END
>  <smiles>  (15) 
O=c1c2ccc(F)cc2nc(/C=C/c2ccc(F)cc2)n1Cc1cccc(O)c1

>  <score_type>  (15) 
oracle

>  <origin>  (15) 
autodockgpu

>  <m_score__min__energy>  (15) 
-8.3399999999999999

>  <m_primary>  (15) 
energy

>  <rmsd>  (15) 
4.359872312889332

>  <m_score__min__rmsd>  (15) 
4.359872312889332

>  <meeko>  (15) 
{"free_energy": -6.57, "intermolecular_energy": -8.36, "internal_energy": -1.77, "cluster_size": 17, "cluster_id": 8, "rank_in_cluster": 10}

>  <energy>  (15) 
-7.34

>  <cluster_rmsd>  (15) 
1.4

>  <cluster>  (15) 
1

$$$$

     RDKit          3D

 45 48  0  0  0  0  0  0  0  0999 V2000
  141.6500   72.2480  219.1980 O   0  0  0  0  0  0  0  0  0  0  0  0
  141.1080   72.7720  220.2020 C   0  0  0  0  0  0  0  0  0  0  0  0
  140.2700   71.9790  220.9500 C   0  0  0  0  0  0  0  0  0  0  0  0
  140.0580   70.6680  220.5860 C   0  0  0  0  0  0  0  0  0  0  0  0
  139.2120   69.9130  221.3670 C   0  0  0  0  0  0  0  0  0  0  0  0
  138.6260   70.5080  222.4650 C   0  0  0  0  0  0  0  0  0  0  0  0
  137.7970   69.7430  223.2170 F   0  0  0  0  0  0  0  0  0  0  0  0
  138.8410   71.8200  222.8250 C   0  0  0  0  0  0  0  0  0  0  0  0
  139.6890   72.5700  222.0400 C   0  0  0  0  0  0  0  0  0  0  0  0
  139.9260   73.8090  222.3360 N   0  0  0  0  0  0  0  0  0  0  0  0
  140.7540   74.6230  221.6100 C   0  0  0  0  0  0  0  0  0  0  0  0
  140.8400   75.9740  222.0870 C   0  0  0  0  0  0  0  0  0  0  0  0
  141.0700   77.1040  221.4930 C   0  0  0  0  0  0  0  0  0  0  0  0
  141.4450   78.3490  222.1820 C   0  0  0  0  0  0  0  0  0  0  0  0
  141.8030   79.4710  221.4380 C   0  0  0  0  0  0  0  0  0  0  0  0
  142.1640   80.6660  222.0160 C   0  0  0  0  0  0  0  0  0  0  0  0
  142.1860   80.8000  223.3840 C   0  0  0  0  0  0  0  0  0  0  0  0
  142.5460   81.9900  223.9190 F   0  0  0  0  0  0  0  0  0  0  0  0
  141.8360   79.7030  224.1340 C   0  0  0  0  0  0  0  0  0  0  0  0
  141.4690   78.4880  223.5440 C   0  0  0  0  0  0  0  0  0  0  0  0
  141.3470   74.0910  220.5340 N   0  0  0  0  0  0  0  0  0  0  0  0
  142.2580   74.7660  219.6660 C   0  0  0  0  0  0  0  0  0  0  0  0
  143.6280   74.2400  219.6360 C   0  0  0  0  0  0  0  0  0  0  0  0
  144.3380   74.1770  220.8520 C   0  0  0  0  0  0  0  0  0  0  0  0
  145.6320   73.7300  220.9170 C   0  0  0  0  0  0  0  0  0  0  0  0
  146.3190   73.3130  219.7950 C   0  0  0  0  0  0  0  0  0  0  0  0
  145.6450   73.3660  218.5990 C   0  0  0  0  0  0  0  0  0  0  0  0
  146.3060   72.9550  217.4480 O   0  0  0  0  0  0  0  0  0  0  0  0
  144.3290   73.8230  218.5410 C   0  0  0  0  0  0  0  0  0  0  0  0
  140.5485   70.2380  219.7003 H   0  0  0  0  0  0  0  0  0  0  0  0
  139.0082   68.8603  221.1213 H   0  0  0  0  0  0  0  0  0  0  0  0
  138.3521   72.2543  223.7095 H   0  0  0  0  0  0  0  0  0  0  0  0
  140.6790   76.0702  223.1709 H   0  0  0  0  0  0  0  0  0  0  0  0
  140.9783   77.1337  220.3972 H   0  0  0  0  0  0  0  0  0  0  0  0
  141.7967   79.3983  220.3404 H   0  0  0  0  0  0  0  0  0  0  0  0
  142.4370   81.5203  221.3791 H   0  0  0  0  0  0  0  0  0  0  0  0
  141.8445   79.7822  225.2311 H   0  0  0  0  0  0  0  0  0  0  0  0
  141.1965   77.6345  224.1822 H   0  0  0  0  0  0  0  0  0  0  0  0
  141.8536   74.7101  218.6445 H   0  0  0  0  0  0  0  0  0  0  0  0
  142.3418   75.7889  220.0617 H   0  0  0  0  0  0  0  0  0  0  0  0
  143.8377   74.4967  221.7780 H   0  0  0  0  0  0  0  0  0  0  0  0
  146.1384   73.7028  221.8931 H   0  0  0  0  0  0  0  0  0  0  0  0
  147.3574   72.9550  219.8555 H   0  0  0  0  0  0  0  0  0  0  0  0
  146.3220   73.5550  216.6290 H   0  0  0  0  0  0  0  0  0  0  0  0
  143.8292   73.8490  217.5615 H   0  0  0  0  0  0  0  0  0  0  0  0
  1  2  2  0
  2  3  1  0
  3  4  2  0
  4  5  1  0
  5  6  2  0
  6  7  1  0
  6  8  1  0
  8  9  2  0
  9 10  1  0
 10 11  2  0
 11 12  1  0
 12 13  2  0
 13 14  1  0
 14 15  2  0
 15 16  1  0
 16 17  2  0
 17 18  1  0
 17 19  1  0
 19 20  2  0
 11 21  1  0
 21 22  1  0
 22 23  1  0
 23 24  2  0
 24 25  1  0
 25 26  2  0
 26 27  1  0
 27 28  1  0
 27 29  2  0
 21  2  1  0
 29 23  1  0
  9  3  1  0
 20 14  1  0
  4 30  1  0
  5 31  1  0
  8 32  1  0
 12 33  1  0
 13 34  1  0
 15 35  1  0
 16 36  1  0
 19 37  1  0
 20 38  1  0
 22 39  1  0
 22 40  1  0
 24 41  1  0
 25 42  1  0
 26 43  1  0
 28 44  1  0
 29 45  1  0
M  END
>  <smiles>  (16) 
O=c1c2ccc(F)cc2nc(/C=C/c2ccc(F)cc2)n1Cc1cccc(O)c1

>  <score_type>  (16) 
oracle

>  <origin>  (16) 
autodockgpu

>  <m_score__min__energy>  (16) 
-8.3399999999999999

>  <m_primary>  (16) 
energy

>  <rmsd>  (16) 
8.071281638449895

>  <m_score__min__rmsd>  (16) 
8.071281638449895

>  <meeko>  (16) 
{"free_energy": -7.3, "intermolecular_energy": -9.09, "internal_energy": -0.92, "cluster_size": 1, "cluster_id": 3, "rank_in_cluster": 1}

>  <energy>  (16) 
-7.3

>  <cluster_rmsd>  (16) 
1.24

>  <cluster>  (16) 
1

$$$$

     RDKit          3D

 45 48  0  0  0  0  0  0  0  0999 V2000
  142.1520   75.0970  219.2810 O   0  0  0  0  0  0  0  0  0  0  0  0
  141.4500   74.7550  220.2650 C   0  0  0  0  0  0  0  0  0  0  0  0
  140.7220   75.7390  220.8900 C   0  0  0  0  0  0  0  0  0  0  0  0
  140.7800   77.0350  220.4300 C   0  0  0  0  0  0  0  0  0  0  0  0
  140.0320   77.9860  221.0880 C   0  0  0  0  0  0  0  0  0  0  0  0
  139.2690   77.5900  222.1670 C   0  0  0  0  0  0  0  0  0  0  0  0
  138.5410   78.5440  222.7980 F   0  0  0  0  0  0  0  0  0  0  0  0
  139.2140   76.2910  222.6240 C   0  0  0  0  0  0  0  0  0  0  0  0
  139.9640   75.3450  221.9600 C   0  0  0  0  0  0  0  0  0  0  0  0
  139.9460   74.1090  222.3490 N   0  0  0  0  0  0  0  0  0  0  0  0
  140.6600   73.1080  221.7480 C   0  0  0  0  0  0  0  0  0  0  0  0
  140.5310   71.8190  222.3670 C   0  0  0  0  0  0  0  0  0  0  0  0
  139.7050   71.3460  223.2480 C   0  0  0  0  0  0  0  0  0  0  0  0
  140.0690   70.9980  224.6310 C   0  0  0  0  0  0  0  0  0  0  0  0
  139.7350   69.7460  225.1410 C   0  0  0  0  0  0  0  0  0  0  0  0
  140.0440   69.3540  226.4230 C   0  0  0  0  0  0  0  0  0  0  0  0
  140.7110   70.2080  227.2700 C   0  0  0  0  0  0  0  0  0  0  0  0
  140.9990   69.7900  228.5260 F   0  0  0  0  0  0  0  0  0  0  0  0
  141.0480   71.4480  226.7840 C   0  0  0  0  0  0  0  0  0  0  0  0
  140.7330   71.8430  225.4790 C   0  0  0  0  0  0  0  0  0  0  0  0
  141.4170   73.4430  220.6950 N   0  0  0  0  0  0  0  0  0  0  0  0
  142.2140   72.5450  219.9230 C   0  0  0  0  0  0  0  0  0  0  0  0
  143.6620   72.7890  219.9440 C   0  0  0  0  0  0  0  0  0  0  0  0
  144.2980   72.8810  221.1970 C   0  0  0  0  0  0  0  0  0  0  0  0
  145.6390   73.1390  221.3160 C   0  0  0  0  0  0  0  0  0  0  0  0
  146.4490   73.3230  220.2130 C   0  0  0  0  0  0  0  0  0  0  0  0
  145.8480   73.2370  218.9810 C   0  0  0  0  0  0  0  0  0  0  0  0
  146.6330   73.4180  217.8480 O   0  0  0  0  0  0  0  0  0  0  0  0
  144.4840   72.9750  218.8690 C   0  0  0  0  0  0  0  0  0  0  0  0
  141.4039   77.3026  219.5644 H   0  0  0  0  0  0  0  0  0  0  0  0
  140.0427   79.0362  220.7610 H   0  0  0  0  0  0  0  0  0  0  0  0
  138.5923   76.0186  223.4896 H   0  0  0  0  0  0  0  0  0  0  0  0
  141.2802   71.0888  222.0272 H   0  0  0  0  0  0  0  0  0  0  0  0
  138.6599   71.1944  222.9402 H   0  0  0  0  0  0  0  0  0  0  0  0
  139.2002   69.0389  224.4898 H   0  0  0  0  0  0  0  0  0  0  0  0
  139.7559   68.3516  226.7727 H   0  0  0  0  0  0  0  0  0  0  0  0
  141.5814   72.1514  227.4403 H   0  0  0  0  0  0  0  0  0  0  0  0
  141.0226   72.8452  225.1302 H   0  0  0  0  0  0  0  0  0  0  0  0
  142.0386   71.5277  220.3029 H   0  0  0  0  0  0  0  0  0  0  0  0
  141.9030   72.6953  218.8786 H   0  0  0  0  0  0  0  0  0  0  0  0
  143.6996   72.7414  222.1094 H   0  0  0  0  0  0  0  0  0  0  0  0
  146.0832   73.2013  222.3204 H   0  0  0  0  0  0  0  0  0  0  0  0
  147.5247   73.5287  220.3161 H   0  0  0  0  0  0  0  0  0  0  0  0
  146.6980   74.3350  217.4170 H   0  0  0  0  0  0  0  0  0  0  0  0
  144.0461   72.9148  217.8617 H   0  0  0  0  0  0  0  0  0  0  0  0
  1  2  2  0
  2  3  1  0
  3  4  2  0
  4  5  1  0
  5  6  2  0
  6  7  1  0
  6  8  1  0
  8  9  2  0
  9 10  1  0
 10 11  2  0
 11 12  1  0
 12 13  2  0
 13 14  1  0
 14 15  2  0
 15 16  1  0
 16 17  2  0
 17 18  1  0
 17 19  1  0
 19 20  2  0
 11 21  1  0
 21 22  1  0
 22 23  1  0
 23 24  2  0
 24 25  1  0
 25 26  2  0
 26 27  1  0
 27 28  1  0
 27 29  2  0
 21  2  1  0
 29 23  1  0
  9  3  1  0
 20 14  1  0
  4 30  1  0
  5 31  1  0
  8 32  1  0
 12 33  1  0
 13 34  1  0
 15 35  1  0
 16 36  1  0
 19 37  1  0
 20 38  1  0
 22 39  1  0
 22 40  1  0
 24 41  1  0
 25 42  1  0
 26 43  1  0
 28 44  1  0
 29 45  1  0
M  END
>  <smiles>  (17) 
O=c1c2ccc(F)cc2nc(/C=C/c2ccc(F)cc2)n1Cc1cccc(O)c1

>  <score_type>  (17) 
oracle

>  <origin>  (17) 
autodockgpu

>  <m_score__min__energy>  (17) 
-8.3399999999999999

>  <m_primary>  (17) 
energy

>  <rmsd>  (17) 
7.712271876183244

>  <m_score__min__rmsd>  (17) 
7.712271876183244

>  <meeko>  (17) 
{"free_energy": -8.19, "intermolecular_energy": -9.97, "internal_energy": -1.0, "cluster_size": 20, "cluster_id": 1, "rank_in_cluster": 3}

>  <energy>  (17) 
-7.28

>  <cluster_rmsd>  (17) 
1.46

>  <cluster>  (17) 
1

$$$$

     RDKit          3D

 45 48  0  0  0  0  0  0  0  0999 V2000
  141.0880   74.5690  221.9460 O   0  0  0  0  0  0  0  0  0  0  0  0
  141.7690   75.0440  221.0030 C   0  0  0  0  0  0  0  0  0  0  0  0
  142.7360   74.2330  220.4570 C   0  0  0  0  0  0  0  0  0  0  0  0
  142.9210   72.9580  220.9450 C   0  0  0  0  0  0  0  0  0  0  0  0
  143.9000   72.1830  220.3640 C   0  0  0  0  0  0  0  0  0  0  0  0
  144.6380   72.7230  219.3310 C   0  0  0  0  0  0  0  0  0  0  0  0
  145.5970   71.9410  218.7760 F   0  0  0  0  0  0  0  0  0  0  0  0
  144.4500   73.9990  218.8470 C   0  0  0  0  0  0  0  0  0  0  0  0
  143.4680   74.7690  219.4310 C   0  0  0  0  0  0  0  0  0  0  0  0
  143.2490   75.9750  219.0120 N   0  0  0  0  0  0  0  0  0  0  0  0
  142.2950   76.8050  219.5360 C   0  0  0  0  0  0  0  0  0  0  0  0
  142.2510   78.1160  218.9530 C   0  0  0  0  0  0  0  0  0  0  0  0
  141.2730   78.9220  218.6730 C   0  0  0  0  0  0  0  0  0  0  0  0
  140.9360   80.1270  219.4480 C   0  0  0  0  0  0  0  0  0  0  0  0
  139.6180   80.3530  219.8380 C   0  0  0  0  0  0  0  0  0  0  0  0
  139.2330   81.4560  220.5640 C   0  0  0  0  0  0  0  0  0  0  0  0
  140.1590   82.4020  220.9380 C   0  0  0  0  0  0  0  0  0  0  0  0
  139.7450   83.4760  221.6510 F   0  0  0  0  0  0  0  0  0  0  0  0
  141.4640   82.1960  220.5610 C   0  0  0  0  0  0  0  0  0  0  0  0
  141.8530   81.0720  219.8240 C   0  0  0  0  0  0  0  0  0  0  0  0
  141.5520   76.3270  220.5420 N   0  0  0  0  0  0  0  0  0  0  0  0
  140.4980   77.0250  221.2040 C   0  0  0  0  0  0  0  0  0  0  0  0
  140.9090   78.1300  222.0790 C   0  0  0  0  0  0  0  0  0  0  0  0
  139.9270   78.7270  222.8950 C   0  0  0  0  0  0  0  0  0  0  0  0
  140.2100   79.7840  223.7210 C   0  0  0  0  0  0  0  0  0  0  0  0
  141.4760   80.3280  223.8030 C   0  0  0  0  0  0  0  0  0  0  0  0
  142.4480   79.7610  223.0160 C   0  0  0  0  0  0  0  0  0  0  0  0
  143.7340   80.2840  223.0730 O   0  0  0  0  0  0  0  0  0  0  0  0
  142.1510   78.6870  222.1790 C   0  0  0  0  0  0  0  0  0  0  0  0
  142.3068   72.5716  221.7717 H   0  0  0  0  0  0  0  0  0  0  0  0
  144.0890   71.1578  220.7152 H   0  0  0  0  0  0  0  0  0  0  0  0
  145.0634   74.3900  218.0219 H   0  0  0  0  0  0  0  0  0  0  0  0
  143.2417   78.5166  218.6921 H   0  0  0  0  0  0  0  0  0  0  0  0
  140.6527   78.6882  217.7952 H   0  0  0  0  0  0  0  0  0  0  0  0
  138.8516   79.6172  219.5529 H   0  0  0  0  0  0  0  0  0  0  0  0
  138.1777   81.5825  220.8474 H   0  0  0  0  0  0  0  0  0  0  0  0
  142.2255   82.9365  220.8470 H   0  0  0  0  0  0  0  0  0  0  0  0
  142.9090   80.9458  219.5430 H   0  0  0  0  0  0  0  0  0  0  0  0
  139.8304   77.4367  220.4328 H   0  0  0  0  0  0  0  0  0  0  0  0
  140.0207   76.2855  221.8638 H   0  0  0  0  0  0  0  0  0  0  0  0
  138.9006   78.3322  222.8683 H   0  0  0  0  0  0  0  0  0  0  0  0
  139.4045   80.2111  224.3365 H   0  0  0  0  0  0  0  0  0  0  0  0
  141.6960   81.1763  224.4678 H   0  0  0  0  0  0  0  0  0  0  0  0
  144.4040   80.0660  222.3420 H   0  0  0  0  0  0  0  0  0  0  0  0
  142.9612   78.2655  221.5659 H   0  0  0  0  0  0  0  0  0  0  0  0
  1  2  2  0
  2  3  1  0
  3  4  2  0
  4  5  1  0
  5  6  2  0
  6  7  1  0
  6  8  1  0
  8  9  2  0
  9 10  1  0
 10 11  2  0
 11 12  1  0
 12 13  2  0
 13 14  1  0
 14 15  2  0
 15 16  1  0
 16 17  2  0
 17 18  1  0
 17 19  1  0
 19 20  2  0
 11 21  1  0
 21 22  1  0
 22 23  1  0
 23 24  2  0
 24 25  1  0
 25 26  2  0
 26 27  1  0
 27 28  1  0
 27 29  2  0
 21  2  1  0
 29 23  1  0
  9  3  1  0
 20 14  1  0
  4 30  1  0
  5 31  1  0
  8 32  1  0
 12 33  1  0
 13 34  1  0
 15 35  1  0
 16 36  1  0
 19 37  1  0
 20 38  1  0
 22 39  1  0
 22 40  1  0
 24 41  1  0
 25 42  1  0
 26 43  1  0
 28 44  1  0
 29 45  1  0
M  END
>  <smiles>  (18) 
O=c1c2ccc(F)cc2nc(/C=C/c2ccc(F)cc2)n1Cc1cccc(O)c1

>  <score_type>  (18) 
oracle

>  <origin>  (18) 
autodockgpu

>  <m_score__min__energy>  (18) 
-8.3399999999999999

>  <m_primary>  (18) 
energy

>  <rmsd>  (18) 
4.352005127992844

>  <m_score__min__rmsd>  (18) 
4.352005127992844

>  <meeko>  (18) 
{"free_energy": -6.52, "intermolecular_energy": -8.31, "internal_energy": -1.8, "cluster_size": 17, "cluster_id": 8, "rank_in_cluster": 15}

>  <energy>  (18) 
-7.24

>  <cluster_rmsd>  (18) 
1.11

>  <cluster>  (18) 
1

$$$$

     RDKit          3D

 45 48  0  0  0  0  0  0  0  0999 V2000
  140.9670   74.4960  221.9500 O   0  0  0  0  0  0  0  0  0  0  0  0
  141.7050   74.9550  221.0430 C   0  0  0  0  0  0  0  0  0  0  0  0
  142.6710   74.1180  220.5350 C   0  0  0  0  0  0  0  0  0  0  0  0
  142.7950   72.8350  221.0210 C   0  0  0  0  0  0  0  0  0  0  0  0
  143.7750   72.0340  220.4810 C   0  0  0  0  0  0  0  0  0  0  0  0
  144.5760   72.5570  219.4870 C   0  0  0  0  0  0  0  0  0  0  0  0
  145.5350   71.7490  218.9710 F   0  0  0  0  0  0  0  0  0  0  0  0
  144.4490   73.8410  219.0030 C   0  0  0  0  0  0  0  0  0  0  0  0
  143.4650   74.6370  219.5480 C   0  0  0  0  0  0  0  0  0  0  0  0
  143.3030   75.8520  219.1280 N   0  0  0  0  0  0  0  0  0  0  0  0
  142.3520   76.7080  219.6140 C   0  0  0  0  0  0  0  0  0  0  0  0
  142.3740   78.0230  219.0400 C   0  0  0  0  0  0  0  0  0  0  0  0
  141.4360   78.8200  218.6300 C   0  0  0  0  0  0  0  0  0  0  0  0
  140.9340   79.9780  219.3890 C   0  0  0  0  0  0  0  0  0  0  0  0
  141.8150   80.9860  219.7750 C   0  0  0  0  0  0  0  0  0  0  0  0
  141.4150   82.0950  220.4840 C   0  0  0  0  0  0  0  0  0  0  0  0
  140.0980   82.2520  220.8470 C   0  0  0  0  0  0  0  0  0  0  0  0
  139.7390   83.3560  221.5450 F   0  0  0  0  0  0  0  0  0  0  0  0
  139.2150   81.2670  220.4750 C   0  0  0  0  0  0  0  0  0  0  0  0
  139.6250   80.1410  219.7530 C   0  0  0  0  0  0  0  0  0  0  0  0
  141.5490   76.2470  220.5810 N   0  0  0  0  0  0  0  0  0  0  0  0
  140.4870   76.9730  221.2000 C   0  0  0  0  0  0  0  0  0  0  0  0
  140.8900   78.0700  222.0890 C   0  0  0  0  0  0  0  0  0  0  0  0
  139.9140   78.6240  222.9400 C   0  0  0  0  0  0  0  0  0  0  0  0
  140.1890   79.6710  223.7810 C   0  0  0  0  0  0  0  0  0  0  0  0
  141.4430   80.2460  223.8450 C   0  0  0  0  0  0  0  0  0  0  0  0
  142.4100   79.7210  223.0230 C   0  0  0  0  0  0  0  0  0  0  0  0
  143.6830   80.2760  223.0620 O   0  0  0  0  0  0  0  0  0  0  0  0
  142.1210   78.6570  222.1710 C   0  0  0  0  0  0  0  0  0  0  0  0
  142.1317   72.4626  221.8155 H   0  0  0  0  0  0  0  0  0  0  0  0
  143.9163   71.0016  220.8334 H   0  0  0  0  0  0  0  0  0  0  0  0
  145.1104   74.2176  218.2089 H   0  0  0  0  0  0  0  0  0  0  0  0
  143.3865   78.4372  218.9248 H   0  0  0  0  0  0  0  0  0  0  0  0
  140.9845   78.6168  217.6477 H   0  0  0  0  0  0  0  0  0  0  0  0
  142.8761   80.8910  219.5010 H   0  0  0  0  0  0  0  0  0  0  0  0
  142.1535   82.8612  220.7624 H   0  0  0  0  0  0  0  0  0  0  0  0
  138.1554   81.3667  220.7529 H   0  0  0  0  0  0  0  0  0  0  0  0
  138.8851   79.3763  219.4741 H   0  0  0  0  0  0  0  0  0  0  0  0
  139.8608   77.3990  220.4023 H   0  0  0  0  0  0  0  0  0  0  0  0
  139.9662   76.2472  221.8418 H   0  0  0  0  0  0  0  0  0  0  0  0
  138.8979   78.2028  222.9294 H   0  0  0  0  0  0  0  0  0  0  0  0
  139.3876   80.0646  224.4235 H   0  0  0  0  0  0  0  0  0  0  0  0
  141.6574   81.0854  224.5228 H   0  0  0  0  0  0  0  0  0  0  0  0
  144.3880   79.9760  222.3950 H   0  0  0  0  0  0  0  0  0  0  0  0
  142.9267   78.2690  221.5304 H   0  0  0  0  0  0  0  0  0  0  0  0
  1  2  2  0
  2  3  1  0
  3  4  2  0
  4  5  1  0
  5  6  2  0
  6  7  1  0
  6  8  1  0
  8  9  2  0
  9 10  1  0
 10 11  2  0
 11 12  1  0
 12 13  2  0
 13 14  1  0
 14 15  2  0
 15 16  1  0
 16 17  2  0
 17 18  1  0
 17 19  1  0
 19 20  2  0
 11 21  1  0
 21 22  1  0
 22 23  1  0
 23 24  2  0
 24 25  1  0
 25 26  2  0
 26 27  1  0
 27 28  1  0
 27 29  2  0
 21  2  1  0
 29 23  1  0
  9  3  1  0
 20 14  1  0
  4 30  1  0
  5 31  1  0
  8 32  1  0
 12 33  1  0
 13 34  1  0
 15 35  1  0
 16 36  1  0
 19 37  1  0
 20 38  1  0
 22 39  1  0
 22 40  1  0
 24 41  1  0
 25 42  1  0
 26 43  1  0
 28 44  1  0
 29 45  1  0
M  END
>  <smiles>  (19) 
O=c1c2ccc(F)cc2nc(/C=C/c2ccc(F)cc2)n1Cc1cccc(O)c1

>  <score_type>  (19) 
oracle

>  <origin>  (19) 
autodockgpu

>  <m_score__min__energy>  (19) 
-8.3399999999999999

>  <m_primary>  (19) 
energy

>  <rmsd>  (19) 
4.403138121902849

>  <m_score__min__rmsd>  (19) 
4.403138121902849

>  <meeko>  (19) 
{"free_energy": -6.54, "intermolecular_energy": -8.33, "internal_energy": -1.78, "cluster_size": 17, "cluster_id": 8, "rank_in_cluster": 13}

>  <energy>  (19) 
-7.23

>  <cluster_rmsd>  (19) 
1.53

>  <cluster>  (19) 
1

$$$$

     RDKit          3D

 45 48  0  0  0  0  0  0  0  0999 V2000
  142.7800   74.8240  221.0160 O   0  0  0  0  0  0  0  0  0  0  0  0
  141.6520   74.4520  221.4240 C   0  0  0  0  0  0  0  0  0  0  0  0
  140.7340   75.4330  221.7140 C   0  0  0  0  0  0  0  0  0  0  0  0
  141.0690   76.7590  221.5510 C   0  0  0  0  0  0  0  0  0  0  0  0
  140.1150   77.7050  221.8540 C   0  0  0  0  0  0  0  0  0  0  0  0
  138.8830   77.2750  222.3010 C   0  0  0  0  0  0  0  0  0  0  0  0
  137.9610   78.2260  222.5920 F   0  0  0  0  0  0  0  0  0  0  0  0
  138.5520   75.9480  222.4620 C   0  0  0  0  0  0  0  0  0  0  0  0
  139.5110   75.0060  222.1570 C   0  0  0  0  0  0  0  0  0  0  0  0
  139.2490   73.7430  222.2900 N   0  0  0  0  0  0  0  0  0  0  0  0
  140.1430   72.7450  222.0100 C   0  0  0  0  0  0  0  0  0  0  0  0
  139.6640   71.4170  222.2700 C   0  0  0  0  0  0  0  0  0  0  0  0
  139.1790   70.8490  223.3310 C   0  0  0  0  0  0  0  0  0  0  0  0
  139.7800   70.9350  224.6720 C   0  0  0  0  0  0  0  0  0  0  0  0
  139.4150   70.0170  225.6530 C   0  0  0  0  0  0  0  0  0  0  0  0
  139.9360   70.0380  226.9260 C   0  0  0  0  0  0  0  0  0  0  0  0
  140.8590   70.9920  227.2860 C   0  0  0  0  0  0  0  0  0  0  0  0
  141.3510   70.9840  228.5470 F   0  0  0  0  0  0  0  0  0  0  0  0
  141.2300   71.9070  226.3300 C   0  0  0  0  0  0  0  0  0  0  0  0
  140.6990   71.8830  225.0350 C   0  0  0  0  0  0  0  0  0  0  0  0
  141.3540   73.1120  221.5720 N   0  0  0  0  0  0  0  0  0  0  0  0
  142.4110   72.2240  221.2070 C   0  0  0  0  0  0  0  0  0  0  0  0
  143.0690   72.5010  219.9240 C   0  0  0  0  0  0  0  0  0  0  0  0
  142.2730   72.5120  218.7620 C   0  0  0  0  0  0  0  0  0  0  0  0
  142.8030   72.7300  217.5170 C   0  0  0  0  0  0  0  0  0  0  0  0
  144.1520   72.9530  217.3270 C   0  0  0  0  0  0  0  0  0  0  0  0
  144.9470   72.9470  218.4470 C   0  0  0  0  0  0  0  0  0  0  0  0
  146.3100   73.1680  218.2920 O   0  0  0  0  0  0  0  0  0  0  0  0
  144.3990   72.7240  219.7090 C   0  0  0  0  0  0  0  0  0  0  0  0
  142.0659   77.0528  221.1906 H   0  0  0  0  0  0  0  0  0  0  0  0
  140.3304   78.7779  221.7422 H   0  0  0  0  0  0  0  0  0  0  0  0
  137.5562   75.6499  222.8218 H   0  0  0  0  0  0  0  0  0  0  0  0
  139.7190   70.7492  221.3977 H   0  0  0  0  0  0  0  0  0  0  0  0
  138.2548   70.2627  223.2208 H   0  0  0  0  0  0  0  0  0  0  0  0
  138.6778   69.2410  225.3991 H   0  0  0  0  0  0  0  0  0  0  0  0
  139.6122   69.2865  227.6611 H   0  0  0  0  0  0  0  0  0  0  0  0
  141.9664   72.6816  226.5903 H   0  0  0  0  0  0  0  0  0  0  0  0
  141.0238   72.6345  224.3004 H   0  0  0  0  0  0  0  0  0  0  0  0
  143.1769   72.2703  221.9952 H   0  0  0  0  0  0  0  0  0  0  0  0
  141.9423   71.2354  221.0930 H   0  0  0  0  0  0  0  0  0  0  0  0
  141.1907   72.3400  218.8568 H   0  0  0  0  0  0  0  0  0  0  0  0
  142.1340   72.7272  216.6438 H   0  0  0  0  0  0  0  0  0  0  0  0
  144.5709   73.1274  216.3249 H   0  0  0  0  0  0  0  0  0  0  0  0
  146.6730   74.1170  218.2800 H   0  0  0  0  0  0  0  0  0  0  0  0
  145.0736   72.7278  220.5779 H   0  0  0  0  0  0  0  0  0  0  0  0
  1  2  2  0
  2  3  1  0
  3  4  2  0
  4  5  1  0
  5  6  2  0
  6  7  1  0
  6  8  1  0
  8  9  2  0
  9 10  1  0
 10 11  2  0
 11 12  1  0
 12 13  2  0
 13 14  1  0
 14 15  2  0
 15 16  1  0
 16 17  2  0
 17 18  1  0
 17 19  1  0
 19 20  2  0
 11 21  1  0
 21 22  1  0
 22 23  1  0
 23 24  2  0
 24 25  1  0
 25 26  2  0
 26 27  1  0
 27 28  1  0
 27 29  2  0
 21  2  1  0
 29 23  1  0
  9  3  1  0
 20 14  1  0
  4 30  1  0
  5 31  1  0
  8 32  1  0
 12 33  1  0
 13 34  1  0
 15 35  1  0
 16 36  1  0
 19 37  1  0
 20 38  1  0
 22 39  1  0
 22 40  1  0
 24 41  1  0
 25 42  1  0
 26 43  1  0
 28 44  1  0
 29 45  1  0
M  END
>  <smiles>  (20) 
O=c1c2ccc(F)cc2nc(/C=C/c2ccc(F)cc2)n1Cc1cccc(O)c1

>  <score_type>  (20) 
oracle

>  <origin>  (20) 
autodockgpu

>  <m_score__min__energy>  (20) 
-8.3399999999999999

>  <m_primary>  (20) 
energy

>  <rmsd>  (20) 
7.713658901844921

>  <m_score__min__rmsd>  (20) 
7.713658901844921

>  <meeko>  (20) 
{"free_energy": -7.24, "intermolecular_energy": -9.03, "internal_energy": -0.89, "cluster_size": 20, "cluster_id": 1, "rank_in_cluster": 18}

>  <energy>  (20) 
-7.15

>  <cluster_rmsd>  (20) 
1.6

>  <cluster>  (20) 
1

$$$$

     RDKit          3D

 45 48  0  0  0  0  0  0  0  0999 V2000
  142.1290   75.1660  219.2620 O   0  0  0  0  0  0  0  0  0  0  0  0
  141.4410   74.8070  220.2500 C   0  0  0  0  0  0  0  0  0  0  0  0
  140.7020   75.7760  220.8860 C   0  0  0  0  0  0  0  0  0  0  0  0
  140.7350   77.0750  220.4310 C   0  0  0  0  0  0  0  0  0  0  0  0
  139.9760   78.0100  221.0990 C   0  0  0  0  0  0  0  0  0  0  0  0
  139.2290   77.5960  222.1820 C   0  0  0  0  0  0  0  0  0  0  0  0
  138.4900   78.5350  222.8230 F   0  0  0  0  0  0  0  0  0  0  0  0
  139.1990   76.2950  222.6330 C   0  0  0  0  0  0  0  0  0  0  0  0
  139.9590   75.3640  221.9600 C   0  0  0  0  0  0  0  0  0  0  0  0
  139.9650   74.1260  222.3430 N   0  0  0  0  0  0  0  0  0  0  0  0
  140.6910   73.1410  221.7310 C   0  0  0  0  0  0  0  0  0  0  0  0
  140.5890   71.8470  222.3450 C   0  0  0  0  0  0  0  0  0  0  0  0
  139.7710   71.3520  223.2220 C   0  0  0  0  0  0  0  0  0  0  0  0
  140.1530   70.9480  224.5850 C   0  0  0  0  0  0  0  0  0  0  0  0
  139.9320   69.6390  225.0060 C   0  0  0  0  0  0  0  0  0  0  0  0
  140.2650   69.1940  226.2650 C   0  0  0  0  0  0  0  0  0  0  0  0
  140.8400   70.0470  227.1760 C   0  0  0  0  0  0  0  0  0  0  0  0
  141.1540   69.5750  228.4060 F   0  0  0  0  0  0  0  0  0  0  0  0
  141.0640   71.3430  226.7780 C   0  0  0  0  0  0  0  0  0  0  0  0
  140.7260   71.7930  225.4970 C   0  0  0  0  0  0  0  0  0  0  0  0
  141.4340   73.4930  220.6740 N   0  0  0  0  0  0  0  0  0  0  0  0
  142.2400   72.6120  219.8910 C   0  0  0  0  0  0  0  0  0  0  0  0
  143.6860   72.8620  219.9250 C   0  0  0  0  0  0  0  0  0  0  0  0
  144.3040   72.9980  221.1840 C   0  0  0  0  0  0  0  0  0  0  0  0
  145.6420   73.2650  221.3140 C   0  0  0  0  0  0  0  0  0  0  0  0
  146.4670   73.4150  220.2170 C   0  0  0  0  0  0  0  0  0  0  0  0
  145.8850   73.2860  218.9790 C   0  0  0  0  0  0  0  0  0  0  0  0
  146.6850   73.4320  217.8540 O   0  0  0  0  0  0  0  0  0  0  0  0
  144.5230   73.0160  218.8570 C   0  0  0  0  0  0  0  0  0  0  0  0
  141.3478   77.3569  219.5621 H   0  0  0  0  0  0  0  0  0  0  0  0
  139.9657   79.0616  220.7766 H   0  0  0  0  0  0  0  0  0  0  0  0
  138.5883   76.0089  223.5020 H   0  0  0  0  0  0  0  0  0  0  0  0
  141.3555   71.1351  222.0048 H   0  0  0  0  0  0  0  0  0  0  0  0
  138.7190   71.2254  222.9265 H   0  0  0  0  0  0  0  0  0  0  0  0
  139.4715   68.9303  224.3019 H   0  0  0  0  0  0  0  0  0  0  0  0
  140.0695   68.1481  226.5440 H   0  0  0  0  0  0  0  0  0  0  0  0
  141.5226   72.0475  227.4875 H   0  0  0  0  0  0  0  0  0  0  0  0
  140.9232   72.8389  225.2192 H   0  0  0  0  0  0  0  0  0  0  0  0
  142.0670   71.5874  220.2520 H   0  0  0  0  0  0  0  0  0  0  0  0
  141.9345   72.7792  218.8476 H   0  0  0  0  0  0  0  0  0  0  0  0
  143.6929   72.8863  222.0918 H   0  0  0  0  0  0  0  0  0  0  0  0
  146.0713   73.3627  222.3220 H   0  0  0  0  0  0  0  0  0  0  0  0
  147.5404   73.6279  220.3290 H   0  0  0  0  0  0  0  0  0  0  0  0
  146.7470   74.3330  217.3880 H   0  0  0  0  0  0  0  0  0  0  0  0
  144.0996   72.9219  217.8461 H   0  0  0  0  0  0  0  0  0  0  0  0
  1  2  2  0
  2  3  1  0
  3  4  2  0
  4  5  1  0
  5  6  2  0
  6  7  1  0
  6  8  1  0
  8  9  2  0
  9 10  1  0
 10 11  2  0
 11 12  1  0
 12 13  2  0
 13 14  1  0
 14 15  2  0
 15 16  1  0
 16 17  2  0
 17 18  1  0
 17 19  1  0
 19 20  2  0
 11 21  1  0
 21 22  1  0
 22 23  1  0
 23 24  2  0
 24 25  1  0
 25 26  2  0
 26 27  1  0
 27 28  1  0
 27 29  2  0
 21  2  1  0
 29 23  1  0
  9  3  1  0
 20 14  1  0
  4 30  1  0
  5 31  1  0
  8 32  1  0
 12 33  1  0
 13 34  1  0
 15 35  1  0
 16 36  1  0
 19 37  1  0
 20 38  1  0
 22 39  1  0
 22 40  1  0
 24 41  1  0
 25 42  1  0
 26 43  1  0
 28 44  1  0
 29 45  1  0
M  END
>  <smiles>  (21) 
O=c1c2ccc(F)cc2nc(/C=C/c2ccc(F)cc2)n1Cc1cccc(O)c1

>  <score_type>  (21) 
oracle

>  <origin>  (21) 
autodockgpu

>  <m_score__min__energy>  (21) 
-8.3399999999999999

>  <m_primary>  (21) 
energy

>  <rmsd>  (21) 
7.6699448490889415

>  <m_score__min__rmsd>  (21) 
7.6699448490889415

>  <meeko>  (21) 
{"free_energy": -8.18, "intermolecular_energy": -9.97, "internal_energy": -1.0, "cluster_size": 20, "cluster_id": 1, "rank_in_cluster": 4}

>  <energy>  (21) 
-7.58

>  <cluster_rmsd>  (21) 
0.0

>  <cluster>  (21) 
2

$$$$

     RDKit          3D

 45 48  0  0  0  0  0  0  0  0999 V2000
  140.7310   74.2840  221.9730 O   0  0  0  0  0  0  0  0  0  0  0  0
  139.6860   74.9800  221.9360 C   0  0  0  0  0  0  0  0  0  0  0  0
  138.4850   74.3120  221.9730 C   0  0  0  0  0  0  0  0  0  0  0  0
  138.4640   72.9380  222.0510 C   0  0  0  0  0  0  0  0  0  0  0  0
  137.2360   72.3140  222.0880 C   0  0  0  0  0  0  0  0  0  0  0  0
  136.1010   73.0970  222.0450 C   0  0  0  0  0  0  0  0  0  0  0  0
  134.9050   72.4590  222.0820 F   0  0  0  0  0  0  0  0  0  0  0  0
  136.1270   74.4720  221.9670 C   0  0  0  0  0  0  0  0  0  0  0  0
  137.3580   75.0890  221.9320 C   0  0  0  0  0  0  0  0  0  0  0  0
  137.4380   76.3810  221.8610 N   0  0  0  0  0  0  0  0  0  0  0  0
  138.6180   77.0730  221.8210 C   0  0  0  0  0  0  0  0  0  0  0  0
  138.4790   78.4960  221.6970 C   0  0  0  0  0  0  0  0  0  0  0  0
  138.8360   79.4840  222.4580 C   0  0  0  0  0  0  0  0  0  0  0  0
  140.2280   79.7980  222.8210 C   0  0  0  0  0  0  0  0  0  0  0  0
  140.9620   80.6880  222.0410 C   0  0  0  0  0  0  0  0  0  0  0  0
  142.2660   81.0270  222.3220 C   0  0  0  0  0  0  0  0  0  0  0  0
  142.9080   80.4830  223.4090 C   0  0  0  0  0  0  0  0  0  0  0  0
  144.1920   80.8380  223.6550 F   0  0  0  0  0  0  0  0  0  0  0  0
  142.1990   79.6020  224.1890 C   0  0  0  0  0  0  0  0  0  0  0  0
  140.8730   79.2600  223.9020 C   0  0  0  0  0  0  0  0  0  0  0  0
  139.7500   76.3570  221.8600 N   0  0  0  0  0  0  0  0  0  0  0  0
  141.0740   76.8910  221.8510 C   0  0  0  0  0  0  0  0  0  0  0  0
  141.6840   77.0740  220.5280 C   0  0  0  0  0  0  0  0  0  0  0  0
  142.1910   75.9360  219.8720 C   0  0  0  0  0  0  0  0  0  0  0  0
  142.8070   76.0130  218.6490 C   0  0  0  0  0  0  0  0  0  0  0  0
  142.9670   77.2140  217.9860 C   0  0  0  0  0  0  0  0  0  0  0  0
  142.4790   78.3370  218.6090 C   0  0  0  0  0  0  0  0  0  0  0  0
  142.6230   79.5620  217.9710 O   0  0  0  0  0  0  0  0  0  0  0  0
  141.8550   78.2480  219.8520 C   0  0  0  0  0  0  0  0  0  0  0  0
  139.3974   72.3568  222.0828 H   0  0  0  0  0  0  0  0  0  0  0  0
  137.1625   71.2182  222.1503 H   0  0  0  0  0  0  0  0  0  0  0  0
  135.1963   75.0574  221.9338 H   0  0  0  0  0  0  0  0  0  0  0  0
  137.9691   78.8111  220.7746 H   0  0  0  0  0  0  0  0  0  0  0  0
  138.0436   80.1324  222.8601 H   0  0  0  0  0  0  0  0  0  0  0  0
  140.4786   81.1397  221.1622 H   0  0  0  0  0  0  0  0  0  0  0  0
  142.7979   81.7379  221.6726 H   0  0  0  0  0  0  0  0  0  0  0  0
  142.6884   79.1520  225.0654 H   0  0  0  0  0  0  0  0  0  0  0  0
  140.3421   78.5499  224.5531 H   0  0  0  0  0  0  0  0  0  0  0  0
  141.0447   77.8724  222.3470 H   0  0  0  0  0  0  0  0  0  0  0  0
  141.6984   76.1458  222.3655 H   0  0  0  0  0  0  0  0  0  0  0  0
  142.0898   74.9534  220.3560 H   0  0  0  0  0  0  0  0  0  0  0  0
  143.1847   75.0912  218.1825 H   0  0  0  0  0  0  0  0  0  0  0  0
  143.4619   77.2688  217.0051 H   0  0  0  0  0  0  0  0  0  0  0  0
  143.3870   79.7080  217.3180 H   0  0  0  0  0  0  0  0  0  0  0  0
  141.4800   79.1735  220.3134 H   0  0  0  0  0  0  0  0  0  0  0  0
  1  2  2  0
  2  3  1  0
  3  4  2  0
  4  5  1  0
  5  6  2  0
  6  7  1  0
  6  8  1  0
  8  9  2  0
  9 10  1  0
 10 11  2  0
 11 12  1  0
 12 13  2  0
 13 14  1  0
 14 15  2  0
 15 16  1  0
 16 17  2  0
 17 18  1  0
 17 19  1  0
 19 20  2  0
 11 21  1  0
 21 22  1  0
 22 23  1  0
 23 24  2  0
 24 25  1  0
 25 26  2  0
 26 27  1  0
 27 28  1  0
 27 29  2  0
 21  2  1  0
 29 23  1  0
  9  3  1  0
 20 14  1  0
  4 30  1  0
  5 31  1  0
  8 32  1  0
 12 33  1  0
 13 34  1  0
 15 35  1  0
 16 36  1  0
 19 37  1  0
 20 38  1  0
 22 39  1  0
 22 40  1  0
 24 41  1  0
 25 42  1  0
 26 43  1  0
 28 44  1  0
 29 45  1  0
M  END
>  <smiles>  (22) 
O=c1c2ccc(F)cc2nc(/C=C/c2ccc(F)cc2)n1Cc1cccc(O)c1

>  <score_type>  (22) 
oracle

>  <origin>  (22) 
autodockgpu

>  <m_score__min__energy>  (22) 
-8.3399999999999999

>  <m_primary>  (22) 
energy

>  <rmsd>  (22) 
5.532446763971566

>  <m_score__min__rmsd>  (22) 
5.532446763971566

>  <meeko>  (22) 
{"free_energy": -6.69, "intermolecular_energy": -8.48, "internal_energy": -1.5, "cluster_size": 2, "cluster_id": 7, "rank_in_cluster": 1}

>  <energy>  (22) 
-7.56

>  <cluster_rmsd>  (22) 
0.23

>  <cluster>  (22) 
2

$$$$

     RDKit          3D

 45 48  0  0  0  0  0  0  0  0999 V2000
  141.0420   74.4390  221.9600 O   0  0  0  0  0  0  0  0  0  0  0  0
  141.7210   74.9730  221.0480 C   0  0  0  0  0  0  0  0  0  0  0  0
  142.6790   74.1950  220.4410 C   0  0  0  0  0  0  0  0  0  0  0  0
  142.8580   72.8890  220.8380 C   0  0  0  0  0  0  0  0  0  0  0  0
  143.8280   72.1500  220.1980 C   0  0  0  0  0  0  0  0  0  0  0  0
  144.5630   72.7550  219.2010 C   0  0  0  0  0  0  0  0  0  0  0  0
  145.5130   72.0060  218.5870 F   0  0  0  0  0  0  0  0  0  0  0  0
  144.3810   74.0620  218.8070 C   0  0  0  0  0  0  0  0  0  0  0  0
  143.4080   74.7960  219.4500 C   0  0  0  0  0  0  0  0  0  0  0  0
  143.1950   76.0310  219.1160 N   0  0  0  0  0  0  0  0  0  0  0  0
  142.2510   76.8280  219.7030 C   0  0  0  0  0  0  0  0  0  0  0  0
  142.2120   78.1770  219.2130 C   0  0  0  0  0  0  0  0  0  0  0  0
  141.2390   78.9490  218.8380 C   0  0  0  0  0  0  0  0  0  0  0  0
  140.8210   80.1700  219.5470 C   0  0  0  0  0  0  0  0  0  0  0  0
  141.7720   81.1240  219.8990 C   0  0  0  0  0  0  0  0  0  0  0  0
  141.4520   82.2870  220.5620 C   0  0  0  0  0  0  0  0  0  0  0  0
  140.1490   82.5550  220.9100 C   0  0  0  0  0  0  0  0  0  0  0  0
  139.8700   83.7090  221.5610 F   0  0  0  0  0  0  0  0  0  0  0  0
  139.1970   81.6230  220.5700 C   0  0  0  0  0  0  0  0  0  0  0  0
  139.5260   80.4420  219.8960 C   0  0  0  0  0  0  0  0  0  0  0  0
  141.5100   76.2860  220.6780 N   0  0  0  0  0  0  0  0  0  0  0  0
  140.4650   76.9440  221.3940 C   0  0  0  0  0  0  0  0  0  0  0  0
  140.8660   78.1100  222.1910 C   0  0  0  0  0  0  0  0  0  0  0  0
  139.8720   78.7750  222.9360 C   0  0  0  0  0  0  0  0  0  0  0  0
  140.1460   79.8910  223.6840 C   0  0  0  0  0  0  0  0  0  0  0  0
  141.4150   80.4310  223.7520 C   0  0  0  0  0  0  0  0  0  0  0  0
  142.3990   79.7980  223.0330 C   0  0  0  0  0  0  0  0  0  0  0  0
  143.6880   80.3150  223.0790 O   0  0  0  0  0  0  0  0  0  0  0  0
  142.1110   78.6640  222.2750 C   0  0  0  0  0  0  0  0  0  0  0  0
  142.2463   72.4502  221.6401 H   0  0  0  0  0  0  0  0  0  0  0  0
  144.0119   71.1017  220.4758 H   0  0  0  0  0  0  0  0  0  0  0  0
  144.9915   74.5049  218.0063 H   0  0  0  0  0  0  0  0  0  0  0  0
  143.2028   78.6493  219.1414 H   0  0  0  0  0  0  0  0  0  0  0  0
  140.6880   78.6721  217.9271 H   0  0  0  0  0  0  0  0  0  0  0  0
  142.8242   80.9404  219.6360 H   0  0  0  0  0  0  0  0  0  0  0  0
  142.2441   83.0070  220.8152 H   0  0  0  0  0  0  0  0  0  0  0  0
  138.1463   81.8114  220.8356 H   0  0  0  0  0  0  0  0  0  0  0  0
  138.7332   79.7225  219.6432 H   0  0  0  0  0  0  0  0  0  0  0  0
  139.7146   77.2783  220.6625 H   0  0  0  0  0  0  0  0  0  0  0  0
  140.0903   76.2050  222.1175 H   0  0  0  0  0  0  0  0  0  0  0  0
  138.8431   78.3864  222.9169 H   0  0  0  0  0  0  0  0  0  0  0  0
  139.3310   80.3701  224.2464 H   0  0  0  0  0  0  0  0  0  0  0  0
  141.6279   81.3266  224.3541 H   0  0  0  0  0  0  0  0  0  0  0  0
  144.3530   80.0850  222.3470 H   0  0  0  0  0  0  0  0  0  0  0  0
  142.9305   78.1903  221.7147 H   0  0  0  0  0  0  0  0  0  0  0  0
  1  2  2  0
  2  3  1  0
  3  4  2  0
  4  5  1  0
  5  6  2  0
  6  7  1  0
  6  8  1  0
  8  9  2  0
  9 10  1  0
 10 11  2  0
 11 12  1  0
 12 13  2  0
 13 14  1  0
 14 15  2  0
 15 16  1  0
 16 17  2  0
 17 18  1  0
 17 19  1  0
 19 20  2  0
 11 21  1  0
 21 22  1  0
 22 23  1  0
 23 24  2  0
 24 25  1  0
 25 26  2  0
 26 27  1  0
 27 28  1  0
 27 29  2  0
 21  2  1  0
 29 23  1  0
  9  3  1  0
 20 14  1  0
  4 30  1  0
  5 31  1  0
  8 32  1  0
 12 33  1  0
 13 34  1  0
 15 35  1  0
 16 36  1  0
 19 37  1  0
 20 38  1  0
 22 39  1  0
 22 40  1  0
 24 41  1  0
 25 42  1  0
 26 43  1  0
 28 44  1  0
 29 45  1  0
M  END
>  <smiles>  (23) 
O=c1c2ccc(F)cc2nc(/C=C/c2ccc(F)cc2)n1Cc1cccc(O)c1

>  <score_type>  (23) 
oracle

>  <origin>  (23) 
autodockgpu

>  <m_score__min__energy>  (23) 
-8.3399999999999999

>  <m_primary>  (23) 
energy

>  <rmsd>  (23) 
4.312031633809458

>  <m_score__min__rmsd>  (23) 
4.312031633809458

>  <meeko>  (23) 
{"free_energy": -6.59, "intermolecular_energy": -8.38, "internal_energy": -1.71, "cluster_size": 17, "cluster_id": 8, "rank_in_cluster": 3}

>  <energy>  (23) 
-7.55

>  <cluster_rmsd>  (23) 
0.06

>  <cluster>  (23) 
2

$$$$

     RDKit          3D

 45 48  0  0  0  0  0  0  0  0999 V2000
  135.4650   73.0540  222.3280 O   0  0  0  0  0  0  0  0  0  0  0  0
  136.5780   72.5170  222.5520 C   0  0  0  0  0  0  0  0  0  0  0  0
  137.7010   73.2240  222.1920 C   0  0  0  0  0  0  0  0  0  0  0  0
  137.5750   74.4670  221.6130 C   0  0  0  0  0  0  0  0  0  0  0  0
  138.7290   75.1370  221.2710 C   0  0  0  0  0  0  0  0  0  0  0  0
  139.9410   74.5290  221.5260 C   0  0  0  0  0  0  0  0  0  0  0  0
  141.0620   75.2090  221.1790 F   0  0  0  0  0  0  0  0  0  0  0  0
  140.0620   73.2850  222.1050 C   0  0  0  0  0  0  0  0  0  0  0  0
  138.9040   72.6200  222.4450 C   0  0  0  0  0  0  0  0  0  0  0  0
  138.9630   71.4480  222.9940 N   0  0  0  0  0  0  0  0  0  0  0  0
  137.8630   70.7210  223.3630 C   0  0  0  0  0  0  0  0  0  0  0  0
  138.1520   69.4270  223.9130 C   0  0  0  0  0  0  0  0  0  0  0  0
  138.3360   69.0080  225.1270 C   0  0  0  0  0  0  0  0  0  0  0  0
  139.2190   69.6590  226.1090 C   0  0  0  0  0  0  0  0  0  0  0  0
  139.9480   70.7870  225.7430 C   0  0  0  0  0  0  0  0  0  0  0  0
  140.7900   71.4450  226.6100 C   0  0  0  0  0  0  0  0  0  0  0  0
  140.9480   71.0000  227.9010 C   0  0  0  0  0  0  0  0  0  0  0  0
  141.7850   71.6710  228.7270 F   0  0  0  0  0  0  0  0  0  0  0  0
  140.2360   69.8870  228.2790 C   0  0  0  0  0  0  0  0  0  0  0  0
  139.3790   69.2200  227.3960 C   0  0  0  0  0  0  0  0  0  0  0  0
  136.6620   71.2680  223.1360 N   0  0  0  0  0  0  0  0  0  0  0  0
  135.4030   70.6820  223.4670 C   0  0  0  0  0  0  0  0  0  0  0  0
  134.9120   70.9400  224.8260 C   0  0  0  0  0  0  0  0  0  0  0  0
  134.9400   69.8770  225.7520 C   0  0  0  0  0  0  0  0  0  0  0  0
  134.4730   70.0140  227.0330 C   0  0  0  0  0  0  0  0  0  0  0  0
  133.9460   71.2040  227.4950 C   0  0  0  0  0  0  0  0  0  0  0  0
  133.9100   72.2530  226.6100 C   0  0  0  0  0  0  0  0  0  0  0  0
  133.3860   73.4650  227.0410 O   0  0  0  0  0  0  0  0  0  0  0  0
  134.3860   72.1040  225.3080 C   0  0  0  0  0  0  0  0  0  0  0  0
  136.5852   74.9104  221.4296 H   0  0  0  0  0  0  0  0  0  0  0  0
  138.6853   76.1328  220.8058 H   0  0  0  0  0  0  0  0  0  0  0  0
  141.0497   72.8375  222.2897 H   0  0  0  0  0  0  0  0  0  0  0  0
  138.2336   68.6337  223.1553 H   0  0  0  0  0  0  0  0  0  0  0  0
  137.7951   68.1043  225.4445 H   0  0  0  0  0  0  0  0  0  0  0  0
  139.8466   71.1689  224.7164 H   0  0  0  0  0  0  0  0  0  0  0  0
  141.3406   72.3335  226.2675 H   0  0  0  0  0  0  0  0  0  0  0  0
  140.3428   69.5089  229.3065 H   0  0  0  0  0  0  0  0  0  0  0  0
  138.8275   68.3326  227.7401 H   0  0  0  0  0  0  0  0  0  0  0  0
  134.6549   71.0691  222.7595 H   0  0  0  0  0  0  0  0  0  0  0  0
  135.5568   69.5944  223.4081 H   0  0  0  0  0  0  0  0  0  0  0  0
  135.3499   68.9064  225.4359 H   0  0  0  0  0  0  0  0  0  0  0  0
  134.5193   69.1508  227.7133 H   0  0  0  0  0  0  0  0  0  0  0  0
  133.5723   71.3066  228.5245 H   0  0  0  0  0  0  0  0  0  0  0  0
  132.9530   73.5340  227.9580 H   0  0  0  0  0  0  0  0  0  0  0  0
  134.3350   72.9709  224.6328 H   0  0  0  0  0  0  0  0  0  0  0  0
  1  2  2  0
  2  3  1  0
  3  4  2  0
  4  5  1  0
  5  6  2  0
  6  7  1  0
  6  8  1  0
  8  9  2  0
  9 10  1  0
 10 11  2  0
 11 12  1  0
 12 13  2  0
 13 14  1  0
 14 15  2  0
 15 16  1  0
 16 17  2  0
 17 18  1  0
 17 19  1  0
 19 20  2  0
 11 21  1  0
 21 22  1  0
 22 23  1  0
 23 24  2  0
 24 25  1  0
 25 26  2  0
 26 27  1  0
 27 28  1  0
 27 29  2  0
 21  2  1  0
 29 23  1  0
  9  3  1  0
 20 14  1  0
  4 30  1  0
  5 31  1  0
  8 32  1  0
 12 33  1  0
 13 34  1  0
 15 35  1  0
 16 36  1  0
 19 37  1  0
 20 38  1  0
 22 39  1  0
 22 40  1  0
 24 41  1  0
 25 42  1  0
 26 43  1  0
 28 44  1  0
 29 45  1  0
M  END
>  <smiles>  (24) 
O=c1c2ccc(F)cc2nc(/C=C/c2ccc(F)cc2)n1Cc1cccc(O)c1

>  <score_type>  (24) 
oracle

>  <origin>  (24) 
autodockgpu

>  <m_score__min__energy>  (24) 
-8.3399999999999999

>  <m_primary>  (24) 
energy

>  <rmsd>  (24) 
9.943482380722449

>  <m_score__min__rmsd>  (24) 
9.943482380722449

>  <meeko>  (24) 
{"free_energy": -6.88, "intermolecular_energy": -8.67, "internal_energy": -1.39, "cluster_size": 3, "cluster_id": 5, "rank_in_cluster": 3}

>  <energy>  (24) 
-7.51

>  <cluster_rmsd>  (24) 
0.31

>  <cluster>  (24) 
2

$$$$

     RDKit          3D

 45 48  0  0  0  0  0  0  0  0999 V2000
  135.8740   73.0040  222.1510 O   0  0  0  0  0  0  0  0  0  0  0  0
  136.9470   72.4200  222.4430 C   0  0  0  0  0  0  0  0  0  0  0  0
  138.1190   73.0570  222.1090 C   0  0  0  0  0  0  0  0  0  0  0  0
  138.0820   74.2830  221.4840 C   0  0  0  0  0  0  0  0  0  0  0  0
  139.2820   74.8820  221.1710 C   0  0  0  0  0  0  0  0  0  0  0  0
  140.4490   74.2240  221.4990 C   0  0  0  0  0  0  0  0  0  0  0  0
  141.6170   74.8350  221.1800 F   0  0  0  0  0  0  0  0  0  0  0  0
  140.4810   72.9970  222.1240 C   0  0  0  0  0  0  0  0  0  0  0  0
  139.2780   72.4040  222.4350 C   0  0  0  0  0  0  0  0  0  0  0  0
  139.2530   71.2500  223.0250 N   0  0  0  0  0  0  0  0  0  0  0  0
  138.1030   70.5920  223.3680 C   0  0  0  0  0  0  0  0  0  0  0  0
  138.3020   69.3060  223.9740 C   0  0  0  0  0  0  0  0  0  0  0  0
  138.6510   68.9400  225.1680 C   0  0  0  0  0  0  0  0  0  0  0  0
  139.4990   69.7370  226.0710 C   0  0  0  0  0  0  0  0  0  0  0  0
  139.5150   69.4530  227.4340 C   0  0  0  0  0  0  0  0  0  0  0  0
  140.2830   70.1570  228.3330 C   0  0  0  0  0  0  0  0  0  0  0  0
  141.0820   71.1920  227.9080 C   0  0  0  0  0  0  0  0  0  0  0  0
  141.8240   71.8630  228.8210 F   0  0  0  0  0  0  0  0  0  0  0  0
  141.0770   71.4860  226.5660 C   0  0  0  0  0  0  0  0  0  0  0  0
  140.2960   70.7690  225.6530 C   0  0  0  0  0  0  0  0  0  0  0  0
  136.9420   71.1900  223.0710 N   0  0  0  0  0  0  0  0  0  0  0  0
  135.6420   70.6790  223.3660 C   0  0  0  0  0  0  0  0  0  0  0  0
  135.0690   71.0860  224.6550 C   0  0  0  0  0  0  0  0  0  0  0  0
  134.8970   70.0970  225.6430 C   0  0  0  0  0  0  0  0  0  0  0  0
  134.3410   70.3750  226.8650 C   0  0  0  0  0  0  0  0  0  0  0  0
  133.9150   71.6450  227.2010 C   0  0  0  0  0  0  0  0  0  0  0  0
  134.0730   72.6250  226.2510 C   0  0  0  0  0  0  0  0  0  0  0  0
  133.6550   73.9140  226.5560 O   0  0  0  0  0  0  0  0  0  0  0  0
  134.6390   72.3320  225.0120 C   0  0  0  0  0  0  0  0  0  0  0  0
  137.1250   74.7685  221.2424 H   0  0  0  0  0  0  0  0  0  0  0  0
  139.3091   75.8617  220.6715 H   0  0  0  0  0  0  0  0  0  0  0  0
  141.4357   72.5073  222.3665 H   0  0  0  0  0  0  0  0  0  0  0  0
  138.1229   68.4637  223.2895 H   0  0  0  0  0  0  0  0  0  0  0  0
  138.2888   67.9671  225.5317 H   0  0  0  0  0  0  0  0  0  0  0  0
  138.8870   68.6310  227.8081 H   0  0  0  0  0  0  0  0  0  0  0  0
  140.2575   69.8896  229.3997 H   0  0  0  0  0  0  0  0  0  0  0  0
  141.7060   72.3100  226.1982 H   0  0  0  0  0  0  0  0  0  0  0  0
  140.3226   71.0376  224.5866 H   0  0  0  0  0  0  0  0  0  0  0  0
  134.9593   71.0167  222.5723 H   0  0  0  0  0  0  0  0  0  0  0  0
  135.7583   69.5867  223.4242 H   0  0  0  0  0  0  0  0  0  0  0  0
  135.2194   69.0677  225.4271 H   0  0  0  0  0  0  0  0  0  0  0  0
  134.2311   69.5631  227.5990 H   0  0  0  0  0  0  0  0  0  0  0  0
  133.4700   71.8618  228.1833 H   0  0  0  0  0  0  0  0  0  0  0  0
  132.8140   74.2890  226.1280 H   0  0  0  0  0  0  0  0  0  0  0  0
  134.7452   73.1482  224.2822 H   0  0  0  0  0  0  0  0  0  0  0  0
  1  2  2  0
  2  3  1  0
  3  4  2  0
  4  5  1  0
  5  6  2  0
  6  7  1  0
  6  8  1  0
  8  9  2  0
  9 10  1  0
 10 11  2  0
 11 12  1  0
 12 13  2  0
 13 14  1  0
 14 15  2  0
 15 16  1  0
 16 17  2  0
 17 18  1  0
 17 19  1  0
 19 20  2  0
 11 21  1  0
 21 22  1  0
 22 23  1  0
 23 24  2  0
 24 25  1  0
 25 26  2  0
 26 27  1  0
 27 28  1  0
 27 29  2  0
 21  2  1  0
 29 23  1  0
  9  3  1  0
 20 14  1  0
  4 30  1  0
  5 31  1  0
  8 32  1  0
 12 33  1  0
 13 34  1  0
 15 35  1  0
 16 36  1  0
 19 37  1  0
 20 38  1  0
 22 39  1  0
 22 40  1  0
 24 41  1  0
 25 42  1  0
 26 43  1  0
 28 44  1  0
 29 45  1  0
M  END
>  <smiles>  (25) 
O=c1c2ccc(F)cc2nc(/C=C/c2ccc(F)cc2)n1Cc1cccc(O)c1

>  <score_type>  (25) 
oracle

>  <origin>  (25) 
autodockgpu

>  <m_score__min__energy>  (25) 
-8.3399999999999999

>  <m_primary>  (25) 
energy

>  <rmsd>  (25) 
9.66781396833268

>  <m_score__min__rmsd>  (25) 
9.66781396833268

>  <meeko>  (25) 
{"free_energy": -6.91, "intermolecular_energy": -8.7, "internal_energy": -1.31, "cluster_size": 3, "cluster_id": 5, "rank_in_cluster": 1}

>  <energy>  (25) 
-7.3

>  <cluster_rmsd>  (25) 
0.0

>  <cluster>  (25) 
3

$$$$

     RDKit          3D

 45 48  0  0  0  0  0  0  0  0999 V2000
  141.1520   74.6880  221.9020 O   0  0  0  0  0  0  0  0  0  0  0  0
  141.8060   75.1220  220.9220 C   0  0  0  0  0  0  0  0  0  0  0  0
  142.7780   74.3010  220.4020 C   0  0  0  0  0  0  0  0  0  0  0  0
  142.9980   73.0590  220.9540 C   0  0  0  0  0  0  0  0  0  0  0  0
  143.9810   72.2720  220.3970 C   0  0  0  0  0  0  0  0  0  0  0  0
  144.6890   72.7680  219.3220 C   0  0  0  0  0  0  0  0  0  0  0  0
  145.6520   71.9740  218.7920 F   0  0  0  0  0  0  0  0  0  0  0  0
  144.4660   74.0110  218.7730 C   0  0  0  0  0  0  0  0  0  0  0  0
  143.4800   74.7930  219.3340 C   0  0  0  0  0  0  0  0  0  0  0  0
  143.2300   75.9710  218.8530 N   0  0  0  0  0  0  0  0  0  0  0  0
  142.2700   76.8100  219.3510 C   0  0  0  0  0  0  0  0  0  0  0  0
  142.1890   78.0860  218.6980 C   0  0  0  0  0  0  0  0  0  0  0  0
  141.1950   78.8790  218.4380 C   0  0  0  0  0  0  0  0  0  0  0  0
  140.8080   80.0320  219.2670 C   0  0  0  0  0  0  0  0  0  0  0  0
  141.7680   80.9690  219.6410 C   0  0  0  0  0  0  0  0  0  0  0  0
  141.4760   82.0700  220.4130 C   0  0  0  0  0  0  0  0  0  0  0  0
  140.1930   82.2900  220.8560 C   0  0  0  0  0  0  0  0  0  0  0  0
  139.9410   83.3830  221.6150 F   0  0  0  0  0  0  0  0  0  0  0  0
  139.2320   81.3750  220.4970 C   0  0  0  0  0  0  0  0  0  0  0  0
  139.5320   80.2570  219.7100 C   0  0  0  0  0  0  0  0  0  0  0  0
  141.5550   76.3740  220.3960 N   0  0  0  0  0  0  0  0  0  0  0  0
  140.5000   77.0880  221.0390 C   0  0  0  0  0  0  0  0  0  0  0  0
  140.9130   78.1460  221.9700 C   0  0  0  0  0  0  0  0  0  0  0  0
  139.9490   78.6550  222.8620 C   0  0  0  0  0  0  0  0  0  0  0  0
  140.2330   79.6650  223.7440 C   0  0  0  0  0  0  0  0  0  0  0  0
  141.4850   80.2440  223.8130 C   0  0  0  0  0  0  0  0  0  0  0  0
  142.4410   79.7610  222.9520 C   0  0  0  0  0  0  0  0  0  0  0  0
  143.7110   80.3220  222.9940 O   0  0  0  0  0  0  0  0  0  0  0  0
  142.1420   78.7350  222.0580 C   0  0  0  0  0  0  0  0  0  0  0  0
  142.4074   72.7067  221.8125 H   0  0  0  0  0  0  0  0  0  0  0  0
  144.1967   71.2714  220.7998 H   0  0  0  0  0  0  0  0  0  0  0  0
  145.0553   74.3677  217.9153 H   0  0  0  0  0  0  0  0  0  0  0  0
  143.1605   78.4664  218.3495 H   0  0  0  0  0  0  0  0  0  0  0  0
  140.6004   78.6752  217.5353 H   0  0  0  0  0  0  0  0  0  0  0  0
  142.8050   80.8226  219.3046 H   0  0  0  0  0  0  0  0  0  0  0  0
  142.2744   82.7790  220.6775 H   0  0  0  0  0  0  0  0  0  0  0  0
  138.1971   81.5258  220.8381 H   0  0  0  0  0  0  0  0  0  0  0  0
  138.7324   79.5500  219.4440 H   0  0  0  0  0  0  0  0  0  0  0  0
  139.8811   77.5511  220.2564 H   0  0  0  0  0  0  0  0  0  0  0  0
  139.9689   76.3445  221.6515 H   0  0  0  0  0  0  0  0  0  0  0  0
  138.9353   78.2281  222.8504 H   0  0  0  0  0  0  0  0  0  0  0  0
  139.4405   80.0250  224.4166 H   0  0  0  0  0  0  0  0  0  0  0  0
  141.7065   81.0538  224.5238 H   0  0  0  0  0  0  0  0  0  0  0  0
  144.4240   80.0120  222.3400 H   0  0  0  0  0  0  0  0  0  0  0  0
  142.9384   78.3804  221.3872 H   0  0  0  0  0  0  0  0  0  0  0  0
  1  2  2  0
  2  3  1  0
  3  4  2  0
  4  5  1  0
  5  6  2  0
  6  7  1  0
  6  8  1  0
  8  9  2  0
  9 10  1  0
 10 11  2  0
 11 12  1  0
 12 13  2  0
 13 14  1  0
 14 15  2  0
 15 16  1  0
 16 17  2  0
 17 18  1  0
 17 19  1  0
 19 20  2  0
 11 21  1  0
 21 22  1  0
 22 23  1  0
 23 24  2  0
 24 25  1  0
 25 26  2  0
 26 27  1  0
 27 28  1  0
 27 29  2  0
 21  2  1  0
 29 23  1  0
  9  3  1  0
 20 14  1  0
  4 30  1  0
  5 31  1  0
  8 32  1  0
 12 33  1  0
 13 34  1  0
 15 35  1  0
 16 36  1  0
 19 37  1  0
 20 38  1  0
 22 39  1  0
 22 40  1  0
 24 41  1  0
 25 42  1  0
 26 43  1  0
 28 44  1  0
 29 45  1  0
M  END
>  <smiles>  (26) 
O=c1c2ccc(F)cc2nc(/C=C/c2ccc(F)cc2)n1Cc1cccc(O)c1

>  <score_type>  (26) 
oracle

>  <origin>  (26) 
autodockgpu

>  <m_score__min__energy>  (26) 
-8.3399999999999999

>  <m_primary>  (26) 
energy

>  <rmsd>  (26) 
4.353660611701137

>  <m_score__min__rmsd>  (26) 
4.353660611701137

>  <meeko>  (26) 
{"free_energy": -6.39, "intermolecular_energy": -8.18, "internal_energy": -1.84, "cluster_size": 17, "cluster_id": 8, "rank_in_cluster": 16}

>  <energy>  (26) 
-6.92

>  <cluster_rmsd>  (26) 
0.0

>  <cluster>  (26) 
4

$$$$

     RDKit          3D

 45 48  0  0  0  0  0  0  0  0999 V2000
  142.2460   75.0960  218.9180 O   0  0  0  0  0  0  0  0  0  0  0  0
  141.6240   74.9920  220.0040 C   0  0  0  0  0  0  0  0  0  0  0  0
  141.4710   76.1360  220.7520 C   0  0  0  0  0  0  0  0  0  0  0  0
  141.9890   77.3290  220.2980 C   0  0  0  0  0  0  0  0  0  0  0  0
  141.8090   78.4470  221.0810 C   0  0  0  0  0  0  0  0  0  0  0  0
  141.1240   78.3120  222.2710 C   0  0  0  0  0  0  0  0  0  0  0  0
  140.9600   79.4280  223.0240 F   0  0  0  0  0  0  0  0  0  0  0  0
  140.6070   77.1170  222.7200 C   0  0  0  0  0  0  0  0  0  0  0  0
  140.7900   76.0020  221.9320 C   0  0  0  0  0  0  0  0  0  0  0  0
  140.3220   74.8530  222.3080 N   0  0  0  0  0  0  0  0  0  0  0  0
  140.4600   73.6990  221.5860 C   0  0  0  0  0  0  0  0  0  0  0  0
  139.9050   72.5300  222.2080 C   0  0  0  0  0  0  0  0  0  0  0  0
  140.4440   71.4660  222.7200 C   0  0  0  0  0  0  0  0  0  0  0  0
  140.3480   71.0810  224.1370 C   0  0  0  0  0  0  0  0  0  0  0  0
  139.8140   69.8420  224.4830 C   0  0  0  0  0  0  0  0  0  0  0  0
  139.6950   69.4180  225.7860 C   0  0  0  0  0  0  0  0  0  0  0  0
  140.1080   70.2230  226.8220 C   0  0  0  0  0  0  0  0  0  0  0  0
  139.9760   69.7740  228.0920 F   0  0  0  0  0  0  0  0  0  0  0  0
  140.6370   71.4500  226.4990 C   0  0  0  0  0  0  0  0  0  0  0  0
  140.7570   71.8780  225.1720 C   0  0  0  0  0  0  0  0  0  0  0  0
  141.1180   73.7780  220.4230 N   0  0  0  0  0  0  0  0  0  0  0  0
  141.3460   72.6960  219.5190 C   0  0  0  0  0  0  0  0  0  0  0  0
  142.7200   72.1810  219.4660 C   0  0  0  0  0  0  0  0  0  0  0  0
  142.9240   70.8150  219.7420 C   0  0  0  0  0  0  0  0  0  0  0  0
  144.1740   70.2510  219.7480 C   0  0  0  0  0  0  0  0  0  0  0  0
  145.3090   70.9900  219.4820 C   0  0  0  0  0  0  0  0  0  0  0  0
  145.1330   72.3250  219.2090 C   0  0  0  0  0  0  0  0  0  0  0  0
  146.2540   73.0980  218.9370 O   0  0  0  0  0  0  0  0  0  0  0  0
  143.8580   72.8890  219.2070 C   0  0  0  0  0  0  0  0  0  0  0  0
  142.5287   77.3865  219.3413 H   0  0  0  0  0  0  0  0  0  0  0  0
  142.2020   79.4247  220.7653 H   0  0  0  0  0  0  0  0  0  0  0  0
  140.0661   77.0550  223.6758 H   0  0  0  0  0  0  0  0  0  0  0  0
  138.8063   72.5376  222.2611 H   0  0  0  0  0  0  0  0  0  0  0  0
  141.0121   70.8061  222.0478 H   0  0  0  0  0  0  0  0  0  0  0  0
  139.4725   69.1734  223.6790 H   0  0  0  0  0  0  0  0  0  0  0  0
  139.2665   68.4280  226.0011 H   0  0  0  0  0  0  0  0  0  0  0  0
  140.9759   72.1148  227.3072 H   0  0  0  0  0  0  0  0  0  0  0  0
  141.1857   72.8681  224.9578 H   0  0  0  0  0  0  0  0  0  0  0  0
  140.6866   71.8663  219.8138 H   0  0  0  0  0  0  0  0  0  0  0  0
  141.1411   73.0989  218.5161 H   0  0  0  0  0  0  0  0  0  0  0  0
  142.0525   70.1801  219.9598 H   0  0  0  0  0  0  0  0  0  0  0  0
  144.2750   69.1786  219.9713 H   0  0  0  0  0  0  0  0  0  0  0  0
  146.3087   70.5311  219.4883 H   0  0  0  0  0  0  0  0  0  0  0  0
  146.1560   74.0970  218.7820 H   0  0  0  0  0  0  0  0  0  0  0  0
  143.7640   73.9622  218.9848 H   0  0  0  0  0  0  0  0  0  0  0  0
  1  2  2  0
  2  3  1  0
  3  4  2  0
  4  5  1  0
  5  6  2  0
  6  7  1  0
  6  8  1  0
  8  9  2  0
  9 10  1  0
 10 11  2  0
 11 12  1  0
 12 13  2  0
 13 14  1  0
 14 15  2  0
 15 16  1  0
 16 17  2  0
 17 18  1  0
 17 19  1  0
 19 20  2  0
 11 21  1  0
 21 22  1  0
 22 23  1  0
 23 24  2  0
 24 25  1  0
 25 26  2  0
 26 27  1  0
 27 28  1  0
 27 29  2  0
 21  2  1  0
 29 23  1  0
  9  3  1  0
 20 14  1  0
  4 30  1  0
  5 31  1  0
  8 32  1  0
 12 33  1  0
 13 34  1  0
 15 35  1  0
 16 36  1  0
 19 37  1  0
 20 38  1  0
 22 39  1  0
 22 40  1  0
 24 41  1  0
 25 42  1  0
 26 43  1  0
 28 44  1  0
 29 45  1  0
M  END
>  <smiles>  (27) 
O=c1c2ccc(F)cc2nc(/C=C/c2ccc(F)cc2)n1Cc1cccc(O)c1

>  <score_type>  (27) 
oracle

>  <origin>  (27) 
autodockgpu

>  <m_score__min__energy>  (27) 
-8.3399999999999999

>  <m_primary>  (27) 
energy

>  <rmsd>  (27) 
8.344784518011155

>  <m_score__min__rmsd>  (27) 
8.344784518011155

>  <meeko>  (27) 
{"free_energy": -7.73, "intermolecular_energy": -9.52, "internal_energy": -0.9, "cluster_size": 20, "cluster_id": 1, "rank_in_cluster": 9}

>  <energy>  (27) 
-6.91

>  <cluster_rmsd>  (27) 
0.0

>  <cluster>  (27) 
5

$$$$

     RDKit          3D

 45 48  0  0  0  0  0  0  0  0999 V2000
  142.7860   76.9930  219.6330 O   0  0  0  0  0  0  0  0  0  0  0  0
  141.8400   76.7060  220.4070 C   0  0  0  0  0  0  0  0  0  0  0  0
  141.4610   77.6640  221.3180 C   0  0  0  0  0  0  0  0  0  0  0  0
  142.1110   78.8780  221.3510 C   0  0  0  0  0  0  0  0  0  0  0  0
  141.6950   79.8050  222.2800 C   0  0  0  0  0  0  0  0  0  0  0  0
  140.6540   79.4700  223.1210 C   0  0  0  0  0  0  0  0  0  0  0  0
  140.2630   80.4010  224.0270 F   0  0  0  0  0  0  0  0  0  0  0  0
  140.0070   78.2550  223.0840 C   0  0  0  0  0  0  0  0  0  0  0  0
  140.4280   77.3320  222.1520 C   0  0  0  0  0  0  0  0  0  0  0  0
  139.8510   76.1740  222.0760 N   0  0  0  0  0  0  0  0  0  0  0  0
  140.2060   75.2010  221.1810 C   0  0  0  0  0  0  0  0  0  0  0  0
  139.4660   73.9760  221.2960 C   0  0  0  0  0  0  0  0  0  0  0  0
  139.8290   72.7420  221.4610 C   0  0  0  0  0  0  0  0  0  0  0  0
  139.7020   71.9950  222.7230 C   0  0  0  0  0  0  0  0  0  0  0  0
  138.5020   71.3600  223.0330 C   0  0  0  0  0  0  0  0  0  0  0  0
  138.3130   70.6460  224.1940 C   0  0  0  0  0  0  0  0  0  0  0  0
  139.3280   70.5310  225.1140 C   0  0  0  0  0  0  0  0  0  0  0  0
  139.1080   69.8210  226.2460 F   0  0  0  0  0  0  0  0  0  0  0  0
  140.5200   71.1520  224.8240 C   0  0  0  0  0  0  0  0  0  0  0  0
  140.7090   71.8770  223.6430 C   0  0  0  0  0  0  0  0  0  0  0  0
  141.2120   75.4780  220.3410 N   0  0  0  0  0  0  0  0  0  0  0  0
  141.7140   74.6090  219.3260 C   0  0  0  0  0  0  0  0  0  0  0  0
  143.0550   74.0590  219.5560 C   0  0  0  0  0  0  0  0  0  0  0  0
  143.3830   73.6420  220.8610 C   0  0  0  0  0  0  0  0  0  0  0  0
  144.6210   73.1450  221.1780 C   0  0  0  0  0  0  0  0  0  0  0  0
  145.6220   73.0230  220.2350 C   0  0  0  0  0  0  0  0  0  0  0  0
  145.3240   73.4230  218.9560 C   0  0  0  0  0  0  0  0  0  0  0  0
  146.3080   73.3150  217.9820 O   0  0  0  0  0  0  0  0  0  0  0  0
  144.0620   73.9280  218.6430 C   0  0  0  0  0  0  0  0  0  0  0  0
  142.9357   79.0996  220.6576 H   0  0  0  0  0  0  0  0  0  0  0  0
  142.1811   80.7893  222.3500 H   0  0  0  0  0  0  0  0  0  0  0  0
  139.1818   78.0290  223.7754 H   0  0  0  0  0  0  0  0  0  0  0  0
  138.3762   74.1108  221.2314 H   0  0  0  0  0  0  0  0  0  0  0  0
  140.2622   72.2166  220.5972 H   0  0  0  0  0  0  0  0  0  0  0  0
  137.6688   71.4324  222.3185 H   0  0  0  0  0  0  0  0  0  0  0  0
  137.3433   70.1640  224.3872 H   0  0  0  0  0  0  0  0  0  0  0  0
  141.3497   71.0763  225.5423 H   0  0  0  0  0  0  0  0  0  0  0  0
  141.6791   72.3586  223.4509 H   0  0  0  0  0  0  0  0  0  0  0  0
  141.0157   73.7645  219.2302 H   0  0  0  0  0  0  0  0  0  0  0  0
  141.7984   75.2279  218.4206 H   0  0  0  0  0  0  0  0  0  0  0  0
  142.6214   73.7175  221.6511 H   0  0  0  0  0  0  0  0  0  0  0  0
  144.8225   72.8344  222.2138 H   0  0  0  0  0  0  0  0  0  0  0  0
  146.6130   72.6236  220.4965 H   0  0  0  0  0  0  0  0  0  0  0  0
  146.6830   74.1500  217.5430 H   0  0  0  0  0  0  0  0  0  0  0  0
  143.8676   74.2372  217.6054 H   0  0  0  0  0  0  0  0  0  0  0  0
  1  2  2  0
  2  3  1  0
  3  4  2  0
  4  5  1  0
  5  6  2  0
  6  7  1  0
  6  8  1  0
  8  9  2  0
  9 10  1  0
 10 11  2  0
 11 12  1  0
 12 13  2  0
 13 14  1  0
 14 15  2  0
 15 16  1  0
 16 17  2  0
 17 18  1  0
 17 19  1  0
 19 20  2  0
 11 21  1  0
 21 22  1  0
 22 23  1  0
 23 24  2  0
 24 25  1  0
 25 26  2  0
 26 27  1  0
 27 28  1  0
 27 29  2  0
 21  2  1  0
 29 23  1  0
  9  3  1  0
 20 14  1  0
  4 30  1  0
  5 31  1  0
  8 32  1  0
 12 33  1  0
 13 34  1  0
 15 35  1  0
 16 36  1  0
 19 37  1  0
 20 38  1  0
 22 39  1  0
 22 40  1  0
 24 41  1  0
 25 42  1  0
 26 43  1  0
 28 44  1  0
 29 45  1  0
M  END
>  <smiles>  (28) 
O=c1c2ccc(F)cc2nc(/C=C/c2ccc(F)cc2)n1Cc1cccc(O)c1

>  <score_type>  (28) 
oracle

>  <origin>  (28) 
autodockgpu

>  <m_score__min__energy>  (28) 
-8.3399999999999999

>  <m_primary>  (28) 
energy

>  <rmsd>  (28) 
7.422052528064946

>  <m_score__min__rmsd>  (28) 
7.422052528064946

>  <meeko>  (28) 
{"free_energy": -7.15, "intermolecular_energy": -8.94, "internal_energy": -1.19, "cluster_size": 20, "cluster_id": 1, "rank_in_cluster": 20}

>  <energy>  (28) 
-6.89

>  <cluster_rmsd>  (28) 
0.65

>  <cluster>  (28) 
5

$$$$

     RDKit          3D

 45 48  0  0  0  0  0  0  0  0999 V2000
  141.0600   74.5010  221.9650 O   0  0  0  0  0  0  0  0  0  0  0  0
  141.7380   75.0110  221.0390 C   0  0  0  0  0  0  0  0  0  0  0  0
  142.7020   74.2220  220.4580 C   0  0  0  0  0  0  0  0  0  0  0  0
  142.8890   72.9300  220.8950 C   0  0  0  0  0  0  0  0  0  0  0  0
  143.8660   72.1780  220.2810 C   0  0  0  0  0  0  0  0  0  0  0  0
  144.6000   72.7570  219.2670 C   0  0  0  0  0  0  0  0  0  0  0  0
  145.5560   71.9960  218.6790 F   0  0  0  0  0  0  0  0  0  0  0  0
  144.4090   74.0500  218.8330 C   0  0  0  0  0  0  0  0  0  0  0  0
  143.4300   74.7970  219.4510 C   0  0  0  0  0  0  0  0  0  0  0  0
  143.2100   76.0190  219.0790 N   0  0  0  0  0  0  0  0  0  0  0  0
  142.2590   76.8280  219.6390 C   0  0  0  0  0  0  0  0  0  0  0  0
  142.2120   78.1610  219.1070 C   0  0  0  0  0  0  0  0  0  0  0  0
  141.2310   78.9520  218.8020 C   0  0  0  0  0  0  0  0  0  0  0  0
  140.8920   80.1840  219.5340 C   0  0  0  0  0  0  0  0  0  0  0  0
  139.5760   80.4170  219.9230 C   0  0  0  0  0  0  0  0  0  0  0  0
  139.1900   81.5450  220.6100 C   0  0  0  0  0  0  0  0  0  0  0  0
  140.1130   82.5080  220.9440 C   0  0  0  0  0  0  0  0  0  0  0  0
  139.6980   83.6060  221.6200 F   0  0  0  0  0  0  0  0  0  0  0  0
  141.4170   82.2940  220.5670 C   0  0  0  0  0  0  0  0  0  0  0  0
  141.8070   81.1460  219.8690 C   0  0  0  0  0  0  0  0  0  0  0  0
  141.5190   76.3110  220.6280 N   0  0  0  0  0  0  0  0  0  0  0  0
  140.4680   76.9840  221.3210 C   0  0  0  0  0  0  0  0  0  0  0  0
  140.8720   78.1230  222.1530 C   0  0  0  0  0  0  0  0  0  0  0  0
  139.8840   78.7530  222.9360 C   0  0  0  0  0  0  0  0  0  0  0  0
  140.1610   79.8440  223.7200 C   0  0  0  0  0  0  0  0  0  0  0  0
  141.4270   80.3900  223.7900 C   0  0  0  0  0  0  0  0  0  0  0  0
  142.4050   79.7910  223.0350 C   0  0  0  0  0  0  0  0  0  0  0  0
  143.6910   80.3160  223.0820 O   0  0  0  0  0  0  0  0  0  0  0  0
  142.1150   78.6830  222.2410 C   0  0  0  0  0  0  0  0  0  0  0  0
  142.2779   72.5117  221.7084 H   0  0  0  0  0  0  0  0  0  0  0  0
  144.0564   71.1402  220.5920 H   0  0  0  0  0  0  0  0  0  0  0  0
  145.0178   74.4723  218.0200 H   0  0  0  0  0  0  0  0  0  0  0  0
  143.2046   78.5973  218.9215 H   0  0  0  0  0  0  0  0  0  0  0  0
  140.6083   78.6840  217.9357 H   0  0  0  0  0  0  0  0  0  0  0  0
  138.8118   79.6672  219.6704 H   0  0  0  0  0  0  0  0  0  0  0  0
  138.1356   81.6773  220.8940 H   0  0  0  0  0  0  0  0  0  0  0  0
  142.1767   83.0477  220.8216 H   0  0  0  0  0  0  0  0  0  0  0  0
  142.8618   81.0146  219.5858 H   0  0  0  0  0  0  0  0  0  0  0  0
  139.7523   77.3521  220.5712 H   0  0  0  0  0  0  0  0  0  0  0  0
  140.0493   76.2422  222.0170 H   0  0  0  0  0  0  0  0  0  0  0  0
  138.8578   78.3572  222.9179 H   0  0  0  0  0  0  0  0  0  0  0  0
  139.3507   80.2970  224.3101 H   0  0  0  0  0  0  0  0  0  0  0  0
  141.6423   81.2646  224.4215 H   0  0  0  0  0  0  0  0  0  0  0  0
  144.3620   80.0800  222.3570 H   0  0  0  0  0  0  0  0  0  0  0  0
  142.9304   78.2355  221.6538 H   0  0  0  0  0  0  0  0  0  0  0  0
  1  2  2  0
  2  3  1  0
  3  4  2  0
  4  5  1  0
  5  6  2  0
  6  7  1  0
  6  8  1  0
  8  9  2  0
  9 10  1  0
 10 11  2  0
 11 12  1  0
 12 13  2  0
 13 14  1  0
 14 15  2  0
 15 16  1  0
 16 17  2  0
 17 18  1  0
 17 19  1  0
 19 20  2  0
 11 21  1  0
 21 22  1  0
 22 23  1  0
 23 24  2  0
 24 25  1  0
 25 26  2  0
 26 27  1  0
 27 28  1  0
 27 29  2  0
 21  2  1  0
 29 23  1  0
  9  3  1  0
 20 14  1  0
  4 30  1  0
  5 31  1  0
  8 32  1  0
 12 33  1  0
 13 34  1  0
 15 35  1  0
 16 36  1  0
 19 37  1  0
 20 38  1  0
 22 39  1  0
 22 40  1  0
 24 41  1  0
 25 42  1  0
 26 43  1  0
 28 44  1  0
 29 45  1  0
M  END
>  <smiles>  (29) 
O=c1c2ccc(F)cc2nc(/C=C/c2ccc(F)cc2)n1Cc1cccc(O)c1

>  <score_type>  (29) 
oracle

>  <origin>  (29) 
autodockgpu

>  <m_score__min__energy>  (29) 
-8.3399999999999999

>  <m_primary>  (29) 
energy

>  <rmsd>  (29) 
4.326997742810824

>  <m_score__min__rmsd>  (29) 
4.326997742810824

>  <meeko>  (29) 
{"free_energy": -6.58, "intermolecular_energy": -8.37, "internal_energy": -1.75, "cluster_size": 17, "cluster_id": 8, "rank_in_cluster": 6}

>  <energy>  (29) 
-6.88

>  <cluster_rmsd>  (29) 
0.55

>  <cluster>  (29) 
5

$$$$

     RDKit          3D

 45 48  0  0  0  0  0  0  0  0999 V2000
  140.6910   74.2320  222.0050 O   0  0  0  0  0  0  0  0  0  0  0  0
  139.6530   74.9380  221.9480 C   0  0  0  0  0  0  0  0  0  0  0  0
  138.4450   74.2820  221.9660 C   0  0  0  0  0  0  0  0  0  0  0  0
  138.4090   72.9080  222.0480 C   0  0  0  0  0  0  0  0  0  0  0  0
  137.1760   72.2960  222.0650 C   0  0  0  0  0  0  0  0  0  0  0  0
  136.0490   73.0890  222.0000 C   0  0  0  0  0  0  0  0  0  0  0  0
  134.8460   72.4640  222.0180 F   0  0  0  0  0  0  0  0  0  0  0  0
  136.0900   74.4640  221.9190 C   0  0  0  0  0  0  0  0  0  0  0  0
  137.3270   75.0700  221.9030 C   0  0  0  0  0  0  0  0  0  0  0  0
  137.4200   76.3600  221.8290 N   0  0  0  0  0  0  0  0  0  0  0  0
  138.6080   77.0400  221.8080 C   0  0  0  0  0  0  0  0  0  0  0  0
  138.4850   78.4640  221.6770 C   0  0  0  0  0  0  0  0  0  0  0  0
  138.8460   79.4520  222.4370 C   0  0  0  0  0  0  0  0  0  0  0  0
  140.2410   79.7820  222.7710 C   0  0  0  0  0  0  0  0  0  0  0  0
  140.9970   80.5560  221.8940 C   0  0  0  0  0  0  0  0  0  0  0  0
  142.3060   80.9020  222.1430 C   0  0  0  0  0  0  0  0  0  0  0  0
  142.9300   80.4840  223.2940 C   0  0  0  0  0  0  0  0  0  0  0  0
  144.2190   80.8430  223.5070 F   0  0  0  0  0  0  0  0  0  0  0  0
  142.1990   79.7180  224.1700 C   0  0  0  0  0  0  0  0  0  0  0  0
  140.8680   79.3680  223.9150 C   0  0  0  0  0  0  0  0  0  0  0  0
  139.7310   76.3140  221.8680 N   0  0  0  0  0  0  0  0  0  0  0  0
  141.0600   76.8350  221.8810 C   0  0  0  0  0  0  0  0  0  0  0  0
  141.7200   76.9480  220.5740 C   0  0  0  0  0  0  0  0  0  0  0  0
  142.3440   75.8000  220.0480 C   0  0  0  0  0  0  0  0  0  0  0  0
  143.0120   75.8170  218.8510 C   0  0  0  0  0  0  0  0  0  0  0  0
  143.1110   76.9620  218.0860 C   0  0  0  0  0  0  0  0  0  0  0  0
  142.5080   78.0930  218.5800 C   0  0  0  0  0  0  0  0  0  0  0  0
  142.5890   79.2640  217.8370 O   0  0  0  0  0  0  0  0  0  0  0  0
  141.8330   78.0660  219.7990 C   0  0  0  0  0  0  0  0  0  0  0  0
  139.3361   72.3181  222.0983 H   0  0  0  0  0  0  0  0  0  0  0  0
  137.0914   71.2011  222.1289 H   0  0  0  0  0  0  0  0  0  0  0  0
  135.1656   75.0580  221.8688 H   0  0  0  0  0  0  0  0  0  0  0  0
  137.9862   78.7804  220.7491 H   0  0  0  0  0  0  0  0  0  0  0  0
  138.0543   80.0871  222.8611 H   0  0  0  0  0  0  0  0  0  0  0  0
  140.5281   80.9058  220.9625 H   0  0  0  0  0  0  0  0  0  0  0  0
  142.8562   81.5172  221.4158 H   0  0  0  0  0  0  0  0  0  0  0  0
  142.6739   79.3696  225.0990 H   0  0  0  0  0  0  0  0  0  0  0  0
  140.3191   78.7526  224.6430 H   0  0  0  0  0  0  0  0  0  0  0  0
  141.0233   77.8397  222.3274 H   0  0  0  0  0  0  0  0  0  0  0  0
  141.6572   76.1097  222.4531 H   0  0  0  0  0  0  0  0  0  0  0  0
  142.2937   74.8594  220.6161 H   0  0  0  0  0  0  0  0  0  0  0  0
  143.4830   74.8911  218.4894 H   0  0  0  0  0  0  0  0  0  0  0  0
  143.6476   76.9683  217.1258 H   0  0  0  0  0  0  0  0  0  0  0  0
  143.3870   79.4250  217.2290 H   0  0  0  0  0  0  0  0  0  0  0  0
  141.3661   78.9958  220.1559 H   0  0  0  0  0  0  0  0  0  0  0  0
  1  2  2  0
  2  3  1  0
  3  4  2  0
  4  5  1  0
  5  6  2  0
  6  7  1  0
  6  8  1  0
  8  9  2  0
  9 10  1  0
 10 11  2  0
 11 12  1  0
 12 13  2  0
 13 14  1  0
 14 15  2  0
 15 16  1  0
 16 17  2  0
 17 18  1  0
 17 19  1  0
 19 20  2  0
 11 21  1  0
 21 22  1  0
 22 23  1  0
 23 24  2  0
 24 25  1  0
 25 26  2  0
 26 27  1  0
 27 28  1  0
 27 29  2  0
 21  2  1  0
 29 23  1  0
  9  3  1  0
 20 14  1  0
  4 30  1  0
  5 31  1  0
  8 32  1  0
 12 33  1  0
 13 34  1  0
 15 35  1  0
 16 36  1  0
 19 37  1  0
 20 38  1  0
 22 39  1  0
 22 40  1  0
 24 41  1  0
 25 42  1  0
 26 43  1  0
 28 44  1  0
 29 45  1  0
M  END
>  <smiles>  (30) 
O=c1c2ccc(F)cc2nc(/C=C/c2ccc(F)cc2)n1Cc1cccc(O)c1

>  <score_type>  (30) 
oracle

>  <origin>  (30) 
autodockgpu

>  <m_score__min__energy>  (30) 
-8.3399999999999999

>  <m_primary>  (30) 
energy

>  <rmsd>  (30) 
5.629103375394606

>  <m_score__min__rmsd>  (30) 
5.629103375394606

>  <meeko>  (30) 
{"free_energy": -6.67, "intermolecular_energy": -8.46, "internal_energy": -1.51, "cluster_size": 2, "cluster_id": 7, "rank_in_cluster": 2}

>  <energy>  (30) 
-6.9

>  <cluster_rmsd>  (30) 
0.0

>  <cluster>  (30) 
6

$$$$

     RDKit          3D

 45 48  0  0  0  0  0  0  0  0999 V2000
  141.0590   74.5040  221.9510 O   0  0  0  0  0  0  0  0  0  0  0  0
  141.7420   75.0020  221.0220 C   0  0  0  0  0  0  0  0  0  0  0  0
  142.7080   74.2040  220.4560 C   0  0  0  0  0  0  0  0  0  0  0  0
  142.8910   72.9170  220.9100 C   0  0  0  0  0  0  0  0  0  0  0  0
  143.8700   72.1560  220.3110 C   0  0  0  0  0  0  0  0  0  0  0  0
  144.6100   72.7220  219.2930 C   0  0  0  0  0  0  0  0  0  0  0  0
  145.5680   71.9520  218.7200 F   0  0  0  0  0  0  0  0  0  0  0  0
  144.4240   74.0100  218.8420 C   0  0  0  0  0  0  0  0  0  0  0  0
  143.4420   74.7650  219.4450 C   0  0  0  0  0  0  0  0  0  0  0  0
  143.2250   75.9830  219.0570 N   0  0  0  0  0  0  0  0  0  0  0  0
  142.2720   76.8000  219.6010 C   0  0  0  0  0  0  0  0  0  0  0  0
  142.2310   78.1260  219.0530 C   0  0  0  0  0  0  0  0  0  0  0  0
  141.2520   78.9220  218.7500 C   0  0  0  0  0  0  0  0  0  0  0  0
  140.9080   80.1440  219.4970 C   0  0  0  0  0  0  0  0  0  0  0  0
  139.5930   80.3610  219.9000 C   0  0  0  0  0  0  0  0  0  0  0  0
  139.2020   81.4780  220.6010 C   0  0  0  0  0  0  0  0  0  0  0  0
  140.1180   82.4470  220.9350 C   0  0  0  0  0  0  0  0  0  0  0  0
  139.6980   83.5350  221.6250 F   0  0  0  0  0  0  0  0  0  0  0  0
  141.4210   82.2500  220.5450 C   0  0  0  0  0  0  0  0  0  0  0  0
  141.8160   81.1120  219.8330 C   0  0  0  0  0  0  0  0  0  0  0  0
  141.5270   76.2970  220.5930 N   0  0  0  0  0  0  0  0  0  0  0  0
  140.4730   76.9800  221.2720 C   0  0  0  0  0  0  0  0  0  0  0  0
  140.8790   78.1040  222.1240 C   0  0  0  0  0  0  0  0  0  0  0  0
  139.8980   78.7060  222.9360 C   0  0  0  0  0  0  0  0  0  0  0  0
  140.1750   79.7810  223.7400 C   0  0  0  0  0  0  0  0  0  0  0  0
  141.4360   80.3400  223.8030 C   0  0  0  0  0  0  0  0  0  0  0  0
  142.4090   79.7680  223.0180 C   0  0  0  0  0  0  0  0  0  0  0  0
  143.6890   80.3060  223.0560 O   0  0  0  0  0  0  0  0  0  0  0  0
  142.1170   78.6760  222.2030 C   0  0  0  0  0  0  0  0  0  0  0  0
  142.2749   72.5097  221.7252 H   0  0  0  0  0  0  0  0  0  0  0  0
  144.0576   71.1220  220.6361 H   0  0  0  0  0  0  0  0  0  0  0  0
  145.0386   74.4219  218.0280 H   0  0  0  0  0  0  0  0  0  0  0  0
  143.2250   78.5510  218.8499 H   0  0  0  0  0  0  0  0  0  0  0  0
  140.6365   78.6665  217.8749 H   0  0  0  0  0  0  0  0  0  0  0  0
  138.8338   79.6063  219.6468 H   0  0  0  0  0  0  0  0  0  0  0  0
  138.1491   81.5967  220.8964 H   0  0  0  0  0  0  0  0  0  0  0  0
  142.1753   83.0089  220.8000 H   0  0  0  0  0  0  0  0  0  0  0  0
  142.8695   80.9936  219.5395 H   0  0  0  0  0  0  0  0  0  0  0  0
  139.7785   77.3674  220.5120 H   0  0  0  0  0  0  0  0  0  0  0  0
  140.0282   76.2382  221.9516 H   0  0  0  0  0  0  0  0  0  0  0  0
  138.8757   78.3000  222.9245 H   0  0  0  0  0  0  0  0  0  0  0  0
  139.3692   80.2110  224.3530 H   0  0  0  0  0  0  0  0  0  0  0  0
  141.6519   81.2024  224.4508 H   0  0  0  0  0  0  0  0  0  0  0  0
  144.3680   80.0500  222.3460 H   0  0  0  0  0  0  0  0  0  0  0  0
  142.9265   78.2520  221.5907 H   0  0  0  0  0  0  0  0  0  0  0  0
  1  2  2  0
  2  3  1  0
  3  4  2  0
  4  5  1  0
  5  6  2  0
  6  7  1  0
  6  8  1  0
  8  9  2  0
  9 10  1  0
 10 11  2  0
 11 12  1  0
 12 13  2  0
 13 14  1  0
 14 15  2  0
 15 16  1  0
 16 17  2  0
 17 18  1  0
 17 19  1  0
 19 20  2  0
 11 21  1  0
 21 22  1  0
 22 23  1  0
 23 24  2  0
 24 25  1  0
 25 26  2  0
 26 27  1  0
 27 28  1  0
 27 29  2  0
 21  2  1  0
 29 23  1  0
  9  3  1  0
 20 14  1  0
  4 30  1  0
  5 31  1  0
  8 32  1  0
 12 33  1  0
 13 34  1  0
 15 35  1  0
 16 36  1  0
 19 37  1  0
 20 38  1  0
 22 39  1  0
 22 40  1  0
 24 41  1  0
 25 42  1  0
 26 43  1  0
 28 44  1  0
 29 45  1  0
M  END
>  <smiles>  (31) 
O=c1c2ccc(F)cc2nc(/C=C/c2ccc(F)cc2)n1Cc1cccc(O)c1

>  <score_type>  (31) 
oracle

>  <origin>  (31) 
autodockgpu

>  <m_score__min__energy>  (31) 
-8.3399999999999999

>  <m_primary>  (31) 
energy

>  <rmsd>  (31) 
4.348184258627977

>  <m_score__min__rmsd>  (31) 
4.348184258627977

>  <meeko>  (31) 
{"free_energy": -6.58, "intermolecular_energy": -8.37, "internal_energy": -1.77, "cluster_size": 17, "cluster_id": 8, "rank_in_cluster": 5}

>  <energy>  (31) 
-6.69

>  <cluster_rmsd>  (31) 
0.0

>  <cluster>  (31) 
7

$$$$

     RDKit          3D

 45 48  0  0  0  0  0  0  0  0999 V2000
  141.0440   74.4760  221.8930 O   0  0  0  0  0  0  0  0  0  0  0  0
  141.8040   74.9100  220.9920 C   0  0  0  0  0  0  0  0  0  0  0  0
  142.7780   74.0590  220.5270 C   0  0  0  0  0  0  0  0  0  0  0  0
  142.8870   72.7890  221.0470 C   0  0  0  0  0  0  0  0  0  0  0  0
  143.8780   71.9720  220.5480 C   0  0  0  0  0  0  0  0  0  0  0  0
  144.7020   72.4690  219.5600 C   0  0  0  0  0  0  0  0  0  0  0  0
  145.6700   71.6450  219.0860 F   0  0  0  0  0  0  0  0  0  0  0  0
  144.5890   73.7410  219.0430 C   0  0  0  0  0  0  0  0  0  0  0  0
  143.5960   74.5520  219.5460 C   0  0  0  0  0  0  0  0  0  0  0  0
  143.4470   75.7570  219.0920 N   0  0  0  0  0  0  0  0  0  0  0  0
  142.4870   76.6270  219.5360 C   0  0  0  0  0  0  0  0  0  0  0  0
  142.5260   77.9270  218.9300 C   0  0  0  0  0  0  0  0  0  0  0  0
  141.5990   78.7190  218.4860 C   0  0  0  0  0  0  0  0  0  0  0  0
  141.0510   79.8630  219.2320 C   0  0  0  0  0  0  0  0  0  0  0  0
  141.8920   80.9040  219.6190 C   0  0  0  0  0  0  0  0  0  0  0  0
  141.4470   82.0030  220.3170 C   0  0  0  0  0  0  0  0  0  0  0  0
  140.1230   82.1160  220.6680 C   0  0  0  0  0  0  0  0  0  0  0  0
  139.7200   83.2110  221.3560 F   0  0  0  0  0  0  0  0  0  0  0  0
  139.2790   81.0980  220.2950 C   0  0  0  0  0  0  0  0  0  0  0  0
  139.7340   79.9820  219.5850 C   0  0  0  0  0  0  0  0  0  0  0  0
  141.6610   76.1910  220.4960 N   0  0  0  0  0  0  0  0  0  0  0  0
  140.5880   76.9350  221.0720 C   0  0  0  0  0  0  0  0  0  0  0  0
  140.9740   78.0150  221.9880 C   0  0  0  0  0  0  0  0  0  0  0  0
  140.0030   78.4950  222.8900 C   0  0  0  0  0  0  0  0  0  0  0  0
  140.2610   79.5220  223.7600 C   0  0  0  0  0  0  0  0  0  0  0  0
  141.4900   80.1490  223.8070 C   0  0  0  0  0  0  0  0  0  0  0  0
  142.4520   79.6960  222.9360 C   0  0  0  0  0  0  0  0  0  0  0  0
  143.7000   80.3050  222.9550 O   0  0  0  0  0  0  0  0  0  0  0  0
  142.1800   78.6520  222.0540 C   0  0  0  0  0  0  0  0  0  0  0  0
  142.2050   72.4378  221.8354 H   0  0  0  0  0  0  0  0  0  0  0  0
  144.0088   70.9482  220.9284 H   0  0  0  0  0  0  0  0  0  0  0  0
  145.2690   74.0969  218.2550 H   0  0  0  0  0  0  0  0  0  0  0  0
  143.5427   78.3323  218.8201 H   0  0  0  0  0  0  0  0  0  0  0  0
  141.1947   78.5216  217.4822 H   0  0  0  0  0  0  0  0  0  0  0  0
  142.9582   80.8448  219.3551 H   0  0  0  0  0  0  0  0  0  0  0  0
  142.1557   82.7966  220.5960 H   0  0  0  0  0  0  0  0  0  0  0  0
  138.2140   81.1625  220.5626 H   0  0  0  0  0  0  0  0  0  0  0  0
  139.0238   79.1894  219.3067 H   0  0  0  0  0  0  0  0  0  0  0  0
  140.0085   77.3813  220.2504 H   0  0  0  0  0  0  0  0  0  0  0  0
  140.0221   76.2159  221.6824 H   0  0  0  0  0  0  0  0  0  0  0  0
  139.0060   78.0303  222.8958 H   0  0  0  0  0  0  0  0  0  0  0  0
  139.4649   79.8568  224.4413 H   0  0  0  0  0  0  0  0  0  0  0  0
  141.6900   80.9724  224.5085 H   0  0  0  0  0  0  0  0  0  0  0  0
  144.4390   79.9680  222.3440 H   0  0  0  0  0  0  0  0  0  0  0  0
  142.9799   78.3233  221.3743 H   0  0  0  0  0  0  0  0  0  0  0  0
  1  2  2  0
  2  3  1  0
  3  4  2  0
  4  5  1  0
  5  6  2  0
  6  7  1  0
  6  8  1  0
  8  9  2  0
  9 10  1  0
 10 11  2  0
 11 12  1  0
 12 13  2  0
 13 14  1  0
 14 15  2  0
 15 16  1  0
 16 17  2  0
 17 18  1  0
 17 19  1  0
 19 20  2  0
 11 21  1  0
 21 22  1  0
 22 23  1  0
 23 24  2  0
 24 25  1  0
 25 26  2  0
 26 27  1  0
 27 28  1  0
 27 29  2  0
 21  2  1  0
 29 23  1  0
  9  3  1  0
 20 14  1  0
  4 30  1  0
  5 31  1  0
  8 32  1  0
 12 33  1  0
 13 34  1  0
 15 35  1  0
 16 36  1  0
 19 37  1  0
 20 38  1  0
 22 39  1  0
 22 40  1  0
 24 41  1  0
 25 42  1  0
 26 43  1  0
 28 44  1  0
 29 45  1  0
M  END
>  <smiles>  (32) 
O=c1c2ccc(F)cc2nc(/C=C/c2ccc(F)cc2)n1Cc1cccc(O)c1

>  <score_type>  (32) 
oracle

>  <origin>  (32) 
autodockgpu

>  <m_score__min__energy>  (32) 
-8.3399999999999999

>  <m_primary>  (32) 
energy

>  <rmsd>  (32) 
4.481727033482438

>  <m_score__min__rmsd>  (32) 
4.481727033482438

>  <meeko>  (32) 
{"free_energy": -6.54, "intermolecular_energy": -8.33, "internal_energy": -1.78, "cluster_size": 17, "cluster_id": 8, "rank_in_cluster": 14}

>  <energy>  (32) 
-6.67

>  <cluster_rmsd>  (32) 
0.16

>  <cluster>  (32) 
7

$$$$

     RDKit          3D

 45 48  0  0  0  0  0  0  0  0999 V2000
  141.5420   75.8810  219.7990 O   0  0  0  0  0  0  0  0  0  0  0  0
  141.6360   74.7810  220.3980 C   0  0  0  0  0  0  0  0  0  0  0  0
  142.7730   74.0400  220.1770 C   0  0  0  0  0  0  0  0  0  0  0  0
  143.7490   74.5150  219.3290 C   0  0  0  0  0  0  0  0  0  0  0  0
  144.8700   73.7380  219.1400 C   0  0  0  0  0  0  0  0  0  0  0  0
  144.9540   72.5330  219.8070 C   0  0  0  0  0  0  0  0  0  0  0  0
  146.0670   71.7870  219.6040 F   0  0  0  0  0  0  0  0  0  0  0  0
  143.9740   72.0620  220.6540 C   0  0  0  0  0  0  0  0  0  0  0  0
  142.8560   72.8450  220.8390 C   0  0  0  0  0  0  0  0  0  0  0  0
  141.9060   72.4490  221.6270 N   0  0  0  0  0  0  0  0  0  0  0  0
  140.7640   73.1630  221.8660 C   0  0  0  0  0  0  0  0  0  0  0  0
  139.8210   72.5200  222.7370 C   0  0  0  0  0  0  0  0  0  0  0  0
  139.7690   71.3300  223.2500 C   0  0  0  0  0  0  0  0  0  0  0  0
  140.1150   71.0050  224.6440 C   0  0  0  0  0  0  0  0  0  0  0  0
  139.8070   69.7480  225.1580 C   0  0  0  0  0  0  0  0  0  0  0  0
  140.1020   69.3770  226.4500 C   0  0  0  0  0  0  0  0  0  0  0  0
  140.7250   70.2570  227.3020 C   0  0  0  0  0  0  0  0  0  0  0  0
  141.0000   69.8600  228.5670 F   0  0  0  0  0  0  0  0  0  0  0  0
  141.0360   71.5030  226.8110 C   0  0  0  0  0  0  0  0  0  0  0  0
  140.7360   71.8770  225.4970 C   0  0  0  0  0  0  0  0  0  0  0  0
  140.6350   74.3410  221.2420 N   0  0  0  0  0  0  0  0  0  0  0  0
  139.5340   75.2400  221.3770 C   0  0  0  0  0  0  0  0  0  0  0  0
  139.8190   76.5070  222.0620 C   0  0  0  0  0  0  0  0  0  0  0  0
  138.7270   77.3160  222.4340 C   0  0  0  0  0  0  0  0  0  0  0  0
  138.8960   78.5300  223.0490 C   0  0  0  0  0  0  0  0  0  0  0  0
  140.1480   79.0320  223.3420 C   0  0  0  0  0  0  0  0  0  0  0  0
  141.2260   78.2590  222.9880 C   0  0  0  0  0  0  0  0  0  0  0  0
  142.5010   78.7340  223.2680 O   0  0  0  0  0  0  0  0  0  0  0  0
  141.0450   77.0260  222.3620 C   0  0  0  0  0  0  0  0  0  0  0  0
  143.6366   75.4834  218.8194 H   0  0  0  0  0  0  0  0  0  0  0  0
  145.6793   74.0700  218.4731 H   0  0  0  0  0  0  0  0  0  0  0  0
  144.0811   71.0937  221.1649 H   0  0  0  0  0  0  0  0  0  0  0  0
  138.9767   73.1631  223.0260 H   0  0  0  0  0  0  0  0  0  0  0  0
  139.4437   70.5058  222.5982 H   0  0  0  0  0  0  0  0  0  0  0  0
  139.3062   69.0200  224.5029 H   0  0  0  0  0  0  0  0  0  0  0  0
  139.8374   68.3694  226.8030 H   0  0  0  0  0  0  0  0  0  0  0  0
  141.5356   72.2273  227.4712 H   0  0  0  0  0  0  0  0  0  0  0  0
  141.0024   72.8844  225.1447 H   0  0  0  0  0  0  0  0  0  0  0  0
  139.1679   75.4780  220.3674 H   0  0  0  0  0  0  0  0  0  0  0  0
  138.8008   74.7186  222.0099 H   0  0  0  0  0  0  0  0  0  0  0  0
  137.7066   76.9626  222.2245 H   0  0  0  0  0  0  0  0  0  0  0  0
  138.0078   79.1211  223.3167 H   0  0  0  0  0  0  0  0  0  0  0  0
  140.2761   80.0063  223.8363 H   0  0  0  0  0  0  0  0  0  0  0  0
  143.2600   78.5680  222.6130 H   0  0  0  0  0  0  0  0  0  0  0  0
  141.9376   76.4408  222.0960 H   0  0  0  0  0  0  0  0  0  0  0  0
  1  2  2  0
  2  3  1  0
  3  4  2  0
  4  5  1  0
  5  6  2  0
  6  7  1  0
  6  8  1  0
  8  9  2  0
  9 10  1  0
 10 11  2  0
 11 12  1  0
 12 13  2  0
 13 14  1  0
 14 15  2  0
 15 16  1  0
 16 17  2  0
 17 18  1  0
 17 19  1  0
 19 20  2  0
 11 21  1  0
 21 22  1  0
 22 23  1  0
 23 24  2  0
 24 25  1  0
 25 26  2  0
 26 27  1  0
 27 28  1  0
 27 29  2  0
 21  2  1  0
 29 23  1  0
  9  3  1  0
 20 14  1  0
  4 30  1  0
  5 31  1  0
  8 32  1  0
 12 33  1  0
 13 34  1  0
 15 35  1  0
 16 36  1  0
 19 37  1  0
 20 38  1  0
 22 39  1  0
 22 40  1  0
 24 41  1  0
 25 42  1  0
 26 43  1  0
 28 44  1  0
 29 45  1  0
M  END
>  <smiles>  (33) 
O=c1c2ccc(F)cc2nc(/C=C/c2ccc(F)cc2)n1Cc1cccc(O)c1

>  <score_type>  (33) 
oracle

>  <origin>  (33) 
autodockgpu

>  <m_score__min__energy>  (33) 
-8.3399999999999999

>  <m_primary>  (33) 
energy

>  <rmsd>  (33) 
4.538525892802759

>  <m_score__min__rmsd>  (33) 
4.538525892802759

>  <meeko>  (33) 
{"free_energy": -7.55, "intermolecular_energy": -9.34, "internal_energy": -0.8, "cluster_size": 4, "cluster_id": 2, "rank_in_cluster": 3}

>  <energy>  (33) 
-6.59

>  <cluster_rmsd>  (33) 
0.0

>  <cluster>  (33) 
8

$$$$

     RDKit          3D

 45 48  0  0  0  0  0  0  0  0999 V2000
  141.0740   74.4960  221.9540 O   0  0  0  0  0  0  0  0  0  0  0  0
  141.7590   74.9910  221.0250 C   0  0  0  0  0  0  0  0  0  0  0  0
  142.7230   74.1910  220.4590 C   0  0  0  0  0  0  0  0  0  0  0  0
  142.9020   72.9040  220.9140 C   0  0  0  0  0  0  0  0  0  0  0  0
  143.8790   72.1400  220.3150 C   0  0  0  0  0  0  0  0  0  0  0  0
  144.6200   72.7030  219.2970 C   0  0  0  0  0  0  0  0  0  0  0  0
  145.5760   71.9310  218.7230 F   0  0  0  0  0  0  0  0  0  0  0  0
  144.4380   73.9920  218.8450 C   0  0  0  0  0  0  0  0  0  0  0  0
  143.4580   74.7500  219.4490 C   0  0  0  0  0  0  0  0  0  0  0  0
  143.2450   75.9680  219.0600 N   0  0  0  0  0  0  0  0  0  0  0  0
  142.2940   76.7880  219.6040 C   0  0  0  0  0  0  0  0  0  0  0  0
  142.2560   78.1140  219.0560 C   0  0  0  0  0  0  0  0  0  0  0  0
  141.2800   78.9110  218.7490 C   0  0  0  0  0  0  0  0  0  0  0  0
  140.9220   80.1230  219.5050 C   0  0  0  0  0  0  0  0  0  0  0  0
  139.6070   80.3170  219.9190 C   0  0  0  0  0  0  0  0  0  0  0  0
  139.2040   81.4250  220.6280 C   0  0  0  0  0  0  0  0  0  0  0  0
  140.1070   82.4060  220.9620 C   0  0  0  0  0  0  0  0  0  0  0  0
  139.6760   83.4830  221.6600 F   0  0  0  0  0  0  0  0  0  0  0  0
  141.4100   82.2310  220.5610 C   0  0  0  0  0  0  0  0  0  0  0  0
  141.8180   81.1030  219.8400 C   0  0  0  0  0  0  0  0  0  0  0  0
  141.5480   76.2870  220.5970 N   0  0  0  0  0  0  0  0  0  0  0  0
  140.4960   76.9730  221.2750 C   0  0  0  0  0  0  0  0  0  0  0  0
  140.9060   78.0890  222.1360 C   0  0  0  0  0  0  0  0  0  0  0  0
  139.9330   78.6700  222.9730 C   0  0  0  0  0  0  0  0  0  0  0  0
  140.2150   79.7370  223.7870 C   0  0  0  0  0  0  0  0  0  0  0  0
  141.4710   80.3060  223.8360 C   0  0  0  0  0  0  0  0  0  0  0  0
  142.4350   79.7550  223.0270 C   0  0  0  0  0  0  0  0  0  0  0  0
  143.7110   80.3040  223.0500 O   0  0  0  0  0  0  0  0  0  0  0  0
  142.1390   78.6710  222.2020 C   0  0  0  0  0  0  0  0  0  0  0  0
  142.2847   72.4990  221.7295 H   0  0  0  0  0  0  0  0  0  0  0  0
  144.0639   71.1057  220.6407 H   0  0  0  0  0  0  0  0  0  0  0  0
  145.0534   74.4017  218.0305 H   0  0  0  0  0  0  0  0  0  0  0  0
  143.2513   78.5380  218.8571 H   0  0  0  0  0  0  0  0  0  0  0  0
  140.6777   78.6645  217.8622 H   0  0  0  0  0  0  0  0  0  0  0  0
  138.8580   79.5514  219.6684 H   0  0  0  0  0  0  0  0  0  0  0  0
  138.1511   81.5266  220.9299 H   0  0  0  0  0  0  0  0  0  0  0  0
  142.1542   83.0004  220.8143 H   0  0  0  0  0  0  0  0  0  0  0  0
  142.8711   81.0024  219.5387 H   0  0  0  0  0  0  0  0  0  0  0  0
  139.8079   77.3700  220.5142 H   0  0  0  0  0  0  0  0  0  0  0  0
  140.0427   76.2302  221.9478 H   0  0  0  0  0  0  0  0  0  0  0  0
  138.9145   78.2545  222.9736 H   0  0  0  0  0  0  0  0  0  0  0  0
  139.4162   80.1515  224.4196 H   0  0  0  0  0  0  0  0  0  0  0  0
  141.6903   81.1611  224.4923 H   0  0  0  0  0  0  0  0  0  0  0  0
  144.3940   80.0330  222.3480 H   0  0  0  0  0  0  0  0  0  0  0  0
  142.9419   78.2628  221.5705 H   0  0  0  0  0  0  0  0  0  0  0  0
  1  2  2  0
  2  3  1  0
  3  4  2  0
  4  5  1  0
  5  6  2  0
  6  7  1  0
  6  8  1  0
  8  9  2  0
  9 10  1  0
 10 11  2  0
 11 12  1  0
 12 13  2  0
 13 14  1  0
 14 15  2  0
 15 16  1  0
 16 17  2  0
 17 18  1  0
 17 19  1  0
 19 20  2  0
 11 21  1  0
 21 22  1  0
 22 23  1  0
 23 24  2  0
 24 25  1  0
 25 26  2  0
 26 27  1  0
 27 28  1  0
 27 29  2  0
 21  2  1  0
 29 23  1  0
  9  3  1  0
 20 14  1  0
  4 30  1  0
  5 31  1  0
  8 32  1  0
 12 33  1  0
 13 34  1  0
 15 35  1  0
 16 36  1  0
 19 37  1  0
 20 38  1  0
 22 39  1  0
 22 40  1  0
 24 41  1  0
 25 42  1  0
 26 43  1  0
 28 44  1  0
 29 45  1  0
M  END
>  <smiles>  (34) 
O=c1c2ccc(F)cc2nc(/C=C/c2ccc(F)cc2)n1Cc1cccc(O)c1

>  <score_type>  (34) 
oracle

>  <origin>  (34) 
autodockgpu

>  <m_score__min__energy>  (34) 
-8.3399999999999999

>  <m_primary>  (34) 
energy

>  <rmsd>  (34) 
4.371186593214227

>  <m_score__min__rmsd>  (34) 
4.371186593214227

>  <meeko>  (34) 
{"free_energy": -6.59, "intermolecular_energy": -8.38, "internal_energy": -1.76, "cluster_size": 17, "cluster_id": 8, "rank_in_cluster": 2}

>  <energy>  (34) 
-6.59

>  <cluster_rmsd>  (34) 
0.06

>  <cluster>  (34) 
8

$$$$

     RDKit          3D

 45 48  0  0  0  0  0  0  0  0999 V2000
  142.1780   75.0370  218.8370 O   0  0  0  0  0  0  0  0  0  0  0  0
  141.6230   74.9460  219.9600 C   0  0  0  0  0  0  0  0  0  0  0  0
  141.4800   76.1050  220.6860 C   0  0  0  0  0  0  0  0  0  0  0  0
  141.9370   77.2990  220.1720 C   0  0  0  0  0  0  0  0  0  0  0  0
  141.7710   78.4330  220.9360 C   0  0  0  0  0  0  0  0  0  0  0  0
  141.1590   78.3120  222.1660 C   0  0  0  0  0  0  0  0  0  0  0  0
  141.0070   79.4430  222.8980 F   0  0  0  0  0  0  0  0  0  0  0  0
  140.7030   77.1160  222.6750 C   0  0  0  0  0  0  0  0  0  0  0  0
  140.8720   75.9850  221.9060 C   0  0  0  0  0  0  0  0  0  0  0  0
  140.4600   74.8350  222.3390 N   0  0  0  0  0  0  0  0  0  0  0  0
  140.5890   73.6650  221.6400 C   0  0  0  0  0  0  0  0  0  0  0  0
  140.1050   72.4990  222.3230 C   0  0  0  0  0  0  0  0  0  0  0  0
  140.7060   71.5120  222.9120 C   0  0  0  0  0  0  0  0  0  0  0  0
  140.4300   71.0670  224.2880 C   0  0  0  0  0  0  0  0  0  0  0  0
  141.0480   71.7070  225.3590 C   0  0  0  0  0  0  0  0  0  0  0  0
  140.8360   71.3450  226.6690 C   0  0  0  0  0  0  0  0  0  0  0  0
  139.9840   70.3100  226.9760 C   0  0  0  0  0  0  0  0  0  0  0  0
  139.7980   69.9790  228.2760 F   0  0  0  0  0  0  0  0  0  0  0  0
  139.3650   69.6660  225.9310 C   0  0  0  0  0  0  0  0  0  0  0  0
  139.5830   70.0380  224.6000 C   0  0  0  0  0  0  0  0  0  0  0  0
  141.1770   73.7300  220.4390 N   0  0  0  0  0  0  0  0  0  0  0  0
  141.3830   72.6310  219.5520 C   0  0  0  0  0  0  0  0  0  0  0  0
  142.7600   72.1320  219.4560 C   0  0  0  0  0  0  0  0  0  0  0  0
  142.9910   70.7700  219.7330 C   0  0  0  0  0  0  0  0  0  0  0  0
  144.2460   70.2210  219.7000 C   0  0  0  0  0  0  0  0  0  0  0  0
  145.3630   70.9720  219.3920 C   0  0  0  0  0  0  0  0  0  0  0  0
  145.1620   72.3030  219.1180 C   0  0  0  0  0  0  0  0  0  0  0  0
  146.2640   73.0880  218.8040 O   0  0  0  0  0  0  0  0  0  0  0  0
  143.8810   72.8520  219.1550 C   0  0  0  0  0  0  0  0  0  0  0  0
  142.4185   77.3450  219.1841 H   0  0  0  0  0  0  0  0  0  0  0  0
  142.1183   79.4118  220.5737 H   0  0  0  0  0  0  0  0  0  0  0  0
  140.2202   77.0654  223.6621 H   0  0  0  0  0  0  0  0  0  0  0  0
  139.0077   72.4286  222.3528 H   0  0  0  0  0  0  0  0  0  0  0  0
  141.4758   70.9694  222.3437 H   0  0  0  0  0  0  0  0  0  0  0  0
  141.7362   72.5389  225.1482 H   0  0  0  0  0  0  0  0  0  0  0  0
  141.3511   71.8867  227.4760 H   0  0  0  0  0  0  0  0  0  0  0  0
  138.6785   68.8342  226.1476 H   0  0  0  0  0  0  0  0  0  0  0  0
  139.0669   69.4964  223.7936 H   0  0  0  0  0  0  0  0  0  0  0  0
  140.7468   71.8004  219.8916 H   0  0  0  0  0  0  0  0  0  0  0  0
  141.1332   73.0079  218.5492 H   0  0  0  0  0  0  0  0  0  0  0  0
  142.1354   70.1259  219.9841 H   0  0  0  0  0  0  0  0  0  0  0  0
  144.3671   69.1512  219.9254 H   0  0  0  0  0  0  0  0  0  0  0  0
  146.3678   70.5250  219.3672 H   0  0  0  0  0  0  0  0  0  0  0  0
  146.1520   74.0880  218.6660 H   0  0  0  0  0  0  0  0  0  0  0  0
  143.7669   73.9226  218.9297 H   0  0  0  0  0  0  0  0  0  0  0  0
  1  2  2  0
  2  3  1  0
  3  4  2  0
  4  5  1  0
  5  6  2  0
  6  7  1  0
  6  8  1  0
  8  9  2  0
  9 10  1  0
 10 11  2  0
 11 12  1  0
 12 13  2  0
 13 14  1  0
 14 15  2  0
 15 16  1  0
 16 17  2  0
 17 18  1  0
 17 19  1  0
 19 20  2  0
 11 21  1  0
 21 22  1  0
 22 23  1  0
 23 24  2  0
 24 25  1  0
 25 26  2  0
 26 27  1  0
 27 28  1  0
 27 29  2  0
 21  2  1  0
 29 23  1  0
  9  3  1  0
 20 14  1  0
  4 30  1  0
  5 31  1  0
  8 32  1  0
 12 33  1  0
 13 34  1  0
 15 35  1  0
 16 36  1  0
 19 37  1  0
 20 38  1  0
 22 39  1  0
 22 40  1  0
 24 41  1  0
 25 42  1  0
 26 43  1  0
 28 44  1  0
 29 45  1  0
M  END
>  <smiles>  (35) 
O=c1c2ccc(F)cc2nc(/C=C/c2ccc(F)cc2)n1Cc1cccc(O)c1

>  <score_type>  (35) 
oracle

>  <origin>  (35) 
autodockgpu

>  <m_score__min__energy>  (35) 
-8.3399999999999999

>  <m_primary>  (35) 
energy

>  <rmsd>  (35) 
8.367016955385772

>  <m_score__min__rmsd>  (35) 
8.367016955385772

>  <meeko>  (35) 
{"free_energy": -7.81, "intermolecular_energy": -9.6, "internal_energy": -0.9, "cluster_size": 20, "cluster_id": 1, "rank_in_cluster": 8}

>  <energy>  (35) 
-6.59

>  <cluster_rmsd>  (35) 
0.09

>  <cluster>  (35) 
8

$$$$

     RDKit          3D

 45 48  0  0  0  0  0  0  0  0999 V2000
  141.0640   74.5300  221.9540 O   0  0  0  0  0  0  0  0  0  0  0  0
  141.7610   74.9870  221.0140 C   0  0  0  0  0  0  0  0  0  0  0  0
  142.7210   74.1590  220.4830 C   0  0  0  0  0  0  0  0  0  0  0  0
  142.8840   72.8860  220.9820 C   0  0  0  0  0  0  0  0  0  0  0  0
  143.8570   72.0930  220.4160 C   0  0  0  0  0  0  0  0  0  0  0  0
  144.6120   72.6140  219.3860 C   0  0  0  0  0  0  0  0  0  0  0  0
  145.5640   71.8140  218.8460 F   0  0  0  0  0  0  0  0  0  0  0  0
  144.4460   73.8890  218.8900 C   0  0  0  0  0  0  0  0  0  0  0  0
  143.4700   74.6770  219.4600 C   0  0  0  0  0  0  0  0  0  0  0  0
  143.2720   75.8830  219.0290 N   0  0  0  0  0  0  0  0  0  0  0  0
  142.3250   76.7300  219.5380 C   0  0  0  0  0  0  0  0  0  0  0  0
  142.3040   78.0370  218.9450 C   0  0  0  0  0  0  0  0  0  0  0  0
  141.3390   78.8420  218.6240 C   0  0  0  0  0  0  0  0  0  0  0  0
  140.9630   80.0420  219.3890 C   0  0  0  0  0  0  0  0  0  0  0  0
  139.6530   80.1950  219.8380 C   0  0  0  0  0  0  0  0  0  0  0  0
  139.2340   81.2900  220.5580 C   0  0  0  0  0  0  0  0  0  0  0  0
  140.1140   82.2990  220.8670 C   0  0  0  0  0  0  0  0  0  0  0  0
  139.6670   83.3630  221.5770 F   0  0  0  0  0  0  0  0  0  0  0  0
  141.4110   82.1660  220.4320 C   0  0  0  0  0  0  0  0  0  0  0  0
  141.8350   81.0510  219.7010 C   0  0  0  0  0  0  0  0  0  0  0  0
  141.5660   76.2700  220.5410 N   0  0  0  0  0  0  0  0  0  0  0  0
  140.5150   76.9880  221.1880 C   0  0  0  0  0  0  0  0  0  0  0  0
  140.9350   78.0820  222.0730 C   0  0  0  0  0  0  0  0  0  0  0  0
  139.9920   78.5910  222.9870 C   0  0  0  0  0  0  0  0  0  0  0  0
  140.2820   79.6320  223.8300 C   0  0  0  0  0  0  0  0  0  0  0  0
  141.5180   80.2450  223.8350 C   0  0  0  0  0  0  0  0  0  0  0  0
  142.4540   79.7650  222.9510 C   0  0  0  0  0  0  0  0  0  0  0  0
  143.7090   80.3590  222.9280 O   0  0  0  0  0  0  0  0  0  0  0  0
  142.1490   78.7060  222.0970 C   0  0  0  0  0  0  0  0  0  0  0  0
  142.2572   72.5146  221.8061 H   0  0  0  0  0  0  0  0  0  0  0  0
  144.0281   71.0681  220.7768 H   0  0  0  0  0  0  0  0  0  0  0  0
  145.0715   74.2649  218.0669 H   0  0  0  0  0  0  0  0  0  0  0  0
  143.3042   78.4346  218.7179 H   0  0  0  0  0  0  0  0  0  0  0  0
  140.7612   78.6119  217.7167 H   0  0  0  0  0  0  0  0  0  0  0  0
  138.9220   79.4062  219.6068 H   0  0  0  0  0  0  0  0  0  0  0  0
  138.1871   81.3582  220.8886 H   0  0  0  0  0  0  0  0  0  0  0  0
  142.1366   82.9591  220.6654 H   0  0  0  0  0  0  0  0  0  0  0  0
  142.8827   80.9838  219.3725 H   0  0  0  0  0  0  0  0  0  0  0  0
  139.8687   77.4155  220.4073 H   0  0  0  0  0  0  0  0  0  0  0  0
  140.0113   76.2569  221.8374 H   0  0  0  0  0  0  0  0  0  0  0  0
  138.9902   78.1383  223.0255 H   0  0  0  0  0  0  0  0  0  0  0  0
  139.5063   79.9894  224.5232 H   0  0  0  0  0  0  0  0  0  0  0  0
  141.7437   81.0795  224.5153 H   0  0  0  0  0  0  0  0  0  0  0  0
  144.4400   79.9780  222.3350 H   0  0  0  0  0  0  0  0  0  0  0  0
  142.9286   78.3543  221.4052 H   0  0  0  0  0  0  0  0  0  0  0  0
  1  2  2  0
  2  3  1  0
  3  4  2  0
  4  5  1  0
  5  6  2  0
  6  7  1  0
  6  8  1  0
  8  9  2  0
  9 10  1  0
 10 11  2  0
 11 12  1  0
 12 13  2  0
 13 14  1  0
 14 15  2  0
 15 16  1  0
 16 17  2  0
 17 18  1  0
 17 19  1  0
 19 20  2  0
 11 21  1  0
 21 22  1  0
 22 23  1  0
 23 24  2  0
 24 25  1  0
 25 26  2  0
 26 27  1  0
 27 28  1  0
 27 29  2  0
 21  2  1  0
 29 23  1  0
  9  3  1  0
 20 14  1  0
  4 30  1  0
  5 31  1  0
  8 32  1  0
 12 33  1  0
 13 34  1  0
 15 35  1  0
 16 36  1  0
 19 37  1  0
 20 38  1  0
 22 39  1  0
 22 40  1  0
 24 41  1  0
 25 42  1  0
 26 43  1  0
 28 44  1  0
 29 45  1  0
M  END
>  <smiles>  (36) 
O=c1c2ccc(F)cc2nc(/C=C/c2ccc(F)cc2)n1Cc1cccc(O)c1

>  <score_type>  (36) 
oracle

>  <origin>  (36) 
autodockgpu

>  <m_score__min__energy>  (36) 
-8.3399999999999999

>  <m_primary>  (36) 
energy

>  <rmsd>  (36) 
4.403167999470532

>  <m_score__min__rmsd>  (36) 
4.403167999470532

>  <meeko>  (36) 
{"free_energy": -6.56, "intermolecular_energy": -8.35, "internal_energy": -1.77, "cluster_size": 17, "cluster_id": 8, "rank_in_cluster": 12}

>  <energy>  (36) 
-6.58

>  <cluster_rmsd>  (36) 
0.04

>  <cluster>  (36) 
8

$$$$

     RDKit          3D

 45 48  0  0  0  0  0  0  0  0999 V2000
  142.3460   76.4010  219.2370 O   0  0  0  0  0  0  0  0  0  0  0  0
  141.6340   76.1710  220.2460 C   0  0  0  0  0  0  0  0  0  0  0  0
  141.4050   77.2200  221.1050 C   0  0  0  0  0  0  0  0  0  0  0  0
  141.9470   78.4580  220.8390 C   0  0  0  0  0  0  0  0  0  0  0  0
  141.6880   79.4780  221.7280 C   0  0  0  0  0  0  0  0  0  0  0  0
  140.9050   79.2050  222.8300 C   0  0  0  0  0  0  0  0  0  0  0  0
  140.6650   80.2250  223.6910 F   0  0  0  0  0  0  0  0  0  0  0  0
  140.3660   77.9640  223.0920 C   0  0  0  0  0  0  0  0  0  0  0  0
  140.6280   76.9490  222.1990 C   0  0  0  0  0  0  0  0  0  0  0  0
  140.1420   75.7630  222.3980 N   0  0  0  0  0  0  0  0  0  0  0  0
  140.3540   74.7010  221.5620 C   0  0  0  0  0  0  0  0  0  0  0  0
  139.7620   73.4670  221.9940 C   0  0  0  0  0  0  0  0  0  0  0  0
  140.2590   72.2980  222.2600 C   0  0  0  0  0  0  0  0  0  0  0  0
  140.0300   71.5590  223.5120 C   0  0  0  0  0  0  0  0  0  0  0  0
  139.1160   70.5090  223.5380 C   0  0  0  0  0  0  0  0  0  0  0  0
  138.8530   69.7750  224.6720 C   0  0  0  0  0  0  0  0  0  0  0  0
  139.4990   70.0610  225.8510 C   0  0  0  0  0  0  0  0  0  0  0  0
  139.2160   69.3190  226.9490 F   0  0  0  0  0  0  0  0  0  0  0  0
  140.4050   71.0950  225.8440 C   0  0  0  0  0  0  0  0  0  0  0  0
  140.6700   71.8390  224.6890 C   0  0  0  0  0  0  0  0  0  0  0  0
  141.1090   74.9160  220.4770 N   0  0  0  0  0  0  0  0  0  0  0  0
  141.4250   73.9470  219.4770 C   0  0  0  0  0  0  0  0  0  0  0  0
  142.7340   73.2940  219.6050 C   0  0  0  0  0  0  0  0  0  0  0  0
  142.8800   72.2950  220.5870 C   0  0  0  0  0  0  0  0  0  0  0  0
  144.0720   71.6530  220.8020 C   0  0  0  0  0  0  0  0  0  0  0  0
  145.2030   71.9470  220.0670 C   0  0  0  0  0  0  0  0  0  0  0  0
  145.0820   72.9190  219.1030 C   0  0  0  0  0  0  0  0  0  0  0  0
  146.2010   73.2410  218.3450 O   0  0  0  0  0  0  0  0  0  0  0  0
  143.8660   73.5670  218.8930 C   0  0  0  0  0  0  0  0  0  0  0  0
  142.5665   78.6267  219.9458 H   0  0  0  0  0  0  0  0  0  0  0  0
  142.0960   80.4861  221.5628 H   0  0  0  0  0  0  0  0  0  0  0  0
  139.7472   77.7900  223.9846 H   0  0  0  0  0  0  0  0  0  0  0  0
  138.6713   73.5231  222.1257 H   0  0  0  0  0  0  0  0  0  0  0  0
  140.8956   71.8268  221.4967 H   0  0  0  0  0  0  0  0  0  0  0  0
  138.5805   70.2550  222.6113 H   0  0  0  0  0  0  0  0  0  0  0  0
  138.1214   68.9545  224.6346 H   0  0  0  0  0  0  0  0  0  0  0  0
  140.9372   71.3448  226.7737 H   0  0  0  0  0  0  0  0  0  0  0  0
  141.4019   72.6593  224.7274 H   0  0  0  0  0  0  0  0  0  0  0  0
  140.6533   73.1638  219.5113 H   0  0  0  0  0  0  0  0  0  0  0  0
  141.4614   74.5013  218.5276 H   0  0  0  0  0  0  0  0  0  0  0  0
  142.0095   72.0211  221.2012 H   0  0  0  0  0  0  0  0  0  0  0  0
  144.1290   70.8808  221.5833 H   0  0  0  0  0  0  0  0  0  0  0  0
  146.1563   71.4277  220.2446 H   0  0  0  0  0  0  0  0  0  0  0  0
  146.5870   74.1800  218.3820 H   0  0  0  0  0  0  0  0  0  0  0  0
  143.8160   74.3397  218.1117 H   0  0  0  0  0  0  0  0  0  0  0  0
  1  2  2  0
  2  3  1  0
  3  4  2  0
  4  5  1  0
  5  6  2  0
  6  7  1  0
  6  8  1  0
  8  9  2  0
  9 10  1  0
 10 11  2  0
 11 12  1  0
 12 13  2  0
 13 14  1  0
 14 15  2  0
 15 16  1  0
 16 17  2  0
 17 18  1  0
 17 19  1  0
 19 20  2  0
 11 21  1  0
 21 22  1  0
 22 23  1  0
 23 24  2  0
 24 25  1  0
 25 26  2  0
 26 27  1  0
 27 28  1  0
 27 29  2  0
 21  2  1  0
 29 23  1  0
  9  3  1  0
 20 14  1  0
  4 30  1  0
  5 31  1  0
  8 32  1  0
 12 33  1  0
 13 34  1  0
 15 35  1  0
 16 36  1  0
 19 37  1  0
 20 38  1  0
 22 39  1  0
 22 40  1  0
 24 41  1  0
 25 42  1  0
 26 43  1  0
 28 44  1  0
 29 45  1  0
M  END
>  <smiles>  (37) 
O=c1c2ccc(F)cc2nc(/C=C/c2ccc(F)cc2)n1Cc1cccc(O)c1

>  <score_type>  (37) 
oracle

>  <origin>  (37) 
autodockgpu

>  <m_score__min__energy>  (37) 
-8.3399999999999999

>  <m_primary>  (37) 
energy

>  <rmsd>  (37) 
7.722098306003848

>  <m_score__min__rmsd>  (37) 
7.722098306003848

>  <meeko>  (37) 
{"free_energy": -7.38, "intermolecular_energy": -9.17, "internal_energy": -1.06, "cluster_size": 20, "cluster_id": 1, "rank_in_cluster": 14}

>  <energy>  (37) 
-6.58

>  <cluster_rmsd>  (37) 
0.03

>  <cluster>  (37) 
8

$$$$

     RDKit          3D

 45 48  0  0  0  0  0  0  0  0999 V2000
  142.2010   75.0200  219.2090 O   0  0  0  0  0  0  0  0  0  0  0  0
  141.4730   74.8350  220.2150 C   0  0  0  0  0  0  0  0  0  0  0  0
  140.8200   75.9310  220.7280 C   0  0  0  0  0  0  0  0  0  0  0  0
  140.9770   77.1650  220.1370 C   0  0  0  0  0  0  0  0  0  0  0  0
  140.3010   78.2320  220.6850 C   0  0  0  0  0  0  0  0  0  0  0  0
  139.5070   78.0080  221.7900 C   0  0  0  0  0  0  0  0  0  0  0  0
  138.8520   79.0740  222.3120 F   0  0  0  0  0  0  0  0  0  0  0  0
  139.3530   76.7710  222.3790 C   0  0  0  0  0  0  0  0  0  0  0  0
  140.0310   75.7080  221.8250 C   0  0  0  0  0  0  0  0  0  0  0  0
  139.9190   74.5240  222.3390 N   0  0  0  0  0  0  0  0  0  0  0  0
  140.5570   73.4150  221.8520 C   0  0  0  0  0  0  0  0  0  0  0  0
  140.3290   72.2110  222.5990 C   0  0  0  0  0  0  0  0  0  0  0  0
  140.6650   71.8420  223.7970 C   0  0  0  0  0  0  0  0  0  0  0  0
  140.2150   70.5990  224.4450 C   0  0  0  0  0  0  0  0  0  0  0  0
  140.7680   70.2160  225.6640 C   0  0  0  0  0  0  0  0  0  0  0  0
  140.3950   69.0680  226.3250 C   0  0  0  0  0  0  0  0  0  0  0  0
  139.4390   68.2370  225.7910 C   0  0  0  0  0  0  0  0  0  0  0  0
  139.0960   67.1150  226.4680 F   0  0  0  0  0  0  0  0  0  0  0  0
  138.8830   68.6000  224.5880 C   0  0  0  0  0  0  0  0  0  0  0  0
  139.2640   69.7680  223.9190 C   0  0  0  0  0  0  0  0  0  0  0  0
  141.3400   73.5810  220.7780 N   0  0  0  0  0  0  0  0  0  0  0  0
  142.0690   72.5510  220.1120 C   0  0  0  0  0  0  0  0  0  0  0  0
  143.5200   72.7500  220.0130 C   0  0  0  0  0  0  0  0  0  0  0  0
  144.2620   72.8100  221.2100 C   0  0  0  0  0  0  0  0  0  0  0  0
  145.6160   73.0250  221.2180 C   0  0  0  0  0  0  0  0  0  0  0  0
  146.3360   73.1950  220.0530 C   0  0  0  0  0  0  0  0  0  0  0  0
  145.6320   73.1390  218.8740 C   0  0  0  0  0  0  0  0  0  0  0  0
  146.3250   73.3070  217.6820 O   0  0  0  0  0  0  0  0  0  0  0  0
  144.2560   72.9210  218.8750 C   0  0  0  0  0  0  0  0  0  0  0  0
  141.6219   77.2941  219.2553 H   0  0  0  0  0  0  0  0  0  0  0  0
  140.3921   79.2390  220.2518 H   0  0  0  0  0  0  0  0  0  0  0  0
  138.7103   76.6376  223.2617 H   0  0  0  0  0  0  0  0  0  0  0  0
  139.7564   71.4509  222.0472 H   0  0  0  0  0  0  0  0  0  0  0  0
  141.3325   72.5041  224.3680 H   0  0  0  0  0  0  0  0  0  0  0  0
  141.5363   70.8588  226.1184 H   0  0  0  0  0  0  0  0  0  0  0  0
  140.8648   68.8138  227.2866 H   0  0  0  0  0  0  0  0  0  0  0  0
  138.1157   67.9531  224.1377 H   0  0  0  0  0  0  0  0  0  0  0  0
  138.7930   70.0215  222.9578 H   0  0  0  0  0  0  0  0  0  0  0  0
  141.8947   71.6104  220.6550 H   0  0  0  0  0  0  0  0  0  0  0  0
  141.6989   72.5483  219.0761 H   0  0  0  0  0  0  0  0  0  0  0  0
  143.7379   72.6802  222.1684 H   0  0  0  0  0  0  0  0  0  0  0  0
  146.1444   73.0632  222.1820 H   0  0  0  0  0  0  0  0  0  0  0  0
  147.4223   73.3672  220.0674 H   0  0  0  0  0  0  0  0  0  0  0  0
  146.5810   74.2390  217.3700 H   0  0  0  0  0  0  0  0  0  0  0  0
  143.7341   72.8846  217.9073 H   0  0  0  0  0  0  0  0  0  0  0  0
  1  2  2  0
  2  3  1  0
  3  4  2  0
  4  5  1  0
  5  6  2  0
  6  7  1  0
  6  8  1  0
  8  9  2  0
  9 10  1  0
 10 11  2  0
 11 12  1  0
 12 13  2  0
 13 14  1  0
 14 15  2  0
 15 16  1  0
 16 17  2  0
 17 18  1  0
 17 19  1  0
 19 20  2  0
 11 21  1  0
 21 22  1  0
 22 23  1  0
 23 24  2  0
 24 25  1  0
 25 26  2  0
 26 27  1  0
 27 28  1  0
 27 29  2  0
 21  2  1  0
 29 23  1  0
  9  3  1  0
 20 14  1  0
  4 30  1  0
  5 31  1  0
  8 32  1  0
 12 33  1  0
 13 34  1  0
 15 35  1  0
 16 36  1  0
 19 37  1  0
 20 38  1  0
 22 39  1  0
 22 40  1  0
 24 41  1  0
 25 42  1  0
 26 43  1  0
 28 44  1  0
 29 45  1  0
M  END
>  <smiles>  (38) 
O=c1c2ccc(F)cc2nc(/C=C/c2ccc(F)cc2)n1Cc1cccc(O)c1

>  <score_type>  (38) 
oracle

>  <origin>  (38) 
autodockgpu

>  <m_score__min__energy>  (38) 
-8.3399999999999999

>  <m_primary>  (38) 
energy

>  <rmsd>  (38) 
7.689106058122168

>  <m_score__min__rmsd>  (38) 
7.689106058122168

>  <meeko>  (38) 
{"free_energy": -7.72, "intermolecular_energy": -9.51, "internal_energy": -0.86, "cluster_size": 20, "cluster_id": 1, "rank_in_cluster": 10}

>  <energy>  (38) 
-6.58

>  <cluster_rmsd>  (38) 
0.03

>  <cluster>  (38) 
8

$$$$

     RDKit          3D

 45 48  0  0  0  0  0  0  0  0999 V2000
  142.5100   76.6530  219.3200 O   0  0  0  0  0  0  0  0  0  0  0  0
  141.7600   76.3820  220.2910 C   0  0  0  0  0  0  0  0  0  0  0  0
  141.4160   77.4180  221.1260 C   0  0  0  0  0  0  0  0  0  0  0  0
  141.8880   78.6880  220.8780 C   0  0  0  0  0  0  0  0  0  0  0  0
  141.5140   79.6930  221.7420 C   0  0  0  0  0  0  0  0  0  0  0  0
  140.6910   79.3750  222.8030 C   0  0  0  0  0  0  0  0  0  0  0  0
  140.3380   80.3820  223.6390 F   0  0  0  0  0  0  0  0  0  0  0  0
  140.2220   78.1030  223.0470 C   0  0  0  0  0  0  0  0  0  0  0  0
  140.5990   77.1020  222.1780 C   0  0  0  0  0  0  0  0  0  0  0  0
  140.1830   75.8880  222.3620 N   0  0  0  0  0  0  0  0  0  0  0  0
  140.5100   74.8380  221.5490 C   0  0  0  0  0  0  0  0  0  0  0  0
  139.9780   73.5690  221.9600 C   0  0  0  0  0  0  0  0  0  0  0  0
  140.5230   72.4090  222.1570 C   0  0  0  0  0  0  0  0  0  0  0  0
  140.2130   71.5230  223.2910 C   0  0  0  0  0  0  0  0  0  0  0  0
  140.7100   71.8200  224.5570 C   0  0  0  0  0  0  0  0  0  0  0  0
  140.4600   71.0370  225.6610 C   0  0  0  0  0  0  0  0  0  0  0  0
  139.6920   69.9020  225.5500 C   0  0  0  0  0  0  0  0  0  0  0  0
  139.4660   69.1550  226.6560 F   0  0  0  0  0  0  0  0  0  0  0  0
  139.1930   69.5930  224.3070 C   0  0  0  0  0  0  0  0  0  0  0  0
  139.4490   70.3920  223.1870 C   0  0  0  0  0  0  0  0  0  0  0  0
  141.3070   75.0960  220.5040 N   0  0  0  0  0  0  0  0  0  0  0  0
  141.7410   74.1440  219.5320 C   0  0  0  0  0  0  0  0  0  0  0  0
  143.1340   73.6970  219.6480 C   0  0  0  0  0  0  0  0  0  0  0  0
  143.5760   73.2270  220.9010 C   0  0  0  0  0  0  0  0  0  0  0  0
  144.8670   72.8190  221.1120 C   0  0  0  0  0  0  0  0  0  0  0  0
  145.8150   72.8430  220.1090 C   0  0  0  0  0  0  0  0  0  0  0  0
  145.4050   73.2970  218.8790 C   0  0  0  0  0  0  0  0  0  0  0  0
  146.3330   73.3350  217.8450 O   0  0  0  0  0  0  0  0  0  0  0  0
  144.0900   73.7110  218.6730 C   0  0  0  0  0  0  0  0  0  0  0  0
  142.5424   78.8928  220.0178 H   0  0  0  0  0  0  0  0  0  0  0  0
  141.8631   80.7250  221.5900 H   0  0  0  0  0  0  0  0  0  0  0  0
  139.5685   77.8932  223.9066 H   0  0  0  0  0  0  0  0  0  0  0  0
  138.8936   73.5840  222.1442 H   0  0  0  0  0  0  0  0  0  0  0  0
  141.2687   72.0630  221.4261 H   0  0  0  0  0  0  0  0  0  0  0  0
  141.3299   72.7202  224.6805 H   0  0  0  0  0  0  0  0  0  0  0  0
  140.8773   71.3211  226.6383 H   0  0  0  0  0  0  0  0  0  0  0  0
  138.5742   68.6912  224.1892 H   0  0  0  0  0  0  0  0  0  0  0  0
  139.0308   70.1074  222.2102 H   0  0  0  0  0  0  0  0  0  0  0  0
  141.0948   73.2578  219.6167 H   0  0  0  0  0  0  0  0  0  0  0  0
  141.6739   74.6583  218.5619 H   0  0  0  0  0  0  0  0  0  0  0  0
  142.8616   73.1864  221.7365 H   0  0  0  0  0  0  0  0  0  0  0  0
  145.1567   72.4615  222.1111 H   0  0  0  0  0  0  0  0  0  0  0  0
  146.8497   72.5142  220.2862 H   0  0  0  0  0  0  0  0  0  0  0  0
  146.6290   74.2280  217.4610 H   0  0  0  0  0  0  0  0  0  0  0  0
  143.8073   74.0680  217.6717 H   0  0  0  0  0  0  0  0  0  0  0  0
  1  2  2  0
  2  3  1  0
  3  4  2  0
  4  5  1  0
  5  6  2  0
  6  7  1  0
  6  8  1  0
  8  9  2  0
  9 10  1  0
 10 11  2  0
 11 12  1  0
 12 13  2  0
 13 14  1  0
 14 15  2  0
 15 16  1  0
 16 17  2  0
 17 18  1  0
 17 19  1  0
 19 20  2  0
 11 21  1  0
 21 22  1  0
 22 23  1  0
 23 24  2  0
 24 25  1  0
 25 26  2  0
 26 27  1  0
 27 28  1  0
 27 29  2  0
 21  2  1  0
 29 23  1  0
  9  3  1  0
 20 14  1  0
  4 30  1  0
  5 31  1  0
  8 32  1  0
 12 33  1  0
 13 34  1  0
 15 35  1  0
 16 36  1  0
 19 37  1  0
 20 38  1  0
 22 39  1  0
 22 40  1  0
 24 41  1  0
 25 42  1  0
 26 43  1  0
 28 44  1  0
 29 45  1  0
M  END
>  <smiles>  (39) 
O=c1c2ccc(F)cc2nc(/C=C/c2ccc(F)cc2)n1Cc1cccc(O)c1

>  <score_type>  (39) 
oracle

>  <origin>  (39) 
autodockgpu

>  <m_score__min__energy>  (39) 
-8.3399999999999999

>  <m_primary>  (39) 
energy

>  <rmsd>  (39) 
7.520179853217632

>  <m_score__min__rmsd>  (39) 
7.520179853217632

>  <meeko>  (39) 
{"free_energy": -7.65, "intermolecular_energy": -9.44, "internal_energy": -1.1, "cluster_size": 20, "cluster_id": 1, "rank_in_cluster": 11}

>  <energy>  (39) 
-6.57

>  <cluster_rmsd>  (39) 
0.06

>  <cluster>  (39) 
8

$$$$

     RDKit          3D

 45 48  0  0  0  0  0  0  0  0999 V2000
  141.0600   74.5150  221.9700 O   0  0  0  0  0  0  0  0  0  0  0  0
  141.7360   75.0060  221.0320 C   0  0  0  0  0  0  0  0  0  0  0  0
  142.6980   74.2050  220.4640 C   0  0  0  0  0  0  0  0  0  0  0  0
  142.8850   72.9220  220.9270 C   0  0  0  0  0  0  0  0  0  0  0  0
  143.8600   72.1570  220.3260 C   0  0  0  0  0  0  0  0  0  0  0  0
  144.5920   72.7150  219.2980 C   0  0  0  0  0  0  0  0  0  0  0  0
  145.5450   71.9410  218.7230 F   0  0  0  0  0  0  0  0  0  0  0  0
  144.4010   73.9990  218.8390 C   0  0  0  0  0  0  0  0  0  0  0  0
  143.4240   74.7590  219.4440 C   0  0  0  0  0  0  0  0  0  0  0  0
  143.2040   75.9730  219.0480 N   0  0  0  0  0  0  0  0  0  0  0  0
  142.2540   76.7940  219.5930 C   0  0  0  0  0  0  0  0  0  0  0  0
  142.2070   78.1160  219.0350 C   0  0  0  0  0  0  0  0  0  0  0  0
  141.2270   78.9150  218.7480 C   0  0  0  0  0  0  0  0  0  0  0  0
  140.8920   80.1320  219.5060 C   0  0  0  0  0  0  0  0  0  0  0  0
  139.5790   80.3530  219.9150 C   0  0  0  0  0  0  0  0  0  0  0  0
  139.1970   81.4670  220.6260 C   0  0  0  0  0  0  0  0  0  0  0  0
  140.1190   82.4280  220.9650 C   0  0  0  0  0  0  0  0  0  0  0  0
  139.7080   83.5120  221.6650 F   0  0  0  0  0  0  0  0  0  0  0  0
  141.4200   82.2270  220.5680 C   0  0  0  0  0  0  0  0  0  0  0  0
  141.8060   81.0920  219.8460 C   0  0  0  0  0  0  0  0  0  0  0  0
  141.5170   76.2980  220.5950 N   0  0  0  0  0  0  0  0  0  0  0  0
  140.4680   76.9850  221.2770 C   0  0  0  0  0  0  0  0  0  0  0  0
  140.8820   78.1040  222.1330 C   0  0  0  0  0  0  0  0  0  0  0  0
  139.9070   78.7020  222.9550 C   0  0  0  0  0  0  0  0  0  0  0  0
  140.1920   79.7720  223.7640 C   0  0  0  0  0  0  0  0  0  0  0  0
  141.4540   80.3280  223.8210 C   0  0  0  0  0  0  0  0  0  0  0  0
  142.4210   79.7600  223.0270 C   0  0  0  0  0  0  0  0  0  0  0  0
  143.7020   80.2940  223.0590 O   0  0  0  0  0  0  0  0  0  0  0  0
  142.1210   78.6730  222.2070 C   0  0  0  0  0  0  0  0  0  0  0  0
  142.2755   72.5209  221.7502 H   0  0  0  0  0  0  0  0  0  0  0  0
  144.0506   71.1257  220.6577 H   0  0  0  0  0  0  0  0  0  0  0  0
  145.0084   74.4046  218.0165 H   0  0  0  0  0  0  0  0  0  0  0  0
  143.1985   78.5336  218.8056 H   0  0  0  0  0  0  0  0  0  0  0  0
  140.6023   78.6663  217.8775 H   0  0  0  0  0  0  0  0  0  0  0  0
  138.8147   79.6046  219.6584 H   0  0  0  0  0  0  0  0  0  0  0  0
  138.1457   81.5895  220.9254 H   0  0  0  0  0  0  0  0  0  0  0  0
  142.1794   82.9801  220.8253 H   0  0  0  0  0  0  0  0  0  0  0  0
  142.8578   80.9700  219.5479 H   0  0  0  0  0  0  0  0  0  0  0  0
  139.7754   77.3794  220.5189 H   0  0  0  0  0  0  0  0  0  0  0  0
  140.0190   76.2436  221.9543 H   0  0  0  0  0  0  0  0  0  0  0  0
  138.8840   78.2977  222.9478 H   0  0  0  0  0  0  0  0  0  0  0  0
  139.3915   80.1996  224.3856 H   0  0  0  0  0  0  0  0  0  0  0  0
  141.6755   81.1864  224.4722 H   0  0  0  0  0  0  0  0  0  0  0  0
  144.3780   80.0380  222.3450 H   0  0  0  0  0  0  0  0  0  0  0  0
  142.9255   78.2513  221.5865 H   0  0  0  0  0  0  0  0  0  0  0  0
  1  2  2  0
  2  3  1  0
  3  4  2  0
  4  5  1  0
  5  6  2  0
  6  7  1  0
  6  8  1  0
  8  9  2  0
  9 10  1  0
 10 11  2  0
 11 12  1  0
 12 13  2  0
 13 14  1  0
 14 15  2  0
 15 16  1  0
 16 17  2  0
 17 18  1  0
 17 19  1  0
 19 20  2  0
 11 21  1  0
 21 22  1  0
 22 23  1  0
 23 24  2  0
 24 25  1  0
 25 26  2  0
 26 27  1  0
 27 28  1  0
 27 29  2  0
 21  2  1  0
 29 23  1  0
  9  3  1  0
 20 14  1  0
  4 30  1  0
  5 31  1  0
  8 32  1  0
 12 33  1  0
 13 34  1  0
 15 35  1  0
 16 36  1  0
 19 37  1  0
 20 38  1  0
 22 39  1  0
 22 40  1  0
 24 41  1  0
 25 42  1  0
 26 43  1  0
 28 44  1  0
 29 45  1  0
M  END
>  <smiles>  (40) 
O=c1c2ccc(F)cc2nc(/C=C/c2ccc(F)cc2)n1Cc1cccc(O)c1

>  <score_type>  (40) 
oracle

>  <origin>  (40) 
autodockgpu

>  <m_score__min__energy>  (40) 
-8.3399999999999999

>  <m_primary>  (40) 
energy

>  <rmsd>  (40) 
4.352860067957238

>  <m_score__min__rmsd>  (40) 
4.352860067957238

>  <meeko>  (40) 
{"free_energy": -6.58, "intermolecular_energy": -8.37, "internal_energy": -1.77, "cluster_size": 17, "cluster_id": 8, "rank_in_cluster": 4}

>  <energy>  (40) 
-6.57

>  <cluster_rmsd>  (40) 
0.09

>  <cluster>  (40) 
8

$$$$

     RDKit          3D

 45 48  0  0  0  0  0  0  0  0999 V2000
  142.6580   75.5080  219.6030 O   0  0  0  0  0  0  0  0  0  0  0  0
  141.7850   75.3130  220.4850 C   0  0  0  0  0  0  0  0  0  0  0  0
  141.2600   76.4220  221.1050 C   0  0  0  0  0  0  0  0  0  0  0  0
  141.6930   77.6790  220.7490 C   0  0  0  0  0  0  0  0  0  0  0  0
  141.1360   78.7590  221.3970 C   0  0  0  0  0  0  0  0  0  0  0  0
  140.1790   78.5230  222.3630 C   0  0  0  0  0  0  0  0  0  0  0  0
  139.6470   79.6030  222.9870 F   0  0  0  0  0  0  0  0  0  0  0  0
  139.7490   77.2630  222.7160 C   0  0  0  0  0  0  0  0  0  0  0  0
  140.3100   76.1870  222.0630 C   0  0  0  0  0  0  0  0  0  0  0  0
  139.9390   74.9800  222.3580 N   0  0  0  0  0  0  0  0  0  0  0  0
  140.4450   73.8590  221.7580 C   0  0  0  0  0  0  0  0  0  0  0  0
  139.9270   72.6190  222.2660 C   0  0  0  0  0  0  0  0  0  0  0  0
  140.4980   71.5660  222.7630 C   0  0  0  0  0  0  0  0  0  0  0  0
  140.3130   71.0880  224.1430 C   0  0  0  0  0  0  0  0  0  0  0  0
  140.7860   71.8500  225.2080 C   0  0  0  0  0  0  0  0  0  0  0  0
  140.6460   71.4650  226.5210 C   0  0  0  0  0  0  0  0  0  0  0  0
  140.0200   70.2830  226.8380 C   0  0  0  0  0  0  0  0  0  0  0  0
  139.9010   69.9340  228.1410 F   0  0  0  0  0  0  0  0  0  0  0  0
  139.5470   69.5170  225.7990 C   0  0  0  0  0  0  0  0  0  0  0  0
  139.6900   69.9120  224.4640 C   0  0  0  0  0  0  0  0  0  0  0  0
  141.3770   74.0350  220.8130 N   0  0  0  0  0  0  0  0  0  0  0  0
  142.0070   72.9990  220.0600 C   0  0  0  0  0  0  0  0  0  0  0  0
  143.4730   73.0450  220.0050 C   0  0  0  0  0  0  0  0  0  0  0  0
  144.1830   72.9740  221.2200 C   0  0  0  0  0  0  0  0  0  0  0  0
  145.5510   73.0420  221.2690 C   0  0  0  0  0  0  0  0  0  0  0  0
  146.3170   73.1820  220.1300 C   0  0  0  0  0  0  0  0  0  0  0  0
  145.6450   73.2520  218.9340 C   0  0  0  0  0  0  0  0  0  0  0  0
  146.3850   73.3940  217.7670 O   0  0  0  0  0  0  0  0  0  0  0  0
  144.2540   73.1830  218.8930 C   0  0  0  0  0  0  0  0  0  0  0  0
  142.4593   77.8166  219.9719 H   0  0  0  0  0  0  0  0  0  0  0  0
  141.4464   79.7851  221.1506 H   0  0  0  0  0  0  0  0  0  0  0  0
  138.9835   77.1204  223.4930 H   0  0  0  0  0  0  0  0  0  0  0  0
  138.8300   72.5489  222.2254 H   0  0  0  0  0  0  0  0  0  0  0  0
  141.1674   70.9897  222.1075 H   0  0  0  0  0  0  0  0  0  0  0  0
  141.2937   72.8012  224.9898 H   0  0  0  0  0  0  0  0  0  0  0  0
  141.0378   72.1076  227.3232 H   0  0  0  0  0  0  0  0  0  0  0  0
  139.0415   68.5661  226.0234 H   0  0  0  0  0  0  0  0  0  0  0  0
  139.2968   69.2694  223.6625 H   0  0  0  0  0  0  0  0  0  0  0  0
  141.7168   72.0356  220.5045 H   0  0  0  0  0  0  0  0  0  0  0  0
  141.6665   73.1366  219.0231 H   0  0  0  0  0  0  0  0  0  0  0  0
  143.6215   72.8604  222.1590 H   0  0  0  0  0  0  0  0  0  0  0  0
  146.0534   72.9832  222.2458 H   0  0  0  0  0  0  0  0  0  0  0  0
  147.4147   73.2351  220.1775 H   0  0  0  0  0  0  0  0  0  0  0  0
  146.5060   74.3120  217.3510 H   0  0  0  0  0  0  0  0  0  0  0  0
  143.7584   73.2429  217.9128 H   0  0  0  0  0  0  0  0  0  0  0  0
  1  2  2  0
  2  3  1  0
  3  4  2  0
  4  5  1  0
  5  6  2  0
  6  7  1  0
  6  8  1  0
  8  9  2  0
  9 10  1  0
 10 11  2  0
 11 12  1  0
 12 13  2  0
 13 14  1  0
 14 15  2  0
 15 16  1  0
 16 17  2  0
 17 18  1  0
 17 19  1  0
 19 20  2  0
 11 21  1  0
 21 22  1  0
 22 23  1  0
 23 24  2  0
 24 25  1  0
 25 26  2  0
 26 27  1  0
 27 28  1  0
 27 29  2  0
 21  2  1  0
 29 23  1  0
  9  3  1  0
 20 14  1  0
  4 30  1  0
  5 31  1  0
  8 32  1  0
 12 33  1  0
 13 34  1  0
 15 35  1  0
 16 36  1  0
 19 37  1  0
 20 38  1  0
 22 39  1  0
 22 40  1  0
 24 41  1  0
 25 42  1  0
 26 43  1  0
 28 44  1  0
 29 45  1  0
M  END
>  <smiles>  (41) 
O=c1c2ccc(F)cc2nc(/C=C/c2ccc(F)cc2)n1Cc1cccc(O)c1

>  <score_type>  (41) 
oracle

>  <origin>  (41) 
autodockgpu

>  <m_score__min__energy>  (41) 
-8.3399999999999999

>  <m_primary>  (41) 
energy

>  <rmsd>  (41) 
7.685192683401975

>  <m_score__min__rmsd>  (41) 
7.685192683401975

>  <meeko>  (41) 
{"free_energy": -8.23, "intermolecular_energy": -10.02, "internal_energy": -0.85, "cluster_size": 20, "cluster_id": 1, "rank_in_cluster": 2}

>  <energy>  (41) 
-6.57

>  <cluster_rmsd>  (41) 
0.07

>  <cluster>  (41) 
8

$$$$

     RDKit          3D

 45 48  0  0  0  0  0  0  0  0999 V2000
  141.8370   75.0850  219.1720 O   0  0  0  0  0  0  0  0  0  0  0  0
  141.2210   74.6870  220.1910 C   0  0  0  0  0  0  0  0  0  0  0  0
  140.4570   75.6100  220.8640 C   0  0  0  0  0  0  0  0  0  0  0  0
  140.3890   76.9090  220.4110 C   0  0  0  0  0  0  0  0  0  0  0  0
  139.6090   77.7970  221.1170 C   0  0  0  0  0  0  0  0  0  0  0  0
  138.9410   77.3400  222.2350 C   0  0  0  0  0  0  0  0  0  0  0  0
  138.1800   78.2330  222.9130 F   0  0  0  0  0  0  0  0  0  0  0  0
  139.0120   76.0390  222.6850 C   0  0  0  0  0  0  0  0  0  0  0  0
  139.7940   75.1560  221.9730 C   0  0  0  0  0  0  0  0  0  0  0  0
  139.8930   73.9210  222.3530 N   0  0  0  0  0  0  0  0  0  0  0  0
  140.6460   72.9800  221.7040 C   0  0  0  0  0  0  0  0  0  0  0  0
  140.6520   71.6830  222.3200 C   0  0  0  0  0  0  0  0  0  0  0  0
  139.8640   71.1140  223.1790 C   0  0  0  0  0  0  0  0  0  0  0  0
  140.2090   70.8610  224.5880 C   0  0  0  0  0  0  0  0  0  0  0  0
  139.9790   69.6040  225.1410 C   0  0  0  0  0  0  0  0  0  0  0  0
  140.2780   69.2980  226.4490 C   0  0  0  0  0  0  0  0  0  0  0  0
  140.8250   70.2470  227.2790 C   0  0  0  0  0  0  0  0  0  0  0  0
  141.1060   69.9120  228.5610 F   0  0  0  0  0  0  0  0  0  0  0  0
  141.0580   71.4940  226.7500 C   0  0  0  0  0  0  0  0  0  0  0  0
  140.7540   71.8020  225.4190 C   0  0  0  0  0  0  0  0  0  0  0  0
  141.3140   73.3750  220.6130 N   0  0  0  0  0  0  0  0  0  0  0  0
  142.1320   72.5430  219.7900 C   0  0  0  0  0  0  0  0  0  0  0  0
  143.5790   72.7770  219.8760 C   0  0  0  0  0  0  0  0  0  0  0  0
  144.1600   72.8520  221.1570 C   0  0  0  0  0  0  0  0  0  0  0  0
  145.4970   73.0990  221.3380 C   0  0  0  0  0  0  0  0  0  0  0  0
  146.3550   73.2870  220.2730 C   0  0  0  0  0  0  0  0  0  0  0  0
  145.8090   73.2170  219.0150 C   0  0  0  0  0  0  0  0  0  0  0  0
  146.6440   73.4020  217.9200 O   0  0  0  0  0  0  0  0  0  0  0  0
  144.4480   72.9670  218.8410 C   0  0  0  0  0  0  0  0  0  0  0  0
  140.9403   77.2267  219.5137 H   0  0  0  0  0  0  0  0  0  0  0  0
  139.5203   78.8459  220.7976 H   0  0  0  0  0  0  0  0  0  0  0  0
  138.4630   75.7168  223.5821 H   0  0  0  0  0  0  0  0  0  0  0  0
  141.4902   71.0463  222.0004 H   0  0  0  0  0  0  0  0  0  0  0  0
  138.8693   70.7987  222.8308 H   0  0  0  0  0  0  0  0  0  0  0  0
  139.5393   68.8217  224.5049 H   0  0  0  0  0  0  0  0  0  0  0  0
  140.0778   68.2868  226.8328 H   0  0  0  0  0  0  0  0  0  0  0  0
  141.4962   72.2727  227.3915 H   0  0  0  0  0  0  0  0  0  0  0  0
  140.9557   72.8132  225.0360 H   0  0  0  0  0  0  0  0  0  0  0  0
  141.9425   71.4975  220.0745 H   0  0  0  0  0  0  0  0  0  0  0  0
  141.8533   72.7847  218.7537 H   0  0  0  0  0  0  0  0  0  0  0  0
  143.5209   72.7078  222.0406 H   0  0  0  0  0  0  0  0  0  0  0  0
  145.8972   73.1487  222.3614 H   0  0  0  0  0  0  0  0  0  0  0  0
  147.4265   73.4838  220.4251 H   0  0  0  0  0  0  0  0  0  0  0  0
  146.7280   74.3210  217.4960 H   0  0  0  0  0  0  0  0  0  0  0  0
  144.0540   72.9205  217.8150 H   0  0  0  0  0  0  0  0  0  0  0  0
  1  2  2  0
  2  3  1  0
  3  4  2  0
  4  5  1  0
  5  6  2  0
  6  7  1  0
  6  8  1  0
  8  9  2  0
  9 10  1  0
 10 11  2  0
 11 12  1  0
 12 13  2  0
 13 14  1  0
 14 15  2  0
 15 16  1  0
 16 17  2  0
 17 18  1  0
 17 19  1  0
 19 20  2  0
 11 21  1  0
 21 22  1  0
 22 23  1  0
 23 24  2  0
 24 25  1  0
 25 26  2  0
 26 27  1  0
 27 28  1  0
 27 29  2  0
 21  2  1  0
 29 23  1  0
  9  3  1  0
 20 14  1  0
  4 30  1  0
  5 31  1  0
  8 32  1  0
 12 33  1  0
 13 34  1  0
 15 35  1  0
 16 36  1  0
 19 37  1  0
 20 38  1  0
 22 39  1  0
 22 40  1  0
 24 41  1  0
 25 42  1  0
 26 43  1  0
 28 44  1  0
 29 45  1  0
M  END
>  <smiles>  (42) 
O=c1c2ccc(F)cc2nc(/C=C/c2ccc(F)cc2)n1Cc1cccc(O)c1

>  <score_type>  (42) 
oracle

>  <origin>  (42) 
autodockgpu

>  <m_score__min__energy>  (42) 
-8.3399999999999999

>  <m_primary>  (42) 
energy

>  <rmsd>  (42) 
7.692390204855753

>  <m_score__min__rmsd>  (42) 
7.692390204855753

>  <meeko>  (42) 
{"free_energy": -8.01, "intermolecular_energy": -9.8, "internal_energy": -1.05, "cluster_size": 20, "cluster_id": 1, "rank_in_cluster": 6}

>  <energy>  (42) 
-6.57

>  <cluster_rmsd>  (42) 
0.06

>  <cluster>  (42) 
8

$$$$

     RDKit          3D

 45 48  0  0  0  0  0  0  0  0999 V2000
  141.0870   74.5080  221.9530 O   0  0  0  0  0  0  0  0  0  0  0  0
  141.7690   74.9970  221.0190 C   0  0  0  0  0  0  0  0  0  0  0  0
  142.7320   74.1920  220.4560 C   0  0  0  0  0  0  0  0  0  0  0  0
  142.9110   72.9080  220.9190 C   0  0  0  0  0  0  0  0  0  0  0  0
  143.8860   72.1400  220.3230 C   0  0  0  0  0  0  0  0  0  0  0  0
  144.6260   72.6950  219.3000 C   0  0  0  0  0  0  0  0  0  0  0  0
  145.5790   71.9190  218.7290 F   0  0  0  0  0  0  0  0  0  0  0  0
  144.4420   73.9810  218.8390 C   0  0  0  0  0  0  0  0  0  0  0  0
  143.4650   74.7440  219.4400 C   0  0  0  0  0  0  0  0  0  0  0  0
  143.2510   75.9590  219.0430 N   0  0  0  0  0  0  0  0  0  0  0  0
  142.3020   76.7840  219.5840 C   0  0  0  0  0  0  0  0  0  0  0  0
  142.2630   78.1060  219.0260 C   0  0  0  0  0  0  0  0  0  0  0  0
  141.2860   78.9030  218.7210 C   0  0  0  0  0  0  0  0  0  0  0  0
  140.9350   80.1190  219.4730 C   0  0  0  0  0  0  0  0  0  0  0  0
  139.6270   80.3070  219.9130 C   0  0  0  0  0  0  0  0  0  0  0  0
  139.2300   81.4180  220.6210 C   0  0  0  0  0  0  0  0  0  0  0  0
  140.1320   82.4090  220.9260 C   0  0  0  0  0  0  0  0  0  0  0  0
  139.7060   83.4890  221.6230 F   0  0  0  0  0  0  0  0  0  0  0  0
  141.4280   82.2400  220.4990 C   0  0  0  0  0  0  0  0  0  0  0  0
  141.8290   81.1090  219.7800 C   0  0  0  0  0  0  0  0  0  0  0  0
  141.5570   76.2900  220.5820 N   0  0  0  0  0  0  0  0  0  0  0  0
  140.5070   76.9810  221.2580 C   0  0  0  0  0  0  0  0  0  0  0  0
  140.9210   78.0930  222.1220 C   0  0  0  0  0  0  0  0  0  0  0  0
  139.9600   78.6510  222.9870 C   0  0  0  0  0  0  0  0  0  0  0  0
  140.2450   79.7120  223.8070 C   0  0  0  0  0  0  0  0  0  0  0  0
  141.4940   80.2980  223.8350 C   0  0  0  0  0  0  0  0  0  0  0  0
  142.4480   79.7690  223.0000 C   0  0  0  0  0  0  0  0  0  0  0  0
  143.7170   80.3340  223.0020 O   0  0  0  0  0  0  0  0  0  0  0  0
  142.1480   78.6900  222.1690 C   0  0  0  0  0  0  0  0  0  0  0  0
  142.2952   72.5086  221.7383 H   0  0  0  0  0  0  0  0  0  0  0  0
  144.0705   71.1077  220.6551 H   0  0  0  0  0  0  0  0  0  0  0  0
  145.0545   74.3843  218.0191 H   0  0  0  0  0  0  0  0  0  0  0  0
  143.2576   78.5260  218.8156 H   0  0  0  0  0  0  0  0  0  0  0  0
  140.6776   78.6529  217.8393 H   0  0  0  0  0  0  0  0  0  0  0  0
  138.8788   79.5337  219.6845 H   0  0  0  0  0  0  0  0  0  0  0  0
  138.1832   81.5137  220.9452 H   0  0  0  0  0  0  0  0  0  0  0  0
  142.1715   83.0172  220.7296 H   0  0  0  0  0  0  0  0  0  0  0  0
  142.8763   81.0140  219.4572 H   0  0  0  0  0  0  0  0  0  0  0  0
  139.8235   77.3833  220.4958 H   0  0  0  0  0  0  0  0  0  0  0  0
  140.0473   76.2397  221.9282 H   0  0  0  0  0  0  0  0  0  0  0  0
  138.9475   78.2215  223.0053 H   0  0  0  0  0  0  0  0  0  0  0  0
  139.4548   80.1079  224.4619 H   0  0  0  0  0  0  0  0  0  0  0  0
  141.7155   81.1493  224.4954 H   0  0  0  0  0  0  0  0  0  0  0  0
  144.4350   79.9720  222.3830 H   0  0  0  0  0  0  0  0  0  0  0  0
  142.9425   78.2989  221.5164 H   0  0  0  0  0  0  0  0  0  0  0  0
  1  2  2  0
  2  3  1  0
  3  4  2  0
  4  5  1  0
  5  6  2  0
  6  7  1  0
  6  8  1  0
  8  9  2  0
  9 10  1  0
 10 11  2  0
 11 12  1  0
 12 13  2  0
 13 14  1  0
 14 15  2  0
 15 16  1  0
 16 17  2  0
 17 18  1  0
 17 19  1  0
 19 20  2  0
 11 21  1  0
 21 22  1  0
 22 23  1  0
 23 24  2  0
 24 25  1  0
 25 26  2  0
 26 27  1  0
 27 28  1  0
 27 29  2  0
 21  2  1  0
 29 23  1  0
  9  3  1  0
 20 14  1  0
  4 30  1  0
  5 31  1  0
  8 32  1  0
 12 33  1  0
 13 34  1  0
 15 35  1  0
 16 36  1  0
 19 37  1  0
 20 38  1  0
 22 39  1  0
 22 40  1  0
 24 41  1  0
 25 42  1  0
 26 43  1  0
 28 44  1  0
 29 45  1  0
M  END
>  <smiles>  (43) 
O=c1c2ccc(F)cc2nc(/C=C/c2ccc(F)cc2)n1Cc1cccc(O)c1

>  <score_type>  (43) 
oracle

>  <origin>  (43) 
autodockgpu

>  <m_score__min__energy>  (43) 
-8.3399999999999999

>  <m_primary>  (43) 
energy

>  <rmsd>  (43) 
4.376276580122977

>  <m_score__min__rmsd>  (43) 
4.376276580122977

>  <meeko>  (43) 
{"free_energy": -6.57, "intermolecular_energy": -8.36, "internal_energy": -1.77, "cluster_size": 17, "cluster_id": 8, "rank_in_cluster": 9}

>  <energy>  (43) 
-6.56

>  <cluster_rmsd>  (43) 
0.13

>  <cluster>  (43) 
8

$$$$

     RDKit          3D

 45 48  0  0  0  0  0  0  0  0999 V2000
  141.0740   74.4930  221.9530 O   0  0  0  0  0  0  0  0  0  0  0  0
  141.7710   74.9840  221.0310 C   0  0  0  0  0  0  0  0  0  0  0  0
  142.7380   74.1790  220.4770 C   0  0  0  0  0  0  0  0  0  0  0  0
  142.9070   72.8920  220.9360 C   0  0  0  0  0  0  0  0  0  0  0  0
  143.8870   72.1230  220.3490 C   0  0  0  0  0  0  0  0  0  0  0  0
  144.6420   72.6810  219.3380 C   0  0  0  0  0  0  0  0  0  0  0  0
  145.6010   71.9040  218.7770 F   0  0  0  0  0  0  0  0  0  0  0  0
  144.4690   73.9690  218.8820 C   0  0  0  0  0  0  0  0  0  0  0  0
  143.4860   74.7330  219.4730 C   0  0  0  0  0  0  0  0  0  0  0  0
  143.2810   75.9510  219.0790 N   0  0  0  0  0  0  0  0  0  0  0  0
  142.3280   76.7760  219.6120 C   0  0  0  0  0  0  0  0  0  0  0  0
  142.3010   78.1000  219.0590 C   0  0  0  0  0  0  0  0  0  0  0  0
  141.3310   78.8830  218.6980 C   0  0  0  0  0  0  0  0  0  0  0  0
  140.8830   80.0630  219.4550 C   0  0  0  0  0  0  0  0  0  0  0  0
  141.8030   81.0470  219.8090 C   0  0  0  0  0  0  0  0  0  0  0  0
  141.4550   82.1750  220.5160 C   0  0  0  0  0  0  0  0  0  0  0  0
  140.1530   82.3760  220.9090 C   0  0  0  0  0  0  0  0  0  0  0  0
  139.8450   83.4980  221.6040 F   0  0  0  0  0  0  0  0  0  0  0  0
  139.2310   81.4150  220.5690 C   0  0  0  0  0  0  0  0  0  0  0  0
  139.5890   80.2690  219.8490 C   0  0  0  0  0  0  0  0  0  0  0  0
  141.5690   76.2790  220.5970 N   0  0  0  0  0  0  0  0  0  0  0  0
  140.5120   76.9710  221.2630 C   0  0  0  0  0  0  0  0  0  0  0  0
  140.9170   78.0890  222.1240 C   0  0  0  0  0  0  0  0  0  0  0  0
  139.9370   78.6760  222.9490 C   0  0  0  0  0  0  0  0  0  0  0  0
  140.2140   79.7440  223.7620 C   0  0  0  0  0  0  0  0  0  0  0  0
  141.4720   80.3090  223.8230 C   0  0  0  0  0  0  0  0  0  0  0  0
  142.4430   79.7520  223.0270 C   0  0  0  0  0  0  0  0  0  0  0  0
  143.7210   80.2960  223.0630 O   0  0  0  0  0  0  0  0  0  0  0  0
  142.1520   78.6660  222.2020 C   0  0  0  0  0  0  0  0  0  0  0  0
  142.2794   72.4910  221.7455 H   0  0  0  0  0  0  0  0  0  0  0  0
  144.0637   71.0884  220.6783 H   0  0  0  0  0  0  0  0  0  0  0  0
  145.0945   74.3744  218.0731 H   0  0  0  0  0  0  0  0  0  0  0  0
  143.2995   78.5375  218.9121 H   0  0  0  0  0  0  0  0  0  0  0  0
  140.8066   78.6481  217.7600 H   0  0  0  0  0  0  0  0  0  0  0  0
  142.8536   80.9167  219.5104 H   0  0  0  0  0  0  0  0  0  0  0  0
  142.2234   82.9206  220.7683 H   0  0  0  0  0  0  0  0  0  0  0  0
  138.1820   81.5502  220.8712 H   0  0  0  0  0  0  0  0  0  0  0  0
  138.8198   79.5243  219.5967 H   0  0  0  0  0  0  0  0  0  0  0  0
  139.8323   77.3673  220.4942 H   0  0  0  0  0  0  0  0  0  0  0  0
  140.0503   76.2319  221.9342 H   0  0  0  0  0  0  0  0  0  0  0  0
  138.9171   78.2639  222.9402 H   0  0  0  0  0  0  0  0  0  0  0  0
  139.4099   80.1635  224.3845 H   0  0  0  0  0  0  0  0  0  0  0  0
  141.6869   81.1656  224.4787 H   0  0  0  0  0  0  0  0  0  0  0  0
  144.3990   80.0450  222.3500 H   0  0  0  0  0  0  0  0  0  0  0  0
  142.9603   78.2523  221.5811 H   0  0  0  0  0  0  0  0  0  0  0  0
  1  2  2  0
  2  3  1  0
  3  4  2  0
  4  5  1  0
  5  6  2  0
  6  7  1  0
  6  8  1  0
  8  9  2  0
  9 10  1  0
 10 11  2  0
 11 12  1  0
 12 13  2  0
 13 14  1  0
 14 15  2  0
 15 16  1  0
 16 17  2  0
 17 18  1  0
 17 19  1  0
 19 20  2  0
 11 21  1  0
 21 22  1  0
 22 23  1  0
 23 24  2  0
 24 25  1  0
 25 26  2  0
 26 27  1  0
 27 28  1  0
 27 29  2  0
 21  2  1  0
 29 23  1  0
  9  3  1  0
 20 14  1  0
  4 30  1  0
  5 31  1  0
  8 32  1  0
 12 33  1  0
 13 34  1  0
 15 35  1  0
 16 36  1  0
 19 37  1  0
 20 38  1  0
 22 39  1  0
 22 40  1  0
 24 41  1  0
 25 42  1  0
 26 43  1  0
 28 44  1  0
 29 45  1  0
M  END
>  <smiles>  (44) 
O=c1c2ccc(F)cc2nc(/C=C/c2ccc(F)cc2)n1Cc1cccc(O)c1

>  <score_type>  (44) 
oracle

>  <origin>  (44) 
autodockgpu

>  <m_score__min__energy>  (44) 
-8.3399999999999999

>  <m_primary>  (44) 
energy

>  <rmsd>  (44) 
4.381408792639423

>  <m_score__min__rmsd>  (44) 
4.381408792639423

>  <meeko>  (44) 
{"free_energy": -6.57, "intermolecular_energy": -8.36, "internal_energy": -1.78, "cluster_size": 17, "cluster_id": 8, "rank_in_cluster": 8}

>  <energy>  (44) 
-6.56

>  <cluster_rmsd>  (44) 
0.15

>  <cluster>  (44) 
8

$$$$

     RDKit          3D

 45 48  0  0  0  0  0  0  0  0999 V2000
  142.5430   75.3180  219.6640 O   0  0  0  0  0  0  0  0  0  0  0  0
  141.6450   75.0680  220.5060 C   0  0  0  0  0  0  0  0  0  0  0  0
  141.0620   76.1410  221.1390 C   0  0  0  0  0  0  0  0  0  0  0  0
  141.4670   77.4220  220.8360 C   0  0  0  0  0  0  0  0  0  0  0  0
  140.8530   78.4630  221.4950 C   0  0  0  0  0  0  0  0  0  0  0  0
  139.8700   78.1690  222.4170 C   0  0  0  0  0  0  0  0  0  0  0  0
  139.2810   79.2120  223.0520 F   0  0  0  0  0  0  0  0  0  0  0  0
  139.4680   76.8860  222.7160 C   0  0  0  0  0  0  0  0  0  0  0  0
  140.0860   75.8480  222.0530 C   0  0  0  0  0  0  0  0  0  0  0  0
  139.7440   74.6220  222.2980 N   0  0  0  0  0  0  0  0  0  0  0  0
  140.3060   73.5350  221.6850 C   0  0  0  0  0  0  0  0  0  0  0  0
  139.8110   72.2660  222.1360 C   0  0  0  0  0  0  0  0  0  0  0  0
  140.3770   71.2610  222.7290 C   0  0  0  0  0  0  0  0  0  0  0  0
  140.3060   70.9960  224.1760 C   0  0  0  0  0  0  0  0  0  0  0  0
  139.7280   69.8150  224.6350 C   0  0  0  0  0  0  0  0  0  0  0  0
  139.6280   69.5030  225.9710 C   0  0  0  0  0  0  0  0  0  0  0  0
  140.1060   70.3700  226.9260 C   0  0  0  0  0  0  0  0  0  0  0  0
  139.9910   70.0310  228.2320 F   0  0  0  0  0  0  0  0  0  0  0  0
  140.6790   71.5410  226.4910 C   0  0  0  0  0  0  0  0  0  0  0  0
  140.7800   71.8540  225.1310 C   0  0  0  0  0  0  0  0  0  0  0  0
  141.2660   73.7700  220.7810 N   0  0  0  0  0  0  0  0  0  0  0  0
  141.9550   72.7760  220.0220 C   0  0  0  0  0  0  0  0  0  0  0  0
  143.4170   72.9020  219.9760 C   0  0  0  0  0  0  0  0  0  0  0  0
  144.1200   72.8920  221.1980 C   0  0  0  0  0  0  0  0  0  0  0  0
  145.4820   73.0360  221.2570 C   0  0  0  0  0  0  0  0  0  0  0  0
  146.2490   73.1980  220.1210 C   0  0  0  0  0  0  0  0  0  0  0  0
  145.5840   73.2100  218.9180 C   0  0  0  0  0  0  0  0  0  0  0  0
  146.3250   73.3720  217.7540 O   0  0  0  0  0  0  0  0  0  0  0  0
  144.1990   73.0650  218.8680 C   0  0  0  0  0  0  0  0  0  0  0  0
  142.2554   77.6072  220.0916 H   0  0  0  0  0  0  0  0  0  0  0  0
  141.1396   79.5052  221.2911 H   0  0  0  0  0  0  0  0  0  0  0  0
  138.6798   76.6962  223.4594 H   0  0  0  0  0  0  0  0  0  0  0  0
  138.7391   72.1158  221.9400 H   0  0  0  0  0  0  0  0  0  0  0  0
  140.9503   70.5572  222.1077 H   0  0  0  0  0  0  0  0  0  0  0  0
  139.3343   69.1006  223.8970 H   0  0  0  0  0  0  0  0  0  0  0  0
  139.1630   68.5544  226.2775 H   0  0  0  0  0  0  0  0  0  0  0  0
  141.0694   72.2527  227.2334 H   0  0  0  0  0  0  0  0  0  0  0  0
  141.2465   72.8021  224.8254 H   0  0  0  0  0  0  0  0  0  0  0  0
  141.7150   71.7942  220.4562 H   0  0  0  0  0  0  0  0  0  0  0  0
  141.6129   72.9042  218.9845 H   0  0  0  0  0  0  0  0  0  0  0  0
  143.5573   72.7645  222.1346 H   0  0  0  0  0  0  0  0  0  0  0  0
  145.9782   73.0220  222.2386 H   0  0  0  0  0  0  0  0  0  0  0  0
  147.3417   73.3122  220.1758 H   0  0  0  0  0  0  0  0  0  0  0  0
  146.4920   74.3030  217.3840 H   0  0  0  0  0  0  0  0  0  0  0  0
  143.7091   73.0828  217.8833 H   0  0  0  0  0  0  0  0  0  0  0  0
  1  2  2  0
  2  3  1  0
  3  4  2  0
  4  5  1  0
  5  6  2  0
  6  7  1  0
  6  8  1  0
  8  9  2  0
  9 10  1  0
 10 11  2  0
 11 12  1  0
 12 13  2  0
 13 14  1  0
 14 15  2  0
 15 16  1  0
 16 17  2  0
 17 18  1  0
 17 19  1  0
 19 20  2  0
 11 21  1  0
 21 22  1  0
 22 23  1  0
 23 24  2  0
 24 25  1  0
 25 26  2  0
 26 27  1  0
 27 28  1  0
 27 29  2  0
 21  2  1  0
 29 23  1  0
  9  3  1  0
 20 14  1  0
  4 30  1  0
  5 31  1  0
  8 32  1  0
 12 33  1  0
 13 34  1  0
 15 35  1  0
 16 36  1  0
 19 37  1  0
 20 38  1  0
 22 39  1  0
 22 40  1  0
 24 41  1  0
 25 42  1  0
 26 43  1  0
 28 44  1  0
 29 45  1  0
M  END
>  <smiles>  (45) 
O=c1c2ccc(F)cc2nc(/C=C/c2ccc(F)cc2)n1Cc1cccc(O)c1

>  <score_type>  (45) 
oracle

>  <origin>  (45) 
autodockgpu

>  <m_score__min__energy>  (45) 
-8.3399999999999999

>  <m_primary>  (45) 
energy

>  <rmsd>  (45) 
7.707929087948125

>  <m_score__min__rmsd>  (45) 
7.707929087948125

>  <meeko>  (45) 
{"free_energy": -8.16, "intermolecular_energy": -9.95, "internal_energy": -0.84, "cluster_size": 20, "cluster_id": 1, "rank_in_cluster": 5}

>  <energy>  (45) 
-6.54

>  <cluster_rmsd>  (45) 
0.19

>  <cluster>  (45) 
8

$$$$

     RDKit          3D

 45 48  0  0  0  0  0  0  0  0999 V2000
  141.6660   75.9670  219.8680 O   0  0  0  0  0  0  0  0  0  0  0  0
  141.7000   74.8440  220.4290 C   0  0  0  0  0  0  0  0  0  0  0  0
  142.8290   74.0810  220.2420 C   0  0  0  0  0  0  0  0  0  0  0  0
  143.8620   74.5600  219.4670 C   0  0  0  0  0  0  0  0  0  0  0  0
  144.9720   73.7610  219.3090 C   0  0  0  0  0  0  0  0  0  0  0  0
  144.9890   72.5310  219.9340 C   0  0  0  0  0  0  0  0  0  0  0  0
  146.0940   71.7630  219.7630 F   0  0  0  0  0  0  0  0  0  0  0  0
  143.9540   72.0560  220.7090 C   0  0  0  0  0  0  0  0  0  0  0  0
  142.8460   72.8610  220.8620 C   0  0  0  0  0  0  0  0  0  0  0  0
  141.8450   72.4620  221.5820 N   0  0  0  0  0  0  0  0  0  0  0  0
  140.7090   73.1980  221.7860 C   0  0  0  0  0  0  0  0  0  0  0  0
  139.7050   72.5490  222.5800 C   0  0  0  0  0  0  0  0  0  0  0  0
  139.6250   71.3620  223.0990 C   0  0  0  0  0  0  0  0  0  0  0  0
  139.9360   71.0420  224.5020 C   0  0  0  0  0  0  0  0  0  0  0  0
  140.7760   71.8790  225.2330 C   0  0  0  0  0  0  0  0  0  0  0  0
  141.1080   71.6410  226.5460 C   0  0  0  0  0  0  0  0  0  0  0  0
  140.6120   70.5390  227.2020 C   0  0  0  0  0  0  0  0  0  0  0  0
  140.9600   70.3350  228.4950 F   0  0  0  0  0  0  0  0  0  0  0  0
  139.7820   69.7010  226.4960 C   0  0  0  0  0  0  0  0  0  0  0  0
  139.4450   69.9460  225.1600 C   0  0  0  0  0  0  0  0  0  0  0  0
  140.6440   74.4000  221.2000 N   0  0  0  0  0  0  0  0  0  0  0  0
  139.5600   75.3220  221.3090 C   0  0  0  0  0  0  0  0  0  0  0  0
  139.8430   76.5640  222.0390 C   0  0  0  0  0  0  0  0  0  0  0  0
  138.7520   77.3650  222.4300 C   0  0  0  0  0  0  0  0  0  0  0  0
  138.9200   78.5570  223.0860 C   0  0  0  0  0  0  0  0  0  0  0  0
  140.1710   79.0450  223.4050 C   0  0  0  0  0  0  0  0  0  0  0  0
  141.2500   78.2800  223.0340 C   0  0  0  0  0  0  0  0  0  0  0  0
  142.5240   78.7410  223.3390 O   0  0  0  0  0  0  0  0  0  0  0  0
  141.0690   77.0700  222.3660 C   0  0  0  0  0  0  0  0  0  0  0  0
  143.8020   75.5492  218.9896 H   0  0  0  0  0  0  0  0  0  0  0  0
  145.8245   74.0951  218.6994 H   0  0  0  0  0  0  0  0  0  0  0  0
  144.0100   71.0680  221.1893 H   0  0  0  0  0  0  0  0  0  0  0  0
  138.8307   73.1826  222.7902 H   0  0  0  0  0  0  0  0  0  0  0  0
  139.3025   70.5381  222.4454 H   0  0  0  0  0  0  0  0  0  0  0  0
  141.1919   72.7691  224.7383 H   0  0  0  0  0  0  0  0  0  0  0  0
  141.7752   72.3372  227.0754 H   0  0  0  0  0  0  0  0  0  0  0  0
  139.3706   68.8117  226.9959 H   0  0  0  0  0  0  0  0  0  0  0  0
  138.7773   69.2494  224.6318 H   0  0  0  0  0  0  0  0  0  0  0  0
  139.2459   75.5942  220.2906 H   0  0  0  0  0  0  0  0  0  0  0  0
  138.7868   74.8031  221.8947 H   0  0  0  0  0  0  0  0  0  0  0  0
  137.7319   77.0228  222.2014 H   0  0  0  0  0  0  0  0  0  0  0  0
  138.0315   79.1418  223.3664 H   0  0  0  0  0  0  0  0  0  0  0  0
  140.2982   80.0022  223.9319 H   0  0  0  0  0  0  0  0  0  0  0  0
  143.2930   78.5680  222.6990 H   0  0  0  0  0  0  0  0  0  0  0  0
  141.9619   76.4912  222.0870 H   0  0  0  0  0  0  0  0  0  0  0  0
  1  2  2  0
  2  3  1  0
  3  4  2  0
  4  5  1  0
  5  6  2  0
  6  7  1  0
  6  8  1  0
  8  9  2  0
  9 10  1  0
 10 11  2  0
 11 12  1  0
 12 13  2  0
 13 14  1  0
 14 15  2  0
 15 16  1  0
 16 17  2  0
 17 18  1  0
 17 19  1  0
 19 20  2  0
 11 21  1  0
 21 22  1  0
 22 23  1  0
 23 24  2  0
 24 25  1  0
 25 26  2  0
 26 27  1  0
 27 28  1  0
 27 29  2  0
 21  2  1  0
 29 23  1  0
  9  3  1  0
 20 14  1  0
  4 30  1  0
  5 31  1  0
  8 32  1  0
 12 33  1  0
 13 34  1  0
 15 35  1  0
 16 36  1  0
 19 37  1  0
 20 38  1  0
 22 39  1  0
 22 40  1  0
 24 41  1  0
 25 42  1  0
 26 43  1  0
 28 44  1  0
 29 45  1  0
M  END
>  <smiles>  (46) 
O=c1c2ccc(F)cc2nc(/C=C/c2ccc(F)cc2)n1Cc1cccc(O)c1

>  <score_type>  (46) 
oracle

>  <origin>  (46) 
autodockgpu

>  <m_score__min__energy>  (46) 
-8.3399999999999999

>  <m_primary>  (46) 
energy

>  <rmsd>  (46) 
4.55817416110735

>  <m_score__min__rmsd>  (46) 
4.55817416110735

>  <meeko>  (46) 
{"free_energy": -7.56, "intermolecular_energy": -9.35, "internal_energy": -0.79, "cluster_size": 4, "cluster_id": 2, "rank_in_cluster": 2}

>  <energy>  (46) 
-6.54

>  <cluster_rmsd>  (46) 
0.34

>  <cluster>  (46) 
8

$$$$

     RDKit          3D

 45 48  0  0  0  0  0  0  0  0999 V2000
  141.8190   74.1330  218.6250 O   0  0  0  0  0  0  0  0  0  0  0  0
  141.4330   74.1070  219.8200 C   0  0  0  0  0  0  0  0  0  0  0  0
  141.1640   75.3150  220.4200 C   0  0  0  0  0  0  0  0  0  0  0  0
  141.3190   76.4850  219.7100 C   0  0  0  0  0  0  0  0  0  0  0  0
  141.0350   77.6690  220.3530 C   0  0  0  0  0  0  0  0  0  0  0  0
  140.6150   77.6190  221.6660 C   0  0  0  0  0  0  0  0  0  0  0  0
  140.3420   78.7990  222.2760 F   0  0  0  0  0  0  0  0  0  0  0  0
  140.4620   76.4460  222.3720 C   0  0  0  0  0  0  0  0  0  0  0  0
  140.7460   75.2650  221.7220 C   0  0  0  0  0  0  0  0  0  0  0  0
  140.6170   74.1330  222.3420 N   0  0  0  0  0  0  0  0  0  0  0  0
  140.8780   72.9160  221.7720 C   0  0  0  0  0  0  0  0  0  0  0  0
  140.7130   71.7920  222.6490 C   0  0  0  0  0  0  0  0  0  0  0  0
  139.8180   71.4960  223.5400 C   0  0  0  0  0  0  0  0  0  0  0  0
  140.1180   70.9770  224.8840 C   0  0  0  0  0  0  0  0  0  0  0  0
  139.6530   69.7190  225.2590 C   0  0  0  0  0  0  0  0  0  0  0  0
  139.8970   69.1720  226.4980 C   0  0  0  0  0  0  0  0  0  0  0  0
  140.6250   69.8660  227.4350 C   0  0  0  0  0  0  0  0  0  0  0  0
  140.8450   69.2980  228.6450 F   0  0  0  0  0  0  0  0  0  0  0  0
  141.0910   71.1100  227.0820 C   0  0  0  0  0  0  0  0  0  0  0  0
  140.8420   71.6630  225.8210 C   0  0  0  0  0  0  0  0  0  0  0  0
  141.2900   72.9120  220.4970 N   0  0  0  0  0  0  0  0  0  0  0  0
  141.5900   71.7510  219.7230 C   0  0  0  0  0  0  0  0  0  0  0  0
  143.0150   71.4760  219.5020 C   0  0  0  0  0  0  0  0  0  0  0  0
  143.4370   70.1320  219.5080 C   0  0  0  0  0  0  0  0  0  0  0  0
  144.7520   69.7800  219.3420 C   0  0  0  0  0  0  0  0  0  0  0  0
  145.7430   70.7230  219.1580 C   0  0  0  0  0  0  0  0  0  0  0  0
  145.3530   72.0410  219.1490 C   0  0  0  0  0  0  0  0  0  0  0  0
  146.3250   73.0170  218.9670 O   0  0  0  0  0  0  0  0  0  0  0  0
  144.0140   72.3890  219.3190 C   0  0  0  0  0  0  0  0  0  0  0  0
  141.6585   76.4739  218.6638 H   0  0  0  0  0  0  0  0  0  0  0  0
  141.1405   78.6320  219.8320 H   0  0  0  0  0  0  0  0  0  0  0  0
  140.1246   76.4521  223.4190 H   0  0  0  0  0  0  0  0  0  0  0  0
  141.5009   71.0315  222.5451 H   0  0  0  0  0  0  0  0  0  0  0  0
  138.7612   71.6432  223.2724 H   0  0  0  0  0  0  0  0  0  0  0  0
  139.0653   69.1374  224.5335 H   0  0  0  0  0  0  0  0  0  0  0  0
  139.5068   68.1725  226.7402 H   0  0  0  0  0  0  0  0  0  0  0  0
  141.6768   71.6877  227.8121 H   0  0  0  0  0  0  0  0  0  0  0  0
  141.2334   72.6623  225.5797 H   0  0  0  0  0  0  0  0  0  0  0  0
  141.1553   70.8816  220.2379 H   0  0  0  0  0  0  0  0  0  0  0  0
  141.1664   71.9415  218.7259 H   0  0  0  0  0  0  0  0  0  0  0  0
  142.6877   69.3394  219.6504 H   0  0  0  0  0  0  0  0  0  0  0  0
  145.0251   68.7145  219.3559 H   0  0  0  0  0  0  0  0  0  0  0  0
  146.7958   70.4333  219.0248 H   0  0  0  0  0  0  0  0  0  0  0  0
  146.0520   73.9850  218.8280 H   0  0  0  0  0  0  0  0  0  0  0  0
  143.7477   73.4562  219.3050 H   0  0  0  0  0  0  0  0  0  0  0  0
  1  2  2  0
  2  3  1  0
  3  4  2  0
  4  5  1  0
  5  6  2  0
  6  7  1  0
  6  8  1  0
  8  9  2  0
  9 10  1  0
 10 11  2  0
 11 12  1  0
 12 13  2  0
 13 14  1  0
 14 15  2  0
 15 16  1  0
 16 17  2  0
 17 18  1  0
 17 19  1  0
 19 20  2  0
 11 21  1  0
 21 22  1  0
 22 23  1  0
 23 24  2  0
 24 25  1  0
 25 26  2  0
 26 27  1  0
 27 28  1  0
 27 29  2  0
 21  2  1  0
 29 23  1  0
  9  3  1  0
 20 14  1  0
  4 30  1  0
  5 31  1  0
  8 32  1  0
 12 33  1  0
 13 34  1  0
 15 35  1  0
 16 36  1  0
 19 37  1  0
 20 38  1  0
 22 39  1  0
 22 40  1  0
 24 41  1  0
 25 42  1  0
 26 43  1  0
 28 44  1  0
 29 45  1  0
M  END
>  <smiles>  (47) 
O=c1c2ccc(F)cc2nc(/C=C/c2ccc(F)cc2)n1Cc1cccc(O)c1

>  <score_type>  (47) 
oracle

>  <origin>  (47) 
autodockgpu

>  <m_score__min__energy>  (47) 
-8.3399999999999999

>  <m_primary>  (47) 
energy

>  <rmsd>  (47) 
8.718392343503547

>  <m_score__min__rmsd>  (47) 
8.718392343503547

>  <meeko>  (47) 
{"free_energy": -7.83, "intermolecular_energy": -9.62, "internal_energy": -0.81, "cluster_size": 20, "cluster_id": 1, "rank_in_cluster": 7}

>  <energy>  (47) 
-6.52

>  <cluster_rmsd>  (47) 
0.08

>  <cluster>  (47) 
8

$$$$

     RDKit          3D

 45 48  0  0  0  0  0  0  0  0999 V2000
  141.1630   74.6630  221.9430 O   0  0  0  0  0  0  0  0  0  0  0  0
  141.6870   75.1190  220.8960 C   0  0  0  0  0  0  0  0  0  0  0  0
  142.6660   74.3580  220.3010 C   0  0  0  0  0  0  0  0  0  0  0  0
  143.0290   73.1500  220.8530 C   0  0  0  0  0  0  0  0  0  0  0  0
  144.0120   72.4230  220.2190 C   0  0  0  0  0  0  0  0  0  0  0  0
  144.5760   72.9420  219.0720 C   0  0  0  0  0  0  0  0  0  0  0  0
  145.5420   72.2070  218.4670 F   0  0  0  0  0  0  0  0  0  0  0  0
  144.2090   74.1510  218.5230 C   0  0  0  0  0  0  0  0  0  0  0  0
  143.2240   74.8730  219.1620 C   0  0  0  0  0  0  0  0  0  0  0  0
  142.8410   76.0160  218.6860 N   0  0  0  0  0  0  0  0  0  0  0  0
  141.8720   76.7960  219.2570 C   0  0  0  0  0  0  0  0  0  0  0  0
  141.6340   78.0450  218.5910 C   0  0  0  0  0  0  0  0  0  0  0  0
  142.0210   79.2590  218.8350 C   0  0  0  0  0  0  0  0  0  0  0  0
  141.2060   80.2740  219.5210 C   0  0  0  0  0  0  0  0  0  0  0  0
  141.8260   81.3520  220.1480 C   0  0  0  0  0  0  0  0  0  0  0  0
  141.1270   82.3360  220.8070 C   0  0  0  0  0  0  0  0  0  0  0  0
  139.7540   82.2890  220.8740 C   0  0  0  0  0  0  0  0  0  0  0  0
  139.0970   83.2750  221.5310 F   0  0  0  0  0  0  0  0  0  0  0  0
  139.1250   81.2320  220.2610 C   0  0  0  0  0  0  0  0  0  0  0  0
  139.8390   80.2330  219.5910 C   0  0  0  0  0  0  0  0  0  0  0  0
  141.2940   76.3350  220.3730 N   0  0  0  0  0  0  0  0  0  0  0  0
  140.2530   76.9860  221.1020 C   0  0  0  0  0  0  0  0  0  0  0  0
  140.6780   78.0560  222.0130 C   0  0  0  0  0  0  0  0  0  0  0  0
  139.7090   78.6220  222.8650 C   0  0  0  0  0  0  0  0  0  0  0  0
  140.0050   79.6460  223.7260 C   0  0  0  0  0  0  0  0  0  0  0  0
  141.2730   80.1860  223.8110 C   0  0  0  0  0  0  0  0  0  0  0  0
  142.2330   79.6490  222.9890 C   0  0  0  0  0  0  0  0  0  0  0  0
  143.5200   80.1680  223.0480 O   0  0  0  0  0  0  0  0  0  0  0  0
  141.9230   78.6070  222.1160 C   0  0  0  0  0  0  0  0  0  0  0  0
  142.5496   72.7777  221.7704 H   0  0  0  0  0  0  0  0  0  0  0  0
  144.3396   71.4516  220.6177 H   0  0  0  0  0  0  0  0  0  0  0  0
  144.6858   74.5273  217.6059 H   0  0  0  0  0  0  0  0  0  0  0  0
  140.9983   77.9552  217.6978 H   0  0  0  0  0  0  0  0  0  0  0  0
  143.0294   79.5500  218.5059 H   0  0  0  0  0  0  0  0  0  0  0  0
  142.9234   81.4193  220.1146 H   0  0  0  0  0  0  0  0  0  0  0  0
  141.6693   83.1659  221.2836 H   0  0  0  0  0  0  0  0  0  0  0  0
  138.0274   81.1697  220.2983 H   0  0  0  0  0  0  0  0  0  0  0  0
  139.2955   79.4039  219.1143 H   0  0  0  0  0  0  0  0  0  0  0  0
  139.5538   77.4221  220.3734 H   0  0  0  0  0  0  0  0  0  0  0  0
  139.8091   76.2097  221.7426 H   0  0  0  0  0  0  0  0  0  0  0  0
  138.6819   78.2292  222.8381 H   0  0  0  0  0  0  0  0  0  0  0  0
  139.2088   80.0499  224.3686 H   0  0  0  0  0  0  0  0  0  0  0  0
  141.5034   81.0079  224.5048 H   0  0  0  0  0  0  0  0  0  0  0  0
  144.2140   79.8850  222.3630 H   0  0  0  0  0  0  0  0  0  0  0  0
  142.7239   78.2077  221.4764 H   0  0  0  0  0  0  0  0  0  0  0  0
  1  2  2  0
  2  3  1  0
  3  4  2  0
  4  5  1  0
  5  6  2  0
  6  7  1  0
  6  8  1  0
  8  9  2  0
  9 10  1  0
 10 11  2  0
 11 12  1  0
 12 13  2  0
 13 14  1  0
 14 15  2  0
 15 16  1  0
 16 17  2  0
 17 18  1  0
 17 19  1  0
 19 20  2  0
 11 21  1  0
 21 22  1  0
 22 23  1  0
 23 24  2  0
 24 25  1  0
 25 26  2  0
 26 27  1  0
 27 28  1  0
 27 29  2  0
 21  2  1  0
 29 23  1  0
  9  3  1  0
 20 14  1  0
  4 30  1  0
  5 31  1  0
  8 32  1  0
 12 33  1  0
 13 34  1  0
 15 35  1  0
 16 36  1  0
 19 37  1  0
 20 38  1  0
 22 39  1  0
 22 40  1  0
 24 41  1  0
 25 42  1  0
 26 43  1  0
 28 44  1  0
 29 45  1  0
M  END
>  <smiles>  (48) 
O=c1c2ccc(F)cc2nc(/C=C/c2ccc(F)cc2)n1Cc1cccc(O)c1

>  <score_type>  (48) 
oracle

>  <origin>  (48) 
autodockgpu

>  <m_score__min__energy>  (48) 
-8.3399999999999999

>  <m_primary>  (48) 
energy

>  <rmsd>  (48) 
4.302557736349829

>  <m_score__min__rmsd>  (48) 
4.302557736349829

>  <meeko>  (48) 
{"free_energy": -6.27, "intermolecular_energy": -8.06, "internal_energy": -1.87, "cluster_size": 17, "cluster_id": 8, "rank_in_cluster": 17}

>  <energy>  (48) 
-6.39

>  <cluster_rmsd>  (48) 
0.21

>  <cluster>  (48) 
8

$$$$

     RDKit          3D

 45 48  0  0  0  0  0  0  0  0999 V2000
  142.5420   76.5630  219.5100 O   0  0  0  0  0  0  0  0  0  0  0  0
  141.6990   76.3780  220.4230 C   0  0  0  0  0  0  0  0  0  0  0  0
  141.4440   77.4340  221.2660 C   0  0  0  0  0  0  0  0  0  0  0  0
  142.1010   78.6310  221.0870 C   0  0  0  0  0  0  0  0  0  0  0  0
  141.8100   79.6600  221.9550 C   0  0  0  0  0  0  0  0  0  0  0  0
  140.8820   79.4360  222.9510 C   0  0  0  0  0  0  0  0  0  0  0  0
  140.6140   80.4640  223.7930 F   0  0  0  0  0  0  0  0  0  0  0  0
  140.2280   78.2370  223.1260 C   0  0  0  0  0  0  0  0  0  0  0  0
  140.5220   77.2120  222.2530 C   0  0  0  0  0  0  0  0  0  0  0  0
  139.9330   76.0630  222.3740 N   0  0  0  0  0  0  0  0  0  0  0  0
  140.1670   74.9950  221.5510 C   0  0  0  0  0  0  0  0  0  0  0  0
  139.4400   73.8040  221.8890 C   0  0  0  0  0  0  0  0  0  0  0  0
  139.7630   72.5470  221.8900 C   0  0  0  0  0  0  0  0  0  0  0  0
  139.7980   71.6960  223.0910 C   0  0  0  0  0  0  0  0  0  0  0  0
  138.8840   70.6530  223.2260 C   0  0  0  0  0  0  0  0  0  0  0  0
  138.8610   69.8190  224.3200 C   0  0  0  0  0  0  0  0  0  0  0  0
  139.7600   69.9900  225.3460 C   0  0  0  0  0  0  0  0  0  0  0  0
  139.7070   69.1500  226.4080 F   0  0  0  0  0  0  0  0  0  0  0  0
  140.6690   71.0140  225.2290 C   0  0  0  0  0  0  0  0  0  0  0  0
  140.6910   71.8600  224.1150 C   0  0  0  0  0  0  0  0  0  0  0  0
  141.0610   75.1620  220.5680 N   0  0  0  0  0  0  0  0  0  0  0  0
  141.4250   74.1800  219.5980 C   0  0  0  0  0  0  0  0  0  0  0  0
  142.7350   73.5450  219.7860 C   0  0  0  0  0  0  0  0  0  0  0  0
  142.8860   72.6480  220.8620 C   0  0  0  0  0  0  0  0  0  0  0  0
  144.0800   72.0320  221.1350 C   0  0  0  0  0  0  0  0  0  0  0  0
  145.2080   72.2530  220.3720 C   0  0  0  0  0  0  0  0  0  0  0  0
  145.0830   73.1250  219.3170 C   0  0  0  0  0  0  0  0  0  0  0  0
  146.1990   73.3720  218.5280 O   0  0  0  0  0  0  0  0  0  0  0  0
  143.8660   73.7480  219.0470 C   0  0  0  0  0  0  0  0  0  0  0  0
  142.8342   78.7610  220.2773 H   0  0  0  0  0  0  0  0  0  0  0  0
  142.3056   80.6371  221.8565 H   0  0  0  0  0  0  0  0  0  0  0  0
  139.4955   78.1018  223.9354 H   0  0  0  0  0  0  0  0  0  0  0  0
  138.4054   73.9944  222.2105 H   0  0  0  0  0  0  0  0  0  0  0  0
  140.0289   72.0857  220.9274 H   0  0  0  0  0  0  0  0  0  0  0  0
  138.1495   70.4894  222.4237 H   0  0  0  0  0  0  0  0  0  0  0  0
  138.1180   69.0096  224.3742 H   0  0  0  0  0  0  0  0  0  0  0  0
  141.4007   71.1731  226.0348 H   0  0  0  0  0  0  0  0  0  0  0  0
  141.4359   72.6677  224.0615 H   0  0  0  0  0  0  0  0  0  0  0  0
  140.6614   73.3885  219.6174 H   0  0  0  0  0  0  0  0  0  0  0  0
  141.4908   74.7184  218.6410 H   0  0  0  0  0  0  0  0  0  0  0  0
  142.0182   72.4351  221.5035 H   0  0  0  0  0  0  0  0  0  0  0  0
  144.1405   71.3405  221.9883 H   0  0  0  0  0  0  0  0  0  0  0  0
  146.1624   71.7548  220.5974 H   0  0  0  0  0  0  0  0  0  0  0  0
  146.2400   74.2080  217.9530 H   0  0  0  0  0  0  0  0  0  0  0  0
  143.8132   74.4400  218.1935 H   0  0  0  0  0  0  0  0  0  0  0  0
  1  2  2  0
  2  3  1  0
  3  4  2  0
  4  5  1  0
  5  6  2  0
  6  7  1  0
  6  8  1  0
  8  9  2  0
  9 10  1  0
 10 11  2  0
 11 12  1  0
 12 13  2  0
 13 14  1  0
 14 15  2  0
 15 16  1  0
 16 17  2  0
 17 18  1  0
 17 19  1  0
 19 20  2  0
 11 21  1  0
 21 22  1  0
 22 23  1  0
 23 24  2  0
 24 25  1  0
 25 26  2  0
 26 27  1  0
 27 28  1  0
 27 29  2  0
 21  2  1  0
 29 23  1  0
  9  3  1  0
 20 14  1  0
  4 30  1  0
  5 31  1  0
  8 32  1  0
 12 33  1  0
 13 34  1  0
 15 35  1  0
 16 36  1  0
 19 37  1  0
 20 38  1  0
 22 39  1  0
 22 40  1  0
 24 41  1  0
 25 42  1  0
 26 43  1  0
 28 44  1  0
 29 45  1  0
M  END
>  <smiles>  (49) 
O=c1c2ccc(F)cc2nc(/C=C/c2ccc(F)cc2)n1Cc1cccc(O)c1

>  <score_type>  (49) 
oracle

>  <origin>  (49) 
autodockgpu

>  <m_score__min__energy>  (49) 
-8.3399999999999999

>  <m_primary>  (49) 
energy

>  <rmsd>  (49) 
7.594242503797399

>  <m_score__min__rmsd>  (49) 
7.594242503797399

>  <meeko>  (49) 
{"free_energy": -7.28, "intermolecular_energy": -9.07, "internal_energy": -1.18, "cluster_size": 20, "cluster_id": 1, "rank_in_cluster": 17}

>  <energy>  (49) 
-6.27

>  <cluster_rmsd>  (49) 
0.4

>  <cluster>  (49) 
8

$$$$

     RDKit          3D

 45 48  0  0  0  0  0  0  0  0999 V2000
  135.3320   73.1130  222.4600 O   0  0  0  0  0  0  0  0  0  0  0  0
  136.4480   72.5510  222.5890 C   0  0  0  0  0  0  0  0  0  0  0  0
  137.5600   73.2680  222.2140 C   0  0  0  0  0  0  0  0  0  0  0  0
  137.4210   74.5470  221.7240 C   0  0  0  0  0  0  0  0  0  0  0  0
  138.5630   75.2260  221.3640 C   0  0  0  0  0  0  0  0  0  0  0  0
  139.7790   74.5910  221.5130 C   0  0  0  0  0  0  0  0  0  0  0  0
  140.8890   75.2800  221.1500 F   0  0  0  0  0  0  0  0  0  0  0  0
  139.9130   73.3110  222.0040 C   0  0  0  0  0  0  0  0  0  0  0  0
  138.7660   72.6380  222.3630 C   0  0  0  0  0  0  0  0  0  0  0  0
  138.8380   71.4310  222.8320 N   0  0  0  0  0  0  0  0  0  0  0  0
  137.7500   70.6930  223.2120 C   0  0  0  0  0  0  0  0  0  0  0  0
  138.0500   69.3640  223.6620 C   0  0  0  0  0  0  0  0  0  0  0  0
  138.4740   68.8930  224.7940 C   0  0  0  0  0  0  0  0  0  0  0  0
  139.2830   69.6510  225.7630 C   0  0  0  0  0  0  0  0  0  0  0  0
  140.1740   70.6210  225.3110 C   0  0  0  0  0  0  0  0  0  0  0  0
  140.9600   71.3660  226.1600 C   0  0  0  0  0  0  0  0  0  0  0  0
  140.8930   71.1740  227.5200 C   0  0  0  0  0  0  0  0  0  0  0  0
  141.6800   71.9250  228.3260 F   0  0  0  0  0  0  0  0  0  0  0  0
  140.0190   70.2200  227.9830 C   0  0  0  0  0  0  0  0  0  0  0  0
  139.2200   69.4650  227.1180 C   0  0  0  0  0  0  0  0  0  0  0  0
  136.5460   71.2670  223.0860 N   0  0  0  0  0  0  0  0  0  0  0  0
  135.2990   70.6730  223.4470 C   0  0  0  0  0  0  0  0  0  0  0  0
  134.8390   70.9260  224.8180 C   0  0  0  0  0  0  0  0  0  0  0  0
  134.9260   69.8720  225.7490 C   0  0  0  0  0  0  0  0  0  0  0  0
  134.4920   70.0040  227.0430 C   0  0  0  0  0  0  0  0  0  0  0  0
  133.9430   71.1810  227.5120 C   0  0  0  0  0  0  0  0  0  0  0  0
  133.8490   72.2220  226.6210 C   0  0  0  0  0  0  0  0  0  0  0  0
  133.3020   73.4210  227.0600 O   0  0  0  0  0  0  0  0  0  0  0  0
  134.2930   72.0780  225.3070 C   0  0  0  0  0  0  0  0  0  0  0  0
  136.4290   75.0115  221.6234 H   0  0  0  0  0  0  0  0  0  0  0  0
  138.5076   76.2504  220.9670 H   0  0  0  0  0  0  0  0  0  0  0  0
  140.9028   72.8420  222.1060 H   0  0  0  0  0  0  0  0  0  0  0  0
  137.8885   68.5917  222.8955 H   0  0  0  0  0  0  0  0  0  0  0  0
  138.2109   67.8554  225.0475 H   0  0  0  0  0  0  0  0  0  0  0  0
  140.2529   70.7994  224.2284 H   0  0  0  0  0  0  0  0  0  0  0  0
  141.6466   72.1202  225.7480 H   0  0  0  0  0  0  0  0  0  0  0  0
  139.9455   70.0448  229.0665 H   0  0  0  0  0  0  0  0  0  0  0  0
  138.5325   68.7125  227.5315 H   0  0  0  0  0  0  0  0  0  0  0  0
  134.5317   71.0563  222.7584 H   0  0  0  0  0  0  0  0  0  0  0  0
  135.4584   69.5865  223.3833 H   0  0  0  0  0  0  0  0  0  0  0  0
  135.3561   68.9120  225.4273 H   0  0  0  0  0  0  0  0  0  0  0  0
  134.5839   69.1476  227.7272 H   0  0  0  0  0  0  0  0  0  0  0  0
  133.5968   71.2803  228.5514 H   0  0  0  0  0  0  0  0  0  0  0  0
  132.8530   73.4710  227.9700 H   0  0  0  0  0  0  0  0  0  0  0  0
  134.1983   72.9384  224.6282 H   0  0  0  0  0  0  0  0  0  0  0  0
  1  2  2  0
  2  3  1  0
  3  4  2  0
  4  5  1  0
  5  6  2  0
  6  7  1  0
  6  8  1  0
  8  9  2  0
  9 10  1  0
 10 11  2  0
 11 12  1  0
 12 13  2  0
 13 14  1  0
 14 15  2  0
 15 16  1  0
 16 17  2  0
 17 18  1  0
 17 19  1  0
 19 20  2  0
 11 21  1  0
 21 22  1  0
 22 23  1  0
 23 24  2  0
 24 25  1  0
 25 26  2  0
 26 27  1  0
 27 28  1  0
 27 29  2  0
 21  2  1  0
 29 23  1  0
  9  3  1  0
 20 14  1  0
  4 30  1  0
  5 31  1  0
  8 32  1  0
 12 33  1  0
 13 34  1  0
 15 35  1  0
 16 36  1  0
 19 37  1  0
 20 38  1  0
 22 39  1  0
 22 40  1  0
 24 41  1  0
 25 42  1  0
 26 43  1  0
 28 44  1  0
 29 45  1  0
M  END
>  <smiles>  (50) 
O=c1c2ccc(F)cc2nc(/C=C/c2ccc(F)cc2)n1Cc1cccc(O)c1

>  <score_type>  (50) 
oracle

>  <origin>  (50) 
autodockgpu

>  <m_score__min__energy>  (50) 
-8.3399999999999999

>  <m_primary>  (50) 
energy

>  <rmsd>  (50) 
9.995607685813162

>  <m_score__min__rmsd>  (50) 
9.995607685813162

>  <meeko>  (50) 
{"free_energy": -6.89, "intermolecular_energy": -8.68, "internal_energy": -1.43, "cluster_size": 3, "cluster_id": 5, "rank_in_cluster": 2}

>  <energy>  (50) 
-6.42

>  <cluster_rmsd>  (50) 
0.0

>  <cluster>  (50) 
9

$$$$
