
     RDKit          3D

 48 51  0  0  0  0  0  0  0  0999 V2000
  141.2790   72.9790  221.2010 O   0  0  0  0  0  0  0  0  0  0  0  0
  140.3340   73.1350  221.9980 C   0  0  0  0  0  0  0  0  0  0  0  0
  139.7040   74.3980  222.1210 N   0  0  0  0  0  0  0  0  0  0  0  0
  140.0880   75.5680  221.3620 C   0  0  0  0  0  0  0  0  0  0  0  0
  139.7250   76.7950  222.1000 C   0  0  0  0  0  0  0  0  0  0  0  0
  138.6500   76.9350  222.7460 O   0  0  0  0  0  0  0  0  0  0  0  0
  140.6140   77.9050  222.1060 N   0  0  0  0  0  0  0  0  0  0  0  0
  141.4410   78.2560  223.2240 C   0  0  0  0  0  0  0  0  0  0  0  0
  142.3060   79.4080  222.7950 C   0  0  0  0  0  0  0  0  0  0  0  0
  141.5540   80.0070  221.6330 C   0  0  0  0  0  0  0  0  0  0  0  0
  140.8400   78.8400  221.0400 C   0  0  1  0  0  0  0  0  0  0  0  0
  141.5590   78.2030  219.9050 C   0  0  0  0  0  0  0  0  0  0  0  0
  141.4210   78.6370  218.5940 C   0  0  0  0  0  0  0  0  0  0  0  0
  142.0660   78.0700  217.5340 C   0  0  0  0  0  0  0  0  0  0  0  0
  142.9070   77.0080  217.7470 C   0  0  0  0  0  0  0  0  0  0  0  0
  143.7140   76.3130  216.3610 Cl  0  0  0  0  0  0  0  0  0  0  0  0
  143.0860   76.5310  219.0270 C   0  0  0  0  0  0  0  0  0  0  0  0
  142.4200   77.1220  220.0860 C   0  0  0  0  0  0  0  0  0  0  0  0
  139.8560   72.0090  222.8270 C   0  0  0  0  0  0  0  0  0  0  0  0
  138.8070   71.2350  222.3660 C   0  0  0  0  0  0  0  0  0  0  0  0
  138.3940   70.1920  223.1770 C   0  0  0  0  0  0  0  0  0  0  0  0
  138.9790   69.9120  224.3900 C   0  0  0  0  0  0  0  0  0  0  0  0
  138.5540   68.8570  225.1990 C   0  0  0  0  0  0  0  0  0  0  0  0
  139.2110   68.6620  226.4010 C   0  0  0  0  0  0  0  0  0  0  0  0
  140.2660   69.4890  226.7980 C   0  0  0  0  0  0  0  0  0  0  0  0
  141.0460   69.1760  228.3350 Cl  0  0  0  0  0  0  0  0  0  0  0  0
  140.6820   70.5300  225.9950 C   0  0  0  0  0  0  0  0  0  0  0  0
  140.0310   70.7320  224.7930 C   0  0  0  0  0  0  0  0  0  0  0  0
  140.4410   71.7480  224.0130 N   0  0  0  0  0  0  0  0  0  0  0  0
  138.9050   74.4700  222.8160 H   0  0  0  0  0  0  0  0  0  0  0  0
  141.1751   75.5524  221.1950 H   0  0  0  0  0  0  0  0  0  0  0  0
  139.5603   75.5596  220.3969 H   0  0  0  0  0  0  0  0  0  0  0  0
  140.8140   78.5533  224.0775 H   0  0  0  0  0  0  0  0  0  0  0  0
  142.0580   77.4005  223.5362 H   0  0  0  0  0  0  0  0  0  0  0  0
  142.4172   80.1394  223.6091 H   0  0  0  0  0  0  0  0  0  0  0  0
  143.3269   79.0978  222.5275 H   0  0  0  0  0  0  0  0  0  0  0  0
  140.8408   80.7702  221.9779 H   0  0  0  0  0  0  0  0  0  0  0  0
  142.2125   80.5162  220.9139 H   0  0  0  0  0  0  0  0  0  0  0  0
  139.8951   79.1885  220.5977 H   0  0  0  0  0  0  0  0  0  0  0  0
  140.7523   79.4881  218.3981 H   0  0  0  0  0  0  0  0  0  0  0  0
  141.9128   78.4612  216.5174 H   0  0  0  0  0  0  0  0  0  0  0  0
  143.7589   75.6797  219.2072 H   0  0  0  0  0  0  0  0  0  0  0  0
  142.5746   76.7270  221.1009 H   0  0  0  0  0  0  0  0  0  0  0  0
  138.3230   71.4387  221.3994 H   0  0  0  0  0  0  0  0  0  0  0  0
  137.5612   69.5592  222.8364 H   0  0  0  0  0  0  0  0  0  0  0  0
  137.7249   68.2028  224.8914 H   0  0  0  0  0  0  0  0  0  0  0  0
  138.8963   67.8383  227.0586 H   0  0  0  0  0  0  0  0  0  0  0  0
  141.5114   71.1833  226.3036 H   0  0  0  0  0  0  0  0  0  0  0  0
  1  2  2  0
  2  3  1  0
  3  4  1  0
  4  5  1  0
  5  6  2  0
  5  7  1  0
  7  8  1  0
  8  9  1  0
  9 10  1  0
 10 11  1  0
 11 12  1  0
 12 13  2  0
 13 14  1  0
 14 15  2  0
 15 16  1  0
 15 17  1  0
 17 18  2  0
  2 19  1  0
 19 20  2  0
 20 21  1  0
 21 22  2  0
 22 23  1  0
 23 24  2  0
 24 25  1  0
 25 26  1  0
 25 27  2  0
 27 28  1  0
 28 29  2  0
 11  7  1  0
 18 12  1  0
 29 19  1  0
 28 22  1  0
  3 30  1  0
  4 31  1  0
  4 32  1  0
  8 33  1  0
  8 34  1  0
  9 35  1  0
  9 36  1  0
 10 37  1  0
 10 38  1  0
 11 39  1  6
 13 40  1  0
 14 41  1  0
 17 42  1  0
 18 43  1  0
 20 44  1  0
 21 45  1  0
 23 46  1  0
 24 47  1  0
 27 48  1  0
M  END
>  <smiles>  (1) 
O=C(NCC(=O)N1CCC[C@H]1c1ccc(Cl)cc1)c1ccc2ccc(Cl)cc2n1

>  <score_type>  (1) 
oracle

>  <origin>  (1) 
autodockgpu

>  <m_score__min__energy>  (1) 
-8.9399999999999995

>  <m_primary>  (1) 
energy

>  <rmsd>  (1) 
3.6224280309043864

>  <m_score__min__rmsd>  (1) 
3.6224280309043864

>  <meeko>  (1) 
{"free_energy": -8.46, "intermolecular_energy": -9.95, "internal_energy": -1.48, "cluster_size": 4, "cluster_id": 2, "rank_in_cluster": 3}

>  <energy>  (1) 
-8.94

>  <cluster_rmsd>  (1) 
0.0

>  <cluster>  (1) 
1

$$$$

     RDKit          3D

 48 51  0  0  0  0  0  0  0  0999 V2000
  140.2080   78.4120  218.2910 O   0  0  0  0  0  0  0  0  0  0  0  0
  141.2800   78.1230  218.8560 C   0  0  0  0  0  0  0  0  0  0  0  0
  142.1850   79.1450  219.2350 N   0  0  0  0  0  0  0  0  0  0  0  0
  141.9530   80.5540  219.0070 C   0  0  0  0  0  0  0  0  0  0  0  0
  141.1840   81.1310  220.1300 C   0  0  0  0  0  0  0  0  0  0  0  0
  140.1620   81.8550  219.9840 O   0  0  0  0  0  0  0  0  0  0  0  0
  141.5920   80.8750  221.4680 N   0  0  0  0  0  0  0  0  0  0  0  0
  141.6530   81.8820  222.4880 C   0  0  0  0  0  0  0  0  0  0  0  0
  142.0190   81.1940  223.7730 C   0  0  0  0  0  0  0  0  0  0  0  0
  142.6740   79.9140  223.3210 C   0  0  0  0  0  0  0  0  0  0  0  0
  142.0000   79.6170  222.0250 C   0  0  1  0  0  0  0  0  0  0  0  0
  140.8530   78.6780  222.1400 C   0  0  0  0  0  0  0  0  0  0  0  0
  141.0180   77.3040  222.2420 C   0  0  0  0  0  0  0  0  0  0  0  0
  139.9830   76.4200  222.3470 C   0  0  0  0  0  0  0  0  0  0  0  0
  138.6940   76.8900  222.3550 C   0  0  0  0  0  0  0  0  0  0  0  0
  137.4000   75.7220  222.4910 Cl  0  0  0  0  0  0  0  0  0  0  0  0
  138.4660   78.2450  222.2560 C   0  0  0  0  0  0  0  0  0  0  0  0
  139.5310   79.1200  222.1500 C   0  0  0  0  0  0  0  0  0  0  0  0
  141.6240   76.7150  219.1400 C   0  0  0  0  0  0  0  0  0  0  0  0
  140.6940   75.7290  218.8670 C   0  0  0  0  0  0  0  0  0  0  0  0
  141.0620   74.4250  219.1500 C   0  0  0  0  0  0  0  0  0  0  0  0
  142.2870   74.0920  219.6780 C   0  0  0  0  0  0  0  0  0  0  0  0
  142.6460   72.7720  219.9600 C   0  0  0  0  0  0  0  0  0  0  0  0
  143.9040   72.5470  220.4910 C   0  0  0  0  0  0  0  0  0  0  0  0
  144.7900   73.5990  220.7400 C   0  0  0  0  0  0  0  0  0  0  0  0
  146.3640   73.2300  221.4140 Cl  0  0  0  0  0  0  0  0  0  0  0  0
  144.4310   74.9000  220.4600 C   0  0  0  0  0  0  0  0  0  0  0  0
  143.1760   75.1340  219.9300 C   0  0  0  0  0  0  0  0  0  0  0  0
  142.8290   76.4060  219.6580 N   0  0  0  0  0  0  0  0  0  0  0  0
  143.0830   78.8370  219.7130 H   0  0  0  0  0  0  0  0  0  0  0  0
  142.9193   81.0729  218.9233 H   0  0  0  0  0  0  0  0  0  0  0  0
  141.3794   80.6783  218.0767 H   0  0  0  0  0  0  0  0  0  0  0  0
  142.4160   82.6318  222.2318 H   0  0  0  0  0  0  0  0  0  0  0  0
  140.6865   82.3985  222.5840 H   0  0  0  0  0  0  0  0  0  0  0  0
  142.7192   81.8066  224.3599 H   0  0  0  0  0  0  0  0  0  0  0  0
  141.1504   81.0204  224.4252 H   0  0  0  0  0  0  0  0  0  0  0  0
  143.7556   80.0548  223.1785 H   0  0  0  0  0  0  0  0  0  0  0  0
  142.5729   79.0993  224.0531 H   0  0  0  0  0  0  0  0  0  0  0  0
  142.7103   79.0941  221.3677 H   0  0  0  0  0  0  0  0  0  0  0  0
  142.0426   76.9037  222.2380 H   0  0  0  0  0  0  0  0  0  0  0  0
  140.1807   75.3407  222.4245 H   0  0  0  0  0  0  0  0  0  0  0  0
  137.4359   78.6309  222.2613 H   0  0  0  0  0  0  0  0  0  0  0  0
  139.3290   80.1984  222.0711 H   0  0  0  0  0  0  0  0  0  0  0  0
  139.7073   75.9697  218.4445 H   0  0  0  0  0  0  0  0  0  0  0  0
  140.3423   73.6192  218.9432 H   0  0  0  0  0  0  0  0  0  0  0  0
  141.9528   71.9401  219.7667 H   0  0  0  0  0  0  0  0  0  0  0  0
  144.2136   71.5171  220.7223 H   0  0  0  0  0  0  0  0  0  0  0  0
  145.1255   75.7308  220.6534 H   0  0  0  0  0  0  0  0  0  0  0  0
  1  2  2  0
  2  3  1  0
  3  4  1  0
  4  5  1  0
  5  6  2  0
  5  7  1  0
  7  8  1  0
  8  9  1  0
  9 10  1  0
 10 11  1  0
 11 12  1  0
 12 13  2  0
 13 14  1  0
 14 15  2  0
 15 16  1  0
 15 17  1  0
 17 18  2  0
  2 19  1  0
 19 20  2  0
 20 21  1  0
 21 22  2  0
 22 23  1  0
 23 24  2  0
 24 25  1  0
 25 26  1  0
 25 27  2  0
 27 28  1  0
 28 29  2  0
 11  7  1  0
 18 12  1  0
 29 19  1  0
 28 22  1  0
  3 30  1  0
  4 31  1  0
  4 32  1  0
  8 33  1  0
  8 34  1  0
  9 35  1  0
  9 36  1  0
 10 37  1  0
 10 38  1  0
 11 39  1  6
 13 40  1  0
 14 41  1  0
 17 42  1  0
 18 43  1  0
 20 44  1  0
 21 45  1  0
 23 46  1  0
 24 47  1  0
 27 48  1  0
M  END
>  <smiles>  (2) 
O=C(NCC(=O)N1CCC[C@H]1c1ccc(Cl)cc1)c1ccc2ccc(Cl)cc2n1

>  <score_type>  (2) 
oracle

>  <origin>  (2) 
autodockgpu

>  <m_score__min__energy>  (2) 
-8.9399999999999995

>  <m_primary>  (2) 
energy

>  <rmsd>  (2) 
7.733646535546823

>  <m_score__min__rmsd>  (2) 
7.733646535546823

>  <meeko>  (2) 
{"free_energy": -7.2, "intermolecular_energy": -8.69, "internal_energy": -2.86, "cluster_size": 27, "cluster_id": 5, "rank_in_cluster": 5}

>  <energy>  (2) 
-8.63

>  <cluster_rmsd>  (2) 
0.97

>  <cluster>  (2) 
1

$$$$

     RDKit          3D

 48 51  0  0  0  0  0  0  0  0999 V2000
  140.1290   78.4190  218.4100 O   0  0  0  0  0  0  0  0  0  0  0  0
  141.2530   78.1260  218.8620 C   0  0  0  0  0  0  0  0  0  0  0  0
  142.1940   79.1440  219.1520 N   0  0  0  0  0  0  0  0  0  0  0  0
  141.9410   80.5550  218.9570 C   0  0  0  0  0  0  0  0  0  0  0  0
  141.2230   81.1100  220.1240 C   0  0  0  0  0  0  0  0  0  0  0  0
  140.2020   81.8450  220.0360 O   0  0  0  0  0  0  0  0  0  0  0  0
  141.6820   80.8180  221.4380 N   0  0  0  0  0  0  0  0  0  0  0  0
  141.8180   81.8040  222.4710 C   0  0  0  0  0  0  0  0  0  0  0  0
  142.2190   81.0820  223.7270 C   0  0  0  0  0  0  0  0  0  0  0  0
  142.8160   79.7920  223.2240 C   0  0  0  0  0  0  0  0  0  0  0  0
  142.0770   79.5380  221.9540 C   0  0  1  0  0  0  0  0  0  0  0  0
  140.9090   78.6310  222.1050 C   0  0  0  0  0  0  0  0  0  0  0  0
  141.0390   77.2530  222.2050 C   0  0  0  0  0  0  0  0  0  0  0  0
  139.9830   76.3980  222.3420 C   0  0  0  0  0  0  0  0  0  0  0  0
  138.7090   76.9020  222.3860 C   0  0  0  0  0  0  0  0  0  0  0  0
  137.3880   75.7710  222.5620 Cl  0  0  0  0  0  0  0  0  0  0  0  0
  138.5150   78.2630  222.2900 C   0  0  0  0  0  0  0  0  0  0  0  0
  139.6000   79.1090  222.1520 C   0  0  0  0  0  0  0  0  0  0  0  0
  141.6220   76.7160  219.1020 C   0  0  0  0  0  0  0  0  0  0  0  0
  140.7300   75.7200  218.7500 C   0  0  0  0  0  0  0  0  0  0  0  0
  141.1200   74.4140  218.9940 C   0  0  0  0  0  0  0  0  0  0  0  0
  142.3310   74.0890  219.5580 C   0  0  0  0  0  0  0  0  0  0  0  0
  142.7120   72.7680  219.8000 C   0  0  0  0  0  0  0  0  0  0  0  0
  143.9540   72.5520  220.3730 C   0  0  0  0  0  0  0  0  0  0  0  0
  144.8010   73.6130  220.7020 C   0  0  0  0  0  0  0  0  0  0  0  0
  146.3560   73.2550  221.4250 Cl  0  0  0  0  0  0  0  0  0  0  0  0
  144.4190   74.9160  220.4610 C   0  0  0  0  0  0  0  0  0  0  0  0
  143.1810   75.1420  219.8890 C   0  0  0  0  0  0  0  0  0  0  0  0
  142.8130   76.4150  219.6560 N   0  0  0  0  0  0  0  0  0  0  0  0
  143.1340   78.8330  219.5350 H   0  0  0  0  0  0  0  0  0  0  0  0
  142.8985   81.0825  218.8347 H   0  0  0  0  0  0  0  0  0  0  0  0
  141.3219   80.6881  218.0576 H   0  0  0  0  0  0  0  0  0  0  0  0
  142.5914   82.5355  222.1939 H   0  0  0  0  0  0  0  0  0  0  0  0
  140.8728   82.3470  222.6184 H   0  0  0  0  0  0  0  0  0  0  0  0
  142.9617   81.6632  224.2932 H   0  0  0  0  0  0  0  0  0  0  0  0
  141.3749   80.9213  224.4138 H   0  0  0  0  0  0  0  0  0  0  0  0
  143.8939   79.9047  223.0358 H   0  0  0  0  0  0  0  0  0  0  0  0
  142.7234   78.9671  223.9458 H   0  0  0  0  0  0  0  0  0  0  0  0
  142.7413   79.0071  221.2562 H   0  0  0  0  0  0  0  0  0  0  0  0
  142.0516   76.8245  222.1720 H   0  0  0  0  0  0  0  0  0  0  0  0
  140.1533   75.3138  222.4164 H   0  0  0  0  0  0  0  0  0  0  0  0
  137.4963   78.6766  222.3232 H   0  0  0  0  0  0  0  0  0  0  0  0
  139.4251   80.1924  222.0770 H   0  0  0  0  0  0  0  0  0  0  0  0
  139.7554   75.9543  218.2970 H   0  0  0  0  0  0  0  0  0  0  0  0
  140.4304   73.6005  218.7247 H   0  0  0  0  0  0  0  0  0  0  0  0
  142.0490   71.9283  219.5445 H   0  0  0  0  0  0  0  0  0  0  0  0
  144.2812   71.5211  220.5737 H   0  0  0  0  0  0  0  0  0  0  0  0
  145.0830   75.7547  220.7176 H   0  0  0  0  0  0  0  0  0  0  0  0
  1  2  2  0
  2  3  1  0
  3  4  1  0
  4  5  1  0
  5  6  2  0
  5  7  1  0
  7  8  1  0
  8  9  1  0
  9 10  1  0
 10 11  1  0
 11 12  1  0
 12 13  2  0
 13 14  1  0
 14 15  2  0
 15 16  1  0
 15 17  1  0
 17 18  2  0
  2 19  1  0
 19 20  2  0
 20 21  1  0
 21 22  2  0
 22 23  1  0
 23 24  2  0
 24 25  1  0
 25 26  1  0
 25 27  2  0
 27 28  1  0
 28 29  2  0
 11  7  1  0
 18 12  1  0
 29 19  1  0
 28 22  1  0
  3 30  1  0
  4 31  1  0
  4 32  1  0
  8 33  1  0
  8 34  1  0
  9 35  1  0
  9 36  1  0
 10 37  1  0
 10 38  1  0
 11 39  1  6
 13 40  1  0
 14 41  1  0
 17 42  1  0
 18 43  1  0
 20 44  1  0
 21 45  1  0
 23 46  1  0
 24 47  1  0
 27 48  1  0
M  END
>  <smiles>  (3) 
O=C(NCC(=O)N1CCC[C@H]1c1ccc(Cl)cc1)c1ccc2ccc(Cl)cc2n1

>  <score_type>  (3) 
oracle

>  <origin>  (3) 
autodockgpu

>  <m_score__min__energy>  (3) 
-8.9399999999999995

>  <m_primary>  (3) 
energy

>  <rmsd>  (3) 
7.751023542239455

>  <m_score__min__rmsd>  (3) 
7.751023542239455

>  <meeko>  (3) 
{"free_energy": -7.17, "intermolecular_energy": -8.66, "internal_energy": -2.84, "cluster_size": 27, "cluster_id": 5, "rank_in_cluster": 9}

>  <energy>  (3) 
-8.45

>  <cluster_rmsd>  (3) 
1.04

>  <cluster>  (3) 
1

$$$$

     RDKit          3D

 48 51  0  0  0  0  0  0  0  0999 V2000
  140.6280   79.5670  218.8310 O   0  0  0  0  0  0  0  0  0  0  0  0
  141.5320   79.0140  219.4870 C   0  0  0  0  0  0  0  0  0  0  0  0
  142.1460   79.6920  220.5690 N   0  0  0  0  0  0  0  0  0  0  0  0
  141.7920   81.0310  220.9880 C   0  0  0  0  0  0  0  0  0  0  0  0
  141.4710   81.0430  222.4310 C   0  0  0  0  0  0  0  0  0  0  0  0
  142.3210   81.2550  223.3370 O   0  0  0  0  0  0  0  0  0  0  0  0
  140.1360   80.8070  222.8580 N   0  0  0  0  0  0  0  0  0  0  0  0
  139.0160   81.6040  222.4470 C   0  0  0  0  0  0  0  0  0  0  0  0
  137.7810   80.9690  223.0230 C   0  0  0  0  0  0  0  0  0  0  0  0
  138.3030   80.1520  224.1770 C   0  0  0  0  0  0  0  0  0  0  0  0
  139.6780   79.7730  223.7430 C   0  0  1  0  0  0  0  0  0  0  0  0
  139.7640   78.4350  223.1010 C   0  0  0  0  0  0  0  0  0  0  0  0
  138.6430   77.7370  222.6740 C   0  0  0  0  0  0  0  0  0  0  0  0
  138.6940   76.5070  222.0840 C   0  0  0  0  0  0  0  0  0  0  0  0
  139.9090   75.9030  221.8890 C   0  0  0  0  0  0  0  0  0  0  0  0
  139.9260   74.3280  221.1290 Cl  0  0  0  0  0  0  0  0  0  0  0  0
  141.0580   76.5460  222.2920 C   0  0  0  0  0  0  0  0  0  0  0  0
  140.9820   77.7920  222.8880 C   0  0  0  0  0  0  0  0  0  0  0  0
  141.9770   77.6470  219.1490 C   0  0  0  0  0  0  0  0  0  0  0  0
  141.4170   77.0100  218.0570 C   0  0  0  0  0  0  0  0  0  0  0  0
  141.8660   75.7300  217.7800 C   0  0  0  0  0  0  0  0  0  0  0  0
  142.8230   75.0940  218.5360 C   0  0  0  0  0  0  0  0  0  0  0  0
  143.2670   73.8020  218.2460 C   0  0  0  0  0  0  0  0  0  0  0  0
  144.2330   73.2540  219.0720 C   0  0  0  0  0  0  0  0  0  0  0  0
  144.7510   73.9630  220.1590 C   0  0  0  0  0  0  0  0  0  0  0  0
  145.9720   73.1970  221.1560 Cl  0  0  0  0  0  0  0  0  0  0  0  0
  144.3090   75.2380  220.4410 C   0  0  0  0  0  0  0  0  0  0  0  0
  143.3440   75.7930  219.6220 C   0  0  0  0  0  0  0  0  0  0  0  0
  142.9150   77.0380  219.9010 N   0  0  0  0  0  0  0  0  0  0  0  0
  142.9100   79.1710  221.0900 H   0  0  0  0  0  0  0  0  0  0  0  0
  142.6383   81.7075  220.7978 H   0  0  0  0  0  0  0  0  0  0  0  0
  140.9111   81.3651  220.4202 H   0  0  0  0  0  0  0  0  0  0  0  0
  139.1243   82.6303  222.8277 H   0  0  0  0  0  0  0  0  0  0  0  0
  138.9538   81.6524  221.3498 H   0  0  0  0  0  0  0  0  0  0  0  0
  137.0733   81.7348  223.3732 H   0  0  0  0  0  0  0  0  0  0  0  0
  137.2306   80.3640  222.2874 H   0  0  0  0  0  0  0  0  0  0  0  0
  138.3330   80.7498  225.0999 H   0  0  0  0  0  0  0  0  0  0  0  0
  137.6710   79.2811  224.4052 H   0  0  0  0  0  0  0  0  0  0  0  0
  140.3190   79.6858  224.6326 H   0  0  0  0  0  0  0  0  0  0  0  0
  137.6566   78.2017  222.8193 H   0  0  0  0  0  0  0  0  0  0  0  0
  137.7679   76.0048  221.7677 H   0  0  0  0  0  0  0  0  0  0  0  0
  142.0372   76.0684  222.1399 H   0  0  0  0  0  0  0  0  0  0  0  0
  141.9107   78.2902  223.2032 H   0  0  0  0  0  0  0  0  0  0  0  0
  140.6503   77.4977  217.4371 H   0  0  0  0  0  0  0  0  0  0  0  0
  141.4385   75.1982  216.9172 H   0  0  0  0  0  0  0  0  0  0  0  0
  142.8632   73.2397  217.3912 H   0  0  0  0  0  0  0  0  0  0  0  0
  144.6012   72.2377  218.8682 H   0  0  0  0  0  0  0  0  0  0  0  0
  144.7140   75.7992  221.2960 H   0  0  0  0  0  0  0  0  0  0  0  0
  1  2  2  0
  2  3  1  0
  3  4  1  0
  4  5  1  0
  5  6  2  0
  5  7  1  0
  7  8  1  0
  8  9  1  0
  9 10  1  0
 10 11  1  0
 11 12  1  0
 12 13  2  0
 13 14  1  0
 14 15  2  0
 15 16  1  0
 15 17  1  0
 17 18  2  0
  2 19  1  0
 19 20  2  0
 20 21  1  0
 21 22  2  0
 22 23  1  0
 23 24  2  0
 24 25  1  0
 25 26  1  0
 25 27  2  0
 27 28  1  0
 28 29  2  0
 11  7  1  0
 18 12  1  0
 29 19  1  0
 28 22  1  0
  3 30  1  0
  4 31  1  0
  4 32  1  0
  8 33  1  0
  8 34  1  0
  9 35  1  0
  9 36  1  0
 10 37  1  0
 10 38  1  0
 11 39  1  1
 13 40  1  0
 14 41  1  0
 17 42  1  0
 18 43  1  0
 20 44  1  0
 21 45  1  0
 23 46  1  0
 24 47  1  0
 27 48  1  0
M  END
>  <smiles>  (4) 
O=C(NCC(=O)N1CCC[C@H]1c1ccc(Cl)cc1)c1ccc2ccc(Cl)cc2n1

>  <score_type>  (4) 
oracle

>  <origin>  (4) 
autodockgpu

>  <m_score__min__energy>  (4) 
-8.9399999999999995

>  <m_primary>  (4) 
energy

>  <rmsd>  (4) 
8.435526893561708

>  <m_score__min__rmsd>  (4) 
8.435526893561708

>  <meeko>  (4) 
{"free_energy": -6.87, "intermolecular_energy": -8.36, "internal_energy": -3.04, "cluster_size": 27, "cluster_id": 5, "rank_in_cluster": 21}

>  <energy>  (4) 
-8.44

>  <cluster_rmsd>  (4) 
1.03

>  <cluster>  (4) 
1

$$$$

     RDKit          3D

 48 51  0  0  0  0  0  0  0  0999 V2000
  140.5100   79.3210  218.7520 O   0  0  0  0  0  0  0  0  0  0  0  0
  141.4840   78.8490  219.3700 C   0  0  0  0  0  0  0  0  0  0  0  0
  142.1290   79.6110  220.3750 N   0  0  0  0  0  0  0  0  0  0  0  0
  141.7290   80.9480  220.7550 C   0  0  0  0  0  0  0  0  0  0  0  0
  141.5040   81.0160  222.2150 C   0  0  0  0  0  0  0  0  0  0  0  0
  142.4120   81.2640  223.0540 O   0  0  0  0  0  0  0  0  0  0  0  0
  140.2020   80.7940  222.7390 N   0  0  0  0  0  0  0  0  0  0  0  0
  139.0570   81.5830  222.3860 C   0  0  0  0  0  0  0  0  0  0  0  0
  137.8640   80.9660  223.0610 C   0  0  0  0  0  0  0  0  0  0  0  0
  138.4640   80.1770  224.1970 C   0  0  0  0  0  0  0  0  0  0  0  0
  139.8050   79.7840  223.6790 C   0  0  1  0  0  0  0  0  0  0  0  0
  139.8460   78.4300  223.0680 C   0  0  0  0  0  0  0  0  0  0  0  0
  138.7000   77.7490  222.6810 C   0  0  0  0  0  0  0  0  0  0  0  0
  138.7090   76.5050  222.1190 C   0  0  0  0  0  0  0  0  0  0  0  0
  139.9050   75.8680  221.9130 C   0  0  0  0  0  0  0  0  0  0  0  0
  139.8690   74.2760  221.1900 Cl  0  0  0  0  0  0  0  0  0  0  0  0
  141.0770   76.4920  222.2760 C   0  0  0  0  0  0  0  0  0  0  0  0
  141.0440   77.7530  222.8440 C   0  0  0  0  0  0  0  0  0  0  0  0
  141.9810   77.4920  219.0660 C   0  0  0  0  0  0  0  0  0  0  0  0
  141.4580   76.8130  217.9810 C   0  0  0  0  0  0  0  0  0  0  0  0
  141.9550   75.5440  217.7360 C   0  0  0  0  0  0  0  0  0  0  0  0
  142.9240   74.9590  218.5160 C   0  0  0  0  0  0  0  0  0  0  0  0
  143.4170   73.6780  218.2580 C   0  0  0  0  0  0  0  0  0  0  0  0
  144.3930   73.1820  219.1060 C   0  0  0  0  0  0  0  0  0  0  0  0
  144.8720   73.9310  220.1840 C   0  0  0  0  0  0  0  0  0  0  0  0
  146.1070   73.2300  221.2100 Cl  0  0  0  0  0  0  0  0  0  0  0  0
  144.3820   75.1950  220.4340 C   0  0  0  0  0  0  0  0  0  0  0  0
  143.4070   75.6980  219.5920 C   0  0  0  0  0  0  0  0  0  0  0  0
  142.9320   76.9320  219.8400 N   0  0  0  0  0  0  0  0  0  0  0  0
  142.9530   79.1570  220.8670 H   0  0  0  0  0  0  0  0  0  0  0  0
  142.5214   81.6579  220.4756 H   0  0  0  0  0  0  0  0  0  0  0  0
  140.7948   81.2057  220.2346 H   0  0  0  0  0  0  0  0  0  0  0  0
  139.1919   82.6183  222.7324 H   0  0  0  0  0  0  0  0  0  0  0  0
  138.9197   81.6038  221.2948 H   0  0  0  0  0  0  0  0  0  0  0  0
  137.1826   81.7422  223.4395 H   0  0  0  0  0  0  0  0  0  0  0  0
  137.2637   80.3441  222.3806 H   0  0  0  0  0  0  0  0  0  0  0  0
  138.5581   80.7979  225.1001 H   0  0  0  0  0  0  0  0  0  0  0  0
  137.8487   79.3137  224.4904 H   0  0  0  0  0  0  0  0  0  0  0  0
  140.5059   79.7181  224.5242 H   0  0  0  0  0  0  0  0  0  0  0  0
  137.7281   78.2403  222.8362 H   0  0  0  0  0  0  0  0  0  0  0  0
  137.7647   76.0181  221.8340 H   0  0  0  0  0  0  0  0  0  0  0  0
  142.0410   75.9874  222.1143 H   0  0  0  0  0  0  0  0  0  0  0  0
  141.9909   78.2358  223.1273 H   0  0  0  0  0  0  0  0  0  0  0  0
  140.6826   77.2604  217.3418 H   0  0  0  0  0  0  0  0  0  0  0  0
  141.5571   74.9794  216.8799 H   0  0  0  0  0  0  0  0  0  0  0  0
  143.0432   73.0840  217.4110 H   0  0  0  0  0  0  0  0  0  0  0  0
  144.8003   72.1760  218.9270 H   0  0  0  0  0  0  0  0  0  0  0  0
  144.7568   75.7881  221.2812 H   0  0  0  0  0  0  0  0  0  0  0  0
  1  2  2  0
  2  3  1  0
  3  4  1  0
  4  5  1  0
  5  6  2  0
  5  7  1  0
  7  8  1  0
  8  9  1  0
  9 10  1  0
 10 11  1  0
 11 12  1  0
 12 13  2  0
 13 14  1  0
 14 15  2  0
 15 16  1  0
 15 17  1  0
 17 18  2  0
  2 19  1  0
 19 20  2  0
 20 21  1  0
 21 22  2  0
 22 23  1  0
 23 24  2  0
 24 25  1  0
 25 26  1  0
 25 27  2  0
 27 28  1  0
 28 29  2  0
 11  7  1  0
 18 12  1  0
 29 19  1  0
 28 22  1  0
  3 30  1  0
  4 31  1  0
  4 32  1  0
  8 33  1  0
  8 34  1  0
  9 35  1  0
  9 36  1  0
 10 37  1  0
 10 38  1  0
 11 39  1  1
 13 40  1  0
 14 41  1  0
 17 42  1  0
 18 43  1  0
 20 44  1  0
 21 45  1  0
 23 46  1  0
 24 47  1  0
 27 48  1  0
M  END
>  <smiles>  (5) 
O=C(NCC(=O)N1CCC[C@H]1c1ccc(Cl)cc1)c1ccc2ccc(Cl)cc2n1

>  <score_type>  (5) 
oracle

>  <origin>  (5) 
autodockgpu

>  <m_score__min__energy>  (5) 
-8.9399999999999995

>  <m_primary>  (5) 
energy

>  <rmsd>  (5) 
8.381615165855486

>  <m_score__min__rmsd>  (5) 
8.381615165855486

>  <meeko>  (5) 
{"free_energy": -6.88, "intermolecular_energy": -8.37, "internal_energy": -3.01, "cluster_size": 27, "cluster_id": 5, "rank_in_cluster": 18}

>  <energy>  (5) 
-8.3

>  <cluster_rmsd>  (5) 
1.04

>  <cluster>  (5) 
1

$$$$

     RDKit          3D

 48 51  0  0  0  0  0  0  0  0999 V2000
  140.4500   78.3400  218.0240 O   0  0  0  0  0  0  0  0  0  0  0  0
  141.3730   78.0670  218.8150 C   0  0  0  0  0  0  0  0  0  0  0  0
  142.1640   79.1010  219.3750 N   0  0  0  0  0  0  0  0  0  0  0  0
  141.9740   80.5060  219.0880 C   0  0  0  0  0  0  0  0  0  0  0  0
  141.1880   81.1430  220.1670 C   0  0  0  0  0  0  0  0  0  0  0  0
  140.1970   81.8950  219.9630 O   0  0  0  0  0  0  0  0  0  0  0  0
  141.5430   80.9170  221.5250 N   0  0  0  0  0  0  0  0  0  0  0  0
  141.5260   81.9390  222.5320 C   0  0  0  0  0  0  0  0  0  0  0  0
  141.8550   81.2790  223.8420 C   0  0  0  0  0  0  0  0  0  0  0  0
  142.5700   80.0150  223.4380 C   0  0  0  0  0  0  0  0  0  0  0  0
  141.9650   79.6800  222.1170 C   0  0  1  0  0  0  0  0  0  0  0  0
  140.8440   78.7070  222.1940 C   0  0  0  0  0  0  0  0  0  0  0  0
  141.0460   77.3370  222.2850 C   0  0  0  0  0  0  0  0  0  0  0  0
  140.0360   76.4220  222.3540 C   0  0  0  0  0  0  0  0  0  0  0  0
  138.7340   76.8540  222.3360 C   0  0  0  0  0  0  0  0  0  0  0  0
  137.4720   75.6470  222.4290 Cl  0  0  0  0  0  0  0  0  0  0  0  0
  138.4690   78.2020  222.2470 C   0  0  0  0  0  0  0  0  0  0  0  0
  139.5090   79.1100  222.1770 C   0  0  0  0  0  0  0  0  0  0  0  0
  141.6590   76.6640  219.1810 C   0  0  0  0  0  0  0  0  0  0  0  0
  140.6640   75.7160  219.0320 C   0  0  0  0  0  0  0  0  0  0  0  0
  140.9790   74.4160  219.3890 C   0  0  0  0  0  0  0  0  0  0  0  0
  142.2150   74.0520  219.8710 C   0  0  0  0  0  0  0  0  0  0  0  0
  142.5200   72.7360  220.2260 C   0  0  0  0  0  0  0  0  0  0  0  0
  143.7940   72.4780  220.7020 C   0  0  0  0  0  0  0  0  0  0  0  0
  144.7470   73.4930  220.8240 C   0  0  0  0  0  0  0  0  0  0  0  0
  146.3370   73.0830  221.4340 Cl  0  0  0  0  0  0  0  0  0  0  0  0
  144.4410   74.7900  220.4710 C   0  0  0  0  0  0  0  0  0  0  0  0
  143.1700   75.0570  219.9960 C   0  0  0  0  0  0  0  0  0  0  0  0
  142.8760   76.3240  219.6520 N   0  0  0  0  0  0  0  0  0  0  0  0
  142.9360   78.8070  220.0420 H   0  0  0  0  0  0  0  0  0  0  0  0
  142.9550   80.9980  219.0132 H   0  0  0  0  0  0  0  0  0  0  0  0
  141.4304   80.6091  218.1373 H   0  0  0  0  0  0  0  0  0  0  0  0
  142.2759   82.7095  222.2995 H   0  0  0  0  0  0  0  0  0  0  0  0
  140.5407   82.4259  222.5771 H   0  0  0  0  0  0  0  0  0  0  0  0
  142.5081   81.9211  224.4512 H   0  0  0  0  0  0  0  0  0  0  0  0
  140.9635   81.0856  224.4567 H   0  0  0  0  0  0  0  0  0  0  0  0
  143.6520   80.1887  223.3422 H   0  0  0  0  0  0  0  0  0  0  0  0
  142.4616   79.2068  224.1762 H   0  0  0  0  0  0  0  0  0  0  0  0
  142.7204   79.1719  221.4996 H   0  0  0  0  0  0  0  0  0  0  0  0
  142.0817   76.9667  222.3026 H   0  0  0  0  0  0  0  0  0  0  0  0
  140.2636   75.3481  222.4234 H   0  0  0  0  0  0  0  0  0  0  0  0
  137.4280   78.5571  222.2315 H   0  0  0  0  0  0  0  0  0  0  0  0
  139.2766   80.1828  222.1057 H   0  0  0  0  0  0  0  0  0  0  0  0
  139.6683   75.9822  218.6477 H   0  0  0  0  0  0  0  0  0  0  0  0
  140.2068   73.6398  219.2826 H   0  0  0  0  0  0  0  0  0  0  0  0
  141.7742   71.9330  220.1307 H   0  0  0  0  0  0  0  0  0  0  0  0
  144.0623   71.4510  220.9907 H   0  0  0  0  0  0  0  0  0  0  0  0
  145.1884   75.5917  220.5647 H   0  0  0  0  0  0  0  0  0  0  0  0
  1  2  2  0
  2  3  1  0
  3  4  1  0
  4  5  1  0
  5  6  2  0
  5  7  1  0
  7  8  1  0
  8  9  1  0
  9 10  1  0
 10 11  1  0
 11 12  1  0
 12 13  2  0
 13 14  1  0
 14 15  2  0
 15 16  1  0
 15 17  1  0
 17 18  2  0
  2 19  1  0
 19 20  2  0
 20 21  1  0
 21 22  2  0
 22 23  1  0
 23 24  2  0
 24 25  1  0
 25 26  1  0
 25 27  2  0
 27 28  1  0
 28 29  2  0
 11  7  1  0
 18 12  1  0
 29 19  1  0
 28 22  1  0
  3 30  1  0
  4 31  1  0
  4 32  1  0
  8 33  1  0
  8 34  1  0
  9 35  1  0
  9 36  1  0
 10 37  1  0
 10 38  1  0
 11 39  1  6
 13 40  1  0
 14 41  1  0
 17 42  1  0
 18 43  1  0
 20 44  1  0
 21 45  1  0
 23 46  1  0
 24 47  1  0
 27 48  1  0
M  END
>  <smiles>  (6) 
O=C(NCC(=O)N1CCC[C@H]1c1ccc(Cl)cc1)c1ccc2ccc(Cl)cc2n1

>  <score_type>  (6) 
oracle

>  <origin>  (6) 
autodockgpu

>  <m_score__min__energy>  (6) 
-8.9399999999999995

>  <m_primary>  (6) 
energy

>  <rmsd>  (6) 
7.682005891686493

>  <m_score__min__rmsd>  (6) 
7.682005891686493

>  <meeko>  (6) 
{"free_energy": -7.29, "intermolecular_energy": -8.78, "internal_energy": -2.73, "cluster_size": 27, "cluster_id": 5, "rank_in_cluster": 2}

>  <energy>  (6) 
-8.15

>  <cluster_rmsd>  (6) 
1.55

>  <cluster>  (6) 
1

$$$$

     RDKit          3D

 48 51  0  0  0  0  0  0  0  0999 V2000
  140.1950   78.4160  218.3210 O   0  0  0  0  0  0  0  0  0  0  0  0
  141.2730   78.1200  218.8720 C   0  0  0  0  0  0  0  0  0  0  0  0
  142.2010   79.1330  219.2180 N   0  0  0  0  0  0  0  0  0  0  0  0
  141.9850   80.5420  218.9730 C   0  0  0  0  0  0  0  0  0  0  0  0
  141.1920   81.1330  220.0700 C   0  0  0  0  0  0  0  0  0  0  0  0
  140.1680   81.8470  219.8910 O   0  0  0  0  0  0  0  0  0  0  0  0
  141.5750   80.9060  221.4200 N   0  0  0  0  0  0  0  0  0  0  0  0
  141.5940   81.9280  222.4260 C   0  0  0  0  0  0  0  0  0  0  0  0
  141.9460   81.2670  223.7290 C   0  0  0  0  0  0  0  0  0  0  0  0
  142.6370   79.9950  223.3100 C   0  0  0  0  0  0  0  0  0  0  0  0
  141.9980   79.6640  222.0040 C   0  0  1  0  0  0  0  0  0  0  0  0
  140.8680   78.7040  222.1090 C   0  0  0  0  0  0  0  0  0  0  0  0
  141.0590   77.3370  222.2620 C   0  0  0  0  0  0  0  0  0  0  0  0
  140.0400   76.4340  222.3580 C   0  0  0  0  0  0  0  0  0  0  0  0
  138.7430   76.8740  222.3040 C   0  0  0  0  0  0  0  0  0  0  0  0
  137.4700   75.6820  222.4330 Cl  0  0  0  0  0  0  0  0  0  0  0  0
  138.4890   78.2190  222.1530 C   0  0  0  0  0  0  0  0  0  0  0  0
  139.5370   79.1150  222.0570 C   0  0  0  0  0  0  0  0  0  0  0  0
  141.6010   76.7110  219.1710 C   0  0  0  0  0  0  0  0  0  0  0  0
  140.6470   75.7370  218.9400 C   0  0  0  0  0  0  0  0  0  0  0  0
  141.0010   74.4310  219.2360 C   0  0  0  0  0  0  0  0  0  0  0  0
  142.2340   74.0860  219.7370 C   0  0  0  0  0  0  0  0  0  0  0  0
  142.5780   72.7650  220.0320 C   0  0  0  0  0  0  0  0  0  0  0  0
  143.8460   72.5280  220.5330 C   0  0  0  0  0  0  0  0  0  0  0  0
  144.7560   73.5680  220.7400 C   0  0  0  0  0  0  0  0  0  0  0  0
  146.3410   73.1840  221.3780 Cl  0  0  0  0  0  0  0  0  0  0  0  0
  144.4110   74.8710  220.4470 C   0  0  0  0  0  0  0  0  0  0  0  0
  143.1460   75.1170  219.9460 C   0  0  0  0  0  0  0  0  0  0  0  0
  142.8140   76.3900  219.6620 N   0  0  0  0  0  0  0  0  0  0  0  0
  143.1020   78.8190  219.6850 H   0  0  0  0  0  0  0  0  0  0  0  0
  142.9569   81.0534  218.9104 H   0  0  0  0  0  0  0  0  0  0  0  0
  141.4365   80.6627  218.0272 H   0  0  0  0  0  0  0  0  0  0  0  0
  142.3471   82.6894  222.1748 H   0  0  0  0  0  0  0  0  0  0  0  0
  140.6152   82.4254  222.4939 H   0  0  0  0  0  0  0  0  0  0  0  0
  142.6204   81.9027  224.3216 H   0  0  0  0  0  0  0  0  0  0  0  0
  141.0674   81.0848  224.3652 H   0  0  0  0  0  0  0  0  0  0  0  0
  143.7182   80.1568  223.1886 H   0  0  0  0  0  0  0  0  0  0  0  0
  142.5365   79.1891  224.0519 H   0  0  0  0  0  0  0  0  0  0  0  0
  142.7331   79.1464  221.3703 H   0  0  0  0  0  0  0  0  0  0  0  0
  142.0914   76.9601  222.3085 H   0  0  0  0  0  0  0  0  0  0  0  0
  140.2578   75.3624  222.4777 H   0  0  0  0  0  0  0  0  0  0  0  0
  137.4511   78.5806  222.1087 H   0  0  0  0  0  0  0  0  0  0  0  0
  139.3139   80.1853  221.9359 H   0  0  0  0  0  0  0  0  0  0  0  0
  139.6535   75.9876  218.5399 H   0  0  0  0  0  0  0  0  0  0  0  0
  140.2627   73.6343  219.0625 H   0  0  0  0  0  0  0  0  0  0  0  0
  141.8661   71.9419  219.8717 H   0  0  0  0  0  0  0  0  0  0  0  0
  144.1445   71.4970  220.7739 H   0  0  0  0  0  0  0  0  0  0  0  0
  145.1239   75.6932  220.6078 H   0  0  0  0  0  0  0  0  0  0  0  0
  1  2  2  0
  2  3  1  0
  3  4  1  0
  4  5  1  0
  5  6  2  0
  5  7  1  0
  7  8  1  0
  8  9  1  0
  9 10  1  0
 10 11  1  0
 11 12  1  0
 12 13  2  0
 13 14  1  0
 14 15  2  0
 15 16  1  0
 15 17  1  0
 17 18  2  0
  2 19  1  0
 19 20  2  0
 20 21  1  0
 21 22  2  0
 22 23  1  0
 23 24  2  0
 24 25  1  0
 25 26  1  0
 25 27  2  0
 27 28  1  0
 28 29  2  0
 11  7  1  0
 18 12  1  0
 29 19  1  0
 28 22  1  0
  3 30  1  0
  4 31  1  0
  4 32  1  0
  8 33  1  0
  8 34  1  0
  9 35  1  0
  9 36  1  0
 10 37  1  0
 10 38  1  0
 11 39  1  6
 13 40  1  0
 14 41  1  0
 17 42  1  0
 18 43  1  0
 20 44  1  0
 21 45  1  0
 23 46  1  0
 24 47  1  0
 27 48  1  0
M  END
>  <smiles>  (7) 
O=C(NCC(=O)N1CCC[C@H]1c1ccc(Cl)cc1)c1ccc2ccc(Cl)cc2n1

>  <score_type>  (7) 
oracle

>  <origin>  (7) 
autodockgpu

>  <m_score__min__energy>  (7) 
-8.9399999999999995

>  <m_primary>  (7) 
energy

>  <rmsd>  (7) 
7.717571016415487

>  <m_score__min__rmsd>  (7) 
7.717571016415487

>  <meeko>  (7) 
{"free_energy": -7.18, "intermolecular_energy": -8.67, "internal_energy": -2.88, "cluster_size": 27, "cluster_id": 5, "rank_in_cluster": 7}

>  <energy>  (7) 
-7.89

>  <cluster_rmsd>  (7) 
1.73

>  <cluster>  (7) 
1

$$$$

     RDKit          3D

 48 51  0  0  0  0  0  0  0  0999 V2000
  140.5480   79.2290  218.8220 O   0  0  0  0  0  0  0  0  0  0  0  0
  141.4760   78.7260  219.4830 C   0  0  0  0  0  0  0  0  0  0  0  0
  142.1480   79.4900  220.4680 N   0  0  0  0  0  0  0  0  0  0  0  0
  141.8280   80.8670  220.7770 C   0  0  0  0  0  0  0  0  0  0  0  0
  141.5570   81.0130  222.2230 C   0  0  0  0  0  0  0  0  0  0  0  0
  142.4380   81.3010  223.0780 O   0  0  0  0  0  0  0  0  0  0  0  0
  140.2360   80.8250  222.7150 N   0  0  0  0  0  0  0  0  0  0  0  0
  139.1160   81.6270  222.3140 C   0  0  0  0  0  0  0  0  0  0  0  0
  137.8940   81.0450  222.9680 C   0  0  0  0  0  0  0  0  0  0  0  0
  138.4480   80.2690  224.1360 C   0  0  0  0  0  0  0  0  0  0  0  0
  139.7960   79.8420  223.6630 C   0  0  1  0  0  0  0  0  0  0  0  0
  139.8280   78.4750  223.0800 C   0  0  0  0  0  0  0  0  0  0  0  0
  141.0080   77.7700  222.8890 C   0  0  0  0  0  0  0  0  0  0  0  0
  141.0670   76.5160  222.3540 C   0  0  0  0  0  0  0  0  0  0  0  0
  139.9070   75.8910  221.9740 C   0  0  0  0  0  0  0  0  0  0  0  0
  140.0280   74.2850  221.2940 Cl  0  0  0  0  0  0  0  0  0  0  0  0
  138.7030   76.5400  222.1380 C   0  0  0  0  0  0  0  0  0  0  0  0
  138.6690   77.8100  222.6820 C   0  0  0  0  0  0  0  0  0  0  0  0
  141.8890   77.3260  219.2530 C   0  0  0  0  0  0  0  0  0  0  0  0
  141.1760   76.5560  218.3540 C   0  0  0  0  0  0  0  0  0  0  0  0
  141.6010   75.2500  218.1710 C   0  0  0  0  0  0  0  0  0  0  0  0
  142.6780   74.7160  218.8380 C   0  0  0  0  0  0  0  0  0  0  0  0
  143.0970   73.3980  218.6450 C   0  0  0  0  0  0  0  0  0  0  0  0
  144.1940   72.9590  219.3670 C   0  0  0  0  0  0  0  0  0  0  0  0
  144.8640   73.8010  220.2590 C   0  0  0  0  0  0  0  0  0  0  0  0
  146.2430   73.1690  221.1350 Cl  0  0  0  0  0  0  0  0  0  0  0  0
  144.4460   75.1010  220.4460 C   0  0  0  0  0  0  0  0  0  0  0  0
  143.3520   75.5480  219.7290 C   0  0  0  0  0  0  0  0  0  0  0  0
  142.9480   76.8180  219.9140 N   0  0  0  0  0  0  0  0  0  0  0  0
  142.9300   79.0070  220.9990 H   0  0  0  0  0  0  0  0  0  0  0  0
  142.6769   81.5090  220.4992 H   0  0  0  0  0  0  0  0  0  0  0  0
  140.9330   81.1646  220.2109 H   0  0  0  0  0  0  0  0  0  0  0  0
  139.2602   82.6667  222.6430 H   0  0  0  0  0  0  0  0  0  0  0  0
  139.0092   81.6281  221.2192 H   0  0  0  0  0  0  0  0  0  0  0  0
  137.2167   81.8407  223.3117 H   0  0  0  0  0  0  0  0  0  0  0  0
  137.3016   80.4198  222.2838 H   0  0  0  0  0  0  0  0  0  0  0  0
  138.5284   80.9065  225.0288 H   0  0  0  0  0  0  0  0  0  0  0  0
  137.8093   79.4229  224.4295 H   0  0  0  0  0  0  0  0  0  0  0  0
  140.4730   79.7810  224.5278 H   0  0  0  0  0  0  0  0  0  0  0  0
  141.9517   78.2505  223.1865 H   0  0  0  0  0  0  0  0  0  0  0  0
  142.0362   76.0111  222.2287 H   0  0  0  0  0  0  0  0  0  0  0  0
  137.7675   76.0468  221.8356 H   0  0  0  0  0  0  0  0  0  0  0  0
  137.6977   78.3116  222.8048 H   0  0  0  0  0  0  0  0  0  0  0  0
  140.3108   76.9612  217.8088 H   0  0  0  0  0  0  0  0  0  0  0  0
  141.0529   74.6128  217.4613 H   0  0  0  0  0  0  0  0  0  0  0  0
  142.5737   72.7315  217.9436 H   0  0  0  0  0  0  0  0  0  0  0  0
  144.5458   71.9251  219.2357 H   0  0  0  0  0  0  0  0  0  0  0  0
  144.9699   75.7661  221.1482 H   0  0  0  0  0  0  0  0  0  0  0  0
  1  2  2  0
  2  3  1  0
  3  4  1  0
  4  5  1  0
  5  6  2  0
  5  7  1  0
  7  8  1  0
  8  9  1  0
  9 10  1  0
 10 11  1  0
 11 12  1  0
 12 13  2  0
 13 14  1  0
 14 15  2  0
 15 16  1  0
 15 17  1  0
 17 18  2  0
  2 19  1  0
 19 20  2  0
 20 21  1  0
 21 22  2  0
 22 23  1  0
 23 24  2  0
 24 25  1  0
 25 26  1  0
 25 27  2  0
 27 28  1  0
 28 29  2  0
 11  7  1  0
 18 12  1  0
 29 19  1  0
 28 22  1  0
  3 30  1  0
  4 31  1  0
  4 32  1  0
  8 33  1  0
  8 34  1  0
  9 35  1  0
  9 36  1  0
 10 37  1  0
 10 38  1  0
 11 39  1  1
 13 40  1  0
 14 41  1  0
 17 42  1  0
 18 43  1  0
 20 44  1  0
 21 45  1  0
 23 46  1  0
 24 47  1  0
 27 48  1  0
M  END
>  <smiles>  (8) 
O=C(NCC(=O)N1CCC[C@H]1c1ccc(Cl)cc1)c1ccc2ccc(Cl)cc2n1

>  <score_type>  (8) 
oracle

>  <origin>  (8) 
autodockgpu

>  <m_score__min__energy>  (8) 
-8.9399999999999995

>  <m_primary>  (8) 
energy

>  <rmsd>  (8) 
8.191744470538037

>  <m_score__min__rmsd>  (8) 
8.191744470538037

>  <meeko>  (8) 
{"free_energy": -6.9, "intermolecular_energy": -8.39, "internal_energy": -3.09, "cluster_size": 27, "cluster_id": 5, "rank_in_cluster": 17}

>  <energy>  (8) 
-7.79

>  <cluster_rmsd>  (8) 
1.46

>  <cluster>  (8) 
1

$$$$

     RDKit          3D

 48 51  0  0  0  0  0  0  0  0999 V2000
  140.5370   80.2560  219.6530 O   0  0  0  0  0  0  0  0  0  0  0  0
  141.4090   79.5100  220.1380 C   0  0  0  0  0  0  0  0  0  0  0  0
  142.2300   79.9660  221.1980 N   0  0  0  0  0  0  0  0  0  0  0  0
  142.1290   81.2840  221.7870 C   0  0  0  0  0  0  0  0  0  0  0  0
  141.3310   81.2260  223.0300 C   0  0  0  0  0  0  0  0  0  0  0  0
  141.8170   81.3670  224.1840 O   0  0  0  0  0  0  0  0  0  0  0  0
  139.9290   81.0010  222.9570 N   0  0  0  0  0  0  0  0  0  0  0  0
  139.0370   81.7830  222.1500 C   0  0  0  0  0  0  0  0  0  0  0  0
  137.6730   81.1630  222.2630 C   0  0  0  0  0  0  0  0  0  0  0  0
  137.7400   80.3810  223.5500 C   0  0  0  0  0  0  0  0  0  0  0  0
  139.1760   79.9930  223.6480 C   0  0  1  0  0  0  0  0  0  0  0  0
  139.4730   78.6360  223.1170 C   0  0  0  0  0  0  0  0  0  0  0  0
  138.4900   77.7980  222.6120 C   0  0  0  0  0  0  0  0  0  0  0  0
  138.7350   76.5480  222.1200 C   0  0  0  0  0  0  0  0  0  0  0  0
  140.0190   76.0680  222.1130 C   0  0  0  0  0  0  0  0  0  0  0  0
  140.2880   74.4620  221.4740 Cl  0  0  0  0  0  0  0  0  0  0  0  0
  141.0400   76.8530  222.6020 C   0  0  0  0  0  0  0  0  0  0  0  0
  140.7660   78.1160  223.0950 C   0  0  0  0  0  0  0  0  0  0  0  0
  141.6020   78.1410  219.6150 C   0  0  0  0  0  0  0  0  0  0  0  0
  140.7100   77.6480  218.6820 C   0  0  0  0  0  0  0  0  0  0  0  0
  140.9320   76.3600  218.2230 C   0  0  0  0  0  0  0  0  0  0  0  0
  141.9820   75.5840  218.6540 C   0  0  0  0  0  0  0  0  0  0  0  0
  142.1940   74.2870  218.1830 C   0  0  0  0  0  0  0  0  0  0  0  0
  143.2820   73.5910  218.6830 C   0  0  0  0  0  0  0  0  0  0  0  0
  144.1400   74.1610  219.6270 C   0  0  0  0  0  0  0  0  0  0  0  0
  145.4940   73.2140  220.2110 Cl  0  0  0  0  0  0  0  0  0  0  0  0
  143.9260   75.4420  220.0890 C   0  0  0  0  0  0  0  0  0  0  0  0
  142.8420   76.1440  219.5950 C   0  0  0  0  0  0  0  0  0  0  0  0
  142.6360   77.3940  220.0490 N   0  0  0  0  0  0  0  0  0  0  0  0
  142.9550   79.2850  221.5700 H   0  0  0  0  0  0  0  0  0  0  0  0
  143.1375   81.6568  222.0194 H   0  0  0  0  0  0  0  0  0  0  0  0
  141.6349   81.9599  221.0736 H   0  0  0  0  0  0  0  0  0  0  0  0
  139.0105   82.8203  222.5151 H   0  0  0  0  0  0  0  0  0  0  0  0
  139.3721   81.7989  221.1024 H   0  0  0  0  0  0  0  0  0  0  0  0
  136.8935   81.9374  222.3149 H   0  0  0  0  0  0  0  0  0  0  0  0
  137.4174   80.5356  221.3964 H   0  0  0  0  0  0  0  0  0  0  0  0
  137.4423   81.0054  224.4053 H   0  0  0  0  0  0  0  0  0  0  0  0
  137.0610   79.5156  223.5610 H   0  0  0  0  0  0  0  0  0  0  0  0
  139.4567   79.9343  224.7100 H   0  0  0  0  0  0  0  0  0  0  0  0
  137.4519   78.1617  222.6076 H   0  0  0  0  0  0  0  0  0  0  0  0
  137.9099   75.9321  221.7329 H   0  0  0  0  0  0  0  0  0  0  0  0
  142.0732   76.4754  222.6004 H   0  0  0  0  0  0  0  0  0  0  0  0
  141.5938   78.7287  223.4815 H   0  0  0  0  0  0  0  0  0  0  0  0
  139.8633   78.2501  218.3207 H   0  0  0  0  0  0  0  0  0  0  0  0
  140.2375   75.9394  217.4808 H   0  0  0  0  0  0  0  0  0  0  0  0
  141.5205   73.8337  217.4407 H   0  0  0  0  0  0  0  0  0  0  0  0
  143.4748   72.5674  218.3293 H   0  0  0  0  0  0  0  0  0  0  0  0
  144.6001   75.8940  220.8314 H   0  0  0  0  0  0  0  0  0  0  0  0
  1  2  2  0
  2  3  1  0
  3  4  1  0
  4  5  1  0
  5  6  2  0
  5  7  1  0
  7  8  1  0
  8  9  1  0
  9 10  1  0
 10 11  1  0
 11 12  1  0
 12 13  2  0
 13 14  1  0
 14 15  2  0
 15 16  1  0
 15 17  1  0
 17 18  2  0
  2 19  1  0
 19 20  2  0
 20 21  1  0
 21 22  2  0
 22 23  1  0
 23 24  2  0
 24 25  1  0
 25 26  1  0
 25 27  2  0
 27 28  1  0
 28 29  2  0
 11  7  1  0
 18 12  1  0
 29 19  1  0
 28 22  1  0
  3 30  1  0
  4 31  1  0
  4 32  1  0
  8 33  1  0
  8 34  1  0
  9 35  1  0
  9 36  1  0
 10 37  1  0
 10 38  1  0
 11 39  1  1
 13 40  1  0
 14 41  1  0
 17 42  1  0
 18 43  1  0
 20 44  1  0
 21 45  1  0
 23 46  1  0
 24 47  1  0
 27 48  1  0
M  END
>  <smiles>  (9) 
O=C(NCC(=O)N1CCC[C@H]1c1ccc(Cl)cc1)c1ccc2ccc(Cl)cc2n1

>  <score_type>  (9) 
oracle

>  <origin>  (9) 
autodockgpu

>  <m_score__min__energy>  (9) 
-8.9399999999999995

>  <m_primary>  (9) 
energy

>  <rmsd>  (9) 
8.544148208870892

>  <m_score__min__rmsd>  (9) 
8.544148208870892

>  <meeko>  (9) 
{"free_energy": -6.55, "intermolecular_energy": -8.04, "internal_energy": -3.27, "cluster_size": 2, "cluster_id": 7, "rank_in_cluster": 2}

>  <energy>  (9) 
-8.49

>  <cluster_rmsd>  (9) 
0.0

>  <cluster>  (9) 
2

$$$$

     RDKit          3D

 48 51  0  0  0  0  0  0  0  0999 V2000
  140.1540   78.4490  218.6120 O   0  0  0  0  0  0  0  0  0  0  0  0
  141.2950   78.1140  218.9850 C   0  0  0  0  0  0  0  0  0  0  0  0
  142.2950   79.0950  219.1940 N   0  0  0  0  0  0  0  0  0  0  0  0
  142.0870   80.5130  219.0010 C   0  0  0  0  0  0  0  0  0  0  0  0
  141.2140   81.0490  220.0660 C   0  0  0  0  0  0  0  0  0  0  0  0
  140.1450   81.6810  219.8470 O   0  0  0  0  0  0  0  0  0  0  0  0
  141.5680   80.8600  221.4300 N   0  0  0  0  0  0  0  0  0  0  0  0
  141.5580   81.9090  222.4080 C   0  0  0  0  0  0  0  0  0  0  0  0
  141.8840   81.2850  223.7360 C   0  0  0  0  0  0  0  0  0  0  0  0
  142.5920   80.0060  223.3670 C   0  0  0  0  0  0  0  0  0  0  0  0
  141.9840   79.6370  222.0560 C   0  0  1  0  0  0  0  0  0  0  0  0
  140.8570   78.6730  222.1610 C   0  0  0  0  0  0  0  0  0  0  0  0
  141.0520   77.3050  222.3010 C   0  0  0  0  0  0  0  0  0  0  0  0
  140.0370   76.3990  222.3970 C   0  0  0  0  0  0  0  0  0  0  0  0
  138.7370   76.8360  222.3570 C   0  0  0  0  0  0  0  0  0  0  0  0
  137.4680   75.6400  222.4850 Cl  0  0  0  0  0  0  0  0  0  0  0  0
  138.4790   78.1820  222.2200 C   0  0  0  0  0  0  0  0  0  0  0  0
  139.5250   79.0820  222.1240 C   0  0  0  0  0  0  0  0  0  0  0  0
  141.6220   76.6920  219.2150 C   0  0  0  0  0  0  0  0  0  0  0  0
  140.6790   75.7290  218.9090 C   0  0  0  0  0  0  0  0  0  0  0  0
  141.0320   74.4100  219.1410 C   0  0  0  0  0  0  0  0  0  0  0  0
  142.2550   74.0430  219.6510 C   0  0  0  0  0  0  0  0  0  0  0  0
  142.5980   72.7090  219.8810 C   0  0  0  0  0  0  0  0  0  0  0  0
  143.8560   72.4490  220.3990 C   0  0  0  0  0  0  0  0  0  0  0  0
  144.7550   73.4800  220.6830 C   0  0  0  0  0  0  0  0  0  0  0  0
  146.3280   73.0660  221.3360 Cl  0  0  0  0  0  0  0  0  0  0  0  0
  144.4110   74.7950  220.4540 C   0  0  0  0  0  0  0  0  0  0  0  0
  143.1570   75.0640  219.9380 C   0  0  0  0  0  0  0  0  0  0  0  0
  142.8260   76.3490  219.7160 N   0  0  0  0  0  0  0  0  0  0  0  0
  143.2480   78.7490  219.5120 H   0  0  0  0  0  0  0  0  0  0  0  0
  143.0573   81.0303  219.0315 H   0  0  0  0  0  0  0  0  0  0  0  0
  141.6057   80.6762  218.0255 H   0  0  0  0  0  0  0  0  0  0  0  0
  142.3123   82.6682  222.1535 H   0  0  0  0  0  0  0  0  0  0  0  0
  140.5753   82.4021  222.4402 H   0  0  0  0  0  0  0  0  0  0  0  0
  142.5410   81.9405  224.3265 H   0  0  0  0  0  0  0  0  0  0  0  0
  140.9921   81.1142  224.3567 H   0  0  0  0  0  0  0  0  0  0  0  0
  143.6748   80.1712  223.2656 H   0  0  0  0  0  0  0  0  0  0  0  0
  142.4798   79.2194  224.1278 H   0  0  0  0  0  0  0  0  0  0  0  0
  142.7360   79.1073  221.4528 H   0  0  0  0  0  0  0  0  0  0  0  0
  142.0856   76.9303  222.3365 H   0  0  0  0  0  0  0  0  0  0  0  0
  140.2587   75.3271  222.5056 H   0  0  0  0  0  0  0  0  0  0  0  0
  137.4400   78.5417  222.1869 H   0  0  0  0  0  0  0  0  0  0  0  0
  139.2988   80.1530  222.0151 H   0  0  0  0  0  0  0  0  0  0  0  0
  139.6938   75.9977  218.5001 H   0  0  0  0  0  0  0  0  0  0  0  0
  140.3018   73.6213  218.9070 H   0  0  0  0  0  0  0  0  0  0  0  0
  141.8940   71.8935  219.6586 H   0  0  0  0  0  0  0  0  0  0  0  0
  144.1538   71.4076  220.5910 H   0  0  0  0  0  0  0  0  0  0  0  0
  145.1162   75.6095  220.6761 H   0  0  0  0  0  0  0  0  0  0  0  0
  1  2  2  0
  2  3  1  0
  3  4  1  0
  4  5  1  0
  5  6  2  0
  5  7  1  0
  7  8  1  0
  8  9  1  0
  9 10  1  0
 10 11  1  0
 11 12  1  0
 12 13  2  0
 13 14  1  0
 14 15  2  0
 15 16  1  0
 15 17  1  0
 17 18  2  0
  2 19  1  0
 19 20  2  0
 20 21  1  0
 21 22  2  0
 22 23  1  0
 23 24  2  0
 24 25  1  0
 25 26  1  0
 25 27  2  0
 27 28  1  0
 28 29  2  0
 11  7  1  0
 18 12  1  0
 29 19  1  0
 28 22  1  0
  3 30  1  0
  4 31  1  0
  4 32  1  0
  8 33  1  0
  8 34  1  0
  9 35  1  0
  9 36  1  0
 10 37  1  0
 10 38  1  0
 11 39  1  6
 13 40  1  0
 14 41  1  0
 17 42  1  0
 18 43  1  0
 20 44  1  0
 21 45  1  0
 23 46  1  0
 24 47  1  0
 27 48  1  0
M  END
>  <smiles>  (10) 
O=C(NCC(=O)N1CCC[C@H]1c1ccc(Cl)cc1)c1ccc2ccc(Cl)cc2n1

>  <score_type>  (10) 
oracle

>  <origin>  (10) 
autodockgpu

>  <m_score__min__energy>  (10) 
-8.9399999999999995

>  <m_primary>  (10) 
energy

>  <rmsd>  (10) 
7.7271372988183815

>  <m_score__min__rmsd>  (10) 
7.7271372988183815

>  <meeko>  (10) 
{"free_energy": -7.11, "intermolecular_energy": -8.6, "internal_energy": -2.92, "cluster_size": 27, "cluster_id": 5, "rank_in_cluster": 12}

>  <energy>  (10) 
-8.48

>  <cluster_rmsd>  (10) 
0.29

>  <cluster>  (10) 
2

$$$$

     RDKit          3D

 48 51  0  0  0  0  0  0  0  0999 V2000
  136.3690   75.5280  222.2650 O   0  0  0  0  0  0  0  0  0  0  0  0
  137.5830   75.7980  222.3420 C   0  0  0  0  0  0  0  0  0  0  0  0
  138.5520   74.7750  222.1960 N   0  0  0  0  0  0  0  0  0  0  0  0
  138.2290   73.3860  221.9540 C   0  0  0  0  0  0  0  0  0  0  0  0
  139.4380   72.5490  222.1020 C   0  0  0  0  0  0  0  0  0  0  0  0
  140.5830   73.0090  222.3630 O   0  0  0  0  0  0  0  0  0  0  0  0
  139.3430   71.1390  221.9480 N   0  0  0  0  0  0  0  0  0  0  0  0
  140.0030   70.4050  220.9080 C   0  0  0  0  0  0  0  0  0  0  0  0
  139.7430   68.9460  221.1560 C   0  0  0  0  0  0  0  0  0  0  0  0
  138.5030   68.9440  222.0140 C   0  0  0  0  0  0  0  0  0  0  0  0
  138.6000   70.2250  222.7700 C   0  0  1  0  0  0  0  0  0  0  0  0
  139.2120   70.0890  224.1170 C   0  0  0  0  0  0  0  0  0  0  0  0
  139.2310   68.8880  224.8130 C   0  0  0  0  0  0  0  0  0  0  0  0
  139.7840   68.7360  226.0520 C   0  0  0  0  0  0  0  0  0  0  0  0
  140.3620   69.8160  226.6680 C   0  0  0  0  0  0  0  0  0  0  0  0
  141.0590   69.5750  228.2540 Cl  0  0  0  0  0  0  0  0  0  0  0  0
  140.3740   71.0350  226.0280 C   0  0  0  0  0  0  0  0  0  0  0  0
  139.8070   71.1650  224.7740 C   0  0  0  0  0  0  0  0  0  0  0  0
  138.0310   77.1840  222.5860 C   0  0  0  0  0  0  0  0  0  0  0  0
  137.0840   78.1860  222.6900 C   0  0  0  0  0  0  0  0  0  0  0  0
  137.5520   79.4690  222.9190 C   0  0  0  0  0  0  0  0  0  0  0  0
  138.8890   79.7650  223.0430 C   0  0  0  0  0  0  0  0  0  0  0  0
  139.3490   81.0640  223.2740 C   0  0  0  0  0  0  0  0  0  0  0  0
  140.7160   81.2520  223.3820 C   0  0  0  0  0  0  0  0  0  0  0  0
  141.6110   80.1860  223.2650 C   0  0  0  0  0  0  0  0  0  0  0  0
  143.3270   80.5090  223.4140 Cl  0  0  0  0  0  0  0  0  0  0  0  0
  141.1520   78.9060  223.0370 C   0  0  0  0  0  0  0  0  0  0  0  0
  139.7880   78.7080  222.9280 C   0  0  0  0  0  0  0  0  0  0  0  0
  139.3450   77.4570  222.7050 N   0  0  0  0  0  0  0  0  0  0  0  0
  139.5710   75.0650  222.2710 H   0  0  0  0  0  0  0  0  0  0  0  0
  137.4688   73.0580  222.6782 H   0  0  0  0  0  0  0  0  0  0  0  0
  137.8416   73.2801  220.9299 H   0  0  0  0  0  0  0  0  0  0  0  0
  139.6003   70.6976  219.9271 H   0  0  0  0  0  0  0  0  0  0  0  0
  141.0830   70.6136  220.9095 H   0  0  0  0  0  0  0  0  0  0  0  0
  139.5663   68.4129  220.2102 H   0  0  0  0  0  0  0  0  0  0  0  0
  140.5928   68.4371  221.6343 H   0  0  0  0  0  0  0  0  0  0  0  0
  137.5954   68.9219  221.3930 H   0  0  0  0  0  0  0  0  0  0  0  0
  138.4378   68.0635  222.6701 H   0  0  0  0  0  0  0  0  0  0  0  0
  137.5842   70.5948  222.9732 H   0  0  0  0  0  0  0  0  0  0  0  0
  138.7737   68.0072  224.3385 H   0  0  0  0  0  0  0  0  0  0  0  0
  139.7660   67.7561  226.5515 H   0  0  0  0  0  0  0  0  0  0  0  0
  140.8354   71.9066  226.5152 H   0  0  0  0  0  0  0  0  0  0  0  0
  139.8259   72.1474  224.2795 H   0  0  0  0  0  0  0  0  0  0  0  0
  136.0088   77.9739  222.5952 H   0  0  0  0  0  0  0  0  0  0  0  0
  136.8221   80.2873  223.0055 H   0  0  0  0  0  0  0  0  0  0  0  0
  138.6492   81.9076  223.3668 H   0  0  0  0  0  0  0  0  0  0  0  0
  141.1066   82.2641  223.5642 H   0  0  0  0  0  0  0  0  0  0  0  0
  141.8533   78.0636  222.9442 H   0  0  0  0  0  0  0  0  0  0  0  0
  1  2  2  0
  2  3  1  0
  3  4  1  0
  4  5  1  0
  5  6  2  0
  5  7  1  0
  7  8  1  0
  8  9  1  0
  9 10  1  0
 10 11  1  0
 11 12  1  0
 12 13  2  0
 13 14  1  0
 14 15  2  0
 15 16  1  0
 15 17  1  0
 17 18  2  0
  2 19  1  0
 19 20  2  0
 20 21  1  0
 21 22  2  0
 22 23  1  0
 23 24  2  0
 24 25  1  0
 25 26  1  0
 25 27  2  0
 27 28  1  0
 28 29  2  0
 11  7  1  0
 18 12  1  0
 29 19  1  0
 28 22  1  0
  3 30  1  0
  4 31  1  0
  4 32  1  0
  8 33  1  0
  8 34  1  0
  9 35  1  0
  9 36  1  0
 10 37  1  0
 10 38  1  0
 11 39  1  1
 13 40  1  0
 14 41  1  0
 17 42  1  0
 18 43  1  0
 20 44  1  0
 21 45  1  0
 23 46  1  0
 24 47  1  0
 27 48  1  0
M  END
>  <smiles>  (11) 
O=C(NCC(=O)N1CCC[C@H]1c1ccc(Cl)cc1)c1ccc2ccc(Cl)cc2n1

>  <score_type>  (11) 
oracle

>  <origin>  (11) 
autodockgpu

>  <m_score__min__energy>  (11) 
-8.9399999999999995

>  <m_primary>  (11) 
energy

>  <rmsd>  (11) 
8.150957401413613

>  <m_score__min__rmsd>  (11) 
8.150957401413613

>  <meeko>  (11) 
{"free_energy": -7.89, "intermolecular_energy": -9.39, "internal_energy": -1.95, "cluster_size": 8, "cluster_id": 1, "rank_in_cluster": 7}

>  <energy>  (11) 
-8.46

>  <cluster_rmsd>  (11) 
0.28

>  <cluster>  (11) 
2

$$$$

     RDKit          3D

 48 51  0  0  0  0  0  0  0  0999 V2000
  140.5820   79.5230  218.9450 O   0  0  0  0  0  0  0  0  0  0  0  0
  141.4970   78.9760  219.5900 C   0  0  0  0  0  0  0  0  0  0  0  0
  142.1670   79.6840  220.6180 N   0  0  0  0  0  0  0  0  0  0  0  0
  141.8590   81.0460  220.9930 C   0  0  0  0  0  0  0  0  0  0  0  0
  141.4890   81.1100  222.4230 C   0  0  0  0  0  0  0  0  0  0  0  0
  142.3080   81.3570  223.3500 O   0  0  0  0  0  0  0  0  0  0  0  0
  140.1410   80.8850  222.8130 N   0  0  0  0  0  0  0  0  0  0  0  0
  139.0360   81.6740  222.3510 C   0  0  0  0  0  0  0  0  0  0  0  0
  137.7830   81.0530  222.9010 C   0  0  0  0  0  0  0  0  0  0  0  0
  138.2670   80.2600  224.0880 C   0  0  0  0  0  0  0  0  0  0  0  0
  139.6540   79.8700  223.7050 C   0  0  1  0  0  0  0  0  0  0  0  0
  139.7570   78.5190  223.0950 C   0  0  0  0  0  0  0  0  0  0  0  0
  138.6480   77.8090  222.6560 C   0  0  0  0  0  0  0  0  0  0  0  0
  138.7140   76.5670  222.0940 C   0  0  0  0  0  0  0  0  0  0  0  0
  139.9350   75.9610  221.9410 C   0  0  0  0  0  0  0  0  0  0  0  0
  139.9720   74.3700  221.2160 Cl  0  0  0  0  0  0  0  0  0  0  0  0
  141.0730   76.6150  222.3580 C   0  0  0  0  0  0  0  0  0  0  0  0
  140.9810   77.8730  222.9240 C   0  0  0  0  0  0  0  0  0  0  0  0
  141.8980   77.5850  219.2950 C   0  0  0  0  0  0  0  0  0  0  0  0
  141.1940   76.8720  218.3420 C   0  0  0  0  0  0  0  0  0  0  0  0
  141.6060   75.5730  218.1000 C   0  0  0  0  0  0  0  0  0  0  0  0
  142.6630   74.9900  218.7590 C   0  0  0  0  0  0  0  0  0  0  0  0
  143.0690   73.6780  218.5050 C   0  0  0  0  0  0  0  0  0  0  0  0
  144.1450   73.1880  219.2250 C   0  0  0  0  0  0  0  0  0  0  0  0
  144.8070   73.9720  220.1740 C   0  0  0  0  0  0  0  0  0  0  0  0
  146.1600   73.2770  221.0430 Cl  0  0  0  0  0  0  0  0  0  0  0  0
  144.4020   75.2670  220.4200 C   0  0  0  0  0  0  0  0  0  0  0  0
  143.3280   75.7650  219.7060 C   0  0  0  0  0  0  0  0  0  0  0  0
  142.9360   77.0290  219.9500 N   0  0  0  0  0  0  0  0  0  0  0  0
  142.9380   79.1650  221.1340 H   0  0  0  0  0  0  0  0  0  0  0  0
  142.7407   81.6797  220.8170 H   0  0  0  0  0  0  0  0  0  0  0  0
  141.0133   81.4029  220.3869 H   0  0  0  0  0  0  0  0  0  0  0  0
  139.1341   82.7080  222.7134 H   0  0  0  0  0  0  0  0  0  0  0  0
  139.0081   81.6993  221.2516 H   0  0  0  0  0  0  0  0  0  0  0  0
  137.0660   81.8269  223.2125 H   0  0  0  0  0  0  0  0  0  0  0  0
  137.2550   80.4331  222.1615 H   0  0  0  0  0  0  0  0  0  0  0  0
  138.2695   80.8773  224.9985 H   0  0  0  0  0  0  0  0  0  0  0  0
  137.6264   79.3951  224.3150 H   0  0  0  0  0  0  0  0  0  0  0  0
  140.2675   79.8006  224.6154 H   0  0  0  0  0  0  0  0  0  0  0  0
  137.6577   78.2747  222.7676 H   0  0  0  0  0  0  0  0  0  0  0  0
  137.7962   76.0565  221.7667 H   0  0  0  0  0  0  0  0  0  0  0  0
  142.0562   76.1359  222.2406 H   0  0  0  0  0  0  0  0  0  0  0  0
  141.9014   78.3799  223.2494 H   0  0  0  0  0  0  0  0  0  0  0  0
  140.3456   77.3167  217.8011 H   0  0  0  0  0  0  0  0  0  0  0  0
  141.0643   74.9810  217.3476 H   0  0  0  0  0  0  0  0  0  0  0  0
  142.5521   73.0561  217.7593 H   0  0  0  0  0  0  0  0  0  0  0  0
  144.4869   72.1579  219.0461 H   0  0  0  0  0  0  0  0  0  0  0  0
  144.9203   75.8880  221.1654 H   0  0  0  0  0  0  0  0  0  0  0  0
  1  2  2  0
  2  3  1  0
  3  4  1  0
  4  5  1  0
  5  6  2  0
  5  7  1  0
  7  8  1  0
  8  9  1  0
  9 10  1  0
 10 11  1  0
 11 12  1  0
 12 13  2  0
 13 14  1  0
 14 15  2  0
 15 16  1  0
 15 17  1  0
 17 18  2  0
  2 19  1  0
 19 20  2  0
 20 21  1  0
 21 22  2  0
 22 23  1  0
 23 24  2  0
 24 25  1  0
 25 26  1  0
 25 27  2  0
 27 28  1  0
 28 29  2  0
 11  7  1  0
 18 12  1  0
 29 19  1  0
 28 22  1  0
  3 30  1  0
  4 31  1  0
  4 32  1  0
  8 33  1  0
  8 34  1  0
  9 35  1  0
  9 36  1  0
 10 37  1  0
 10 38  1  0
 11 39  1  1
 13 40  1  0
 14 41  1  0
 17 42  1  0
 18 43  1  0
 20 44  1  0
 21 45  1  0
 23 46  1  0
 24 47  1  0
 27 48  1  0
M  END
>  <smiles>  (12) 
O=C(NCC(=O)N1CCC[C@H]1c1ccc(Cl)cc1)c1ccc2ccc(Cl)cc2n1

>  <score_type>  (12) 
oracle

>  <origin>  (12) 
autodockgpu

>  <m_score__min__energy>  (12) 
-8.9399999999999995

>  <m_primary>  (12) 
energy

>  <rmsd>  (12) 
8.339064380145336

>  <m_score__min__rmsd>  (12) 
8.339064380145336

>  <meeko>  (12) 
{"free_energy": -6.85, "intermolecular_energy": -8.34, "internal_energy": -3.1, "cluster_size": 27, "cluster_id": 5, "rank_in_cluster": 23}

>  <energy>  (12) 
-8.37

>  <cluster_rmsd>  (12) 
0.46

>  <cluster>  (12) 
2

$$$$

     RDKit          3D

 48 51  0  0  0  0  0  0  0  0999 V2000
  140.1650   78.1890  218.3590 O   0  0  0  0  0  0  0  0  0  0  0  0
  141.3010   77.9440  218.8100 C   0  0  0  0  0  0  0  0  0  0  0  0
  142.2170   78.9970  219.0490 N   0  0  0  0  0  0  0  0  0  0  0  0
  141.9250   80.3920  218.8000 C   0  0  0  0  0  0  0  0  0  0  0  0
  141.1860   80.9690  219.9440 C   0  0  0  0  0  0  0  0  0  0  0  0
  140.1520   81.6800  219.8250 O   0  0  0  0  0  0  0  0  0  0  0  0
  141.6400   80.7290  221.2700 N   0  0  0  0  0  0  0  0  0  0  0  0
  141.7830   81.7560  222.2600 C   0  0  0  0  0  0  0  0  0  0  0  0
  142.1760   81.0850  223.5460 C   0  0  0  0  0  0  0  0  0  0  0  0
  142.7620   79.7700  223.0990 C   0  0  0  0  0  0  0  0  0  0  0  0
  142.0230   79.4680  221.8400 C   0  0  1  0  0  0  0  0  0  0  0  0
  140.8470   78.5790  222.0260 C   0  0  0  0  0  0  0  0  0  0  0  0
  140.9620   77.2000  222.1390 C   0  0  0  0  0  0  0  0  0  0  0  0
  139.8990   76.3600  222.3080 C   0  0  0  0  0  0  0  0  0  0  0  0
  138.6320   76.8820  222.3740 C   0  0  0  0  0  0  0  0  0  0  0  0
  137.3010   75.7700  222.5920 Cl  0  0  0  0  0  0  0  0  0  0  0  0
  138.4540   78.2430  222.2680 C   0  0  0  0  0  0  0  0  0  0  0  0
  139.5460   79.0740  222.0970 C   0  0  0  0  0  0  0  0  0  0  0  0
  141.7090   76.5540  219.1020 C   0  0  0  0  0  0  0  0  0  0  0  0
  140.8320   75.5240  218.8190 C   0  0  0  0  0  0  0  0  0  0  0  0
  141.2600   74.2390  219.1100 C   0  0  0  0  0  0  0  0  0  0  0  0
  142.4920   73.9680  219.6550 C   0  0  0  0  0  0  0  0  0  0  0  0
  142.9120   72.6680  219.9440 C   0  0  0  0  0  0  0  0  0  0  0  0
  144.1720   72.5050  220.4930 C   0  0  0  0  0  0  0  0  0  0  0  0
  145.0020   73.6000  220.7510 C   0  0  0  0  0  0  0  0  0  0  0  0
  146.5840   73.3100  221.4460 Cl  0  0  0  0  0  0  0  0  0  0  0  0
  144.5830   74.8820  220.4630 C   0  0  0  0  0  0  0  0  0  0  0  0
  143.3260   75.0530  219.9160 C   0  0  0  0  0  0  0  0  0  0  0  0
  142.9210   76.3060  219.6370 N   0  0  0  0  0  0  0  0  0  0  0  0
  143.1690   78.7270  219.4340 H   0  0  0  0  0  0  0  0  0  0  0  0
  142.8676   80.9418  218.6613 H   0  0  0  0  0  0  0  0  0  0  0  0
  141.3068   80.4741  217.8939 H   0  0  0  0  0  0  0  0  0  0  0  0
  142.5630   82.4685  221.9534 H   0  0  0  0  0  0  0  0  0  0  0  0
  140.8422   82.3126  222.3827 H   0  0  0  0  0  0  0  0  0  0  0  0
  142.9231   81.6832  224.0881 H   0  0  0  0  0  0  0  0  0  0  0  0
  141.3298   80.9612  224.2379 H   0  0  0  0  0  0  0  0  0  0  0  0
  143.8411   79.8654  222.9080 H   0  0  0  0  0  0  0  0  0  0  0  0
  142.6608   78.9775  223.8551 H   0  0  0  0  0  0  0  0  0  0  0  0
  142.6836   78.9013  221.1673 H   0  0  0  0  0  0  0  0  0  0  0  0
  141.9683   76.7584  222.0895 H   0  0  0  0  0  0  0  0  0  0  0  0
  140.0570   75.2745  222.3905 H   0  0  0  0  0  0  0  0  0  0  0  0
  137.4416   78.6701  222.3194 H   0  0  0  0  0  0  0  0  0  0  0  0
  139.3829   80.1587  222.0145 H   0  0  0  0  0  0  0  0  0  0  0  0
  139.8404   75.7156  218.3830 H   0  0  0  0  0  0  0  0  0  0  0  0
  140.5837   73.3984  218.8953 H   0  0  0  0  0  0  0  0  0  0  0  0
  142.2634   71.8028  219.7422 H   0  0  0  0  0  0  0  0  0  0  0  0
  144.5281   71.4919  220.7315 H   0  0  0  0  0  0  0  0  0  0  0  0
  145.2331   75.7463  220.6637 H   0  0  0  0  0  0  0  0  0  0  0  0
  1  2  2  0
  2  3  1  0
  3  4  1  0
  4  5  1  0
  5  6  2  0
  5  7  1  0
  7  8  1  0
  8  9  1  0
  9 10  1  0
 10 11  1  0
 11 12  1  0
 12 13  2  0
 13 14  1  0
 14 15  2  0
 15 16  1  0
 15 17  1  0
 17 18  2  0
  2 19  1  0
 19 20  2  0
 20 21  1  0
 21 22  2  0
 22 23  1  0
 23 24  2  0
 24 25  1  0
 25 26  1  0
 25 27  2  0
 27 28  1  0
 28 29  2  0
 11  7  1  0
 18 12  1  0
 29 19  1  0
 28 22  1  0
  3 30  1  0
  4 31  1  0
  4 32  1  0
  8 33  1  0
  8 34  1  0
  9 35  1  0
  9 36  1  0
 10 37  1  0
 10 38  1  0
 11 39  1  6
 13 40  1  0
 14 41  1  0
 17 42  1  0
 18 43  1  0
 20 44  1  0
 21 45  1  0
 23 46  1  0
 24 47  1  0
 27 48  1  0
M  END
>  <smiles>  (13) 
O=C(NCC(=O)N1CCC[C@H]1c1ccc(Cl)cc1)c1ccc2ccc(Cl)cc2n1

>  <score_type>  (13) 
oracle

>  <origin>  (13) 
autodockgpu

>  <m_score__min__energy>  (13) 
-8.9399999999999995

>  <m_primary>  (13) 
energy

>  <rmsd>  (13) 
7.650302411966652

>  <m_score__min__rmsd>  (13) 
7.650302411966652

>  <meeko>  (13) 
{"free_energy": -7.17, "intermolecular_energy": -8.66, "internal_energy": -2.8, "cluster_size": 27, "cluster_id": 5, "rank_in_cluster": 8}

>  <energy>  (13) 
-8.44

>  <cluster_rmsd>  (13) 
0.0

>  <cluster>  (13) 
3

$$$$

     RDKit          3D

 48 51  0  0  0  0  0  0  0  0999 V2000
  140.4060   79.8460  219.2990 O   0  0  0  0  0  0  0  0  0  0  0  0
  141.3470   79.2170  219.8180 C   0  0  0  0  0  0  0  0  0  0  0  0
  142.1620   79.8310  220.8010 N   0  0  0  0  0  0  0  0  0  0  0  0
  141.9780   81.1880  221.2670 C   0  0  0  0  0  0  0  0  0  0  0  0
  141.4500   81.1840  222.6480 C   0  0  0  0  0  0  0  0  0  0  0  0
  142.1620   81.3620  223.6730 O   0  0  0  0  0  0  0  0  0  0  0  0
  140.0620   80.9700  222.8710 N   0  0  0  0  0  0  0  0  0  0  0  0
  139.0270   81.7490  222.2560 C   0  0  0  0  0  0  0  0  0  0  0  0
  137.7120   81.1430  222.6590 C   0  0  0  0  0  0  0  0  0  0  0  0
  138.0410   80.3770  223.9150 C   0  0  0  0  0  0  0  0  0  0  0  0
  139.4630   79.9770  223.7180 C   0  0  1  0  0  0  0  0  0  0  0  0
  139.6360   78.6120  223.1560 C   0  0  0  0  0  0  0  0  0  0  0  0
  140.8790   78.0070  223.0290 C   0  0  0  0  0  0  0  0  0  0  0  0
  141.0670   76.7560  222.5150 C   0  0  0  0  0  0  0  0  0  0  0  0
  139.9810   76.0320  222.0930 C   0  0  0  0  0  0  0  0  0  0  0  0
  140.2680   74.4340  221.4430 Cl  0  0  0  0  0  0  0  0  0  0  0  0
  138.7210   76.5790  222.1930 C   0  0  0  0  0  0  0  0  0  0  0  0
  138.5560   77.8480  222.7170 C   0  0  0  0  0  0  0  0  0  0  0  0
  141.6290   77.8220  219.4190 C   0  0  0  0  0  0  0  0  0  0  0  0
  140.7650   77.1870  218.5470 C   0  0  0  0  0  0  0  0  0  0  0  0
  141.0710   75.8810  218.2020 C   0  0  0  0  0  0  0  0  0  0  0  0
  142.1750   75.2190  218.6870 C   0  0  0  0  0  0  0  0  0  0  0  0
  142.4720   73.9020  218.3310 C   0  0  0  0  0  0  0  0  0  0  0  0
  143.6080   73.3300  218.8770 C   0  0  0  0  0  0  0  0  0  0  0  0
  144.4330   74.0390  219.7540 C   0  0  0  0  0  0  0  0  0  0  0  0
  145.8530   73.2420  220.4020 Cl  0  0  0  0  0  0  0  0  0  0  0  0
  144.1350   75.3390  220.1020 C   0  0  0  0  0  0  0  0  0  0  0  0
  143.0020   75.9190  219.5620 C   0  0  0  0  0  0  0  0  0  0  0  0
  142.7150   77.1880  219.9040 N   0  0  0  0  0  0  0  0  0  0  0  0
  142.9480   79.2450  221.2070 H   0  0  0  0  0  0  0  0  0  0  0  0
  142.9444   81.7132  221.2485 H   0  0  0  0  0  0  0  0  0  0  0  0
  141.2608   81.7004  220.6089 H   0  0  0  0  0  0  0  0  0  0  0  0
  139.0834   82.7912  222.6035 H   0  0  0  0  0  0  0  0  0  0  0  0
  139.1371   81.7480  221.1615 H   0  0  0  0  0  0  0  0  0  0  0  0
  136.9652   81.9250  222.8608 H   0  0  0  0  0  0  0  0  0  0  0  0
  137.2773   80.5072  221.8736 H   0  0  0  0  0  0  0  0  0  0  0  0
  137.9319   81.0151  224.8043 H   0  0  0  0  0  0  0  0  0  0  0  0
  137.3738   79.5180  224.0794 H   0  0  0  0  0  0  0  0  0  0  0  0
  139.9571   79.9283  224.6996 H   0  0  0  0  0  0  0  0  0  0  0  0
  141.7644   78.5683  223.3620 H   0  0  0  0  0  0  0  0  0  0  0  0
  142.0796   76.3329  222.4401 H   0  0  0  0  0  0  0  0  0  0  0  0
  137.8449   76.0058  221.8556 H   0  0  0  0  0  0  0  0  0  0  0  0
  137.5416   78.2673  222.7896 H   0  0  0  0  0  0  0  0  0  0  0  0
  139.8758   77.6951  218.1457 H   0  0  0  0  0  0  0  0  0  0  0  0
  140.4016   75.3496  217.5095 H   0  0  0  0  0  0  0  0  0  0  0  0
  141.8261   73.3390  217.6411 H   0  0  0  0  0  0  0  0  0  0  0  0
  143.8672   72.2937  218.6145 H   0  0  0  0  0  0  0  0  0  0  0  0
  144.7821   75.9007  220.7918 H   0  0  0  0  0  0  0  0  0  0  0  0
  1  2  2  0
  2  3  1  0
  3  4  1  0
  4  5  1  0
  5  6  2  0
  5  7  1  0
  7  8  1  0
  8  9  1  0
  9 10  1  0
 10 11  1  0
 11 12  1  0
 12 13  2  0
 13 14  1  0
 14 15  2  0
 15 16  1  0
 15 17  1  0
 17 18  2  0
  2 19  1  0
 19 20  2  0
 20 21  1  0
 21 22  2  0
 22 23  1  0
 23 24  2  0
 24 25  1  0
 25 26  1  0
 25 27  2  0
 27 28  1  0
 28 29  2  0
 11  7  1  0
 18 12  1  0
 29 19  1  0
 28 22  1  0
  3 30  1  0
  4 31  1  0
  4 32  1  0
  8 33  1  0
  8 34  1  0
  9 35  1  0
  9 36  1  0
 10 37  1  0
 10 38  1  0
 11 39  1  1
 13 40  1  0
 14 41  1  0
 17 42  1  0
 18 43  1  0
 20 44  1  0
 21 45  1  0
 23 46  1  0
 24 47  1  0
 27 48  1  0
M  END
>  <smiles>  (14) 
O=C(NCC(=O)N1CCC[C@H]1c1ccc(Cl)cc1)c1ccc2ccc(Cl)cc2n1

>  <score_type>  (14) 
oracle

>  <origin>  (14) 
autodockgpu

>  <m_score__min__energy>  (14) 
-8.9399999999999995

>  <m_primary>  (14) 
energy

>  <rmsd>  (14) 
8.426512014663269

>  <m_score__min__rmsd>  (14) 
8.426512014663269

>  <meeko>  (14) 
{"free_energy": -6.69, "intermolecular_energy": -8.18, "internal_energy": -3.21, "cluster_size": 27, "cluster_id": 5, "rank_in_cluster": 25}

>  <energy>  (14) 
-8.43

>  <cluster_rmsd>  (14) 
0.47

>  <cluster>  (14) 
3

$$$$

     RDKit          3D

 48 51  0  0  0  0  0  0  0  0999 V2000
  137.8420   73.8080  221.8540 O   0  0  0  0  0  0  0  0  0  0  0  0
  138.9250   74.4170  221.9430 C   0  0  0  0  0  0  0  0  0  0  0  0
  140.1480   73.7340  221.7390 N   0  0  0  0  0  0  0  0  0  0  0  0
  140.2420   72.3250  221.4220 C   0  0  0  0  0  0  0  0  0  0  0  0
  140.1960   71.5210  222.6610 C   0  0  0  0  0  0  0  0  0  0  0  0
  141.1020   71.5300  223.5380 O   0  0  0  0  0  0  0  0  0  0  0  0
  139.0810   70.6750  222.9120 N   0  0  0  0  0  0  0  0  0  0  0  0
  138.5760   69.7230  221.9650 C   0  0  0  0  0  0  0  0  0  0  0  0
  137.4730   68.9600  222.6460 C   0  0  0  0  0  0  0  0  0  0  0  0
  137.0410   69.8750  223.7630 C   0  0  0  0  0  0  0  0  0  0  0  0
  138.2860   70.6200  224.1060 C   0  0  1  0  0  0  0  0  0  0  0  0
  139.0510   70.0330  225.2370 C   0  0  0  0  0  0  0  0  0  0  0  0
  138.9440   68.6980  225.6010 C   0  0  0  0  0  0  0  0  0  0  0  0
  139.6330   68.1340  226.6360 C   0  0  0  0  0  0  0  0  0  0  0  0
  140.4870   68.9090  227.3770 C   0  0  0  0  0  0  0  0  0  0  0  0
  141.3490   68.1460  228.6930 Cl  0  0  0  0  0  0  0  0  0  0  0  0
  140.6360   70.2420  227.0650 C   0  0  0  0  0  0  0  0  0  0  0  0
  139.9280   70.7910  226.0120 C   0  0  0  0  0  0  0  0  0  0  0  0
  138.9510   75.8600  222.2630 C   0  0  0  0  0  0  0  0  0  0  0  0
  137.7550   76.5460  222.3630 C   0  0  0  0  0  0  0  0  0  0  0  0
  137.8300   77.8950  222.6650 C   0  0  0  0  0  0  0  0  0  0  0  0
  139.0230   78.5510  222.8610 C   0  0  0  0  0  0  0  0  0  0  0  0
  139.0850   79.9130  223.1640 C   0  0  0  0  0  0  0  0  0  0  0  0
  140.3380   80.4760  223.3410 C   0  0  0  0  0  0  0  0  0  0  0  0
  141.5030   79.7140  223.2220 C   0  0  0  0  0  0  0  0  0  0  0  0
  143.0500   80.5010  223.4620 Cl  0  0  0  0  0  0  0  0  0  0  0  0
  141.4360   78.3700  222.9230 C   0  0  0  0  0  0  0  0  0  0  0  0
  140.1890   77.7990  222.7440 C   0  0  0  0  0  0  0  0  0  0  0  0
  140.1280   76.4870  222.4520 N   0  0  0  0  0  0  0  0  0  0  0  0
  141.0390   74.3060  221.8280 H   0  0  0  0  0  0  0  0  0  0  0  0
  139.4005   72.0413  220.7729 H   0  0  0  0  0  0  0  0  0  0  0  0
  141.1943   72.1353  220.9051 H   0  0  0  0  0  0  0  0  0  0  0  0
  138.1827   70.2443  221.0798 H   0  0  0  0  0  0  0  0  0  0  0  0
  139.3737   69.0425  221.6323 H   0  0  0  0  0  0  0  0  0  0  0  0
  136.6415   68.7693  221.9516 H   0  0  0  0  0  0  0  0  0  0  0  0
  137.7976   67.9725  223.0058 H   0  0  0  0  0  0  0  0  0  0  0  0
  136.2521   70.5629  223.4246 H   0  0  0  0  0  0  0  0  0  0  0  0
  136.6171   69.3323  224.6208 H   0  0  0  0  0  0  0  0  0  0  0  0
  138.0120   71.6251  224.4591 H   0  0  0  0  0  0  0  0  0  0  0  0
  138.2639   68.0564  225.0214 H   0  0  0  0  0  0  0  0  0  0  0  0
  139.5040   67.0676  226.8731 H   0  0  0  0  0  0  0  0  0  0  0  0
  141.3194   70.8709  227.6545 H   0  0  0  0  0  0  0  0  0  0  0  0
  140.0605   71.8578  225.7786 H   0  0  0  0  0  0  0  0  0  0  0  0
  136.7886   76.0434  222.2098 H   0  0  0  0  0  0  0  0  0  0  0  0
  136.8946   78.4673  222.7520 H   0  0  0  0  0  0  0  0  0  0  0  0
  138.1708   80.5173  223.2587 H   0  0  0  0  0  0  0  0  0  0  0  0
  140.4177   81.5466  223.5805 H   0  0  0  0  0  0  0  0  0  0  0  0
  142.3511   77.7669  222.8291 H   0  0  0  0  0  0  0  0  0  0  0  0
  1  2  2  0
  2  3  1  0
  3  4  1  0
  4  5  1  0
  5  6  2  0
  5  7  1  0
  7  8  1  0
  8  9  1  0
  9 10  1  0
 10 11  1  0
 11 12  1  0
 12 13  2  0
 13 14  1  0
 14 15  2  0
 15 16  1  0
 15 17  1  0
 17 18  2  0
  2 19  1  0
 19 20  2  0
 20 21  1  0
 21 22  2  0
 22 23  1  0
 23 24  2  0
 24 25  1  0
 25 26  1  0
 25 27  2  0
 27 28  1  0
 28 29  2  0
 11  7  1  0
 18 12  1  0
 29 19  1  0
 28 22  1  0
  3 30  1  0
  4 31  1  0
  4 32  1  0
  8 33  1  0
  8 34  1  0
  9 35  1  0
  9 36  1  0
 10 37  1  0
 10 38  1  0
 11 39  1  1
 13 40  1  0
 14 41  1  0
 17 42  1  0
 18 43  1  0
 20 44  1  0
 21 45  1  0
 23 46  1  0
 24 47  1  0
 27 48  1  0
M  END
>  <smiles>  (15) 
O=C(NCC(=O)N1CCC[C@H]1c1ccc(Cl)cc1)c1ccc2ccc(Cl)cc2n1

>  <score_type>  (15) 
oracle

>  <origin>  (15) 
autodockgpu

>  <m_score__min__energy>  (15) 
-8.9399999999999995

>  <m_primary>  (15) 
energy

>  <rmsd>  (15) 
7.844093028212415

>  <m_score__min__rmsd>  (15) 
7.844093028212415

>  <meeko>  (15) 
{"free_energy": -8.3, "intermolecular_energy": -9.8, "internal_energy": -1.72, "cluster_size": 8, "cluster_id": 1, "rank_in_cluster": 5}

>  <energy>  (15) 
-8.42

>  <cluster_rmsd>  (15) 
0.48

>  <cluster>  (15) 
3

$$$$

     RDKit          3D

 48 51  0  0  0  0  0  0  0  0999 V2000
  140.2020   73.4860  222.3380 O   0  0  0  0  0  0  0  0  0  0  0  0
  140.3070   74.4620  221.5690 C   0  0  0  0  0  0  0  0  0  0  0  0
  140.7900   74.2830  220.2500 N   0  0  0  0  0  0  0  0  0  0  0  0
  141.1870   73.0040  219.7030 C   0  0  0  0  0  0  0  0  0  0  0  0
  142.2470   72.4000  220.5370 C   0  0  0  0  0  0  0  0  0  0  0  0
  142.0360   71.5150  221.4100 O   0  0  0  0  0  0  0  0  0  0  0  0
  143.5960   72.8190  220.3750 N   0  0  0  0  0  0  0  0  0  0  0  0
  144.6430   71.9620  219.8970 C   0  0  0  0  0  0  0  0  0  0  0  0
  145.8820   72.8030  219.7650 C   0  0  0  0  0  0  0  0  0  0  0  0
  145.6230   73.9700  220.6820 C   0  0  0  0  0  0  0  0  0  0  0  0
  144.1400   74.1190  220.6470 C   0  0  1  0  0  0  0  0  0  0  0  0
  143.6550   75.1240  219.6650 C   0  0  0  0  0  0  0  0  0  0  0  0
  143.7230   74.9230  218.2930 C   0  0  0  0  0  0  0  0  0  0  0  0
  143.2870   75.8290  217.3690 C   0  0  0  0  0  0  0  0  0  0  0  0
  142.7470   77.0160  217.7940 C   0  0  0  0  0  0  0  0  0  0  0  0
  142.2020   78.1470  216.5760 Cl  0  0  0  0  0  0  0  0  0  0  0  0
  142.6530   77.2740  219.1430 C   0  0  0  0  0  0  0  0  0  0  0  0
  143.1010   76.3410  220.0600 C   0  0  0  0  0  0  0  0  0  0  0  0
  139.9310   75.8170  222.0200 C   0  0  0  0  0  0  0  0  0  0  0  0
  138.5910   76.1430  222.1200 C   0  0  0  0  0  0  0  0  0  0  0  0
  138.2880   77.4250  222.5470 C   0  0  0  0  0  0  0  0  0  0  0  0
  139.2510   78.3540  222.8640 C   0  0  0  0  0  0  0  0  0  0  0  0
  138.9320   79.6440  223.2930 C   0  0  0  0  0  0  0  0  0  0  0  0
  139.9790   80.5010  223.5860 C   0  0  0  0  0  0  0  0  0  0  0  0
  141.3100   80.0970  223.4600 C   0  0  0  0  0  0  0  0  0  0  0  0
  142.5770   81.2420  223.8510 Cl  0  0  0  0  0  0  0  0  0  0  0  0
  141.6200   78.8220  223.0360 C   0  0  0  0  0  0  0  0  0  0  0  0
  140.5810   77.9590  222.7410 C   0  0  0  0  0  0  0  0  0  0  0  0
  140.8880   76.7160  222.3270 N   0  0  0  0  0  0  0  0  0  0  0  0
  140.8570   75.1510  219.6420 H   0  0  0  0  0  0  0  0  0  0  0  0
  140.3160   72.3325  219.6796 H   0  0  0  0  0  0  0  0  0  0  0  0
  141.5731   73.1533  218.6839 H   0  0  0  0  0  0  0  0  0  0  0  0
  144.8169   71.1448  220.6125 H   0  0  0  0  0  0  0  0  0  0  0  0
  144.3701   71.5152  218.9296 H   0  0  0  0  0  0  0  0  0  0  0  0
  146.7723   72.2424  220.0860 H   0  0  0  0  0  0  0  0  0  0  0  0
  146.0780   73.1122  218.7277 H   0  0  0  0  0  0  0  0  0  0  0  0
  145.9722   73.7531  221.7023 H   0  0  0  0  0  0  0  0  0  0  0  0
  146.1524   74.8832  220.3725 H   0  0  0  0  0  0  0  0  0  0  0  0
  143.7998   74.5064  221.6187 H   0  0  0  0  0  0  0  0  0  0  0  0
  144.1534   73.9784  217.9289 H   0  0  0  0  0  0  0  0  0  0  0  0
  143.3681   75.6090  216.2943 H   0  0  0  0  0  0  0  0  0  0  0  0
  142.2210   78.2236  219.4919 H   0  0  0  0  0  0  0  0  0  0  0  0
  143.0178   76.5657  221.1336 H   0  0  0  0  0  0  0  0  0  0  0  0
  137.8022   75.4176  221.8719 H   0  0  0  0  0  0  0  0  0  0  0  0
  137.2301   77.7130  222.6366 H   0  0  0  0  0  0  0  0  0  0  0  0
  137.8857   79.9678  223.3946 H   0  0  0  0  0  0  0  0  0  0  0  0
  139.7576   81.5235  223.9258 H   0  0  0  0  0  0  0  0  0  0  0  0
  142.6669   78.4999  222.9351 H   0  0  0  0  0  0  0  0  0  0  0  0
  1  2  2  0
  2  3  1  0
  3  4  1  0
  4  5  1  0
  5  6  2  0
  5  7  1  0
  7  8  1  0
  8  9  1  0
  9 10  1  0
 10 11  1  0
 11 12  1  0
 12 13  2  0
 13 14  1  0
 14 15  2  0
 15 16  1  0
 15 17  1  0
 17 18  2  0
  2 19  1  0
 19 20  2  0
 20 21  1  0
 21 22  2  0
 22 23  1  0
 23 24  2  0
 24 25  1  0
 25 26  1  0
 25 27  2  0
 27 28  1  0
 28 29  2  0
 11  7  1  0
 18 12  1  0
 29 19  1  0
 28 22  1  0
  3 30  1  0
  4 31  1  0
  4 32  1  0
  8 33  1  0
  8 34  1  0
  9 35  1  0
  9 36  1  0
 10 37  1  0
 10 38  1  0
 11 39  1  1
 13 40  1  0
 14 41  1  0
 17 42  1  0
 18 43  1  0
 20 44  1  0
 21 45  1  0
 23 46  1  0
 24 47  1  0
 27 48  1  0
M  END
>  <smiles>  (16) 
O=C(NCC(=O)N1CCC[C@H]1c1ccc(Cl)cc1)c1ccc2ccc(Cl)cc2n1

>  <score_type>  (16) 
oracle

>  <origin>  (16) 
autodockgpu

>  <m_score__min__energy>  (16) 
-8.9399999999999995

>  <m_primary>  (16) 
energy

>  <rmsd>  (16) 
7.100861692010297

>  <m_score__min__rmsd>  (16) 
7.100861692010297

>  <meeko>  (16) 
{"free_energy": -7.84, "intermolecular_energy": -9.33, "internal_energy": -2.12, "cluster_size": 4, "cluster_id": 4, "rank_in_cluster": 2}

>  <energy>  (16) 
-8.39

>  <cluster_rmsd>  (16) 
0.45

>  <cluster>  (16) 
3

$$$$

     RDKit          3D

 48 51  0  0  0  0  0  0  0  0999 V2000
  141.2520   73.2420  221.3470 O   0  0  0  0  0  0  0  0  0  0  0  0
  140.2800   73.3340  222.1200 C   0  0  0  0  0  0  0  0  0  0  0  0
  139.5980   74.5670  222.2670 N   0  0  0  0  0  0  0  0  0  0  0  0
  139.9570   75.7760  221.5600 C   0  0  0  0  0  0  0  0  0  0  0  0
  139.5740   76.9630  222.3540 C   0  0  0  0  0  0  0  0  0  0  0  0
  138.4630   77.0880  222.9390 O   0  0  0  0  0  0  0  0  0  0  0  0
  140.4860   78.0450  222.4900 N   0  0  0  0  0  0  0  0  0  0  0  0
  141.5250   78.3340  221.5440 C   0  0  0  0  0  0  0  0  0  0  0  0
  142.1900   79.6070  221.9860 C   0  0  0  0  0  0  0  0  0  0  0  0
  141.8550   79.6950  223.4530 C   0  0  0  0  0  0  0  0  0  0  0  0
  140.5350   79.0100  223.5520 C   0  0  1  0  0  0  0  0  0  0  0  0
  139.3690   79.9300  223.5010 C   0  0  0  0  0  0  0  0  0  0  0  0
  138.5310   80.1370  224.5890 C   0  0  0  0  0  0  0  0  0  0  0  0
  137.4530   80.9740  224.5690 C   0  0  0  0  0  0  0  0  0  0  0  0
  137.1580   81.6640  223.4210 C   0  0  0  0  0  0  0  0  0  0  0  0
  135.7690   82.7260  223.4410 Cl  0  0  0  0  0  0  0  0  0  0  0  0
  137.9520   81.5000  222.3080 C   0  0  0  0  0  0  0  0  0  0  0  0
  139.0390   80.6470  222.3520 C   0  0  0  0  0  0  0  0  0  0  0  0
  139.8230   72.1620  222.8950 C   0  0  0  0  0  0  0  0  0  0  0  0
  138.7970   71.3830  222.3920 C   0  0  0  0  0  0  0  0  0  0  0  0
  138.4030   70.2960  223.1540 C   0  0  0  0  0  0  0  0  0  0  0  0
  138.9850   69.9790  224.3590 C   0  0  0  0  0  0  0  0  0  0  0  0
  138.5790   68.8790  225.1180 C   0  0  0  0  0  0  0  0  0  0  0  0
  139.2310   68.6500  226.3170 C   0  0  0  0  0  0  0  0  0  0  0  0
  140.2610   69.4850  226.7590 C   0  0  0  0  0  0  0  0  0  0  0  0
  141.0360   69.1250  228.2890 Cl  0  0  0  0  0  0  0  0  0  0  0  0
  140.6580   70.5690  226.0060 C   0  0  0  0  0  0  0  0  0  0  0  0
  140.0120   70.8060  224.8070 C   0  0  0  0  0  0  0  0  0  0  0  0
  140.4030   71.8650  224.0750 N   0  0  0  0  0  0  0  0  0  0  0  0
  138.7770   74.5830  222.9410 H   0  0  0  0  0  0  0  0  0  0  0  0
  141.0435   75.7881  221.3889 H   0  0  0  0  0  0  0  0  0  0  0  0
  139.4256   75.8007  220.5972 H   0  0  0  0  0  0  0  0  0  0  0  0
  142.2571   77.5132  221.5265 H   0  0  0  0  0  0  0  0  0  0  0  0
  141.1103   78.4426  220.5310 H   0  0  0  0  0  0  0  0  0  0  0  0
  143.2783   79.5540  221.8347 H   0  0  0  0  0  0  0  0  0  0  0  0
  141.8495   80.4852  221.4177 H   0  0  0  0  0  0  0  0  0  0  0  0
  142.6124   79.1781  224.0606 H   0  0  0  0  0  0  0  0  0  0  0  0
  141.8286   80.7301  223.8244 H   0  0  0  0  0  0  0  0  0  0  0  0
  140.4564   78.5322  224.5397 H   0  0  0  0  0  0  0  0  0  0  0  0
  138.7487   79.5949  225.5211 H   0  0  0  0  0  0  0  0  0  0  0  0
  136.8267   81.0940  225.4653 H   0  0  0  0  0  0  0  0  0  0  0  0
  137.7211   82.0483  221.3828 H   0  0  0  0  0  0  0  0  0  0  0  0
  139.6624   80.5305  221.4532 H   0  0  0  0  0  0  0  0  0  0  0  0
  138.3159   71.6162  221.4306 H   0  0  0  0  0  0  0  0  0  0  0  0
  137.5889   69.6582  222.7791 H   0  0  0  0  0  0  0  0  0  0  0  0
  137.7695   68.2180  224.7748 H   0  0  0  0  0  0  0  0  0  0  0  0
  138.9319   67.7914  226.9362 H   0  0  0  0  0  0  0  0  0  0  0  0
  141.4681   71.2287  226.3503 H   0  0  0  0  0  0  0  0  0  0  0  0
  1  2  2  0
  2  3  1  0
  3  4  1  0
  4  5  1  0
  5  6  2  0
  5  7  1  0
  7  8  1  0
  8  9  1  0
  9 10  1  0
 10 11  1  0
 11 12  1  0
 12 13  2  0
 13 14  1  0
 14 15  2  0
 15 16  1  0
 15 17  1  0
 17 18  2  0
  2 19  1  0
 19 20  2  0
 20 21  1  0
 21 22  2  0
 22 23  1  0
 23 24  2  0
 24 25  1  0
 25 26  1  0
 25 27  2  0
 27 28  1  0
 28 29  2  0
 11  7  1  0
 18 12  1  0
 29 19  1  0
 28 22  1  0
  3 30  1  0
  4 31  1  0
  4 32  1  0
  8 33  1  0
  8 34  1  0
  9 35  1  0
  9 36  1  0
 10 37  1  0
 10 38  1  0
 11 39  1  1
 13 40  1  0
 14 41  1  0
 17 42  1  0
 18 43  1  0
 20 44  1  0
 21 45  1  0
 23 46  1  0
 24 47  1  0
 27 48  1  0
M  END
>  <smiles>  (17) 
O=C(NCC(=O)N1CCC[C@H]1c1ccc(Cl)cc1)c1ccc2ccc(Cl)cc2n1

>  <score_type>  (17) 
oracle

>  <origin>  (17) 
autodockgpu

>  <m_score__min__energy>  (17) 
-8.9399999999999995

>  <m_primary>  (17) 
energy

>  <rmsd>  (17) 
3.7145844956951453

>  <m_score__min__rmsd>  (17) 
3.7145844956951453

>  <meeko>  (17) 
{"free_energy": -8.43, "intermolecular_energy": -9.92, "internal_energy": -1.43, "cluster_size": 4, "cluster_id": 3, "rank_in_cluster": 2}

>  <energy>  (17) 
-7.85

>  <cluster_rmsd>  (17) 
0.0

>  <cluster>  (17) 
4

$$$$

     RDKit          3D

 48 51  0  0  0  0  0  0  0  0999 V2000
  140.3800   80.1180  219.6150 O   0  0  0  0  0  0  0  0  0  0  0  0
  141.3310   79.4430  220.0530 C   0  0  0  0  0  0  0  0  0  0  0  0
  142.1840   79.9740  221.0520 N   0  0  0  0  0  0  0  0  0  0  0  0
  142.0310   81.2930  221.6260 C   0  0  0  0  0  0  0  0  0  0  0  0
  141.3690   81.2000  222.9440 C   0  0  0  0  0  0  0  0  0  0  0  0
  141.9750   81.3110  224.0440 O   0  0  0  0  0  0  0  0  0  0  0  0
  139.9670   80.9730  223.0150 N   0  0  0  0  0  0  0  0  0  0  0  0
  138.9970   81.7620  222.3120 C   0  0  0  0  0  0  0  0  0  0  0  0
  137.6510   81.1390  222.5600 C   0  0  0  0  0  0  0  0  0  0  0  0
  137.8510   80.3450  223.8260 C   0  0  0  0  0  0  0  0  0  0  0  0
  139.2900   79.9580  223.7710 C   0  0  1  0  0  0  0  0  0  0  0  0
  139.5320   78.6070  223.2000 C   0  0  0  0  0  0  0  0  0  0  0  0
  140.8000   78.0510  223.1030 C   0  0  0  0  0  0  0  0  0  0  0  0
  141.0500   76.8150  222.5810 C   0  0  0  0  0  0  0  0  0  0  0  0
  140.0060   76.0550  222.1180 C   0  0  0  0  0  0  0  0  0  0  0  0
  140.3730   74.4780  221.4590 Cl  0  0  0  0  0  0  0  0  0  0  0  0
  138.7240   76.5530  222.1870 C   0  0  0  0  0  0  0  0  0  0  0  0
  138.4950   77.8080  222.7190 C   0  0  0  0  0  0  0  0  0  0  0  0
  141.5840   78.0810  219.5400 C   0  0  0  0  0  0  0  0  0  0  0  0
  140.7410   77.5600  218.5770 C   0  0  0  0  0  0  0  0  0  0  0  0
  141.0180   76.2790  218.1270 C   0  0  0  0  0  0  0  0  0  0  0  0
  142.0750   75.5360  218.5970 C   0  0  0  0  0  0  0  0  0  0  0  0
  142.3440   74.2460  218.1350 C   0  0  0  0  0  0  0  0  0  0  0  0
  143.4330   73.5830  218.6750 C   0  0  0  0  0  0  0  0  0  0  0  0
  144.2400   74.1790  219.6490 C   0  0  0  0  0  0  0  0  0  0  0  0
  145.6000   73.2740  220.2820 Cl  0  0  0  0  0  0  0  0  0  0  0  0
  143.9700   75.4530  220.1010 C   0  0  0  0  0  0  0  0  0  0  0  0
  142.8840   76.1220  219.5670 C   0  0  0  0  0  0  0  0  0  0  0  0
  142.6240   77.3650  220.0120 N   0  0  0  0  0  0  0  0  0  0  0  0
  142.9770   79.3510  221.3860 H   0  0  0  0  0  0  0  0  0  0  0  0
  143.0224   81.7536  221.7486 H   0  0  0  0  0  0  0  0  0  0  0  0
  141.4128   81.9078  220.9554 H   0  0  0  0  0  0  0  0  0  0  0  0
  139.0085   82.7958  222.6878 H   0  0  0  0  0  0  0  0  0  0  0  0
  139.2220   81.7885  221.2356 H   0  0  0  0  0  0  0  0  0  0  0  0
  136.8809   81.9120  222.6996 H   0  0  0  0  0  0  0  0  0  0  0  0
  137.3071   80.5194  221.7187 H   0  0  0  0  0  0  0  0  0  0  0  0
  137.6432   80.9610  224.7133 H   0  0  0  0  0  0  0  0  0  0  0  0
  137.1770   79.4787  223.8992 H   0  0  0  0  0  0  0  0  0  0  0  0
  139.6784   79.8900  224.7979 H   0  0  0  0  0  0  0  0  0  0  0  0
  141.6535   78.6411  223.4682 H   0  0  0  0  0  0  0  0  0  0  0  0
  142.0798   76.4315  222.5319 H   0  0  0  0  0  0  0  0  0  0  0  0
  137.8806   75.9509  221.8180 H   0  0  0  0  0  0  0  0  0  0  0  0
  137.4637   78.1881  222.7644 H   0  0  0  0  0  0  0  0  0  0  0  0
  139.8892   78.1356  218.1856 H   0  0  0  0  0  0  0  0  0  0  0  0
  140.3640   75.8375  217.3606 H   0  0  0  0  0  0  0  0  0  0  0  0
  141.7126   73.7729  217.3685 H   0  0  0  0  0  0  0  0  0  0  0  0
  143.6684   72.5653  218.3303 H   0  0  0  0  0  0  0  0  0  0  0  0
  144.6024   75.9255  220.8670 H   0  0  0  0  0  0  0  0  0  0  0  0
  1  2  2  0
  2  3  1  0
  3  4  1  0
  4  5  1  0
  5  6  2  0
  5  7  1  0
  7  8  1  0
  8  9  1  0
  9 10  1  0
 10 11  1  0
 11 12  1  0
 12 13  2  0
 13 14  1  0
 14 15  2  0
 15 16  1  0
 15 17  1  0
 17 18  2  0
  2 19  1  0
 19 20  2  0
 20 21  1  0
 21 22  2  0
 22 23  1  0
 23 24  2  0
 24 25  1  0
 25 26  1  0
 25 27  2  0
 27 28  1  0
 28 29  2  0
 11  7  1  0
 18 12  1  0
 29 19  1  0
 28 22  1  0
  3 30  1  0
  4 31  1  0
  4 32  1  0
  8 33  1  0
  8 34  1  0
  9 35  1  0
  9 36  1  0
 10 37  1  0
 10 38  1  0
 11 39  1  1
 13 40  1  0
 14 41  1  0
 17 42  1  0
 18 43  1  0
 20 44  1  0
 21 45  1  0
 23 46  1  0
 24 47  1  0
 27 48  1  0
M  END
>  <smiles>  (18) 
O=C(NCC(=O)N1CCC[C@H]1c1ccc(Cl)cc1)c1ccc2ccc(Cl)cc2n1

>  <score_type>  (18) 
oracle

>  <origin>  (18) 
autodockgpu

>  <m_score__min__energy>  (18) 
-8.9399999999999995

>  <m_primary>  (18) 
energy

>  <rmsd>  (18) 
8.564893097503772

>  <m_score__min__rmsd>  (18) 
8.564893097503772

>  <meeko>  (18) 
{"free_energy": -6.61, "intermolecular_energy": -8.1, "internal_energy": -3.27, "cluster_size": 2, "cluster_id": 7, "rank_in_cluster": 1}

>  <energy>  (18) 
-7.84

>  <cluster_rmsd>  (18) 
0.09

>  <cluster>  (18) 
4

$$$$

     RDKit          3D

 48 51  0  0  0  0  0  0  0  0999 V2000
  140.1710   78.4810  218.5990 O   0  0  0  0  0  0  0  0  0  0  0  0
  141.3100   78.1480  218.9790 C   0  0  0  0  0  0  0  0  0  0  0  0
  142.3080   79.1310  219.1930 N   0  0  0  0  0  0  0  0  0  0  0  0
  142.0990   80.5480  218.9950 C   0  0  0  0  0  0  0  0  0  0  0  0
  141.2170   81.0850  220.0530 C   0  0  0  0  0  0  0  0  0  0  0  0
  140.1470   81.7120  219.8250 O   0  0  0  0  0  0  0  0  0  0  0  0
  141.5640   80.9020  221.4200 N   0  0  0  0  0  0  0  0  0  0  0  0
  141.5440   81.9550  222.3940 C   0  0  0  0  0  0  0  0  0  0  0  0
  141.8640   81.3370  223.7260 C   0  0  0  0  0  0  0  0  0  0  0  0
  142.5790   80.0600  223.3660 C   0  0  0  0  0  0  0  0  0  0  0  0
  141.9810   79.6830  222.0530 C   0  0  1  0  0  0  0  0  0  0  0  0
  140.8580   78.7150  222.1550 C   0  0  0  0  0  0  0  0  0  0  0  0
  141.0570   77.3490  222.3020 C   0  0  0  0  0  0  0  0  0  0  0  0
  140.0450   76.4390  222.3960 C   0  0  0  0  0  0  0  0  0  0  0  0
  138.7440   76.8700  222.3450 C   0  0  0  0  0  0  0  0  0  0  0  0
  137.4790   75.6690  222.4700 Cl  0  0  0  0  0  0  0  0  0  0  0  0
  138.4820   78.2140  222.2000 C   0  0  0  0  0  0  0  0  0  0  0  0
  139.5240   79.1180  222.1070 C   0  0  0  0  0  0  0  0  0  0  0  0
  141.6380   76.7270  219.2140 C   0  0  0  0  0  0  0  0  0  0  0  0
  140.6970   75.7620  218.9040 C   0  0  0  0  0  0  0  0  0  0  0  0
  141.0500   74.4440  219.1410 C   0  0  0  0  0  0  0  0  0  0  0  0
  142.2710   74.0790  219.6590 C   0  0  0  0  0  0  0  0  0  0  0  0
  142.6140   72.7460  219.8940 C   0  0  0  0  0  0  0  0  0  0  0  0
  143.8690   72.4880  220.4190 C   0  0  0  0  0  0  0  0  0  0  0  0
  144.7660   73.5210  220.7060 C   0  0  0  0  0  0  0  0  0  0  0  0
  146.3350   73.1110  221.3690 Cl  0  0  0  0  0  0  0  0  0  0  0  0
  144.4220   74.8350  220.4720 C   0  0  0  0  0  0  0  0  0  0  0  0
  143.1700   75.1020  219.9490 C   0  0  0  0  0  0  0  0  0  0  0  0
  142.8380   76.3860  219.7220 N   0  0  0  0  0  0  0  0  0  0  0  0
  143.2590   78.7860  219.5170 H   0  0  0  0  0  0  0  0  0  0  0  0
  143.0681   81.0671  219.0313 H   0  0  0  0  0  0  0  0  0  0  0  0
  141.6246   80.7082  218.0156 H   0  0  0  0  0  0  0  0  0  0  0  0
  142.2970   82.7160  222.1413 H   0  0  0  0  0  0  0  0  0  0  0  0
  140.5594   82.4449  222.4181 H   0  0  0  0  0  0  0  0  0  0  0  0
  142.5147   81.9971  224.3183 H   0  0  0  0  0  0  0  0  0  0  0  0
  140.9688   81.1649  224.3417 H   0  0  0  0  0  0  0  0  0  0  0  0
  143.6617   80.2293  223.2706 H   0  0  0  0  0  0  0  0  0  0  0  0
  142.4650   79.2760  224.1291 H   0  0  0  0  0  0  0  0  0  0  0  0
  142.7386   79.1538  221.4563 H   0  0  0  0  0  0  0  0  0  0  0  0
  142.0918   76.9785  222.3452 H   0  0  0  0  0  0  0  0  0  0  0  0
  140.2706   75.3686  222.5117 H   0  0  0  0  0  0  0  0  0  0  0  0
  137.4417   78.5691  222.1581 H   0  0  0  0  0  0  0  0  0  0  0  0
  139.2937   80.1874  221.9917 H   0  0  0  0  0  0  0  0  0  0  0  0
  139.7141   76.0289  218.4886 H   0  0  0  0  0  0  0  0  0  0  0  0
  140.3219   73.6541  218.9046 H   0  0  0  0  0  0  0  0  0  0  0  0
  141.9118   71.9295  219.6699 H   0  0  0  0  0  0  0  0  0  0  0  0
  144.1667   71.4473  220.6146 H   0  0  0  0  0  0  0  0  0  0  0  0
  145.1255   75.6506  220.6956 H   0  0  0  0  0  0  0  0  0  0  0  0
  1  2  2  0
  2  3  1  0
  3  4  1  0
  4  5  1  0
  5  6  2  0
  5  7  1  0
  7  8  1  0
  8  9  1  0
  9 10  1  0
 10 11  1  0
 11 12  1  0
 12 13  2  0
 13 14  1  0
 14 15  2  0
 15 16  1  0
 15 17  1  0
 17 18  2  0
  2 19  1  0
 19 20  2  0
 20 21  1  0
 21 22  2  0
 22 23  1  0
 23 24  2  0
 24 25  1  0
 25 26  1  0
 25 27  2  0
 27 28  1  0
 28 29  2  0
 11  7  1  0
 18 12  1  0
 29 19  1  0
 28 22  1  0
  3 30  1  0
  4 31  1  0
  4 32  1  0
  8 33  1  0
  8 34  1  0
  9 35  1  0
  9 36  1  0
 10 37  1  0
 10 38  1  0
 11 39  1  6
 13 40  1  0
 14 41  1  0
 17 42  1  0
 18 43  1  0
 20 44  1  0
 21 45  1  0
 23 46  1  0
 24 47  1  0
 27 48  1  0
M  END
>  <smiles>  (19) 
O=C(NCC(=O)N1CCC[C@H]1c1ccc(Cl)cc1)c1ccc2ccc(Cl)cc2n1

>  <score_type>  (19) 
oracle

>  <origin>  (19) 
autodockgpu

>  <m_score__min__energy>  (19) 
-8.9399999999999995

>  <m_primary>  (19) 
energy

>  <rmsd>  (19) 
7.752263591888369

>  <m_score__min__rmsd>  (19) 
7.752263591888369

>  <meeko>  (19) 
{"free_energy": -7.1, "intermolecular_energy": -8.59, "internal_energy": -2.92, "cluster_size": 27, "cluster_id": 5, "rank_in_cluster": 13}

>  <energy>  (19) 
-7.27

>  <cluster_rmsd>  (19) 
0.86

>  <cluster>  (19) 
4

$$$$

     RDKit          3D

 48 51  0  0  0  0  0  0  0  0999 V2000
  140.4780   78.4410  217.9900 O   0  0  0  0  0  0  0  0  0  0  0  0
  141.4010   78.1580  218.7770 C   0  0  0  0  0  0  0  0  0  0  0  0
  142.1790   79.1860  219.3650 N   0  0  0  0  0  0  0  0  0  0  0  0
  141.9770   80.5950  219.1110 C   0  0  0  0  0  0  0  0  0  0  0  0
  141.2730   81.2210  220.2500 C   0  0  0  0  0  0  0  0  0  0  0  0
  140.2850   81.9950  220.1250 O   0  0  0  0  0  0  0  0  0  0  0  0
  141.7060   80.9570  221.5780 N   0  0  0  0  0  0  0  0  0  0  0  0
  141.8090   81.9630  222.5960 C   0  0  0  0  0  0  0  0  0  0  0  0
  142.1920   81.2680  223.8730 C   0  0  0  0  0  0  0  0  0  0  0  0
  142.8140   79.9770  223.4050 C   0  0  0  0  0  0  0  0  0  0  0  0
  142.1060   79.6920  222.1250 C   0  0  1  0  0  0  0  0  0  0  0  0
  140.9450   78.7730  222.2660 C   0  0  0  0  0  0  0  0  0  0  0  0
  139.6500   79.2290  222.4690 C   0  0  0  0  0  0  0  0  0  0  0  0
  138.5680   78.4080  222.6040 C   0  0  0  0  0  0  0  0  0  0  0  0
  138.7410   77.0500  222.5390 C   0  0  0  0  0  0  0  0  0  0  0  0
  137.3270   76.0370  222.7160 Cl  0  0  0  0  0  0  0  0  0  0  0  0
  140.0030   76.5360  222.3400 C   0  0  0  0  0  0  0  0  0  0  0  0
  141.0850   77.3880  222.2060 C   0  0  0  0  0  0  0  0  0  0  0  0
  141.6990   76.7500  219.1110 C   0  0  0  0  0  0  0  0  0  0  0  0
  140.7280   75.7900  218.8930 C   0  0  0  0  0  0  0  0  0  0  0  0
  141.0540   74.4840  219.2210 C   0  0  0  0  0  0  0  0  0  0  0  0
  142.2760   74.1270  219.7400 C   0  0  0  0  0  0  0  0  0  0  0  0
  142.5920   72.8070  220.0670 C   0  0  0  0  0  0  0  0  0  0  0  0
  143.8510   72.5560  220.5840 C   0  0  0  0  0  0  0  0  0  0  0  0
  144.7790   73.5830  220.7750 C   0  0  0  0  0  0  0  0  0  0  0  0
  146.3520   73.1820  221.4350 Cl  0  0  0  0  0  0  0  0  0  0  0  0
  144.4630   74.8850  220.4510 C   0  0  0  0  0  0  0  0  0  0  0  0
  143.2070   75.1450  219.9340 C   0  0  0  0  0  0  0  0  0  0  0  0
  142.9020   76.4170  219.6190 N   0  0  0  0  0  0  0  0  0  0  0  0
  142.9520   78.8830  220.0280 H   0  0  0  0  0  0  0  0  0  0  0  0
  142.9530   81.0835  218.9737 H   0  0  0  0  0  0  0  0  0  0  0  0
  141.3680   80.7132  218.2026 H   0  0  0  0  0  0  0  0  0  0  0  0
  142.5795   82.6986  222.3219 H   0  0  0  0  0  0  0  0  0  0  0  0
  140.8547   82.4973  222.7140 H   0  0  0  0  0  0  0  0  0  0  0  0
  142.9160   81.8678  224.4440 H   0  0  0  0  0  0  0  0  0  0  0  0
  141.3358   81.1094  224.5452 H   0  0  0  0  0  0  0  0  0  0  0  0
  143.8943   80.0993  223.2377 H   0  0  0  0  0  0  0  0  0  0  0  0
  142.7151   79.1637  224.1390 H   0  0  0  0  0  0  0  0  0  0  0  0
  142.7926   79.1574  221.4521 H   0  0  0  0  0  0  0  0  0  0  0  0
  139.4860   80.3153  222.5243 H   0  0  0  0  0  0  0  0  0  0  0  0
  137.5659   78.8326  222.7636 H   0  0  0  0  0  0  0  0  0  0  0  0
  140.1510   75.4473  222.2875 H   0  0  0  0  0  0  0  0  0  0  0  0
  142.0855   76.9592  222.0474 H   0  0  0  0  0  0  0  0  0  0  0  0
  139.7430   76.0510  218.4787 H   0  0  0  0  0  0  0  0  0  0  0  0
  140.3018   73.6979  219.0590 H   0  0  0  0  0  0  0  0  0  0  0  0
  141.8654   71.9945  219.9188 H   0  0  0  0  0  0  0  0  0  0  0  0
  144.1272   71.5251  220.8505 H   0  0  0  0  0  0  0  0  0  0  0  0
  145.1910   75.6961  220.5998 H   0  0  0  0  0  0  0  0  0  0  0  0
  1  2  2  0
  2  3  1  0
  3  4  1  0
  4  5  1  0
  5  6  2  0
  5  7  1  0
  7  8  1  0
  8  9  1  0
  9 10  1  0
 10 11  1  0
 11 12  1  0
 12 13  2  0
 13 14  1  0
 14 15  2  0
 15 16  1  0
 15 17  1  0
 17 18  2  0
  2 19  1  0
 19 20  2  0
 20 21  1  0
 21 22  2  0
 22 23  1  0
 23 24  2  0
 24 25  1  0
 25 26  1  0
 25 27  2  0
 27 28  1  0
 28 29  2  0
 11  7  1  0
 18 12  1  0
 29 19  1  0
 28 22  1  0
  3 30  1  0
  4 31  1  0
  4 32  1  0
  8 33  1  0
  8 34  1  0
  9 35  1  0
  9 36  1  0
 10 37  1  0
 10 38  1  0
 11 39  1  6
 13 40  1  0
 14 41  1  0
 17 42  1  0
 18 43  1  0
 20 44  1  0
 21 45  1  0
 23 46  1  0
 24 47  1  0
 27 48  1  0
M  END
>  <smiles>  (20) 
O=C(NCC(=O)N1CCC[C@H]1c1ccc(Cl)cc1)c1ccc2ccc(Cl)cc2n1

>  <score_type>  (20) 
oracle

>  <origin>  (20) 
autodockgpu

>  <m_score__min__energy>  (20) 
-8.9399999999999995

>  <m_primary>  (20) 
energy

>  <rmsd>  (20) 
7.783045745961427

>  <m_score__min__rmsd>  (20) 
7.783045745961427

>  <meeko>  (20) 
{"free_energy": -7.38, "intermolecular_energy": -8.87, "internal_energy": -2.64, "cluster_size": 27, "cluster_id": 5, "rank_in_cluster": 1}

>  <energy>  (20) 
-7.23

>  <cluster_rmsd>  (20) 
0.83

>  <cluster>  (20) 
4

$$$$

     RDKit          3D

 48 51  0  0  0  0  0  0  0  0999 V2000
  140.5260   79.8840  219.2740 O   0  0  0  0  0  0  0  0  0  0  0  0
  141.4160   79.2180  219.8380 C   0  0  0  0  0  0  0  0  0  0  0  0
  142.2020   79.7990  220.8630 N   0  0  0  0  0  0  0  0  0  0  0  0
  142.0450   81.1600  221.3260 C   0  0  0  0  0  0  0  0  0  0  0  0
  141.4730   81.1710  222.6890 C   0  0  0  0  0  0  0  0  0  0  0  0
  142.1530   81.3560  223.7350 O   0  0  0  0  0  0  0  0  0  0  0  0
  140.0780   80.9660  222.8690 N   0  0  0  0  0  0  0  0  0  0  0  0
  139.0670   81.7510  222.2210 C   0  0  0  0  0  0  0  0  0  0  0  0
  137.7360   81.1530  222.5830 C   0  0  0  0  0  0  0  0  0  0  0  0
  138.0210   80.3870  223.8500 C   0  0  0  0  0  0  0  0  0  0  0  0
  139.4460   79.9780  223.6980 C   0  0  1  0  0  0  0  0  0  0  0  0
  139.6280   78.6110  223.1430 C   0  0  0  0  0  0  0  0  0  0  0  0
  140.8730   78.0040  223.0410 C   0  0  0  0  0  0  0  0  0  0  0  0
  141.0680   76.7520  222.5350 C   0  0  0  0  0  0  0  0  0  0  0  0
  139.9900   76.0280  222.0930 C   0  0  0  0  0  0  0  0  0  0  0  0
  140.2870   74.4280  221.4530 Cl  0  0  0  0  0  0  0  0  0  0  0  0
  138.7290   76.5770  222.1680 C   0  0  0  0  0  0  0  0  0  0  0  0
  138.5560   77.8470  222.6850 C   0  0  0  0  0  0  0  0  0  0  0  0
  141.6650   77.8150  219.4470 C   0  0  0  0  0  0  0  0  0  0  0  0
  140.7740   77.1870  218.5970 C   0  0  0  0  0  0  0  0  0  0  0  0
  141.0500   75.8730  218.2590 C   0  0  0  0  0  0  0  0  0  0  0  0
  142.1500   75.1960  218.7300 C   0  0  0  0  0  0  0  0  0  0  0  0
  142.4170   73.8700  218.3820 C   0  0  0  0  0  0  0  0  0  0  0  0
  143.5520   73.2820  218.9130 C   0  0  0  0  0  0  0  0  0  0  0  0
  144.4060   73.9850  219.7680 C   0  0  0  0  0  0  0  0  0  0  0  0
  145.8230   73.1680  220.3970 Cl  0  0  0  0  0  0  0  0  0  0  0  0
  144.1380   75.2930  220.1080 C   0  0  0  0  0  0  0  0  0  0  0  0
  143.0060   75.8890  219.5830 C   0  0  0  0  0  0  0  0  0  0  0  0
  142.7480   77.1660  219.9180 N   0  0  0  0  0  0  0  0  0  0  0  0
  142.9440   79.1820  221.3060 H   0  0  0  0  0  0  0  0  0  0  0  0
  143.0272   81.6550  221.3398 H   0  0  0  0  0  0  0  0  0  0  0  0
  141.3653   81.6949  220.6464 H   0  0  0  0  0  0  0  0  0  0  0  0
  139.1187   82.7931  222.5694 H   0  0  0  0  0  0  0  0  0  0  0  0
  139.2114   81.7484  221.1305 H   0  0  0  0  0  0  0  0  0  0  0  0
  136.9877   81.9396  222.7601 H   0  0  0  0  0  0  0  0  0  0  0  0
  137.3226   80.5185  221.7852 H   0  0  0  0  0  0  0  0  0  0  0  0
  137.8882   81.0273  224.7345 H   0  0  0  0  0  0  0  0  0  0  0  0
  137.3437   79.5324  223.9948 H   0  0  0  0  0  0  0  0  0  0  0  0
  139.9085   79.9278  224.6948 H   0  0  0  0  0  0  0  0  0  0  0  0
  141.7530   78.5652  223.3883 H   0  0  0  0  0  0  0  0  0  0  0  0
  142.0811   76.3268  222.4820 H   0  0  0  0  0  0  0  0  0  0  0  0
  137.8586   76.0039  221.8160 H   0  0  0  0  0  0  0  0  0  0  0  0
  137.5410   78.2678  222.7366 H   0  0  0  0  0  0  0  0  0  0  0  0
  139.8866   77.7072  218.2071 H   0  0  0  0  0  0  0  0  0  0  0  0
  140.3586   75.3475  217.5838 H   0  0  0  0  0  0  0  0  0  0  0  0
  141.7486   73.3124  217.7094 H   0  0  0  0  0  0  0  0  0  0  0  0
  143.7873   72.2385  218.6566 H   0  0  0  0  0  0  0  0  0  0  0  0
  144.8078   75.8493  220.7803 H   0  0  0  0  0  0  0  0  0  0  0  0
  1  2  2  0
  2  3  1  0
  3  4  1  0
  4  5  1  0
  5  6  2  0
  5  7  1  0
  7  8  1  0
  8  9  1  0
  9 10  1  0
 10 11  1  0
 11 12  1  0
 12 13  2  0
 13 14  1  0
 14 15  2  0
 15 16  1  0
 15 17  1  0
 17 18  2  0
  2 19  1  0
 19 20  2  0
 20 21  1  0
 21 22  2  0
 22 23  1  0
 23 24  2  0
 24 25  1  0
 25 26  1  0
 25 27  2  0
 27 28  1  0
 28 29  2  0
 11  7  1  0
 18 12  1  0
 29 19  1  0
 28 22  1  0
  3 30  1  0
  4 31  1  0
  4 32  1  0
  8 33  1  0
  8 34  1  0
  9 35  1  0
  9 36  1  0
 10 37  1  0
 10 38  1  0
 11 39  1  1
 13 40  1  0
 14 41  1  0
 17 42  1  0
 18 43  1  0
 20 44  1  0
 21 45  1  0
 23 46  1  0
 24 47  1  0
 27 48  1  0
M  END
>  <smiles>  (21) 
O=C(NCC(=O)N1CCC[C@H]1c1ccc(Cl)cc1)c1ccc2ccc(Cl)cc2n1

>  <score_type>  (21) 
oracle

>  <origin>  (21) 
autodockgpu

>  <m_score__min__energy>  (21) 
-8.9399999999999995

>  <m_primary>  (21) 
energy

>  <rmsd>  (21) 
8.402110988487566

>  <m_score__min__rmsd>  (21) 
8.402110988487566

>  <meeko>  (21) 
{"free_energy": -6.69, "intermolecular_energy": -8.18, "internal_energy": -3.19, "cluster_size": 27, "cluster_id": 5, "rank_in_cluster": 26}

>  <energy>  (21) 
-7.38

>  <cluster_rmsd>  (21) 
0.0

>  <cluster>  (21) 
5

$$$$

     RDKit          3D

 48 51  0  0  0  0  0  0  0  0999 V2000
  140.6690   79.4040  218.7740 O   0  0  0  0  0  0  0  0  0  0  0  0
  141.5580   78.8630  219.4600 C   0  0  0  0  0  0  0  0  0  0  0  0
  142.1790   79.5750  220.5150 N   0  0  0  0  0  0  0  0  0  0  0  0
  141.8480   80.9360  220.8740 C   0  0  0  0  0  0  0  0  0  0  0  0
  141.5630   81.0260  222.3220 C   0  0  0  0  0  0  0  0  0  0  0  0
  142.4360   81.2810  223.1950 O   0  0  0  0  0  0  0  0  0  0  0  0
  140.2380   80.8180  222.7940 N   0  0  0  0  0  0  0  0  0  0  0  0
  139.1170   81.6230  222.4010 C   0  0  0  0  0  0  0  0  0  0  0  0
  137.8920   81.0170  223.0260 C   0  0  0  0  0  0  0  0  0  0  0  0
  138.4370   80.2140  224.1790 C   0  0  0  0  0  0  0  0  0  0  0  0
  139.7920   79.8070  223.7110 C   0  0  1  0  0  0  0  0  0  0  0  0
  139.8400   78.4560  223.0930 C   0  0  0  0  0  0  0  0  0  0  0  0
  138.7000   77.7850  222.6730 C   0  0  0  0  0  0  0  0  0  0  0  0
  138.7140   76.5440  222.1040 C   0  0  0  0  0  0  0  0  0  0  0  0
  139.9120   75.9000  221.9250 C   0  0  0  0  0  0  0  0  0  0  0  0
  139.8840   74.3120  221.1930 Cl  0  0  0  0  0  0  0  0  0  0  0  0
  141.0780   76.5150  222.3230 C   0  0  0  0  0  0  0  0  0  0  0  0
  141.0380   77.7720  222.8970 C   0  0  0  0  0  0  0  0  0  0  0  0
  141.9780   77.4740  219.1840 C   0  0  0  0  0  0  0  0  0  0  0  0
  141.3410   76.7670  218.1800 C   0  0  0  0  0  0  0  0  0  0  0  0
  141.7690   75.4690  217.9590 C   0  0  0  0  0  0  0  0  0  0  0  0
  142.7790   74.8810  218.6850 C   0  0  0  0  0  0  0  0  0  0  0  0
  143.2010   73.5710  218.4520 C   0  0  0  0  0  0  0  0  0  0  0  0
  144.2250   73.0760  219.2410 C   0  0  0  0  0  0  0  0  0  0  0  0
  144.8200   73.8540  220.2380 C   0  0  0  0  0  0  0  0  0  0  0  0
  146.1110   73.1530  221.1930 Cl  0  0  0  0  0  0  0  0  0  0  0  0
  144.3990   75.1470  220.4640 C   0  0  0  0  0  0  0  0  0  0  0  0
  143.3770   75.6500  219.6810 C   0  0  0  0  0  0  0  0  0  0  0  0
  142.9690   76.9130  219.9050 N   0  0  0  0  0  0  0  0  0  0  0  0
  142.9290   79.0610  221.0640 H   0  0  0  0  0  0  0  0  0  0  0  0
  142.6954   81.5930  220.6287 H   0  0  0  0  0  0  0  0  0  0  0  0
  140.9558   81.2491  220.3119 H   0  0  0  0  0  0  0  0  0  0  0  0
  139.2507   82.6548  222.7580 H   0  0  0  0  0  0  0  0  0  0  0  0
  139.0223   81.6513  221.3054 H   0  0  0  0  0  0  0  0  0  0  0  0
  137.2061   81.7995  223.3828 H   0  0  0  0  0  0  0  0  0  0  0  0
  137.3113   80.4064  222.3190 H   0  0  0  0  0  0  0  0  0  0  0  0
  138.5036   80.8283  225.0891 H   0  0  0  0  0  0  0  0  0  0  0  0
  137.7999   79.3569  224.4428 H   0  0  0  0  0  0  0  0  0  0  0  0
  140.4586   79.7266  224.5823 H   0  0  0  0  0  0  0  0  0  0  0  0
  137.7280   78.2823  222.8064 H   0  0  0  0  0  0  0  0  0  0  0  0
  137.7740   76.0653  221.7922 H   0  0  0  0  0  0  0  0  0  0  0  0
  142.0428   76.0053  222.1840 H   0  0  0  0  0  0  0  0  0  0  0  0
  141.9803   78.2465  223.2084 H   0  0  0  0  0  0  0  0  0  0  0  0
  140.5319   77.2153  217.5848 H   0  0  0  0  0  0  0  0  0  0  0  0
  141.2798   74.8818  217.1679 H   0  0  0  0  0  0  0  0  0  0  0  0
  142.7362   72.9538  217.6690 H   0  0  0  0  0  0  0  0  0  0  0  0
  144.5785   72.0469  219.0796 H   0  0  0  0  0  0  0  0  0  0  0  0
  144.8645   75.7629  221.2476 H   0  0  0  0  0  0  0  0  0  0  0  0
  1  2  2  0
  2  3  1  0
  3  4  1  0
  4  5  1  0
  5  6  2  0
  5  7  1  0
  7  8  1  0
  8  9  1  0
  9 10  1  0
 10 11  1  0
 11 12  1  0
 12 13  2  0
 13 14  1  0
 14 15  2  0
 15 16  1  0
 15 17  1  0
 17 18  2  0
  2 19  1  0
 19 20  2  0
 20 21  1  0
 21 22  2  0
 22 23  1  0
 23 24  2  0
 24 25  1  0
 25 26  1  0
 25 27  2  0
 27 28  1  0
 28 29  2  0
 11  7  1  0
 18 12  1  0
 29 19  1  0
 28 22  1  0
  3 30  1  0
  4 31  1  0
  4 32  1  0
  8 33  1  0
  8 34  1  0
  9 35  1  0
  9 36  1  0
 10 37  1  0
 10 38  1  0
 11 39  1  1
 13 40  1  0
 14 41  1  0
 17 42  1  0
 18 43  1  0
 20 44  1  0
 21 45  1  0
 23 46  1  0
 24 47  1  0
 27 48  1  0
M  END
>  <smiles>  (22) 
O=C(NCC(=O)N1CCC[C@H]1c1ccc(Cl)cc1)c1ccc2ccc(Cl)cc2n1

>  <score_type>  (22) 
oracle

>  <origin>  (22) 
autodockgpu

>  <m_score__min__energy>  (22) 
-8.9399999999999995

>  <m_primary>  (22) 
energy

>  <rmsd>  (22) 
8.314069402730482

>  <m_score__min__rmsd>  (22) 
8.314069402730482

>  <meeko>  (22) 
{"free_energy": -6.9, "intermolecular_energy": -8.39, "internal_energy": -3.05, "cluster_size": 27, "cluster_id": 5, "rank_in_cluster": 16}

>  <energy>  (22) 
-7.29

>  <cluster_rmsd>  (22) 
0.21

>  <cluster>  (22) 
5

$$$$

     RDKit          3D

 48 51  0  0  0  0  0  0  0  0999 V2000
  141.3170   73.2420  221.3900 O   0  0  0  0  0  0  0  0  0  0  0  0
  140.3310   73.3400  222.1460 C   0  0  0  0  0  0  0  0  0  0  0  0
  139.6500   74.5760  222.2740 N   0  0  0  0  0  0  0  0  0  0  0  0
  140.0240   75.7800  221.5660 C   0  0  0  0  0  0  0  0  0  0  0  0
  139.6130   76.9720  222.3380 C   0  0  0  0  0  0  0  0  0  0  0  0
  138.4860   77.0960  222.8910 O   0  0  0  0  0  0  0  0  0  0  0  0
  140.5140   78.0620  222.4870 N   0  0  0  0  0  0  0  0  0  0  0  0
  141.5570   78.3650  221.5500 C   0  0  0  0  0  0  0  0  0  0  0  0
  142.2080   79.6410  222.0050 C   0  0  0  0  0  0  0  0  0  0  0  0
  141.8620   79.7170  223.4700 C   0  0  0  0  0  0  0  0  0  0  0  0
  140.5480   79.0200  223.5550 C   0  0  1  0  0  0  0  0  0  0  0  0
  139.3740   79.9300  223.5020 C   0  0  0  0  0  0  0  0  0  0  0  0
  138.5390   80.1390  224.5910 C   0  0  0  0  0  0  0  0  0  0  0  0
  137.4540   80.9680  224.5690 C   0  0  0  0  0  0  0  0  0  0  0  0
  137.1480   81.6460  223.4170 C   0  0  0  0  0  0  0  0  0  0  0  0
  135.7510   82.6970  223.4340 Cl  0  0  0  0  0  0  0  0  0  0  0  0
  137.9400   81.4800  222.3020 C   0  0  0  0  0  0  0  0  0  0  0  0
  139.0340   80.6350  222.3490 C   0  0  0  0  0  0  0  0  0  0  0  0
  139.8580   72.1740  222.9200 C   0  0  0  0  0  0  0  0  0  0  0  0
  138.8120   71.4190  222.4230 C   0  0  0  0  0  0  0  0  0  0  0  0
  138.4040   70.3360  223.1840 C   0  0  0  0  0  0  0  0  0  0  0  0
  138.9910   70.0010  224.3810 C   0  0  0  0  0  0  0  0  0  0  0  0
  138.5700   68.9060  225.1390 C   0  0  0  0  0  0  0  0  0  0  0  0
  139.2290   68.6570  226.3310 C   0  0  0  0  0  0  0  0  0  0  0  0
  140.2800   69.4690  226.7670 C   0  0  0  0  0  0  0  0  0  0  0  0
  141.0630   69.0870  228.2870 Cl  0  0  0  0  0  0  0  0  0  0  0  0
  140.6920   70.5490  226.0150 C   0  0  0  0  0  0  0  0  0  0  0  0
  140.0390   70.8050  224.8230 C   0  0  0  0  0  0  0  0  0  0  0  0
  140.4450   71.8600  224.0920 N   0  0  0  0  0  0  0  0  0  0  0  0
  138.8170   74.5980  222.9340 H   0  0  0  0  0  0  0  0  0  0  0  0
  141.1149   75.7956  221.4259 H   0  0  0  0  0  0  0  0  0  0  0  0
  139.5208   75.7935  220.5880 H   0  0  0  0  0  0  0  0  0  0  0  0
  142.2961   77.5505  221.5327 H   0  0  0  0  0  0  0  0  0  0  0  0
  141.1489   78.4760  220.5346 H   0  0  0  0  0  0  0  0  0  0  0  0
  143.2977   79.5982  221.8612 H   0  0  0  0  0  0  0  0  0  0  0  0
  141.8638   80.5198  221.4399 H   0  0  0  0  0  0  0  0  0  0  0  0
  142.6196   79.2031  224.0799 H   0  0  0  0  0  0  0  0  0  0  0  0
  141.8240   80.7494  223.8477 H   0  0  0  0  0  0  0  0  0  0  0  0
  140.4676   78.5349  224.5390 H   0  0  0  0  0  0  0  0  0  0  0  0
  138.7644   79.6057  225.5263 H   0  0  0  0  0  0  0  0  0  0  0  0
  136.8311   81.0908  225.4673 H   0  0  0  0  0  0  0  0  0  0  0  0
  137.7021   82.0199  221.3736 H   0  0  0  0  0  0  0  0  0  0  0  0
  139.6547   80.5158  221.4487 H   0  0  0  0  0  0  0  0  0  0  0  0
  138.3263   71.6668  221.4676 H   0  0  0  0  0  0  0  0  0  0  0  0
  137.5736   69.7166  222.8142 H   0  0  0  0  0  0  0  0  0  0  0  0
  137.7436   68.2637  224.8007 H   0  0  0  0  0  0  0  0  0  0  0  0
  138.9186   67.8013  226.9485 H   0  0  0  0  0  0  0  0  0  0  0  0
  141.5187   71.1904  226.3545 H   0  0  0  0  0  0  0  0  0  0  0  0
  1  2  2  0
  2  3  1  0
  3  4  1  0
  4  5  1  0
  5  6  2  0
  5  7  1  0
  7  8  1  0
  8  9  1  0
  9 10  1  0
 10 11  1  0
 11 12  1  0
 12 13  2  0
 13 14  1  0
 14 15  2  0
 15 16  1  0
 15 17  1  0
 17 18  2  0
  2 19  1  0
 19 20  2  0
 20 21  1  0
 21 22  2  0
 22 23  1  0
 23 24  2  0
 24 25  1  0
 25 26  1  0
 25 27  2  0
 27 28  1  0
 28 29  2  0
 11  7  1  0
 18 12  1  0
 29 19  1  0
 28 22  1  0
  3 30  1  0
  4 31  1  0
  4 32  1  0
  8 33  1  0
  8 34  1  0
  9 35  1  0
  9 36  1  0
 10 37  1  0
 10 38  1  0
 11 39  1  1
 13 40  1  0
 14 41  1  0
 17 42  1  0
 18 43  1  0
 20 44  1  0
 21 45  1  0
 23 46  1  0
 24 47  1  0
 27 48  1  0
M  END
>  <smiles>  (23) 
O=C(NCC(=O)N1CCC[C@H]1c1ccc(Cl)cc1)c1ccc2ccc(Cl)cc2n1

>  <score_type>  (23) 
oracle

>  <origin>  (23) 
autodockgpu

>  <m_score__min__energy>  (23) 
-8.9399999999999995

>  <m_primary>  (23) 
energy

>  <rmsd>  (23) 
3.7384466228134796

>  <m_score__min__rmsd>  (23) 
3.7384466228134796

>  <meeko>  (23) 
{"free_energy": -8.42, "intermolecular_energy": -9.91, "internal_energy": -1.42, "cluster_size": 4, "cluster_id": 3, "rank_in_cluster": 3}

>  <energy>  (23) 
-7.23

>  <cluster_rmsd>  (23) 
0.19

>  <cluster>  (23) 
5

$$$$

     RDKit          3D

 48 51  0  0  0  0  0  0  0  0999 V2000
  140.0800   78.4870  218.6110 O   0  0  0  0  0  0  0  0  0  0  0  0
  141.2180   78.1710  219.0060 C   0  0  0  0  0  0  0  0  0  0  0  0
  142.1980   79.1680  219.2340 N   0  0  0  0  0  0  0  0  0  0  0  0
  141.9700   80.5830  219.0360 C   0  0  0  0  0  0  0  0  0  0  0  0
  141.1660   81.1280  220.1500 C   0  0  0  0  0  0  0  0  0  0  0  0
  140.1170   81.8110  219.9900 O   0  0  0  0  0  0  0  0  0  0  0  0
  141.5670   80.8900  221.4930 N   0  0  0  0  0  0  0  0  0  0  0  0
  141.6200   81.9090  222.5010 C   0  0  0  0  0  0  0  0  0  0  0  0
  141.9810   81.2370  223.7960 C   0  0  0  0  0  0  0  0  0  0  0  0
  142.6430   79.9540  223.3620 C   0  0  0  0  0  0  0  0  0  0  0  0
  141.9770   79.6390  222.0660 C   0  0  1  0  0  0  0  0  0  0  0  0
  140.8330   78.6980  222.1860 C   0  0  0  0  0  0  0  0  0  0  0  0
  139.5120   79.1240  222.2040 C   0  0  0  0  0  0  0  0  0  0  0  0
  138.4430   78.2830  222.3160 C   0  0  0  0  0  0  0  0  0  0  0  0
  138.6570   76.9320  222.4170 C   0  0  0  0  0  0  0  0  0  0  0  0
  137.2590   75.8910  222.5560 Cl  0  0  0  0  0  0  0  0  0  0  0  0
  139.9470   76.4470  222.4050 C   0  0  0  0  0  0  0  0  0  0  0  0
  141.0130   77.3200  222.2910 C   0  0  0  0  0  0  0  0  0  0  0  0
  141.5650   76.7540  219.2420 C   0  0  0  0  0  0  0  0  0  0  0  0
  140.6300   75.7780  218.9530 C   0  0  0  0  0  0  0  0  0  0  0  0
  141.0000   74.4650  219.1910 C   0  0  0  0  0  0  0  0  0  0  0  0
  142.2330   74.1150  219.6890 C   0  0  0  0  0  0  0  0  0  0  0  0
  142.5950   72.7880  219.9250 C   0  0  0  0  0  0  0  0  0  0  0  0
  143.8610   72.5450  220.4290 C   0  0  0  0  0  0  0  0  0  0  0  0
  144.7520   73.5890  220.6960 C   0  0  0  0  0  0  0  0  0  0  0  0
  146.3370   73.1980  221.3330 Cl  0  0  0  0  0  0  0  0  0  0  0  0
  144.3900   74.8980  220.4610 C   0  0  0  0  0  0  0  0  0  0  0  0
  143.1270   75.1490  219.9580 C   0  0  0  0  0  0  0  0  0  0  0  0
  142.7780   76.4290  219.7310 N   0  0  0  0  0  0  0  0  0  0  0  0
  143.1500   78.8370  219.5690 H   0  0  0  0  0  0  0  0  0  0  0  0
  142.9372   81.1053  218.9957 H   0  0  0  0  0  0  0  0  0  0  0  0
  141.4251   80.7315  218.0920 H   0  0  0  0  0  0  0  0  0  0  0  0
  142.3824   82.6577  222.2399 H   0  0  0  0  0  0  0  0  0  0  0  0
  140.6518   82.4241  222.5858 H   0  0  0  0  0  0  0  0  0  0  0  0
  142.6758   81.8586  224.3799 H   0  0  0  0  0  0  0  0  0  0  0  0
  141.1094   81.0679  224.4453 H   0  0  0  0  0  0  0  0  0  0  0  0
  143.7248   80.0972  223.2234 H   0  0  0  0  0  0  0  0  0  0  0  0
  142.5408   79.1475  224.1030 H   0  0  0  0  0  0  0  0  0  0  0  0
  142.6923   79.1108  221.4184 H   0  0  0  0  0  0  0  0  0  0  0  0
  139.3151   80.2032  222.1232 H   0  0  0  0  0  0  0  0  0  0  0  0
  137.4191   78.6850  222.3252 H   0  0  0  0  0  0  0  0  0  0  0  0
  140.1285   75.3651  222.4861 H   0  0  0  0  0  0  0  0  0  0  0  0
  142.0354   76.9142  222.2829 H   0  0  0  0  0  0  0  0  0  0  0  0
  139.6377   76.0325  218.5524 H   0  0  0  0  0  0  0  0  0  0  0  0
  140.2756   73.6667  218.9720 H   0  0  0  0  0  0  0  0  0  0  0  0
  141.8977   71.9630  219.7175 H   0  0  0  0  0  0  0  0  0  0  0  0
  144.1729   71.5083  220.6237 H   0  0  0  0  0  0  0  0  0  0  0  0
  145.0884   75.7221  220.6684 H   0  0  0  0  0  0  0  0  0  0  0  0
  1  2  2  0
  2  3  1  0
  3  4  1  0
  4  5  1  0
  5  6  2  0
  5  7  1  0
  7  8  1  0
  8  9  1  0
  9 10  1  0
 10 11  1  0
 11 12  1  0
 12 13  2  0
 13 14  1  0
 14 15  2  0
 15 16  1  0
 15 17  1  0
 17 18  2  0
  2 19  1  0
 19 20  2  0
 20 21  1  0
 21 22  2  0
 22 23  1  0
 23 24  2  0
 24 25  1  0
 25 26  1  0
 25 27  2  0
 27 28  1  0
 28 29  2  0
 11  7  1  0
 18 12  1  0
 29 19  1  0
 28 22  1  0
  3 30  1  0
  4 31  1  0
  4 32  1  0
  8 33  1  0
  8 34  1  0
  9 35  1  0
  9 36  1  0
 10 37  1  0
 10 38  1  0
 11 39  1  6
 13 40  1  0
 14 41  1  0
 17 42  1  0
 18 43  1  0
 20 44  1  0
 21 45  1  0
 23 46  1  0
 24 47  1  0
 27 48  1  0
M  END
>  <smiles>  (24) 
O=C(NCC(=O)N1CCC[C@H]1c1ccc(Cl)cc1)c1ccc2ccc(Cl)cc2n1

>  <score_type>  (24) 
oracle

>  <origin>  (24) 
autodockgpu

>  <m_score__min__energy>  (24) 
-8.9399999999999995

>  <m_primary>  (24) 
energy

>  <rmsd>  (24) 
7.742614724515859

>  <m_score__min__rmsd>  (24) 
7.742614724515859

>  <meeko>  (24) 
{"free_energy": -7.18, "intermolecular_energy": -8.67, "internal_energy": -2.87, "cluster_size": 27, "cluster_id": 5, "rank_in_cluster": 6}

>  <energy>  (24) 
-7.21

>  <cluster_rmsd>  (24) 
0.22

>  <cluster>  (24) 
5

$$$$

     RDKit          3D

 48 51  0  0  0  0  0  0  0  0999 V2000
  140.1920   73.4870  222.3170 O   0  0  0  0  0  0  0  0  0  0  0  0
  140.3070   74.4730  221.5640 C   0  0  0  0  0  0  0  0  0  0  0  0
  140.8010   74.3110  220.2470 N   0  0  0  0  0  0  0  0  0  0  0  0
  141.1990   73.0390  219.6850 C   0  0  0  0  0  0  0  0  0  0  0  0
  142.2530   72.4220  220.5180 C   0  0  0  0  0  0  0  0  0  0  0  0
  142.0440   71.4850  221.3350 O   0  0  0  0  0  0  0  0  0  0  0  0
  143.5920   72.8870  220.4180 N   0  0  0  0  0  0  0  0  0  0  0  0
  144.6900   72.0680  219.9930 C   0  0  0  0  0  0  0  0  0  0  0  0
  145.9040   72.9510  219.9180 C   0  0  0  0  0  0  0  0  0  0  0  0
  145.5600   74.1100  220.8190 C   0  0  0  0  0  0  0  0  0  0  0  0
  144.0760   74.2070  220.7130 C   0  0  1  0  0  0  0  0  0  0  0  0
  143.6040   75.1930  219.7060 C   0  0  0  0  0  0  0  0  0  0  0  0
  143.0460   76.4140  220.0580 C   0  0  0  0  0  0  0  0  0  0  0  0
  142.6030   77.3360  219.1540 C   0  0  0  0  0  0  0  0  0  0  0  0
  142.7030   77.0670  217.8140 C   0  0  0  0  0  0  0  0  0  0  0  0
  142.1240   78.2770  216.6920 Cl  0  0  0  0  0  0  0  0  0  0  0  0
  143.2480   75.8710  217.4010 C   0  0  0  0  0  0  0  0  0  0  0  0
  143.6900   74.9520  218.3350 C   0  0  0  0  0  0  0  0  0  0  0  0
  139.9310   75.8230  222.0310 C   0  0  0  0  0  0  0  0  0  0  0  0
  138.5910   76.1380  222.1620 C   0  0  0  0  0  0  0  0  0  0  0  0
  138.2880   77.4160  222.6030 C   0  0  0  0  0  0  0  0  0  0  0  0
  139.2510   78.3500  222.9040 C   0  0  0  0  0  0  0  0  0  0  0  0
  138.9320   79.6350  223.3480 C   0  0  0  0  0  0  0  0  0  0  0  0
  139.9790   80.4980  223.6230 C   0  0  0  0  0  0  0  0  0  0  0  0
  141.3110   80.1040  223.4660 C   0  0  0  0  0  0  0  0  0  0  0  0
  142.5770   81.2560  223.8360 Cl  0  0  0  0  0  0  0  0  0  0  0  0
  141.6200   78.8340  223.0280 C   0  0  0  0  0  0  0  0  0  0  0  0
  140.5810   77.9650  222.7500 C   0  0  0  0  0  0  0  0  0  0  0  0
  140.8870   76.7270  222.3220 N   0  0  0  0  0  0  0  0  0  0  0  0
  140.8770   75.1880  219.6520 H   0  0  0  0  0  0  0  0  0  0  0  0
  140.3271   72.3695  219.6470 H   0  0  0  0  0  0  0  0  0  0  0  0
  141.5915   73.2012  218.6703 H   0  0  0  0  0  0  0  0  0  0  0  0
  144.8580   71.2580  220.7180 H   0  0  0  0  0  0  0  0  0  0  0  0
  144.4794   71.6118  219.0144 H   0  0  0  0  0  0  0  0  0  0  0  0
  146.7968   72.4221  220.2830 H   0  0  0  0  0  0  0  0  0  0  0  0
  146.1393   73.2654  218.8905 H   0  0  0  0  0  0  0  0  0  0  0  0
  145.8674   73.9066  221.8554 H   0  0  0  0  0  0  0  0  0  0  0  0
  146.0711   75.0410  220.5324 H   0  0  0  0  0  0  0  0  0  0  0  0
  143.6758   74.5833  221.6660 H   0  0  0  0  0  0  0  0  0  0  0  0
  142.9554   76.6528  221.1279 H   0  0  0  0  0  0  0  0  0  0  0  0
  142.1695   78.2866  219.4982 H   0  0  0  0  0  0  0  0  0  0  0  0
  143.3316   75.6469  216.3273 H   0  0  0  0  0  0  0  0  0  0  0  0
  144.1223   74.0026  217.9862 H   0  0  0  0  0  0  0  0  0  0  0  0
  137.8024   75.4080  221.9271 H   0  0  0  0  0  0  0  0  0  0  0  0
  137.2303   77.6957  222.7173 H   0  0  0  0  0  0  0  0  0  0  0  0
  137.8858   79.9503  223.4748 H   0  0  0  0  0  0  0  0  0  0  0  0
  139.7577   81.5171  223.9731 H   0  0  0  0  0  0  0  0  0  0  0  0
  142.6667   78.5198  222.9028 H   0  0  0  0  0  0  0  0  0  0  0  0
  1  2  2  0
  2  3  1  0
  3  4  1  0
  4  5  1  0
  5  6  2  0
  5  7  1  0
  7  8  1  0
  8  9  1  0
  9 10  1  0
 10 11  1  0
 11 12  1  0
 12 13  2  0
 13 14  1  0
 14 15  2  0
 15 16  1  0
 15 17  1  0
 17 18  2  0
  2 19  1  0
 19 20  2  0
 20 21  1  0
 21 22  2  0
 22 23  1  0
 23 24  2  0
 24 25  1  0
 25 26  1  0
 25 27  2  0
 27 28  1  0
 28 29  2  0
 11  7  1  0
 18 12  1  0
 29 19  1  0
 28 22  1  0
  3 30  1  0
  4 31  1  0
  4 32  1  0
  8 33  1  0
  8 34  1  0
  9 35  1  0
  9 36  1  0
 10 37  1  0
 10 38  1  0
 11 39  1  1
 13 40  1  0
 14 41  1  0
 17 42  1  0
 18 43  1  0
 20 44  1  0
 21 45  1  0
 23 46  1  0
 24 47  1  0
 27 48  1  0
M  END
>  <smiles>  (25) 
O=C(NCC(=O)N1CCC[C@H]1c1ccc(Cl)cc1)c1ccc2ccc(Cl)cc2n1

>  <score_type>  (25) 
oracle

>  <origin>  (25) 
autodockgpu

>  <m_score__min__energy>  (25) 
-8.9399999999999995

>  <m_primary>  (25) 
energy

>  <rmsd>  (25) 
7.089732543633387

>  <m_score__min__rmsd>  (25) 
7.089732543633387

>  <meeko>  (25) 
{"free_energy": -7.85, "intermolecular_energy": -9.35, "internal_energy": -2.14, "cluster_size": 4, "cluster_id": 4, "rank_in_cluster": 1}

>  <energy>  (25) 
-7.2

>  <cluster_rmsd>  (25) 
0.2

>  <cluster>  (25) 
5

$$$$

     RDKit          3D

 48 51  0  0  0  0  0  0  0  0999 V2000
  141.1980   73.6580  221.0930 O   0  0  0  0  0  0  0  0  0  0  0  0
  140.3030   73.7210  221.9580 C   0  0  0  0  0  0  0  0  0  0  0  0
  139.6940   74.9620  222.2650 N   0  0  0  0  0  0  0  0  0  0  0  0
  140.0430   76.2120  221.6260 C   0  0  0  0  0  0  0  0  0  0  0  0
  139.6780   77.3490  222.4990 C   0  0  0  0  0  0  0  0  0  0  0  0
  138.5620   77.4620  223.0750 O   0  0  0  0  0  0  0  0  0  0  0  0
  140.6150   78.3940  222.7240 N   0  0  0  0  0  0  0  0  0  0  0  0
  141.7490   78.6420  221.8810 C   0  0  0  0  0  0  0  0  0  0  0  0
  142.4190   79.8870  222.3900 C   0  0  0  0  0  0  0  0  0  0  0  0
  141.9520   79.9870  223.8200 C   0  0  0  0  0  0  0  0  0  0  0  0
  140.6020   79.3550  223.7910 C   0  0  1  0  0  0  0  0  0  0  0  0
  139.4830   80.3210  223.6350 C   0  0  0  0  0  0  0  0  0  0  0  0
  139.3910   81.1920  222.5580 C   0  0  0  0  0  0  0  0  0  0  0  0
  138.3760   82.0900  222.3920 C   0  0  0  0  0  0  0  0  0  0  0  0
  137.3760   82.1570  223.3280 C   0  0  0  0  0  0  0  0  0  0  0  0
  136.0960   83.3210  223.0750 Cl  0  0  0  0  0  0  0  0  0  0  0  0
  137.4130   81.3180  224.4200 C   0  0  0  0  0  0  0  0  0  0  0  0
  138.4510   80.4170  224.5670 C   0  0  0  0  0  0  0  0  0  0  0  0
  139.8650   72.5070  222.6770 C   0  0  0  0  0  0  0  0  0  0  0  0
  138.9460   71.6670  222.0750 C   0  0  0  0  0  0  0  0  0  0  0  0
  138.5660   70.5420  222.7870 C   0  0  0  0  0  0  0  0  0  0  0  0
  139.0610   70.2450  224.0360 C   0  0  0  0  0  0  0  0  0  0  0  0
  138.6690   69.1070  224.7430 C   0  0  0  0  0  0  0  0  0  0  0  0
  139.2280   68.9030  225.9930 C   0  0  0  0  0  0  0  0  0  0  0  0
  140.1530   69.8010  226.5340 C   0  0  0  0  0  0  0  0  0  0  0  0
  140.8140   69.4700  228.1230 Cl  0  0  0  0  0  0  0  0  0  0  0  0
  140.5360   70.9230  225.8310 C   0  0  0  0  0  0  0  0  0  0  0  0
  139.9830   71.1350  224.5820 C   0  0  0  0  0  0  0  0  0  0  0  0
  140.3600   72.2310  223.9000 N   0  0  0  0  0  0  0  0  0  0  0  0
  138.9370   74.9540  223.0110 H   0  0  0  0  0  0  0  0  0  0  0  0
  141.1261   76.2330  221.4352 H   0  0  0  0  0  0  0  0  0  0  0  0
  139.4938   76.2965  220.6767 H   0  0  0  0  0  0  0  0  0  0  0  0
  142.4464   77.7927  221.9284 H   0  0  0  0  0  0  0  0  0  0  0  0
  141.4363   78.7678  220.8339 H   0  0  0  0  0  0  0  0  0  0  0  0
  143.5137   79.7910  222.3410 H   0  0  0  0  0  0  0  0  0  0  0  0
  142.1676   80.7786  221.7968 H   0  0  0  0  0  0  0  0  0  0  0  0
  142.6279   79.4396  224.4934 H   0  0  0  0  0  0  0  0  0  0  0  0
  141.9324   81.0218  224.1926 H   0  0  0  0  0  0  0  0  0  0  0  0
  140.4119   78.8796  224.7646 H   0  0  0  0  0  0  0  0  0  0  0  0
  140.1817   81.1567  221.7941 H   0  0  0  0  0  0  0  0  0  0  0  0
  138.3605   82.7539  221.5151 H   0  0  0  0  0  0  0  0  0  0  0  0
  136.6154   81.3651  225.1761 H   0  0  0  0  0  0  0  0  0  0  0  0
  138.4629   79.7558  225.4460 H   0  0  0  0  0  0  0  0  0  0  0  0
  138.5361   71.8826  221.0772 H   0  0  0  0  0  0  0  0  0  0  0  0
  137.8359   69.8551  222.3340 H   0  0  0  0  0  0  0  0  0  0  0  0
  137.9416   68.3974  224.3218 H   0  0  0  0  0  0  0  0  0  0  0  0
  138.9380   68.0147  226.5734 H   0  0  0  0  0  0  0  0  0  0  0  0
  141.2634   71.6319  226.2533 H   0  0  0  0  0  0  0  0  0  0  0  0
  1  2  2  0
  2  3  1  0
  3  4  1  0
  4  5  1  0
  5  6  2  0
  5  7  1  0
  7  8  1  0
  8  9  1  0
  9 10  1  0
 10 11  1  0
 11 12  1  0
 12 13  2  0
 13 14  1  0
 14 15  2  0
 15 16  1  0
 15 17  1  0
 17 18  2  0
  2 19  1  0
 19 20  2  0
 20 21  1  0
 21 22  2  0
 22 23  1  0
 23 24  2  0
 24 25  1  0
 25 26  1  0
 25 27  2  0
 27 28  1  0
 28 29  2  0
 11  7  1  0
 18 12  1  0
 29 19  1  0
 28 22  1  0
  3 30  1  0
  4 31  1  0
  4 32  1  0
  8 33  1  0
  8 34  1  0
  9 35  1  0
  9 36  1  0
 10 37  1  0
 10 38  1  0
 11 39  1  1
 13 40  1  0
 14 41  1  0
 17 42  1  0
 18 43  1  0
 20 44  1  0
 21 45  1  0
 23 46  1  0
 24 47  1  0
 27 48  1  0
M  END
>  <smiles>  (26) 
O=C(NCC(=O)N1CCC[C@H]1c1ccc(Cl)cc1)c1ccc2ccc(Cl)cc2n1

>  <score_type>  (26) 
oracle

>  <origin>  (26) 
autodockgpu

>  <m_score__min__energy>  (26) 
-8.9399999999999995

>  <m_primary>  (26) 
energy

>  <rmsd>  (26) 
4.069887953120338

>  <m_score__min__rmsd>  (26) 
4.069887953120338

>  <meeko>  (26) 
{"free_energy": -8.44, "intermolecular_energy": -9.93, "internal_energy": -1.42, "cluster_size": 4, "cluster_id": 3, "rank_in_cluster": 1}

>  <energy>  (26) 
-7.18

>  <cluster_rmsd>  (26) 
0.24

>  <cluster>  (26) 
5

$$$$

     RDKit          3D

 48 51  0  0  0  0  0  0  0  0999 V2000
  140.3890   79.0880  218.9190 O   0  0  0  0  0  0  0  0  0  0  0  0
  141.3880   78.6380  219.5110 C   0  0  0  0  0  0  0  0  0  0  0  0
  142.1050   79.4510  220.4230 N   0  0  0  0  0  0  0  0  0  0  0  0
  141.7520   80.8190  220.7330 C   0  0  0  0  0  0  0  0  0  0  0  0
  141.5240   80.9690  222.1860 C   0  0  0  0  0  0  0  0  0  0  0  0
  142.4260   81.2780  223.0100 O   0  0  0  0  0  0  0  0  0  0  0  0
  140.2230   80.7590  222.7210 N   0  0  0  0  0  0  0  0  0  0  0  0
  139.0790   81.5470  222.3630 C   0  0  0  0  0  0  0  0  0  0  0  0
  137.8880   80.9440  223.0540 C   0  0  0  0  0  0  0  0  0  0  0  0
  138.4920   80.1700  224.1980 C   0  0  0  0  0  0  0  0  0  0  0  0
  139.8290   79.7650  223.6780 C   0  0  1  0  0  0  0  0  0  0  0  0
  139.8610   78.4020  223.0860 C   0  0  0  0  0  0  0  0  0  0  0  0
  138.7140   77.7350  222.6800 C   0  0  0  0  0  0  0  0  0  0  0  0
  138.7150   76.4830  222.1350 C   0  0  0  0  0  0  0  0  0  0  0  0
  139.9050   75.8230  221.9670 C   0  0  0  0  0  0  0  0  0  0  0  0
  139.8590   74.2220  221.2650 Cl  0  0  0  0  0  0  0  0  0  0  0  0
  141.0780   76.4330  222.3510 C   0  0  0  0  0  0  0  0  0  0  0  0
  141.0520   77.7010  222.9010 C   0  0  0  0  0  0  0  0  0  0  0  0
  141.8420   77.2520  219.2730 C   0  0  0  0  0  0  0  0  0  0  0  0
  141.1530   76.4680  218.3660 C   0  0  0  0  0  0  0  0  0  0  0  0
  141.6160   75.1760  218.1770 C   0  0  0  0  0  0  0  0  0  0  0  0
  142.7060   74.6680  218.8430 C   0  0  0  0  0  0  0  0  0  0  0  0
  143.1620   73.3640  218.6430 C   0  0  0  0  0  0  0  0  0  0  0  0
  144.2690   72.9520  219.3660 C   0  0  0  0  0  0  0  0  0  0  0  0
  144.9120   73.8060  220.2660 C   0  0  0  0  0  0  0  0  0  0  0  0
  146.3060   73.2070  221.1420 Cl  0  0  0  0  0  0  0  0  0  0  0  0
  144.4570   75.0930  220.4590 C   0  0  0  0  0  0  0  0  0  0  0  0
  143.3530   75.5130  219.7420 C   0  0  0  0  0  0  0  0  0  0  0  0
  142.9120   76.7700  219.9350 N   0  0  0  0  0  0  0  0  0  0  0  0
  142.9470   79.0120  220.8980 H   0  0  0  0  0  0  0  0  0  0  0  0
  142.5706   81.4851  220.4227 H   0  0  0  0  0  0  0  0  0  0  0  0
  140.8296   81.0831  220.1951 H   0  0  0  0  0  0  0  0  0  0  0  0
  139.2196   82.5867  222.6934 H   0  0  0  0  0  0  0  0  0  0  0  0
  138.9354   81.5527  221.2724 H   0  0  0  0  0  0  0  0  0  0  0  0
  137.2113   81.7279  223.4249 H   0  0  0  0  0  0  0  0  0  0  0  0
  137.2818   80.3141  222.3864 H   0  0  0  0  0  0  0  0  0  0  0  0
  138.5933   80.8039  225.0913 H   0  0  0  0  0  0  0  0  0  0  0  0
  137.8757   79.3131  224.5077 H   0  0  0  0  0  0  0  0  0  0  0  0
  140.5350   79.7093  224.5197 H   0  0  0  0  0  0  0  0  0  0  0  0
  137.7472   78.2447  222.8045 H   0  0  0  0  0  0  0  0  0  0  0  0
  137.7697   76.0082  221.8335 H   0  0  0  0  0  0  0  0  0  0  0  0
  142.0372   75.9107  222.2200 H   0  0  0  0  0  0  0  0  0  0  0  0
  141.9998   78.1713  223.2019 H   0  0  0  0  0  0  0  0  0  0  0  0
  140.2785   76.8520  217.8203 H   0  0  0  0  0  0  0  0  0  0  0  0
  141.0879   74.5278  217.4622 H   0  0  0  0  0  0  0  0  0  0  0  0
  142.6597   72.6874  217.9360 H   0  0  0  0  0  0  0  0  0  0  0  0
  144.6507   71.9295  219.2287 H   0  0  0  0  0  0  0  0  0  0  0  0
  144.9603   75.7687  221.1662 H   0  0  0  0  0  0  0  0  0  0  0  0
  1  2  2  0
  2  3  1  0
  3  4  1  0
  4  5  1  0
  5  6  2  0
  5  7  1  0
  7  8  1  0
  8  9  1  0
  9 10  1  0
 10 11  1  0
 11 12  1  0
 12 13  2  0
 13 14  1  0
 14 15  2  0
 15 16  1  0
 15 17  1  0
 17 18  2  0
  2 19  1  0
 19 20  2  0
 20 21  1  0
 21 22  2  0
 22 23  1  0
 23 24  2  0
 24 25  1  0
 25 26  1  0
 25 27  2  0
 27 28  1  0
 28 29  2  0
 11  7  1  0
 18 12  1  0
 29 19  1  0
 28 22  1  0
  3 30  1  0
  4 31  1  0
  4 32  1  0
  8 33  1  0
  8 34  1  0
  9 35  1  0
  9 36  1  0
 10 37  1  0
 10 38  1  0
 11 39  1  1
 13 40  1  0
 14 41  1  0
 17 42  1  0
 18 43  1  0
 20 44  1  0
 21 45  1  0
 23 46  1  0
 24 47  1  0
 27 48  1  0
M  END
>  <smiles>  (27) 
O=C(NCC(=O)N1CCC[C@H]1c1ccc(Cl)cc1)c1ccc2ccc(Cl)cc2n1

>  <score_type>  (27) 
oracle

>  <origin>  (27) 
autodockgpu

>  <m_score__min__energy>  (27) 
-8.9399999999999995

>  <m_primary>  (27) 
energy

>  <rmsd>  (27) 
8.15160797939851

>  <m_score__min__rmsd>  (27) 
8.15160797939851

>  <meeko>  (27) 
{"free_energy": -6.85, "intermolecular_energy": -8.35, "internal_energy": -3.1, "cluster_size": 27, "cluster_id": 5, "rank_in_cluster": 22}

>  <energy>  (27) 
-7.18

>  <cluster_rmsd>  (27) 
0.24

>  <cluster>  (27) 
5

$$$$

     RDKit          3D

 48 51  0  0  0  0  0  0  0  0999 V2000
  138.7130   74.6270  220.1330 O   0  0  0  0  0  0  0  0  0  0  0  0
  139.0070   74.7930  221.3320 C   0  0  0  0  0  0  0  0  0  0  0  0
  139.3330   73.6820  222.1480 N   0  0  0  0  0  0  0  0  0  0  0  0
  139.3540   72.3150  221.6770 C   0  0  0  0  0  0  0  0  0  0  0  0
  139.5480   71.3890  222.8130 C   0  0  0  0  0  0  0  0  0  0  0  0
  140.1120   71.7120  223.8940 O   0  0  0  0  0  0  0  0  0  0  0  0
  139.0860   70.0480  222.7170 N   0  0  0  0  0  0  0  0  0  0  0  0
  139.3750   69.1830  221.6090 C   0  0  0  0  0  0  0  0  0  0  0  0
  138.8050   67.8320  221.9370 C   0  0  0  0  0  0  0  0  0  0  0  0
  137.7510   68.1290  222.9730 C   0  0  0  0  0  0  0  0  0  0  0  0
  138.2770   69.3390  223.6680 C   0  0  1  0  0  0  0  0  0  0  0  0
  139.0370   69.0420  224.9100 C   0  0  0  0  0  0  0  0  0  0  0  0
  139.2790   69.9990  225.8860 C   0  0  0  0  0  0  0  0  0  0  0  0
  139.9760   69.7540  227.0340 C   0  0  0  0  0  0  0  0  0  0  0  0
  140.4780   68.4980  227.2620 C   0  0  0  0  0  0  0  0  0  0  0  0
  141.3630   68.2290  228.7460 Cl  0  0  0  0  0  0  0  0  0  0  0  0
  140.2710   67.5060  226.3300 C   0  0  0  0  0  0  0  0  0  0  0  0
  139.5620   67.7780  225.1740 C   0  0  0  0  0  0  0  0  0  0  0  0
  139.0180   76.1480  221.9220 C   0  0  0  0  0  0  0  0  0  0  0  0
  137.8140   76.7680  222.1990 C   0  0  0  0  0  0  0  0  0  0  0  0
  137.8760   78.0370  222.7520 C   0  0  0  0  0  0  0  0  0  0  0  0
  139.0620   78.6760  223.0250 C   0  0  0  0  0  0  0  0  0  0  0  0
  139.1110   79.9550  223.5820 C   0  0  0  0  0  0  0  0  0  0  0  0
  140.3580   80.5080  223.8160 C   0  0  0  0  0  0  0  0  0  0  0  0
  141.5320   79.8150  223.5080 C   0  0  0  0  0  0  0  0  0  0  0  0
  143.0720   80.5850  223.8350 Cl  0  0  0  0  0  0  0  0  0  0  0  0
  141.4790   78.5520  222.9580 C   0  0  0  0  0  0  0  0  0  0  0  0
  140.2370   77.9930  222.7200 C   0  0  0  0  0  0  0  0  0  0  0  0
  140.1900   76.7600  222.1830 N   0  0  0  0  0  0  0  0  0  0  0  0
  139.5750   73.8860  223.1620 H   0  0  0  0  0  0  0  0  0  0  0  0
  138.3994   72.0866  221.1804 H   0  0  0  0  0  0  0  0  0  0  0  0
  140.1846   72.1919  220.9664 H   0  0  0  0  0  0  0  0  0  0  0  0
  138.9093   69.5759  220.6931 H   0  0  0  0  0  0  0  0  0  0  0  0
  140.4597   69.1173  221.4385 H   0  0  0  0  0  0  0  0  0  0  0  0
  138.3583   67.3680  221.0453 H   0  0  0  0  0  0  0  0  0  0  0  0
  139.5669   67.1242  222.2956 H   0  0  0  0  0  0  0  0  0  0  0  0
  136.7812   68.3387  222.4983 H   0  0  0  0  0  0  0  0  0  0  0  0
  137.5727   67.2859  223.6567 H   0  0  0  0  0  0  0  0  0  0  0  0
  137.4277   69.9475  224.0121 H   0  0  0  0  0  0  0  0  0  0  0  0
  138.8863   71.0138  225.7250 H   0  0  0  0  0  0  0  0  0  0  0  0
  140.1336   70.5566  227.7695 H   0  0  0  0  0  0  0  0  0  0  0  0
  140.6699   66.4959  226.5050 H   0  0  0  0  0  0  0  0  0  0  0  0
  139.4078   66.9726  224.4408 H   0  0  0  0  0  0  0  0  0  0  0  0
  136.8520   76.2771  221.9903 H   0  0  0  0  0  0  0  0  0  0  0  0
  136.9341   78.5562  222.9828 H   0  0  0  0  0  0  0  0  0  0  0  0
  138.1900   80.5046  223.8266 H   0  0  0  0  0  0  0  0  0  0  0  0
  140.4266   81.5148  224.2539 H   0  0  0  0  0  0  0  0  0  0  0  0
  142.4008   78.0033  222.7148 H   0  0  0  0  0  0  0  0  0  0  0  0
  1  2  2  0
  2  3  1  0
  3  4  1  0
  4  5  1  0
  5  6  2  0
  5  7  1  0
  7  8  1  0
  8  9  1  0
  9 10  1  0
 10 11  1  0
 11 12  1  0
 12 13  2  0
 13 14  1  0
 14 15  2  0
 15 16  1  0
 15 17  1  0
 17 18  2  0
  2 19  1  0
 19 20  2  0
 20 21  1  0
 21 22  2  0
 22 23  1  0
 23 24  2  0
 24 25  1  0
 25 26  1  0
 25 27  2  0
 27 28  1  0
 28 29  2  0
 11  7  1  0
 18 12  1  0
 29 19  1  0
 28 22  1  0
  3 30  1  0
  4 31  1  0
  4 32  1  0
  8 33  1  0
  8 34  1  0
  9 35  1  0
  9 36  1  0
 10 37  1  0
 10 38  1  0
 11 39  1  1
 13 40  1  0
 14 41  1  0
 17 42  1  0
 18 43  1  0
 20 44  1  0
 21 45  1  0
 23 46  1  0
 24 47  1  0
 27 48  1  0
M  END
>  <smiles>  (28) 
O=C(NCC(=O)N1CCC[C@H]1c1ccc(Cl)cc1)c1ccc2ccc(Cl)cc2n1

>  <score_type>  (28) 
oracle

>  <origin>  (28) 
autodockgpu

>  <m_score__min__energy>  (28) 
-8.9399999999999995

>  <m_primary>  (28) 
energy

>  <rmsd>  (28) 
8.079909879936617

>  <m_score__min__rmsd>  (28) 
8.079909879936617

>  <meeko>  (28) 
{"free_energy": -8.63, "intermolecular_energy": -10.12, "internal_energy": -1.49, "cluster_size": 8, "cluster_id": 1, "rank_in_cluster": 2}

>  <energy>  (28) 
-7.17

>  <cluster_rmsd>  (28) 
0.35

>  <cluster>  (28) 
5

$$$$

     RDKit          3D

 48 51  0  0  0  0  0  0  0  0999 V2000
  140.8490   73.0270  222.3060 O   0  0  0  0  0  0  0  0  0  0  0  0
  139.9350   73.6250  221.7060 C   0  0  0  0  0  0  0  0  0  0  0  0
  139.2130   72.9760  220.6750 N   0  0  0  0  0  0  0  0  0  0  0  0
  139.4640   71.6170  220.2460 C   0  0  0  0  0  0  0  0  0  0  0  0
  139.2220   70.6790  221.3630 C   0  0  0  0  0  0  0  0  0  0  0  0
  139.9600   69.6900  221.6220 O   0  0  0  0  0  0  0  0  0  0  0  0
  138.1010   70.8720  222.2150 N   0  0  0  0  0  0  0  0  0  0  0  0
  136.7710   70.4410  221.8910 C   0  0  0  0  0  0  0  0  0  0  0  0
  135.9060   70.7290  223.0860 C   0  0  0  0  0  0  0  0  0  0  0  0
  136.6640   71.7990  223.8290 C   0  0  0  0  0  0  0  0  0  0  0  0
  138.0890   71.5070  223.5030 C   0  0  1  0  0  0  0  0  0  0  0  0
  138.7860   70.6770  224.5210 C   0  0  0  0  0  0  0  0  0  0  0  0
  139.8840   71.1350  225.2360 C   0  0  0  0  0  0  0  0  0  0  0  0
  140.5430   70.3940  226.1740 C   0  0  0  0  0  0  0  0  0  0  0  0
  140.1170   69.1200  226.4460 C   0  0  0  0  0  0  0  0  0  0  0  0
  140.9900   68.2080  227.6560 Cl  0  0  0  0  0  0  0  0  0  0  0  0
  139.0320   68.6090  225.7690 C   0  0  0  0  0  0  0  0  0  0  0  0
  138.3810   69.3780  224.8230 C   0  0  0  0  0  0  0  0  0  0  0  0
  139.5900   75.0180  222.0590 C   0  0  0  0  0  0  0  0  0  0  0  0
  138.2590   75.3910  222.0900 C   0  0  0  0  0  0  0  0  0  0  0  0
  137.9850   76.7070  222.4260 C   0  0  0  0  0  0  0  0  0  0  0  0
  138.9680   77.6220  222.7210 C   0  0  0  0  0  0  0  0  0  0  0  0
  138.6790   78.9460  223.0580 C   0  0  0  0  0  0  0  0  0  0  0  0
  139.7430   79.7860  223.3360 C   0  0  0  0  0  0  0  0  0  0  0  0
  141.0640   79.3320  223.2830 C   0  0  0  0  0  0  0  0  0  0  0  0
  142.3550   80.4590  223.6490 Cl  0  0  0  0  0  0  0  0  0  0  0  0
  141.3440   78.0240  222.9500 C   0  0  0  0  0  0  0  0  0  0  0  0
  140.2870   77.1780  222.6700 C   0  0  0  0  0  0  0  0  0  0  0  0
  140.5650   75.9030  222.3450 N   0  0  0  0  0  0  0  0  0  0  0  0
  138.4460   73.5360  220.2000 H   0  0  0  0  0  0  0  0  0  0  0  0
  138.7925   71.3692  219.4108 H   0  0  0  0  0  0  0  0  0  0  0  0
  140.5117   71.5291  219.9225 H   0  0  0  0  0  0  0  0  0  0  0  0
  136.3991   70.9927  221.0150 H   0  0  0  0  0  0  0  0  0  0  0  0
  136.7568   69.3681  221.6486 H   0  0  0  0  0  0  0  0  0  0  0  0
  134.9164   71.0944  222.7745 H   0  0  0  0  0  0  0  0  0  0  0  0
  135.7184   69.8361  223.7004 H   0  0  0  0  0  0  0  0  0  0  0  0
  136.3774   72.8007  223.4762 H   0  0  0  0  0  0  0  0  0  0  0  0
  136.4624   71.7940  224.9104 H   0  0  0  0  0  0  0  0  0  0  0  0
  138.6516   72.4522  223.4955 H   0  0  0  0  0  0  0  0  0  0  0  0
  140.2442   72.1547  225.0350 H   0  0  0  0  0  0  0  0  0  0  0  0
  141.4081   70.8155  226.7068 H   0  0  0  0  0  0  0  0  0  0  0  0
  138.6831   67.5876  225.9814 H   0  0  0  0  0  0  0  0  0  0  0  0
  137.5169   68.9519  224.2922 H   0  0  0  0  0  0  0  0  0  0  0  0
  137.4553   74.6765  221.8587 H   0  0  0  0  0  0  0  0  0  0  0  0
  136.9352   77.0340  222.4581 H   0  0  0  0  0  0  0  0  0  0  0  0
  137.6414   79.3087  223.1010 H   0  0  0  0  0  0  0  0  0  0  0  0
  139.5449   80.8341  223.6046 H   0  0  0  0  0  0  0  0  0  0  0  0
  142.3821   77.6625  222.9081 H   0  0  0  0  0  0  0  0  0  0  0  0
  1  2  2  0
  2  3  1  0
  3  4  1  0
  4  5  1  0
  5  6  2  0
  5  7  1  0
  7  8  1  0
  8  9  1  0
  9 10  1  0
 10 11  1  0
 11 12  1  0
 12 13  2  0
 13 14  1  0
 14 15  2  0
 15 16  1  0
 15 17  1  0
 17 18  2  0
  2 19  1  0
 19 20  2  0
 20 21  1  0
 21 22  2  0
 22 23  1  0
 23 24  2  0
 24 25  1  0
 25 26  1  0
 25 27  2  0
 27 28  1  0
 28 29  2  0
 11  7  1  0
 18 12  1  0
 29 19  1  0
 28 22  1  0
  3 30  1  0
  4 31  1  0
  4 32  1  0
  8 33  1  0
  8 34  1  0
  9 35  1  0
  9 36  1  0
 10 37  1  0
 10 38  1  0
 11 39  1  6
 13 40  1  0
 14 41  1  0
 17 42  1  0
 18 43  1  0
 20 44  1  0
 21 45  1  0
 23 46  1  0
 24 47  1  0
 27 48  1  0
M  END
>  <smiles>  (29) 
O=C(NCC(=O)N1CCC[C@H]1c1ccc(Cl)cc1)c1ccc2ccc(Cl)cc2n1

>  <score_type>  (29) 
oracle

>  <origin>  (29) 
autodockgpu

>  <m_score__min__energy>  (29) 
-8.9399999999999995

>  <m_primary>  (29) 
energy

>  <rmsd>  (29) 
7.233190353016572

>  <m_score__min__rmsd>  (29) 
7.233190353016572

>  <meeko>  (29) 
{"free_energy": -7.79, "intermolecular_energy": -9.29, "internal_energy": -1.84, "cluster_size": 8, "cluster_id": 1, "rank_in_cluster": 8}

>  <energy>  (29) 
-7.17

>  <cluster_rmsd>  (29) 
0.24

>  <cluster>  (29) 
5

$$$$

     RDKit          3D

 48 51  0  0  0  0  0  0  0  0999 V2000
  141.4650   73.0950  221.4400 O   0  0  0  0  0  0  0  0  0  0  0  0
  140.4280   73.2200  222.1180 C   0  0  0  0  0  0  0  0  0  0  0  0
  139.7280   74.4510  222.1330 N   0  0  0  0  0  0  0  0  0  0  0  0
  140.1410   75.6230  221.3910 C   0  0  0  0  0  0  0  0  0  0  0  0
  139.7940   76.8480  222.1420 C   0  0  0  0  0  0  0  0  0  0  0  0
  138.7210   76.9960  222.7880 O   0  0  0  0  0  0  0  0  0  0  0  0
  140.7000   77.9430  222.1600 N   0  0  0  0  0  0  0  0  0  0  0  0
  141.5300   78.2720  223.2830 C   0  0  0  0  0  0  0  0  0  0  0  0
  142.4120   79.4150  222.8670 C   0  0  0  0  0  0  0  0  0  0  0  0
  141.6730   80.0360  221.7090 C   0  0  0  0  0  0  0  0  0  0  0  0
  140.9430   78.8850  221.1040 C   0  0  1  0  0  0  0  0  0  0  0  0
  141.6550   78.2480  219.9650 C   0  0  0  0  0  0  0  0  0  0  0  0
  141.5380   78.7060  218.6600 C   0  0  0  0  0  0  0  0  0  0  0  0
  142.1790   78.1390  217.5960 C   0  0  0  0  0  0  0  0  0  0  0  0
  142.9910   77.0530  217.7990 C   0  0  0  0  0  0  0  0  0  0  0  0
  143.7910   76.3600  216.4080 Cl  0  0  0  0  0  0  0  0  0  0  0  0
  143.1460   76.5520  219.0730 C   0  0  0  0  0  0  0  0  0  0  0  0
  142.4870   77.1430  220.1350 C   0  0  0  0  0  0  0  0  0  0  0  0
  139.9110   72.0890  222.9160 C   0  0  0  0  0  0  0  0  0  0  0  0
  138.8230   71.3780  222.4460 C   0  0  0  0  0  0  0  0  0  0  0  0
  138.3750   70.3270  223.2280 C   0  0  0  0  0  0  0  0  0  0  0  0
  138.9630   69.9810  224.4220 C   0  0  0  0  0  0  0  0  0  0  0  0
  138.5020   68.9190  225.2020 C   0  0  0  0  0  0  0  0  0  0  0  0
  139.1660   68.6560  226.3880 C   0  0  0  0  0  0  0  0  0  0  0  0
  140.2610   69.4220  226.7960 C   0  0  0  0  0  0  0  0  0  0  0  0
  141.0470   69.0240  228.3100 Cl  0  0  0  0  0  0  0  0  0  0  0  0
  140.7130   70.4700  226.0220 C   0  0  0  0  0  0  0  0  0  0  0  0
  140.0550   70.7400  224.8360 C   0  0  0  0  0  0  0  0  0  0  0  0
  140.4990   71.7630  224.0840 N   0  0  0  0  0  0  0  0  0  0  0  0
  138.8500   74.4970  222.7290 H   0  0  0  0  0  0  0  0  0  0  0  0
  141.2291   75.5889  221.2332 H   0  0  0  0  0  0  0  0  0  0  0  0
  139.6224   75.6363  220.4210 H   0  0  0  0  0  0  0  0  0  0  0  0
  140.9056   78.5702  224.1381 H   0  0  0  0  0  0  0  0  0  0  0  0
  142.1342   77.4049  223.5880 H   0  0  0  0  0  0  0  0  0  0  0  0
  142.5314   80.1370  223.6883 H   0  0  0  0  0  0  0  0  0  0  0  0
  143.4288   79.0922  222.5990 H   0  0  0  0  0  0  0  0  0  0  0  0
  140.9706   80.8069  222.0588 H   0  0  0  0  0  0  0  0  0  0  0  0
  142.3410   80.5418  220.9963 H   0  0  0  0  0  0  0  0  0  0  0  0
  140.0043   79.2523  220.6636 H   0  0  0  0  0  0  0  0  0  0  0  0
  140.8916   79.5760  218.4721 H   0  0  0  0  0  0  0  0  0  0  0  0
  142.0451   78.5500  216.5845 H   0  0  0  0  0  0  0  0  0  0  0  0
  143.7949   75.6807  219.2454 H   0  0  0  0  0  0  0  0  0  0  0  0
  142.6235   76.7285  221.1447 H   0  0  0  0  0  0  0  0  0  0  0  0
  138.3353   71.6354  221.4942 H   0  0  0  0  0  0  0  0  0  0  0  0
  137.5107   69.7430  222.8789 H   0  0  0  0  0  0  0  0  0  0  0  0
  137.6410   68.3121  224.8852 H   0  0  0  0  0  0  0  0  0  0  0  0
  138.8239   67.8256  227.0232 H   0  0  0  0  0  0  0  0  0  0  0  0
  141.5746   71.0755  226.3397 H   0  0  0  0  0  0  0  0  0  0  0  0
  1  2  2  0
  2  3  1  0
  3  4  1  0
  4  5  1  0
  5  6  2  0
  5  7  1  0
  7  8  1  0
  8  9  1  0
  9 10  1  0
 10 11  1  0
 11 12  1  0
 12 13  2  0
 13 14  1  0
 14 15  2  0
 15 16  1  0
 15 17  1  0
 17 18  2  0
  2 19  1  0
 19 20  2  0
 20 21  1  0
 21 22  2  0
 22 23  1  0
 23 24  2  0
 24 25  1  0
 25 26  1  0
 25 27  2  0
 27 28  1  0
 28 29  2  0
 11  7  1  0
 18 12  1  0
 29 19  1  0
 28 22  1  0
  3 30  1  0
  4 31  1  0
  4 32  1  0
  8 33  1  0
  8 34  1  0
  9 35  1  0
  9 36  1  0
 10 37  1  0
 10 38  1  0
 11 39  1  6
 13 40  1  0
 14 41  1  0
 17 42  1  0
 18 43  1  0
 20 44  1  0
 21 45  1  0
 23 46  1  0
 24 47  1  0
 27 48  1  0
M  END
>  <smiles>  (30) 
O=C(NCC(=O)N1CCC[C@H]1c1ccc(Cl)cc1)c1ccc2ccc(Cl)cc2n1

>  <score_type>  (30) 
oracle

>  <origin>  (30) 
autodockgpu

>  <m_score__min__energy>  (30) 
-8.9399999999999995

>  <m_primary>  (30) 
energy

>  <rmsd>  (30) 
3.695216089113517

>  <m_score__min__rmsd>  (30) 
3.695216089113517

>  <meeko>  (30) 
{"free_energy": -8.48, "intermolecular_energy": -9.97, "internal_energy": -1.46, "cluster_size": 4, "cluster_id": 2, "rank_in_cluster": 2}

>  <energy>  (30) 
-7.16

>  <cluster_rmsd>  (30) 
0.24

>  <cluster>  (30) 
5

$$$$

     RDKit          3D

 48 51  0  0  0  0  0  0  0  0999 V2000
  141.2490   73.4640  221.5410 O   0  0  0  0  0  0  0  0  0  0  0  0
  140.1750   73.4630  222.1710 C   0  0  0  0  0  0  0  0  0  0  0  0
  139.3460   74.6120  222.1710 N   0  0  0  0  0  0  0  0  0  0  0  0
  139.6620   75.8350  221.4670 C   0  0  0  0  0  0  0  0  0  0  0  0
  139.4320   77.0020  222.3450 C   0  0  0  0  0  0  0  0  0  0  0  0
  138.3930   77.1630  223.0400 O   0  0  0  0  0  0  0  0  0  0  0  0
  140.4190   78.0210  222.4360 N   0  0  0  0  0  0  0  0  0  0  0  0
  141.4550   78.2160  221.4630 C   0  0  0  0  0  0  0  0  0  0  0  0
  142.2150   79.4500  221.8610 C   0  0  0  0  0  0  0  0  0  0  0  0
  141.9190   79.5940  223.3320 C   0  0  0  0  0  0  0  0  0  0  0  0
  140.5580   79.0040  223.4730 C   0  0  1  0  0  0  0  0  0  0  0  0
  139.4570   80.0020  223.4240 C   0  0  0  0  0  0  0  0  0  0  0  0
  138.5150   80.1290  224.4360 C   0  0  0  0  0  0  0  0  0  0  0  0
  137.4940   81.0340  224.4150 C   0  0  0  0  0  0  0  0  0  0  0  0
  137.3670   81.8810  223.3430 C   0  0  0  0  0  0  0  0  0  0  0  0
  136.0450   83.0250  223.3590 Cl  0  0  0  0  0  0  0  0  0  0  0  0
  138.2710   81.8030  222.3070 C   0  0  0  0  0  0  0  0  0  0  0  0
  139.2970   80.8770  222.3510 C   0  0  0  0  0  0  0  0  0  0  0  0
  139.7490   72.2680  222.9280 C   0  0  0  0  0  0  0  0  0  0  0  0
  138.7400   71.4740  222.4150 C   0  0  0  0  0  0  0  0  0  0  0  0
  138.3750   70.3650  223.1600 C   0  0  0  0  0  0  0  0  0  0  0  0
  138.9680   70.0420  224.3580 C   0  0  0  0  0  0  0  0  0  0  0  0
  138.5910   68.9210  225.1000 C   0  0  0  0  0  0  0  0  0  0  0  0
  139.2520   68.6870  226.2930 C   0  0  0  0  0  0  0  0  0  0  0  0
  140.2640   69.5390  226.7460 C   0  0  0  0  0  0  0  0  0  0  0  0
  141.0520   69.1730  228.2670 Cl  0  0  0  0  0  0  0  0  0  0  0  0
  140.6330   70.6450  226.0100 C   0  0  0  0  0  0  0  0  0  0  0  0
  139.9770   70.8860  224.8170 C   0  0  0  0  0  0  0  0  0  0  0  0
  140.3400   71.9660  224.1010 N   0  0  0  0  0  0  0  0  0  0  0  0
  138.4430   74.5520  222.7270 H   0  0  0  0  0  0  0  0  0  0  0  0
  140.7177   75.8146  221.1585 H   0  0  0  0  0  0  0  0  0  0  0  0
  139.0143   75.9179  220.5818 H   0  0  0  0  0  0  0  0  0  0  0  0
  142.1286   77.3465  221.4509 H   0  0  0  0  0  0  0  0  0  0  0  0
  141.0272   78.3298  220.4560 H   0  0  0  0  0  0  0  0  0  0  0  0
  143.2935   79.3188  221.6890 H   0  0  0  0  0  0  0  0  0  0  0  0
  141.9228   80.3365  221.2789 H   0  0  0  0  0  0  0  0  0  0  0  0
  142.6522   79.0399  223.9366 H   0  0  0  0  0  0  0  0  0  0  0  0
  141.9719   80.6364  223.6794 H   0  0  0  0  0  0  0  0  0  0  0  0
  140.4685   78.5541  224.4728 H   0  0  0  0  0  0  0  0  0  0  0  0
  138.5965   79.4607  225.3059 H   0  0  0  0  0  0  0  0  0  0  0  0
  136.7794   81.0841  225.2497 H   0  0  0  0  0  0  0  0  0  0  0  0
  138.1768   82.4780  221.4436 H   0  0  0  0  0  0  0  0  0  0  0  0
  140.0086   80.8295  221.5136 H   0  0  0  0  0  0  0  0  0  0  0  0
  138.2499   71.7121  221.4594 H   0  0  0  0  0  0  0  0  0  0  0  0
  137.5756   69.7139  222.7766 H   0  0  0  0  0  0  0  0  0  0  0  0
  137.7959   68.2470  224.7484 H   0  0  0  0  0  0  0  0  0  0  0  0
  138.9752   67.8113  226.8984 H   0  0  0  0  0  0  0  0  0  0  0  0
  141.4284   71.3180  226.3627 H   0  0  0  0  0  0  0  0  0  0  0  0
  1  2  2  0
  2  3  1  0
  3  4  1  0
  4  5  1  0
  5  6  2  0
  5  7  1  0
  7  8  1  0
  8  9  1  0
  9 10  1  0
 10 11  1  0
 11 12  1  0
 12 13  2  0
 13 14  1  0
 14 15  2  0
 15 16  1  0
 15 17  1  0
 17 18  2  0
  2 19  1  0
 19 20  2  0
 20 21  1  0
 21 22  2  0
 22 23  1  0
 23 24  2  0
 24 25  1  0
 25 26  1  0
 25 27  2  0
 27 28  1  0
 28 29  2  0
 11  7  1  0
 18 12  1  0
 29 19  1  0
 28 22  1  0
  3 30  1  0
  4 31  1  0
  4 32  1  0
  8 33  1  0
  8 34  1  0
  9 35  1  0
  9 36  1  0
 10 37  1  0
 10 38  1  0
 11 39  1  1
 13 40  1  0
 14 41  1  0
 17 42  1  0
 18 43  1  0
 20 44  1  0
 21 45  1  0
 23 46  1  0
 24 47  1  0
 27 48  1  0
M  END
>  <smiles>  (31) 
O=C(NCC(=O)N1CCC[C@H]1c1ccc(Cl)cc1)c1ccc2ccc(Cl)cc2n1

>  <score_type>  (31) 
oracle

>  <origin>  (31) 
autodockgpu

>  <m_score__min__energy>  (31) 
-8.9399999999999995

>  <m_primary>  (31) 
energy

>  <rmsd>  (31) 
3.6469414611128537

>  <m_score__min__rmsd>  (31) 
3.6469414611128537

>  <meeko>  (31) 
{"free_energy": -8.39, "intermolecular_energy": -9.89, "internal_energy": -1.36, "cluster_size": 4, "cluster_id": 3, "rank_in_cluster": 4}

>  <energy>  (31) 
-7.14

>  <cluster_rmsd>  (31) 
0.24

>  <cluster>  (31) 
5

$$$$

     RDKit          3D

 48 51  0  0  0  0  0  0  0  0999 V2000
  137.0630   71.2980  221.6180 O   0  0  0  0  0  0  0  0  0  0  0  0
  136.7810   72.1580  222.4740 C   0  0  0  0  0  0  0  0  0  0  0  0
  137.2750   73.4800  222.3490 N   0  0  0  0  0  0  0  0  0  0  0  0
  138.1140   73.9270  221.2590 C   0  0  0  0  0  0  0  0  0  0  0  0
  139.5310   73.9410  221.6810 C   0  0  0  0  0  0  0  0  0  0  0  0
  140.0650   74.8900  222.3170 O   0  0  0  0  0  0  0  0  0  0  0  0
  140.3710   72.8370  221.3680 N   0  0  0  0  0  0  0  0  0  0  0  0
  141.6830   72.9700  220.8030 C   0  0  0  0  0  0  0  0  0  0  0  0
  142.2770   71.5920  220.7270 C   0  0  0  0  0  0  0  0  0  0  0  0
  141.0760   70.6820  220.7510 C   0  0  0  0  0  0  0  0  0  0  0  0
  140.0760   71.4440  221.5500 C   0  0  1  0  0  0  0  0  0  0  0  0
  140.0480   71.0810  222.9910 C   0  0  0  0  0  0  0  0  0  0  0  0
  139.3890   69.9560  223.4670 C   0  0  0  0  0  0  0  0  0  0  0  0
  139.3460   69.6010  224.7850 C   0  0  0  0  0  0  0  0  0  0  0  0
  139.9830   70.3830  225.7140 C   0  0  0  0  0  0  0  0  0  0  0  0
  139.9030   69.8900  227.3900 Cl  0  0  0  0  0  0  0  0  0  0  0  0
  140.6540   71.5140  225.3030 C   0  0  0  0  0  0  0  0  0  0  0  0
  140.6830   71.8530  223.9630 C   0  0  0  0  0  0  0  0  0  0  0  0
  135.9300   71.8150  223.6320 C   0  0  0  0  0  0  0  0  0  0  0  0
  135.9380   70.5170  224.1080 C   0  0  0  0  0  0  0  0  0  0  0  0
  135.1240   70.2430  225.1950 C   0  0  0  0  0  0  0  0  0  0  0  0
  134.3340   71.1950  225.7950 C   0  0  0  0  0  0  0  0  0  0  0  0
  133.5180   70.9060  226.8900 C   0  0  0  0  0  0  0  0  0  0  0  0
  132.7620   71.9390  227.4190 C   0  0  0  0  0  0  0  0  0  0  0  0
  132.8090   73.2270  226.8810 C   0  0  0  0  0  0  0  0  0  0  0  0
  131.8210   74.4780  227.6080 Cl  0  0  0  0  0  0  0  0  0  0  0  0
  133.6170   73.5070  225.7990 C   0  0  0  0  0  0  0  0  0  0  0  0
  134.3750   72.4820  225.2640 C   0  0  0  0  0  0  0  0  0  0  0  0
  135.1620   72.7600  224.2090 N   0  0  0  0  0  0  0  0  0  0  0  0
  137.0010   74.1690  223.1090 H   0  0  0  0  0  0  0  0  0  0  0  0
  137.9955   73.2439  220.4050 H   0  0  0  0  0  0  0  0  0  0  0  0
  137.8149   74.9449  220.9686 H   0  0  0  0  0  0  0  0  0  0  0  0
  141.6169   73.4077  219.7960 H   0  0  0  0  0  0  0  0  0  0  0  0
  142.3086   73.6309  221.4210 H   0  0  0  0  0  0  0  0  0  0  0  0
  142.8486   71.4623  219.7962 H   0  0  0  0  0  0  0  0  0  0  0  0
  142.9829   71.3870  221.5453 H   0  0  0  0  0  0  0  0  0  0  0  0
  140.7047   70.4945  219.7327 H   0  0  0  0  0  0  0  0  0  0  0  0
  141.2980   69.6919  221.1757 H   0  0  0  0  0  0  0  0  0  0  0  0
  139.0677   71.1917  221.1899 H   0  0  0  0  0  0  0  0  0  0  0  0
  138.8712   69.3128  222.7402 H   0  0  0  0  0  0  0  0  0  0  0  0
  138.8052   68.6959  225.0986 H   0  0  0  0  0  0  0  0  0  0  0  0
  141.1670   72.1476  226.0415 H   0  0  0  0  0  0  0  0  0  0  0  0
  141.2237   72.7598  223.6542 H   0  0  0  0  0  0  0  0  0  0  0  0
  136.5617   69.7380  223.6452 H   0  0  0  0  0  0  0  0  0  0  0  0
  135.1090   69.2187  225.5957 H   0  0  0  0  0  0  0  0  0  0  0  0
  133.4768   69.8934  227.3178 H   0  0  0  0  0  0  0  0  0  0  0  0
  132.1099   71.7405  228.2823 H   0  0  0  0  0  0  0  0  0  0  0  0
  133.6574   74.5201  225.3725 H   0  0  0  0  0  0  0  0  0  0  0  0
  1  2  2  0
  2  3  1  0
  3  4  1  0
  4  5  1  0
  5  6  2  0
  5  7  1  0
  7  8  1  0
  8  9  1  0
  9 10  1  0
 10 11  1  0
 11 12  1  0
 12 13  2  0
 13 14  1  0
 14 15  2  0
 15 16  1  0
 15 17  1  0
 17 18  2  0
  2 19  1  0
 19 20  2  0
 20 21  1  0
 21 22  2  0
 22 23  1  0
 23 24  2  0
 24 25  1  0
 25 26  1  0
 25 27  2  0
 27 28  1  0
 28 29  2  0
 11  7  1  0
 18 12  1  0
 29 19  1  0
 28 22  1  0
  3 30  1  0
  4 31  1  0
  4 32  1  0
  8 33  1  0
  8 34  1  0
  9 35  1  0
  9 36  1  0
 10 37  1  0
 10 38  1  0
 11 39  1  6
 13 40  1  0
 14 41  1  0
 17 42  1  0
 18 43  1  0
 20 44  1  0
 21 45  1  0
 23 46  1  0
 24 47  1  0
 27 48  1  0
M  END
>  <smiles>  (32) 
O=C(NCC(=O)N1CCC[C@H]1c1ccc(Cl)cc1)c1ccc2ccc(Cl)cc2n1

>  <score_type>  (32) 
oracle

>  <origin>  (32) 
autodockgpu

>  <m_score__min__energy>  (32) 
-8.9399999999999995

>  <m_primary>  (32) 
energy

>  <rmsd>  (32) 
5.179328493117251

>  <m_score__min__rmsd>  (32) 
5.179328493117251

>  <meeko>  (32) 
{"free_energy": -6.99, "intermolecular_energy": -8.48, "internal_energy": -2.46, "cluster_size": 1, "cluster_id": 6, "rank_in_cluster": 1}

>  <energy>  (32) 
-7.11

>  <cluster_rmsd>  (32) 
0.29

>  <cluster>  (32) 
5

$$$$

     RDKit          3D

 48 51  0  0  0  0  0  0  0  0999 V2000
  140.4150   78.9000  218.5820 O   0  0  0  0  0  0  0  0  0  0  0  0
  141.4100   78.5030  219.2180 C   0  0  0  0  0  0  0  0  0  0  0  0
  142.0570   79.3610  220.1410 N   0  0  0  0  0  0  0  0  0  0  0  0
  141.6350   80.7170  220.4140 C   0  0  0  0  0  0  0  0  0  0  0  0
  141.5550   80.9410  221.8730 C   0  0  0  0  0  0  0  0  0  0  0  0
  142.5380   81.2810  222.5860 O   0  0  0  0  0  0  0  0  0  0  0  0
  140.3140   80.7720  222.5450 N   0  0  0  0  0  0  0  0  0  0  0  0
  139.1530   81.5730  222.2850 C   0  0  0  0  0  0  0  0  0  0  0  0
  138.0300   81.0130  223.1130 C   0  0  0  0  0  0  0  0  0  0  0  0
  138.7360   80.2570  224.2100 C   0  0  0  0  0  0  0  0  0  0  0  0
  140.0050   79.8120  223.5670 C   0  0  1  0  0  0  0  0  0  0  0  0
  139.9520   78.4330  223.0140 C   0  0  0  0  0  0  0  0  0  0  0  0
  138.7590   77.8040  222.6840 C   0  0  0  0  0  0  0  0  0  0  0  0
  138.6820   76.5390  222.1770 C   0  0  0  0  0  0  0  0  0  0  0  0
  139.8340   75.8240  221.9710 C   0  0  0  0  0  0  0  0  0  0  0  0
  139.6880   74.2080  221.3200 Cl  0  0  0  0  0  0  0  0  0  0  0  0
  141.0490   76.3950  222.2800 C   0  0  0  0  0  0  0  0  0  0  0  0
  141.1020   77.6780  222.7920 C   0  0  0  0  0  0  0  0  0  0  0  0
  141.9310   77.1340  219.0200 C   0  0  0  0  0  0  0  0  0  0  0  0
  141.3670   76.3370  218.0420 C   0  0  0  0  0  0  0  0  0  0  0  0
  141.8890   75.0630  217.8940 C   0  0  0  0  0  0  0  0  0  0  0  0
  142.9190   74.5830  218.6680 C   0  0  0  0  0  0  0  0  0  0  0  0
  143.4360   73.2960  218.5090 C   0  0  0  0  0  0  0  0  0  0  0  0
  144.4740   72.9120  219.3410 C   0  0  0  0  0  0  0  0  0  0  0  0
  144.9910   73.7780  220.3090 C   0  0  0  0  0  0  0  0  0  0  0  0
  146.3050   73.2160  221.3230 Cl  0  0  0  0  0  0  0  0  0  0  0  0
  144.4770   75.0480  220.4620 C   0  0  0  0  0  0  0  0  0  0  0  0
  143.4400   75.4390  219.6350 C   0  0  0  0  0  0  0  0  0  0  0  0
  142.9420   76.6800  219.7880 N   0  0  0  0  0  0  0  0  0  0  0  0
  142.9000   78.9660  220.6530 H   0  0  0  0  0  0  0  0  0  0  0  0
  142.3611   81.4187  219.9776 H   0  0  0  0  0  0  0  0  0  0  0  0
  140.6420   80.8810  219.9700 H   0  0  0  0  0  0  0  0  0  0  0  0
  139.3453   82.6182  222.5689 H   0  0  0  0  0  0  0  0  0  0  0  0
  138.8966   81.5522  221.2155 H   0  0  0  0  0  0  0  0  0  0  0  0
  137.4097   81.8203  223.5296 H   0  0  0  0  0  0  0  0  0  0  0  0
  137.3465   80.3782  222.5300 H   0  0  0  0  0  0  0  0  0  0  0  0
  138.9399   80.9118  225.0701 H   0  0  0  0  0  0  0  0  0  0  0  0
  138.1404   79.4208  224.6051 H   0  0  0  0  0  0  0  0  0  0  0  0
  140.7934   79.7655  224.3326 H   0  0  0  0  0  0  0  0  0  0  0  0
  137.8212   78.3573  222.8402 H   0  0  0  0  0  0  0  0  0  0  0  0
  137.7041   76.0968  221.9357 H   0  0  0  0  0  0  0  0  0  0  0  0
  141.9785   75.8291  222.1191 H   0  0  0  0  0  0  0  0  0  0  0  0
  142.0820   78.1164  223.0315 H   0  0  0  0  0  0  0  0  0  0  0  0
  140.5418   76.6979  217.4105 H   0  0  0  0  0  0  0  0  0  0  0  0
  141.4606   74.4058  217.1229 H   0  0  0  0  0  0  0  0  0  0  0  0
  143.0327   72.6107  217.7490 H   0  0  0  0  0  0  0  0  0  0  0  0
  144.9011   71.9036  219.2381 H   0  0  0  0  0  0  0  0  0  0  0  0
  144.8813   75.7326  221.2222 H   0  0  0  0  0  0  0  0  0  0  0  0
  1  2  2  0
  2  3  1  0
  3  4  1  0
  4  5  1  0
  5  6  2  0
  5  7  1  0
  7  8  1  0
  8  9  1  0
  9 10  1  0
 10 11  1  0
 11 12  1  0
 12 13  2  0
 13 14  1  0
 14 15  2  0
 15 16  1  0
 15 17  1  0
 17 18  2  0
  2 19  1  0
 19 20  2  0
 20 21  1  0
 21 22  2  0
 22 23  1  0
 23 24  2  0
 24 25  1  0
 25 26  1  0
 25 27  2  0
 27 28  1  0
 28 29  2  0
 11  7  1  0
 18 12  1  0
 29 19  1  0
 28 22  1  0
  3 30  1  0
  4 31  1  0
  4 32  1  0
  8 33  1  0
  8 34  1  0
  9 35  1  0
  9 36  1  0
 10 37  1  0
 10 38  1  0
 11 39  1  1
 13 40  1  0
 14 41  1  0
 17 42  1  0
 18 43  1  0
 20 44  1  0
 21 45  1  0
 23 46  1  0
 24 47  1  0
 27 48  1  0
M  END
>  <smiles>  (33) 
O=C(NCC(=O)N1CCC[C@H]1c1ccc(Cl)cc1)c1ccc2ccc(Cl)cc2n1

>  <score_type>  (33) 
oracle

>  <origin>  (33) 
autodockgpu

>  <m_score__min__energy>  (33) 
-8.9399999999999995

>  <m_primary>  (33) 
energy

>  <rmsd>  (33) 
8.171361952131475

>  <m_score__min__rmsd>  (33) 
8.171361952131475

>  <meeko>  (33) 
{"free_energy": -6.87, "intermolecular_energy": -8.36, "internal_energy": -2.98, "cluster_size": 27, "cluster_id": 5, "rank_in_cluster": 20}

>  <energy>  (33) 
-7.1

>  <cluster_rmsd>  (33) 
0.28

>  <cluster>  (33) 
5

$$$$

     RDKit          3D

 48 51  0  0  0  0  0  0  0  0999 V2000
  140.2910   79.8680  219.2040 O   0  0  0  0  0  0  0  0  0  0  0  0
  141.2640   79.2760  219.7100 C   0  0  0  0  0  0  0  0  0  0  0  0
  142.0780   79.9270  220.6680 N   0  0  0  0  0  0  0  0  0  0  0  0
  141.8580   81.2820  221.1250 C   0  0  0  0  0  0  0  0  0  0  0  0
  141.3920   81.2760  222.5280 C   0  0  0  0  0  0  0  0  0  0  0  0
  142.1460   81.4730  223.5190 O   0  0  0  0  0  0  0  0  0  0  0  0
  140.0200   81.0380  222.8140 N   0  0  0  0  0  0  0  0  0  0  0  0
  138.9450   81.7960  222.2430 C   0  0  0  0  0  0  0  0  0  0  0  0
  137.6600   81.1680  222.7060 C   0  0  0  0  0  0  0  0  0  0  0  0
  138.0590   80.4140  223.9490 C   0  0  0  0  0  0  0  0  0  0  0  0
  139.4780   80.0390  223.6900 C   0  0  1  0  0  0  0  0  0  0  0  0
  139.6510   78.6740  223.1270 C   0  0  0  0  0  0  0  0  0  0  0  0
  140.8910   78.0590  223.0220 C   0  0  0  0  0  0  0  0  0  0  0  0
  141.0780   76.8090  222.5070 C   0  0  0  0  0  0  0  0  0  0  0  0
  139.9950   76.0960  222.0600 C   0  0  0  0  0  0  0  0  0  0  0  0
  140.2810   74.4980  221.4090 Cl  0  0  0  0  0  0  0  0  0  0  0  0
  138.7380   76.6530  222.1380 C   0  0  0  0  0  0  0  0  0  0  0  0
  138.5730   77.9210  222.6630 C   0  0  0  0  0  0  0  0  0  0  0  0
  141.5840   77.8880  219.3180 C   0  0  0  0  0  0  0  0  0  0  0  0
  140.7690   77.2430  218.4060 C   0  0  0  0  0  0  0  0  0  0  0  0
  141.1090   75.9430  218.0710 C   0  0  0  0  0  0  0  0  0  0  0  0
  142.2010   75.2960  218.6010 C   0  0  0  0  0  0  0  0  0  0  0  0
  142.5330   73.9850  218.2540 C   0  0  0  0  0  0  0  0  0  0  0  0
  143.6530   73.4270  218.8470 C   0  0  0  0  0  0  0  0  0  0  0  0
  144.4280   74.1450  219.7620 C   0  0  0  0  0  0  0  0  0  0  0  0
  145.8300   73.3670  220.4680 Cl  0  0  0  0  0  0  0  0  0  0  0  0
  144.0950   75.4400  220.1010 C   0  0  0  0  0  0  0  0  0  0  0  0
  142.9780   76.0040  219.5130 C   0  0  0  0  0  0  0  0  0  0  0  0
  142.6580   77.2680  219.8470 N   0  0  0  0  0  0  0  0  0  0  0  0
  142.8920   79.3720  221.0630 H   0  0  0  0  0  0  0  0  0  0  0  0
  142.7998   81.8463  221.0569 H   0  0  0  0  0  0  0  0  0  0  0  0
  141.0916   81.7549  220.4933 H   0  0  0  0  0  0  0  0  0  0  0  0
  138.9980   82.8404  222.5843 H   0  0  0  0  0  0  0  0  0  0  0  0
  139.0065   81.7927  221.1447 H   0  0  0  0  0  0  0  0  0  0  0  0
  136.9086   81.9372  222.9379 H   0  0  0  0  0  0  0  0  0  0  0  0
  137.2023   80.5210  221.9431 H   0  0  0  0  0  0  0  0  0  0  0  0
  137.9781   81.0542  224.8398 H   0  0  0  0  0  0  0  0  0  0  0  0
  137.4158   79.5438  224.1464 H   0  0  0  0  0  0  0  0  0  0  0  0
  140.0164   80.0042  224.6486 H   0  0  0  0  0  0  0  0  0  0  0  0
  141.7745   78.6114  223.3745 H   0  0  0  0  0  0  0  0  0  0  0  0
  142.0882   76.3773  222.4509 H   0  0  0  0  0  0  0  0  0  0  0  0
  137.8639   76.0880  221.7820 H   0  0  0  0  0  0  0  0  0  0  0  0
  137.5610   78.3488  222.7163 H   0  0  0  0  0  0  0  0  0  0  0  0
  139.8911   77.7395  217.9669 H   0  0  0  0  0  0  0  0  0  0  0  0
  140.4778   75.4040  217.3491 H   0  0  0  0  0  0  0  0  0  0  0  0
  141.9262   73.4154  217.5348 H   0  0  0  0  0  0  0  0  0  0  0  0
  143.9391   72.3958  218.5923 H   0  0  0  0  0  0  0  0  0  0  0  0
  144.7023   76.0091  220.8203 H   0  0  0  0  0  0  0  0  0  0  0  0
  1  2  2  0
  2  3  1  0
  3  4  1  0
  4  5  1  0
  5  6  2  0
  5  7  1  0
  7  8  1  0
  8  9  1  0
  9 10  1  0
 10 11  1  0
 11 12  1  0
 12 13  2  0
 13 14  1  0
 14 15  2  0
 15 16  1  0
 15 17  1  0
 17 18  2  0
  2 19  1  0
 19 20  2  0
 20 21  1  0
 21 22  2  0
 22 23  1  0
 23 24  2  0
 24 25  1  0
 25 26  1  0
 25 27  2  0
 27 28  1  0
 28 29  2  0
 11  7  1  0
 18 12  1  0
 29 19  1  0
 28 22  1  0
  3 30  1  0
  4 31  1  0
  4 32  1  0
  8 33  1  0
  8 34  1  0
  9 35  1  0
  9 36  1  0
 10 37  1  0
 10 38  1  0
 11 39  1  1
 13 40  1  0
 14 41  1  0
 17 42  1  0
 18 43  1  0
 20 44  1  0
 21 45  1  0
 23 46  1  0
 24 47  1  0
 27 48  1  0
M  END
>  <smiles>  (34) 
O=C(NCC(=O)N1CCC[C@H]1c1ccc(Cl)cc1)c1ccc2ccc(Cl)cc2n1

>  <score_type>  (34) 
oracle

>  <origin>  (34) 
autodockgpu

>  <m_score__min__energy>  (34) 
-8.9399999999999995

>  <m_primary>  (34) 
energy

>  <rmsd>  (34) 
8.49120472575597

>  <m_score__min__rmsd>  (34) 
8.49120472575597

>  <meeko>  (34) 
{"free_energy": -6.69, "intermolecular_energy": -8.18, "internal_energy": -3.24, "cluster_size": 27, "cluster_id": 5, "rank_in_cluster": 27}

>  <energy>  (34) 
-7.09

>  <cluster_rmsd>  (34) 
0.31

>  <cluster>  (34) 
5

$$$$

     RDKit          3D

 48 51  0  0  0  0  0  0  0  0999 V2000
  140.1310   78.4290  218.5060 O   0  0  0  0  0  0  0  0  0  0  0  0
  141.2410   78.1210  218.9810 C   0  0  0  0  0  0  0  0  0  0  0  0
  142.1970   79.1240  219.2730 N   0  0  0  0  0  0  0  0  0  0  0  0
  141.9760   80.5370  219.0540 C   0  0  0  0  0  0  0  0  0  0  0  0
  141.2110   81.1120  220.1800 C   0  0  0  0  0  0  0  0  0  0  0  0
  140.1800   81.8250  220.0370 O   0  0  0  0  0  0  0  0  0  0  0  0
  141.6310   80.8680  221.5160 N   0  0  0  0  0  0  0  0  0  0  0  0
  141.7170   81.8880  222.5220 C   0  0  0  0  0  0  0  0  0  0  0  0
  142.0900   81.2110  223.8110 C   0  0  0  0  0  0  0  0  0  0  0  0
  142.7250   79.9190  223.3670 C   0  0  0  0  0  0  0  0  0  0  0  0
  142.0330   79.6120  222.0830 C   0  0  1  0  0  0  0  0  0  0  0  0
  140.8760   78.6890  222.2240 C   0  0  0  0  0  0  0  0  0  0  0  0
  139.5650   79.1370  222.2980 C   0  0  0  0  0  0  0  0  0  0  0  0
  138.4860   78.3110  222.4290 C   0  0  0  0  0  0  0  0  0  0  0  0
  138.6790   76.9550  222.4940 C   0  0  0  0  0  0  0  0  0  0  0  0
  137.2690   75.9360  222.6610 Cl  0  0  0  0  0  0  0  0  0  0  0  0
  139.9580   76.4490  222.4270 C   0  0  0  0  0  0  0  0  0  0  0  0
  141.0360   77.3060  222.2940 C   0  0  0  0  0  0  0  0  0  0  0  0
  141.5780   76.7070  219.2460 C   0  0  0  0  0  0  0  0  0  0  0  0
  140.6290   75.7330  218.9950 C   0  0  0  0  0  0  0  0  0  0  0  0
  140.9910   74.4230  219.2600 C   0  0  0  0  0  0  0  0  0  0  0  0
  142.2270   74.0730  219.7490 C   0  0  0  0  0  0  0  0  0  0  0  0
  142.5800   72.7480  220.0120 C   0  0  0  0  0  0  0  0  0  0  0  0
  143.8510   72.5060  220.5040 C   0  0  0  0  0  0  0  0  0  0  0  0
  144.7550   73.5470  220.7320 C   0  0  0  0  0  0  0  0  0  0  0  0
  146.3450   73.1560  221.3570 Cl  0  0  0  0  0  0  0  0  0  0  0  0
  144.4020   74.8540  220.4710 C   0  0  0  0  0  0  0  0  0  0  0  0
  143.1340   75.1050  219.9800 C   0  0  0  0  0  0  0  0  0  0  0  0
  142.7940   76.3820  219.7260 N   0  0  0  0  0  0  0  0  0  0  0  0
  143.1250   78.8000  219.6760 H   0  0  0  0  0  0  0  0  0  0  0  0
  142.9463   81.0489  218.9744 H   0  0  0  0  0  0  0  0  0  0  0  0
  141.4041   80.6720  218.1241 H   0  0  0  0  0  0  0  0  0  0  0  0
  142.4862   82.6247  222.2469 H   0  0  0  0  0  0  0  0  0  0  0  0
  140.7587   82.4186  222.6228 H   0  0  0  0  0  0  0  0  0  0  0  0
  142.8037   81.8224  224.3826 H   0  0  0  0  0  0  0  0  0  0  0  0
  141.2270   81.0550  224.4751 H   0  0  0  0  0  0  0  0  0  0  0  0
  143.8062   80.0464  223.2098 H   0  0  0  0  0  0  0  0  0  0  0  0
  142.6232   79.1148  224.1106 H   0  0  0  0  0  0  0  0  0  0  0  0
  142.7297   79.0723  221.4247 H   0  0  0  0  0  0  0  0  0  0  0  0
  139.3845   80.2209  222.2482 H   0  0  0  0  0  0  0  0  0  0  0  0
  137.4702   78.7298  222.4820 H   0  0  0  0  0  0  0  0  0  0  0  0
  140.1227   75.3627  222.4793 H   0  0  0  0  0  0  0  0  0  0  0  0
  142.0501   76.8832  222.2419 H   0  0  0  0  0  0  0  0  0  0  0  0
  139.6331   75.9870  218.6031 H   0  0  0  0  0  0  0  0  0  0  0  0
  140.2563   73.6265  219.0706 H   0  0  0  0  0  0  0  0  0  0  0  0
  141.8724   71.9247  219.8343 H   0  0  0  0  0  0  0  0  0  0  0  0
  144.1561   71.4715  220.7203 H   0  0  0  0  0  0  0  0  0  0  0  0
  145.1110   75.6760  220.6488 H   0  0  0  0  0  0  0  0  0  0  0  0
  1  2  2  0
  2  3  1  0
  3  4  1  0
  4  5  1  0
  5  6  2  0
  5  7  1  0
  7  8  1  0
  8  9  1  0
  9 10  1  0
 10 11  1  0
 11 12  1  0
 12 13  2  0
 13 14  1  0
 14 15  2  0
 15 16  1  0
 15 17  1  0
 17 18  2  0
  2 19  1  0
 19 20  2  0
 20 21  1  0
 21 22  2  0
 22 23  1  0
 23 24  2  0
 24 25  1  0
 25 26  1  0
 25 27  2  0
 27 28  1  0
 28 29  2  0
 11  7  1  0
 18 12  1  0
 29 19  1  0
 28 22  1  0
  3 30  1  0
  4 31  1  0
  4 32  1  0
  8 33  1  0
  8 34  1  0
  9 35  1  0
  9 36  1  0
 10 37  1  0
 10 38  1  0
 11 39  1  6
 13 40  1  0
 14 41  1  0
 17 42  1  0
 18 43  1  0
 20 44  1  0
 21 45  1  0
 23 46  1  0
 24 47  1  0
 27 48  1  0
M  END
>  <smiles>  (35) 
O=C(NCC(=O)N1CCC[C@H]1c1ccc(Cl)cc1)c1ccc2ccc(Cl)cc2n1

>  <score_type>  (35) 
oracle

>  <origin>  (35) 
autodockgpu

>  <m_score__min__energy>  (35) 
-8.9399999999999995

>  <m_primary>  (35) 
energy

>  <rmsd>  (35) 
7.711544651913132

>  <m_score__min__rmsd>  (35) 
7.711544651913132

>  <meeko>  (35) 
{"free_energy": -7.23, "intermolecular_energy": -8.72, "internal_energy": -2.84, "cluster_size": 27, "cluster_id": 5, "rank_in_cluster": 3}

>  <energy>  (35) 
-6.98

>  <cluster_rmsd>  (35) 
1.73

>  <cluster>  (35) 
5

$$$$

     RDKit          3D

 48 51  0  0  0  0  0  0  0  0999 V2000
  141.2030   73.2610  221.1050 O   0  0  0  0  0  0  0  0  0  0  0  0
  140.2900   73.3290  221.9500 C   0  0  0  0  0  0  0  0  0  0  0  0
  139.6090   74.5510  222.1680 N   0  0  0  0  0  0  0  0  0  0  0  0
  139.9020   75.7760  221.4560 C   0  0  0  0  0  0  0  0  0  0  0  0
  139.6610   76.9430  222.3320 C   0  0  0  0  0  0  0  0  0  0  0  0
  138.6460   77.0700  223.0690 O   0  0  0  0  0  0  0  0  0  0  0  0
  140.6080   78.0030  222.3700 N   0  0  0  0  0  0  0  0  0  0  0  0
  141.4560   78.2720  223.4950 C   0  0  0  0  0  0  0  0  0  0  0  0
  142.3780   79.3910  223.1010 C   0  0  0  0  0  0  0  0  0  0  0  0
  141.6560   80.0670  221.9640 C   0  0  0  0  0  0  0  0  0  0  0  0
  140.8800   78.9600  221.3360 C   0  0  1  0  0  0  0  0  0  0  0  0
  141.5600   78.3250  220.1770 C   0  0  0  0  0  0  0  0  0  0  0  0
  142.3210   77.1700  220.2950 C   0  0  0  0  0  0  0  0  0  0  0  0
  142.9570   76.5680  219.2490 C   0  0  0  0  0  0  0  0  0  0  0  0
  142.8570   77.1150  217.9950 C   0  0  0  0  0  0  0  0  0  0  0  0
  143.6870   76.3100  216.6840 Cl  0  0  0  0  0  0  0  0  0  0  0  0
  142.1160   78.2610  217.8130 C   0  0  0  0  0  0  0  0  0  0  0  0
  141.4800   78.8540  218.8890 C   0  0  0  0  0  0  0  0  0  0  0  0
  139.9040   72.1400  222.7370 C   0  0  0  0  0  0  0  0  0  0  0  0
  139.0180   71.2320  222.1890 C   0  0  0  0  0  0  0  0  0  0  0  0
  138.6860   70.1330  222.9640 C   0  0  0  0  0  0  0  0  0  0  0  0
  139.1980   69.9260  224.2230 C   0  0  0  0  0  0  0  0  0  0  0  0
  138.8550   68.8140  224.9950 C   0  0  0  0  0  0  0  0  0  0  0  0
  139.4270   68.7020  226.2510 C   0  0  0  0  0  0  0  0  0  0  0  0
  140.3170   69.6640  226.7360 C   0  0  0  0  0  0  0  0  0  0  0  0
  140.9980   69.4490  228.3360 Cl  0  0  0  0  0  0  0  0  0  0  0  0
  140.6520   70.7600  225.9690 C   0  0  0  0  0  0  0  0  0  0  0  0
  140.0850   70.8810  224.7140 C   0  0  0  0  0  0  0  0  0  0  0  0
  140.4150   71.9520  223.9700 N   0  0  0  0  0  0  0  0  0  0  0  0
  138.8400   74.5480  222.9000 H   0  0  0  0  0  0  0  0  0  0  0  0
  140.9555   75.7699  221.1397 H   0  0  0  0  0  0  0  0  0  0  0  0
  139.2471   75.8458  220.5749 H   0  0  0  0  0  0  0  0  0  0  0  0
  140.8483   78.5721  224.3614 H   0  0  0  0  0  0  0  0  0  0  0  0
  142.0285   77.3754  223.7748 H   0  0  0  0  0  0  0  0  0  0  0  0
  142.5293   80.0877  223.9387 H   0  0  0  0  0  0  0  0  0  0  0  0
  143.3805   79.0372  222.8184 H   0  0  0  0  0  0  0  0  0  0  0  0
  140.9851   80.8547  222.3375 H   0  0  0  0  0  0  0  0  0  0  0  0
  142.3384   80.5648  221.2593 H   0  0  0  0  0  0  0  0  0  0  0  0
  139.9535   79.3731  220.9106 H   0  0  0  0  0  0  0  0  0  0  0  0
  142.4169   76.7131  221.2910 H   0  0  0  0  0  0  0  0  0  0  0  0
  143.5447   75.6522  219.4097 H   0  0  0  0  0  0  0  0  0  0  0  0
  142.0295   78.7057  216.8106 H   0  0  0  0  0  0  0  0  0  0  0  0
  140.8938   79.7700  218.7238 H   0  0  0  0  0  0  0  0  0  0  0  0
  138.5958   71.3754  221.1834 H   0  0  0  0  0  0  0  0  0  0  0  0
  137.9821   69.3937  222.5543 H   0  0  0  0  0  0  0  0  0  0  0  0
  138.1549   68.0537  224.6185 H   0  0  0  0  0  0  0  0  0  0  0  0
  139.1752   67.8363  226.8812 H   0  0  0  0  0  0  0  0  0  0  0  0
  141.3529   71.5191  226.3464 H   0  0  0  0  0  0  0  0  0  0  0  0
  1  2  2  0
  2  3  1  0
  3  4  1  0
  4  5  1  0
  5  6  2  0
  5  7  1  0
  7  8  1  0
  8  9  1  0
  9 10  1  0
 10 11  1  0
 11 12  1  0
 12 13  2  0
 13 14  1  0
 14 15  2  0
 15 16  1  0
 15 17  1  0
 17 18  2  0
  2 19  1  0
 19 20  2  0
 20 21  1  0
 21 22  2  0
 22 23  1  0
 23 24  2  0
 24 25  1  0
 25 26  1  0
 25 27  2  0
 27 28  1  0
 28 29  2  0
 11  7  1  0
 18 12  1  0
 29 19  1  0
 28 22  1  0
  3 30  1  0
  4 31  1  0
  4 32  1  0
  8 33  1  0
  8 34  1  0
  9 35  1  0
  9 36  1  0
 10 37  1  0
 10 38  1  0
 11 39  1  6
 13 40  1  0
 14 41  1  0
 17 42  1  0
 18 43  1  0
 20 44  1  0
 21 45  1  0
 23 46  1  0
 24 47  1  0
 27 48  1  0
M  END
>  <smiles>  (36) 
O=C(NCC(=O)N1CCC[C@H]1c1ccc(Cl)cc1)c1ccc2ccc(Cl)cc2n1

>  <score_type>  (36) 
oracle

>  <origin>  (36) 
autodockgpu

>  <m_score__min__energy>  (36) 
-8.9399999999999995

>  <m_primary>  (36) 
energy

>  <rmsd>  (36) 
3.7473519958890837

>  <m_score__min__rmsd>  (36) 
3.7473519958890837

>  <meeko>  (36) 
{"free_energy": -8.49, "intermolecular_energy": -9.99, "internal_energy": -1.45, "cluster_size": 4, "cluster_id": 2, "rank_in_cluster": 1}

>  <energy>  (36) 
-6.9

>  <cluster_rmsd>  (36) 
1.82

>  <cluster>  (36) 
5

$$$$

     RDKit          3D

 48 51  0  0  0  0  0  0  0  0999 V2000
  141.5860   72.8560  221.2930 O   0  0  0  0  0  0  0  0  0  0  0  0
  140.5720   72.9560  222.0100 C   0  0  0  0  0  0  0  0  0  0  0  0
  139.8740   74.1850  222.0920 N   0  0  0  0  0  0  0  0  0  0  0  0
  140.2620   75.3820  221.3790 C   0  0  0  0  0  0  0  0  0  0  0  0
  139.8620   76.5820  222.1440 C   0  0  0  0  0  0  0  0  0  0  0  0
  138.8420   76.6360  222.8830 O   0  0  0  0  0  0  0  0  0  0  0  0
  140.6490   77.7640  222.0650 N   0  0  0  0  0  0  0  0  0  0  0  0
  141.4400   78.2670  223.1510 C   0  0  0  0  0  0  0  0  0  0  0  0
  142.1990   79.4570  222.6360 C   0  0  0  0  0  0  0  0  0  0  0  0
  141.4000   79.9010  221.4370 C   0  0  0  0  0  0  0  0  0  0  0  0
  140.7940   78.6360  220.9340 C   0  0  1  0  0  0  0  0  0  0  0  0
  141.5690   77.9840  219.8450 C   0  0  0  0  0  0  0  0  0  0  0  0
  142.5380   77.0210  220.0880 C   0  0  0  0  0  0  0  0  0  0  0  0
  143.2640   76.4090  219.1070 C   0  0  0  0  0  0  0  0  0  0  0  0
  143.0450   76.7470  217.7970 C   0  0  0  0  0  0  0  0  0  0  0  0
  143.9970   75.9370  216.5740 Cl  0  0  0  0  0  0  0  0  0  0  0  0
  142.0960   77.6970  217.4910 C   0  0  0  0  0  0  0  0  0  0  0  0
  141.3720   78.3030  218.5020 C   0  0  0  0  0  0  0  0  0  0  0  0
  140.0830   71.7970  222.7860 C   0  0  0  0  0  0  0  0  0  0  0  0
  139.0950   70.9960  222.2430 C   0  0  0  0  0  0  0  0  0  0  0  0
  138.6690   69.9230  223.0070 C   0  0  0  0  0  0  0  0  0  0  0  0
  139.1850   69.6390  224.2500 C   0  0  0  0  0  0  0  0  0  0  0  0
  138.7470   68.5530  225.0110 C   0  0  0  0  0  0  0  0  0  0  0  0
  139.3320   68.3580  226.2500 C   0  0  0  0  0  0  0  0  0  0  0  0
  140.3270   69.2140  226.7300 C   0  0  0  0  0  0  0  0  0  0  0  0
  141.0170   68.8980  228.3090 Cl  0  0  0  0  0  0  0  0  0  0  0  0
  140.7570   70.2850  225.9750 C   0  0  0  0  0  0  0  0  0  0  0  0
  140.1770   70.4870  224.7360 C   0  0  0  0  0  0  0  0  0  0  0  0
  140.5990   71.5340  224.0020 N   0  0  0  0  0  0  0  0  0  0  0  0
  139.0180   74.2100  222.7200 H   0  0  0  0  0  0  0  0  0  0  0  0
  141.3533   75.3856  221.2412 H   0  0  0  0  0  0  0  0  0  0  0  0
  139.7607   75.3959  220.4000 H   0  0  0  0  0  0  0  0  0  0  0  0
  140.7878   78.5680  223.9841 H   0  0  0  0  0  0  0  0  0  0  0  0
  142.1303   77.4946  223.5209 H   0  0  0  0  0  0  0  0  0  0  0  0
  142.2424   80.2525  223.3945 H   0  0  0  0  0  0  0  0  0  0  0  0
  143.2440   79.2202  222.3872 H   0  0  0  0  0  0  0  0  0  0  0  0
  140.6213   80.6212  221.7284 H   0  0  0  0  0  0  0  0  0  0  0  0
  142.0124   80.4129  220.6801 H   0  0  0  0  0  0  0  0  0  0  0  0
  139.8228   78.8674  220.4722 H   0  0  0  0  0  0  0  0  0  0  0  0
  142.7326   76.7339  221.1319 H   0  0  0  0  0  0  0  0  0  0  0  0
  144.0182   75.6512  219.3658 H   0  0  0  0  0  0  0  0  0  0  0  0
  141.9137   77.9740  216.4422 H   0  0  0  0  0  0  0  0  0  0  0  0
  140.6181   79.0594  218.2385 H   0  0  0  0  0  0  0  0  0  0  0  0
  138.6677   71.2018  221.2505 H   0  0  0  0  0  0  0  0  0  0  0  0
  137.8831   69.2685  222.6021 H   0  0  0  0  0  0  0  0  0  0  0  0
  137.9641   67.8760  224.6385 H   0  0  0  0  0  0  0  0  0  0  0  0
  139.0065   67.5103  226.8709 H   0  0  0  0  0  0  0  0  0  0  0  0
  141.5406   70.9607  226.3485 H   0  0  0  0  0  0  0  0  0  0  0  0
  1  2  2  0
  2  3  1  0
  3  4  1  0
  4  5  1  0
  5  6  2  0
  5  7  1  0
  7  8  1  0
  8  9  1  0
  9 10  1  0
 10 11  1  0
 11 12  1  0
 12 13  2  0
 13 14  1  0
 14 15  2  0
 15 16  1  0
 15 17  1  0
 17 18  2  0
  2 19  1  0
 19 20  2  0
 20 21  1  0
 21 22  2  0
 22 23  1  0
 23 24  2  0
 24 25  1  0
 25 26  1  0
 25 27  2  0
 27 28  1  0
 28 29  2  0
 11  7  1  0
 18 12  1  0
 29 19  1  0
 28 22  1  0
  3 30  1  0
  4 31  1  0
  4 32  1  0
  8 33  1  0
  8 34  1  0
  9 35  1  0
  9 36  1  0
 10 37  1  0
 10 38  1  0
 11 39  1  6
 13 40  1  0
 14 41  1  0
 17 42  1  0
 18 43  1  0
 20 44  1  0
 21 45  1  0
 23 46  1  0
 24 47  1  0
 27 48  1  0
M  END
>  <smiles>  (37) 
O=C(NCC(=O)N1CCC[C@H]1c1ccc(Cl)cc1)c1ccc2ccc(Cl)cc2n1

>  <score_type>  (37) 
oracle

>  <origin>  (37) 
autodockgpu

>  <m_score__min__energy>  (37) 
-8.9399999999999995

>  <m_primary>  (37) 
energy

>  <rmsd>  (37) 
3.546187670391932

>  <m_score__min__rmsd>  (37) 
3.546187670391932

>  <meeko>  (37) 
{"free_energy": -8.37, "intermolecular_energy": -9.86, "internal_energy": -1.52, "cluster_size": 4, "cluster_id": 2, "rank_in_cluster": 4}

>  <energy>  (37) 
-6.9

>  <cluster_rmsd>  (37) 
1.78

>  <cluster>  (37) 
5

$$$$

     RDKit          3D

 48 51  0  0  0  0  0  0  0  0999 V2000
  140.7900   79.0720  218.3560 O   0  0  0  0  0  0  0  0  0  0  0  0
  141.6120   78.5780  219.1520 C   0  0  0  0  0  0  0  0  0  0  0  0
  142.1090   79.3460  220.2330 N   0  0  0  0  0  0  0  0  0  0  0  0
  141.7200   80.7140  220.4970 C   0  0  0  0  0  0  0  0  0  0  0  0
  141.6030   80.9380  221.9530 C   0  0  0  0  0  0  0  0  0  0  0  0
  142.5680   81.2780  222.6910 O   0  0  0  0  0  0  0  0  0  0  0  0
  140.3450   80.7700  222.5940 N   0  0  0  0  0  0  0  0  0  0  0  0
  139.1980   81.5870  222.3220 C   0  0  0  0  0  0  0  0  0  0  0  0
  138.0510   81.0230  223.1140 C   0  0  0  0  0  0  0  0  0  0  0  0
  138.7240   80.2400  224.2120 C   0  0  0  0  0  0  0  0  0  0  0  0
  140.0030   79.7930  223.5890 C   0  0  1  0  0  0  0  0  0  0  0  0
  139.9490   78.4260  223.0090 C   0  0  0  0  0  0  0  0  0  0  0  0
  141.0880   77.6710  222.7630 C   0  0  0  0  0  0  0  0  0  0  0  0
  141.0670   76.4150  222.2300 C   0  0  0  0  0  0  0  0  0  0  0  0
  139.8640   75.8400  221.9080 C   0  0  0  0  0  0  0  0  0  0  0  0
  139.8840   74.2290  221.2280 Cl  0  0  0  0  0  0  0  0  0  0  0  0
  138.6980   76.5400  222.1280 C   0  0  0  0  0  0  0  0  0  0  0  0
  138.7450   77.8110  222.6700 C   0  0  0  0  0  0  0  0  0  0  0  0
  142.0810   77.1880  218.9810 C   0  0  0  0  0  0  0  0  0  0  0  0
  141.4840   76.3920  218.0220 C   0  0  0  0  0  0  0  0  0  0  0  0
  141.9570   75.0960  217.8990 C   0  0  0  0  0  0  0  0  0  0  0  0
  142.9730   74.5950  218.6780 C   0  0  0  0  0  0  0  0  0  0  0  0
  143.4410   73.2870  218.5450 C   0  0  0  0  0  0  0  0  0  0  0  0
  144.4680   72.8830  219.3810 C   0  0  0  0  0  0  0  0  0  0  0  0
  145.0220   73.7490  220.3280 C   0  0  0  0  0  0  0  0  0  0  0  0
  146.3190   73.1600  221.3480 Cl  0  0  0  0  0  0  0  0  0  0  0  0
  144.5550   75.0400  220.4560 C   0  0  0  0  0  0  0  0  0  0  0  0
  143.5300   75.4520  219.6250 C   0  0  0  0  0  0  0  0  0  0  0  0
  143.0780   76.7130  219.7530 N   0  0  0  0  0  0  0  0  0  0  0  0
  142.8070   78.8720  220.8780 H   0  0  0  0  0  0  0  0  0  0  0  0
  142.4797   81.3941  220.0844 H   0  0  0  0  0  0  0  0  0  0  0  0
  140.7461   80.9085  220.0239 H   0  0  0  0  0  0  0  0  0  0  0  0
  139.3935   82.6250  222.6292 H   0  0  0  0  0  0  0  0  0  0  0  0
  138.9662   81.5882  221.2467 H   0  0  0  0  0  0  0  0  0  0  0  0
  137.4292   81.8287  223.5315 H   0  0  0  0  0  0  0  0  0  0  0  0
  137.3750   80.4059  222.5039 H   0  0  0  0  0  0  0  0  0  0  0  0
  138.9152   80.8768  225.0883 H   0  0  0  0  0  0  0  0  0  0  0  0
  138.1111   79.4032  224.5783 H   0  0  0  0  0  0  0  0  0  0  0  0
  140.7735   79.7222  224.3709 H   0  0  0  0  0  0  0  0  0  0  0  0
  142.0647   78.1112  223.0124 H   0  0  0  0  0  0  0  0  0  0  0  0
  142.0064   75.8685  222.0601 H   0  0  0  0  0  0  0  0  0  0  0  0
  137.7287   76.0872  221.8722 H   0  0  0  0  0  0  0  0  0  0  0  0
  137.8032   78.3536  222.8389 H   0  0  0  0  0  0  0  0  0  0  0  0
  140.6705   76.7703  217.3855 H   0  0  0  0  0  0  0  0  0  0  0  0
  141.4996   74.4387  217.1449 H   0  0  0  0  0  0  0  0  0  0  0  0
  143.0089   72.6008  217.8017 H   0  0  0  0  0  0  0  0  0  0  0  0
  144.8568   71.8573  219.2981 H   0  0  0  0  0  0  0  0  0  0  0  0
  144.9871   75.7248  221.2005 H   0  0  0  0  0  0  0  0  0  0  0  0
  1  2  2  0
  2  3  1  0
  3  4  1  0
  4  5  1  0
  5  6  2  0
  5  7  1  0
  7  8  1  0
  8  9  1  0
  9 10  1  0
 10 11  1  0
 11 12  1  0
 12 13  2  0
 13 14  1  0
 14 15  2  0
 15 16  1  0
 15 17  1  0
 17 18  2  0
  2 19  1  0
 19 20  2  0
 20 21  1  0
 21 22  2  0
 22 23  1  0
 23 24  2  0
 24 25  1  0
 25 26  1  0
 25 27  2  0
 27 28  1  0
 28 29  2  0
 11  7  1  0
 18 12  1  0
 29 19  1  0
 28 22  1  0
  3 30  1  0
  4 31  1  0
  4 32  1  0
  8 33  1  0
  8 34  1  0
  9 35  1  0
  9 36  1  0
 10 37  1  0
 10 38  1  0
 11 39  1  1
 13 40  1  0
 14 41  1  0
 17 42  1  0
 18 43  1  0
 20 44  1  0
 21 45  1  0
 23 46  1  0
 24 47  1  0
 27 48  1  0
M  END
>  <smiles>  (38) 
O=C(NCC(=O)N1CCC[C@H]1c1ccc(Cl)cc1)c1ccc2ccc(Cl)cc2n1

>  <score_type>  (38) 
oracle

>  <origin>  (38) 
autodockgpu

>  <m_score__min__energy>  (38) 
-8.9399999999999995

>  <m_primary>  (38) 
energy

>  <rmsd>  (38) 
8.200184502154645

>  <m_score__min__rmsd>  (38) 
8.200184502154645

>  <meeko>  (38) 
{"free_energy": -6.98, "intermolecular_energy": -8.47, "internal_energy": -2.95, "cluster_size": 27, "cluster_id": 5, "rank_in_cluster": 15}

>  <energy>  (38) 
-6.88

>  <cluster_rmsd>  (38) 
1.84

>  <cluster>  (38) 
5

$$$$

     RDKit          3D

 48 51  0  0  0  0  0  0  0  0999 V2000
  141.3610   74.1230  221.3340 O   0  0  0  0  0  0  0  0  0  0  0  0
  140.2890   74.3620  221.9220 C   0  0  0  0  0  0  0  0  0  0  0  0
  139.4060   73.3060  222.2560 N   0  0  0  0  0  0  0  0  0  0  0  0
  139.6640   71.9140  221.9570 C   0  0  0  0  0  0  0  0  0  0  0  0
  138.6060   71.0640  222.5440 C   0  0  0  0  0  0  0  0  0  0  0  0
  137.6140   71.5150  223.1780 O   0  0  0  0  0  0  0  0  0  0  0  0
  138.6790   69.6510  222.4050 N   0  0  0  0  0  0  0  0  0  0  0  0
  139.3310   68.9920  221.3100 C   0  0  0  0  0  0  0  0  0  0  0  0
  139.2840   67.5150  221.5870 C   0  0  0  0  0  0  0  0  0  0  0  0
  138.1390   67.3680  222.5560 C   0  0  0  0  0  0  0  0  0  0  0  0
  138.1390   68.6630  223.2950 C   0  0  1  0  0  0  0  0  0  0  0  0
  138.8850   68.6270  224.5800 C   0  0  0  0  0  0  0  0  0  0  0  0
  139.0150   69.7380  225.4020 C   0  0  0  0  0  0  0  0  0  0  0  0
  139.6950   69.7330  226.5850 C   0  0  0  0  0  0  0  0  0  0  0  0
  140.2950   68.5760  227.0120 C   0  0  0  0  0  0  0  0  0  0  0  0
  141.1550   68.6160  228.5340 Cl  0  0  0  0  0  0  0  0  0  0  0  0
  140.2020   67.4400  226.2400 C   0  0  0  0  0  0  0  0  0  0  0  0
  139.5070   67.4690  225.0450 C   0  0  0  0  0  0  0  0  0  0  0  0
  139.9200   75.7480  222.2770 C   0  0  0  0  0  0  0  0  0  0  0  0
  138.5840   76.1000  222.3070 C   0  0  0  0  0  0  0  0  0  0  0  0
  138.2880   77.4100  222.6450 C   0  0  0  0  0  0  0  0  0  0  0  0
  139.2550   78.3410  222.9440 C   0  0  0  0  0  0  0  0  0  0  0  0
  138.9430   79.6590  223.2840 C   0  0  0  0  0  0  0  0  0  0  0  0
  139.9930   80.5150  223.5670 C   0  0  0  0  0  0  0  0  0  0  0  0
  141.3220   80.0830  223.5150 C   0  0  0  0  0  0  0  0  0  0  0  0
  142.5930   81.2300  223.8870 Cl  0  0  0  0  0  0  0  0  0  0  0  0
  141.6240   78.7810  223.1790 C   0  0  0  0  0  0  0  0  0  0  0  0
  140.5810   77.9180  222.8950 C   0  0  0  0  0  0  0  0  0  0  0  0
  140.8810   76.6480  222.5670 N   0  0  0  0  0  0  0  0  0  0  0  0
  138.5070   73.5720  222.7560 H   0  0  0  0  0  0  0  0  0  0  0  0
  139.6805   71.7731  220.8662 H   0  0  0  0  0  0  0  0  0  0  0  0
  140.6355   71.6275  222.3860 H   0  0  0  0  0  0  0  0  0  0  0  0
  138.8063   69.2157  220.3694 H   0  0  0  0  0  0  0  0  0  0  0  0
  140.3706   69.3372  221.2102 H   0  0  0  0  0  0  0  0  0  0  0  0
  139.0913   66.9489  220.6637 H   0  0  0  0  0  0  0  0  0  0  0  0
  140.2324   67.1264  221.9865 H   0  0  0  0  0  0  0  0  0  0  0  0
  137.1887   67.2202  222.0220 H   0  0  0  0  0  0  0  0  0  0  0  0
  138.2481   66.4969  223.2187 H   0  0  0  0  0  0  0  0  0  0  0  0
  137.1069   68.9032  223.5902 H   0  0  0  0  0  0  0  0  0  0  0  0
  138.5420   70.6777  225.0808 H   0  0  0  0  0  0  0  0  0  0  0  0
  139.7614   70.6488  227.1908 H   0  0  0  0  0  0  0  0  0  0  0  0
  140.6812   66.5080  226.5743 H   0  0  0  0  0  0  0  0  0  0  0  0
  139.4429   66.5506  224.4429 H   0  0  0  0  0  0  0  0  0  0  0  0
  137.7921   75.3732  222.0732 H   0  0  0  0  0  0  0  0  0  0  0  0
  137.2329   77.7195  222.6757 H   0  0  0  0  0  0  0  0  0  0  0  0
  137.8995   80.0046  223.3254 H   0  0  0  0  0  0  0  0  0  0  0  0
  139.7773   81.5588  223.8390 H   0  0  0  0  0  0  0  0  0  0  0  0
  142.6679   78.4368  223.1377 H   0  0  0  0  0  0  0  0  0  0  0  0
  1  2  2  0
  2  3  1  0
  3  4  1  0
  4  5  1  0
  5  6  2  0
  5  7  1  0
  7  8  1  0
  8  9  1  0
  9 10  1  0
 10 11  1  0
 11 12  1  0
 12 13  2  0
 13 14  1  0
 14 15  2  0
 15 16  1  0
 15 17  1  0
 17 18  2  0
  2 19  1  0
 19 20  2  0
 20 21  1  0
 21 22  2  0
 22 23  1  0
 23 24  2  0
 24 25  1  0
 25 26  1  0
 25 27  2  0
 27 28  1  0
 28 29  2  0
 11  7  1  0
 18 12  1  0
 29 19  1  0
 28 22  1  0
  3 30  1  0
  4 31  1  0
  4 32  1  0
  8 33  1  0
  8 34  1  0
  9 35  1  0
  9 36  1  0
 10 37  1  0
 10 38  1  0
 11 39  1  1
 13 40  1  0
 14 41  1  0
 17 42  1  0
 18 43  1  0
 20 44  1  0
 21 45  1  0
 23 46  1  0
 24 47  1  0
 27 48  1  0
M  END
>  <smiles>  (39) 
O=C(NCC(=O)N1CCC[C@H]1c1ccc(Cl)cc1)c1ccc2ccc(Cl)cc2n1

>  <score_type>  (39) 
oracle

>  <origin>  (39) 
autodockgpu

>  <m_score__min__energy>  (39) 
-8.9399999999999995

>  <m_primary>  (39) 
energy

>  <rmsd>  (39) 
8.099391480917902

>  <m_score__min__rmsd>  (39) 
8.099391480917902

>  <meeko>  (39) 
{"free_energy": -8.44, "intermolecular_energy": -9.94, "internal_energy": -1.65, "cluster_size": 8, "cluster_id": 1, "rank_in_cluster": 4}

>  <energy>  (39) 
-6.88

>  <cluster_rmsd>  (39) 
1.79

>  <cluster>  (39) 
5

$$$$

     RDKit          3D

 48 51  0  0  0  0  0  0  0  0999 V2000
  140.1670   78.4220  218.5530 O   0  0  0  0  0  0  0  0  0  0  0  0
  141.2830   78.0900  218.9960 C   0  0  0  0  0  0  0  0  0  0  0  0
  142.2680   79.0720  219.2610 N   0  0  0  0  0  0  0  0  0  0  0  0
  142.0700   80.4900  219.0510 C   0  0  0  0  0  0  0  0  0  0  0  0
  141.2000   81.0450  220.1090 C   0  0  0  0  0  0  0  0  0  0  0  0
  140.1260   81.6650  219.8810 O   0  0  0  0  0  0  0  0  0  0  0  0
  141.5630   80.8890  221.4740 N   0  0  0  0  0  0  0  0  0  0  0  0
  141.5630   81.9630  222.4250 C   0  0  0  0  0  0  0  0  0  0  0  0
  141.8970   81.3710  223.7660 C   0  0  0  0  0  0  0  0  0  0  0  0
  142.5980   80.0820  223.4250 C   0  0  0  0  0  0  0  0  0  0  0  0
  141.9800   79.6810  222.1290 C   0  0  1  0  0  0  0  0  0  0  0  0
  140.8520   78.7230  222.2660 C   0  0  0  0  0  0  0  0  0  0  0  0
  139.5280   79.1320  222.3480 C   0  0  0  0  0  0  0  0  0  0  0  0
  138.4740   78.2750  222.4760 C   0  0  0  0  0  0  0  0  0  0  0  0
  138.7070   76.9250  222.5300 C   0  0  0  0  0  0  0  0  0  0  0  0
  137.3270   75.8630  222.6930 Cl  0  0  0  0  0  0  0  0  0  0  0  0
  140.0000   76.4560  222.4530 C   0  0  0  0  0  0  0  0  0  0  0  0
  141.0520   77.3450  222.3240 C   0  0  0  0  0  0  0  0  0  0  0  0
  141.5980   76.6680  219.2500 C   0  0  0  0  0  0  0  0  0  0  0  0
  140.6320   75.7120  218.9960 C   0  0  0  0  0  0  0  0  0  0  0  0
  140.9740   74.3940  219.2500 C   0  0  0  0  0  0  0  0  0  0  0  0
  142.2070   74.0210  219.7310 C   0  0  0  0  0  0  0  0  0  0  0  0
  142.5380   72.6890  219.9820 C   0  0  0  0  0  0  0  0  0  0  0  0
  143.8080   72.4220  220.4660 C   0  0  0  0  0  0  0  0  0  0  0  0
  144.7300   73.4460  220.6980 C   0  0  0  0  0  0  0  0  0  0  0  0
  146.3160   73.0260  221.3110 Cl  0  0  0  0  0  0  0  0  0  0  0  0
  144.3980   74.7610  220.4470 C   0  0  0  0  0  0  0  0  0  0  0  0
  143.1320   75.0360  219.9640 C   0  0  0  0  0  0  0  0  0  0  0  0
  142.8120   76.3200  219.7210 N   0  0  0  0  0  0  0  0  0  0  0  0
  143.2000   78.7280  219.6370 H   0  0  0  0  0  0  0  0  0  0  0  0
  143.0439   81.0007  219.0761 H   0  0  0  0  0  0  0  0  0  0  0  0
  141.5904   80.6450  218.0733 H   0  0  0  0  0  0  0  0  0  0  0  0
  142.3176   82.7132  222.1460 H   0  0  0  0  0  0  0  0  0  0  0  0
  140.5822   82.4603  222.4516 H   0  0  0  0  0  0  0  0  0  0  0  0
  142.5601   82.0391  224.3351 H   0  0  0  0  0  0  0  0  0  0  0  0
  141.0089   81.2184  224.3968 H   0  0  0  0  0  0  0  0  0  0  0  0
  143.6805   80.2414  223.3116 H   0  0  0  0  0  0  0  0  0  0  0  0
  142.4889   79.3157  224.2065 H   0  0  0  0  0  0  0  0  0  0  0  0
  142.7264   79.1335  221.5347 H   0  0  0  0  0  0  0  0  0  0  0  0
  139.3161   80.2106  222.3074 H   0  0  0  0  0  0  0  0  0  0  0  0
  137.4467   78.6637  222.5353 H   0  0  0  0  0  0  0  0  0  0  0  0
  140.1960   75.3744  222.4941 H   0  0  0  0  0  0  0  0  0  0  0  0
  142.0778   76.9522  222.2654 H   0  0  0  0  0  0  0  0  0  0  0  0
  139.6387   75.9852  218.6104 H   0  0  0  0  0  0  0  0  0  0  0  0
  140.2258   73.6107  219.0584 H   0  0  0  0  0  0  0  0  0  0  0  0
  141.8156   71.8793  219.8018 H   0  0  0  0  0  0  0  0  0  0  0  0
  144.0971   71.3809  220.6723 H   0  0  0  0  0  0  0  0  0  0  0  0
  145.1216   75.5699  220.6264 H   0  0  0  0  0  0  0  0  0  0  0  0
  1  2  2  0
  2  3  1  0
  3  4  1  0
  4  5  1  0
  5  6  2  0
  5  7  1  0
  7  8  1  0
  8  9  1  0
  9 10  1  0
 10 11  1  0
 11 12  1  0
 12 13  2  0
 13 14  1  0
 14 15  2  0
 15 16  1  0
 15 17  1  0
 17 18  2  0
  2 19  1  0
 19 20  2  0
 20 21  1  0
 21 22  2  0
 22 23  1  0
 23 24  2  0
 24 25  1  0
 25 26  1  0
 25 27  2  0
 27 28  1  0
 28 29  2  0
 11  7  1  0
 18 12  1  0
 29 19  1  0
 28 22  1  0
  3 30  1  0
  4 31  1  0
  4 32  1  0
  8 33  1  0
  8 34  1  0
  9 35  1  0
  9 36  1  0
 10 37  1  0
 10 38  1  0
 11 39  1  6
 13 40  1  0
 14 41  1  0
 17 42  1  0
 18 43  1  0
 20 44  1  0
 21 45  1  0
 23 46  1  0
 24 47  1  0
 27 48  1  0
M  END
>  <smiles>  (40) 
O=C(NCC(=O)N1CCC[C@H]1c1ccc(Cl)cc1)c1ccc2ccc(Cl)cc2n1

>  <score_type>  (40) 
oracle

>  <origin>  (40) 
autodockgpu

>  <m_score__min__energy>  (40) 
-8.9399999999999995

>  <m_primary>  (40) 
energy

>  <rmsd>  (40) 
7.707502095521967

>  <m_score__min__rmsd>  (40) 
7.707502095521967

>  <meeko>  (40) 
{"free_energy": -7.14, "intermolecular_energy": -8.64, "internal_energy": -2.88, "cluster_size": 27, "cluster_id": 5, "rank_in_cluster": 11}

>  <energy>  (40) 
-6.87

>  <cluster_rmsd>  (40) 
1.71

>  <cluster>  (40) 
5

$$$$

     RDKit          3D

 48 51  0  0  0  0  0  0  0  0999 V2000
  140.8080   73.7220  222.1620 O   0  0  0  0  0  0  0  0  0  0  0  0
  139.7510   74.3130  221.8690 C   0  0  0  0  0  0  0  0  0  0  0  0
  138.7220   73.6340  221.1710 N   0  0  0  0  0  0  0  0  0  0  0  0
  138.8070   72.2520  220.7540 C   0  0  0  0  0  0  0  0  0  0  0  0
  137.8840   71.4210  221.5570 C   0  0  0  0  0  0  0  0  0  0  0  0
  136.7820   71.8340  222.0100 O   0  0  0  0  0  0  0  0  0  0  0  0
  138.2250   70.0740  221.8540 N   0  0  0  0  0  0  0  0  0  0  0  0
  138.9660   69.2250  220.9650 C   0  0  0  0  0  0  0  0  0  0  0  0
  139.2120   67.9300  221.6870 C   0  0  0  0  0  0  0  0  0  0  0  0
  138.1390   67.9000  222.7460 C   0  0  0  0  0  0  0  0  0  0  0  0
  137.9060   69.3410  223.0470 C   0  0  1  0  0  0  0  0  0  0  0  0
  138.6750   69.8480  224.2140 C   0  0  0  0  0  0  0  0  0  0  0  0
  139.4740   70.9810  224.1500 C   0  0  0  0  0  0  0  0  0  0  0  0
  140.1910   71.4670  225.2050 C   0  0  0  0  0  0  0  0  0  0  0  0
  140.1370   70.8170  226.4110 C   0  0  0  0  0  0  0  0  0  0  0  0
  141.0710   71.4750  227.7360 Cl  0  0  0  0  0  0  0  0  0  0  0  0
  139.3610   69.6860  226.5380 C   0  0  0  0  0  0  0  0  0  0  0  0
  138.6440   69.2130  225.4550 C   0  0  0  0  0  0  0  0  0  0  0  0
  139.5530   75.7290  222.2440 C   0  0  0  0  0  0  0  0  0  0  0  0
  138.2670   76.2330  222.3040 C   0  0  0  0  0  0  0  0  0  0  0  0
  138.1320   77.5650  222.6590 C   0  0  0  0  0  0  0  0  0  0  0  0
  139.2060   78.3740  222.9460 C   0  0  0  0  0  0  0  0  0  0  0  0
  139.0560   79.7150  223.3030 C   0  0  0  0  0  0  0  0  0  0  0  0
  140.2040   80.4420  223.5700 C   0  0  0  0  0  0  0  0  0  0  0  0
  141.4720   79.8590  223.4870 C   0  0  0  0  0  0  0  0  0  0  0  0
  142.8750   80.8470  223.8420 Cl  0  0  0  0  0  0  0  0  0  0  0  0
  141.6140   78.5340  223.1340 C   0  0  0  0  0  0  0  0  0  0  0  0
  140.4730   77.8010  222.8650 C   0  0  0  0  0  0  0  0  0  0  0  0
  140.6170   76.5080  222.5210 N   0  0  0  0  0  0  0  0  0  0  0  0
  137.8450   74.1900  220.9490 H   0  0  0  0  0  0  0  0  0  0  0  0
  138.5343   72.1753  219.6911 H   0  0  0  0  0  0  0  0  0  0  0  0
  139.8362   71.8936  220.9032 H   0  0  0  0  0  0  0  0  0  0  0  0
  138.3856   69.0411  220.0488 H   0  0  0  0  0  0  0  0  0  0  0  0
  139.9167   69.6974  220.6767 H   0  0  0  0  0  0  0  0  0  0  0  0
  139.1115   67.0745  221.0028 H   0  0  0  0  0  0  0  0  0  0  0  0
  140.2265   67.8628  222.1069 H   0  0  0  0  0  0  0  0  0  0  0  0
  137.2232   67.4251  222.3643 H   0  0  0  0  0  0  0  0  0  0  0  0
  138.4295   67.3187  223.6335 H   0  0  0  0  0  0  0  0  0  0  0  0
  136.8539   69.4766  223.3380 H   0  0  0  0  0  0  0  0  0  0  0  0
  139.5330   71.5192  223.1925 H   0  0  0  0  0  0  0  0  0  0  0  0
  140.8062   72.3714  225.0887 H   0  0  0  0  0  0  0  0  0  0  0  0
  139.3118   69.1587  227.5021 H   0  0  0  0  0  0  0  0  0  0  0  0
  138.0303   68.3081  225.5758 H   0  0  0  0  0  0  0  0  0  0  0  0
  137.3918   75.6054  222.0802 H   0  0  0  0  0  0  0  0  0  0  0  0
  137.1208   77.9946  222.7137 H   0  0  0  0  0  0  0  0  0  0  0  0
  138.0605   80.1782  223.3699 H   0  0  0  0  0  0  0  0  0  0  0  0
  140.1163   81.5012  223.8536 H   0  0  0  0  0  0  0  0  0  0  0  0
  142.6099   78.0716  223.0680 H   0  0  0  0  0  0  0  0  0  0  0  0
  1  2  2  0
  2  3  1  0
  3  4  1  0
  4  5  1  0
  5  6  2  0
  5  7  1  0
  7  8  1  0
  8  9  1  0
  9 10  1  0
 10 11  1  0
 11 12  1  0
 12 13  2  0
 13 14  1  0
 14 15  2  0
 15 16  1  0
 15 17  1  0
 17 18  2  0
  2 19  1  0
 19 20  2  0
 20 21  1  0
 21 22  2  0
 22 23  1  0
 23 24  2  0
 24 25  1  0
 25 26  1  0
 25 27  2  0
 27 28  1  0
 28 29  2  0
 11  7  1  0
 18 12  1  0
 29 19  1  0
 28 22  1  0
  3 30  1  0
  4 31  1  0
  4 32  1  0
  8 33  1  0
  8 34  1  0
  9 35  1  0
  9 36  1  0
 10 37  1  0
 10 38  1  0
 11 39  1  1
 13 40  1  0
 14 41  1  0
 17 42  1  0
 18 43  1  0
 20 44  1  0
 21 45  1  0
 23 46  1  0
 24 47  1  0
 27 48  1  0
M  END
>  <smiles>  (41) 
O=C(NCC(=O)N1CCC[C@H]1c1ccc(Cl)cc1)c1ccc2ccc(Cl)cc2n1

>  <score_type>  (41) 
oracle

>  <origin>  (41) 
autodockgpu

>  <m_score__min__energy>  (41) 
-8.9399999999999995

>  <m_primary>  (41) 
energy

>  <rmsd>  (41) 
7.928873465153147

>  <m_score__min__rmsd>  (41) 
7.928873465153147

>  <meeko>  (41) 
{"free_energy": -8.15, "intermolecular_energy": -9.64, "internal_energy": -1.5, "cluster_size": 8, "cluster_id": 1, "rank_in_cluster": 6}

>  <energy>  (41) 
-6.87

>  <cluster_rmsd>  (41) 
1.9

>  <cluster>  (41) 
5

$$$$

     RDKit          3D

 48 51  0  0  0  0  0  0  0  0999 V2000
  140.2810   79.2610  219.0310 O   0  0  0  0  0  0  0  0  0  0  0  0
  141.3130   78.8080  219.5630 C   0  0  0  0  0  0  0  0  0  0  0  0
  142.0680   79.6100  220.4540 N   0  0  0  0  0  0  0  0  0  0  0  0
  141.7200   80.9690  220.8090 C   0  0  0  0  0  0  0  0  0  0  0  0
  141.4310   81.0580  222.2560 C   0  0  0  0  0  0  0  0  0  0  0  0
  142.2990   81.3280  223.1300 O   0  0  0  0  0  0  0  0  0  0  0  0
  140.1080   80.8340  222.7260 N   0  0  0  0  0  0  0  0  0  0  0  0
  138.9720   81.6010  222.3050 C   0  0  0  0  0  0  0  0  0  0  0  0
  137.7570   80.9860  222.9400 C   0  0  0  0  0  0  0  0  0  0  0  0
  138.3130   80.2290  224.1190 C   0  0  0  0  0  0  0  0  0  0  0  0
  139.6810   79.8400  223.6700 C   0  0  1  0  0  0  0  0  0  0  0  0
  139.7620   78.4740  223.0920 C   0  0  0  0  0  0  0  0  0  0  0  0
  140.9670   77.8100  222.9060 C   0  0  0  0  0  0  0  0  0  0  0  0
  141.0710   76.5570  222.3760 C   0  0  0  0  0  0  0  0  0  0  0  0
  139.9340   75.8900  221.9950 C   0  0  0  0  0  0  0  0  0  0  0  0
  140.1140   74.2870  221.3210 Cl  0  0  0  0  0  0  0  0  0  0  0  0
  138.7080   76.4970  222.1530 C   0  0  0  0  0  0  0  0  0  0  0  0
  138.6280   77.7680  222.6930 C   0  0  0  0  0  0  0  0  0  0  0  0
  141.7660   77.4320  219.2750 C   0  0  0  0  0  0  0  0  0  0  0  0
  141.0920   76.6900  218.3220 C   0  0  0  0  0  0  0  0  0  0  0  0
  141.5530   75.4060  218.0860 C   0  0  0  0  0  0  0  0  0  0  0  0
  142.6270   74.8640  218.7520 C   0  0  0  0  0  0  0  0  0  0  0  0
  143.0820   73.5670  218.5050 C   0  0  0  0  0  0  0  0  0  0  0  0
  144.1720   73.1190  219.2310 C   0  0  0  0  0  0  0  0  0  0  0  0
  144.8000   73.9300  220.1800 C   0  0  0  0  0  0  0  0  0  0  0  0
  146.1740   73.2880  221.0570 Cl  0  0  0  0  0  0  0  0  0  0  0  0
  144.3470   75.2100  220.4200 C   0  0  0  0  0  0  0  0  0  0  0  0
  143.2590   75.6660  219.6990 C   0  0  0  0  0  0  0  0  0  0  0  0
  142.8200   76.9160  219.9370 N   0  0  0  0  0  0  0  0  0  0  0  0
  142.9370   79.1700  220.8770 H   0  0  0  0  0  0  0  0  0  0  0  0
  142.5601   81.6355  220.5641 H   0  0  0  0  0  0  0  0  0  0  0  0
  140.8257   81.2709  220.2441 H   0  0  0  0  0  0  0  0  0  0  0  0
  139.0804   82.6453  222.6332 H   0  0  0  0  0  0  0  0  0  0  0  0
  138.8832   81.5954  221.2086 H   0  0  0  0  0  0  0  0  0  0  0  0
  137.0516   81.7627  223.2702 H   0  0  0  0  0  0  0  0  0  0  0  0
  137.1943   80.3424  222.2477 H   0  0  0  0  0  0  0  0  0  0  0  0
  138.3598   80.8705  225.0114 H   0  0  0  0  0  0  0  0  0  0  0  0
  137.6941   79.3654  224.4038 H   0  0  0  0  0  0  0  0  0  0  0  0
  140.3452   79.8006  224.5459 H   0  0  0  0  0  0  0  0  0  0  0  0
  141.8926   78.3245  223.2035 H   0  0  0  0  0  0  0  0  0  0  0  0
  142.0576   76.0857  222.2552 H   0  0  0  0  0  0  0  0  0  0  0  0
  137.7912   75.9705  221.8494 H   0  0  0  0  0  0  0  0  0  0  0  0
  137.6395   78.2359  222.8112 H   0  0  0  0  0  0  0  0  0  0  0  0
  140.2296   77.1010  217.7768 H   0  0  0  0  0  0  0  0  0  0  0  0
  141.0374   74.7924  217.3325 H   0  0  0  0  0  0  0  0  0  0  0  0
  142.5913   72.9239  217.7596 H   0  0  0  0  0  0  0  0  0  0  0  0
  144.5524   72.1017  219.0570 H   0  0  0  0  0  0  0  0  0  0  0  0
  144.8386   75.8518  221.1659 H   0  0  0  0  0  0  0  0  0  0  0  0
  1  2  2  0
  2  3  1  0
  3  4  1  0
  4  5  1  0
  5  6  2  0
  5  7  1  0
  7  8  1  0
  8  9  1  0
  9 10  1  0
 10 11  1  0
 11 12  1  0
 12 13  2  0
 13 14  1  0
 14 15  2  0
 15 16  1  0
 15 17  1  0
 17 18  2  0
  2 19  1  0
 19 20  2  0
 20 21  1  0
 21 22  2  0
 22 23  1  0
 23 24  2  0
 24 25  1  0
 25 26  1  0
 25 27  2  0
 27 28  1  0
 28 29  2  0
 11  7  1  0
 18 12  1  0
 29 19  1  0
 28 22  1  0
  3 30  1  0
  4 31  1  0
  4 32  1  0
  8 33  1  0
  8 34  1  0
  9 35  1  0
  9 36  1  0
 10 37  1  0
 10 38  1  0
 11 39  1  1
 13 40  1  0
 14 41  1  0
 17 42  1  0
 18 43  1  0
 20 44  1  0
 21 45  1  0
 23 46  1  0
 24 47  1  0
 27 48  1  0
M  END
>  <smiles>  (42) 
O=C(NCC(=O)N1CCC[C@H]1c1ccc(Cl)cc1)c1ccc2ccc(Cl)cc2n1

>  <score_type>  (42) 
oracle

>  <origin>  (42) 
autodockgpu

>  <m_score__min__energy>  (42) 
-8.9399999999999995

>  <m_primary>  (42) 
energy

>  <rmsd>  (42) 
8.252513129021395

>  <m_score__min__rmsd>  (42) 
8.252513129021395

>  <meeko>  (42) 
{"free_energy": -6.77, "intermolecular_energy": -8.26, "internal_energy": -3.12, "cluster_size": 27, "cluster_id": 5, "rank_in_cluster": 24}

>  <energy>  (42) 
-6.85

>  <cluster_rmsd>  (42) 
1.78

>  <cluster>  (42) 
5

$$$$

     RDKit          3D

 48 51  0  0  0  0  0  0  0  0999 V2000
  140.4840   79.1870  218.8040 O   0  0  0  0  0  0  0  0  0  0  0  0
  141.4530   78.7190  219.4320 C   0  0  0  0  0  0  0  0  0  0  0  0
  142.1240   79.5070  220.3990 N   0  0  0  0  0  0  0  0  0  0  0  0
  141.7570   80.8670  220.7280 C   0  0  0  0  0  0  0  0  0  0  0  0
  141.5410   80.9970  222.1840 C   0  0  0  0  0  0  0  0  0  0  0  0
  142.4520   81.2880  223.0060 O   0  0  0  0  0  0  0  0  0  0  0  0
  140.2430   80.7890  222.7260 N   0  0  0  0  0  0  0  0  0  0  0  0
  139.1010   81.5860  222.3840 C   0  0  0  0  0  0  0  0  0  0  0  0
  137.9120   80.9820  223.0770 C   0  0  0  0  0  0  0  0  0  0  0  0
  138.5190   80.1940  224.2090 C   0  0  0  0  0  0  0  0  0  0  0  0
  139.8500   79.7870  223.6770 C   0  0  1  0  0  0  0  0  0  0  0  0
  139.8710   78.4300  223.0710 C   0  0  0  0  0  0  0  0  0  0  0  0
  138.7200   77.7810  222.6460 C   0  0  0  0  0  0  0  0  0  0  0  0
  138.7100   76.5350  222.0890 C   0  0  0  0  0  0  0  0  0  0  0  0
  139.8940   75.8610  221.9270 C   0  0  0  0  0  0  0  0  0  0  0  0
  139.8350   74.2680  221.2090 Cl  0  0  0  0  0  0  0  0  0  0  0  0
  141.0710   76.4520  222.3300 C   0  0  0  0  0  0  0  0  0  0  0  0
  141.0550   77.7160  222.8920 C   0  0  0  0  0  0  0  0  0  0  0  0
  141.9170   77.3400  219.1790 C   0  0  0  0  0  0  0  0  0  0  0  0
  141.2910   76.5900  218.2000 C   0  0  0  0  0  0  0  0  0  0  0  0
  141.7610   75.3030  218.0000 C   0  0  0  0  0  0  0  0  0  0  0  0
  142.8000   74.7670  218.7220 C   0  0  0  0  0  0  0  0  0  0  0  0
  143.2650   73.4670  218.5100 C   0  0  0  0  0  0  0  0  0  0  0  0
  144.3170   73.0240  219.2940 C   0  0  0  0  0  0  0  0  0  0  0  0
  144.8980   73.8440  220.2650 C   0  0  0  0  0  0  0  0  0  0  0  0
  146.2260   73.2080  221.2150 Cl  0  0  0  0  0  0  0  0  0  0  0  0
  144.4360   75.1260  220.4700 C   0  0  0  0  0  0  0  0  0  0  0  0
  143.3850   75.5770  219.6930 C   0  0  0  0  0  0  0  0  0  0  0  0
  142.9370   76.8290  219.8960 N   0  0  0  0  0  0  0  0  0  0  0  0
  142.9430   79.0540  220.9020 H   0  0  0  0  0  0  0  0  0  0  0  0
  142.5643   81.5468  220.4179 H   0  0  0  0  0  0  0  0  0  0  0  0
  140.8265   81.1260  220.2016 H   0  0  0  0  0  0  0  0  0  0  0  0
  139.2491   82.6216  222.7239 H   0  0  0  0  0  0  0  0  0  0  0  0
  138.9499   81.6035  221.2946 H   0  0  0  0  0  0  0  0  0  0  0  0
  137.2416   81.7655  223.4600 H   0  0  0  0  0  0  0  0  0  0  0  0
  137.2986   80.3615  222.4072 H   0  0  0  0  0  0  0  0  0  0  0  0
  138.6293   80.8186  225.1077 H   0  0  0  0  0  0  0  0  0  0  0  0
  137.9001   79.3374  224.5141 H   0  0  0  0  0  0  0  0  0  0  0  0
  140.5608   79.7192  224.5138 H   0  0  0  0  0  0  0  0  0  0  0  0
  137.7585   78.3020  222.7652 H   0  0  0  0  0  0  0  0  0  0  0  0
  137.7618   76.0756  221.7730 H   0  0  0  0  0  0  0  0  0  0  0  0
  142.0247   75.9184  222.2049 H   0  0  0  0  0  0  0  0  0  0  0  0
  142.0053   78.1716  223.2072 H   0  0  0  0  0  0  0  0  0  0  0  0
  140.4583   76.9971  217.6077 H   0  0  0  0  0  0  0  0  0  0  0  0
  141.2814   74.6822  217.2290 H   0  0  0  0  0  0  0  0  0  0  0  0
  142.8113   72.8177  217.7468 H   0  0  0  0  0  0  0  0  0  0  0  0
  144.7037   72.0044  219.1493 H   0  0  0  0  0  0  0  0  0  0  0  0
  144.8920   75.7743  221.2327 H   0  0  0  0  0  0  0  0  0  0  0  0
  1  2  2  0
  2  3  1  0
  3  4  1  0
  4  5  1  0
  5  6  2  0
  5  7  1  0
  7  8  1  0
  8  9  1  0
  9 10  1  0
 10 11  1  0
 11 12  1  0
 12 13  2  0
 13 14  1  0
 14 15  2  0
 15 16  1  0
 15 17  1  0
 17 18  2  0
  2 19  1  0
 19 20  2  0
 20 21  1  0
 21 22  2  0
 22 23  1  0
 23 24  2  0
 24 25  1  0
 25 26  1  0
 25 27  2  0
 27 28  1  0
 28 29  2  0
 11  7  1  0
 18 12  1  0
 29 19  1  0
 28 22  1  0
  3 30  1  0
  4 31  1  0
  4 32  1  0
  8 33  1  0
  8 34  1  0
  9 35  1  0
  9 36  1  0
 10 37  1  0
 10 38  1  0
 11 39  1  1
 13 40  1  0
 14 41  1  0
 17 42  1  0
 18 43  1  0
 20 44  1  0
 21 45  1  0
 23 46  1  0
 24 47  1  0
 27 48  1  0
M  END
>  <smiles>  (43) 
O=C(NCC(=O)N1CCC[C@H]1c1ccc(Cl)cc1)c1ccc2ccc(Cl)cc2n1

>  <score_type>  (43) 
oracle

>  <origin>  (43) 
autodockgpu

>  <m_score__min__energy>  (43) 
-8.9399999999999995

>  <m_primary>  (43) 
energy

>  <rmsd>  (43) 
8.241848937974396

>  <m_score__min__rmsd>  (43) 
8.241848937974396

>  <meeko>  (43) 
{"free_energy": -6.88, "intermolecular_energy": -8.37, "internal_energy": -3.08, "cluster_size": 27, "cluster_id": 5, "rank_in_cluster": 19}

>  <energy>  (43) 
-6.85

>  <cluster_rmsd>  (43) 
1.86

>  <cluster>  (43) 
5

$$$$

     RDKit          3D

 48 51  0  0  0  0  0  0  0  0999 V2000
  140.0970   78.4520  218.5080 O   0  0  0  0  0  0  0  0  0  0  0  0
  141.2260   78.1440  218.9350 C   0  0  0  0  0  0  0  0  0  0  0  0
  142.1860   79.1500  219.2070 N   0  0  0  0  0  0  0  0  0  0  0  0
  141.9460   80.5640  219.0210 C   0  0  0  0  0  0  0  0  0  0  0  0
  141.1930   81.1080  220.1700 C   0  0  0  0  0  0  0  0  0  0  0  0
  140.1620   81.8260  220.0580 O   0  0  0  0  0  0  0  0  0  0  0  0
  141.6270   80.8270  221.4940 N   0  0  0  0  0  0  0  0  0  0  0  0
  141.7360   81.8190  222.5240 C   0  0  0  0  0  0  0  0  0  0  0  0
  142.1170   81.1070  223.7920 C   0  0  0  0  0  0  0  0  0  0  0  0
  142.7320   79.8180  223.3080 C   0  0  0  0  0  0  0  0  0  0  0  0
  142.0200   79.5520  222.0260 C   0  0  1  0  0  0  0  0  0  0  0  0
  140.8550   78.6390  222.1580 C   0  0  0  0  0  0  0  0  0  0  0  0
  140.9910   77.2610  222.2540 C   0  0  0  0  0  0  0  0  0  0  0  0
  139.9390   76.4000  222.3740 C   0  0  0  0  0  0  0  0  0  0  0  0
  138.6610   76.8970  222.4040 C   0  0  0  0  0  0  0  0  0  0  0  0
  137.3440   75.7580  222.5600 Cl  0  0  0  0  0  0  0  0  0  0  0  0
  138.4610   78.2570  222.3120 C   0  0  0  0  0  0  0  0  0  0  0  0
  139.5430   79.1100  222.1910 C   0  0  0  0  0  0  0  0  0  0  0  0
  141.5830   76.7290  219.1630 C   0  0  0  0  0  0  0  0  0  0  0  0
  140.6730   75.7450  218.8250 C   0  0  0  0  0  0  0  0  0  0  0  0
  141.0520   74.4330  219.0580 C   0  0  0  0  0  0  0  0  0  0  0  0
  142.2700   74.0930  219.5990 C   0  0  0  0  0  0  0  0  0  0  0  0
  142.6400   72.7660  219.8290 C   0  0  0  0  0  0  0  0  0  0  0  0
  143.8900   72.5340  220.3780 C   0  0  0  0  0  0  0  0  0  0  0  0
  144.7550   73.5840  220.6930 C   0  0  0  0  0  0  0  0  0  0  0  0
  146.3200   73.2050  221.3860 Cl  0  0  0  0  0  0  0  0  0  0  0  0
  144.3850   74.8920  220.4640 C   0  0  0  0  0  0  0  0  0  0  0  0
  143.1390   75.1340  219.9160 C   0  0  0  0  0  0  0  0  0  0  0  0
  142.7810   76.4120  219.6940 N   0  0  0  0  0  0  0  0  0  0  0  0
  143.1300   78.8270  219.5690 H   0  0  0  0  0  0  0  0  0  0  0  0
  142.9093   81.0883  218.9366 H   0  0  0  0  0  0  0  0  0  0  0  0
  141.3574   80.7110  218.1034 H   0  0  0  0  0  0  0  0  0  0  0  0
  142.5097   82.5543  222.2581 H   0  0  0  0  0  0  0  0  0  0  0  0
  140.7842   82.3559  222.6498 H   0  0  0  0  0  0  0  0  0  0  0  0
  142.8448   81.6963  224.3691 H   0  0  0  0  0  0  0  0  0  0  0  0
  141.2608   80.9448  224.4633 H   0  0  0  0  0  0  0  0  0  0  0  0
  143.8126   79.9367  223.1402 H   0  0  0  0  0  0  0  0  0  0  0  0
  142.6306   78.9966  224.0326 H   0  0  0  0  0  0  0  0  0  0  0  0
  142.7018   79.0208  221.3456 H   0  0  0  0  0  0  0  0  0  0  0  0
  142.0062   76.8381  222.2321 H   0  0  0  0  0  0  0  0  0  0  0  0
  140.1145   75.3165  222.4460 H   0  0  0  0  0  0  0  0  0  0  0  0
  137.4397   78.6649  222.3348 H   0  0  0  0  0  0  0  0  0  0  0  0
  139.3631   80.1928  222.1186 H   0  0  0  0  0  0  0  0  0  0  0  0
  139.6930   75.9923  218.3910 H   0  0  0  0  0  0  0  0  0  0  0  0
  140.3483   73.6282  218.7991 H   0  0  0  0  0  0  0  0  0  0  0  0
  141.9627   71.9349  219.5828 H   0  0  0  0  0  0  0  0  0  0  0  0
  144.2088   71.4989  220.5704 H   0  0  0  0  0  0  0  0  0  0  0  0
  145.0636   75.7218  220.7109 H   0  0  0  0  0  0  0  0  0  0  0  0
  1  2  2  0
  2  3  1  0
  3  4  1  0
  4  5  1  0
  5  6  2  0
  5  7  1  0
  7  8  1  0
  8  9  1  0
  9 10  1  0
 10 11  1  0
 11 12  1  0
 12 13  2  0
 13 14  1  0
 14 15  2  0
 15 16  1  0
 15 17  1  0
 17 18  2  0
  2 19  1  0
 19 20  2  0
 20 21  1  0
 21 22  2  0
 22 23  1  0
 23 24  2  0
 24 25  1  0
 25 26  1  0
 25 27  2  0
 27 28  1  0
 28 29  2  0
 11  7  1  0
 18 12  1  0
 29 19  1  0
 28 22  1  0
  3 30  1  0
  4 31  1  0
  4 32  1  0
  8 33  1  0
  8 34  1  0
  9 35  1  0
  9 36  1  0
 10 37  1  0
 10 38  1  0
 11 39  1  6
 13 40  1  0
 14 41  1  0
 17 42  1  0
 18 43  1  0
 20 44  1  0
 21 45  1  0
 23 46  1  0
 24 47  1  0
 27 48  1  0
M  END
>  <smiles>  (44) 
O=C(NCC(=O)N1CCC[C@H]1c1ccc(Cl)cc1)c1ccc2ccc(Cl)cc2n1

>  <score_type>  (44) 
oracle

>  <origin>  (44) 
autodockgpu

>  <m_score__min__energy>  (44) 
-8.9399999999999995

>  <m_primary>  (44) 
energy

>  <rmsd>  (44) 
7.741536151318362

>  <m_score__min__rmsd>  (44) 
7.741536151318362

>  <meeko>  (44) 
{"free_energy": -7.16, "intermolecular_energy": -8.65, "internal_energy": -2.86, "cluster_size": 27, "cluster_id": 5, "rank_in_cluster": 10}

>  <energy>  (44) 
-6.77

>  <cluster_rmsd>  (44) 
1.84

>  <cluster>  (44) 
5

$$$$

     RDKit          3D

 48 51  0  0  0  0  0  0  0  0999 V2000
  140.1570   78.4110  218.4370 O   0  0  0  0  0  0  0  0  0  0  0  0
  141.2500   78.1020  218.9490 C   0  0  0  0  0  0  0  0  0  0  0  0
  142.1960   79.1050  219.2710 N   0  0  0  0  0  0  0  0  0  0  0  0
  141.9830   80.5180  219.0440 C   0  0  0  0  0  0  0  0  0  0  0  0
  141.1770   81.0940  220.1410 C   0  0  0  0  0  0  0  0  0  0  0  0
  140.1410   81.7900  219.9610 O   0  0  0  0  0  0  0  0  0  0  0  0
  141.5610   80.8690  221.4910 N   0  0  0  0  0  0  0  0  0  0  0  0
  141.5830   81.8960  222.4930 C   0  0  0  0  0  0  0  0  0  0  0  0
  141.9350   81.2380  223.7980 C   0  0  0  0  0  0  0  0  0  0  0  0
  142.6220   79.9620  223.3830 C   0  0  0  0  0  0  0  0  0  0  0  0
  141.9810   79.6290  222.0790 C   0  0  1  0  0  0  0  0  0  0  0  0
  140.8480   78.6720  222.1880 C   0  0  0  0  0  0  0  0  0  0  0  0
  139.5210   79.0790  222.1940 C   0  0  0  0  0  0  0  0  0  0  0  0
  138.4640   78.2230  222.2950 C   0  0  0  0  0  0  0  0  0  0  0  0
  138.6960   76.8750  222.3980 C   0  0  0  0  0  0  0  0  0  0  0  0
  137.3110   75.8150  222.5240 Cl  0  0  0  0  0  0  0  0  0  0  0  0
  139.9920   76.4090  222.3980 C   0  0  0  0  0  0  0  0  0  0  0  0
  141.0470   77.2960  222.2950 C   0  0  0  0  0  0  0  0  0  0  0  0
  141.5770   76.6880  219.2260 C   0  0  0  0  0  0  0  0  0  0  0  0
  140.6230   75.7190  218.9810 C   0  0  0  0  0  0  0  0  0  0  0  0
  140.9750   74.4080  219.2570 C   0  0  0  0  0  0  0  0  0  0  0  0
  142.2090   74.0550  219.7520 C   0  0  0  0  0  0  0  0  0  0  0  0
  142.5520   72.7300  220.0260 C   0  0  0  0  0  0  0  0  0  0  0  0
  143.8200   72.4830  220.5230 C   0  0  0  0  0  0  0  0  0  0  0  0
  144.7310   73.5200  220.7440 C   0  0  0  0  0  0  0  0  0  0  0  0
  146.3170   73.1250  221.3750 Cl  0  0  0  0  0  0  0  0  0  0  0  0
  144.3870   74.8270  220.4720 C   0  0  0  0  0  0  0  0  0  0  0  0
  143.1220   75.0820  219.9760 C   0  0  0  0  0  0  0  0  0  0  0  0
  142.7910   76.3590  219.7110 N   0  0  0  0  0  0  0  0  0  0  0  0
  143.1100   78.7810  219.7060 H   0  0  0  0  0  0  0  0  0  0  0  0
  142.9557   81.0299  218.9999 H   0  0  0  0  0  0  0  0  0  0  0  0
  141.4453   80.6525  218.0939 H   0  0  0  0  0  0  0  0  0  0  0  0
  142.3375   82.6548  222.2382 H   0  0  0  0  0  0  0  0  0  0  0  0
  140.6058   82.3967  222.5598 H   0  0  0  0  0  0  0  0  0  0  0  0
  142.6120   81.8738  224.3875 H   0  0  0  0  0  0  0  0  0  0  0  0
  141.0565   81.0604  224.4357 H   0  0  0  0  0  0  0  0  0  0  0  0
  143.7037   80.1199  223.2603 H   0  0  0  0  0  0  0  0  0  0  0  0
  142.5198   79.1589  224.1277 H   0  0  0  0  0  0  0  0  0  0  0  0
  142.7146   79.1076  221.4466 H   0  0  0  0  0  0  0  0  0  0  0  0
  139.3094   80.1554  222.1125 H   0  0  0  0  0  0  0  0  0  0  0  0
  137.4344   78.6103  222.2939 H   0  0  0  0  0  0  0  0  0  0  0  0
  140.1877   75.3297  222.4801 H   0  0  0  0  0  0  0  0  0  0  0  0
  142.0750   76.9045  222.2975 H   0  0  0  0  0  0  0  0  0  0  0  0
  139.6297   75.9768  218.5850 H   0  0  0  0  0  0  0  0  0  0  0  0
  140.2357   73.6147  219.0723 H   0  0  0  0  0  0  0  0  0  0  0  0
  141.8391   71.9103  219.8529 H   0  0  0  0  0  0  0  0  0  0  0  0
  144.1173   71.4483  220.7489 H   0  0  0  0  0  0  0  0  0  0  0  0
  145.1007   75.6459  220.6452 H   0  0  0  0  0  0  0  0  0  0  0  0
  1  2  2  0
  2  3  1  0
  3  4  1  0
  4  5  1  0
  5  6  2  0
  5  7  1  0
  7  8  1  0
  8  9  1  0
  9 10  1  0
 10 11  1  0
 11 12  1  0
 12 13  2  0
 13 14  1  0
 14 15  2  0
 15 16  1  0
 15 17  1  0
 17 18  2  0
  2 19  1  0
 19 20  2  0
 20 21  1  0
 21 22  2  0
 22 23  1  0
 23 24  2  0
 24 25  1  0
 25 26  1  0
 25 27  2  0
 27 28  1  0
 28 29  2  0
 11  7  1  0
 18 12  1  0
 29 19  1  0
 28 22  1  0
  3 30  1  0
  4 31  1  0
  4 32  1  0
  8 33  1  0
  8 34  1  0
  9 35  1  0
  9 36  1  0
 10 37  1  0
 10 38  1  0
 11 39  1  6
 13 40  1  0
 14 41  1  0
 17 42  1  0
 18 43  1  0
 20 44  1  0
 21 45  1  0
 23 46  1  0
 24 47  1  0
 27 48  1  0
M  END
>  <smiles>  (45) 
O=C(NCC(=O)N1CCC[C@H]1c1ccc(Cl)cc1)c1ccc2ccc(Cl)cc2n1

>  <score_type>  (45) 
oracle

>  <origin>  (45) 
autodockgpu

>  <m_score__min__energy>  (45) 
-8.9399999999999995

>  <m_primary>  (45) 
energy

>  <rmsd>  (45) 
7.695142032568254

>  <m_score__min__rmsd>  (45) 
7.695142032568254

>  <meeko>  (45) 
{"free_energy": -7.21, "intermolecular_energy": -8.7, "internal_energy": -2.87, "cluster_size": 27, "cluster_id": 5, "rank_in_cluster": 4}

>  <energy>  (45) 
-6.69

>  <cluster_rmsd>  (45) 
1.97

>  <cluster>  (45) 
5

$$$$

     RDKit          3D

 48 51  0  0  0  0  0  0  0  0999 V2000
  138.8780   73.5560  221.1920 O   0  0  0  0  0  0  0  0  0  0  0  0
  139.8420   74.2360  221.5920 C   0  0  0  0  0  0  0  0  0  0  0  0
  141.1410   73.6720  221.6470 N   0  0  0  0  0  0  0  0  0  0  0  0
  141.4460   72.3120  221.2600 C   0  0  0  0  0  0  0  0  0  0  0  0
  142.3080   72.3080  220.0580 C   0  0  0  0  0  0  0  0  0  0  0  0
  141.9530   71.8410  218.9420 O   0  0  0  0  0  0  0  0  0  0  0  0
  143.6190   72.8530  220.1290 N   0  0  0  0  0  0  0  0  0  0  0  0
  144.7990   72.1430  219.7270 C   0  0  0  0  0  0  0  0  0  0  0  0
  145.9560   73.0940  219.8510 C   0  0  0  0  0  0  0  0  0  0  0  0
  145.4640   74.1320  220.8270 C   0  0  0  0  0  0  0  0  0  0  0  0
  143.9910   74.1590  220.5950 C   0  0  1  0  0  0  0  0  0  0  0  0
  143.5460   75.2170  219.6510 C   0  0  0  0  0  0  0  0  0  0  0  0
  143.7020   75.1090  218.2760 C   0  0  0  0  0  0  0  0  0  0  0  0
  143.3040   76.0660  217.3880 C   0  0  0  0  0  0  0  0  0  0  0  0
  142.7120   77.2120  217.8530 C   0  0  0  0  0  0  0  0  0  0  0  0
  142.2170   78.4100  216.6800 Cl  0  0  0  0  0  0  0  0  0  0  0  0
  142.5290   77.3780  219.2080 C   0  0  0  0  0  0  0  0  0  0  0  0
  142.9410   76.3940  220.0890 C   0  0  0  0  0  0  0  0  0  0  0  0
  139.6490   75.6390  222.0140 C   0  0  0  0  0  0  0  0  0  0  0  0
  138.3650   76.1500  222.0740 C   0  0  0  0  0  0  0  0  0  0  0  0
  138.2340   77.4690  222.4740 C   0  0  0  0  0  0  0  0  0  0  0  0
  139.3100   78.2600  222.8050 C   0  0  0  0  0  0  0  0  0  0  0  0
  139.1640   79.5880  223.2080 C   0  0  0  0  0  0  0  0  0  0  0  0
  140.3120   80.2960  223.5170 C   0  0  0  0  0  0  0  0  0  0  0  0
  141.5770   79.7080  223.4320 C   0  0  0  0  0  0  0  0  0  0  0  0
  142.9820   80.6720  223.8410 Cl  0  0  0  0  0  0  0  0  0  0  0  0
  141.7160   78.3950  223.0340 C   0  0  0  0  0  0  0  0  0  0  0  0
  140.5740   77.6810  222.7220 C   0  0  0  0  0  0  0  0  0  0  0  0
  140.7140   76.4000  222.3340 N   0  0  0  0  0  0  0  0  0  0  0  0
  141.9220   74.3010  221.9960 H   0  0  0  0  0  0  0  0  0  0  0  0
  141.9698   71.8074  222.0853 H   0  0  0  0  0  0  0  0  0  0  0  0
  140.5087   71.7828  221.0332 H   0  0  0  0  0  0  0  0  0  0  0  0
  144.9556   71.2723  220.3807 H   0  0  0  0  0  0  0  0  0  0  0  0
  144.7021   71.7799  218.6932 H   0  0  0  0  0  0  0  0  0  0  0  0
  146.8463   72.5794  220.2416 H   0  0  0  0  0  0  0  0  0  0  0  0
  146.2571   73.5264  218.8854 H   0  0  0  0  0  0  0  0  0  0  0  0
  145.6935   73.8384  221.8619 H   0  0  0  0  0  0  0  0  0  0  0  0
  145.9381   75.1140  220.6826 H   0  0  0  0  0  0  0  0  0  0  0  0
  143.4871   74.4124  221.5394 H   0  0  0  0  0  0  0  0  0  0  0  0
  144.1742   74.1985  217.8786 H   0  0  0  0  0  0  0  0  0  0  0  0
  143.4568   75.9192  216.3086 H   0  0  0  0  0  0  0  0  0  0  0  0
  142.0547   78.2940  219.5901 H   0  0  0  0  0  0  0  0  0  0  0  0
  142.7865   76.5450  221.1676 H   0  0  0  0  0  0  0  0  0  0  0  0
  137.4889   75.5370  221.8160 H   0  0  0  0  0  0  0  0  0  0  0  0
  137.2251   77.9037  222.5296 H   0  0  0  0  0  0  0  0  0  0  0  0
  138.1708   80.0557  223.2776 H   0  0  0  0  0  0  0  0  0  0  0  0
  140.2271   81.3451  223.8367 H   0  0  0  0  0  0  0  0  0  0  0  0
  142.7096   77.9279  222.9665 H   0  0  0  0  0  0  0  0  0  0  0  0
  1  2  2  0
  2  3  1  0
  3  4  1  0
  4  5  1  0
  5  6  2  0
  5  7  1  0
  7  8  1  0
  8  9  1  0
  9 10  1  0
 10 11  1  0
 11 12  1  0
 12 13  2  0
 13 14  1  0
 14 15  2  0
 15 16  1  0
 15 17  1  0
 17 18  2  0
  2 19  1  0
 19 20  2  0
 20 21  1  0
 21 22  2  0
 22 23  1  0
 23 24  2  0
 24 25  1  0
 25 26  1  0
 25 27  2  0
 27 28  1  0
 28 29  2  0
 11  7  1  0
 18 12  1  0
 29 19  1  0
 28 22  1  0
  3 30  1  0
  4 31  1  0
  4 32  1  0
  8 33  1  0
  8 34  1  0
  9 35  1  0
  9 36  1  0
 10 37  1  0
 10 38  1  0
 11 39  1  1
 13 40  1  0
 14 41  1  0
 17 42  1  0
 18 43  1  0
 20 44  1  0
 21 45  1  0
 23 46  1  0
 24 47  1  0
 27 48  1  0
M  END
>  <smiles>  (46) 
O=C(NCC(=O)N1CCC[C@H]1c1ccc(Cl)cc1)c1ccc2ccc(Cl)cc2n1

>  <score_type>  (46) 
oracle

>  <origin>  (46) 
autodockgpu

>  <m_score__min__energy>  (46) 
-8.9399999999999995

>  <m_primary>  (46) 
energy

>  <rmsd>  (46) 
7.028944377471593

>  <m_score__min__rmsd>  (46) 
7.028944377471593

>  <meeko>  (46) 
{"free_energy": -7.27, "intermolecular_energy": -8.76, "internal_energy": -2.5, "cluster_size": 4, "cluster_id": 4, "rank_in_cluster": 3}

>  <energy>  (46) 
-6.69

>  <cluster_rmsd>  (46) 
1.97

>  <cluster>  (46) 
5

$$$$

     RDKit          3D

 48 51  0  0  0  0  0  0  0  0999 V2000
  141.5430   74.5160  220.9620 O   0  0  0  0  0  0  0  0  0  0  0  0
  140.5470   74.6420  221.6990 C   0  0  0  0  0  0  0  0  0  0  0  0
  139.8050   73.5030  222.0990 N   0  0  0  0  0  0  0  0  0  0  0  0
  140.1270   72.1500  221.7010 C   0  0  0  0  0  0  0  0  0  0  0  0
  140.1500   71.2650  222.8840 C   0  0  0  0  0  0  0  0  0  0  0  0
  141.0870   71.2430  223.7280 O   0  0  0  0  0  0  0  0  0  0  0  0
  139.0680   70.3710  223.1170 N   0  0  0  0  0  0  0  0  0  0  0  0
  138.6130   69.4060  222.1590 C   0  0  0  0  0  0  0  0  0  0  0  0
  137.5370   68.5920  222.8220 C   0  0  0  0  0  0  0  0  0  0  0  0
  137.0550   69.4800  223.9410 C   0  0  0  0  0  0  0  0  0  0  0  0
  138.2640   70.2730  224.3020 C   0  0  1  0  0  0  0  0  0  0  0  0
  139.0410   69.7110  225.4380 C   0  0  0  0  0  0  0  0  0  0  0  0
  139.8390   70.4940  226.2600 C   0  0  0  0  0  0  0  0  0  0  0  0
  140.5640   70.0030  227.3070 C   0  0  0  0  0  0  0  0  0  0  0  0
  140.5200   68.6610  227.5870 C   0  0  0  0  0  0  0  0  0  0  0  0
  141.4630   68.0760  228.9380 Cl  0  0  0  0  0  0  0  0  0  0  0  0
  139.7460   67.8320  226.8060 C   0  0  0  0  0  0  0  0  0  0  0  0
  139.0200   68.3520  225.7500 C   0  0  0  0  0  0  0  0  0  0  0  0
  140.1230   75.9780  222.1680 C   0  0  0  0  0  0  0  0  0  0  0  0
  138.7730   76.2670  222.2360 C   0  0  0  0  0  0  0  0  0  0  0  0
  138.4250   77.5320  222.6810 C   0  0  0  0  0  0  0  0  0  0  0  0
  139.3540   78.4770  223.0460 C   0  0  0  0  0  0  0  0  0  0  0  0
  138.9900   79.7490  223.4930 C   0  0  0  0  0  0  0  0  0  0  0  0
  140.0050   80.6260  223.8340 C   0  0  0  0  0  0  0  0  0  0  0  0
  141.3500   80.2580  223.7370 C   0  0  0  0  0  0  0  0  0  0  0  0
  142.5750   81.4260  224.1890 Cl  0  0  0  0  0  0  0  0  0  0  0  0
  141.7040   79.0010  223.2960 C   0  0  0  0  0  0  0  0  0  0  0  0
  140.6970   78.1190  222.9520 C   0  0  0  0  0  0  0  0  0  0  0  0
  141.0470   76.8930  222.5210 N   0  0  0  0  0  0  0  0  0  0  0  0
  138.9660   73.6740  222.7270 H   0  0  0  0  0  0  0  0  0  0  0  0
  139.3681   71.7891  220.9912 H   0  0  0  0  0  0  0  0  0  0  0  0
  141.1187   72.1409  221.2250 H   0  0  0  0  0  0  0  0  0  0  0  0
  138.2070   69.9170  221.2735 H   0  0  0  0  0  0  0  0  0  0  0  0
  139.4422   68.7621  221.8304 H   0  0  0  0  0  0  0  0  0  0  0  0
  136.7216   68.3715  222.1173 H   0  0  0  0  0  0  0  0  0  0  0  0
  137.8992   67.6163  223.1781 H   0  0  0  0  0  0  0  0  0  0  0  0
  136.2417   70.1370  223.5989 H   0  0  0  0  0  0  0  0  0  0  0  0
  136.6448   68.9140  224.7904 H   0  0  0  0  0  0  0  0  0  0  0  0
  137.9447   71.2632  224.6592 H   0  0  0  0  0  0  0  0  0  0  0  0
  139.8903   71.5737  226.0558 H   0  0  0  0  0  0  0  0  0  0  0  0
  141.1784   70.6779  227.9211 H   0  0  0  0  0  0  0  0  0  0  0  0
  139.7051   66.7543  227.0224 H   0  0  0  0  0  0  0  0  0  0  0  0
  138.4077   67.6734  225.1379 H   0  0  0  0  0  0  0  0  0  0  0  0
  138.0107   75.5273  221.9502 H   0  0  0  0  0  0  0  0  0  0  0  0
  137.3580   77.7916  222.7451 H   0  0  0  0  0  0  0  0  0  0  0  0
  137.9331   80.0437  223.5714 H   0  0  0  0  0  0  0  0  0  0  0  0
  139.7476   81.6348  224.1892 H   0  0  0  0  0  0  0  0  0  0  0  0
  142.7613   78.7072  223.2198 H   0  0  0  0  0  0  0  0  0  0  0  0
  1  2  2  0
  2  3  1  0
  3  4  1  0
  4  5  1  0
  5  6  2  0
  5  7  1  0
  7  8  1  0
  8  9  1  0
  9 10  1  0
 10 11  1  0
 11 12  1  0
 12 13  2  0
 13 14  1  0
 14 15  2  0
 15 16  1  0
 15 17  1  0
 17 18  2  0
  2 19  1  0
 19 20  2  0
 20 21  1  0
 21 22  2  0
 22 23  1  0
 23 24  2  0
 24 25  1  0
 25 26  1  0
 25 27  2  0
 27 28  1  0
 28 29  2  0
 11  7  1  0
 18 12  1  0
 29 19  1  0
 28 22  1  0
  3 30  1  0
  4 31  1  0
  4 32  1  0
  8 33  1  0
  8 34  1  0
  9 35  1  0
  9 36  1  0
 10 37  1  0
 10 38  1  0
 11 39  1  1
 13 40  1  0
 14 41  1  0
 17 42  1  0
 18 43  1  0
 20 44  1  0
 21 45  1  0
 23 46  1  0
 24 47  1  0
 27 48  1  0
M  END
>  <smiles>  (47) 
O=C(NCC(=O)N1CCC[C@H]1c1ccc(Cl)cc1)c1ccc2ccc(Cl)cc2n1

>  <score_type>  (47) 
oracle

>  <origin>  (47) 
autodockgpu

>  <m_score__min__energy>  (47) 
-8.9399999999999995

>  <m_primary>  (47) 
energy

>  <rmsd>  (47) 
7.945562268697773

>  <m_score__min__rmsd>  (47) 
7.945562268697773

>  <meeko>  (47) 
{"free_energy": -8.94, "intermolecular_energy": -10.43, "internal_energy": -1.17, "cluster_size": 8, "cluster_id": 1, "rank_in_cluster": 1}

>  <energy>  (47) 
-6.69

>  <cluster_rmsd>  (47) 
1.96

>  <cluster>  (47) 
5

$$$$

     RDKit          3D

 48 51  0  0  0  0  0  0  0  0999 V2000
  138.8290   73.4030  221.6030 O   0  0  0  0  0  0  0  0  0  0  0  0
  139.8070   74.1720  221.6660 C   0  0  0  0  0  0  0  0  0  0  0  0
  141.1100   73.6950  221.3800 N   0  0  0  0  0  0  0  0  0  0  0  0
  141.4050   72.3300  221.0040 C   0  0  0  0  0  0  0  0  0  0  0  0
  142.3520   72.3080  219.8690 C   0  0  0  0  0  0  0  0  0  0  0  0
  142.0900   71.7990  218.7460 O   0  0  0  0  0  0  0  0  0  0  0  0
  143.6420   72.8870  220.0170 N   0  0  0  0  0  0  0  0  0  0  0  0
  144.8580   72.2260  219.6400 C   0  0  0  0  0  0  0  0  0  0  0  0
  145.9810   73.2030  219.8500 C   0  0  0  0  0  0  0  0  0  0  0  0
  145.4170   74.1880  220.8420 C   0  0  0  0  0  0  0  0  0  0  0  0
  143.9560   74.1830  220.5480 C   0  0  1  0  0  0  0  0  0  0  0  0
  143.5200   75.2650  219.6260 C   0  0  0  0  0  0  0  0  0  0  0  0
  143.7160   75.2030  218.2530 C   0  0  0  0  0  0  0  0  0  0  0  0
  143.3270   76.1830  217.3850 C   0  0  0  0  0  0  0  0  0  0  0  0
  142.7040   77.3040  217.8700 C   0  0  0  0  0  0  0  0  0  0  0  0
  142.2230   78.5320  216.7230 Cl  0  0  0  0  0  0  0  0  0  0  0  0
  142.4820   77.4230  219.2240 C   0  0  0  0  0  0  0  0  0  0  0  0
  142.8840   76.4180  220.0840 C   0  0  0  0  0  0  0  0  0  0  0  0
  139.6250   75.5890  222.0410 C   0  0  0  0  0  0  0  0  0  0  0  0
  138.3490   76.1220  222.0520 C   0  0  0  0  0  0  0  0  0  0  0  0
  138.2300   77.4540  222.4090 C   0  0  0  0  0  0  0  0  0  0  0  0
  139.3090   78.2380  222.7430 C   0  0  0  0  0  0  0  0  0  0  0  0
  139.1750   79.5810  223.1010 C   0  0  0  0  0  0  0  0  0  0  0  0
  140.3260   80.2800  223.4180 C   0  0  0  0  0  0  0  0  0  0  0  0
  141.5830   79.6700  223.3840 C   0  0  0  0  0  0  0  0  0  0  0  0
  142.9920   80.6250  223.7990 Cl  0  0  0  0  0  0  0  0  0  0  0  0
  141.7100   78.3440  223.0290 C   0  0  0  0  0  0  0  0  0  0  0  0
  140.5650   77.6380  222.7100 C   0  0  0  0  0  0  0  0  0  0  0  0
  140.6940   76.3440  222.3650 N   0  0  0  0  0  0  0  0  0  0  0  0
  141.9040   74.3970  221.4500 H   0  0  0  0  0  0  0  0  0  0  0  0
  141.8524   71.8053  221.8611 H   0  0  0  0  0  0  0  0  0  0  0  0
  140.4723   71.8301  220.7038 H   0  0  0  0  0  0  0  0  0  0  0  0
  145.0120   71.3350  220.2664 H   0  0  0  0  0  0  0  0  0  0  0  0
  144.8155   71.9011  218.5899 H   0  0  0  0  0  0  0  0  0  0  0  0
  146.8685   72.6984  220.2596 H   0  0  0  0  0  0  0  0  0  0  0  0
  146.3108   73.6806  218.9156 H   0  0  0  0  0  0  0  0  0  0  0  0
  145.6111   73.8609  221.8741 H   0  0  0  0  0  0  0  0  0  0  0  0
  145.8673   75.1878  220.7550 H   0  0  0  0  0  0  0  0  0  0  0  0
  143.4060   74.3848  221.4790 H   0  0  0  0  0  0  0  0  0  0  0  0
  144.2135   74.3129  217.8403 H   0  0  0  0  0  0  0  0  0  0  0  0
  143.5119   76.0739  216.3061 H   0  0  0  0  0  0  0  0  0  0  0  0
  141.9839   78.3194  219.6219 H   0  0  0  0  0  0  0  0  0  0  0  0
  142.6964   76.5315  221.1619 H   0  0  0  0  0  0  0  0  0  0  0  0
  137.4696   75.5157  221.7893 H   0  0  0  0  0  0  0  0  0  0  0  0
  137.2271   77.9056  222.4263 H   0  0  0  0  0  0  0  0  0  0  0  0
  138.1883   80.0664  223.1300 H   0  0  0  0  0  0  0  0  0  0  0  0
  140.2502   81.3397  223.7032 H   0  0  0  0  0  0  0  0  0  0  0  0
  142.6974   77.8600  223.0003 H   0  0  0  0  0  0  0  0  0  0  0  0
  1  2  2  0
  2  3  1  0
  3  4  1  0
  4  5  1  0
  5  6  2  0
  5  7  1  0
  7  8  1  0
  8  9  1  0
  9 10  1  0
 10 11  1  0
 11 12  1  0
 12 13  2  0
 13 14  1  0
 14 15  2  0
 15 16  1  0
 15 17  1  0
 17 18  2  0
  2 19  1  0
 19 20  2  0
 20 21  1  0
 21 22  2  0
 22 23  1  0
 23 24  2  0
 24 25  1  0
 25 26  1  0
 25 27  2  0
 27 28  1  0
 28 29  2  0
 11  7  1  0
 18 12  1  0
 29 19  1  0
 28 22  1  0
  3 30  1  0
  4 31  1  0
  4 32  1  0
  8 33  1  0
  8 34  1  0
  9 35  1  0
  9 36  1  0
 10 37  1  0
 10 38  1  0
 11 39  1  1
 13 40  1  0
 14 41  1  0
 17 42  1  0
 18 43  1  0
 20 44  1  0
 21 45  1  0
 23 46  1  0
 24 47  1  0
 27 48  1  0
M  END
>  <smiles>  (48) 
O=C(NCC(=O)N1CCC[C@H]1c1ccc(Cl)cc1)c1ccc2ccc(Cl)cc2n1

>  <score_type>  (48) 
oracle

>  <origin>  (48) 
autodockgpu

>  <m_score__min__energy>  (48) 
-8.9399999999999995

>  <m_primary>  (48) 
energy

>  <rmsd>  (48) 
7.02106910473661

>  <m_score__min__rmsd>  (48) 
7.02106910473661

>  <meeko>  (48) 
{"free_energy": -7.23, "intermolecular_energy": -8.72, "internal_energy": -2.44, "cluster_size": 4, "cluster_id": 4, "rank_in_cluster": 4}

>  <energy>  (48) 
-6.99

>  <cluster_rmsd>  (48) 
0.0

>  <cluster>  (48) 
6

$$$$

     RDKit          3D

 48 51  0  0  0  0  0  0  0  0999 V2000
  140.1270   78.4800  218.6520 O   0  0  0  0  0  0  0  0  0  0  0  0
  141.2830   78.1510  218.9770 C   0  0  0  0  0  0  0  0  0  0  0  0
  142.2840   79.1370  219.1530 N   0  0  0  0  0  0  0  0  0  0  0  0
  142.0590   80.5550  218.9790 C   0  0  0  0  0  0  0  0  0  0  0  0
  141.1840   81.0670  220.0550 C   0  0  0  0  0  0  0  0  0  0  0  0
  140.1010   81.6800  219.8480 O   0  0  0  0  0  0  0  0  0  0  0  0
  141.5520   80.8760  221.4150 N   0  0  0  0  0  0  0  0  0  0  0  0
  141.5490   81.9230  222.3950 C   0  0  0  0  0  0  0  0  0  0  0  0
  141.8900   81.2960  223.7180 C   0  0  0  0  0  0  0  0  0  0  0  0
  142.5980   80.0200  223.3390 C   0  0  0  0  0  0  0  0  0  0  0  0
  141.9780   79.6520  222.0340 C   0  0  1  0  0  0  0  0  0  0  0  0
  140.8550   78.6850  222.1480 C   0  0  0  0  0  0  0  0  0  0  0  0
  141.0560   77.3190  222.2900 C   0  0  0  0  0  0  0  0  0  0  0  0
  140.0440   76.4090  222.3940 C   0  0  0  0  0  0  0  0  0  0  0  0
  138.7430   76.8410  222.3610 C   0  0  0  0  0  0  0  0  0  0  0  0
  137.4790   75.6410  222.4990 Cl  0  0  0  0  0  0  0  0  0  0  0  0
  138.4800   78.1860  222.2220 C   0  0  0  0  0  0  0  0  0  0  0  0
  139.5220   79.0890  222.1170 C   0  0  0  0  0  0  0  0  0  0  0  0
  141.6300   76.7290  219.1830 C   0  0  0  0  0  0  0  0  0  0  0  0
  140.7140   75.7570  218.8230 C   0  0  0  0  0  0  0  0  0  0  0  0
  141.0840   74.4390  219.0350 C   0  0  0  0  0  0  0  0  0  0  0  0
  142.2970   74.0810  219.5750 C   0  0  0  0  0  0  0  0  0  0  0  0
  142.6570   72.7490  219.7840 C   0  0  0  0  0  0  0  0  0  0  0  0
  143.9020   72.4980  220.3350 C   0  0  0  0  0  0  0  0  0  0  0  0
  144.7730   73.5370  220.6720 C   0  0  0  0  0  0  0  0  0  0  0  0
  146.3320   73.1360  221.3650 Cl  0  0  0  0  0  0  0  0  0  0  0  0
  144.4130   74.8520  220.4640 C   0  0  0  0  0  0  0  0  0  0  0  0
  143.1710   75.1110  219.9150 C   0  0  0  0  0  0  0  0  0  0  0  0
  142.8230   76.3950  219.7130 N   0  0  0  0  0  0  0  0  0  0  0  0
  143.2510   78.7950  219.4310 H   0  0  0  0  0  0  0  0  0  0  0  0
  143.0234   81.0830  219.0123 H   0  0  0  0  0  0  0  0  0  0  0  0
  141.5719   80.7254  218.0076 H   0  0  0  0  0  0  0  0  0  0  0  0
  142.2987   82.6847  222.1348 H   0  0  0  0  0  0  0  0  0  0  0  0
  140.5656   82.4141  222.4381 H   0  0  0  0  0  0  0  0  0  0  0  0
  142.5509   81.9518  224.3038 H   0  0  0  0  0  0  0  0  0  0  0  0
  141.0045   81.1208  224.3467 H   0  0  0  0  0  0  0  0  0  0  0  0
  143.6792   80.1887  223.2269 H   0  0  0  0  0  0  0  0  0  0  0  0
  142.4960   79.2315  224.0992 H   0  0  0  0  0  0  0  0  0  0  0  0
  142.7252   79.1254  221.4222 H   0  0  0  0  0  0  0  0  0  0  0  0
  142.0912   76.9482  222.3205 H   0  0  0  0  0  0  0  0  0  0  0  0
  140.2702   75.3381  222.5034 H   0  0  0  0  0  0  0  0  0  0  0  0
  137.4396   78.5422  222.1945 H   0  0  0  0  0  0  0  0  0  0  0  0
  139.2914   80.1588  222.0056 H   0  0  0  0  0  0  0  0  0  0  0  0
  139.7377   76.0183  218.3888 H   0  0  0  0  0  0  0  0  0  0  0  0
  140.3761   73.6435  218.7592 H   0  0  0  0  0  0  0  0  0  0  0  0
  141.9752   71.9271  219.5201 H   0  0  0  0  0  0  0  0  0  0  0  0
  144.2123   71.4575  220.5114 H   0  0  0  0  0  0  0  0  0  0  0  0
  145.0960   75.6729  220.7279 H   0  0  0  0  0  0  0  0  0  0  0  0
  1  2  2  0
  2  3  1  0
  3  4  1  0
  4  5  1  0
  5  6  2  0
  5  7  1  0
  7  8  1  0
  8  9  1  0
  9 10  1  0
 10 11  1  0
 11 12  1  0
 12 13  2  0
 13 14  1  0
 14 15  2  0
 15 16  1  0
 15 17  1  0
 17 18  2  0
  2 19  1  0
 19 20  2  0
 20 21  1  0
 21 22  2  0
 22 23  1  0
 23 24  2  0
 24 25  1  0
 25 26  1  0
 25 27  2  0
 27 28  1  0
 28 29  2  0
 11  7  1  0
 18 12  1  0
 29 19  1  0
 28 22  1  0
  3 30  1  0
  4 31  1  0
  4 32  1  0
  8 33  1  0
  8 34  1  0
  9 35  1  0
  9 36  1  0
 10 37  1  0
 10 38  1  0
 11 39  1  6
 13 40  1  0
 14 41  1  0
 17 42  1  0
 18 43  1  0
 20 44  1  0
 21 45  1  0
 23 46  1  0
 24 47  1  0
 27 48  1  0
M  END
>  <smiles>  (49) 
O=C(NCC(=O)N1CCC[C@H]1c1ccc(Cl)cc1)c1ccc2ccc(Cl)cc2n1

>  <score_type>  (49) 
oracle

>  <origin>  (49) 
autodockgpu

>  <m_score__min__energy>  (49) 
-8.9399999999999995

>  <m_primary>  (49) 
energy

>  <rmsd>  (49) 
7.764395272934679

>  <m_score__min__rmsd>  (49) 
7.764395272934679

>  <meeko>  (49) 
{"free_energy": -7.09, "intermolecular_energy": -8.58, "internal_energy": -2.91, "cluster_size": 27, "cluster_id": 5, "rank_in_cluster": 14}

>  <energy>  (49) 
-6.61

>  <cluster_rmsd>  (49) 
0.0

>  <cluster>  (49) 
7

$$$$

     RDKit          3D

 48 51  0  0  0  0  0  0  0  0999 V2000
  138.0280   73.9720  221.5250 O   0  0  0  0  0  0  0  0  0  0  0  0
  139.0950   74.5080  221.8820 C   0  0  0  0  0  0  0  0  0  0  0  0
  140.2870   73.7470  221.9540 N   0  0  0  0  0  0  0  0  0  0  0  0
  140.3660   72.3390  221.6310 C   0  0  0  0  0  0  0  0  0  0  0  0
  140.1950   71.5260  222.8550 C   0  0  0  0  0  0  0  0  0  0  0  0
  140.6900   71.8300  223.9740 O   0  0  0  0  0  0  0  0  0  0  0  0
  139.4350   70.3260  222.8030 N   0  0  0  0  0  0  0  0  0  0  0  0
  139.4840   69.3990  221.7100 C   0  0  0  0  0  0  0  0  0  0  0  0
  138.6300   68.2200  222.0850 C   0  0  0  0  0  0  0  0  0  0  0  0
  137.7050   68.7700  223.1410 C   0  0  0  0  0  0  0  0  0  0  0  0
  138.5150   69.8390  223.7920 C   0  0  1  0  0  0  0  0  0  0  0  0
  139.2250   69.3980  225.0210 C   0  0  0  0  0  0  0  0  0  0  0  0
  139.6300   70.2830  226.0100 C   0  0  0  0  0  0  0  0  0  0  0  0
  140.2860   69.9050  227.1460 C   0  0  0  0  0  0  0  0  0  0  0  0
  140.5730   68.5790  227.3480 C   0  0  0  0  0  0  0  0  0  0  0  0
  141.4130   68.1400  228.8180 Cl  0  0  0  0  0  0  0  0  0  0  0  0
  140.1970   67.6520  226.4010 C   0  0  0  0  0  0  0  0  0  0  0  0
  139.5350   68.0590  225.2580 C   0  0  0  0  0  0  0  0  0  0  0  0
  139.1340   75.9420  222.2360 C   0  0  0  0  0  0  0  0  0  0  0  0
  137.9440   76.6350  222.3580 C   0  0  0  0  0  0  0  0  0  0  0  0
  138.0310   77.9760  222.6910 C   0  0  0  0  0  0  0  0  0  0  0  0
  139.2300   78.6180  222.8980 C   0  0  0  0  0  0  0  0  0  0  0  0
  139.3040   79.9710  223.2340 C   0  0  0  0  0  0  0  0  0  0  0  0
  140.5620   80.5190  223.4190 C   0  0  0  0  0  0  0  0  0  0  0  0
  141.7210   79.7510  223.2770 C   0  0  0  0  0  0  0  0  0  0  0  0
  143.2740   80.5210  223.5290 Cl  0  0  0  0  0  0  0  0  0  0  0  0
  141.6410   78.4150  222.9460 C   0  0  0  0  0  0  0  0  0  0  0  0
  140.3900   77.8600  222.7590 C   0  0  0  0  0  0  0  0  0  0  0  0
  140.3170   76.5550  222.4350 N   0  0  0  0  0  0  0  0  0  0  0  0
  141.1650   74.2580  222.2650 H   0  0  0  0  0  0  0  0  0  0  0  0
  139.5728   72.0856  220.9122 H   0  0  0  0  0  0  0  0  0  0  0  0
  141.3516   72.1253  221.1917 H   0  0  0  0  0  0  0  0  0  0  0  0
  139.0926   69.8721  220.7973 H   0  0  0  0  0  0  0  0  0  0  0  0
  140.5192   69.0832  221.5134 H   0  0  0  0  0  0  0  0  0  0  0  0
  138.0614   67.8556  221.2167 H   0  0  0  0  0  0  0  0  0  0  0  0
  139.2199   67.3621  222.4400 H   0  0  0  0  0  0  0  0  0  0  0  0
  136.7946   69.1883  222.6869 H   0  0  0  0  0  0  0  0  0  0  0  0
  137.3602   68.0027  223.8498 H   0  0  0  0  0  0  0  0  0  0  0  0
  137.8387   70.6323  224.1431 H   0  0  0  0  0  0  0  0  0  0  0  0
  139.4096   71.3516  225.8705 H   0  0  0  0  0  0  0  0  0  0  0  0
  140.5817   70.6569  227.8925 H   0  0  0  0  0  0  0  0  0  0  0  0
  140.4239   66.5867  226.5546 H   0  0  0  0  0  0  0  0  0  0  0  0
  139.2439   67.3041  224.5128 H   0  0  0  0  0  0  0  0  0  0  0  0
  136.9729   76.1437  222.1979 H   0  0  0  0  0  0  0  0  0  0  0  0
  137.1006   78.5535  222.7946 H   0  0  0  0  0  0  0  0  0  0  0  0
  138.3951   80.5801  223.3477 H   0  0  0  0  0  0  0  0  0  0  0  0
  140.6512   81.5829  223.6838 H   0  0  0  0  0  0  0  0  0  0  0  0
  142.5504   77.8064  222.8337 H   0  0  0  0  0  0  0  0  0  0  0  0
  1  2  2  0
  2  3  1  0
  3  4  1  0
  4  5  1  0
  5  6  2  0
  5  7  1  0
  7  8  1  0
  8  9  1  0
  9 10  1  0
 10 11  1  0
 11 12  1  0
 12 13  2  0
 13 14  1  0
 14 15  2  0
 15 16  1  0
 15 17  1  0
 17 18  2  0
  2 19  1  0
 19 20  2  0
 20 21  1  0
 21 22  2  0
 22 23  1  0
 23 24  2  0
 24 25  1  0
 25 26  1  0
 25 27  2  0
 27 28  1  0
 28 29  2  0
 11  7  1  0
 18 12  1  0
 29 19  1  0
 28 22  1  0
  3 30  1  0
  4 31  1  0
  4 32  1  0
  8 33  1  0
  8 34  1  0
  9 35  1  0
  9 36  1  0
 10 37  1  0
 10 38  1  0
 11 39  1  1
 13 40  1  0
 14 41  1  0
 17 42  1  0
 18 43  1  0
 20 44  1  0
 21 45  1  0
 23 46  1  0
 24 47  1  0
 27 48  1  0
M  END
>  <smiles>  (50) 
O=C(NCC(=O)N1CCC[C@H]1c1ccc(Cl)cc1)c1ccc2ccc(Cl)cc2n1

>  <score_type>  (50) 
oracle

>  <origin>  (50) 
autodockgpu

>  <m_score__min__energy>  (50) 
-8.9399999999999995

>  <m_primary>  (50) 
energy

>  <rmsd>  (50) 
7.963433888455427

>  <m_score__min__rmsd>  (50) 
7.963433888455427

>  <meeko>  (50) 
{"free_energy": -8.45, "intermolecular_energy": -9.95, "internal_energy": -1.56, "cluster_size": 8, "cluster_id": 1, "rank_in_cluster": 3}

>  <energy>  (50) 
-6.55

>  <cluster_rmsd>  (50) 
0.15

>  <cluster>  (50) 
7

$$$$
