
     RDKit          3D

 53 56  0  0  0  0  0  0  0  0999 V2000
  140.6150   74.0500  222.3350 O   0  0  0  0  0  0  0  0  0  0  0  0
  139.9010   75.0070  221.9250 C   0  0  0  0  0  0  0  0  0  0  0  0
  138.5340   74.8150  221.5790 N   0  0  0  0  0  0  0  0  0  0  0  0
  137.8960   73.5160  221.6800 C   0  0  0  0  0  0  0  0  0  0  0  0
  138.0420   72.7370  220.4250 C   0  0  0  0  0  0  0  0  0  0  0  0
  137.0130   72.2270  219.9170 O   0  0  0  0  0  0  0  0  0  0  0  0
  139.3440   72.6110  219.8680 N   0  0  0  0  0  0  0  0  0  0  0  0
  139.9730   73.4600  218.8560 C   0  0  0  0  0  0  0  0  0  0  0  0
  141.4480   73.2450  218.9800 C   0  0  0  0  0  0  0  0  0  0  0  0
  141.5550   72.4950  220.3260 C   0  0  0  0  0  0  0  0  0  0  0  0
  140.3620   71.6090  220.1720 C   0  0  1  0  0  0  0  0  0  0  0  0
  139.9990   70.7260  221.2990 C   0  0  0  0  0  0  0  0  0  0  0  0
  140.0380   71.4380  222.5430 N   0  0  0  0  0  0  0  0  0  0  0  0
  140.0620   70.8830  223.8390 C   0  0  0  0  0  0  0  0  0  0  0  0
  139.5670   69.5880  224.0610 C   0  0  0  0  0  0  0  0  0  0  0  0
  139.5450   69.0260  225.3180 C   0  0  0  0  0  0  0  0  0  0  0  0
  140.0060   69.7030  226.4250 C   0  0  0  0  0  0  0  0  0  0  0  0
  139.9970   69.0310  228.0370 Cl  0  0  0  0  0  0  0  0  0  0  0  0
  140.4940   70.9710  226.2280 C   0  0  0  0  0  0  0  0  0  0  0  0
  141.0980   71.8870  227.6080 Cl  0  0  0  0  0  0  0  0  0  0  0  0
  140.5140   71.5320  224.9650 C   0  0  0  0  0  0  0  0  0  0  0  0
  140.4520   76.3620  221.7880 C   0  0  0  0  0  0  0  0  0  0  0  0
  140.5160   76.9610  220.5470 C   0  0  0  0  0  0  0  0  0  0  0  0
  141.0300   78.2450  220.3680 C   0  0  0  0  0  0  0  0  0  0  0  0
  141.4860   78.9300  221.4670 C   0  0  0  0  0  0  0  0  0  0  0  0
  142.0160   80.2010  221.4180 C   0  0  0  0  0  0  0  0  0  0  0  0
  142.4600   80.8390  222.5600 C   0  0  0  0  0  0  0  0  0  0  0  0
  142.3790   80.2050  223.7840 C   0  0  0  0  0  0  0  0  0  0  0  0
  141.8520   78.9360  223.8480 C   0  0  0  0  0  0  0  0  0  0  0  0
  141.4040   78.2890  222.6960 C   0  0  0  0  0  0  0  0  0  0  0  0
  140.9090   77.0610  222.8480 N   0  0  0  0  0  0  0  0  0  0  0  0
  137.9660   75.6330  221.2400 H   0  0  0  0  0  0  0  0  0  0  0  0
  138.3586   72.9542  222.5048 H   0  0  0  0  0  0  0  0  0  0  0  0
  136.8231   73.6729  221.8649 H   0  0  0  0  0  0  0  0  0  0  0  0
  139.6299   73.1719  217.8514 H   0  0  0  0  0  0  0  0  0  0  0  0
  139.7109   74.5179  219.0048 H   0  0  0  0  0  0  0  0  0  0  0  0
  141.8332   72.6335  218.1507 H   0  0  0  0  0  0  0  0  0  0  0  0
  142.0348   74.1747  218.9441 H   0  0  0  0  0  0  0  0  0  0  0  0
  142.4903   71.9221  220.4096 H   0  0  0  0  0  0  0  0  0  0  0  0
  141.5726   73.1252  221.2274 H   0  0  0  0  0  0  0  0  0  0  0  0
  140.5277   70.8267  219.4166 H   0  0  0  0  0  0  0  0  0  0  0  0
  138.9824   70.3375  221.1386 H   0  0  0  0  0  0  0  0  0  0  0  0
  140.7243   69.9003  221.3449 H   0  0  0  0  0  0  0  0  0  0  0  0
  140.0490   72.5000  222.4870 H   0  0  0  0  0  0  0  0  0  0  0  0
  139.1866   69.0068  223.2081 H   0  0  0  0  0  0  0  0  0  0  0  0
  139.1480   68.0076  225.4413 H   0  0  0  0  0  0  0  0  0  0  0  0
  140.9124   72.5513  224.8541 H   0  0  0  0  0  0  0  0  0  0  0  0
  140.1496   76.4077  219.6698 H   0  0  0  0  0  0  0  0  0  0  0  0
  141.0693   78.6995  219.3671 H   0  0  0  0  0  0  0  0  0  0  0  0
  142.0870   80.7182  220.4498 H   0  0  0  0  0  0  0  0  0  0  0  0
  142.8789   81.8540  222.4942 H   0  0  0  0  0  0  0  0  0  0  0  0
  142.7314   80.7084  224.6964 H   0  0  0  0  0  0  0  0  0  0  0  0
  141.7829   78.4250  224.8196 H   0  0  0  0  0  0  0  0  0  0  0  0
  1  2  2  0
  2  3  1  0
  3  4  1  0
  4  5  1  0
  5  6  2  0
  5  7  1  0
  7  8  1  0
  8  9  1  0
  9 10  1  0
 10 11  1  0
 11 12  1  0
 12 13  1  0
 13 14  1  0
 14 15  2  0
 15 16  1  0
 16 17  2  0
 17 18  1  0
 17 19  1  0
 19 20  1  0
 19 21  2  0
  2 22  1  0
 22 23  2  0
 23 24  1  0
 24 25  2  0
 25 26  1  0
 26 27  2  0
 27 28  1  0
 28 29  2  0
 29 30  1  0
 30 31  2  0
 11  7  1  0
 21 14  1  0
 31 22  1  0
 30 25  1  0
  3 32  1  0
  4 33  1  0
  4 34  1  0
  8 35  1  0
  8 36  1  0
  9 37  1  0
  9 38  1  0
 10 39  1  0
 10 40  1  0
 11 41  1  6
 12 42  1  0
 12 43  1  0
 13 44  1  0
 15 45  1  0
 16 46  1  0
 21 47  1  0
 23 48  1  0
 24 49  1  0
 26 50  1  0
 27 51  1  0
 28 52  1  0
 29 53  1  0
M  END
>  <smiles>  (1) 
O=C(NCC(=O)N1CCC[C@H]1CNc1ccc(Cl)c(Cl)c1)c1ccc2ccccc2n1

>  <score_type>  (1) 
oracle

>  <origin>  (1) 
autodockgpu

>  <m_score__min__energy>  (1) 
-9.3599999999999994

>  <m_primary>  (1) 
energy

>  <rmsd>  (1) 
8.17782852187506

>  <m_score__min__rmsd>  (1) 
8.17782852187506

>  <meeko>  (1) 
{"free_energy": -8.08, "intermolecular_energy": -10.17, "internal_energy": -2.55, "cluster_size": 17, "cluster_id": 3, "rank_in_cluster": 14}

>  <energy>  (1) 
-9.36

>  <cluster_rmsd>  (1) 
0.0

>  <cluster>  (1) 
1

$$$$

     RDKit          3D

 53 56  0  0  0  0  0  0  0  0999 V2000
  140.5520   71.3360  221.2400 O   0  0  0  0  0  0  0  0  0  0  0  0
  140.2130   71.9340  222.2980 C   0  0  0  0  0  0  0  0  0  0  0  0
  139.8770   73.3170  222.2930 N   0  0  0  0  0  0  0  0  0  0  0  0
  139.9080   74.1050  221.0740 C   0  0  0  0  0  0  0  0  0  0  0  0
  140.6840   75.3570  221.2530 C   0  0  0  0  0  0  0  0  0  0  0  0
  140.5370   76.0010  222.3210 O   0  0  0  0  0  0  0  0  0  0  0  0
  141.5530   75.7570  220.2020 N   0  0  0  0  0  0  0  0  0  0  0  0
  141.4570   76.9550  219.3660 C   0  0  0  0  0  0  0  0  0  0  0  0
  142.8200   77.1790  218.7900 C   0  0  0  0  0  0  0  0  0  0  0  0
  143.6910   76.2270  219.6390 C   0  0  0  0  0  0  0  0  0  0  0  0
  142.7440   75.0730  219.7060 C   0  0  1  0  0  0  0  0  0  0  0  0
  143.1290   73.9010  220.5180 C   0  0  0  0  0  0  0  0  0  0  0  0
  142.6400   72.6870  219.9310 N   0  0  0  0  0  0  0  0  0  0  0  0
  143.4060   71.5930  219.4800 C   0  0  0  0  0  0  0  0  0  0  0  0
  143.3890   70.3800  220.1870 C   0  0  0  0  0  0  0  0  0  0  0  0
  144.1490   69.3010  219.7940 C   0  0  0  0  0  0  0  0  0  0  0  0
  144.9670   69.3540  218.6870 C   0  0  0  0  0  0  0  0  0  0  0  0
  145.9490   68.0110  218.1530 Cl  0  0  0  0  0  0  0  0  0  0  0  0
  144.9980   70.5310  217.9830 C   0  0  0  0  0  0  0  0  0  0  0  0
  146.0270   70.6570  216.5580 Cl  0  0  0  0  0  0  0  0  0  0  0  0
  144.2340   71.6130  218.3800 C   0  0  0  0  0  0  0  0  0  0  0  0
  140.1500   71.2260  223.5850 C   0  0  0  0  0  0  0  0  0  0  0  0
  139.6010   69.9620  223.6530 C   0  0  0  0  0  0  0  0  0  0  0  0
  139.5200   69.2510  224.8500 C   0  0  0  0  0  0  0  0  0  0  0  0
  140.0030   69.8350  225.9950 C   0  0  0  0  0  0  0  0  0  0  0  0
  139.9790   69.2360  227.2350 C   0  0  0  0  0  0  0  0  0  0  0  0
  140.4810   69.8750  228.3520 C   0  0  0  0  0  0  0  0  0  0  0  0
  141.0220   71.1400  228.2430 C   0  0  0  0  0  0  0  0  0  0  0  0
  141.0520   71.7510  227.0110 C   0  0  0  0  0  0  0  0  0  0  0  0
  140.5460   71.1080  225.8810 C   0  0  0  0  0  0  0  0  0  0  0  0
  140.6150   71.7720  224.7280 N   0  0  0  0  0  0  0  0  0  0  0  0
  139.5980   73.7860  223.1920 H   0  0  0  0  0  0  0  0  0  0  0  0
  140.3722   73.5084  220.2749 H   0  0  0  0  0  0  0  0  0  0  0  0
  138.8743   74.3751  220.8124 H   0  0  0  0  0  0  0  0  0  0  0  0
  140.7245   76.7989  218.5603 H   0  0  0  0  0  0  0  0  0  0  0  0
  141.1240   77.8244  219.9519 H   0  0  0  0  0  0  0  0  0  0  0  0
  142.8529   76.9068  217.7247 H   0  0  0  0  0  0  0  0  0  0  0  0
  143.1482   78.2283  218.8251 H   0  0  0  0  0  0  0  0  0  0  0  0
  144.6322   75.9636  219.1343 H   0  0  0  0  0  0  0  0  0  0  0  0
  144.0341   76.6237  220.6059 H   0  0  0  0  0  0  0  0  0  0  0  0
  142.6536   74.5601  218.7371 H   0  0  0  0  0  0  0  0  0  0  0  0
  144.2260   73.8529  220.5830 H   0  0  0  0  0  0  0  0  0  0  0  0
  142.6884   74.0085  221.5201 H   0  0  0  0  0  0  0  0  0  0  0  0
  141.5850   72.5980  219.8230 H   0  0  0  0  0  0  0  0  0  0  0  0
  142.7515   70.2892  221.0788 H   0  0  0  0  0  0  0  0  0  0  0  0
  144.1016   68.3714  220.3801 H   0  0  0  0  0  0  0  0  0  0  0  0
  144.2906   72.5374  217.7865 H   0  0  0  0  0  0  0  0  0  0  0  0
  139.2144   69.4998  222.7327 H   0  0  0  0  0  0  0  0  0  0  0  0
  139.0786   68.2438  224.8763 H   0  0  0  0  0  0  0  0  0  0  0  0
  139.5512   68.2278  227.3380 H   0  0  0  0  0  0  0  0  0  0  0  0
  140.4495   69.3743  229.3310 H   0  0  0  0  0  0  0  0  0  0  0  0
  141.4238   71.6527  229.1294 H   0  0  0  0  0  0  0  0  0  0  0  0
  141.4805   72.7596  226.9155 H   0  0  0  0  0  0  0  0  0  0  0  0
  1  2  2  0
  2  3  1  0
  3  4  1  0
  4  5  1  0
  5  6  2  0
  5  7  1  0
  7  8  1  0
  8  9  1  0
  9 10  1  0
 10 11  1  0
 11 12  1  0
 12 13  1  0
 13 14  1  0
 14 15  2  0
 15 16  1  0
 16 17  2  0
 17 18  1  0
 17 19  1  0
 19 20  1  0
 19 21  2  0
  2 22  1  0
 22 23  2  0
 23 24  1  0
 24 25  2  0
 25 26  1  0
 26 27  2  0
 27 28  1  0
 28 29  2  0
 29 30  1  0
 30 31  2  0
 11  7  1  0
 21 14  1  0
 31 22  1  0
 30 25  1  0
  3 32  1  0
  4 33  1  0
  4 34  1  0
  8 35  1  0
  8 36  1  0
  9 37  1  0
  9 38  1  0
 10 39  1  0
 10 40  1  0
 11 41  1  6
 12 42  1  0
 12 43  1  0
 13 44  1  0
 15 45  1  0
 16 46  1  0
 21 47  1  0
 23 48  1  0
 24 49  1  0
 26 50  1  0
 27 51  1  0
 28 52  1  0
 29 53  1  0
M  END
>  <smiles>  (2) 
O=C(NCC(=O)N1CCC[C@H]1CNc1ccc(Cl)c(Cl)c1)c1ccc2ccccc2n1

>  <score_type>  (2) 
oracle

>  <origin>  (2) 
autodockgpu

>  <m_score__min__energy>  (2) 
-9.3599999999999994

>  <m_primary>  (2) 
energy

>  <rmsd>  (2) 
5.384455195579051

>  <m_score__min__rmsd>  (2) 
5.384455195579051

>  <meeko>  (2) 
{"free_energy": -7.78, "intermolecular_energy": -9.86, "internal_energy": -2.59, "cluster_size": 1, "cluster_id": 7, "rank_in_cluster": 1}

>  <energy>  (2) 
-8.41

>  <cluster_rmsd>  (2) 
1.01

>  <cluster>  (2) 
1

$$$$

     RDKit          3D

 53 56  0  0  0  0  0  0  0  0999 V2000
  139.2460   74.2800  222.3740 O   0  0  0  0  0  0  0  0  0  0  0  0
  139.7250   75.2070  221.6640 C   0  0  0  0  0  0  0  0  0  0  0  0
  140.1840   74.9630  220.3390 N   0  0  0  0  0  0  0  0  0  0  0  0
  140.1230   73.6420  219.7420 C   0  0  0  0  0  0  0  0  0  0  0  0
  140.6570   72.6040  220.6570 C   0  0  0  0  0  0  0  0  0  0  0  0
  141.5300   72.9400  221.4950 O   0  0  0  0  0  0  0  0  0  0  0  0
  140.1490   71.2820  220.5330 N   0  0  0  0  0  0  0  0  0  0  0  0
  140.5710   70.2430  219.5920 C   0  0  0  0  0  0  0  0  0  0  0  0
  140.1240   68.9390  220.1740 C   0  0  0  0  0  0  0  0  0  0  0  0
  139.7460   69.3400  221.6170 C   0  0  0  0  0  0  0  0  0  0  0  0
  139.0890   70.6470  221.3110 C   0  0  1  0  0  0  0  0  0  0  0  0
  138.6150   71.4710  222.4410 C   0  0  0  0  0  0  0  0  0  0  0  0
  139.6850   71.7590  223.3520 N   0  0  0  0  0  0  0  0  0  0  0  0
  139.9660   71.1020  224.5670 C   0  0  0  0  0  0  0  0  0  0  0  0
  140.6750   71.7660  225.5800 C   0  0  0  0  0  0  0  0  0  0  0  0
  140.9950   71.1450  226.7670 C   0  0  0  0  0  0  0  0  0  0  0  0
  140.6380   69.8410  227.0240 C   0  0  0  0  0  0  0  0  0  0  0  0
  141.0240   69.0140  228.5140 Cl  0  0  0  0  0  0  0  0  0  0  0  0
  139.9440   69.1740  226.0460 C   0  0  0  0  0  0  0  0  0  0  0  0
  139.4610   67.5010  226.3180 Cl  0  0  0  0  0  0  0  0  0  0  0  0
  139.6250   69.8000  224.8550 C   0  0  0  0  0  0  0  0  0  0  0  0
  139.8300   76.5810  222.1770 C   0  0  0  0  0  0  0  0  0  0  0  0
  141.0680   77.1300  222.4360 C   0  0  0  0  0  0  0  0  0  0  0  0
  141.2170   78.4290  222.9220 C   0  0  0  0  0  0  0  0  0  0  0  0
  140.0890   79.1790  223.1490 C   0  0  0  0  0  0  0  0  0  0  0  0
  140.1070   80.4710  223.6280 C   0  0  0  0  0  0  0  0  0  0  0  0
  138.9370   81.1760  223.8360 C   0  0  0  0  0  0  0  0  0  0  0  0
  137.7170   80.5900  223.5650 C   0  0  0  0  0  0  0  0  0  0  0  0
  137.6850   79.3010  223.0860 C   0  0  0  0  0  0  0  0  0  0  0  0
  138.8640   78.5860  222.8750 C   0  0  0  0  0  0  0  0  0  0  0  0
  138.7420   77.3430  222.4110 N   0  0  0  0  0  0  0  0  0  0  0  0
  140.5780   75.7580  219.7740 H   0  0  0  0  0  0  0  0  0  0  0  0
  139.0751   73.4050  219.5061 H   0  0  0  0  0  0  0  0  0  0  0  0
  140.7393   73.6475  218.8309 H   0  0  0  0  0  0  0  0  0  0  0  0
  140.0993   70.4035  218.6113 H   0  0  0  0  0  0  0  0  0  0  0  0
  141.6605   70.2599  219.4416 H   0  0  0  0  0  0  0  0  0  0  0  0
  139.2560   68.5364  219.6313 H   0  0  0  0  0  0  0  0  0  0  0  0
  140.8852   68.1467  220.1203 H   0  0  0  0  0  0  0  0  0  0  0  0
  139.0509   68.6235  222.0790 H   0  0  0  0  0  0  0  0  0  0  0  0
  140.5756   69.3766  222.3384 H   0  0  0  0  0  0  0  0  0  0  0  0
  138.1196   70.5112  220.8092 H   0  0  0  0  0  0  0  0  0  0  0  0
  138.2099   72.4166  222.0515 H   0  0  0  0  0  0  0  0  0  0  0  0
  137.8367   70.9113  222.9804 H   0  0  0  0  0  0  0  0  0  0  0  0
  140.3410   72.5530  223.0860 H   0  0  0  0  0  0  0  0  0  0  0  0
  140.9833   72.8100  225.4218 H   0  0  0  0  0  0  0  0  0  0  0  0
  141.5517   71.7072  227.5312 H   0  0  0  0  0  0  0  0  0  0  0  0
  139.0694   69.2272  224.0978 H   0  0  0  0  0  0  0  0  0  0  0  0
  141.9676   76.5238  222.2534 H   0  0  0  0  0  0  0  0  0  0  0  0
  142.2165   78.8438  223.1192 H   0  0  0  0  0  0  0  0  0  0  0  0
  141.0719   80.9506  223.8492 H   0  0  0  0  0  0  0  0  0  0  0  0
  138.9779   82.2066  224.2184 H   0  0  0  0  0  0  0  0  0  0  0  0
  136.7826   81.1465  223.7299 H   0  0  0  0  0  0  0  0  0  0  0  0
  136.7167   78.8276  222.8664 H   0  0  0  0  0  0  0  0  0  0  0  0
  1  2  2  0
  2  3  1  0
  3  4  1  0
  4  5  1  0
  5  6  2  0
  5  7  1  0
  7  8  1  0
  8  9  1  0
  9 10  1  0
 10 11  1  0
 11 12  1  0
 12 13  1  0
 13 14  1  0
 14 15  2  0
 15 16  1  0
 16 17  2  0
 17 18  1  0
 17 19  1  0
 19 20  1  0
 19 21  2  0
  2 22  1  0
 22 23  2  0
 23 24  1  0
 24 25  2  0
 25 26  1  0
 26 27  2  0
 27 28  1  0
 28 29  2  0
 29 30  1  0
 30 31  2  0
 11  7  1  0
 21 14  1  0
 31 22  1  0
 30 25  1  0
  3 32  1  0
  4 33  1  0
  4 34  1  0
  8 35  1  0
  8 36  1  0
  9 37  1  0
  9 38  1  0
 10 39  1  0
 10 40  1  0
 11 41  1  6
 12 42  1  0
 12 43  1  0
 13 44  1  0
 15 45  1  0
 16 46  1  0
 21 47  1  0
 23 48  1  0
 24 49  1  0
 26 50  1  0
 27 51  1  0
 28 52  1  0
 29 53  1  0
M  END
>  <smiles>  (3) 
O=C(NCC(=O)N1CCC[C@H]1CNc1ccc(Cl)c(Cl)c1)c1ccc2ccccc2n1

>  <score_type>  (3) 
oracle

>  <origin>  (3) 
autodockgpu

>  <m_score__min__energy>  (3) 
-9.3599999999999994

>  <m_primary>  (3) 
energy

>  <rmsd>  (3) 
8.718200816136617

>  <m_score__min__rmsd>  (3) 
8.718200816136617

>  <meeko>  (3) 
{"free_energy": -7.44, "intermolecular_energy": -9.52, "internal_energy": -2.8, "cluster_size": 17, "cluster_id": 3, "rank_in_cluster": 17}

>  <energy>  (3) 
-7.92

>  <cluster_rmsd>  (3) 
1.65

>  <cluster>  (3) 
1

$$$$

     RDKit          3D

 53 56  0  0  0  0  0  0  0  0999 V2000
  138.4330   75.6330  222.0240 O   0  0  0  0  0  0  0  0  0  0  0  0
  139.6300   75.9950  222.1960 C   0  0  0  0  0  0  0  0  0  0  0  0
  140.7120   75.0890  222.0150 N   0  0  0  0  0  0  0  0  0  0  0  0
  140.4940   73.7080  221.6270 C   0  0  0  0  0  0  0  0  0  0  0  0
  141.1700   73.3880  220.3450 C   0  0  0  0  0  0  0  0  0  0  0  0
  140.5060   72.8110  219.4490 O   0  0  0  0  0  0  0  0  0  0  0  0
  142.5370   73.7520  220.2050 N   0  0  0  0  0  0  0  0  0  0  0  0
  143.7170   72.9320  220.4820 C   0  0  0  0  0  0  0  0  0  0  0  0
  144.8490   73.5510  219.7230 C   0  0  0  0  0  0  0  0  0  0  0  0
  144.1130   74.5320  218.7850 C   0  0  0  0  0  0  0  0  0  0  0  0
  143.0880   75.0270  219.7530 C   0  0  1  0  0  0  0  0  0  0  0  0
  142.0630   75.9700  219.2640 C   0  0  0  0  0  0  0  0  0  0  0  0
  142.1240   77.2120  219.9780 N   0  0  0  0  0  0  0  0  0  0  0  0
  142.0990   78.5100  219.4290 C   0  0  0  0  0  0  0  0  0  0  0  0
  142.5760   78.7350  218.1280 C   0  0  0  0  0  0  0  0  0  0  0  0
  142.5980   79.9940  217.5710 C   0  0  0  0  0  0  0  0  0  0  0  0
  142.1540   81.1000  218.2600 C   0  0  0  0  0  0  0  0  0  0  0  0
  142.1630   82.7160  217.5940 Cl  0  0  0  0  0  0  0  0  0  0  0  0
  141.6830   80.9020  219.5340 C   0  0  0  0  0  0  0  0  0  0  0  0
  141.1020   82.2810  220.4640 Cl  0  0  0  0  0  0  0  0  0  0  0  0
  141.6630   79.6360  220.0900 C   0  0  0  0  0  0  0  0  0  0  0  0
  139.9580   77.3730  222.5900 C   0  0  0  0  0  0  0  0  0  0  0  0
  138.9490   78.2820  222.8320 C   0  0  0  0  0  0  0  0  0  0  0  0
  139.2110   79.5990  223.2090 C   0  0  0  0  0  0  0  0  0  0  0  0
  140.5190   79.9970  223.3400 C   0  0  0  0  0  0  0  0  0  0  0  0
  140.9040   81.2690  223.7050 C   0  0  0  0  0  0  0  0  0  0  0  0
  142.2380   81.6100  223.8200 C   0  0  0  0  0  0  0  0  0  0  0  0
  143.2180   80.6720  223.5690 C   0  0  0  0  0  0  0  0  0  0  0  0
  142.8470   79.3980  223.2040 C   0  0  0  0  0  0  0  0  0  0  0  0
  141.5020   79.0500  223.0860 C   0  0  0  0  0  0  0  0  0  0  0  0
  141.2320   77.7960  222.7270 N   0  0  0  0  0  0  0  0  0  0  0  0
  141.6980   75.4230  222.1670 H   0  0  0  0  0  0  0  0  0  0  0  0
  140.8903   73.0492  222.4138 H   0  0  0  0  0  0  0  0  0  0  0  0
  139.4130   73.5543  221.4939 H   0  0  0  0  0  0  0  0  0  0  0  0
  143.9363   72.9326  221.5599 H   0  0  0  0  0  0  0  0  0  0  0  0
  143.5570   71.8871  220.1779 H   0  0  0  0  0  0  0  0  0  0  0  0
  145.5372   74.0830  220.3963 H   0  0  0  0  0  0  0  0  0  0  0  0
  145.4779   72.8204  219.1932 H   0  0  0  0  0  0  0  0  0  0  0  0
  144.7708   75.3381  218.4280 H   0  0  0  0  0  0  0  0  0  0  0  0
  143.7229   74.1017  217.8508 H   0  0  0  0  0  0  0  0  0  0  0  0
  143.5310   75.6765  220.5223 H   0  0  0  0  0  0  0  0  0  0  0  0
  142.2319   76.1616  218.1941 H   0  0  0  0  0  0  0  0  0  0  0  0
  141.0709   75.5226  219.4238 H   0  0  0  0  0  0  0  0  0  0  0  0
  142.1960   77.1520  221.0380 H   0  0  0  0  0  0  0  0  0  0  0  0
  142.9422   77.8822  217.5375 H   0  0  0  0  0  0  0  0  0  0  0  0
  142.9808   80.1195  216.5474 H   0  0  0  0  0  0  0  0  0  0  0  0
  141.2784   79.5228  221.1144 H   0  0  0  0  0  0  0  0  0  0  0  0
  137.9035   77.9575  222.7241 H   0  0  0  0  0  0  0  0  0  0  0  0
  138.3877   80.3038  223.3974 H   0  0  0  0  0  0  0  0  0  0  0  0
  140.1341   82.0277  223.9088 H   0  0  0  0  0  0  0  0  0  0  0  0
  142.5195   82.6324  224.1126 H   0  0  0  0  0  0  0  0  0  0  0  0
  144.2813   80.9387  223.6594 H   0  0  0  0  0  0  0  0  0  0  0  0
  143.6221   78.6440  223.0026 H   0  0  0  0  0  0  0  0  0  0  0  0
  1  2  2  0
  2  3  1  0
  3  4  1  0
  4  5  1  0
  5  6  2  0
  5  7  1  0
  7  8  1  0
  8  9  1  0
  9 10  1  0
 10 11  1  0
 11 12  1  0
 12 13  1  0
 13 14  1  0
 14 15  2  0
 15 16  1  0
 16 17  2  0
 17 18  1  0
 17 19  1  0
 19 20  1  0
 19 21  2  0
  2 22  1  0
 22 23  2  0
 23 24  1  0
 24 25  2  0
 25 26  1  0
 26 27  2  0
 27 28  1  0
 28 29  2  0
 29 30  1  0
 30 31  2  0
 11  7  1  0
 21 14  1  0
 31 22  1  0
 30 25  1  0
  3 32  1  0
  4 33  1  0
  4 34  1  0
  8 35  1  0
  8 36  1  0
  9 37  1  0
  9 38  1  0
 10 39  1  0
 10 40  1  0
 11 41  1  1
 12 42  1  0
 12 43  1  0
 13 44  1  0
 15 45  1  0
 16 46  1  0
 21 47  1  0
 23 48  1  0
 24 49  1  0
 26 50  1  0
 27 51  1  0
 28 52  1  0
 29 53  1  0
M  END
>  <smiles>  (4) 
O=C(NCC(=O)N1CCC[C@H]1CNc1ccc(Cl)c(Cl)c1)c1ccc2ccccc2n1

>  <score_type>  (4) 
oracle

>  <origin>  (4) 
autodockgpu

>  <m_score__min__energy>  (4) 
-9.3599999999999994

>  <m_primary>  (4) 
energy

>  <rmsd>  (4) 
6.920629559259003

>  <m_score__min__rmsd>  (4) 
6.920629559259003

>  <meeko>  (4) 
{"free_energy": -7.55, "intermolecular_energy": -9.64, "internal_energy": -3.65, "cluster_size": 3, "cluster_id": 8, "rank_in_cluster": 1}

>  <energy>  (4) 
-9.31

>  <cluster_rmsd>  (4) 
0.0

>  <cluster>  (4) 
2

$$$$

     RDKit          3D

 53 56  0  0  0  0  0  0  0  0999 V2000
  139.6690   71.4690  221.0850 O   0  0  0  0  0  0  0  0  0  0  0  0
  139.7050   72.0810  222.1880 C   0  0  0  0  0  0  0  0  0  0  0  0
  139.6310   73.5010  222.2500 N   0  0  0  0  0  0  0  0  0  0  0  0
  139.5100   74.3120  221.0530 C   0  0  0  0  0  0  0  0  0  0  0  0
  140.5030   73.9180  220.0240 C   0  0  0  0  0  0  0  0  0  0  0  0
  140.0850   73.5970  218.8840 O   0  0  0  0  0  0  0  0  0  0  0  0
  141.8770   73.9250  220.3880 N   0  0  0  0  0  0  0  0  0  0  0  0
  142.6090   72.9120  221.1500 C   0  0  0  0  0  0  0  0  0  0  0  0
  144.0580   73.1110  220.8360 C   0  0  0  0  0  0  0  0  0  0  0  0
  143.9990   74.0620  219.6210 C   0  0  0  0  0  0  0  0  0  0  0  0
  142.8840   74.9400  220.0890 C   0  0  1  0  0  0  0  0  0  0  0  0
  142.4000   75.9980  219.1800 C   0  0  0  0  0  0  0  0  0  0  0  0
  142.5730   77.2960  219.7650 N   0  0  0  0  0  0  0  0  0  0  0  0
  141.7690   77.8950  220.7560 C   0  0  0  0  0  0  0  0  0  0  0  0
  140.4090   77.5600  220.8580 C   0  0  0  0  0  0  0  0  0  0  0  0
  139.5860   78.1480  221.7930 C   0  0  0  0  0  0  0  0  0  0  0  0
  140.0510   79.0970  222.6760 C   0  0  0  0  0  0  0  0  0  0  0  0
  139.0440   79.8690  223.8760 Cl  0  0  0  0  0  0  0  0  0  0  0  0
  141.3780   79.4380  222.5910 C   0  0  0  0  0  0  0  0  0  0  0  0
  142.0290   80.6470  223.6950 Cl  0  0  0  0  0  0  0  0  0  0  0  0
  142.2010   78.8460  221.6520 C   0  0  0  0  0  0  0  0  0  0  0  0
  139.8260   71.3520  223.4580 C   0  0  0  0  0  0  0  0  0  0  0  0
  139.4130   70.0390  223.5440 C   0  0  0  0  0  0  0  0  0  0  0  0
  139.5090   69.3060  224.7270 C   0  0  0  0  0  0  0  0  0  0  0  0
  140.0310   69.9190  225.8390 C   0  0  0  0  0  0  0  0  0  0  0  0
  140.1760   69.3020  227.0630 C   0  0  0  0  0  0  0  0  0  0  0  0
  140.7090   69.9720  228.1470 C   0  0  0  0  0  0  0  0  0  0  0  0
  141.1110   71.2860  228.0200 C   0  0  0  0  0  0  0  0  0  0  0  0
  140.9720   71.9150  226.8040 C   0  0  0  0  0  0  0  0  0  0  0  0
  140.4330   71.2410  225.7080 C   0  0  0  0  0  0  0  0  0  0  0  0
  140.3340   71.9250  224.5690 N   0  0  0  0  0  0  0  0  0  0  0  0
  139.6650   73.9800  223.1860 H   0  0  0  0  0  0  0  0  0  0  0  0
  138.4985   74.1884  220.6388 H   0  0  0  0  0  0  0  0  0  0  0  0
  139.6966   75.3607  221.3275 H   0  0  0  0  0  0  0  0  0  0  0  0
  142.4317   73.0449  222.2274 H   0  0  0  0  0  0  0  0  0  0  0  0
  142.2792   71.8972  220.8828 H   0  0  0  0  0  0  0  0  0  0  0  0
  144.5893   73.5746  221.6803 H   0  0  0  0  0  0  0  0  0  0  0  0
  144.6004   72.1746  220.6387 H   0  0  0  0  0  0  0  0  0  0  0  0
  144.9373   74.6195  219.4838 H   0  0  0  0  0  0  0  0  0  0  0  0
  143.8534   73.5818  218.6421 H   0  0  0  0  0  0  0  0  0  0  0  0
  143.1952   75.5896  220.9204 H   0  0  0  0  0  0  0  0  0  0  0  0
  142.9658   75.9496  218.2379 H   0  0  0  0  0  0  0  0  0  0  0  0
  141.3278   75.8372  218.9939 H   0  0  0  0  0  0  0  0  0  0  0  0
  143.3950   77.8740  219.4150 H   0  0  0  0  0  0  0  0  0  0  0  0
  139.9899   76.8081  220.1731 H   0  0  0  0  0  0  0  0  0  0  0  0
  138.5276   77.8512  221.8356 H   0  0  0  0  0  0  0  0  0  0  0  0
  143.2573   79.1510  221.6190 H   0  0  0  0  0  0  0  0  0  0  0  0
  138.9940   69.5537  222.6502 H   0  0  0  0  0  0  0  0  0  0  0  0
  139.1736   68.2592  224.7680 H   0  0  0  0  0  0  0  0  0  0  0  0
  139.8608   68.2545  227.1790 H   0  0  0  0  0  0  0  0  0  0  0  0
  140.8132   69.4571  229.1134 H   0  0  0  0  0  0  0  0  0  0  0  0
  141.5371   71.8237  228.8798 H   0  0  0  0  0  0  0  0  0  0  0  0
  141.2899   72.9624  226.6948 H   0  0  0  0  0  0  0  0  0  0  0  0
  1  2  2  0
  2  3  1  0
  3  4  1  0
  4  5  1  0
  5  6  2  0
  5  7  1  0
  7  8  1  0
  8  9  1  0
  9 10  1  0
 10 11  1  0
 11 12  1  0
 12 13  1  0
 13 14  1  0
 14 15  2  0
 15 16  1  0
 16 17  2  0
 17 18  1  0
 17 19  1  0
 19 20  1  0
 19 21  2  0
  2 22  1  0
 22 23  2  0
 23 24  1  0
 24 25  2  0
 25 26  1  0
 26 27  2  0
 27 28  1  0
 28 29  2  0
 29 30  1  0
 30 31  2  0
 11  7  1  0
 21 14  1  0
 31 22  1  0
 30 25  1  0
  3 32  1  0
  4 33  1  0
  4 34  1  0
  8 35  1  0
  8 36  1  0
  9 37  1  0
  9 38  1  0
 10 39  1  0
 10 40  1  0
 11 41  1  1
 12 42  1  0
 12 43  1  0
 13 44  1  0
 15 45  1  0
 16 46  1  0
 21 47  1  0
 23 48  1  0
 24 49  1  0
 26 50  1  0
 27 51  1  0
 28 52  1  0
 29 53  1  0
M  END
>  <smiles>  (5) 
O=C(NCC(=O)N1CCC[C@H]1CNc1ccc(Cl)c(Cl)c1)c1ccc2ccccc2n1

>  <score_type>  (5) 
oracle

>  <origin>  (5) 
autodockgpu

>  <m_score__min__energy>  (5) 
-9.3599999999999994

>  <m_primary>  (5) 
energy

>  <rmsd>  (5) 
3.00540164750948

>  <m_score__min__rmsd>  (5) 
3.00540164750948

>  <meeko>  (5) 
{"free_energy": -8.82, "intermolecular_energy": -10.91, "internal_energy": -1.9, "cluster_size": 16, "cluster_id": 2, "rank_in_cluster": 5}

>  <energy>  (5) 
-9.1

>  <cluster_rmsd>  (5) 
1.88

>  <cluster>  (5) 
2

$$$$

     RDKit          3D

 53 56  0  0  0  0  0  0  0  0999 V2000
  140.8990   77.2820  217.7270 O   0  0  0  0  0  0  0  0  0  0  0  0
  141.8220   77.1890  218.5820 C   0  0  0  0  0  0  0  0  0  0  0  0
  142.2310   78.3110  219.3560 N   0  0  0  0  0  0  0  0  0  0  0  0
  141.6080   79.6130  219.2010 C   0  0  0  0  0  0  0  0  0  0  0  0
  140.9610   80.0620  220.4590 C   0  0  0  0  0  0  0  0  0  0  0  0
  139.8650   80.6680  220.3810 O   0  0  0  0  0  0  0  0  0  0  0  0
  141.6220   79.7790  221.6850 N   0  0  0  0  0  0  0  0  0  0  0  0
  142.5230   80.6510  222.4400 C   0  0  0  0  0  0  0  0  0  0  0  0
  142.5420   80.1270  223.8420 C   0  0  0  0  0  0  0  0  0  0  0  0
  141.3480   79.1460  223.8380 C   0  0  0  0  0  0  0  0  0  0  0  0
  141.5610   78.5560  222.4810 C   0  0  1  0  0  0  0  0  0  0  0  0
  140.5720   77.5790  221.9830 C   0  0  0  0  0  0  0  0  0  0  0  0
  141.2040   76.3370  221.6430 N   0  0  0  0  0  0  0  0  0  0  0  0
  140.6270   75.0510  221.6860 C   0  0  0  0  0  0  0  0  0  0  0  0
  141.4350   73.9110  221.5540 C   0  0  0  0  0  0  0  0  0  0  0  0
  140.9030   72.6410  221.5570 C   0  0  0  0  0  0  0  0  0  0  0  0
  139.5510   72.4210  221.6900 C   0  0  0  0  0  0  0  0  0  0  0  0
  138.8320   70.8280  221.7000 Cl  0  0  0  0  0  0  0  0  0  0  0  0
  138.7430   73.5230  221.8200 C   0  0  0  0  0  0  0  0  0  0  0  0
  137.0040   73.3020  221.9930 Cl  0  0  0  0  0  0  0  0  0  0  0  0
  139.2810   74.7970  221.8160 C   0  0  0  0  0  0  0  0  0  0  0  0
  142.5170   75.9150  218.8150 C   0  0  0  0  0  0  0  0  0  0  0  0
  142.1360   74.7830  218.1260 C   0  0  0  0  0  0  0  0  0  0  0  0
  142.7660   73.5520  218.3130 C   0  0  0  0  0  0  0  0  0  0  0  0
  143.7970   73.4730  219.2160 C   0  0  0  0  0  0  0  0  0  0  0  0
  144.4950   72.3160  219.4890 C   0  0  0  0  0  0  0  0  0  0  0  0
  145.5240   72.2980  220.4090 C   0  0  0  0  0  0  0  0  0  0  0  0
  145.8750   73.4530  221.0790 C   0  0  0  0  0  0  0  0  0  0  0  0
  145.1870   74.6150  220.8170 C   0  0  0  0  0  0  0  0  0  0  0  0
  144.1470   74.6350  219.8880 C   0  0  0  0  0  0  0  0  0  0  0  0
  143.5330   75.8030  219.6960 N   0  0  0  0  0  0  0  0  0  0  0  0
  143.0050   78.2000  220.0600 H   0  0  0  0  0  0  0  0  0  0  0  0
  142.3773   80.3450  218.9142 H   0  0  0  0  0  0  0  0  0  0  0  0
  140.8328   79.5334  218.4247 H   0  0  0  0  0  0  0  0  0  0  0  0
  143.5341   80.6187  222.0081 H   0  0  0  0  0  0  0  0  0  0  0  0
  142.1837   81.6969  222.4098 H   0  0  0  0  0  0  0  0  0  0  0  0
  143.4859   79.6061  224.0607 H   0  0  0  0  0  0  0  0  0  0  0  0
  142.4668   80.9122  224.6087 H   0  0  0  0  0  0  0  0  0  0  0  0
  141.4261   78.3927  224.6358 H   0  0  0  0  0  0  0  0  0  0  0  0
  140.3588   79.5920  224.0184 H   0  0  0  0  0  0  0  0  0  0  0  0
  142.4448   77.9017  222.4518 H   0  0  0  0  0  0  0  0  0  0  0  0
  139.8198   77.3979  222.7649 H   0  0  0  0  0  0  0  0  0  0  0  0
  140.0971   77.9898  221.0799 H   0  0  0  0  0  0  0  0  0  0  0  0
  142.2180   76.3860  221.3240 H   0  0  0  0  0  0  0  0  0  0  0  0
  142.5225   74.0355  221.4452 H   0  0  0  0  0  0  0  0  0  0  0  0
  141.5772   71.7785  221.4502 H   0  0  0  0  0  0  0  0  0  0  0  0
  138.5971   75.6520  221.9223 H   0  0  0  0  0  0  0  0  0  0  0  0
  141.3081   74.8526  217.4051 H   0  0  0  0  0  0  0  0  0  0  0  0
  142.4435   72.6643  217.7491 H   0  0  0  0  0  0  0  0  0  0  0  0
  144.2265   71.3880  218.9629 H   0  0  0  0  0  0  0  0  0  0  0  0
  146.0654   71.3615  220.6087 H   0  0  0  0  0  0  0  0  0  0  0  0
  146.6943   73.4442  221.8129 H   0  0  0  0  0  0  0  0  0  0  0  0
  145.4604   75.5395  221.3466 H   0  0  0  0  0  0  0  0  0  0  0  0
  1  2  2  0
  2  3  1  0
  3  4  1  0
  4  5  1  0
  5  6  2  0
  5  7  1  0
  7  8  1  0
  8  9  1  0
  9 10  1  0
 10 11  1  0
 11 12  1  0
 12 13  1  0
 13 14  1  0
 14 15  2  0
 15 16  1  0
 16 17  2  0
 17 18  1  0
 17 19  1  0
 19 20  1  0
 19 21  2  0
  2 22  1  0
 22 23  2  0
 23 24  1  0
 24 25  2  0
 25 26  1  0
 26 27  2  0
 27 28  1  0
 28 29  2  0
 29 30  1  0
 30 31  2  0
 11  7  1  0
 21 14  1  0
 31 22  1  0
 30 25  1  0
  3 32  1  0
  4 33  1  0
  4 34  1  0
  8 35  1  0
  8 36  1  0
  9 37  1  0
  9 38  1  0
 10 39  1  0
 10 40  1  0
 11 41  1  1
 12 42  1  0
 12 43  1  0
 13 44  1  0
 15 45  1  0
 16 46  1  0
 21 47  1  0
 23 48  1  0
 24 49  1  0
 26 50  1  0
 27 51  1  0
 28 52  1  0
 29 53  1  0
M  END
>  <smiles>  (6) 
O=C(NCC(=O)N1CCC[C@H]1CNc1ccc(Cl)c(Cl)c1)c1ccc2ccccc2n1

>  <score_type>  (6) 
oracle

>  <origin>  (6) 
autodockgpu

>  <m_score__min__energy>  (6) 
-9.3599999999999994

>  <m_primary>  (6) 
energy

>  <rmsd>  (6) 
7.466285159289557

>  <m_score__min__rmsd>  (6) 
7.466285159289557

>  <meeko>  (6) 
{"free_energy": -7.02, "intermolecular_energy": -9.11, "internal_energy": -3.63, "cluster_size": 1, "cluster_id": 9, "rank_in_cluster": 1}

>  <energy>  (6) 
-8.83

>  <cluster_rmsd>  (6) 
1.49

>  <cluster>  (6) 
2

$$$$

     RDKit          3D

 53 56  0  0  0  0  0  0  0  0999 V2000
  138.7920   75.4630  221.9270 O   0  0  0  0  0  0  0  0  0  0  0  0
  139.9620   75.8950  222.1200 C   0  0  0  0  0  0  0  0  0  0  0  0
  141.0990   75.0560  221.9500 N   0  0  0  0  0  0  0  0  0  0  0  0
  140.9700   73.6690  221.5470 C   0  0  0  0  0  0  0  0  0  0  0  0
  141.2200   73.4960  220.0940 C   0  0  0  0  0  0  0  0  0  0  0  0
  140.3250   72.9600  219.3960 O   0  0  0  0  0  0  0  0  0  0  0  0
  142.4630   73.9500  219.5750 N   0  0  0  0  0  0  0  0  0  0  0  0
  143.6410   73.1490  219.2400 C   0  0  0  0  0  0  0  0  0  0  0  0
  144.4560   73.9720  218.2920 C   0  0  0  0  0  0  0  0  0  0  0  0
  143.4690   75.0940  217.9040 C   0  0  0  0  0  0  0  0  0  0  0  0
  142.8590   75.3180  219.2500 C   0  0  1  0  0  0  0  0  0  0  0  0
  141.7550   76.2920  219.3630 C   0  0  0  0  0  0  0  0  0  0  0  0
  142.2090   77.5160  219.9560 N   0  0  0  0  0  0  0  0  0  0  0  0
  142.1340   78.8090  219.4000 C   0  0  0  0  0  0  0  0  0  0  0  0
  142.5920   79.0420  218.0930 C   0  0  0  0  0  0  0  0  0  0  0  0
  142.5640   80.2980  217.5280 C   0  0  0  0  0  0  0  0  0  0  0  0
  142.0870   81.3920  218.2140 C   0  0  0  0  0  0  0  0  0  0  0  0
  142.0330   83.0020  217.5380 Cl  0  0  0  0  0  0  0  0  0  0  0  0
  141.6340   81.1850  219.4930 C   0  0  0  0  0  0  0  0  0  0  0  0
  141.0110   82.5490  220.4190 Cl  0  0  0  0  0  0  0  0  0  0  0  0
  141.6640   79.9230  220.0570 C   0  0  0  0  0  0  0  0  0  0  0  0
  140.2000   77.2860  222.5310 C   0  0  0  0  0  0  0  0  0  0  0  0
  139.1350   78.1300  222.7670 C   0  0  0  0  0  0  0  0  0  0  0  0
  139.3120   79.4570  223.1590 C   0  0  0  0  0  0  0  0  0  0  0  0
  140.5910   79.9320  223.3110 C   0  0  0  0  0  0  0  0  0  0  0  0
  140.8930   81.2220  223.6920 C   0  0  0  0  0  0  0  0  0  0  0  0
  142.2020   81.6420  223.8280 C   0  0  0  0  0  0  0  0  0  0  0  0
  143.2400   80.7670  223.5820 C   0  0  0  0  0  0  0  0  0  0  0  0
  142.9530   79.4770  223.2010 C   0  0  0  0  0  0  0  0  0  0  0  0
  141.6320   79.0500  223.0620 C   0  0  0  0  0  0  0  0  0  0  0  0
  141.4440   77.7840  222.6890 N   0  0  0  0  0  0  0  0  0  0  0  0
  142.0610   75.4480  222.1200 H   0  0  0  0  0  0  0  0  0  0  0  0
  141.6978   73.0650  222.1087 H   0  0  0  0  0  0  0  0  0  0  0  0
  139.9411   73.3434  221.7600 H   0  0  0  0  0  0  0  0  0  0  0  0
  144.2215   72.9280  220.1479 H   0  0  0  0  0  0  0  0  0  0  0  0
  143.3544   72.1877  218.7886 H   0  0  0  0  0  0  0  0  0  0  0  0
  145.3503   74.3803  218.7854 H   0  0  0  0  0  0  0  0  0  0  0  0
  144.8401   73.4043  217.4317 H   0  0  0  0  0  0  0  0  0  0  0  0
  143.9849   75.9895  217.5273 H   0  0  0  0  0  0  0  0  0  0  0  0
  142.7664   74.8560  217.0918 H   0  0  0  0  0  0  0  0  0  0  0  0
  143.5605   75.8082  219.9411 H   0  0  0  0  0  0  0  0  0  0  0  0
  141.3581   76.5040  218.3593 H   0  0  0  0  0  0  0  0  0  0  0  0
  140.9716   75.8613  220.0039 H   0  0  0  0  0  0  0  0  0  0  0  0
  142.6520   77.4460  220.9210 H   0  0  0  0  0  0  0  0  0  0  0  0
  142.9835   78.1990  217.5047 H   0  0  0  0  0  0  0  0  0  0  0  0
  142.9330   80.4304  216.5002 H   0  0  0  0  0  0  0  0  0  0  0  0
  141.2925   79.8031  221.0854 H   0  0  0  0  0  0  0  0  0  0  0  0
  138.1125   77.7441  222.6420 H   0  0  0  0  0  0  0  0  0  0  0  0
  138.4452   80.1089  223.3424 H   0  0  0  0  0  0  0  0  0  0  0  0
  140.0757   81.9307  223.8916 H   0  0  0  0  0  0  0  0  0  0  0  0
  142.4173   82.6767  224.1332 H   0  0  0  0  0  0  0  0  0  0  0  0
  144.2839   81.0969  223.6892 H   0  0  0  0  0  0  0  0  0  0  0  0
  143.7750   78.7733  223.0035 H   0  0  0  0  0  0  0  0  0  0  0  0
  1  2  2  0
  2  3  1  0
  3  4  1  0
  4  5  1  0
  5  6  2  0
  5  7  1  0
  7  8  1  0
  8  9  1  0
  9 10  1  0
 10 11  1  0
 11 12  1  0
 12 13  1  0
 13 14  1  0
 14 15  2  0
 15 16  1  0
 16 17  2  0
 17 18  1  0
 17 19  1  0
 19 20  1  0
 19 21  2  0
  2 22  1  0
 22 23  2  0
 23 24  1  0
 24 25  2  0
 25 26  1  0
 26 27  2  0
 27 28  1  0
 28 29  2  0
 29 30  1  0
 30 31  2  0
 11  7  1  0
 21 14  1  0
 31 22  1  0
 30 25  1  0
  3 32  1  0
  4 33  1  0
  4 34  1  0
  8 35  1  0
  8 36  1  0
  9 37  1  0
  9 38  1  0
 10 39  1  0
 10 40  1  0
 11 41  1  1
 12 42  1  0
 12 43  1  0
 13 44  1  0
 15 45  1  0
 16 46  1  0
 21 47  1  0
 23 48  1  0
 24 49  1  0
 26 50  1  0
 27 51  1  0
 28 52  1  0
 29 53  1  0
M  END
>  <smiles>  (7) 
O=C(NCC(=O)N1CCC[C@H]1CNc1ccc(Cl)c(Cl)c1)c1ccc2ccccc2n1

>  <score_type>  (7) 
oracle

>  <origin>  (7) 
autodockgpu

>  <m_score__min__energy>  (7) 
-9.3599999999999994

>  <m_primary>  (7) 
energy

>  <rmsd>  (7) 
6.812940650738078

>  <m_score__min__rmsd>  (7) 
6.812940650738078

>  <meeko>  (7) 
{"free_energy": -7.28, "intermolecular_energy": -9.37, "internal_energy": -3.63, "cluster_size": 3, "cluster_id": 8, "rank_in_cluster": 3}

>  <energy>  (7) 
-8.83

>  <cluster_rmsd>  (7) 
1.45

>  <cluster>  (7) 
2

$$$$

     RDKit          3D

 53 56  0  0  0  0  0  0  0  0999 V2000
  141.2990   71.8010  221.5190 O   0  0  0  0  0  0  0  0  0  0  0  0
  140.4130   72.1430  222.3510 C   0  0  0  0  0  0  0  0  0  0  0  0
  139.5500   73.2470  222.1020 N   0  0  0  0  0  0  0  0  0  0  0  0
  139.6450   74.0310  220.8840 C   0  0  0  0  0  0  0  0  0  0  0  0
  138.8460   75.2780  220.9740 C   0  0  0  0  0  0  0  0  0  0  0  0
  137.8280   75.3860  220.2480 O   0  0  0  0  0  0  0  0  0  0  0  0
  139.2810   76.2830  221.8800 N   0  0  0  0  0  0  0  0  0  0  0  0
  140.6510   76.7310  222.1320 C   0  0  0  0  0  0  0  0  0  0  0  0
  140.5450   78.0910  222.7490 C   0  0  0  0  0  0  0  0  0  0  0  0
  139.0650   78.4480  222.4920 C   0  0  0  0  0  0  0  0  0  0  0  0
  138.4690   77.1070  222.7710 C   0  0  1  0  0  0  0  0  0  0  0  0
  137.0160   76.9330  222.5700 C   0  0  0  0  0  0  0  0  0  0  0  0
  136.6210   75.5780  222.8230 N   0  0  0  0  0  0  0  0  0  0  0  0
  135.7430   75.1220  223.8270 C   0  0  0  0  0  0  0  0  0  0  0  0
  135.4340   73.7560  223.9270 C   0  0  0  0  0  0  0  0  0  0  0  0
  134.5550   73.2790  224.8740 C   0  0  0  0  0  0  0  0  0  0  0  0
  133.9330   74.1150  225.7740 C   0  0  0  0  0  0  0  0  0  0  0  0
  132.8120   73.5540  226.9910 Cl  0  0  0  0  0  0  0  0  0  0  0  0
  134.2220   75.4540  225.6920 C   0  0  0  0  0  0  0  0  0  0  0  0
  133.4550   76.5720  226.8180 Cl  0  0  0  0  0  0  0  0  0  0  0  0
  135.1040   75.9300  224.7400 C   0  0  0  0  0  0  0  0  0  0  0  0
  140.2350   71.4140  223.6150 C   0  0  0  0  0  0  0  0  0  0  0  0
  139.5610   70.2110  223.6310 C   0  0  0  0  0  0  0  0  0  0  0  0
  139.3680   69.4840  224.8050 C   0  0  0  0  0  0  0  0  0  0  0  0
  139.8680   69.9880  225.9800 C   0  0  0  0  0  0  0  0  0  0  0  0
  139.7410   69.3640  227.2020 C   0  0  0  0  0  0  0  0  0  0  0  0
  140.2670   69.9220  228.3510 C   0  0  0  0  0  0  0  0  0  0  0  0
  140.9350   71.1270  228.2940 C   0  0  0  0  0  0  0  0  0  0  0  0
  141.0690   71.7620  227.0800 C   0  0  0  0  0  0  0  0  0  0  0  0
  140.5390   71.2010  225.9180 C   0  0  0  0  0  0  0  0  0  0  0  0
  140.7140   71.8820  224.7860 N   0  0  0  0  0  0  0  0  0  0  0  0
  138.8220   73.5060  222.8160 H   0  0  0  0  0  0  0  0  0  0  0  0
  140.6988   74.2939  220.7099 H   0  0  0  0  0  0  0  0  0  0  0  0
  139.2487   73.4273  220.0542 H   0  0  0  0  0  0  0  0  0  0  0  0
  141.1567   76.0390  222.8215 H   0  0  0  0  0  0  0  0  0  0  0  0
  141.2382   76.7599  221.2023 H   0  0  0  0  0  0  0  0  0  0  0  0
  140.7669   78.0593  223.8259 H   0  0  0  0  0  0  0  0  0  0  0  0
  141.2551   78.8217  222.3345 H   0  0  0  0  0  0  0  0  0  0  0  0
  138.6970   79.2187  223.1853 H   0  0  0  0  0  0  0  0  0  0  0  0
  138.8392   78.8779  221.5050 H   0  0  0  0  0  0  0  0  0  0  0  0
  138.5018   76.8594  223.8423 H   0  0  0  0  0  0  0  0  0  0  0  0
  136.4753   77.5997  223.2578 H   0  0  0  0  0  0  0  0  0  0  0  0
  136.7747   77.1792  221.5254 H   0  0  0  0  0  0  0  0  0  0  0  0
  137.0330   74.8310  222.1860 H   0  0  0  0  0  0  0  0  0  0  0  0
  135.9066   73.0479  223.2304 H   0  0  0  0  0  0  0  0  0  0  0  0
  134.3440   72.2001  224.9124 H   0  0  0  0  0  0  0  0  0  0  0  0
  135.3058   77.0109  224.7105 H   0  0  0  0  0  0  0  0  0  0  0  0
  139.1626   69.8119  222.6866 H   0  0  0  0  0  0  0  0  0  0  0  0
  138.8264   68.5267  224.7900 H   0  0  0  0  0  0  0  0  0  0  0  0
  139.2103   68.4025  227.2638 H   0  0  0  0  0  0  0  0  0  0  0  0
  140.1526   69.4035  229.3144 H   0  0  0  0  0  0  0  0  0  0  0  0
  141.3552   71.5749  229.2066 H   0  0  0  0  0  0  0  0  0  0  0  0
  141.6005   72.7235  227.0256 H   0  0  0  0  0  0  0  0  0  0  0  0
  1  2  2  0
  2  3  1  0
  3  4  1  0
  4  5  1  0
  5  6  2  0
  5  7  1  0
  7  8  1  0
  8  9  1  0
  9 10  1  0
 10 11  1  0
 11 12  1  0
 12 13  1  0
 13 14  1  0
 14 15  2  0
 15 16  1  0
 16 17  2  0
 17 18  1  0
 17 19  1  0
 19 20  1  0
 19 21  2  0
  2 22  1  0
 22 23  2  0
 23 24  1  0
 24 25  2  0
 25 26  1  0
 26 27  2  0
 27 28  1  0
 28 29  2  0
 29 30  1  0
 30 31  2  0
 11  7  1  0
 21 14  1  0
 31 22  1  0
 30 25  1  0
  3 32  1  0
  4 33  1  0
  4 34  1  0
  8 35  1  0
  8 36  1  0
  9 37  1  0
  9 38  1  0
 10 39  1  0
 10 40  1  0
 11 41  1  1
 12 42  1  0
 12 43  1  0
 13 44  1  0
 15 45  1  0
 16 46  1  0
 21 47  1  0
 23 48  1  0
 24 49  1  0
 26 50  1  0
 27 51  1  0
 28 52  1  0
 29 53  1  0
M  END
>  <smiles>  (8) 
O=C(NCC(=O)N1CCC[C@H]1CNc1ccc(Cl)c(Cl)c1)c1ccc2ccccc2n1

>  <score_type>  (8) 
oracle

>  <origin>  (8) 
autodockgpu

>  <m_score__min__energy>  (8) 
-9.3599999999999994

>  <m_primary>  (8) 
energy

>  <rmsd>  (8) 
5.0823654715045885

>  <m_score__min__rmsd>  (8) 
5.0823654715045885

>  <meeko>  (8) 
{"free_energy": -8.5, "intermolecular_energy": -10.59, "internal_energy": -2.08, "cluster_size": 2, "cluster_id": 5, "rank_in_cluster": 1}

>  <energy>  (8) 
-8.82

>  <cluster_rmsd>  (8) 
0.29

>  <cluster>  (8) 
2

$$$$

     RDKit          3D

 53 56  0  0  0  0  0  0  0  0999 V2000
  136.8420   77.3180  222.8580 O   0  0  0  0  0  0  0  0  0  0  0  0
  138.0920   77.2300  222.7060 C   0  0  0  0  0  0  0  0  0  0  0  0
  138.6970   76.0400  222.2140 N   0  0  0  0  0  0  0  0  0  0  0  0
  137.9100   74.8730  221.8630 C   0  0  0  0  0  0  0  0  0  0  0  0
  138.7680   73.6830  221.6370 C   0  0  0  0  0  0  0  0  0  0  0  0
  139.9760   73.7470  221.9750 O   0  0  0  0  0  0  0  0  0  0  0  0
  138.1720   72.5350  221.0480 N   0  0  0  0  0  0  0  0  0  0  0  0
  137.0550   72.4890  220.1030 C   0  0  0  0  0  0  0  0  0  0  0  0
  137.1380   71.1620  219.4160 C   0  0  0  0  0  0  0  0  0  0  0  0
  138.5460   70.6730  219.8220 C   0  0  0  0  0  0  0  0  0  0  0  0
  138.5300   71.1330  221.2440 C   0  0  1  0  0  0  0  0  0  0  0  0
  139.7520   70.9450  222.0510 C   0  0  0  0  0  0  0  0  0  0  0  0
  139.5690   71.4420  223.3840 N   0  0  0  0  0  0  0  0  0  0  0  0
  139.8640   70.7720  224.5890 C   0  0  0  0  0  0  0  0  0  0  0  0
  139.6520   69.3890  224.6960 C   0  0  0  0  0  0  0  0  0  0  0  0
  139.8990   68.7070  225.8670 C   0  0  0  0  0  0  0  0  0  0  0  0
  140.3650   69.3440  226.9950 C   0  0  0  0  0  0  0  0  0  0  0  0
  140.6900   68.5200  228.5000 Cl  0  0  0  0  0  0  0  0  0  0  0  0
  140.5780   70.6980  226.9100 C   0  0  0  0  0  0  0  0  0  0  0  0
  141.1730   71.5670  228.3220 Cl  0  0  0  0  0  0  0  0  0  0  0  0
  140.3290   71.3790  225.7330 C   0  0  0  0  0  0  0  0  0  0  0  0
  138.9780   78.3570  223.0320 C   0  0  0  0  0  0  0  0  0  0  0  0
  138.4440   79.5610  223.4420 C   0  0  0  0  0  0  0  0  0  0  0  0
  139.2440   80.6570  223.7630 C   0  0  0  0  0  0  0  0  0  0  0  0
  140.6070   80.5270  223.6640 C   0  0  0  0  0  0  0  0  0  0  0  0
  141.5000   81.5360  223.9510 C   0  0  0  0  0  0  0  0  0  0  0  0
  142.8630   81.3450  223.8320 C   0  0  0  0  0  0  0  0  0  0  0  0
  143.3580   80.1250  223.4180 C   0  0  0  0  0  0  0  0  0  0  0  0
  142.4780   79.1090  223.1270 C   0  0  0  0  0  0  0  0  0  0  0  0
  141.1010   79.2990  223.2470 C   0  0  0  0  0  0  0  0  0  0  0  0
  140.3210   78.2620  222.9440 N   0  0  0  0  0  0  0  0  0  0  0  0
  139.7420   76.0000  222.0990 H   0  0  0  0  0  0  0  0  0  0  0  0
  137.2079   74.6565  222.6817 H   0  0  0  0  0  0  0  0  0  0  0  0
  137.3702   75.0902  220.9295 H   0  0  0  0  0  0  0  0  0  0  0  0
  136.0989   72.5808  220.6391 H   0  0  0  0  0  0  0  0  0  0  0  0
  137.1093   73.3166  219.3804 H   0  0  0  0  0  0  0  0  0  0  0  0
  136.3578   70.4760  219.7775 H   0  0  0  0  0  0  0  0  0  0  0  0
  136.9861   71.2174  218.3279 H   0  0  0  0  0  0  0  0  0  0  0  0
  138.6466   69.5807  219.7395 H   0  0  0  0  0  0  0  0  0  0  0  0
  139.3793   71.0428  219.2065 H   0  0  0  0  0  0  0  0  0  0  0  0
  137.8490   70.5303  221.8628 H   0  0  0  0  0  0  0  0  0  0  0  0
  139.9915   69.8724  222.0967 H   0  0  0  0  0  0  0  0  0  0  0  0
  140.5735   71.5034  221.5784 H   0  0  0  0  0  0  0  0  0  0  0  0
  139.1660   72.4230  223.4790 H   0  0  0  0  0  0  0  0  0  0  0  0
  139.2788   68.8351  223.8220 H   0  0  0  0  0  0  0  0  0  0  0  0
  139.7188   67.6224  225.9019 H   0  0  0  0  0  0  0  0  0  0  0  0
  140.5123   72.4634  225.7098 H   0  0  0  0  0  0  0  0  0  0  0  0
  137.3511   79.6597  223.5182 H   0  0  0  0  0  0  0  0  0  0  0  0
  138.7925   81.6057  224.0887 H   0  0  0  0  0  0  0  0  0  0  0  0
  141.1199   82.5138  224.2817 H   0  0  0  0  0  0  0  0  0  0  0  0
  143.5551   82.1669  224.0677 H   0  0  0  0  0  0  0  0  0  0  0  0
  144.4424   79.9673  223.3220 H   0  0  0  0  0  0  0  0  0  0  0  0
  142.8647   78.1341  222.7954 H   0  0  0  0  0  0  0  0  0  0  0  0
  1  2  2  0
  2  3  1  0
  3  4  1  0
  4  5  1  0
  5  6  2  0
  5  7  1  0
  7  8  1  0
  8  9  1  0
  9 10  1  0
 10 11  1  0
 11 12  1  0
 12 13  1  0
 13 14  1  0
 14 15  2  0
 15 16  1  0
 16 17  2  0
 17 18  1  0
 17 19  1  0
 19 20  1  0
 19 21  2  0
  2 22  1  0
 22 23  2  0
 23 24  1  0
 24 25  2  0
 25 26  1  0
 26 27  2  0
 27 28  1  0
 28 29  2  0
 29 30  1  0
 30 31  2  0
 11  7  1  0
 21 14  1  0
 31 22  1  0
 30 25  1  0
  3 32  1  0
  4 33  1  0
  4 34  1  0
  8 35  1  0
  8 36  1  0
  9 37  1  0
  9 38  1  0
 10 39  1  0
 10 40  1  0
 11 41  1  1
 12 42  1  0
 12 43  1  0
 13 44  1  0
 15 45  1  0
 16 46  1  0
 21 47  1  0
 23 48  1  0
 24 49  1  0
 26 50  1  0
 27 51  1  0
 28 52  1  0
 29 53  1  0
M  END
>  <smiles>  (9) 
O=C(NCC(=O)N1CCC[C@H]1CNc1ccc(Cl)c(Cl)c1)c1ccc2ccccc2n1

>  <score_type>  (9) 
oracle

>  <origin>  (9) 
autodockgpu

>  <m_score__min__energy>  (9) 
-9.3599999999999994

>  <m_primary>  (9) 
energy

>  <rmsd>  (9) 
8.975071383197514

>  <m_score__min__rmsd>  (9) 
8.975071383197514

>  <meeko>  (9) 
{"free_energy": -8.64, "intermolecular_energy": -10.73, "internal_energy": -2.5, "cluster_size": 17, "cluster_id": 3, "rank_in_cluster": 8}

>  <energy>  (9) 
-8.67

>  <cluster_rmsd>  (9) 
1.31

>  <cluster>  (9) 
2

$$$$

     RDKit          3D

 53 56  0  0  0  0  0  0  0  0999 V2000
  140.1410   71.5230  221.1680 O   0  0  0  0  0  0  0  0  0  0  0  0
  139.8900   72.0040  222.3070 C   0  0  0  0  0  0  0  0  0  0  0  0
  139.6310   73.3920  222.4850 N   0  0  0  0  0  0  0  0  0  0  0  0
  139.6430   74.3190  221.3680 C   0  0  0  0  0  0  0  0  0  0  0  0
  140.8810   75.1370  221.3510 C   0  0  0  0  0  0  0  0  0  0  0  0
  141.9860   74.5430  221.2950 O   0  0  0  0  0  0  0  0  0  0  0  0
  140.7450   76.5510  221.3990 N   0  0  0  0  0  0  0  0  0  0  0  0
  140.2920   77.3710  222.5230 C   0  0  0  0  0  0  0  0  0  0  0  0
  140.7950   78.7570  222.2650 C   0  0  0  0  0  0  0  0  0  0  0  0
  141.8070   78.5280  221.1220 C   0  0  0  0  0  0  0  0  0  0  0  0
  141.0250   77.5200  220.3420 C   0  0  1  0  0  0  0  0  0  0  0  0
  141.6530   76.9220  219.1470 C   0  0  0  0  0  0  0  0  0  0  0  0
  143.0440   76.6600  219.3750 N   0  0  0  0  0  0  0  0  0  0  0  0
  143.6830   75.4030  219.3730 C   0  0  0  0  0  0  0  0  0  0  0  0
  143.3980   74.4680  218.3650 C   0  0  0  0  0  0  0  0  0  0  0  0
  143.9780   73.2190  218.3490 C   0  0  0  0  0  0  0  0  0  0  0  0
  144.8670   72.8190  219.3210 C   0  0  0  0  0  0  0  0  0  0  0  0
  145.6260   71.2460  219.3420 Cl  0  0  0  0  0  0  0  0  0  0  0  0
  145.1590   73.7190  220.3160 C   0  0  0  0  0  0  0  0  0  0  0  0
  146.2900   73.2630  221.5880 Cl  0  0  0  0  0  0  0  0  0  0  0  0
  144.5740   74.9720  220.3290 C   0  0  0  0  0  0  0  0  0  0  0  0
  139.8540   71.1490  223.5020 C   0  0  0  0  0  0  0  0  0  0  0  0
  139.3480   69.8690  223.4220 C   0  0  0  0  0  0  0  0  0  0  0  0
  139.2940   69.0210  224.5290 C   0  0  0  0  0  0  0  0  0  0  0  0
  139.7610   69.4830  225.7340 C   0  0  0  0  0  0  0  0  0  0  0  0
  139.7610   68.7430  226.8960 C   0  0  0  0  0  0  0  0  0  0  0  0
  140.2450   69.2630  228.0800 C   0  0  0  0  0  0  0  0  0  0  0  0
  140.7430   70.5490  228.1190 C   0  0  0  0  0  0  0  0  0  0  0  0
  140.7500   71.3010  226.9660 C   0  0  0  0  0  0  0  0  0  0  0  0
  140.2610   70.7780  225.7690 C   0  0  0  0  0  0  0  0  0  0  0  0
  140.3050   71.5730  224.7010 N   0  0  0  0  0  0  0  0  0  0  0  0
  139.4260   73.7610  223.4480 H   0  0  0  0  0  0  0  0  0  0  0  0
  139.5791   73.7484  220.4297 H   0  0  0  0  0  0  0  0  0  0  0  0
  138.7836   74.9973  221.4742 H   0  0  0  0  0  0  0  0  0  0  0  0
  139.1933   77.3689  222.5769 H   0  0  0  0  0  0  0  0  0  0  0  0
  140.6708   76.9810  223.4792 H   0  0  0  0  0  0  0  0  0  0  0  0
  139.9801   79.4248  221.9486 H   0  0  0  0  0  0  0  0  0  0  0  0
  141.2313   79.2409  223.1512 H   0  0  0  0  0  0  0  0  0  0  0  0
  141.9961   79.4448  220.5444 H   0  0  0  0  0  0  0  0  0  0  0  0
  142.8171   78.2192  221.4293 H   0  0  0  0  0  0  0  0  0  0  0  0
  140.1562   77.9726  219.8417 H   0  0  0  0  0  0  0  0  0  0  0  0
  141.1434   75.9770  218.9075 H   0  0  0  0  0  0  0  0  0  0  0  0
  141.5621   77.6312  218.3110 H   0  0  0  0  0  0  0  0  0  0  0  0
  143.6660   77.5020  219.5660 H   0  0  0  0  0  0  0  0  0  0  0  0
  142.6923   74.7405  217.5664 H   0  0  0  0  0  0  0  0  0  0  0  0
  143.7239   72.5217  217.5371 H   0  0  0  0  0  0  0  0  0  0  0  0
  144.8346   75.6603  221.1465 H   0  0  0  0  0  0  0  0  0  0  0  0
  138.9746   69.5042  222.4538 H   0  0  0  0  0  0  0  0  0  0  0  0
  138.8857   68.0037  224.4377 H   0  0  0  0  0  0  0  0  0  0  0  0
  139.3671   67.7161  226.8802 H   0  0  0  0  0  0  0  0  0  0  0  0
  140.2335   68.6508  228.9938 H   0  0  0  0  0  0  0  0  0  0  0  0
  141.1296   70.9682  229.0596 H   0  0  0  0  0  0  0  0  0  0  0  0
  141.1461   72.3270  226.9889 H   0  0  0  0  0  0  0  0  0  0  0  0
  1  2  2  0
  2  3  1  0
  3  4  1  0
  4  5  1  0
  5  6  2  0
  5  7  1  0
  7  8  1  0
  8  9  1  0
  9 10  1  0
 10 11  1  0
 11 12  1  0
 12 13  1  0
 13 14  1  0
 14 15  2  0
 15 16  1  0
 16 17  2  0
 17 18  1  0
 17 19  1  0
 19 20  1  0
 19 21  2  0
  2 22  1  0
 22 23  2  0
 23 24  1  0
 24 25  2  0
 25 26  1  0
 26 27  2  0
 27 28  1  0
 28 29  2  0
 29 30  1  0
 30 31  2  0
 11  7  1  0
 21 14  1  0
 31 22  1  0
 30 25  1  0
  3 32  1  0
  4 33  1  0
  4 34  1  0
  8 35  1  0
  8 36  1  0
  9 37  1  0
  9 38  1  0
 10 39  1  0
 10 40  1  0
 11 41  1  6
 12 42  1  0
 12 43  1  0
 13 44  1  0
 15 45  1  0
 16 46  1  0
 21 47  1  0
 23 48  1  0
 24 49  1  0
 26 50  1  0
 27 51  1  0
 28 52  1  0
 29 53  1  0
M  END
>  <smiles>  (10) 
O=C(NCC(=O)N1CCC[C@H]1CNc1ccc(Cl)c(Cl)c1)c1ccc2ccccc2n1

>  <score_type>  (10) 
oracle

>  <origin>  (10) 
autodockgpu

>  <m_score__min__energy>  (10) 
-9.3599999999999994

>  <m_primary>  (10) 
energy

>  <rmsd>  (10) 
4.167524812534486

>  <m_score__min__rmsd>  (10) 
4.167524812534486

>  <meeko>  (10) 
{"free_energy": -9.36, "intermolecular_energy": -11.45, "internal_energy": -1.72, "cluster_size": 3, "cluster_id": 1, "rank_in_cluster": 1}

>  <energy>  (10) 
-8.51

>  <cluster_rmsd>  (10) 
1.51

>  <cluster>  (10) 
2

$$$$

     RDKit          3D

 53 56  0  0  0  0  0  0  0  0999 V2000
  140.6310   74.2850  222.1030 O   0  0  0  0  0  0  0  0  0  0  0  0
  140.2070   75.2790  221.4520 C   0  0  0  0  0  0  0  0  0  0  0  0
  139.7090   75.1390  220.1260 N   0  0  0  0  0  0  0  0  0  0  0  0
  139.6640   73.8510  219.4600 C   0  0  0  0  0  0  0  0  0  0  0  0
  138.4300   73.1020  219.8050 C   0  0  0  0  0  0  0  0  0  0  0  0
  137.9950   72.2610  218.9810 O   0  0  0  0  0  0  0  0  0  0  0  0
  137.8090   73.3800  221.0520 N   0  0  0  0  0  0  0  0  0  0  0  0
  136.7830   74.3840  221.3400 C   0  0  0  0  0  0  0  0  0  0  0  0
  136.1170   73.9550  222.6100 C   0  0  0  0  0  0  0  0  0  0  0  0
  136.6320   72.5090  222.7750 C   0  0  0  0  0  0  0  0  0  0  0  0
  138.0450   72.7340  222.3410 C   0  0  1  0  0  0  0  0  0  0  0  0
  138.9440   71.5660  222.2570 C   0  0  0  0  0  0  0  0  0  0  0  0
  140.0050   71.6640  223.2160 N   0  0  0  0  0  0  0  0  0  0  0  0
  140.1180   70.9620  224.4340 C   0  0  0  0  0  0  0  0  0  0  0  0
  139.7880   69.5990  224.4950 C   0  0  0  0  0  0  0  0  0  0  0  0
  139.8540   68.8890  225.6730 C   0  0  0  0  0  0  0  0  0  0  0  0
  140.2470   69.4780  226.8550 C   0  0  0  0  0  0  0  0  0  0  0  0
  140.3450   68.6170  228.3720 Cl  0  0  0  0  0  0  0  0  0  0  0  0
  140.5730   70.8110  226.8160 C   0  0  0  0  0  0  0  0  0  0  0  0
  141.0830   71.6180  228.2970 Cl  0  0  0  0  0  0  0  0  0  0  0  0
  140.5050   71.5200  225.6310 C   0  0  0  0  0  0  0  0  0  0  0  0
  140.2110   76.6280  222.0360 C   0  0  0  0  0  0  0  0  0  0  0  0
  139.0320   77.1980  222.4690 C   0  0  0  0  0  0  0  0  0  0  0  0
  138.9860   78.4740  223.0300 C   0  0  0  0  0  0  0  0  0  0  0  0
  140.1560   79.1810  223.1530 C   0  0  0  0  0  0  0  0  0  0  0  0
  140.2390   80.4470  223.6890 C   0  0  0  0  0  0  0  0  0  0  0  0
  141.4480   81.1090  223.7850 C   0  0  0  0  0  0  0  0  0  0  0  0
  142.6060   80.5040  223.3410 C   0  0  0  0  0  0  0  0  0  0  0  0
  142.5390   79.2400  222.8030 C   0  0  0  0  0  0  0  0  0  0  0  0
  141.3190   78.5700  222.7040 C   0  0  0  0  0  0  0  0  0  0  0  0
  141.3440   77.3490  222.1700 N   0  0  0  0  0  0  0  0  0  0  0  0
  139.3640   75.9890  219.6100 H   0  0  0  0  0  0  0  0  0  0  0  0
  139.6929   74.0102  218.3720 H   0  0  0  0  0  0  0  0  0  0  0  0
  140.5302   73.2603  219.7930 H   0  0  0  0  0  0  0  0  0  0  0  0
  137.2449   75.3741  221.4682 H   0  0  0  0  0  0  0  0  0  0  0  0
  136.0584   74.4615  220.5160 H   0  0  0  0  0  0  0  0  0  0  0  0
  136.4255   74.5873  223.4556 H   0  0  0  0  0  0  0  0  0  0  0  0
  135.0201   74.0329  222.5819 H   0  0  0  0  0  0  0  0  0  0  0  0
  136.5675   72.1611  223.8165 H   0  0  0  0  0  0  0  0  0  0  0  0
  136.0774   71.7356  222.2234 H   0  0  0  0  0  0  0  0  0  0  0  0
  138.6162   73.3074  223.0859 H   0  0  0  0  0  0  0  0  0  0  0  0
  138.3650   70.6516  222.4534 H   0  0  0  0  0  0  0  0  0  0  0  0
  139.3843   71.5345  221.2494 H   0  0  0  0  0  0  0  0  0  0  0  0
  140.7960   72.3390  222.9890 H   0  0  0  0  0  0  0  0  0  0  0  0
  139.4680   69.0842  223.5770 H   0  0  0  0  0  0  0  0  0  0  0  0
  139.5856   67.8223  225.6703 H   0  0  0  0  0  0  0  0  0  0  0  0
  140.7745   72.5864  225.6457 H   0  0  0  0  0  0  0  0  0  0  0  0
  138.0970   76.6272  222.3685 H   0  0  0  0  0  0  0  0  0  0  0  0
  138.0317   78.9049  223.3670 H   0  0  0  0  0  0  0  0  0  0  0  0
  139.3241   80.9412  224.0480 H   0  0  0  0  0  0  0  0  0  0  0  0
  141.4875   82.1202  224.2162 H   0  0  0  0  0  0  0  0  0  0  0  0
  143.5711   81.0264  223.4165 H   0  0  0  0  0  0  0  0  0  0  0  0
  143.4579   78.7515  222.4466 H   0  0  0  0  0  0  0  0  0  0  0  0
  1  2  2  0
  2  3  1  0
  3  4  1  0
  4  5  1  0
  5  6  2  0
  5  7  1  0
  7  8  1  0
  8  9  1  0
  9 10  1  0
 10 11  1  0
 11 12  1  0
 12 13  1  0
 13 14  1  0
 14 15  2  0
 15 16  1  0
 16 17  2  0
 17 18  1  0
 17 19  1  0
 19 20  1  0
 19 21  2  0
  2 22  1  0
 22 23  2  0
 23 24  1  0
 24 25  2  0
 25 26  1  0
 26 27  2  0
 27 28  1  0
 28 29  2  0
 29 30  1  0
 30 31  2  0
 11  7  1  0
 21 14  1  0
 31 22  1  0
 30 25  1  0
  3 32  1  0
  4 33  1  0
  4 34  1  0
  8 35  1  0
  8 36  1  0
  9 37  1  0
  9 38  1  0
 10 39  1  0
 10 40  1  0
 11 41  1  1
 12 42  1  0
 12 43  1  0
 13 44  1  0
 15 45  1  0
 16 46  1  0
 21 47  1  0
 23 48  1  0
 24 49  1  0
 26 50  1  0
 27 51  1  0
 28 52  1  0
 29 53  1  0
M  END
>  <smiles>  (11) 
O=C(NCC(=O)N1CCC[C@H]1CNc1ccc(Cl)c(Cl)c1)c1ccc2ccccc2n1

>  <score_type>  (11) 
oracle

>  <origin>  (11) 
autodockgpu

>  <m_score__min__energy>  (11) 
-9.3599999999999994

>  <m_primary>  (11) 
energy

>  <rmsd>  (11) 
8.517578199170725

>  <m_score__min__rmsd>  (11) 
8.517578199170725

>  <meeko>  (11) 
{"free_energy": -8.33, "intermolecular_energy": -10.42, "internal_energy": -2.44, "cluster_size": 17, "cluster_id": 3, "rank_in_cluster": 13}

>  <energy>  (11) 
-8.45

>  <cluster_rmsd>  (11) 
1.72

>  <cluster>  (11) 
2

$$$$

     RDKit          3D

 53 56  0  0  0  0  0  0  0  0999 V2000
  138.8390   75.2960  221.8180 O   0  0  0  0  0  0  0  0  0  0  0  0
  139.9910   75.7460  222.0700 C   0  0  0  0  0  0  0  0  0  0  0  0
  141.1480   74.9240  221.9640 N   0  0  0  0  0  0  0  0  0  0  0  0
  141.0610   73.5330  221.5620 C   0  0  0  0  0  0  0  0  0  0  0  0
  141.3380   73.3640  220.1140 C   0  0  0  0  0  0  0  0  0  0  0  0
  140.4480   72.8490  219.3930 O   0  0  0  0  0  0  0  0  0  0  0  0
  142.6000   73.7980  219.6230 N   0  0  0  0  0  0  0  0  0  0  0  0
  143.8040   72.9940  219.4110 C   0  0  0  0  0  0  0  0  0  0  0  0
  144.6560   73.7550  218.4440 C   0  0  0  0  0  0  0  0  0  0  0  0
  143.6750   74.8270  217.9210 C   0  0  0  0  0  0  0  0  0  0  0  0
  142.9940   75.1430  219.2130 C   0  0  1  0  0  0  0  0  0  0  0  0
  141.8730   76.1040  219.1950 C   0  0  0  0  0  0  0  0  0  0  0  0
  142.2280   77.3210  219.8670 N   0  0  0  0  0  0  0  0  0  0  0  0
  142.1640   78.6290  219.3450 C   0  0  0  0  0  0  0  0  0  0  0  0
  142.6190   78.8920  218.0430 C   0  0  0  0  0  0  0  0  0  0  0  0
  142.6020   80.1630  217.5130 C   0  0  0  0  0  0  0  0  0  0  0  0
  142.1400   81.2430  218.2300 C   0  0  0  0  0  0  0  0  0  0  0  0
  142.1010   82.8710  217.5970 Cl  0  0  0  0  0  0  0  0  0  0  0  0
  141.6910   81.0060  219.5050 C   0  0  0  0  0  0  0  0  0  0  0  0
  141.0880   82.3520  220.4710 Cl  0  0  0  0  0  0  0  0  0  0  0  0
  141.7100   79.7300  220.0350 C   0  0  0  0  0  0  0  0  0  0  0  0
  140.1870   77.1420  222.4850 C   0  0  0  0  0  0  0  0  0  0  0  0
  139.0960   77.9560  222.7110 C   0  0  0  0  0  0  0  0  0  0  0  0
  139.2320   79.2870  223.1070 C   0  0  0  0  0  0  0  0  0  0  0  0
  140.4960   79.7970  223.2740 C   0  0  0  0  0  0  0  0  0  0  0  0
  140.7590   81.0930  223.6610 C   0  0  0  0  0  0  0  0  0  0  0  0
  142.0540   81.5490  223.8120 C   0  0  0  0  0  0  0  0  0  0  0  0
  143.1190   80.7030  223.5760 C   0  0  0  0  0  0  0  0  0  0  0  0
  142.8710   79.4060  223.1900 C   0  0  0  0  0  0  0  0  0  0  0  0
  141.5640   78.9430  223.0360 C   0  0  0  0  0  0  0  0  0  0  0  0
  141.4150   77.6740  222.6580 N   0  0  0  0  0  0  0  0  0  0  0  0
  142.0930   75.3300  222.1820 H   0  0  0  0  0  0  0  0  0  0  0  0
  141.7952   72.9489  222.1363 H   0  0  0  0  0  0  0  0  0  0  0  0
  140.0376   73.1813  221.7596 H   0  0  0  0  0  0  0  0  0  0  0  0
  144.3398   72.8536  220.3613 H   0  0  0  0  0  0  0  0  0  0  0  0
  143.5535   71.9961  219.0219 H   0  0  0  0  0  0  0  0  0  0  0  0
  145.5184   74.2153  218.9484 H   0  0  0  0  0  0  0  0  0  0  0  0
  145.0914   73.1294  217.6509 H   0  0  0  0  0  0  0  0  0  0  0  0
  144.1976   75.6997  217.5023 H   0  0  0  0  0  0  0  0  0  0  0  0
  143.0182   74.5152  217.0955 H   0  0  0  0  0  0  0  0  0  0  0  0
  143.6529   75.6967  219.8981 H   0  0  0  0  0  0  0  0  0  0  0  0
  141.6118   76.3325  218.1512 H   0  0  0  0  0  0  0  0  0  0  0  0
  141.0162   75.6527  219.7168 H   0  0  0  0  0  0  0  0  0  0  0  0
  142.5790   77.2310  220.8670 H   0  0  0  0  0  0  0  0  0  0  0  0
  142.9990   78.0612  217.4303 H   0  0  0  0  0  0  0  0  0  0  0  0
  142.9681   80.3194  216.4876 H   0  0  0  0  0  0  0  0  0  0  0  0
  141.3431   79.5867  221.0621 H   0  0  0  0  0  0  0  0  0  0  0  0
  138.0860   77.5421  222.5745 H   0  0  0  0  0  0  0  0  0  0  0  0
  138.3455   79.9144  223.2817 H   0  0  0  0  0  0  0  0  0  0  0  0
  139.9205   81.7785  223.8536 H   0  0  0  0  0  0  0  0  0  0  0  0
  142.2371   82.5887  224.1210 H   0  0  0  0  0  0  0  0  0  0  0  0
  144.1522   81.0612  223.6950 H   0  0  0  0  0  0  0  0  0  0  0  0
  143.7140   78.7253  223.0004 H   0  0  0  0  0  0  0  0  0  0  0  0
  1  2  2  0
  2  3  1  0
  3  4  1  0
  4  5  1  0
  5  6  2  0
  5  7  1  0
  7  8  1  0
  8  9  1  0
  9 10  1  0
 10 11  1  0
 11 12  1  0
 12 13  1  0
 13 14  1  0
 14 15  2  0
 15 16  1  0
 16 17  2  0
 17 18  1  0
 17 19  1  0
 19 20  1  0
 19 21  2  0
  2 22  1  0
 22 23  2  0
 23 24  1  0
 24 25  2  0
 25 26  1  0
 26 27  2  0
 27 28  1  0
 28 29  2  0
 29 30  1  0
 30 31  2  0
 11  7  1  0
 21 14  1  0
 31 22  1  0
 30 25  1  0
  3 32  1  0
  4 33  1  0
  4 34  1  0
  8 35  1  0
  8 36  1  0
  9 37  1  0
  9 38  1  0
 10 39  1  0
 10 40  1  0
 11 41  1  1
 12 42  1  0
 12 43  1  0
 13 44  1  0
 15 45  1  0
 16 46  1  0
 21 47  1  0
 23 48  1  0
 24 49  1  0
 26 50  1  0
 27 51  1  0
 28 52  1  0
 29 53  1  0
M  END
>  <smiles>  (12) 
O=C(NCC(=O)N1CCC[C@H]1CNc1ccc(Cl)c(Cl)c1)c1ccc2ccccc2n1

>  <score_type>  (12) 
oracle

>  <origin>  (12) 
autodockgpu

>  <m_score__min__energy>  (12) 
-9.3599999999999994

>  <m_primary>  (12) 
energy

>  <rmsd>  (12) 
6.798846738172834

>  <m_score__min__rmsd>  (12) 
6.798846738172834

>  <meeko>  (12) 
{"free_energy": -7.31, "intermolecular_energy": -9.39, "internal_energy": -3.66, "cluster_size": 3, "cluster_id": 8, "rank_in_cluster": 2}

>  <energy>  (12) 
-8.4

>  <cluster_rmsd>  (12) 
1.41

>  <cluster>  (12) 
2

$$$$

     RDKit          3D

 53 56  0  0  0  0  0  0  0  0999 V2000
  137.4150   76.3420  222.0120 O   0  0  0  0  0  0  0  0  0  0  0  0
  138.6690   76.4370  222.1200 C   0  0  0  0  0  0  0  0  0  0  0  0
  139.5250   75.3430  221.8100 N   0  0  0  0  0  0  0  0  0  0  0  0
  139.0000   74.0690  221.3550 C   0  0  0  0  0  0  0  0  0  0  0  0
  139.9460   72.9590  221.6290 C   0  0  0  0  0  0  0  0  0  0  0  0
  140.9400   73.1910  222.3610 O   0  0  0  0  0  0  0  0  0  0  0  0
  139.6730   71.6920  221.0460 N   0  0  0  0  0  0  0  0  0  0  0  0
  140.3260   71.0770  219.8900 C   0  0  0  0  0  0  0  0  0  0  0  0
  140.0590   69.6080  219.9860 C   0  0  0  0  0  0  0  0  0  0  0  0
  139.5190   69.4690  221.4260 C   0  0  0  0  0  0  0  0  0  0  0  0
  138.6790   70.7050  221.4600 C   0  0  1  0  0  0  0  0  0  0  0  0
  137.9970   71.0510  222.7230 C   0  0  0  0  0  0  0  0  0  0  0  0
  138.9330   71.5330  223.6970 N   0  0  0  0  0  0  0  0  0  0  0  0
  139.4560   70.8230  224.7960 C   0  0  0  0  0  0  0  0  0  0  0  0
  139.3660   69.4220  224.8390 C   0  0  0  0  0  0  0  0  0  0  0  0
  139.8370   68.6980  225.9110 C   0  0  0  0  0  0  0  0  0  0  0  0
  140.4200   69.3070  226.9990 C   0  0  0  0  0  0  0  0  0  0  0  0
  141.0310   68.4290  228.3810 Cl  0  0  0  0  0  0  0  0  0  0  0  0
  140.5180   70.6760  226.9770 C   0  0  0  0  0  0  0  0  0  0  0  0
  141.2550   71.5110  228.3420 Cl  0  0  0  0  0  0  0  0  0  0  0  0
  140.0440   71.4000  225.8990 C   0  0  0  0  0  0  0  0  0  0  0  0
  139.3000   77.6850  222.5730 C   0  0  0  0  0  0  0  0  0  0  0  0
  138.5230   78.7230  223.0430 C   0  0  0  0  0  0  0  0  0  0  0  0
  139.0760   79.9250  223.4840 C   0  0  0  0  0  0  0  0  0  0  0  0
  140.4410   80.0730  223.4440 C   0  0  0  0  0  0  0  0  0  0  0  0
  141.1040   81.2110  223.8490 C   0  0  0  0  0  0  0  0  0  0  0  0
  142.4810   81.3010  223.7860 C   0  0  0  0  0  0  0  0  0  0  0  0
  143.2240   80.2400  223.3080 C   0  0  0  0  0  0  0  0  0  0  0  0
  142.5750   79.0980  222.9000 C   0  0  0  0  0  0  0  0  0  0  0  0
  141.1840   79.0040  222.9630 C   0  0  0  0  0  0  0  0  0  0  0  0
  140.6370   77.8630  222.5460 N   0  0  0  0  0  0  0  0  0  0  0  0
  140.5660   75.4550  221.9110 H   0  0  0  0  0  0  0  0  0  0  0  0
  138.0523   73.8670  221.8756 H   0  0  0  0  0  0  0  0  0  0  0  0
  138.8458   74.1291  220.2675 H   0  0  0  0  0  0  0  0  0  0  0  0
  139.9057   71.4799  218.9567 H   0  0  0  0  0  0  0  0  0  0  0  0
  141.4059   71.2865  219.8838 H   0  0  0  0  0  0  0  0  0  0  0  0
  139.3097   69.2895  219.2464 H   0  0  0  0  0  0  0  0  0  0  0  0
  140.9420   68.9842  219.7830 H   0  0  0  0  0  0  0  0  0  0  0  0
  138.9204   68.5558  221.5591 H   0  0  0  0  0  0  0  0  0  0  0  0
  140.2780   69.3820  222.2174 H   0  0  0  0  0  0  0  0  0  0  0  0
  137.7828   70.6095  220.8294 H   0  0  0  0  0  0  0  0  0  0  0  0
  137.2488   71.8328  222.5254 H   0  0  0  0  0  0  0  0  0  0  0  0
  137.5132   70.1461  223.1195 H   0  0  0  0  0  0  0  0  0  0  0  0
  139.2710   72.5350  223.5820 H   0  0  0  0  0  0  0  0  0  0  0  0
  138.9068   68.8890  223.9934 H   0  0  0  0  0  0  0  0  0  0  0  0
  139.7448   67.6019  225.8977 H   0  0  0  0  0  0  0  0  0  0  0  0
  140.1419   72.4954  225.9238 H   0  0  0  0  0  0  0  0  0  0  0  0
  137.4304   78.5987  223.0710 H   0  0  0  0  0  0  0  0  0  0  0  0
  138.4332   80.7366  223.8556 H   0  0  0  0  0  0  0  0  0  0  0  0
  140.5250   82.0651  224.2302 H   0  0  0  0  0  0  0  0  0  0  0  0
  142.9867   82.2200  224.1174 H   0  0  0  0  0  0  0  0  0  0  0  0
  144.3206   80.3071  223.2542 H   0  0  0  0  0  0  0  0  0  0  0  0
  143.1599   78.2478  222.5191 H   0  0  0  0  0  0  0  0  0  0  0  0
  1  2  2  0
  2  3  1  0
  3  4  1  0
  4  5  1  0
  5  6  2  0
  5  7  1  0
  7  8  1  0
  8  9  1  0
  9 10  1  0
 10 11  1  0
 11 12  1  0
 12 13  1  0
 13 14  1  0
 14 15  2  0
 15 16  1  0
 16 17  2  0
 17 18  1  0
 17 19  1  0
 19 20  1  0
 19 21  2  0
  2 22  1  0
 22 23  2  0
 23 24  1  0
 24 25  2  0
 25 26  1  0
 26 27  2  0
 27 28  1  0
 28 29  2  0
 29 30  1  0
 30 31  2  0
 11  7  1  0
 21 14  1  0
 31 22  1  0
 30 25  1  0
  3 32  1  0
  4 33  1  0
  4 34  1  0
  8 35  1  0
  8 36  1  0
  9 37  1  0
  9 38  1  0
 10 39  1  0
 10 40  1  0
 11 41  1  6
 12 42  1  0
 12 43  1  0
 13 44  1  0
 15 45  1  0
 16 46  1  0
 21 47  1  0
 23 48  1  0
 24 49  1  0
 26 50  1  0
 27 51  1  0
 28 52  1  0
 29 53  1  0
M  END
>  <smiles>  (13) 
O=C(NCC(=O)N1CCC[C@H]1CNc1ccc(Cl)c(Cl)c1)c1ccc2ccccc2n1

>  <score_type>  (13) 
oracle

>  <origin>  (13) 
autodockgpu

>  <m_score__min__energy>  (13) 
-9.3599999999999994

>  <m_primary>  (13) 
energy

>  <rmsd>  (13) 
8.94557931778692

>  <m_score__min__rmsd>  (13) 
8.94557931778692

>  <meeko>  (13) 
{"free_energy": -8.92, "intermolecular_energy": -11.0, "internal_energy": -2.51, "cluster_size": 17, "cluster_id": 3, "rank_in_cluster": 2}

>  <energy>  (13) 
-8.32

>  <cluster_rmsd>  (13) 
1.74

>  <cluster>  (13) 
2

$$$$

     RDKit          3D

 53 56  0  0  0  0  0  0  0  0999 V2000
  136.2640   76.8270  222.7740 O   0  0  0  0  0  0  0  0  0  0  0  0
  136.3110   75.6370  223.1910 C   0  0  0  0  0  0  0  0  0  0  0  0
  137.2700   74.7130  222.6890 N   0  0  0  0  0  0  0  0  0  0  0  0
  138.2380   75.0930  221.6770 C   0  0  0  0  0  0  0  0  0  0  0  0
  139.3500   74.1140  221.5890 C   0  0  0  0  0  0  0  0  0  0  0  0
  140.3460   74.2750  222.3370 O   0  0  0  0  0  0  0  0  0  0  0  0
  139.2240   73.0450  220.6610 N   0  0  0  0  0  0  0  0  0  0  0  0
  139.6050   73.0350  219.2480 C   0  0  0  0  0  0  0  0  0  0  0  0
  139.7510   71.5960  218.8600 C   0  0  0  0  0  0  0  0  0  0  0  0
  139.7480   70.8880  220.2320 C   0  0  0  0  0  0  0  0  0  0  0  0
  138.6870   71.7070  220.8940 C   0  0  1  0  0  0  0  0  0  0  0  0
  138.3790   71.4350  222.3120 C   0  0  0  0  0  0  0  0  0  0  0  0
  139.5590   71.5290  223.1210 N   0  0  0  0  0  0  0  0  0  0  0  0
  139.8060   70.8690  224.3420 C   0  0  0  0  0  0  0  0  0  0  0  0
  139.5400   69.4960  224.4690 C   0  0  0  0  0  0  0  0  0  0  0  0
  139.7380   68.8260  225.6550 C   0  0  0  0  0  0  0  0  0  0  0  0
  140.2060   69.4650  226.7810 C   0  0  0  0  0  0  0  0  0  0  0  0
  140.4720   68.6550  228.3060 Cl  0  0  0  0  0  0  0  0  0  0  0  0
  140.4720   70.8080  226.6780 C   0  0  0  0  0  0  0  0  0  0  0  0
  141.0740   71.6790  228.0870 Cl  0  0  0  0  0  0  0  0  0  0  0  0
  140.2720   71.4780  225.4850 C   0  0  0  0  0  0  0  0  0  0  0  0
  135.3750   75.1530  224.2160 C   0  0  0  0  0  0  0  0  0  0  0  0
  134.6310   76.0500  224.9520 C   0  0  0  0  0  0  0  0  0  0  0  0
  133.7290   75.6380  225.9340 C   0  0  0  0  0  0  0  0  0  0  0  0
  133.5840   74.2940  226.1700 C   0  0  0  0  0  0  0  0  0  0  0  0
  132.7290   73.7650  227.1120 C   0  0  0  0  0  0  0  0  0  0  0  0
  132.6260   72.4010  227.3040 C   0  0  0  0  0  0  0  0  0  0  0  0
  133.3880   71.5350  226.5460 C   0  0  0  0  0  0  0  0  0  0  0  0
  134.2470   72.0490  225.6020 C   0  0  0  0  0  0  0  0  0  0  0  0
  134.3530   73.4260  225.4060 C   0  0  0  0  0  0  0  0  0  0  0  0
  135.2090   73.8380  224.4720 N   0  0  0  0  0  0  0  0  0  0  0  0
  137.2820   73.7280  223.0570 H   0  0  0  0  0  0  0  0  0  0  0  0
  137.7321   75.1471  220.7017 H   0  0  0  0  0  0  0  0  0  0  0  0
  138.6609   76.0696  221.9552 H   0  0  0  0  0  0  0  0  0  0  0  0
  138.8244   73.5157  218.6400 H   0  0  0  0  0  0  0  0  0  0  0  0
  140.5406   73.5895  219.0832 H   0  0  0  0  0  0  0  0  0  0  0  0
  138.9076   71.2630  218.2372 H   0  0  0  0  0  0  0  0  0  0  0  0
  140.6480   71.3893  218.2577 H   0  0  0  0  0  0  0  0  0  0  0  0
  139.4653   69.8280  220.1520 H   0  0  0  0  0  0  0  0  0  0  0  0
  140.7162   70.8451  220.7524 H   0  0  0  0  0  0  0  0  0  0  0  0
  137.6890   71.4956  220.4826 H   0  0  0  0  0  0  0  0  0  0  0  0
  137.6401   72.1686  222.6668 H   0  0  0  0  0  0  0  0  0  0  0  0
  137.9781   70.4139  222.3941 H   0  0  0  0  0  0  0  0  0  0  0  0
  140.3350   72.1640  222.7650 H   0  0  0  0  0  0  0  0  0  0  0  0
  139.1632   68.9410  223.5972 H   0  0  0  0  0  0  0  0  0  0  0  0
  139.5161   67.7498  225.7045 H   0  0  0  0  0  0  0  0  0  0  0  0
  140.4971   72.5541  225.4475 H   0  0  0  0  0  0  0  0  0  0  0  0
  134.7522   77.1261  224.7590 H   0  0  0  0  0  0  0  0  0  0  0  0
  133.1467   76.3749  226.5066 H   0  0  0  0  0  0  0  0  0  0  0  0
  132.1157   74.4429  227.7238 H   0  0  0  0  0  0  0  0  0  0  0  0
  131.9353   72.0041  228.0625 H   0  0  0  0  0  0  0  0  0  0  0  0
  133.3096   70.4479  226.6947 H   0  0  0  0  0  0  0  0  0  0  0  0
  134.8579   71.3654  224.9942 H   0  0  0  0  0  0  0  0  0  0  0  0
  1  2  2  0
  2  3  1  0
  3  4  1  0
  4  5  1  0
  5  6  2  0
  5  7  1  0
  7  8  1  0
  8  9  1  0
  9 10  1  0
 10 11  1  0
 11 12  1  0
 12 13  1  0
 13 14  1  0
 14 15  2  0
 15 16  1  0
 16 17  2  0
 17 18  1  0
 17 19  1  0
 19 20  1  0
 19 21  2  0
  2 22  1  0
 22 23  2  0
 23 24  1  0
 24 25  2  0
 25 26  1  0
 26 27  2  0
 27 28  1  0
 28 29  2  0
 29 30  1  0
 30 31  2  0
 11  7  1  0
 21 14  1  0
 31 22  1  0
 30 25  1  0
  3 32  1  0
  4 33  1  0
  4 34  1  0
  8 35  1  0
  8 36  1  0
  9 37  1  0
  9 38  1  0
 10 39  1  0
 10 40  1  0
 11 41  1  6
 12 42  1  0
 12 43  1  0
 13 44  1  0
 15 45  1  0
 16 46  1  0
 21 47  1  0
 23 48  1  0
 24 49  1  0
 26 50  1  0
 27 51  1  0
 28 52  1  0
 29 53  1  0
M  END
>  <smiles>  (14) 
O=C(NCC(=O)N1CCC[C@H]1CNc1ccc(Cl)c(Cl)c1)c1ccc2ccccc2n1

>  <score_type>  (14) 
oracle

>  <origin>  (14) 
autodockgpu

>  <m_score__min__energy>  (14) 
-9.3599999999999994

>  <m_primary>  (14) 
energy

>  <rmsd>  (14) 
7.629044183795525

>  <m_score__min__rmsd>  (14) 
7.629044183795525

>  <meeko>  (14) 
{"free_energy": -7.94, "intermolecular_energy": -10.02, "internal_energy": -2.5, "cluster_size": 3, "cluster_id": 6, "rank_in_cluster": 2}

>  <energy>  (14) 
-8.29

>  <cluster_rmsd>  (14) 
1.67

>  <cluster>  (14) 
2

$$$$

     RDKit          3D

 53 56  0  0  0  0  0  0  0  0999 V2000
  139.3590   74.3310  221.9580 O   0  0  0  0  0  0  0  0  0  0  0  0
  140.5260   74.7880  221.8060 C   0  0  0  0  0  0  0  0  0  0  0  0
  140.8470   76.1300  222.1570 N   0  0  0  0  0  0  0  0  0  0  0  0
  139.8520   77.0340  222.7040 C   0  0  0  0  0  0  0  0  0  0  0  0
  139.7200   78.2630  221.8820 C   0  0  0  0  0  0  0  0  0  0  0  0
  138.9260   78.2460  220.9100 O   0  0  0  0  0  0  0  0  0  0  0  0
  140.5050   79.3920  222.2430 N   0  0  0  0  0  0  0  0  0  0  0  0
  140.5630   80.0660  223.5400 C   0  0  0  0  0  0  0  0  0  0  0  0
  141.8510   80.8280  223.5640 C   0  0  0  0  0  0  0  0  0  0  0  0
  142.5970   80.2410  222.3460 C   0  0  0  0  0  0  0  0  0  0  0  0
  141.4370   80.1450  221.4090 C   0  0  1  0  0  0  0  0  0  0  0  0
  141.6610   79.5390  220.0810 C   0  0  0  0  0  0  0  0  0  0  0  0
  142.2210   78.2250  220.2040 N   0  0  0  0  0  0  0  0  0  0  0  0
  142.0250   77.1330  219.3330 C   0  0  0  0  0  0  0  0  0  0  0  0
  140.7260   76.6850  219.0450 C   0  0  0  0  0  0  0  0  0  0  0  0
  140.4990   75.6020  218.2250 C   0  0  0  0  0  0  0  0  0  0  0  0
  141.5310   74.9000  217.6450 C   0  0  0  0  0  0  0  0  0  0  0  0
  141.2890   73.5210  216.6000 Cl  0  0  0  0  0  0  0  0  0  0  0  0
  142.8090   75.3230  217.9150 C   0  0  0  0  0  0  0  0  0  0  0  0
  144.1710   74.4620  217.2010 Cl  0  0  0  0  0  0  0  0  0  0  0  0
  143.0340   76.4100  218.7390 C   0  0  0  0  0  0  0  0  0  0  0  0
  141.6050   73.9530  221.2600 C   0  0  0  0  0  0  0  0  0  0  0  0
  141.3320   72.6800  220.8050 C   0  0  0  0  0  0  0  0  0  0  0  0
  142.3230   71.8510  220.2790 C   0  0  0  0  0  0  0  0  0  0  0  0
  143.6100   72.3250  220.2140 C   0  0  0  0  0  0  0  0  0  0  0  0
  144.6730   71.6030  219.7170 C   0  0  0  0  0  0  0  0  0  0  0  0
  145.9470   72.1340  219.6780 C   0  0  0  0  0  0  0  0  0  0  0  0
  146.1790   73.4120  220.1430 C   0  0  0  0  0  0  0  0  0  0  0  0
  145.1280   74.1450  220.6430 C   0  0  0  0  0  0  0  0  0  0  0  0
  143.8400   73.6110  220.6830 C   0  0  0  0  0  0  0  0  0  0  0  0
  142.8800   74.3880  221.1830 N   0  0  0  0  0  0  0  0  0  0  0  0
  141.8290   76.4800  222.0180 H   0  0  0  0  0  0  0  0  0  0  0  0
  138.8804   76.5191  222.7349 H   0  0  0  0  0  0  0  0  0  0  0  0
  140.1728   77.3284  223.7142 H   0  0  0  0  0  0  0  0  0  0  0  0
  139.7119   80.7542  223.6493 H   0  0  0  0  0  0  0  0  0  0  0  0
  140.5124   79.3429  224.3674 H   0  0  0  0  0  0  0  0  0  0  0  0
  141.6784   81.9077  223.4441 H   0  0  0  0  0  0  0  0  0  0  0  0
  142.4042   80.7324  224.5100 H   0  0  0  0  0  0  0  0  0  0  0  0
  143.3786   80.9184  221.9715 H   0  0  0  0  0  0  0  0  0  0  0  0
  143.1478   79.3059  222.5254 H   0  0  0  0  0  0  0  0  0  0  0  0
  141.1042   81.1355  221.0652 H   0  0  0  0  0  0  0  0  0  0  0  0
  140.7003   79.4723  219.5493 H   0  0  0  0  0  0  0  0  0  0  0  0
  142.3676   80.1703  219.5222 H   0  0  0  0  0  0  0  0  0  0  0  0
  142.8530   78.0490  221.0420 H   0  0  0  0  0  0  0  0  0  0  0  0
  139.8673   77.2126  219.4857 H   0  0  0  0  0  0  0  0  0  0  0  0
  139.4630   75.2891  218.0280 H   0  0  0  0  0  0  0  0  0  0  0  0
  144.0741   76.7129  218.9298 H   0  0  0  0  0  0  0  0  0  0  0  0
  140.2989   72.3061  220.8586 H   0  0  0  0  0  0  0  0  0  0  0  0
  142.0786   70.8390  219.9239 H   0  0  0  0  0  0  0  0  0  0  0  0
  144.5032   70.5824  219.3435 H   0  0  0  0  0  0  0  0  0  0  0  0
  146.7785   71.5369  219.2754 H   0  0  0  0  0  0  0  0  0  0  0  0
  147.1921   73.8395  220.1143 H   0  0  0  0  0  0  0  0  0  0  0  0
  145.3053   75.1646  221.0158 H   0  0  0  0  0  0  0  0  0  0  0  0
  1  2  2  0
  2  3  1  0
  3  4  1  0
  4  5  1  0
  5  6  2  0
  5  7  1  0
  7  8  1  0
  8  9  1  0
  9 10  1  0
 10 11  1  0
 11 12  1  0
 12 13  1  0
 13 14  1  0
 14 15  2  0
 15 16  1  0
 16 17  2  0
 17 18  1  0
 17 19  1  0
 19 20  1  0
 19 21  2  0
  2 22  1  0
 22 23  2  0
 23 24  1  0
 24 25  2  0
 25 26  1  0
 26 27  2  0
 27 28  1  0
 28 29  2  0
 29 30  1  0
 30 31  2  0
 11  7  1  0
 21 14  1  0
 31 22  1  0
 30 25  1  0
  3 32  1  0
  4 33  1  0
  4 34  1  0
  8 35  1  0
  8 36  1  0
  9 37  1  0
  9 38  1  0
 10 39  1  0
 10 40  1  0
 11 41  1  6
 12 42  1  0
 12 43  1  0
 13 44  1  0
 15 45  1  0
 16 46  1  0
 21 47  1  0
 23 48  1  0
 24 49  1  0
 26 50  1  0
 27 51  1  0
 28 52  1  0
 29 53  1  0
M  END
>  <smiles>  (15) 
O=C(NCC(=O)N1CCC[C@H]1CNc1ccc(Cl)c(Cl)c1)c1ccc2ccccc2n1

>  <score_type>  (15) 
oracle

>  <origin>  (15) 
autodockgpu

>  <m_score__min__energy>  (15) 
-9.3599999999999994

>  <m_primary>  (15) 
energy

>  <rmsd>  (15) 
6.325415660657009

>  <m_score__min__rmsd>  (15) 
6.325415660657009

>  <meeko>  (15) 
{"free_energy": -6.37, "intermolecular_energy": -8.46, "internal_energy": -3.82, "cluster_size": 1, "cluster_id": 10, "rank_in_cluster": 1}

>  <energy>  (15) 
-8.2

>  <cluster_rmsd>  (15) 
1.45

>  <cluster>  (15) 
2

$$$$

     RDKit          3D

 53 56  0  0  0  0  0  0  0  0999 V2000
  136.7480   71.7460  222.4210 O   0  0  0  0  0  0  0  0  0  0  0  0
  136.4470   72.8820  222.8810 C   0  0  0  0  0  0  0  0  0  0  0  0
  137.0260   74.0710  222.3550 N   0  0  0  0  0  0  0  0  0  0  0  0
  137.9860   74.0370  221.2670 C   0  0  0  0  0  0  0  0  0  0  0  0
  139.3750   74.2120  221.7600 C   0  0  0  0  0  0  0  0  0  0  0  0
  139.5750   75.0150  222.7030 O   0  0  0  0  0  0  0  0  0  0  0  0
  140.4030   73.4580  221.1320 N   0  0  0  0  0  0  0  0  0  0  0  0
  141.5510   73.9610  220.3770 C   0  0  0  0  0  0  0  0  0  0  0  0
  142.5660   72.8610  220.3680 C   0  0  0  0  0  0  0  0  0  0  0  0
  142.0090   71.8960  221.4380 C   0  0  0  0  0  0  0  0  0  0  0  0
  140.5600   72.0060  221.0910 C   0  0  1  0  0  0  0  0  0  0  0  0
  139.5840   71.2850  221.9330 C   0  0  0  0  0  0  0  0  0  0  0  0
  139.6110   71.7720  223.2820 N   0  0  0  0  0  0  0  0  0  0  0  0
  139.8640   71.0240  224.4500 C   0  0  0  0  0  0  0  0  0  0  0  0
  139.6060   69.6440  224.4730 C   0  0  0  0  0  0  0  0  0  0  0  0
  139.8100   68.8870  225.6050 C   0  0  0  0  0  0  0  0  0  0  0  0
  140.2760   69.4430  226.7760 C   0  0  0  0  0  0  0  0  0  0  0  0
  140.5480   68.5220  228.2350 Cl  0  0  0  0  0  0  0  0  0  0  0  0
  140.5330   70.7910  226.7740 C   0  0  0  0  0  0  0  0  0  0  0  0
  141.1310   71.5570  228.2440 Cl  0  0  0  0  0  0  0  0  0  0  0  0
  140.3270   71.5480  225.6350 C   0  0  0  0  0  0  0  0  0  0  0  0
  135.4850   73.0250  223.9820 C   0  0  0  0  0  0  0  0  0  0  0  0
  134.8780   71.9100  224.5200 C   0  0  0  0  0  0  0  0  0  0  0  0
  133.9590   71.9960  225.5660 C   0  0  0  0  0  0  0  0  0  0  0  0
  133.6520   73.2360  226.0700 C   0  0  0  0  0  0  0  0  0  0  0  0
  132.7610   73.4500  227.1000 C   0  0  0  0  0  0  0  0  0  0  0  0
  132.4930   74.7220  227.5650 C   0  0  0  0  0  0  0  0  0  0  0  0
  133.1210   75.8130  226.9990 C   0  0  0  0  0  0  0  0  0  0  0  0
  134.0130   75.6150  225.9710 C   0  0  0  0  0  0  0  0  0  0  0  0
  134.2850   74.3310  225.4990 C   0  0  0  0  0  0  0  0  0  0  0  0
  135.1610   74.2280  224.5000 N   0  0  0  0  0  0  0  0  0  0  0  0
  136.7530   75.0030  222.7610 H   0  0  0  0  0  0  0  0  0  0  0  0
  137.9089   73.0677  220.7528 H   0  0  0  0  0  0  0  0  0  0  0  0
  137.7574   74.8649  220.5797 H   0  0  0  0  0  0  0  0  0  0  0  0
  141.2504   74.2097  219.3485 H   0  0  0  0  0  0  0  0  0  0  0  0
  141.9582   74.8755  220.8329 H   0  0  0  0  0  0  0  0  0  0  0  0
  142.6198   72.3758  219.3823 H   0  0  0  0  0  0  0  0  0  0  0  0
  143.5911   73.2037  220.5725 H   0  0  0  0  0  0  0  0  0  0  0  0
  142.3899   70.8717  221.3128 H   0  0  0  0  0  0  0  0  0  0  0  0
  142.2728   72.1296  222.4800 H   0  0  0  0  0  0  0  0  0  0  0  0
  140.3284   71.5097  220.1370 H   0  0  0  0  0  0  0  0  0  0  0  0
  138.5753   71.4292  221.5185 H   0  0  0  0  0  0  0  0  0  0  0  0
  139.8483   70.2173  221.9402 H   0  0  0  0  0  0  0  0  0  0  0  0
  139.4200   72.8090  223.4210 H   0  0  0  0  0  0  0  0  0  0  0  0
  139.2308   69.1544  223.5622 H   0  0  0  0  0  0  0  0  0  0  0  0
  139.5949   67.8087  225.5733 H   0  0  0  0  0  0  0  0  0  0  0  0
  140.5447   72.6254  225.6787 H   0  0  0  0  0  0  0  0  0  0  0  0
  135.1267   70.9197  224.1108 H   0  0  0  0  0  0  0  0  0  0  0  0
  133.4904   71.0902  225.9781 H   0  0  0  0  0  0  0  0  0  0  0  0
  132.2533   72.5898  227.5607 H   0  0  0  0  0  0  0  0  0  0  0  0
  131.7777   74.8663  228.3881 H   0  0  0  0  0  0  0  0  0  0  0  0
  132.9106   76.8285  227.3656 H   0  0  0  0  0  0  0  0  0  0  0  0
  134.5180   76.4797  225.5156 H   0  0  0  0  0  0  0  0  0  0  0  0
  1  2  2  0
  2  3  1  0
  3  4  1  0
  4  5  1  0
  5  6  2  0
  5  7  1  0
  7  8  1  0
  8  9  1  0
  9 10  1  0
 10 11  1  0
 11 12  1  0
 12 13  1  0
 13 14  1  0
 14 15  2  0
 15 16  1  0
 16 17  2  0
 17 18  1  0
 17 19  1  0
 19 20  1  0
 19 21  2  0
  2 22  1  0
 22 23  2  0
 23 24  1  0
 24 25  2  0
 25 26  1  0
 26 27  2  0
 27 28  1  0
 28 29  2  0
 29 30  1  0
 30 31  2  0
 11  7  1  0
 21 14  1  0
 31 22  1  0
 30 25  1  0
  3 32  1  0
  4 33  1  0
  4 34  1  0
  8 35  1  0
  8 36  1  0
  9 37  1  0
  9 38  1  0
 10 39  1  0
 10 40  1  0
 11 41  1  6
 12 42  1  0
 12 43  1  0
 13 44  1  0
 15 45  1  0
 16 46  1  0
 21 47  1  0
 23 48  1  0
 24 49  1  0
 26 50  1  0
 27 51  1  0
 28 52  1  0
 29 53  1  0
M  END
>  <smiles>  (16) 
O=C(NCC(=O)N1CCC[C@H]1CNc1ccc(Cl)c(Cl)c1)c1ccc2ccccc2n1

>  <score_type>  (16) 
oracle

>  <origin>  (16) 
autodockgpu

>  <m_score__min__energy>  (16) 
-9.3599999999999994

>  <m_primary>  (16) 
energy

>  <rmsd>  (16) 
7.291784947132255

>  <m_score__min__rmsd>  (16) 
7.291784947132255

>  <meeko>  (16) 
{"free_energy": -8.01, "intermolecular_energy": -10.1, "internal_energy": -2.65, "cluster_size": 3, "cluster_id": 6, "rank_in_cluster": 1}

>  <energy>  (16) 
-8.16

>  <cluster_rmsd>  (16) 
1.92

>  <cluster>  (16) 
2

$$$$

     RDKit          3D

 53 56  0  0  0  0  0  0  0  0999 V2000
  139.6560   73.2560  222.7240 O   0  0  0  0  0  0  0  0  0  0  0  0
  139.7480   71.9980  222.7430 C   0  0  0  0  0  0  0  0  0  0  0  0
  139.5630   71.2240  221.5630 N   0  0  0  0  0  0  0  0  0  0  0  0
  139.2610   71.8410  220.2850 C   0  0  0  0  0  0  0  0  0  0  0  0
  140.4960   72.1440  219.5200 C   0  0  0  0  0  0  0  0  0  0  0  0
  140.5020   71.9200  218.2850 O   0  0  0  0  0  0  0  0  0  0  0  0
  141.6070   72.6720  220.2330 N   0  0  0  0  0  0  0  0  0  0  0  0
  142.8770   72.0100  220.5340 C   0  0  0  0  0  0  0  0  0  0  0  0
  143.8610   73.0980  220.8300 C   0  0  0  0  0  0  0  0  0  0  0  0
  143.1120   74.3560  220.3400 C   0  0  0  0  0  0  0  0  0  0  0  0
  141.7470   73.9980  220.8310 C   0  0  1  0  0  0  0  0  0  0  0  0
  140.6290   74.9080  220.5110 C   0  0  0  0  0  0  0  0  0  0  0  0
  140.2470   75.6760  221.6610 N   0  0  0  0  0  0  0  0  0  0  0  0
  140.4790   77.0500  221.8790 C   0  0  0  0  0  0  0  0  0  0  0  0
  141.5870   77.6800  221.2910 C   0  0  0  0  0  0  0  0  0  0  0  0
  141.8630   79.0120  221.5080 C   0  0  0  0  0  0  0  0  0  0  0  0
  141.0680   79.7960  222.3140 C   0  0  0  0  0  0  0  0  0  0  0  0
  141.3800   81.4880  222.6170 Cl  0  0  0  0  0  0  0  0  0  0  0  0
  139.9800   79.1980  222.8980 C   0  0  0  0  0  0  0  0  0  0  0  0
  138.9270   80.1520  223.9400 Cl  0  0  0  0  0  0  0  0  0  0  0  0
  139.7060   77.8610  222.6780 C   0  0  0  0  0  0  0  0  0  0  0  0
  140.0500   71.2760  223.9870 C   0  0  0  0  0  0  0  0  0  0  0  0
  140.7260   71.9110  225.0080 C   0  0  0  0  0  0  0  0  0  0  0  0
  141.0340   71.2670  226.2070 C   0  0  0  0  0  0  0  0  0  0  0  0
  140.6490   69.9590  226.3680 C   0  0  0  0  0  0  0  0  0  0  0  0
  140.8970   69.2180  227.5040 C   0  0  0  0  0  0  0  0  0  0  0  0
  140.4840   67.9040  227.6070 C   0  0  0  0  0  0  0  0  0  0  0  0
  139.8090   67.3050  226.5630 C   0  0  0  0  0  0  0  0  0  0  0  0
  139.5560   68.0330  225.4230 C   0  0  0  0  0  0  0  0  0  0  0  0
  139.9720   69.3600  225.3160 C   0  0  0  0  0  0  0  0  0  0  0  0
  139.6860   69.9910  224.1770 N   0  0  0  0  0  0  0  0  0  0  0  0
  139.6450   70.1760  221.6130 H   0  0  0  0  0  0  0  0  0  0  0  0
  138.6354   71.1543  219.6959 H   0  0  0  0  0  0  0  0  0  0  0  0
  138.7331   72.7871  220.4756 H   0  0  0  0  0  0  0  0  0  0  0  0
  142.7647   71.3507  221.4073 H   0  0  0  0  0  0  0  0  0  0  0  0
  143.2120   71.3879  219.6909 H   0  0  0  0  0  0  0  0  0  0  0  0
  144.0785   73.1572  221.9067 H   0  0  0  0  0  0  0  0  0  0  0  0
  144.8397   72.9513  220.3498 H   0  0  0  0  0  0  0  0  0  0  0  0
  143.4939   75.2755  220.8076 H   0  0  0  0  0  0  0  0  0  0  0  0
  143.1935   74.5753  219.2652 H   0  0  0  0  0  0  0  0  0  0  0  0
  141.6774   74.0572  221.9272 H   0  0  0  0  0  0  0  0  0  0  0  0
  140.9406   75.5926  219.7084 H   0  0  0  0  0  0  0  0  0  0  0  0
  139.7669   74.3051  220.1896 H   0  0  0  0  0  0  0  0  0  0  0  0
  139.7340   75.1580  222.4350 H   0  0  0  0  0  0  0  0  0  0  0  0
  142.2525   77.0945  220.6397 H   0  0  0  0  0  0  0  0  0  0  0  0
  142.7426   79.4618  221.0242 H   0  0  0  0  0  0  0  0  0  0  0  0
  138.8238   77.4224  223.1673 H   0  0  0  0  0  0  0  0  0  0  0  0
  141.0322   72.9588  224.8727 H   0  0  0  0  0  0  0  0  0  0  0  0
  141.5738   71.7961  227.0062 H   0  0  0  0  0  0  0  0  0  0  0  0
  141.4340   69.6822  228.3443 H   0  0  0  0  0  0  0  0  0  0  0  0
  140.6937   67.3334  228.5238 H   0  0  0  0  0  0  0  0  0  0  0  0
  139.4775   66.2591  226.6411 H   0  0  0  0  0  0  0  0  0  0  0  0
  139.0192   67.5627  224.5860 H   0  0  0  0  0  0  0  0  0  0  0  0
  1  2  2  0
  2  3  1  0
  3  4  1  0
  4  5  1  0
  5  6  2  0
  5  7  1  0
  7  8  1  0
  8  9  1  0
  9 10  1  0
 10 11  1  0
 11 12  1  0
 12 13  1  0
 13 14  1  0
 14 15  2  0
 15 16  1  0
 16 17  2  0
 17 18  1  0
 17 19  1  0
 19 20  1  0
 19 21  2  0
  2 22  1  0
 22 23  2  0
 23 24  1  0
 24 25  2  0
 25 26  1  0
 26 27  2  0
 27 28  1  0
 28 29  2  0
 29 30  1  0
 30 31  2  0
 11  7  1  0
 21 14  1  0
 31 22  1  0
 30 25  1  0
  3 32  1  0
  4 33  1  0
  4 34  1  0
  8 35  1  0
  8 36  1  0
  9 37  1  0
  9 38  1  0
 10 39  1  0
 10 40  1  0
 11 41  1  1
 12 42  1  0
 12 43  1  0
 13 44  1  0
 15 45  1  0
 16 46  1  0
 21 47  1  0
 23 48  1  0
 24 49  1  0
 26 50  1  0
 27 51  1  0
 28 52  1  0
 29 53  1  0
M  END
>  <smiles>  (17) 
O=C(NCC(=O)N1CCC[C@H]1CNc1ccc(Cl)c(Cl)c1)c1ccc2ccccc2n1

>  <score_type>  (17) 
oracle

>  <origin>  (17) 
autodockgpu

>  <m_score__min__energy>  (17) 
-9.3599999999999994

>  <m_primary>  (17) 
energy

>  <rmsd>  (17) 
3.7564940807555147

>  <m_score__min__rmsd>  (17) 
3.7564940807555147

>  <meeko>  (17) 
{"free_energy": -8.2, "intermolecular_energy": -10.29, "internal_energy": -2.52, "cluster_size": 16, "cluster_id": 2, "rank_in_cluster": 12}

>  <energy>  (17) 
-8.09

>  <cluster_rmsd>  (17) 
1.65

>  <cluster>  (17) 
2

$$$$

     RDKit          3D

 53 56  0  0  0  0  0  0  0  0999 V2000
  138.9290   73.0030  222.6130 O   0  0  0  0  0  0  0  0  0  0  0  0
  139.7770   72.0720  222.6900 C   0  0  0  0  0  0  0  0  0  0  0  0
  140.7320   71.8530  221.6580 N   0  0  0  0  0  0  0  0  0  0  0  0
  140.7770   72.6870  220.4710 C   0  0  0  0  0  0  0  0  0  0  0  0
  140.6430   74.1250  220.8080 C   0  0  0  0  0  0  0  0  0  0  0  0
  141.0850   74.5210  221.9150 O   0  0  0  0  0  0  0  0  0  0  0  0
  140.0180   74.9760  219.8570 N   0  0  0  0  0  0  0  0  0  0  0  0
  140.4130   75.2110  218.4670 C   0  0  0  0  0  0  0  0  0  0  0  0
  139.2040   75.7510  217.7690 C   0  0  0  0  0  0  0  0  0  0  0  0
  138.0840   75.4670  218.7940 C   0  0  0  0  0  0  0  0  0  0  0  0
  138.8370   75.8160  220.0370 C   0  0  1  0  0  0  0  0  0  0  0  0
  138.1670   75.6180  221.3370 C   0  0  0  0  0  0  0  0  0  0  0  0
  139.0570   75.9110  222.4230 N   0  0  0  0  0  0  0  0  0  0  0  0
  139.6480   77.1540  222.7250 C   0  0  0  0  0  0  0  0  0  0  0  0
  141.0450   77.2940  222.7040 C   0  0  0  0  0  0  0  0  0  0  0  0
  141.6590   78.4840  223.0250 C   0  0  0  0  0  0  0  0  0  0  0  0
  140.9370   79.6000  223.3850 C   0  0  0  0  0  0  0  0  0  0  0  0
  141.6730   81.1290  223.8000 Cl  0  0  0  0  0  0  0  0  0  0  0  0
  139.5690   79.4830  223.4110 C   0  0  0  0  0  0  0  0  0  0  0  0
  138.5930   80.8790  223.8640 Cl  0  0  0  0  0  0  0  0  0  0  0  0
  138.9560   78.2870  223.0890 C   0  0  0  0  0  0  0  0  0  0  0  0
  139.8150   71.1720  223.8510 C   0  0  0  0  0  0  0  0  0  0  0  0
  139.2700   69.9080  223.7660 C   0  0  0  0  0  0  0  0  0  0  0  0
  139.2830   69.0190  224.8400 C   0  0  0  0  0  0  0  0  0  0  0  0
  139.8580   69.4230  226.0200 C   0  0  0  0  0  0  0  0  0  0  0  0
  139.9310   68.6380  227.1500 C   0  0  0  0  0  0  0  0  0  0  0  0
  140.5230   69.1010  228.3090 C   0  0  0  0  0  0  0  0  0  0  0  0
  141.0570   70.3720  228.3550 C   0  0  0  0  0  0  0  0  0  0  0  0
  140.9900   71.1680  227.2340 C   0  0  0  0  0  0  0  0  0  0  0  0
  140.3930   70.7030  226.0630 C   0  0  0  0  0  0  0  0  0  0  0  0
  140.3720   71.5390  225.0250 N   0  0  0  0  0  0  0  0  0  0  0  0
  141.4260   71.0680  221.7520 H   0  0  0  0  0  0  0  0  0  0  0  0
  141.7379   72.5283  219.9596 H   0  0  0  0  0  0  0  0  0  0  0  0
  139.9348   72.4062  219.8214 H   0  0  0  0  0  0  0  0  0  0  0  0
  141.2350   75.9407  218.4234 H   0  0  0  0  0  0  0  0  0  0  0  0
  140.7673   74.2846  217.9913 H   0  0  0  0  0  0  0  0  0  0  0  0
  139.3034   76.8292  217.5749 H   0  0  0  0  0  0  0  0  0  0  0  0
  139.0249   75.3001  216.7818 H   0  0  0  0  0  0  0  0  0  0  0  0
  137.2082   76.1152  218.6429 H   0  0  0  0  0  0  0  0  0  0  0  0
  137.6497   74.4568  218.7633 H   0  0  0  0  0  0  0  0  0  0  0  0
  139.0083   76.8992  220.1221 H   0  0  0  0  0  0  0  0  0  0  0  0
  137.2941   76.2846  221.3972 H   0  0  0  0  0  0  0  0  0  0  0  0
  137.8542   74.5662  221.4138 H   0  0  0  0  0  0  0  0  0  0  0  0
  139.3000   75.1050  223.0740 H   0  0  0  0  0  0  0  0  0  0  0  0
  141.6654   76.4300  222.4236 H   0  0  0  0  0  0  0  0  0  0  0  0
  142.7568   78.5449  222.9930 H   0  0  0  0  0  0  0  0  0  0  0  0
  137.8577   78.2378  223.1255 H   0  0  0  0  0  0  0  0  0  0  0  0
  138.8095   69.5905  222.8189 H   0  0  0  0  0  0  0  0  0  0  0  0
  138.8423   68.0157  224.7443 H   0  0  0  0  0  0  0  0  0  0  0  0
  139.5094   67.6222  227.1288 H   0  0  0  0  0  0  0  0  0  0  0  0
  140.5687   68.4544  229.1977 H   0  0  0  0  0  0  0  0  0  0  0  0
  141.5302   70.7446  229.2755 H   0  0  0  0  0  0  0  0  0  0  0  0
  141.4126   72.1832  227.2624 H   0  0  0  0  0  0  0  0  0  0  0  0
  1  2  2  0
  2  3  1  0
  3  4  1  0
  4  5  1  0
  5  6  2  0
  5  7  1  0
  7  8  1  0
  8  9  1  0
  9 10  1  0
 10 11  1  0
 11 12  1  0
 12 13  1  0
 13 14  1  0
 14 15  2  0
 15 16  1  0
 16 17  2  0
 17 18  1  0
 17 19  1  0
 19 20  1  0
 19 21  2  0
  2 22  1  0
 22 23  2  0
 23 24  1  0
 24 25  2  0
 25 26  1  0
 26 27  2  0
 27 28  1  0
 28 29  2  0
 29 30  1  0
 30 31  2  0
 11  7  1  0
 21 14  1  0
 31 22  1  0
 30 25  1  0
  3 32  1  0
  4 33  1  0
  4 34  1  0
  8 35  1  0
  8 36  1  0
  9 37  1  0
  9 38  1  0
 10 39  1  0
 10 40  1  0
 11 41  1  6
 12 42  1  0
 12 43  1  0
 13 44  1  0
 15 45  1  0
 16 46  1  0
 21 47  1  0
 23 48  1  0
 24 49  1  0
 26 50  1  0
 27 51  1  0
 28 52  1  0
 29 53  1  0
M  END
>  <smiles>  (18) 
O=C(NCC(=O)N1CCC[C@H]1CNc1ccc(Cl)c(Cl)c1)c1ccc2ccccc2n1

>  <score_type>  (18) 
oracle

>  <origin>  (18) 
autodockgpu

>  <m_score__min__energy>  (18) 
-9.3599999999999994

>  <m_primary>  (18) 
energy

>  <rmsd>  (18) 
2.640255544834904

>  <m_score__min__rmsd>  (18) 
2.640255544834904

>  <meeko>  (18) 
{"free_energy": -8.32, "intermolecular_energy": -10.4, "internal_energy": -2.56, "cluster_size": 16, "cluster_id": 2, "rank_in_cluster": 10}

>  <energy>  (18) 
-7.97

>  <cluster_rmsd>  (18) 
1.9

>  <cluster>  (18) 
2

$$$$

     RDKit          3D

 53 56  0  0  0  0  0  0  0  0999 V2000
  138.5760   72.1780  221.6530 O   0  0  0  0  0  0  0  0  0  0  0  0
  139.5370   72.2670  222.4660 C   0  0  0  0  0  0  0  0  0  0  0  0
  140.6470   73.1200  222.2120 N   0  0  0  0  0  0  0  0  0  0  0  0
  140.7290   73.9280  221.0090 C   0  0  0  0  0  0  0  0  0  0  0  0
  139.5990   74.8850  220.9160 C   0  0  0  0  0  0  0  0  0  0  0  0
  138.6960   74.6600  220.0720 O   0  0  0  0  0  0  0  0  0  0  0  0
  139.6020   76.0050  221.7900 N   0  0  0  0  0  0  0  0  0  0  0  0
  140.7570   76.7670  222.2680 C   0  0  0  0  0  0  0  0  0  0  0  0
  140.2320   78.0940  222.7180 C   0  0  0  0  0  0  0  0  0  0  0  0
  138.8010   78.0910  222.1370 C   0  0  0  0  0  0  0  0  0  0  0  0
  138.4590   76.6630  222.4170 C   0  0  1  0  0  0  0  0  0  0  0  0
  137.1560   76.1530  221.9470 C   0  0  0  0  0  0  0  0  0  0  0  0
  136.9700   74.7840  222.3350 N   0  0  0  0  0  0  0  0  0  0  0  0
  136.1470   74.3000  223.3720 C   0  0  0  0  0  0  0  0  0  0  0  0
  135.8880   72.9250  223.4830 C   0  0  0  0  0  0  0  0  0  0  0  0
  135.0630   72.4190  224.4620 C   0  0  0  0  0  0  0  0  0  0  0  0
  134.4460   73.2340  225.3850 C   0  0  0  0  0  0  0  0  0  0  0  0
  133.3920   72.6360  226.6440 Cl  0  0  0  0  0  0  0  0  0  0  0  0
  134.6860   74.5820  225.2930 C   0  0  0  0  0  0  0  0  0  0  0  0
  133.9240   75.6740  226.4470 Cl  0  0  0  0  0  0  0  0  0  0  0  0
  135.5150   75.0870  224.3080 C   0  0  0  0  0  0  0  0  0  0  0  0
  139.5500   71.4900  223.7140 C   0  0  0  0  0  0  0  0  0  0  0  0
  138.7800   70.3510  223.8290 C   0  0  0  0  0  0  0  0  0  0  0  0
  138.7610   69.5820  224.9930 C   0  0  0  0  0  0  0  0  0  0  0  0
  139.5350   69.9790  226.0550 C   0  0  0  0  0  0  0  0  0  0  0  0
  139.5990   69.3050  227.2550 C   0  0  0  0  0  0  0  0  0  0  0  0
  140.3980   69.7530  228.2890 C   0  0  0  0  0  0  0  0  0  0  0  0
  141.1530   70.8970  228.1350 C   0  0  0  0  0  0  0  0  0  0  0  0
  141.0990   71.5810  226.9420 C   0  0  0  0  0  0  0  0  0  0  0  0
  140.2930   71.1300  225.8970 C   0  0  0  0  0  0  0  0  0  0  0  0
  140.2990   71.8530  224.7770 N   0  0  0  0  0  0  0  0  0  0  0  0
  141.4320   73.1710  222.9110 H   0  0  0  0  0  0  0  0  0  0  0  0
  141.6738   74.4912  221.0209 H   0  0  0  0  0  0  0  0  0  0  0  0
  140.6833   73.2560  220.1393 H   0  0  0  0  0  0  0  0  0  0  0  0
  141.2369   76.2433  223.1079 H   0  0  0  0  0  0  0  0  0  0  0  0
  141.5118   76.8848  221.4765 H   0  0  0  0  0  0  0  0  0  0  0  0
  140.2170   78.1659  223.8155 H   0  0  0  0  0  0  0  0  0  0  0  0
  140.8423   78.9467  222.3857 H   0  0  0  0  0  0  0  0  0  0  0  0
  138.1360   78.7892  222.6664 H   0  0  0  0  0  0  0  0  0  0  0  0
  138.7075   78.4107  221.0886 H   0  0  0  0  0  0  0  0  0  0  0  0
  138.3111   76.4801  223.4916 H   0  0  0  0  0  0  0  0  0  0  0  0
  136.3519   76.7633  222.3840 H   0  0  0  0  0  0  0  0  0  0  0  0
  137.1314   76.2128  220.8489 H   0  0  0  0  0  0  0  0  0  0  0  0
  137.5100   74.0520  221.7840 H   0  0  0  0  0  0  0  0  0  0  0  0
  136.3570   72.2328  222.7682 H   0  0  0  0  0  0  0  0  0  0  0  0
  134.8918   71.3334  224.5084 H   0  0  0  0  0  0  0  0  0  0  0  0
  135.6778   76.1742  224.2705 H   0  0  0  0  0  0  0  0  0  0  0  0
  138.1608   70.0390  222.9750 H   0  0  0  0  0  0  0  0  0  0  0  0
  138.1391   68.6770  225.0583 H   0  0  0  0  0  0  0  0  0  0  0  0
  139.0017   68.3916  227.3925 H   0  0  0  0  0  0  0  0  0  0  0  0
  140.4322   69.1963  229.2371 H   0  0  0  0  0  0  0  0  0  0  0  0
  141.7904   71.2582  228.9555 H   0  0  0  0  0  0  0  0  0  0  0  0
  141.6985   72.4940  226.8112 H   0  0  0  0  0  0  0  0  0  0  0  0
  1  2  2  0
  2  3  1  0
  3  4  1  0
  4  5  1  0
  5  6  2  0
  5  7  1  0
  7  8  1  0
  8  9  1  0
  9 10  1  0
 10 11  1  0
 11 12  1  0
 12 13  1  0
 13 14  1  0
 14 15  2  0
 15 16  1  0
 16 17  2  0
 17 18  1  0
 17 19  1  0
 19 20  1  0
 19 21  2  0
  2 22  1  0
 22 23  2  0
 23 24  1  0
 24 25  2  0
 25 26  1  0
 26 27  2  0
 27 28  1  0
 28 29  2  0
 29 30  1  0
 30 31  2  0
 11  7  1  0
 21 14  1  0
 31 22  1  0
 30 25  1  0
  3 32  1  0
  4 33  1  0
  4 34  1  0
  8 35  1  0
  8 36  1  0
  9 37  1  0
  9 38  1  0
 10 39  1  0
 10 40  1  0
 11 41  1  1
 12 42  1  0
 12 43  1  0
 13 44  1  0
 15 45  1  0
 16 46  1  0
 21 47  1  0
 23 48  1  0
 24 49  1  0
 26 50  1  0
 27 51  1  0
 28 52  1  0
 29 53  1  0
M  END
>  <smiles>  (19) 
O=C(NCC(=O)N1CCC[C@H]1CNc1ccc(Cl)c(Cl)c1)c1ccc2ccccc2n1

>  <score_type>  (19) 
oracle

>  <origin>  (19) 
autodockgpu

>  <m_score__min__energy>  (19) 
-9.3599999999999994

>  <m_primary>  (19) 
energy

>  <rmsd>  (19) 
5.169923731930309

>  <m_score__min__rmsd>  (19) 
5.169923731930309

>  <meeko>  (19) 
{"free_energy": -7.32, "intermolecular_energy": -9.41, "internal_energy": -3.59, "cluster_size": 2, "cluster_id": 5, "rank_in_cluster": 2}

>  <energy>  (19) 
-7.86

>  <cluster_rmsd>  (19) 
1.87

>  <cluster>  (19) 
2

$$$$

     RDKit          3D

 53 56  0  0  0  0  0  0  0  0999 V2000
  140.6950   73.3760  222.6530 O   0  0  0  0  0  0  0  0  0  0  0  0
  139.8900   72.4060  222.7100 C   0  0  0  0  0  0  0  0  0  0  0  0
  138.9440   72.1660  221.6740 N   0  0  0  0  0  0  0  0  0  0  0  0
  138.8600   73.0210  220.5040 C   0  0  0  0  0  0  0  0  0  0  0  0
  137.4560   73.2040  220.0610 C   0  0  0  0  0  0  0  0  0  0  0  0
  136.7130   72.1930  220.0040 O   0  0  0  0  0  0  0  0  0  0  0  0
  137.0300   74.5170  219.7240 N   0  0  0  0  0  0  0  0  0  0  0  0
  136.6640   75.0300  218.4030 C   0  0  0  0  0  0  0  0  0  0  0  0
  135.8320   76.2520  218.6400 C   0  0  0  0  0  0  0  0  0  0  0  0
  135.5190   76.1440  220.1480 C   0  0  0  0  0  0  0  0  0  0  0  0
  136.8560   75.6640  220.6120 C   0  0  1  0  0  0  0  0  0  0  0  0
  137.0220   75.3320  222.0410 C   0  0  0  0  0  0  0  0  0  0  0  0
  138.3990   75.4160  222.4310 N   0  0  0  0  0  0  0  0  0  0  0  0
  139.2180   76.5640  222.4160 C   0  0  0  0  0  0  0  0  0  0  0  0
  140.5240   76.4920  221.9080 C   0  0  0  0  0  0  0  0  0  0  0  0
  141.3630   77.5840  221.9070 C   0  0  0  0  0  0  0  0  0  0  0  0
  140.9670   78.8050  222.4040 C   0  0  0  0  0  0  0  0  0  0  0  0
  141.9970   80.2160  222.4230 Cl  0  0  0  0  0  0  0  0  0  0  0  0
  139.6920   78.8960  222.9060 C   0  0  0  0  0  0  0  0  0  0  0  0
  139.1290   80.4340  223.5560 Cl  0  0  0  0  0  0  0  0  0  0  0  0
  138.8530   77.7970  222.9050 C   0  0  0  0  0  0  0  0  0  0  0  0
  139.8940   71.4810  223.8530 C   0  0  0  0  0  0  0  0  0  0  0  0
  139.3110   70.2360  223.7370 C   0  0  0  0  0  0  0  0  0  0  0  0
  139.2910   69.3250  224.7930 C   0  0  0  0  0  0  0  0  0  0  0  0
  139.8720   69.6870  225.9840 C   0  0  0  0  0  0  0  0  0  0  0  0
  139.9150   68.8760  227.0970 C   0  0  0  0  0  0  0  0  0  0  0  0
  140.5140   69.2960  228.2690 C   0  0  0  0  0  0  0  0  0  0  0  0
  141.0850   70.5500  228.3450 C   0  0  0  0  0  0  0  0  0  0  0  0
  141.0490   71.3700  227.2410 C   0  0  0  0  0  0  0  0  0  0  0  0
  140.4450   70.9490  226.0560 C   0  0  0  0  0  0  0  0  0  0  0  0
  140.4550   71.8060  225.0360 N   0  0  0  0  0  0  0  0  0  0  0  0
  138.2870   71.3490  221.7520 H   0  0  0  0  0  0  0  0  0  0  0  0
  139.2881   74.0042  220.7489 H   0  0  0  0  0  0  0  0  0  0  0  0
  139.4189   72.5417  219.6868 H   0  0  0  0  0  0  0  0  0  0  0  0
  137.5676   75.2898  217.8320 H   0  0  0  0  0  0  0  0  0  0  0  0
  136.1108   74.2773  217.8220 H   0  0  0  0  0  0  0  0  0  0  0  0
  136.3962   77.1689  218.4142 H   0  0  0  0  0  0  0  0  0  0  0  0
  134.9354   76.3064  218.0051 H   0  0  0  0  0  0  0  0  0  0  0  0
  135.2513   77.1163  220.5873 H   0  0  0  0  0  0  0  0  0  0  0  0
  134.6617   75.5089  220.4158 H   0  0  0  0  0  0  0  0  0  0  0  0
  137.6179   76.4554  220.5550 H   0  0  0  0  0  0  0  0  0  0  0  0
  136.4332   76.0380  222.6451 H   0  0  0  0  0  0  0  0  0  0  0  0
  136.6736   74.3015  222.2043 H   0  0  0  0  0  0  0  0  0  0  0  0
  138.8570   74.5180  222.7700 H   0  0  0  0  0  0  0  0  0  0  0  0
  140.8875   75.5375  221.4995 H   0  0  0  0  0  0  0  0  0  0  0  0
  142.3783   77.4775  221.4974 H   0  0  0  0  0  0  0  0  0  0  0  0
  137.8399   77.9148  223.3171 H   0  0  0  0  0  0  0  0  0  0  0  0
  138.8469   69.9526  222.7808 H   0  0  0  0  0  0  0  0  0  0  0  0
  138.8201   68.3379  224.6747 H   0  0  0  0  0  0  0  0  0  0  0  0
  139.4633   67.8740  227.0516 H   0  0  0  0  0  0  0  0  0  0  0  0
  140.5358   68.6292  229.1436 H   0  0  0  0  0  0  0  0  0  0  0  0
  141.5626   70.8894  229.2760 H   0  0  0  0  0  0  0  0  0  0  0  0
  141.5024   72.3708  227.2933 H   0  0  0  0  0  0  0  0  0  0  0  0
  1  2  2  0
  2  3  1  0
  3  4  1  0
  4  5  1  0
  5  6  2  0
  5  7  1  0
  7  8  1  0
  8  9  1  0
  9 10  1  0
 10 11  1  0
 11 12  1  0
 12 13  1  0
 13 14  1  0
 14 15  2  0
 15 16  1  0
 16 17  2  0
 17 18  1  0
 17 19  1  0
 19 20  1  0
 19 21  2  0
  2 22  1  0
 22 23  2  0
 23 24  1  0
 24 25  2  0
 25 26  1  0
 26 27  2  0
 27 28  1  0
 28 29  2  0
 29 30  1  0
 30 31  2  0
 11  7  1  0
 21 14  1  0
 31 22  1  0
 30 25  1  0
  3 32  1  0
  4 33  1  0
  4 34  1  0
  8 35  1  0
  8 36  1  0
  9 37  1  0
  9 38  1  0
 10 39  1  0
 10 40  1  0
 11 41  1  6
 12 42  1  0
 12 43  1  0
 13 44  1  0
 15 45  1  0
 16 46  1  0
 21 47  1  0
 23 48  1  0
 24 49  1  0
 26 50  1  0
 27 51  1  0
 28 52  1  0
 29 53  1  0
M  END
>  <smiles>  (20) 
O=C(NCC(=O)N1CCC[C@H]1CNc1ccc(Cl)c(Cl)c1)c1ccc2ccccc2n1

>  <score_type>  (20) 
oracle

>  <origin>  (20) 
autodockgpu

>  <m_score__min__energy>  (20) 
-9.3599999999999994

>  <m_primary>  (20) 
energy

>  <rmsd>  (20) 
3.311599093491244

>  <m_score__min__rmsd>  (20) 
3.311599093491244

>  <meeko>  (20) 
{"free_energy": -7.72, "intermolecular_energy": -9.8, "internal_energy": -2.61, "cluster_size": 3, "cluster_id": 4, "rank_in_cluster": 3}

>  <energy>  (20) 
-8.93

>  <cluster_rmsd>  (20) 
0.0

>  <cluster>  (20) 
3

$$$$

     RDKit          3D

 53 56  0  0  0  0  0  0  0  0999 V2000
  137.3080   76.4780  222.1730 O   0  0  0  0  0  0  0  0  0  0  0  0
  138.5670   76.5370  222.2430 C   0  0  0  0  0  0  0  0  0  0  0  0
  139.3800   75.4120  221.9270 N   0  0  0  0  0  0  0  0  0  0  0  0
  138.8040   74.1470  221.5110 C   0  0  0  0  0  0  0  0  0  0  0  0
  139.7980   73.0470  221.5750 C   0  0  0  0  0  0  0  0  0  0  0  0
  140.9010   73.2730  222.1310 O   0  0  0  0  0  0  0  0  0  0  0  0
  139.4430   71.7960  221.0020 N   0  0  0  0  0  0  0  0  0  0  0  0
  139.9530   71.1980  219.7680 C   0  0  0  0  0  0  0  0  0  0  0  0
  139.6790   69.7290  219.8650 C   0  0  0  0  0  0  0  0  0  0  0  0
  139.3040   69.5670  221.3540 C   0  0  0  0  0  0  0  0  0  0  0  0
  138.4900   70.8110  221.5070 C   0  0  1  0  0  0  0  0  0  0  0  0
  137.9600   71.1380  222.8460 C   0  0  0  0  0  0  0  0  0  0  0  0
  139.0130   71.5470  223.7290 N   0  0  0  0  0  0  0  0  0  0  0  0
  139.5240   70.8320  224.8310 C   0  0  0  0  0  0  0  0  0  0  0  0
  139.3750   69.4380  224.8970 C   0  0  0  0  0  0  0  0  0  0  0  0
  139.8320   68.7100  225.9730 C   0  0  0  0  0  0  0  0  0  0  0  0
  140.4600   69.3090  227.0420 C   0  0  0  0  0  0  0  0  0  0  0  0
  141.0550   68.4260  228.4270 Cl  0  0  0  0  0  0  0  0  0  0  0  0
  140.6150   70.6730  226.9960 C   0  0  0  0  0  0  0  0  0  0  0  0
  141.4100   71.4950  228.3360 Cl  0  0  0  0  0  0  0  0  0  0  0  0
  140.1540   71.4000  225.9150 C   0  0  0  0  0  0  0  0  0  0  0  0
  139.2480   77.7730  222.6540 C   0  0  0  0  0  0  0  0  0  0  0  0
  138.5130   78.8620  223.0720 C   0  0  0  0  0  0  0  0  0  0  0  0
  139.1150   80.0550  223.4720 C   0  0  0  0  0  0  0  0  0  0  0  0
  140.4850   80.1410  223.4450 C   0  0  0  0  0  0  0  0  0  0  0  0
  141.1930   81.2630  223.8140 C   0  0  0  0  0  0  0  0  0  0  0  0
  142.5740   81.2890  223.7660 C   0  0  0  0  0  0  0  0  0  0  0  0
  143.2740   80.1780  223.3410 C   0  0  0  0  0  0  0  0  0  0  0  0
  142.5790   79.0510  222.9690 C   0  0  0  0  0  0  0  0  0  0  0  0
  141.1850   79.0220  223.0170 C   0  0  0  0  0  0  0  0  0  0  0  0
  140.5920   77.8900  222.6390 N   0  0  0  0  0  0  0  0  0  0  0  0
  140.4260   75.4950  221.9960 H   0  0  0  0  0  0  0  0  0  0  0  0
  137.9597   73.9042  222.1730 H   0  0  0  0  0  0  0  0  0  0  0  0
  138.4690   74.2478  220.4681 H   0  0  0  0  0  0  0  0  0  0  0  0
  139.4353   71.6247  218.8963 H   0  0  0  0  0  0  0  0  0  0  0  0
  141.0280   71.3957  219.6439 H   0  0  0  0  0  0  0  0  0  0  0  0
  138.8465   69.4341  219.2093 H   0  0  0  0  0  0  0  0  0  0  0  0
  140.5246   69.0996  219.5508 H   0  0  0  0  0  0  0  0  0  0  0  0
  138.7122   68.6580  221.5370 H   0  0  0  0  0  0  0  0  0  0  0  0
  140.1468   69.4557  222.0521 H   0  0  0  0  0  0  0  0  0  0  0  0
  137.5271   70.7381  220.9802 H   0  0  0  0  0  0  0  0  0  0  0  0
  137.2296   71.9554  222.7541 H   0  0  0  0  0  0  0  0  0  0  0  0
  137.4819   70.2394  223.2630 H   0  0  0  0  0  0  0  0  0  0  0  0
  139.4600   72.4940  223.5360 H   0  0  0  0  0  0  0  0  0  0  0  0
  138.8799   68.9128  224.0670 H   0  0  0  0  0  0  0  0  0  0  0  0
  139.6913   67.6190  225.9786 H   0  0  0  0  0  0  0  0  0  0  0  0
  140.2982   72.4905  225.9211 H   0  0  0  0  0  0  0  0  0  0  0  0
  137.4157   78.7876  223.0907 H   0  0  0  0  0  0  0  0  0  0  0  0
  138.5050   80.9088  223.8021 H   0  0  0  0  0  0  0  0  0  0  0  0
  140.6485   82.1564  224.1537 H   0  0  0  0  0  0  0  0  0  0  0  0
  143.1165   82.1973  224.0672 H   0  0  0  0  0  0  0  0  0  0  0  0
  144.3731   80.1937  223.3004 H   0  0  0  0  0  0  0  0  0  0  0  0
  143.1292   78.1612  222.6293 H   0  0  0  0  0  0  0  0  0  0  0  0
  1  2  2  0
  2  3  1  0
  3  4  1  0
  4  5  1  0
  5  6  2  0
  5  7  1  0
  7  8  1  0
  8  9  1  0
  9 10  1  0
 10 11  1  0
 11 12  1  0
 12 13  1  0
 13 14  1  0
 14 15  2  0
 15 16  1  0
 16 17  2  0
 17 18  1  0
 17 19  1  0
 19 20  1  0
 19 21  2  0
  2 22  1  0
 22 23  2  0
 23 24  1  0
 24 25  2  0
 25 26  1  0
 26 27  2  0
 27 28  1  0
 28 29  2  0
 29 30  1  0
 30 31  2  0
 11  7  1  0
 21 14  1  0
 31 22  1  0
 30 25  1  0
  3 32  1  0
  4 33  1  0
  4 34  1  0
  8 35  1  0
  8 36  1  0
  9 37  1  0
  9 38  1  0
 10 39  1  0
 10 40  1  0
 11 41  1  6
 12 42  1  0
 12 43  1  0
 13 44  1  0
 15 45  1  0
 16 46  1  0
 21 47  1  0
 23 48  1  0
 24 49  1  0
 26 50  1  0
 27 51  1  0
 28 52  1  0
 29 53  1  0
M  END
>  <smiles>  (21) 
O=C(NCC(=O)N1CCC[C@H]1CNc1ccc(Cl)c(Cl)c1)c1ccc2ccccc2n1

>  <score_type>  (21) 
oracle

>  <origin>  (21) 
autodockgpu

>  <m_score__min__energy>  (21) 
-9.3599999999999994

>  <m_primary>  (21) 
energy

>  <rmsd>  (21) 
8.948451696222483

>  <m_score__min__rmsd>  (21) 
8.948451696222483

>  <meeko>  (21) 
{"free_energy": -8.79, "intermolecular_energy": -10.88, "internal_energy": -2.56, "cluster_size": 17, "cluster_id": 3, "rank_in_cluster": 6}

>  <energy>  (21) 
-8.92

>  <cluster_rmsd>  (21) 
0.21

>  <cluster>  (21) 
3

$$$$

     RDKit          3D

 53 56  0  0  0  0  0  0  0  0999 V2000
  138.9760   70.0770  221.4330 O   0  0  0  0  0  0  0  0  0  0  0  0
  139.4990   70.6980  222.3990 C   0  0  0  0  0  0  0  0  0  0  0  0
  139.9760   72.0310  222.2530 N   0  0  0  0  0  0  0  0  0  0  0  0
  139.8850   72.7400  220.9910 C   0  0  0  0  0  0  0  0  0  0  0  0
  139.7470   74.2030  221.1950 C   0  0  0  0  0  0  0  0  0  0  0  0
  139.7670   74.6450  222.3700 O   0  0  0  0  0  0  0  0  0  0  0  0
  139.5980   75.0240  220.0440 N   0  0  0  0  0  0  0  0  0  0  0  0
  138.4310   75.1380  219.1680 C   0  0  0  0  0  0  0  0  0  0  0  0
  138.5680   76.4430  218.4490 C   0  0  0  0  0  0  0  0  0  0  0  0
  139.6920   77.1380  219.2480 C   0  0  0  0  0  0  0  0  0  0  0  0
  140.5690   75.9470  219.4630 C   0  0  1  0  0  0  0  0  0  0  0  0
  141.7850   76.1140  220.2850 C   0  0  0  0  0  0  0  0  0  0  0  0
  141.4480   76.3430  221.6600 N   0  0  0  0  0  0  0  0  0  0  0  0
  140.7940   77.4700  222.1980 C   0  0  0  0  0  0  0  0  0  0  0  0
  139.4010   77.4600  222.3740 C   0  0  0  0  0  0  0  0  0  0  0  0
  138.7250   78.5540  222.8670 C   0  0  0  0  0  0  0  0  0  0  0  0
  139.3770   79.7160  223.2120 C   0  0  0  0  0  0  0  0  0  0  0  0
  138.5600   81.1270  223.8390 Cl  0  0  0  0  0  0  0  0  0  0  0  0
  140.7390   79.7460  223.0460 C   0  0  0  0  0  0  0  0  0  0  0  0
  141.6280   81.2080  223.4710 Cl  0  0  0  0  0  0  0  0  0  0  0  0
  141.4150   78.6460  222.5510 C   0  0  0  0  0  0  0  0  0  0  0  0
  139.6380   70.0680  223.7200 C   0  0  0  0  0  0  0  0  0  0  0  0
  139.1920   68.7790  223.9230 C   0  0  0  0  0  0  0  0  0  0  0  0
  139.3020   68.1400  225.1580 C   0  0  0  0  0  0  0  0  0  0  0  0
  139.8750   68.8240  226.2020 C   0  0  0  0  0  0  0  0  0  0  0  0
  140.0390   68.3020  227.4670 C   0  0  0  0  0  0  0  0  0  0  0  0
  140.6220   69.0400  228.4780 C   0  0  0  0  0  0  0  0  0  0  0  0
  141.0560   70.3270  228.2360 C   0  0  0  0  0  0  0  0  0  0  0  0
  140.8980   70.8610  226.9770 C   0  0  0  0  0  0  0  0  0  0  0  0
  140.3090   70.1190  225.9540 C   0  0  0  0  0  0  0  0  0  0  0  0
  140.1950   70.7120  224.7670 N   0  0  0  0  0  0  0  0  0  0  0  0
  140.4070   72.5190  223.0790 H   0  0  0  0  0  0  0  0  0  0  0  0
  140.7959   72.5456  220.4059 H   0  0  0  0  0  0  0  0  0  0  0  0
  138.9919   72.3812  220.4585 H   0  0  0  0  0  0  0  0  0  0  0  0
  138.4134   74.3068  218.4477 H   0  0  0  0  0  0  0  0  0  0  0  0
  137.4947   75.0965  219.7439 H   0  0  0  0  0  0  0  0  0  0  0  0
  138.8597   76.2915  217.3993 H   0  0  0  0  0  0  0  0  0  0  0  0
  137.6343   77.0229  218.4038 H   0  0  0  0  0  0  0  0  0  0  0  0
  140.1933   77.9233  218.6632 H   0  0  0  0  0  0  0  0  0  0  0  0
  139.3763   77.6727  220.1560 H   0  0  0  0  0  0  0  0  0  0  0  0
  141.0611   75.6280  218.5324 H   0  0  0  0  0  0  0  0  0  0  0  0
  142.3969   75.2029  220.2115 H   0  0  0  0  0  0  0  0  0  0  0  0
  142.3440   76.9846  219.9113 H   0  0  0  0  0  0  0  0  0  0  0  0
  141.7200   75.5830  222.3530 H   0  0  0  0  0  0  0  0  0  0  0  0
  138.8346   76.5544  222.1111 H   0  0  0  0  0  0  0  0  0  0  0  0
  137.6332   78.4975  222.9885 H   0  0  0  0  0  0  0  0  0  0  0  0
  142.5065   78.7147  222.4332 H   0  0  0  0  0  0  0  0  0  0  0  0
  138.7341   68.2365  223.0828 H   0  0  0  0  0  0  0  0  0  0  0  0
  138.9378   67.1108  225.2928 H   0  0  0  0  0  0  0  0  0  0  0  0
  139.6986   67.2769  227.6754 H   0  0  0  0  0  0  0  0  0  0  0  0
  140.7407   68.6004  229.4793 H   0  0  0  0  0  0  0  0  0  0  0  0
  141.5219   70.9184  229.0380 H   0  0  0  0  0  0  0  0  0  0  0  0
  141.2409   71.8866  226.7755 H   0  0  0  0  0  0  0  0  0  0  0  0
  1  2  2  0
  2  3  1  0
  3  4  1  0
  4  5  1  0
  5  6  2  0
  5  7  1  0
  7  8  1  0
  8  9  1  0
  9 10  1  0
 10 11  1  0
 11 12  1  0
 12 13  1  0
 13 14  1  0
 14 15  2  0
 15 16  1  0
 16 17  2  0
 17 18  1  0
 17 19  1  0
 19 20  1  0
 19 21  2  0
  2 22  1  0
 22 23  2  0
 23 24  1  0
 24 25  2  0
 25 26  1  0
 26 27  2  0
 27 28  1  0
 28 29  2  0
 29 30  1  0
 30 31  2  0
 11  7  1  0
 21 14  1  0
 31 22  1  0
 30 25  1  0
  3 32  1  0
  4 33  1  0
  4 34  1  0
  8 35  1  0
  8 36  1  0
  9 37  1  0
  9 38  1  0
 10 39  1  0
 10 40  1  0
 11 41  1  6
 12 42  1  0
 12 43  1  0
 13 44  1  0
 15 45  1  0
 16 46  1  0
 21 47  1  0
 23 48  1  0
 24 49  1  0
 26 50  1  0
 27 51  1  0
 28 52  1  0
 29 53  1  0
M  END
>  <smiles>  (22) 
O=C(NCC(=O)N1CCC[C@H]1CNc1ccc(Cl)c(Cl)c1)c1ccc2ccccc2n1

>  <score_type>  (22) 
oracle

>  <origin>  (22) 
autodockgpu

>  <m_score__min__energy>  (22) 
-9.3599999999999994

>  <m_primary>  (22) 
energy

>  <rmsd>  (22) 
2.007773784800667

>  <m_score__min__rmsd>  (22) 
2.007773784800667

>  <meeko>  (22) 
{"free_energy": -8.09, "intermolecular_energy": -10.18, "internal_energy": -2.52, "cluster_size": 16, "cluster_id": 2, "rank_in_cluster": 14}

>  <energy>  (22) 
-8.91

>  <cluster_rmsd>  (22) 
1.28

>  <cluster>  (22) 
3

$$$$

     RDKit          3D

 53 56  0  0  0  0  0  0  0  0999 V2000
  139.6400   70.4550  221.3190 O   0  0  0  0  0  0  0  0  0  0  0  0
  139.9330   71.0830  222.3740 C   0  0  0  0  0  0  0  0  0  0  0  0
  140.3500   72.4420  222.3360 N   0  0  0  0  0  0  0  0  0  0  0  0
  140.4600   73.1720  221.0860 C   0  0  0  0  0  0  0  0  0  0  0  0
  141.3670   74.3390  221.2130 C   0  0  0  0  0  0  0  0  0  0  0  0
  141.0470   75.2590  222.0060 O   0  0  0  0  0  0  0  0  0  0  0  0
  142.5510   74.3510  220.4260 N   0  0  0  0  0  0  0  0  0  0  0  0
  143.5260   73.2730  220.2570 C   0  0  0  0  0  0  0  0  0  0  0  0
  144.2710   73.5710  218.9930 C   0  0  0  0  0  0  0  0  0  0  0  0
  143.4000   74.6750  218.3560 C   0  0  0  0  0  0  0  0  0  0  0  0
  143.0740   75.4360  219.6010 C   0  0  1  0  0  0  0  0  0  0  0  0
  142.1570   76.5890  219.4950 C   0  0  0  0  0  0  0  0  0  0  0  0
  142.0390   77.2680  220.7520 N   0  0  0  0  0  0  0  0  0  0  0  0
  141.7900   78.6410  220.9550 C   0  0  0  0  0  0  0  0  0  0  0  0
  141.2920   79.4300  219.9060 C   0  0  0  0  0  0  0  0  0  0  0  0
  141.0680   80.7810  220.0580 C   0  0  0  0  0  0  0  0  0  0  0  0
  141.3200   81.4290  221.2460 C   0  0  0  0  0  0  0  0  0  0  0  0
  141.0500   83.1390  221.4850 Cl  0  0  0  0  0  0  0  0  0  0  0  0
  141.8070   80.6740  222.2850 C   0  0  0  0  0  0  0  0  0  0  0  0
  142.1480   81.4510  223.8290 Cl  0  0  0  0  0  0  0  0  0  0  0  0
  142.0310   79.3190  222.1280 C   0  0  0  0  0  0  0  0  0  0  0  0
  139.8540   70.4340  223.6910 C   0  0  0  0  0  0  0  0  0  0  0  0
  139.2230   69.2150  223.8250 C   0  0  0  0  0  0  0  0  0  0  0  0
  139.1240   68.5610  225.0540 C   0  0  0  0  0  0  0  0  0  0  0  0
  139.6740   69.1570  226.1610 C   0  0  0  0  0  0  0  0  0  0  0  0
  139.6400   68.6120  227.4260 C   0  0  0  0  0  0  0  0  0  0  0  0
  140.2130   69.2600  228.5030 C   0  0  0  0  0  0  0  0  0  0  0  0
  140.8360   70.4790  228.3280 C   0  0  0  0  0  0  0  0  0  0  0  0
  140.8770   71.0360  227.0700 C   0  0  0  0  0  0  0  0  0  0  0  0
  140.2990   70.3830  225.9810 C   0  0  0  0  0  0  0  0  0  0  0  0
  140.3840   70.9930  224.7990 N   0  0  0  0  0  0  0  0  0  0  0  0
  140.5880   72.9370  223.2340 H   0  0  0  0  0  0  0  0  0  0  0  0
  140.8533   72.4968  220.3118 H   0  0  0  0  0  0  0  0  0  0  0  0
  139.4602   73.5414  220.8142 H   0  0  0  0  0  0  0  0  0  0  0  0
  144.2193   73.2498  221.1107 H   0  0  0  0  0  0  0  0  0  0  0  0
  143.0310   72.2920  220.2062 H   0  0  0  0  0  0  0  0  0  0  0  0
  145.2866   73.9364  219.2050 H   0  0  0  0  0  0  0  0  0  0  0  0
  144.4144   72.6926  218.3465 H   0  0  0  0  0  0  0  0  0  0  0  0
  143.9631   75.2830  217.6326 H   0  0  0  0  0  0  0  0  0  0  0  0
  142.5390   74.3272  217.7663 H   0  0  0  0  0  0  0  0  0  0  0  0
  143.9484   75.9777  219.9909 H   0  0  0  0  0  0  0  0  0  0  0  0
  142.5463   77.2904  218.7423 H   0  0  0  0  0  0  0  0  0  0  0  0
  141.1631   76.2208  219.2006 H   0  0  0  0  0  0  0  0  0  0  0  0
  142.1510   76.6770  221.6290 H   0  0  0  0  0  0  0  0  0  0  0  0
  141.0749   78.9570  218.9369 H   0  0  0  0  0  0  0  0  0  0  0  0
  140.6771   81.3575  219.2067 H   0  0  0  0  0  0  0  0  0  0  0  0
  142.4226   78.7528  222.9860 H   0  0  0  0  0  0  0  0  0  0  0  0
  138.7834   68.7427  222.9341 H   0  0  0  0  0  0  0  0  0  0  0  0
  138.6159   67.5886  225.1336 H   0  0  0  0  0  0  0  0  0  0  0  0
  139.1466   67.6412  227.5814 H   0  0  0  0  0  0  0  0  0  0  0  0
  140.1726   68.8032  229.5028 H   0  0  0  0  0  0  0  0  0  0  0  0
  141.2938   70.9986  229.1827 H   0  0  0  0  0  0  0  0  0  0  0  0
  141.3713   72.0074  226.9215 H   0  0  0  0  0  0  0  0  0  0  0  0
  1  2  2  0
  2  3  1  0
  3  4  1  0
  4  5  1  0
  5  6  2  0
  5  7  1  0
  7  8  1  0
  8  9  1  0
  9 10  1  0
 10 11  1  0
 11 12  1  0
 12 13  1  0
 13 14  1  0
 14 15  2  0
 15 16  1  0
 16 17  2  0
 17 18  1  0
 17 19  1  0
 19 20  1  0
 19 21  2  0
  2 22  1  0
 22 23  2  0
 23 24  1  0
 24 25  2  0
 25 26  1  0
 26 27  2  0
 27 28  1  0
 28 29  2  0
 29 30  1  0
 30 31  2  0
 11  7  1  0
 21 14  1  0
 31 22  1  0
 30 25  1  0
  3 32  1  0
  4 33  1  0
  4 34  1  0
  8 35  1  0
  8 36  1  0
  9 37  1  0
  9 38  1  0
 10 39  1  0
 10 40  1  0
 11 41  1  1
 12 42  1  0
 12 43  1  0
 13 44  1  0
 15 45  1  0
 16 46  1  0
 21 47  1  0
 23 48  1  0
 24 49  1  0
 26 50  1  0
 27 51  1  0
 28 52  1  0
 29 53  1  0
M  END
>  <smiles>  (23) 
O=C(NCC(=O)N1CCC[C@H]1CNc1ccc(Cl)c(Cl)c1)c1ccc2ccccc2n1

>  <score_type>  (23) 
oracle

>  <origin>  (23) 
autodockgpu

>  <m_score__min__energy>  (23) 
-9.3599999999999994

>  <m_primary>  (23) 
energy

>  <rmsd>  (23) 
2.5418230672923094

>  <m_score__min__rmsd>  (23) 
2.5418230672923094

>  <meeko>  (23) 
{"free_energy": -8.83, "intermolecular_energy": -10.91, "internal_energy": -2.2, "cluster_size": 16, "cluster_id": 2, "rank_in_cluster": 4}

>  <energy>  (23) 
-8.86

>  <cluster_rmsd>  (23) 
1.35

>  <cluster>  (23) 
3

$$$$

     RDKit          3D

 53 56  0  0  0  0  0  0  0  0999 V2000
  139.8010   71.0070  221.2180 O   0  0  0  0  0  0  0  0  0  0  0  0
  139.4410   71.6320  222.2540 C   0  0  0  0  0  0  0  0  0  0  0  0
  138.7730   72.8860  222.1690 N   0  0  0  0  0  0  0  0  0  0  0  0
  138.4750   73.5060  220.8920 C   0  0  0  0  0  0  0  0  0  0  0  0
  138.4940   74.9870  220.9860 C   0  0  0  0  0  0  0  0  0  0  0  0
  138.2700   75.5160  222.1030 O   0  0  0  0  0  0  0  0  0  0  0  0
  138.7660   75.7250  219.8030 N   0  0  0  0  0  0  0  0  0  0  0  0
  137.8050   76.2520  218.8330 C   0  0  0  0  0  0  0  0  0  0  0  0
  138.5100   77.3410  218.0870 C   0  0  0  0  0  0  0  0  0  0  0  0
  139.7690   77.5640  218.9520 C   0  0  0  0  0  0  0  0  0  0  0  0
  140.0650   76.1350  219.2740 C   0  0  1  0  0  0  0  0  0  0  0  0
  141.1890   75.8430  220.1850 C   0  0  0  0  0  0  0  0  0  0  0  0
  140.9050   76.2990  221.5140 N   0  0  0  0  0  0  0  0  0  0  0  0
  141.2210   77.5570  222.0660 C   0  0  0  0  0  0  0  0  0  0  0  0
  141.4500   77.6850  223.4450 C   0  0  0  0  0  0  0  0  0  0  0  0
  141.7280   78.9030  224.0240 C   0  0  0  0  0  0  0  0  0  0  0  0
  141.7960   80.0610  223.2830 C   0  0  0  0  0  0  0  0  0  0  0  0
  142.1450   81.6270  223.9740 Cl  0  0  0  0  0  0  0  0  0  0  0  0
  141.5750   79.9570  221.9320 C   0  0  0  0  0  0  0  0  0  0  0  0
  141.6480   81.4060  220.9320 Cl  0  0  0  0  0  0  0  0  0  0  0  0
  141.2950   78.7320  221.3540 C   0  0  0  0  0  0  0  0  0  0  0  0
  139.6960   71.0880  223.5960 C   0  0  0  0  0  0  0  0  0  0  0  0
  139.3540   69.7850  223.8910 C   0  0  0  0  0  0  0  0  0  0  0  0
  139.5770   69.2260  225.1490 C   0  0  0  0  0  0  0  0  0  0  0  0
  140.1570   70.0050  226.1210 C   0  0  0  0  0  0  0  0  0  0  0  0
  140.4270   69.5670  227.3990 C   0  0  0  0  0  0  0  0  0  0  0  0
  141.0120   70.3980  228.3340 C   0  0  0  0  0  0  0  0  0  0  0  0
  141.3400   71.6960  227.9990 C   0  0  0  0  0  0  0  0  0  0  0  0
  141.0760   72.1470  226.7260 C   0  0  0  0  0  0  0  0  0  0  0  0
  140.4850   71.3100  225.7800 C   0  0  0  0  0  0  0  0  0  0  0  0
  140.2630   71.8270  224.5720 N   0  0  0  0  0  0  0  0  0  0  0  0
  138.4870   73.3800  223.0520 H   0  0  0  0  0  0  0  0  0  0  0  0
  139.2265   73.1854  220.1555 H   0  0  0  0  0  0  0  0  0  0  0  0
  137.4659   73.1937  220.5851 H   0  0  0  0  0  0  0  0  0  0  0  0
  137.4904   75.4581  218.1396 H   0  0  0  0  0  0  0  0  0  0  0  0
  136.9019   76.6319  219.3331 H   0  0  0  0  0  0  0  0  0  0  0  0
  138.7767   77.0197  217.0693 H   0  0  0  0  0  0  0  0  0  0  0  0
  137.9023   78.2474  217.9486 H   0  0  0  0  0  0  0  0  0  0  0  0
  140.5833   78.0395  218.3856 H   0  0  0  0  0  0  0  0  0  0  0  0
  139.6458   78.2349  219.8150 H   0  0  0  0  0  0  0  0  0  0  0  0
  140.4388   75.5863  218.3969 H   0  0  0  0  0  0  0  0  0  0  0  0
  141.3617   74.7569  220.2066 H   0  0  0  0  0  0  0  0  0  0  0  0
  142.0831   76.3682  219.8179 H   0  0  0  0  0  0  0  0  0  0  0  0
  140.4030   75.6170  222.1580 H   0  0  0  0  0  0  0  0  0  0  0  0
  141.4062   76.7880  224.0803 H   0  0  0  0  0  0  0  0  0  0  0  0
  141.9006   78.9520  225.1093 H   0  0  0  0  0  0  0  0  0  0  0  0
  141.1225   78.6953  220.2682 H   0  0  0  0  0  0  0  0  0  0  0  0
  138.8902   69.1664  223.1085 H   0  0  0  0  0  0  0  0  0  0  0  0
  139.2946   68.1837  225.3587 H   0  0  0  0  0  0  0  0  0  0  0  0
  140.1715   68.5347  227.6802 H   0  0  0  0  0  0  0  0  0  0  0  0
  141.2170   70.0245  229.3481 H   0  0  0  0  0  0  0  0  0  0  0  0
  141.8065   72.3616  228.7402 H   0  0  0  0  0  0  0  0  0  0  0  0
  141.3343   73.1803  226.4512 H   0  0  0  0  0  0  0  0  0  0  0  0
  1  2  2  0
  2  3  1  0
  3  4  1  0
  4  5  1  0
  5  6  2  0
  5  7  1  0
  7  8  1  0
  8  9  1  0
  9 10  1  0
 10 11  1  0
 11 12  1  0
 12 13  1  0
 13 14  1  0
 14 15  2  0
 15 16  1  0
 16 17  2  0
 17 18  1  0
 17 19  1  0
 19 20  1  0
 19 21  2  0
  2 22  1  0
 22 23  2  0
 23 24  1  0
 24 25  2  0
 25 26  1  0
 26 27  2  0
 27 28  1  0
 28 29  2  0
 29 30  1  0
 30 31  2  0
 11  7  1  0
 21 14  1  0
 31 22  1  0
 30 25  1  0
  3 32  1  0
  4 33  1  0
  4 34  1  0
  8 35  1  0
  8 36  1  0
  9 37  1  0
  9 38  1  0
 10 39  1  0
 10 40  1  0
 11 41  1  6
 12 42  1  0
 12 43  1  0
 13 44  1  0
 15 45  1  0
 16 46  1  0
 21 47  1  0
 23 48  1  0
 24 49  1  0
 26 50  1  0
 27 51  1  0
 28 52  1  0
 29 53  1  0
M  END
>  <smiles>  (24) 
O=C(NCC(=O)N1CCC[C@H]1CNc1ccc(Cl)c(Cl)c1)c1ccc2ccccc2n1

>  <score_type>  (24) 
oracle

>  <origin>  (24) 
autodockgpu

>  <m_score__min__energy>  (24) 
-9.3599999999999994

>  <m_primary>  (24) 
energy

>  <rmsd>  (24) 
2.1462636532774977

>  <m_score__min__rmsd>  (24) 
2.1462636532774977

>  <meeko>  (24) 
{"free_energy": -7.86, "intermolecular_energy": -9.95, "internal_energy": -2.51, "cluster_size": 16, "cluster_id": 2, "rank_in_cluster": 16}

>  <energy>  (24) 
-8.82

>  <cluster_rmsd>  (24) 
1.3

>  <cluster>  (24) 
3

$$$$

     RDKit          3D

 53 56  0  0  0  0  0  0  0  0999 V2000
  136.9180   77.4570  222.1180 O   0  0  0  0  0  0  0  0  0  0  0  0
  138.1440   77.2600  222.3450 C   0  0  0  0  0  0  0  0  0  0  0  0
  138.7310   75.9740  222.1800 N   0  0  0  0  0  0  0  0  0  0  0  0
  137.9530   74.8300  221.7430 C   0  0  0  0  0  0  0  0  0  0  0  0
  138.7720   73.5930  221.7090 C   0  0  0  0  0  0  0  0  0  0  0  0
  139.8830   73.5990  222.2930 O   0  0  0  0  0  0  0  0  0  0  0  0
  138.2500   72.4690  221.0150 N   0  0  0  0  0  0  0  0  0  0  0  0
  137.2400   72.4580  219.9550 C   0  0  0  0  0  0  0  0  0  0  0  0
  137.4050   71.1610  219.2270 C   0  0  0  0  0  0  0  0  0  0  0  0
  138.7650   70.6590  219.7610 C   0  0  0  0  0  0  0  0  0  0  0  0
  138.5950   71.0600  221.1900 C   0  0  1  0  0  0  0  0  0  0  0  0
  139.7260   70.8430  222.1150 C   0  0  0  0  0  0  0  0  0  0  0  0
  139.3920   71.2700  223.4430 N   0  0  0  0  0  0  0  0  0  0  0  0
  139.7390   70.6320  224.6520 C   0  0  0  0  0  0  0  0  0  0  0  0
  139.5820   69.2440  224.7870 C   0  0  0  0  0  0  0  0  0  0  0  0
  139.8790   68.5910  225.9630 C   0  0  0  0  0  0  0  0  0  0  0  0
  140.3450   69.2650  227.0690 C   0  0  0  0  0  0  0  0  0  0  0  0
  140.7340   68.4800  228.5810 Cl  0  0  0  0  0  0  0  0  0  0  0  0
  140.5060   70.6240  226.9570 C   0  0  0  0  0  0  0  0  0  0  0  0
  141.0990   71.5400  228.3410 Cl  0  0  0  0  0  0  0  0  0  0  0  0
  140.2060   71.2750  225.7750 C   0  0  0  0  0  0  0  0  0  0  0  0
  139.0190   78.3540  222.7910 C   0  0  0  0  0  0  0  0  0  0  0  0
  138.4760   79.4830  223.3680 C   0  0  0  0  0  0  0  0  0  0  0  0
  139.2660   80.5450  223.8070 C   0  0  0  0  0  0  0  0  0  0  0  0
  140.6280   80.4580  223.6560 C   0  0  0  0  0  0  0  0  0  0  0  0
  141.5110   81.4400  224.0480 C   0  0  0  0  0  0  0  0  0  0  0  0
  142.8730   81.2940  223.8690 C   0  0  0  0  0  0  0  0  0  0  0  0
  143.3770   80.1490  223.2870 C   0  0  0  0  0  0  0  0  0  0  0  0
  142.5070   79.1600  222.8900 C   0  0  0  0  0  0  0  0  0  0  0  0
  141.1310   79.3050  223.0700 C   0  0  0  0  0  0  0  0  0  0  0  0
  140.3600   78.2990  222.6560 N   0  0  0  0  0  0  0  0  0  0  0  0
  139.7560   75.8440  222.3780 H   0  0  0  0  0  0  0  0  0  0  0  0
  137.1131   74.6830  222.4380 H   0  0  0  0  0  0  0  0  0  0  0  0
  137.5896   75.0301  220.7242 H   0  0  0  0  0  0  0  0  0  0  0  0
  136.2317   72.5246  220.3897 H   0  0  0  0  0  0  0  0  0  0  0  0
  137.3650   73.3147  219.2764 H   0  0  0  0  0  0  0  0  0  0  0  0
  136.5953   70.4587  219.4745 H   0  0  0  0  0  0  0  0  0  0  0  0
  137.3698   71.2611  218.1321 H   0  0  0  0  0  0  0  0  0  0  0  0
  138.8810   69.5712  219.6455 H   0  0  0  0  0  0  0  0  0  0  0  0
  139.6566   71.0558  219.2534 H   0  0  0  0  0  0  0  0  0  0  0  0
  137.8563   70.4297  221.7068 H   0  0  0  0  0  0  0  0  0  0  0  0
  139.9754   69.7718  222.1334 H   0  0  0  0  0  0  0  0  0  0  0  0
  140.5854   71.4323  221.7627 H   0  0  0  0  0  0  0  0  0  0  0  0
  138.8210   72.1630  223.5310 H   0  0  0  0  0  0  0  0  0  0  0  0
  139.2117   68.6616  223.9304 H   0  0  0  0  0  0  0  0  0  0  0  0
  139.7400   67.5013  226.0198 H   0  0  0  0  0  0  0  0  0  0  0  0
  140.3482   72.3648  225.7300 H   0  0  0  0  0  0  0  0  0  0  0  0
  137.3842   79.5478  223.4857 H   0  0  0  0  0  0  0  0  0  0  0  0
  138.8076   81.4340  224.2648 H   0  0  0  0  0  0  0  0  0  0  0  0
  141.1238   82.3587  224.5128 H   0  0  0  0  0  0  0  0  0  0  0  0
  143.5574   82.0926  224.1913 H   0  0  0  0  0  0  0  0  0  0  0  0
  144.4608   80.0285  223.1423 H   0  0  0  0  0  0  0  0  0  0  0  0
  142.9008   78.2441  222.4252 H   0  0  0  0  0  0  0  0  0  0  0  0
  1  2  2  0
  2  3  1  0
  3  4  1  0
  4  5  1  0
  5  6  2  0
  5  7  1  0
  7  8  1  0
  8  9  1  0
  9 10  1  0
 10 11  1  0
 11 12  1  0
 12 13  1  0
 13 14  1  0
 14 15  2  0
 15 16  1  0
 16 17  2  0
 17 18  1  0
 17 19  1  0
 19 20  1  0
 19 21  2  0
  2 22  1  0
 22 23  2  0
 23 24  1  0
 24 25  2  0
 25 26  1  0
 26 27  2  0
 27 28  1  0
 28 29  2  0
 29 30  1  0
 30 31  2  0
 11  7  1  0
 21 14  1  0
 31 22  1  0
 30 25  1  0
  3 32  1  0
  4 33  1  0
  4 34  1  0
  8 35  1  0
  8 36  1  0
  9 37  1  0
  9 38  1  0
 10 39  1  0
 10 40  1  0
 11 41  1  1
 12 42  1  0
 12 43  1  0
 13 44  1  0
 15 45  1  0
 16 46  1  0
 21 47  1  0
 23 48  1  0
 24 49  1  0
 26 50  1  0
 27 51  1  0
 28 52  1  0
 29 53  1  0
M  END
>  <smiles>  (25) 
O=C(NCC(=O)N1CCC[C@H]1CNc1ccc(Cl)c(Cl)c1)c1ccc2ccccc2n1

>  <score_type>  (25) 
oracle

>  <origin>  (25) 
autodockgpu

>  <m_score__min__energy>  (25) 
-9.3599999999999994

>  <m_primary>  (25) 
energy

>  <rmsd>  (25) 
8.99003951165402

>  <m_score__min__rmsd>  (25) 
8.99003951165402

>  <meeko>  (25) 
{"free_energy": -8.68, "intermolecular_energy": -10.77, "internal_energy": -2.42, "cluster_size": 17, "cluster_id": 3, "rank_in_cluster": 7}

>  <energy>  (25) 
-8.79

>  <cluster_rmsd>  (25) 
0.12

>  <cluster>  (25) 
3

$$$$

     RDKit          3D

 53 56  0  0  0  0  0  0  0  0999 V2000
  140.7260   74.2350  222.0880 O   0  0  0  0  0  0  0  0  0  0  0  0
  139.9300   75.0990  221.6250 C   0  0  0  0  0  0  0  0  0  0  0  0
  139.0010   74.7740  220.5970 N   0  0  0  0  0  0  0  0  0  0  0  0
  138.9220   73.4400  220.0320 C   0  0  0  0  0  0  0  0  0  0  0  0
  137.6010   72.8160  220.2880 C   0  0  0  0  0  0  0  0  0  0  0  0
  136.9050   72.4700  219.3020 O   0  0  0  0  0  0  0  0  0  0  0  0
  137.1960   72.6450  221.6400 N   0  0  0  0  0  0  0  0  0  0  0  0
  135.8900   72.9430  222.2300 C   0  0  0  0  0  0  0  0  0  0  0  0
  135.8050   72.1460  223.4940 C   0  0  0  0  0  0  0  0  0  0  0  0
  136.9970   71.1740  223.3450 C   0  0  0  0  0  0  0  0  0  0  0  0
  137.9830   72.1320  222.7580 C   0  0  1  0  0  0  0  0  0  0  0  0
  139.3060   71.6140  222.3580 C   0  0  0  0  0  0  0  0  0  0  0  0
  140.2680   71.7960  223.4060 N   0  0  0  0  0  0  0  0  0  0  0  0
  140.3480   71.0820  224.6190 C   0  0  0  0  0  0  0  0  0  0  0  0
  140.8710   71.6990  225.7660 C   0  0  0  0  0  0  0  0  0  0  0  0
  140.9950   71.0230  226.9600 C   0  0  0  0  0  0  0  0  0  0  0  0
  140.6150   69.7070  227.0920 C   0  0  0  0  0  0  0  0  0  0  0  0
  140.7550   68.8100  228.5850 Cl  0  0  0  0  0  0  0  0  0  0  0  0
  140.1020   69.0850  225.9800 C   0  0  0  0  0  0  0  0  0  0  0  0
  139.5980   67.4000  226.0890 Cl  0  0  0  0  0  0  0  0  0  0  0  0
  139.9790   69.7670  224.7840 C   0  0  0  0  0  0  0  0  0  0  0  0
  139.9300   76.4790  222.1290 C   0  0  0  0  0  0  0  0  0  0  0  0
  138.7370   77.1170  222.3990 C   0  0  0  0  0  0  0  0  0  0  0  0
  138.6870   78.4260  222.8790 C   0  0  0  0  0  0  0  0  0  0  0  0
  139.8680   79.0950  223.0860 C   0  0  0  0  0  0  0  0  0  0  0  0
  139.9480   80.3880  223.5550 C   0  0  0  0  0  0  0  0  0  0  0  0
  141.1670   81.0100  223.7440 C   0  0  0  0  0  0  0  0  0  0  0  0
  142.3390   80.3380  223.4620 C   0  0  0  0  0  0  0  0  0  0  0  0
  142.2740   79.0460  222.9920 C   0  0  0  0  0  0  0  0  0  0  0  0
  141.0440   78.4160  222.8010 C   0  0  0  0  0  0  0  0  0  0  0  0
  141.0720   77.1650  222.3430 N   0  0  0  0  0  0  0  0  0  0  0  0
  138.3520   75.5180  220.2320 H   0  0  0  0  0  0  0  0  0  0  0  0
  139.0828   73.5024  218.9456 H   0  0  0  0  0  0  0  0  0  0  0  0
  139.6943   72.8183  220.5084 H   0  0  0  0  0  0  0  0  0  0  0  0
  135.8090   74.0174  222.4516 H   0  0  0  0  0  0  0  0  0  0  0  0
  135.0728   72.6849  221.5403 H   0  0  0  0  0  0  0  0  0  0  0  0
  135.9218   72.7881  224.3795 H   0  0  0  0  0  0  0  0  0  0  0  0
  134.8377   71.6416  223.6348 H   0  0  0  0  0  0  0  0  0  0  0  0
  137.3315   70.7750  224.3140 H   0  0  0  0  0  0  0  0  0  0  0  0
  136.8040   70.2637  222.7584 H   0  0  0  0  0  0  0  0  0  0  0  0
  138.3303   72.8681  223.4980 H   0  0  0  0  0  0  0  0  0  0  0  0
  139.2188   70.5410  222.1322 H   0  0  0  0  0  0  0  0  0  0  0  0
  139.6456   72.1684  221.4707 H   0  0  0  0  0  0  0  0  0  0  0  0
  141.0020   72.5510  223.2560 H   0  0  0  0  0  0  0  0  0  0  0  0
  141.1904   72.7501  225.7101 H   0  0  0  0  0  0  0  0  0  0  0  0
  141.4093   71.5499  227.8322 H   0  0  0  0  0  0  0  0  0  0  0  0
  139.5641   69.2299  223.9183 H   0  0  0  0  0  0  0  0  0  0  0  0
  137.7943   76.5759  222.2303 H   0  0  0  0  0  0  0  0  0  0  0  0
  137.7222   78.9117  223.0871 H   0  0  0  0  0  0  0  0  0  0  0  0
  139.0222   80.9364  223.7836 H   0  0  0  0  0  0  0  0  0  0  0  0
  141.2036   82.0431  224.1201 H   0  0  0  0  0  0  0  0  0  0  0  0
  143.3123   80.8285  223.6109 H   0  0  0  0  0  0  0  0  0  0  0  0
  143.2034   78.5035  222.7642 H   0  0  0  0  0  0  0  0  0  0  0  0
  1  2  2  0
  2  3  1  0
  3  4  1  0
  4  5  1  0
  5  6  2  0
  5  7  1  0
  7  8  1  0
  8  9  1  0
  9 10  1  0
 10 11  1  0
 11 12  1  0
 12 13  1  0
 13 14  1  0
 14 15  2  0
 15 16  1  0
 16 17  2  0
 17 18  1  0
 17 19  1  0
 19 20  1  0
 19 21  2  0
  2 22  1  0
 22 23  2  0
 23 24  1  0
 24 25  2  0
 25 26  1  0
 26 27  2  0
 27 28  1  0
 28 29  2  0
 29 30  1  0
 30 31  2  0
 11  7  1  0
 21 14  1  0
 31 22  1  0
 30 25  1  0
  3 32  1  0
  4 33  1  0
  4 34  1  0
  8 35  1  0
  8 36  1  0
  9 37  1  0
  9 38  1  0
 10 39  1  0
 10 40  1  0
 11 41  1  1
 12 42  1  0
 12 43  1  0
 13 44  1  0
 15 45  1  0
 16 46  1  0
 21 47  1  0
 23 48  1  0
 24 49  1  0
 26 50  1  0
 27 51  1  0
 28 52  1  0
 29 53  1  0
M  END
>  <smiles>  (26) 
O=C(NCC(=O)N1CCC[C@H]1CNc1ccc(Cl)c(Cl)c1)c1ccc2ccccc2n1

>  <score_type>  (26) 
oracle

>  <origin>  (26) 
autodockgpu

>  <m_score__min__energy>  (26) 
-9.3599999999999994

>  <m_primary>  (26) 
energy

>  <rmsd>  (26) 
8.652563160265538

>  <m_score__min__rmsd>  (26) 
8.652563160265538

>  <meeko>  (26) 
{"free_energy": -8.35, "intermolecular_energy": -10.44, "internal_energy": -2.17, "cluster_size": 17, "cluster_id": 3, "rank_in_cluster": 12}

>  <energy>  (26) 
-8.68

>  <cluster_rmsd>  (26) 
0.9

>  <cluster>  (26) 
3

$$$$

     RDKit          3D

 53 56  0  0  0  0  0  0  0  0999 V2000
  140.1910   70.7630  221.2110 O   0  0  0  0  0  0  0  0  0  0  0  0
  140.2440   71.4450  222.2720 C   0  0  0  0  0  0  0  0  0  0  0  0
  140.5050   72.8440  222.2400 N   0  0  0  0  0  0  0  0  0  0  0  0
  140.7230   73.5520  220.9930 C   0  0  0  0  0  0  0  0  0  0  0  0
  141.3640   74.8710  221.2180 C   0  0  0  0  0  0  0  0  0  0  0  0
  141.0830   75.4980  222.2680 O   0  0  0  0  0  0  0  0  0  0  0  0
  142.2630   75.3500  220.2270 N   0  0  0  0  0  0  0  0  0  0  0  0
  143.3290   74.6110  219.5480 C   0  0  0  0  0  0  0  0  0  0  0  0
  143.6310   75.3630  218.2900 C   0  0  0  0  0  0  0  0  0  0  0  0
  142.4370   76.3390  218.2010 C   0  0  0  0  0  0  0  0  0  0  0  0
  142.3390   76.6900  219.6500 C   0  0  1  0  0  0  0  0  0  0  0  0
  141.2400   77.5780  220.0800 C   0  0  0  0  0  0  0  0  0  0  0  0
  141.3200   77.8500  221.4860 N   0  0  0  0  0  0  0  0  0  0  0  0
  140.4490   78.6580  222.2460 C   0  0  0  0  0  0  0  0  0  0  0  0
  140.9630   79.6880  223.0490 C   0  0  0  0  0  0  0  0  0  0  0  0
  140.1450   80.4750  223.8290 C   0  0  0  0  0  0  0  0  0  0  0  0
  138.7810   80.2950  223.8640 C   0  0  0  0  0  0  0  0  0  0  0  0
  137.7060   81.2690  224.8380 Cl  0  0  0  0  0  0  0  0  0  0  0  0
  138.2590   79.2920  223.0850 C   0  0  0  0  0  0  0  0  0  0  0  0
  136.5190   79.0140  223.0900 Cl  0  0  0  0  0  0  0  0  0  0  0  0
  139.0820   78.5030  222.3040 C   0  0  0  0  0  0  0  0  0  0  0  0
  140.0380   70.8230  223.5870 C   0  0  0  0  0  0  0  0  0  0  0  0
  139.4130   69.5970  223.6820 C   0  0  0  0  0  0  0  0  0  0  0  0
  139.1960   68.9670  224.9080 C   0  0  0  0  0  0  0  0  0  0  0  0
  139.6190   69.5950  226.0530 C   0  0  0  0  0  0  0  0  0  0  0  0
  139.4610   69.0750  227.3200 C   0  0  0  0  0  0  0  0  0  0  0  0
  139.9090   69.7550  228.4360 C   0  0  0  0  0  0  0  0  0  0  0  0
  140.5300   70.9800  228.2990 C   0  0  0  0  0  0  0  0  0  0  0  0
  140.6940   71.5110  227.0400 C   0  0  0  0  0  0  0  0  0  0  0  0
  140.2420   70.8270  225.9110 C   0  0  0  0  0  0  0  0  0  0  0  0
  140.4410   71.4130  224.7310 N   0  0  0  0  0  0  0  0  0  0  0  0
  140.5430   73.3840  223.1430 H   0  0  0  0  0  0  0  0  0  0  0  0
  141.3738   72.9446  220.3468 H   0  0  0  0  0  0  0  0  0  0  0  0
  139.7452   73.7214  220.5184 H   0  0  0  0  0  0  0  0  0  0  0  0
  144.2238   74.5623  220.1860 H   0  0  0  0  0  0  0  0  0  0  0  0
  143.0209   73.5777  219.3301 H   0  0  0  0  0  0  0  0  0  0  0  0
  144.5848   75.9053  218.3683 H   0  0  0  0  0  0  0  0  0  0  0  0
  143.7425   74.7187  217.4055 H   0  0  0  0  0  0  0  0  0  0  0  0
  142.6622   77.2153  217.5754 H   0  0  0  0  0  0  0  0  0  0  0  0
  141.5219   75.9380  217.7408 H   0  0  0  0  0  0  0  0  0  0  0  0
  143.1779   77.3226  219.9757 H   0  0  0  0  0  0  0  0  0  0  0  0
  141.3055   78.5259  219.5258 H   0  0  0  0  0  0  0  0  0  0  0  0
  140.2829   77.0767  219.8736 H   0  0  0  0  0  0  0  0  0  0  0  0
  142.1220   77.3970  222.0180 H   0  0  0  0  0  0  0  0  0  0  0  0
  142.0476   79.8715  223.0555 H   0  0  0  0  0  0  0  0  0  0  0  0
  140.5948   81.2703  224.4416 H   0  0  0  0  0  0  0  0  0  0  0  0
  138.6210   77.7098  221.6970 H   0  0  0  0  0  0  0  0  0  0  0  0
  139.0745   69.0997  222.7611 H   0  0  0  0  0  0  0  0  0  0  0  0
  138.6966   67.9881  224.9559 H   0  0  0  0  0  0  0  0  0  0  0  0
  138.9685   68.0994  227.4448 H   0  0  0  0  0  0  0  0  0  0  0  0
  139.7704   69.3190  229.4364 H   0  0  0  0  0  0  0  0  0  0  0  0
  140.8891   71.5248  229.1846 H   0  0  0  0  0  0  0  0  0  0  0  0
  141.1876   72.4869  226.9223 H   0  0  0  0  0  0  0  0  0  0  0  0
  1  2  2  0
  2  3  1  0
  3  4  1  0
  4  5  1  0
  5  6  2  0
  5  7  1  0
  7  8  1  0
  8  9  1  0
  9 10  1  0
 10 11  1  0
 11 12  1  0
 12 13  1  0
 13 14  1  0
 14 15  2  0
 15 16  1  0
 16 17  2  0
 17 18  1  0
 17 19  1  0
 19 20  1  0
 19 21  2  0
  2 22  1  0
 22 23  2  0
 23 24  1  0
 24 25  2  0
 25 26  1  0
 26 27  2  0
 27 28  1  0
 28 29  2  0
 29 30  1  0
 30 31  2  0
 11  7  1  0
 21 14  1  0
 31 22  1  0
 30 25  1  0
  3 32  1  0
  4 33  1  0
  4 34  1  0
  8 35  1  0
  8 36  1  0
  9 37  1  0
  9 38  1  0
 10 39  1  0
 10 40  1  0
 11 41  1  1
 12 42  1  0
 12 43  1  0
 13 44  1  0
 15 45  1  0
 16 46  1  0
 21 47  1  0
 23 48  1  0
 24 49  1  0
 26 50  1  0
 27 51  1  0
 28 52  1  0
 29 53  1  0
M  END
>  <smiles>  (27) 
O=C(NCC(=O)N1CCC[C@H]1CNc1ccc(Cl)c(Cl)c1)c1ccc2ccccc2n1

>  <score_type>  (27) 
oracle

>  <origin>  (27) 
autodockgpu

>  <m_score__min__energy>  (27) 
-9.3599999999999994

>  <m_primary>  (27) 
energy

>  <rmsd>  (27) 
2.5370584447614815

>  <m_score__min__rmsd>  (27) 
2.5370584447614815

>  <meeko>  (27) 
{"free_energy": -8.51, "intermolecular_energy": -10.6, "internal_energy": -2.36, "cluster_size": 16, "cluster_id": 2, "rank_in_cluster": 7}

>  <energy>  (27) 
-8.64

>  <cluster_rmsd>  (27) 
0.93

>  <cluster>  (27) 
3

$$$$

     RDKit          3D

 53 56  0  0  0  0  0  0  0  0999 V2000
  136.6380   76.9800  223.0860 O   0  0  0  0  0  0  0  0  0  0  0  0
  137.7600   77.0980  222.5200 C   0  0  0  0  0  0  0  0  0  0  0  0
  138.1890   76.1750  221.5250 N   0  0  0  0  0  0  0  0  0  0  0  0
  137.3610   75.0570  221.1130 C   0  0  0  0  0  0  0  0  0  0  0  0
  137.7920   73.7920  221.7580 C   0  0  0  0  0  0  0  0  0  0  0  0
  136.9830   73.2060  222.5190 O   0  0  0  0  0  0  0  0  0  0  0  0
  139.1000   73.3140  221.4770 N   0  0  0  0  0  0  0  0  0  0  0  0
  140.2590   74.0840  221.0230 C   0  0  0  0  0  0  0  0  0  0  0  0
  141.4670   73.2660  221.3560 C   0  0  0  0  0  0  0  0  0  0  0  0
  140.8830   72.1930  222.3000 C   0  0  0  0  0  0  0  0  0  0  0  0
  139.6000   71.9450  221.5750 C   0  0  1  0  0  0  0  0  0  0  0  0
  138.6300   71.0060  222.1730 C   0  0  0  0  0  0  0  0  0  0  0  0
  138.4360   71.2860  223.5660 N   0  0  0  0  0  0  0  0  0  0  0  0
  139.0450   70.6330  224.6570 C   0  0  0  0  0  0  0  0  0  0  0  0
  138.9730   69.2360  224.7720 C   0  0  0  0  0  0  0  0  0  0  0  0
  139.5270   68.5670  225.8400 C   0  0  0  0  0  0  0  0  0  0  0  0
  140.1820   69.2310  226.8530 C   0  0  0  0  0  0  0  0  0  0  0  0
  140.8990   68.4240  228.2270 Cl  0  0  0  0  0  0  0  0  0  0  0  0
  140.2630   70.5990  226.7590 C   0  0  0  0  0  0  0  0  0  0  0  0
  141.0880   71.5030  228.0270 Cl  0  0  0  0  0  0  0  0  0  0  0  0
  139.7050   71.2670  225.6850 C   0  0  0  0  0  0  0  0  0  0  0  0
  138.6740   78.1960  222.8660 C   0  0  0  0  0  0  0  0  0  0  0  0
  138.1800   79.3580  223.4220 C   0  0  0  0  0  0  0  0  0  0  0  0
  139.0080   80.4260  223.7660 C   0  0  0  0  0  0  0  0  0  0  0  0
  140.3570   80.3110  223.5410 C   0  0  0  0  0  0  0  0  0  0  0  0
  141.2750   81.2960  223.8370 C   0  0  0  0  0  0  0  0  0  0  0  0
  142.6220   81.1210  223.5870 C   0  0  0  0  0  0  0  0  0  0  0  0
  143.0770   79.9440  223.0290 C   0  0  0  0  0  0  0  0  0  0  0  0
  142.1720   78.9520  222.7280 C   0  0  0  0  0  0  0  0  0  0  0  0
  140.8110   79.1260  222.9790 C   0  0  0  0  0  0  0  0  0  0  0  0
  140.0040   78.1150  222.6560 N   0  0  0  0  0  0  0  0  0  0  0  0
  139.1310   76.3020  221.0730 H   0  0  0  0  0  0  0  0  0  0  0  0
  136.3174   75.2632  221.3932 H   0  0  0  0  0  0  0  0  0  0  0  0
  137.4590   74.9389  220.0238 H   0  0  0  0  0  0  0  0  0  0  0  0
  140.2017   74.2533  219.9376 H   0  0  0  0  0  0  0  0  0  0  0  0
  140.2984   75.0696  221.5100 H   0  0  0  0  0  0  0  0  0  0  0  0
  141.9012   72.8102  220.4540 H   0  0  0  0  0  0  0  0  0  0  0  0
  142.2860   73.8489  221.8025 H   0  0  0  0  0  0  0  0  0  0  0  0
  141.5141   71.2933  222.3476 H   0  0  0  0  0  0  0  0  0  0  0  0
  140.7892   72.4828  223.3570 H   0  0  0  0  0  0  0  0  0  0  0  0
  139.7617   71.4079  220.6288 H   0  0  0  0  0  0  0  0  0  0  0  0
  137.6673   71.1012  221.6494 H   0  0  0  0  0  0  0  0  0  0  0  0
  139.0237   69.9838  222.0724 H   0  0  0  0  0  0  0  0  0  0  0  0
  137.7600   72.0720  223.8070 H   0  0  0  0  0  0  0  0  0  0  0  0
  138.4601   68.6602  223.9876 H   0  0  0  0  0  0  0  0  0  0  0  0
  139.4441   67.4711  225.8854 H   0  0  0  0  0  0  0  0  0  0  0  0
  139.7931   72.3629  225.6502 H   0  0  0  0  0  0  0  0  0  0  0  0
  137.0979   79.4448  223.5997 H   0  0  0  0  0  0  0  0  0  0  0  0
  138.5887   81.3416  224.2085 H   0  0  0  0  0  0  0  0  0  0  0  0
  140.9276   82.2404  224.2813 H   0  0  0  0  0  0  0  0  0  0  0  0
  143.3341   81.9223  223.8335 H   0  0  0  0  0  0  0  0  0  0  0  0
  144.1488   79.8005  222.8275 H   0  0  0  0  0  0  0  0  0  0  0  0
  142.5263   78.0101  222.2839 H   0  0  0  0  0  0  0  0  0  0  0  0
  1  2  2  0
  2  3  1  0
  3  4  1  0
  4  5  1  0
  5  6  2  0
  5  7  1  0
  7  8  1  0
  8  9  1  0
  9 10  1  0
 10 11  1  0
 11 12  1  0
 12 13  1  0
 13 14  1  0
 14 15  2  0
 15 16  1  0
 16 17  2  0
 17 18  1  0
 17 19  1  0
 19 20  1  0
 19 21  2  0
  2 22  1  0
 22 23  2  0
 23 24  1  0
 24 25  2  0
 25 26  1  0
 26 27  2  0
 27 28  1  0
 28 29  2  0
 29 30  1  0
 30 31  2  0
 11  7  1  0
 21 14  1  0
 31 22  1  0
 30 25  1  0
  3 32  1  0
  4 33  1  0
  4 34  1  0
  8 35  1  0
  8 36  1  0
  9 37  1  0
  9 38  1  0
 10 39  1  0
 10 40  1  0
 11 41  1  6
 12 42  1  0
 12 43  1  0
 13 44  1  0
 15 45  1  0
 16 46  1  0
 21 47  1  0
 23 48  1  0
 24 49  1  0
 26 50  1  0
 27 51  1  0
 28 52  1  0
 29 53  1  0
M  END
>  <smiles>  (28) 
O=C(NCC(=O)N1CCC[C@H]1CNc1ccc(Cl)c(Cl)c1)c1ccc2ccccc2n1

>  <score_type>  (28) 
oracle

>  <origin>  (28) 
autodockgpu

>  <m_score__min__energy>  (28) 
-9.3599999999999994

>  <m_primary>  (28) 
energy

>  <rmsd>  (28) 
8.877803374347309

>  <m_score__min__rmsd>  (28) 
8.877803374347309

>  <meeko>  (28) 
{"free_energy": -8.49, "intermolecular_energy": -10.58, "internal_energy": -2.27, "cluster_size": 17, "cluster_id": 3, "rank_in_cluster": 10}

>  <energy>  (28) 
-8.61

>  <cluster_rmsd>  (28) 
0.23

>  <cluster>  (28) 
3

$$$$

     RDKit          3D

 53 56  0  0  0  0  0  0  0  0999 V2000
  138.7120   70.3540  221.4070 O   0  0  0  0  0  0  0  0  0  0  0  0
  139.0680   71.0480  222.3990 C   0  0  0  0  0  0  0  0  0  0  0  0
  139.2240   72.4590  222.2980 N   0  0  0  0  0  0  0  0  0  0  0  0
  138.9830   73.1670  221.0550 C   0  0  0  0  0  0  0  0  0  0  0  0
  139.7940   74.4050  220.9650 C   0  0  0  0  0  0  0  0  0  0  0  0
  140.3670   74.8190  222.0030 O   0  0  0  0  0  0  0  0  0  0  0  0
  139.8780   75.0560  219.7040 N   0  0  0  0  0  0  0  0  0  0  0  0
  138.8300   75.1850  218.6900 C   0  0  0  0  0  0  0  0  0  0  0  0
  139.2220   76.3380  217.8210 C   0  0  0  0  0  0  0  0  0  0  0  0
  140.3510   76.9960  218.6450 C   0  0  0  0  0  0  0  0  0  0  0  0
  141.0230   75.7490  219.1210 C   0  0  1  0  0  0  0  0  0  0  0  0
  142.1640   75.8820  220.0490 C   0  0  0  0  0  0  0  0  0  0  0  0
  142.4340   77.2610  220.3370 N   0  0  0  0  0  0  0  0  0  0  0  0
  141.6820   78.1180  221.1670 C   0  0  0  0  0  0  0  0  0  0  0  0
  140.6720   77.5960  221.9890 C   0  0  0  0  0  0  0  0  0  0  0  0
  139.8960   78.4060  222.7880 C   0  0  0  0  0  0  0  0  0  0  0  0
  140.0690   79.7710  222.8230 C   0  0  0  0  0  0  0  0  0  0  0  0
  139.1080   80.8370  223.8200 Cl  0  0  0  0  0  0  0  0  0  0  0  0
  141.0520   80.3020  222.0260 C   0  0  0  0  0  0  0  0  0  0  0  0
  141.3190   82.0430  222.0290 Cl  0  0  0  0  0  0  0  0  0  0  0  0
  141.8290   79.4850  221.2250 C   0  0  0  0  0  0  0  0  0  0  0  0
  139.3370   70.4270  223.7040 C   0  0  0  0  0  0  0  0  0  0  0  0
  138.9710   69.1170  223.9360 C   0  0  0  0  0  0  0  0  0  0  0  0
  139.2060   68.4860  225.1570 C   0  0  0  0  0  0  0  0  0  0  0  0
  139.8230   69.1970  226.1570 C   0  0  0  0  0  0  0  0  0  0  0  0
  140.1080   68.6840  227.4030 C   0  0  0  0  0  0  0  0  0  0  0  0
  140.7300   69.4500  228.3700 C   0  0  0  0  0  0  0  0  0  0  0  0
  141.0810   70.7570  228.0990 C   0  0  0  0  0  0  0  0  0  0  0  0
  140.8030   71.2820  226.8580 C   0  0  0  0  0  0  0  0  0  0  0  0
  140.1740   70.5110  225.8800 C   0  0  0  0  0  0  0  0  0  0  0  0
  139.9410   71.0980  224.7070 N   0  0  0  0  0  0  0  0  0  0  0  0
  139.5230   73.0080  223.1440 H   0  0  0  0  0  0  0  0  0  0  0  0
  139.2426   72.5084  220.2131 H   0  0  0  0  0  0  0  0  0  0  0  0
  137.9203   73.4490  221.0205 H   0  0  0  0  0  0  0  0  0  0  0  0
  138.7634   74.2638  218.0925 H   0  0  0  0  0  0  0  0  0  0  0  0
  137.8460   75.3511  219.1527 H   0  0  0  0  0  0  0  0  0  0  0  0
  139.5900   75.9938  216.8432 H   0  0  0  0  0  0  0  0  0  0  0  0
  138.3902   77.0189  217.5877 H   0  0  0  0  0  0  0  0  0  0  0  0
  141.0144   77.6139  218.0220 H   0  0  0  0  0  0  0  0  0  0  0  0
  140.0280   77.6970  219.4288 H   0  0  0  0  0  0  0  0  0  0  0  0
  141.5526   75.2326  218.3068 H   0  0  0  0  0  0  0  0  0  0  0  0
  141.9278   75.3581  220.9870 H   0  0  0  0  0  0  0  0  0  0  0  0
  143.0541   75.4420  219.5755 H   0  0  0  0  0  0  0  0  0  0  0  0
  143.2930   77.6880  219.8770 H   0  0  0  0  0  0  0  0  0  0  0  0
  140.4951   76.5103  221.9955 H   0  0  0  0  0  0  0  0  0  0  0  0
  139.1164   77.9494  223.4155 H   0  0  0  0  0  0  0  0  0  0  0  0
  142.6053   79.9525  220.6015 H   0  0  0  0  0  0  0  0  0  0  0  0
  138.4777   68.5520  223.1314 H   0  0  0  0  0  0  0  0  0  0  0  0
  138.9035   67.4404  225.3160 H   0  0  0  0  0  0  0  0  0  0  0  0
  139.8349   67.6435  227.6328 H   0  0  0  0  0  0  0  0  0  0  0  0
  140.9459   69.0173  229.3580 H   0  0  0  0  0  0  0  0  0  0  0  0
  141.5766   71.3711  228.8653 H   0  0  0  0  0  0  0  0  0  0  0  0
  141.0801   72.3227  226.6341 H   0  0  0  0  0  0  0  0  0  0  0  0
  1  2  2  0
  2  3  1  0
  3  4  1  0
  4  5  1  0
  5  6  2  0
  5  7  1  0
  7  8  1  0
  8  9  1  0
  9 10  1  0
 10 11  1  0
 11 12  1  0
 12 13  1  0
 13 14  1  0
 14 15  2  0
 15 16  1  0
 16 17  2  0
 17 18  1  0
 17 19  1  0
 19 20  1  0
 19 21  2  0
  2 22  1  0
 22 23  2  0
 23 24  1  0
 24 25  2  0
 25 26  1  0
 26 27  2  0
 27 28  1  0
 28 29  2  0
 29 30  1  0
 30 31  2  0
 11  7  1  0
 21 14  1  0
 31 22  1  0
 30 25  1  0
  3 32  1  0
  4 33  1  0
  4 34  1  0
  8 35  1  0
  8 36  1  0
  9 37  1  0
  9 38  1  0
 10 39  1  0
 10 40  1  0
 11 41  1  6
 12 42  1  0
 12 43  1  0
 13 44  1  0
 15 45  1  0
 16 46  1  0
 21 47  1  0
 23 48  1  0
 24 49  1  0
 26 50  1  0
 27 51  1  0
 28 52  1  0
 29 53  1  0
M  END
>  <smiles>  (29) 
O=C(NCC(=O)N1CCC[C@H]1CNc1ccc(Cl)c(Cl)c1)c1ccc2ccccc2n1

>  <score_type>  (29) 
oracle

>  <origin>  (29) 
autodockgpu

>  <m_score__min__energy>  (29) 
-9.3599999999999994

>  <m_primary>  (29) 
energy

>  <rmsd>  (29) 
1.7055439877039607

>  <m_score__min__rmsd>  (29) 
1.7055439877039607

>  <meeko>  (29) 
{"free_energy": -8.4, "intermolecular_energy": -10.49, "internal_energy": -2.11, "cluster_size": 16, "cluster_id": 2, "rank_in_cluster": 9}

>  <energy>  (29) 
-8.49

>  <cluster_rmsd>  (29) 
1.1

>  <cluster>  (29) 
3

$$$$

     RDKit          3D

 53 56  0  0  0  0  0  0  0  0999 V2000
  140.3550   74.6720  222.3180 O   0  0  0  0  0  0  0  0  0  0  0  0
  139.4760   75.5650  222.1700 C   0  0  0  0  0  0  0  0  0  0  0  0
  138.1820   75.2550  221.6680 N   0  0  0  0  0  0  0  0  0  0  0  0
  137.8090   73.9010  221.3020 C   0  0  0  0  0  0  0  0  0  0  0  0
  138.8410   73.2630  220.4480 C   0  0  0  0  0  0  0  0  0  0  0  0
  139.5810   74.0030  219.7540 O   0  0  0  0  0  0  0  0  0  0  0  0
  138.9330   71.8450  220.4630 N   0  0  0  0  0  0  0  0  0  0  0  0
  138.1880   70.8880  219.6440 C   0  0  0  0  0  0  0  0  0  0  0  0
  138.9740   69.6150  219.6600 C   0  0  0  0  0  0  0  0  0  0  0  0
  140.3230   70.0730  220.2570 C   0  0  0  0  0  0  0  0  0  0  0  0
  139.7910   71.0060  221.2970 C   0  0  1  0  0  0  0  0  0  0  0  0
  140.7580   71.7750  222.1060 C   0  0  0  0  0  0  0  0  0  0  0  0
  140.2170   72.0830  223.3980 N   0  0  0  0  0  0  0  0  0  0  0  0
  140.3540   71.3240  224.5780 C   0  0  0  0  0  0  0  0  0  0  0  0
  140.9640   71.8860  225.7110 C   0  0  0  0  0  0  0  0  0  0  0  0
  141.1440   71.1650  226.8700 C   0  0  0  0  0  0  0  0  0  0  0  0
  140.7360   69.8550  226.9810 C   0  0  0  0  0  0  0  0  0  0  0  0
  140.9430   68.9030  228.4310 Cl  0  0  0  0  0  0  0  0  0  0  0  0
  140.1360   69.2870  225.8850 C   0  0  0  0  0  0  0  0  0  0  0  0
  139.5930   67.6130  225.9680 Cl  0  0  0  0  0  0  0  0  0  0  0  0
  139.9580   70.0140  224.7220 C   0  0  0  0  0  0  0  0  0  0  0  0
  139.7540   76.9680  222.5130 C   0  0  0  0  0  0  0  0  0  0  0  0
  138.7130   77.8460  222.7300 C   0  0  0  0  0  0  0  0  0  0  0  0
  138.9270   79.1850  223.0570 C   0  0  0  0  0  0  0  0  0  0  0  0
  140.2190   79.6360  223.1640 C   0  0  0  0  0  0  0  0  0  0  0  0
  140.5580   80.9340  223.4790 C   0  0  0  0  0  0  0  0  0  0  0  0
  141.8780   81.3300  223.5720 C   0  0  0  0  0  0  0  0  0  0  0  0
  142.8920   80.4200  223.3480 C   0  0  0  0  0  0  0  0  0  0  0  0
  142.5680   79.1210  223.0310 C   0  0  0  0  0  0  0  0  0  0  0  0
  141.2360   78.7190  222.9360 C   0  0  0  0  0  0  0  0  0  0  0  0
  141.0120   77.4430  222.6250 N   0  0  0  0  0  0  0  0  0  0  0  0
  137.4720   76.0240  221.5570 H   0  0  0  0  0  0  0  0  0  0  0  0
  137.6850   73.3048  222.2180 H   0  0  0  0  0  0  0  0  0  0  0  0
  136.8692   73.9448  220.7320 H   0  0  0  0  0  0  0  0  0  0  0  0
  137.1870   70.7222  220.0688 H   0  0  0  0  0  0  0  0  0  0  0  0
  138.0546   71.2609  218.6178 H   0  0  0  0  0  0  0  0  0  0  0  0
  138.4931   68.8571  220.2959 H   0  0  0  0  0  0  0  0  0  0  0  0
  139.0664   69.1403  218.6720 H   0  0  0  0  0  0  0  0  0  0  0  0
  140.8876   69.2380  220.6974 H   0  0  0  0  0  0  0  0  0  0  0  0
  141.0412   70.5060  219.5452 H   0  0  0  0  0  0  0  0  0  0  0  0
  139.3046   70.4653  222.1222 H   0  0  0  0  0  0  0  0  0  0  0  0
  141.6747   71.1802  222.2323 H   0  0  0  0  0  0  0  0  0  0  0  0
  140.9793   72.7181  221.5848 H   0  0  0  0  0  0  0  0  0  0  0  0
  139.6510   72.9800  223.4790 H   0  0  0  0  0  0  0  0  0  0  0  0
  141.3073   72.9303  225.6715 H   0  0  0  0  0  0  0  0  0  0  0  0
  141.6273   71.6493  227.7313 H   0  0  0  0  0  0  0  0  0  0  0  0
  139.4743   69.5189  223.8670 H   0  0  0  0  0  0  0  0  0  0  0  0
  137.6800   77.4784  222.6423 H   0  0  0  0  0  0  0  0  0  0  0  0
  138.0788   79.8648  223.2255 H   0  0  0  0  0  0  0  0  0  0  0  0
  139.7608   81.6700  223.6601 H   0  0  0  0  0  0  0  0  0  0  0  0
  142.1219   82.3724  223.8250 H   0  0  0  0  0  0  0  0  0  0  0  0
  143.9450   80.7295  223.4220 H   0  0  0  0  0  0  0  0  0  0  0  0
  143.3699   78.3901  222.8502 H   0  0  0  0  0  0  0  0  0  0  0  0
  1  2  2  0
  2  3  1  0
  3  4  1  0
  4  5  1  0
  5  6  2  0
  5  7  1  0
  7  8  1  0
  8  9  1  0
  9 10  1  0
 10 11  1  0
 11 12  1  0
 12 13  1  0
 13 14  1  0
 14 15  2  0
 15 16  1  0
 16 17  2  0
 17 18  1  0
 17 19  1  0
 19 20  1  0
 19 21  2  0
  2 22  1  0
 22 23  2  0
 23 24  1  0
 24 25  2  0
 25 26  1  0
 26 27  2  0
 27 28  1  0
 28 29  2  0
 29 30  1  0
 30 31  2  0
 11  7  1  0
 21 14  1  0
 31 22  1  0
 30 25  1  0
  3 32  1  0
  4 33  1  0
  4 34  1  0
  8 35  1  0
  8 36  1  0
  9 37  1  0
  9 38  1  0
 10 39  1  0
 10 40  1  0
 11 41  1  1
 12 42  1  0
 12 43  1  0
 13 44  1  0
 15 45  1  0
 16 46  1  0
 21 47  1  0
 23 48  1  0
 24 49  1  0
 26 50  1  0
 27 51  1  0
 28 52  1  0
 29 53  1  0
M  END
>  <smiles>  (30) 
O=C(NCC(=O)N1CCC[C@H]1CNc1ccc(Cl)c(Cl)c1)c1ccc2ccccc2n1

>  <score_type>  (30) 
oracle

>  <origin>  (30) 
autodockgpu

>  <m_score__min__energy>  (30) 
-9.3599999999999994

>  <m_primary>  (30) 
energy

>  <rmsd>  (30) 
8.551679205560585

>  <m_score__min__rmsd>  (30) 
8.551679205560585

>  <meeko>  (30) 
{"free_energy": -8.82, "intermolecular_energy": -10.91, "internal_energy": -2.07, "cluster_size": 17, "cluster_id": 3, "rank_in_cluster": 5}

>  <energy>  (30) 
-8.45

>  <cluster_rmsd>  (30) 
0.69

>  <cluster>  (30) 
3

$$$$

     RDKit          3D

 53 56  0  0  0  0  0  0  0  0999 V2000
  136.5710   72.1120  221.1440 O   0  0  0  0  0  0  0  0  0  0  0  0
  136.7630   72.9120  222.1010 C   0  0  0  0  0  0  0  0  0  0  0  0
  137.8090   73.8760  222.0630 N   0  0  0  0  0  0  0  0  0  0  0  0
  138.7040   73.9850  220.9260 C   0  0  0  0  0  0  0  0  0  0  0  0
  140.1070   74.2110  221.3550 C   0  0  0  0  0  0  0  0  0  0  0  0
  140.3250   75.0590  222.2550 O   0  0  0  0  0  0  0  0  0  0  0  0
  141.1270   73.4540  220.7180 N   0  0  0  0  0  0  0  0  0  0  0  0
  142.2490   73.9520  219.9210 C   0  0  0  0  0  0  0  0  0  0  0  0
  143.2770   72.8640  219.9120 C   0  0  0  0  0  0  0  0  0  0  0  0
  142.7610   71.9200  221.0190 C   0  0  0  0  0  0  0  0  0  0  0  0
  141.3010   72.0040  220.7090 C   0  0  1  0  0  0  0  0  0  0  0  0
  140.3570   71.2930  221.5940 C   0  0  0  0  0  0  0  0  0  0  0  0
  140.3260   71.8900  222.8970 N   0  0  0  0  0  0  0  0  0  0  0  0
  140.2710   71.2220  224.1370 C   0  0  0  0  0  0  0  0  0  0  0  0
  139.7660   69.9140  224.2110 C   0  0  0  0  0  0  0  0  0  0  0  0
  139.6670   69.2420  225.4090 C   0  0  0  0  0  0  0  0  0  0  0  0
  140.0570   69.8150  226.5980 C   0  0  0  0  0  0  0  0  0  0  0  0
  139.9500   69.0010  228.1400 Cl  0  0  0  0  0  0  0  0  0  0  0  0
  140.5540   71.0940  226.5470 C   0  0  0  0  0  0  0  0  0  0  0  0
  141.0680   71.8800  228.0380 Cl  0  0  0  0  0  0  0  0  0  0  0  0
  140.6510   71.7660  225.3430 C   0  0  0  0  0  0  0  0  0  0  0  0
  135.9110   72.8830  223.2990 C   0  0  0  0  0  0  0  0  0  0  0  0
  135.4140   74.0580  223.8230 C   0  0  0  0  0  0  0  0  0  0  0  0
  134.6020   74.0800  224.9570 C   0  0  0  0  0  0  0  0  0  0  0  0
  134.2910   72.8890  225.5660 C   0  0  0  0  0  0  0  0  0  0  0  0
  133.5010   72.7820  226.6890 C   0  0  0  0  0  0  0  0  0  0  0  0
  133.2230   71.5530  227.2570 C   0  0  0  0  0  0  0  0  0  0  0  0
  133.7390   70.4000  226.7020 C   0  0  0  0  0  0  0  0  0  0  0  0
  134.5300   70.4930  225.5800 C   0  0  0  0  0  0  0  0  0  0  0  0
  134.8130   71.7320  225.0050 C   0  0  0  0  0  0  0  0  0  0  0  0
  135.5870   71.7300  223.9210 N   0  0  0  0  0  0  0  0  0  0  0  0
  137.9430   74.5280  222.8770 H   0  0  0  0  0  0  0  0  0  0  0  0
  138.6547   73.0540  220.3423 H   0  0  0  0  0  0  0  0  0  0  0  0
  138.3866   74.8460  220.3195 H   0  0  0  0  0  0  0  0  0  0  0  0
  141.9188   74.1719  218.8950 H   0  0  0  0  0  0  0  0  0  0  0  0
  142.6566   74.8821  220.3438 H   0  0  0  0  0  0  0  0  0  0  0  0
  143.3108   72.3551  218.9374 H   0  0  0  0  0  0  0  0  0  0  0  0
  144.3027   73.2238  220.0807 H   0  0  0  0  0  0  0  0  0  0  0  0
  143.1512   70.8975  220.9085 H   0  0  0  0  0  0  0  0  0  0  0  0
  143.0496   72.1827  222.0474 H   0  0  0  0  0  0  0  0  0  0  0  0
  141.0502   71.4808  219.7744 H   0  0  0  0  0  0  0  0  0  0  0  0
  139.3496   71.3362  221.1544 H   0  0  0  0  0  0  0  0  0  0  0  0
  140.6890   70.2491  221.6944 H   0  0  0  0  0  0  0  0  0  0  0  0
  140.3460   72.9530  222.9380 H   0  0  0  0  0  0  0  0  0  0  0  0
  139.4408   69.4127  223.2875 H   0  0  0  0  0  0  0  0  0  0  0  0
  139.2648   68.2182  225.4158 H   0  0  0  0  0  0  0  0  0  0  0  0
  141.0532   72.7898  225.3489 H   0  0  0  0  0  0  0  0  0  0  0  0
  135.6662   75.0088  223.3306 H   0  0  0  0  0  0  0  0  0  0  0  0
  134.2189   75.0312  225.3551 H   0  0  0  0  0  0  0  0  0  0  0  0
  133.0830   73.6926  227.1429 H   0  0  0  0  0  0  0  0  0  0  0  0
  132.5888   71.4940  228.1538 H   0  0  0  0  0  0  0  0  0  0  0  0
  133.5209   69.4195  227.1505 H   0  0  0  0  0  0  0  0  0  0  0  0
  134.9445   69.5785  225.1307 H   0  0  0  0  0  0  0  0  0  0  0  0
  1  2  2  0
  2  3  1  0
  3  4  1  0
  4  5  1  0
  5  6  2  0
  5  7  1  0
  7  8  1  0
  8  9  1  0
  9 10  1  0
 10 11  1  0
 11 12  1  0
 12 13  1  0
 13 14  1  0
 14 15  2  0
 15 16  1  0
 16 17  2  0
 17 18  1  0
 17 19  1  0
 19 20  1  0
 19 21  2  0
  2 22  1  0
 22 23  2  0
 23 24  1  0
 24 25  2  0
 25 26  1  0
 26 27  2  0
 27 28  1  0
 28 29  2  0
 29 30  1  0
 30 31  2  0
 11  7  1  0
 21 14  1  0
 31 22  1  0
 30 25  1  0
  3 32  1  0
  4 33  1  0
  4 34  1  0
  8 35  1  0
  8 36  1  0
  9 37  1  0
  9 38  1  0
 10 39  1  0
 10 40  1  0
 11 41  1  6
 12 42  1  0
 12 43  1  0
 13 44  1  0
 15 45  1  0
 16 46  1  0
 21 47  1  0
 23 48  1  0
 24 49  1  0
 26 50  1  0
 27 51  1  0
 28 52  1  0
 29 53  1  0
M  END
>  <smiles>  (31) 
O=C(NCC(=O)N1CCC[C@H]1CNc1ccc(Cl)c(Cl)c1)c1ccc2ccccc2n1

>  <score_type>  (31) 
oracle

>  <origin>  (31) 
autodockgpu

>  <m_score__min__energy>  (31) 
-9.3599999999999994

>  <m_primary>  (31) 
energy

>  <rmsd>  (31) 
6.966872349003413

>  <m_score__min__rmsd>  (31) 
6.966872349003413

>  <meeko>  (31) 
{"free_energy": -7.85, "intermolecular_energy": -9.93, "internal_energy": -2.52, "cluster_size": 3, "cluster_id": 6, "rank_in_cluster": 3}

>  <energy>  (31) 
-8.35

>  <cluster_rmsd>  (31) 
1.69

>  <cluster>  (31) 
3

$$$$

     RDKit          3D

 53 56  0  0  0  0  0  0  0  0999 V2000
  141.0960   71.5440  221.4380 O   0  0  0  0  0  0  0  0  0  0  0  0
  140.4660   72.0540  222.4060 C   0  0  0  0  0  0  0  0  0  0  0  0
  139.9540   73.3800  222.3410 N   0  0  0  0  0  0  0  0  0  0  0  0
  140.1290   74.2080  221.1620 C   0  0  0  0  0  0  0  0  0  0  0  0
  141.1900   75.2270  221.3640 C   0  0  0  0  0  0  0  0  0  0  0  0
  140.9790   76.1510  222.1870 O   0  0  0  0  0  0  0  0  0  0  0  0
  142.3870   75.0990  220.6090 N   0  0  0  0  0  0  0  0  0  0  0  0
  143.2790   73.9400  220.5310 C   0  0  0  0  0  0  0  0  0  0  0  0
  144.0710   74.1010  219.2720 C   0  0  0  0  0  0  0  0  0  0  0  0
  143.3040   75.2280  218.5470 C   0  0  0  0  0  0  0  0  0  0  0  0
  143.0120   76.0870  219.7340 C   0  0  1  0  0  0  0  0  0  0  0  0
  142.1910   77.2980  219.5350 C   0  0  0  0  0  0  0  0  0  0  0  0
  142.1690   78.1050  220.7210 N   0  0  0  0  0  0  0  0  0  0  0  0
  141.8310   79.4700  220.8140 C   0  0  0  0  0  0  0  0  0  0  0  0
  141.4540   80.0210  222.0490 C   0  0  0  0  0  0  0  0  0  0  0  0
  141.0860   81.3430  222.1710 C   0  0  0  0  0  0  0  0  0  0  0  0
  141.0670   82.1940  221.0890 C   0  0  0  0  0  0  0  0  0  0  0  0
  140.6070   83.8760  221.1970 Cl  0  0  0  0  0  0  0  0  0  0  0  0
  141.4320   81.6740  219.8720 C   0  0  0  0  0  0  0  0  0  0  0  0
  141.4260   82.7170  218.4510 Cl  0  0  0  0  0  0  0  0  0  0  0  0
  141.8000   80.3470  219.7530 C   0  0  0  0  0  0  0  0  0  0  0  0
  140.2350   71.2970  223.6450 C   0  0  0  0  0  0  0  0  0  0  0  0
  139.5740   70.0870  223.6040 C   0  0  0  0  0  0  0  0  0  0  0  0
  139.3320   69.3340  224.7530 C   0  0  0  0  0  0  0  0  0  0  0  0
  139.7680   69.8200  225.9610 C   0  0  0  0  0  0  0  0  0  0  0  0
  139.5880   69.1700  227.1620 C   0  0  0  0  0  0  0  0  0  0  0  0
  140.0500   69.7100  228.3470 C   0  0  0  0  0  0  0  0  0  0  0  0
  140.7060   70.9240  228.3460 C   0  0  0  0  0  0  0  0  0  0  0  0
  140.8920   71.5840  227.1540 C   0  0  0  0  0  0  0  0  0  0  0  0
  140.4270   71.0410  225.9560 C   0  0  0  0  0  0  0  0  0  0  0  0
  140.6490   71.7470  224.8480 N   0  0  0  0  0  0  0  0  0  0  0  0
  139.4340   73.7750  223.1650 H   0  0  0  0  0  0  0  0  0  0  0  0
  140.4070   73.5663  220.3129 H   0  0  0  0  0  0  0  0  0  0  0  0
  139.1817   74.7312  220.9645 H   0  0  0  0  0  0  0  0  0  0  0  0
  143.9500   73.9170  221.4023 H   0  0  0  0  0  0  0  0  0  0  0  0
  142.7103   72.9984  220.5269 H   0  0  0  0  0  0  0  0  0  0  0  0
  145.1076   74.3989  219.4881 H   0  0  0  0  0  0  0  0  0  0  0  0
  144.1578   73.1759  218.6832 H   0  0  0  0  0  0  0  0  0  0  0  0
  143.9291   75.7447  217.8038 H   0  0  0  0  0  0  0  0  0  0  0  0
  142.4314   74.9121  217.9565 H   0  0  0  0  0  0  0  0  0  0  0  0
  143.9179   76.5826  220.1132 H   0  0  0  0  0  0  0  0  0  0  0  0
  142.6131   77.8867  218.7072 H   0  0  0  0  0  0  0  0  0  0  0  0
  141.1613   76.9889  219.3024 H   0  0  0  0  0  0  0  0  0  0  0  0
  142.4360   77.6250  221.6330 H   0  0  0  0  0  0  0  0  0  0  0  0
  141.4524   79.3801  222.9430 H   0  0  0  0  0  0  0  0  0  0  0  0
  140.7994   81.7293  223.1603 H   0  0  0  0  0  0  0  0  0  0  0  0
  142.0830   79.9719  218.7584 H   0  0  0  0  0  0  0  0  0  0  0  0
  139.2264   69.7033  222.6335 H   0  0  0  0  0  0  0  0  0  0  0  0
  138.8031   68.3714  224.6927 H   0  0  0  0  0  0  0  0  0  0  0  0
  139.0661   68.2018  227.1781 H   0  0  0  0  0  0  0  0  0  0  0  0
  139.8945   69.1710  229.2932 H   0  0  0  0  0  0  0  0  0  0  0  0
  141.0754   71.3583  229.2867 H   0  0  0  0  0  0  0  0  0  0  0  0
  141.4140   72.5522  227.1450 H   0  0  0  0  0  0  0  0  0  0  0  0
  1  2  2  0
  2  3  1  0
  3  4  1  0
  4  5  1  0
  5  6  2  0
  5  7  1  0
  7  8  1  0
  8  9  1  0
  9 10  1  0
 10 11  1  0
 11 12  1  0
 12 13  1  0
 13 14  1  0
 14 15  2  0
 15 16  1  0
 16 17  2  0
 17 18  1  0
 17 19  1  0
 19 20  1  0
 19 21  2  0
  2 22  1  0
 22 23  2  0
 23 24  1  0
 24 25  2  0
 25 26  1  0
 26 27  2  0
 27 28  1  0
 28 29  2  0
 29 30  1  0
 30 31  2  0
 11  7  1  0
 21 14  1  0
 31 22  1  0
 30 25  1  0
  3 32  1  0
  4 33  1  0
  4 34  1  0
  8 35  1  0
  8 36  1  0
  9 37  1  0
  9 38  1  0
 10 39  1  0
 10 40  1  0
 11 41  1  1
 12 42  1  0
 12 43  1  0
 13 44  1  0
 15 45  1  0
 16 46  1  0
 21 47  1  0
 23 48  1  0
 24 49  1  0
 26 50  1  0
 27 51  1  0
 28 52  1  0
 29 53  1  0
M  END
>  <smiles>  (32) 
O=C(NCC(=O)N1CCC[C@H]1CNc1ccc(Cl)c(Cl)c1)c1ccc2ccccc2n1

>  <score_type>  (32) 
oracle

>  <origin>  (32) 
autodockgpu

>  <m_score__min__energy>  (32) 
-9.3599999999999994

>  <m_primary>  (32) 
energy

>  <rmsd>  (32) 
2.551942059244041

>  <m_score__min__rmsd>  (32) 
2.551942059244041

>  <meeko>  (32) 
{"free_energy": -9.1, "intermolecular_energy": -11.18, "internal_energy": -2.09, "cluster_size": 16, "cluster_id": 2, "rank_in_cluster": 2}

>  <energy>  (32) 
-8.33

>  <cluster_rmsd>  (32) 
1.59

>  <cluster>  (32) 
3

$$$$

     RDKit          3D

 53 56  0  0  0  0  0  0  0  0999 V2000
  136.3830   77.1930  221.8060 O   0  0  0  0  0  0  0  0  0  0  0  0
  137.4960   76.9600  222.3540 C   0  0  0  0  0  0  0  0  0  0  0  0
  137.9160   75.6310  222.6430 N   0  0  0  0  0  0  0  0  0  0  0  0
  137.0890   74.4830  222.3220 C   0  0  0  0  0  0  0  0  0  0  0  0
  137.9110   73.3050  221.9480 C   0  0  0  0  0  0  0  0  0  0  0  0
  137.4830   72.1620  222.2430 O   0  0  0  0  0  0  0  0  0  0  0  0
  139.1400   73.5390  221.2750 N   0  0  0  0  0  0  0  0  0  0  0  0
  139.5170   74.7040  220.4730 C   0  0  0  0  0  0  0  0  0  0  0  0
  141.0130   74.7140  220.4180 C   0  0  0  0  0  0  0  0  0  0  0  0
  141.3840   73.6850  221.5080 C   0  0  0  0  0  0  0  0  0  0  0  0
  140.3180   72.6770  221.2240 C   0  0  1  0  0  0  0  0  0  0  0  0
  140.2210   71.4960  222.1050 C   0  0  0  0  0  0  0  0  0  0  0  0
  139.8670   71.8800  223.4400 N   0  0  0  0  0  0  0  0  0  0  0  0
  140.1220   71.1620  224.6260 C   0  0  0  0  0  0  0  0  0  0  0  0
  140.7600   71.7900  225.7070 C   0  0  0  0  0  0  0  0  0  0  0  0
  141.0550   71.1110  226.8690 C   0  0  0  0  0  0  0  0  0  0  0  0
  140.7410   69.7810  227.0330 C   0  0  0  0  0  0  0  0  0  0  0  0
  141.0960   68.8800  228.4870 Cl  0  0  0  0  0  0  0  0  0  0  0  0
  140.1160   69.1480  225.9860 C   0  0  0  0  0  0  0  0  0  0  0  0
  139.6900   67.4450  226.1380 Cl  0  0  0  0  0  0  0  0  0  0  0  0
  139.8220   69.8330  224.8220 C   0  0  0  0  0  0  0  0  0  0  0  0
  138.4080   78.0540  222.7190 C   0  0  0  0  0  0  0  0  0  0  0  0
  137.9020   79.2900  223.0650 C   0  0  0  0  0  0  0  0  0  0  0  0
  138.7270   80.3570  223.4190 C   0  0  0  0  0  0  0  0  0  0  0  0
  140.0870   80.1640  223.4190 C   0  0  0  0  0  0  0  0  0  0  0  0
  141.0030   81.1400  223.7480 C   0  0  0  0  0  0  0  0  0  0  0  0
  142.3600   80.8850  223.7290 C   0  0  0  0  0  0  0  0  0  0  0  0
  142.8270   79.6360  223.3760 C   0  0  0  0  0  0  0  0  0  0  0  0
  141.9230   78.6520  223.0450 C   0  0  0  0  0  0  0  0  0  0  0  0
  140.5520   78.9060  223.0630 C   0  0  0  0  0  0  0  0  0  0  0  0
  139.7480   77.8980  222.7280 N   0  0  0  0  0  0  0  0  0  0  0  0
  138.8490   75.4710  223.1010 H   0  0  0  0  0  0  0  0  0  0  0  0
  136.4771   74.2272  223.1996 H   0  0  0  0  0  0  0  0  0  0  0  0
  136.4537   74.7459  221.4633 H   0  0  0  0  0  0  0  0  0  0  0  0
  139.0997   74.6187  219.4588 H   0  0  0  0  0  0  0  0  0  0  0  0
  139.1282   75.6339  220.9137 H   0  0  0  0  0  0  0  0  0  0  0  0
  141.3783   74.3979  219.4297 H   0  0  0  0  0  0  0  0  0  0  0  0
  141.4551   75.7083  220.5793 H   0  0  0  0  0  0  0  0  0  0  0  0
  142.3939   73.2734  221.3643 H   0  0  0  0  0  0  0  0  0  0  0  0
  141.4196   74.0688  222.5383 H   0  0  0  0  0  0  0  0  0  0  0  0
  140.5005   72.1428  220.2799 H   0  0  0  0  0  0  0  0  0  0  0  0
  139.4525   70.8149  221.7106 H   0  0  0  0  0  0  0  0  0  0  0  0
  141.2007   70.9966  222.1316 H   0  0  0  0  0  0  0  0  0  0  0  0
  139.3550   72.8060  223.5540 H   0  0  0  0  0  0  0  0  0  0  0  0
  141.0318   72.8527  225.6243 H   0  0  0  0  0  0  0  0  0  0  0  0
  141.5556   71.6470  227.6888 H   0  0  0  0  0  0  0  0  0  0  0  0
  139.3215   69.2869  224.0088 H   0  0  0  0  0  0  0  0  0  0  0  0
  136.8121   79.4386  223.0615 H   0  0  0  0  0  0  0  0  0  0  0  0
  138.2980   81.3323  223.6924 H   0  0  0  0  0  0  0  0  0  0  0  0
  140.6462   82.1413  224.0311 H   0  0  0  0  0  0  0  0  0  0  0  0
  143.0710   81.6806  223.9963 H   0  0  0  0  0  0  0  0  0  0  0  0
  143.9072   79.4290  223.3592 H   0  0  0  0  0  0  0  0  0  0  0  0
  142.2867   77.6529  222.7628 H   0  0  0  0  0  0  0  0  0  0  0  0
  1  2  2  0
  2  3  1  0
  3  4  1  0
  4  5  1  0
  5  6  2  0
  5  7  1  0
  7  8  1  0
  8  9  1  0
  9 10  1  0
 10 11  1  0
 11 12  1  0
 12 13  1  0
 13 14  1  0
 14 15  2  0
 15 16  1  0
 16 17  2  0
 17 18  1  0
 17 19  1  0
 19 20  1  0
 19 21  2  0
  2 22  1  0
 22 23  2  0
 23 24  1  0
 24 25  2  0
 25 26  1  0
 26 27  2  0
 27 28  1  0
 28 29  2  0
 29 30  1  0
 30 31  2  0
 11  7  1  0
 21 14  1  0
 31 22  1  0
 30 25  1  0
  3 32  1  0
  4 33  1  0
  4 34  1  0
  8 35  1  0
  8 36  1  0
  9 37  1  0
  9 38  1  0
 10 39  1  0
 10 40  1  0
 11 41  1  6
 12 42  1  0
 12 43  1  0
 13 44  1  0
 15 45  1  0
 16 46  1  0
 21 47  1  0
 23 48  1  0
 24 49  1  0
 26 50  1  0
 27 51  1  0
 28 52  1  0
 29 53  1  0
M  END
>  <smiles>  (33) 
O=C(NCC(=O)N1CCC[C@H]1CNc1ccc(Cl)c(Cl)c1)c1ccc2ccccc2n1

>  <score_type>  (33) 
oracle

>  <origin>  (33) 
autodockgpu

>  <m_score__min__energy>  (33) 
-9.3599999999999994

>  <m_primary>  (33) 
energy

>  <rmsd>  (33) 
8.467108927579012

>  <m_score__min__rmsd>  (33) 
8.467108927579012

>  <meeko>  (33) 
{"free_energy": -8.86, "intermolecular_energy": -10.94, "internal_energy": -2.03, "cluster_size": 17, "cluster_id": 3, "rank_in_cluster": 4}

>  <energy>  (33) 
-8.08

>  <cluster_rmsd>  (33) 
1.74

>  <cluster>  (33) 
3

$$$$

     RDKit          3D

 53 56  0  0  0  0  0  0  0  0999 V2000
  137.2370   76.5970  222.1730 O   0  0  0  0  0  0  0  0  0  0  0  0
  138.4980   76.6540  222.1630 C   0  0  0  0  0  0  0  0  0  0  0  0
  139.2860   75.5490  221.7330 N   0  0  0  0  0  0  0  0  0  0  0  0
  138.6810   74.3090  221.2860 C   0  0  0  0  0  0  0  0  0  0  0  0
  139.6180   73.1650  221.4200 C   0  0  0  0  0  0  0  0  0  0  0  0
  140.7270   73.3660  221.9730 O   0  0  0  0  0  0  0  0  0  0  0  0
  139.2060   71.9040  220.9100 N   0  0  0  0  0  0  0  0  0  0  0  0
  139.5750   71.2870  219.6360 C   0  0  0  0  0  0  0  0  0  0  0  0
  139.3190   69.8200  219.7860 C   0  0  0  0  0  0  0  0  0  0  0  0
  139.1150   69.6810  221.3110 C   0  0  0  0  0  0  0  0  0  0  0  0
  138.3190   70.9260  221.5350 C   0  0  1  0  0  0  0  0  0  0  0  0
  137.9420   71.2740  222.9190 C   0  0  0  0  0  0  0  0  0  0  0  0
  139.1010   71.5810  223.7060 N   0  0  0  0  0  0  0  0  0  0  0  0
  139.5930   70.8590  224.8120 C   0  0  0  0  0  0  0  0  0  0  0  0
  139.4290   69.4660  224.8740 C   0  0  0  0  0  0  0  0  0  0  0  0
  139.8670   68.7320  225.9540 C   0  0  0  0  0  0  0  0  0  0  0  0
  140.4890   69.3240  227.0300 C   0  0  0  0  0  0  0  0  0  0  0  0
  141.0600   68.4320  228.4200 Cl  0  0  0  0  0  0  0  0  0  0  0  0
  140.6590   70.6850  226.9880 C   0  0  0  0  0  0  0  0  0  0  0  0
  141.4480   71.4980  228.3380 Cl  0  0  0  0  0  0  0  0  0  0  0  0
  140.2170   71.4190  225.9030 C   0  0  0  0  0  0  0  0  0  0  0  0
  139.2080   77.8660  222.5970 C   0  0  0  0  0  0  0  0  0  0  0  0
  138.4990   78.9540  223.0610 C   0  0  0  0  0  0  0  0  0  0  0  0
  139.1280   80.1250  223.4830 C   0  0  0  0  0  0  0  0  0  0  0  0
  140.4980   80.1900  223.4320 C   0  0  0  0  0  0  0  0  0  0  0  0
  141.2330   81.2890  223.8200 C   0  0  0  0  0  0  0  0  0  0  0  0
  142.6120   81.2940  223.7450 C   0  0  0  0  0  0  0  0  0  0  0  0
  143.2850   80.1850  223.2750 C   0  0  0  0  0  0  0  0  0  0  0  0
  142.5650   79.0800  222.8840 C   0  0  0  0  0  0  0  0  0  0  0  0
  141.1720   79.0720  222.9580 C   0  0  0  0  0  0  0  0  0  0  0  0
  140.5530   77.9620  222.5580 N   0  0  0  0  0  0  0  0  0  0  0  0
  140.3350   75.6290  221.7380 H   0  0  0  0  0  0  0  0  0  0  0  0
  137.7852   74.1098  221.8925 H   0  0  0  0  0  0  0  0  0  0  0  0
  138.4193   74.4171  220.2231 H   0  0  0  0  0  0  0  0  0  0  0  0
  138.9606   71.6989  218.8219 H   0  0  0  0  0  0  0  0  0  0  0  0
  140.6284   71.4843  219.3881 H   0  0  0  0  0  0  0  0  0  0  0  0
  138.4188   69.5133  219.2332 H   0  0  0  0  0  0  0  0  0  0  0  0
  140.1259   69.1871  219.3880 H   0  0  0  0  0  0  0  0  0  0  0  0
  138.5509   68.7740  221.5739 H   0  0  0  0  0  0  0  0  0  0  0  0
  140.0315   69.5822  221.9113 H   0  0  0  0  0  0  0  0  0  0  0  0
  137.3030   70.8430  221.1215 H   0  0  0  0  0  0  0  0  0  0  0  0
  137.2770   72.1501  222.9012 H   0  0  0  0  0  0  0  0  0  0  0  0
  137.4307   70.4110  223.3703 H   0  0  0  0  0  0  0  0  0  0  0  0
  139.6530   72.4480  223.4280 H   0  0  0  0  0  0  0  0  0  0  0  0
  138.9376   68.9470  224.0378 H   0  0  0  0  0  0  0  0  0  0  0  0
  139.7156   67.6425  225.9568 H   0  0  0  0  0  0  0  0  0  0  0  0
  140.3723   72.5079  225.9124 H   0  0  0  0  0  0  0  0  0  0  0  0
  137.4012   78.8963  223.0995 H   0  0  0  0  0  0  0  0  0  0  0  0
  138.5385   80.9786  223.8490 H   0  0  0  0  0  0  0  0  0  0  0  0
  140.7107   82.1806  224.1972 H   0  0  0  0  0  0  0  0  0  0  0  0
  143.1753   82.1845  224.0608 H   0  0  0  0  0  0  0  0  0  0  0  0
  144.3833   80.1845  223.2137 H   0  0  0  0  0  0  0  0  0  0  0  0
  143.0942   78.1918  222.5084 H   0  0  0  0  0  0  0  0  0  0  0  0
  1  2  2  0
  2  3  1  0
  3  4  1  0
  4  5  1  0
  5  6  2  0
  5  7  1  0
  7  8  1  0
  8  9  1  0
  9 10  1  0
 10 11  1  0
 11 12  1  0
 12 13  1  0
 13 14  1  0
 14 15  2  0
 15 16  1  0
 16 17  2  0
 17 18  1  0
 17 19  1  0
 19 20  1  0
 19 21  2  0
  2 22  1  0
 22 23  2  0
 23 24  1  0
 24 25  2  0
 25 26  1  0
 26 27  2  0
 27 28  1  0
 28 29  2  0
 29 30  1  0
 30 31  2  0
 11  7  1  0
 21 14  1  0
 31 22  1  0
 30 25  1  0
  3 32  1  0
  4 33  1  0
  4 34  1  0
  8 35  1  0
  8 36  1  0
  9 37  1  0
  9 38  1  0
 10 39  1  0
 10 40  1  0
 11 41  1  6
 12 42  1  0
 12 43  1  0
 13 44  1  0
 15 45  1  0
 16 46  1  0
 21 47  1  0
 23 48  1  0
 24 49  1  0
 26 50  1  0
 27 51  1  0
 28 52  1  0
 29 53  1  0
M  END
>  <smiles>  (34) 
O=C(NCC(=O)N1CCC[C@H]1CNc1ccc(Cl)c(Cl)c1)c1ccc2ccccc2n1

>  <score_type>  (34) 
oracle

>  <origin>  (34) 
autodockgpu

>  <m_score__min__energy>  (34) 
-9.3599999999999994

>  <m_primary>  (34) 
energy

>  <rmsd>  (34) 
8.95010325443785

>  <m_score__min__rmsd>  (34) 
8.95010325443785

>  <meeko>  (34) 
{"free_energy": -8.61, "intermolecular_energy": -10.7, "internal_energy": -2.63, "cluster_size": 17, "cluster_id": 3, "rank_in_cluster": 9}

>  <energy>  (34) 
-8.03

>  <cluster_rmsd>  (34) 
1.51

>  <cluster>  (34) 
3

$$$$

     RDKit          3D

 53 56  0  0  0  0  0  0  0  0999 V2000
  138.6790   70.5190  221.6400 O   0  0  0  0  0  0  0  0  0  0  0  0
  139.0790   71.0910  222.6910 C   0  0  0  0  0  0  0  0  0  0  0  0
  139.2730   72.5000  222.7410 N   0  0  0  0  0  0  0  0  0  0  0  0
  139.0220   73.3450  221.5890 C   0  0  0  0  0  0  0  0  0  0  0  0
  139.4390   74.7470  221.8390 C   0  0  0  0  0  0  0  0  0  0  0  0
  140.6580   74.9800  222.0300 O   0  0  0  0  0  0  0  0  0  0  0  0
  138.4320   75.7490  221.8490 N   0  0  0  0  0  0  0  0  0  0  0  0
  137.3330   75.9070  222.8030 C   0  0  0  0  0  0  0  0  0  0  0  0
  136.8840   77.3310  222.6990 C   0  0  0  0  0  0  0  0  0  0  0  0
  138.0270   77.9730  221.8840 C   0  0  0  0  0  0  0  0  0  0  0  0
  138.2530   76.8580  220.9150 C   0  0  1  0  0  0  0  0  0  0  0  0
  139.3560   76.9910  219.9430 C   0  0  0  0  0  0  0  0  0  0  0  0
  140.6170   77.1230  220.6110 N   0  0  0  0  0  0  0  0  0  0  0  0
  141.0350   78.1880  221.4340 C   0  0  0  0  0  0  0  0  0  0  0  0
  141.4350   77.9430  222.7570 C   0  0  0  0  0  0  0  0  0  0  0  0
  141.8180   78.9620  223.6000 C   0  0  0  0  0  0  0  0  0  0  0  0
  141.8290   80.2770  223.1910 C   0  0  0  0  0  0  0  0  0  0  0  0
  142.3070   81.6020  224.2250 Cl  0  0  0  0  0  0  0  0  0  0  0  0
  141.4420   80.5380  221.9000 C   0  0  0  0  0  0  0  0  0  0  0  0
  141.4360   82.2020  221.3210 Cl  0  0  0  0  0  0  0  0  0  0  0  0
  141.0570   79.5120  221.0570 C   0  0  0  0  0  0  0  0  0  0  0  0
  139.3610   70.3230  223.9130 C   0  0  0  0  0  0  0  0  0  0  0  0
  139.0310   68.9860  223.9820 C   0  0  0  0  0  0  0  0  0  0  0  0
  139.2800   68.2180  225.1190 C   0  0  0  0  0  0  0  0  0  0  0  0
  139.8730   68.8190  226.2020 C   0  0  0  0  0  0  0  0  0  0  0  0
  140.1680   68.1670  227.3790 C   0  0  0  0  0  0  0  0  0  0  0  0
  140.7650   68.8270  228.4360 C   0  0  0  0  0  0  0  0  0  0  0  0
  141.0790   70.1670  228.3280 C   0  0  0  0  0  0  0  0  0  0  0  0
  140.7900   70.8300  227.1580 C   0  0  0  0  0  0  0  0  0  0  0  0
  140.1870   70.1660  226.0890 C   0  0  0  0  0  0  0  0  0  0  0  0
  139.9410   70.8850  224.9940 N   0  0  0  0  0  0  0  0  0  0  0  0
  139.6070   72.9450  223.6330 H   0  0  0  0  0  0  0  0  0  0  0  0
  139.5851   72.9530  220.7292 H   0  0  0  0  0  0  0  0  0  0  0  0
  137.9408   73.3384  221.3864 H   0  0  0  0  0  0  0  0  0  0  0  0
  136.5064   75.2279  222.5469 H   0  0  0  0  0  0  0  0  0  0  0  0
  137.6555   75.6645  223.8263 H   0  0  0  0  0  0  0  0  0  0  0  0
  135.9233   77.4088  222.1689 H   0  0  0  0  0  0  0  0  0  0  0  0
  136.7110   77.8123  223.6729 H   0  0  0  0  0  0  0  0  0  0  0  0
  137.7107   78.9003  221.3840 H   0  0  0  0  0  0  0  0  0  0  0  0
  138.9070   78.2932  222.4612 H   0  0  0  0  0  0  0  0  0  0  0  0
  137.4282   76.7695  220.1926 H   0  0  0  0  0  0  0  0  0  0  0  0
  139.3803   76.0972  219.3022 H   0  0  0  0  0  0  0  0  0  0  0  0
  139.1835   77.8940  219.3390 H   0  0  0  0  0  0  0  0  0  0  0  0
  141.3180   76.3330  220.4740 H   0  0  0  0  0  0  0  0  0  0  0  0
  141.4427   76.9084  223.1306 H   0  0  0  0  0  0  0  0  0  0  0  0
  142.1236   78.7191  224.6284 H   0  0  0  0  0  0  0  0  0  0  0  0
  140.7523   79.7669  220.0313 H   0  0  0  0  0  0  0  0  0  0  0  0
  138.5558   68.5097  223.1118 H   0  0  0  0  0  0  0  0  0  0  0  0
  139.0070   67.1528  225.1478 H   0  0  0  0  0  0  0  0  0  0  0  0
  139.9233   67.0993  227.4795 H   0  0  0  0  0  0  0  0  0  0  0  0
  140.9905   68.2836  229.3654 H   0  0  0  0  0  0  0  0  0  0  0  0
  141.5540   70.6974  229.1665 H   0  0  0  0  0  0  0  0  0  0  0  0
  141.0375   71.8977  227.0638 H   0  0  0  0  0  0  0  0  0  0  0  0
  1  2  2  0
  2  3  1  0
  3  4  1  0
  4  5  1  0
  5  6  2  0
  5  7  1  0
  7  8  1  0
  8  9  1  0
  9 10  1  0
 10 11  1  0
 11 12  1  0
 12 13  1  0
 13 14  1  0
 14 15  2  0
 15 16  1  0
 16 17  2  0
 17 18  1  0
 17 19  1  0
 19 20  1  0
 19 21  2  0
  2 22  1  0
 22 23  2  0
 23 24  1  0
 24 25  2  0
 25 26  1  0
 26 27  2  0
 27 28  1  0
 28 29  2  0
 29 30  1  0
 30 31  2  0
 11  7  1  0
 21 14  1  0
 31 22  1  0
 30 25  1  0
  3 32  1  0
  4 33  1  0
  4 34  1  0
  8 35  1  0
  8 36  1  0
  9 37  1  0
  9 38  1  0
 10 39  1  0
 10 40  1  0
 11 41  1  6
 12 42  1  0
 12 43  1  0
 13 44  1  0
 15 45  1  0
 16 46  1  0
 21 47  1  0
 23 48  1  0
 24 49  1  0
 26 50  1  0
 27 51  1  0
 28 52  1  0
 29 53  1  0
M  END
>  <smiles>  (35) 
O=C(NCC(=O)N1CCC[C@H]1CNc1ccc(Cl)c(Cl)c1)c1ccc2ccccc2n1

>  <score_type>  (35) 
oracle

>  <origin>  (35) 
autodockgpu

>  <m_score__min__energy>  (35) 
-9.3599999999999994

>  <m_primary>  (35) 
energy

>  <rmsd>  (35) 
2.935280928868384

>  <m_score__min__rmsd>  (35) 
2.935280928868384

>  <meeko>  (35) 
{"free_energy": -8.79, "intermolecular_energy": -10.88, "internal_energy": -2.38, "cluster_size": 3, "cluster_id": 4, "rank_in_cluster": 2}

>  <energy>  (35) 
-7.93

>  <cluster_rmsd>  (35) 
1.64

>  <cluster>  (35) 
3

$$$$

     RDKit          3D

 53 56  0  0  0  0  0  0  0  0999 V2000
  139.9640   73.0400  222.6640 O   0  0  0  0  0  0  0  0  0  0  0  0
  140.2060   71.8070  222.7790 C   0  0  0  0  0  0  0  0  0  0  0  0
  140.3590   70.9720  221.6370 N   0  0  0  0  0  0  0  0  0  0  0  0
  140.2460   71.4960  220.2890 C   0  0  0  0  0  0  0  0  0  0  0  0
  140.8580   72.8430  220.1730 C   0  0  0  0  0  0  0  0  0  0  0  0
  140.1370   73.7930  219.7830 O   0  0  0  0  0  0  0  0  0  0  0  0
  142.2320   72.9800  220.5110 N   0  0  0  0  0  0  0  0  0  0  0  0
  143.2260   71.9190  220.6750 C   0  0  0  0  0  0  0  0  0  0  0  0
  144.5660   72.5680  220.5230 C   0  0  0  0  0  0  0  0  0  0  0  0
  144.1940   73.9510  219.9460 C   0  0  0  0  0  0  0  0  0  0  0  0
  142.9770   74.2090  220.7740 C   0  0  1  0  0  0  0  0  0  0  0  0
  142.2000   75.4360  220.5100 C   0  0  0  0  0  0  0  0  0  0  0  0
  141.1140   75.5670  221.4390 N   0  0  0  0  0  0  0  0  0  0  0  0
  140.6400   76.7560  222.0290 C   0  0  0  0  0  0  0  0  0  0  0  0
  139.2630   76.9480  222.2190 C   0  0  0  0  0  0  0  0  0  0  0  0
  138.7610   78.1100  222.7620 C   0  0  0  0  0  0  0  0  0  0  0  0
  139.5830   79.1450  223.1470 C   0  0  0  0  0  0  0  0  0  0  0  0
  138.9910   80.6360  223.8400 Cl  0  0  0  0  0  0  0  0  0  0  0  0
  140.9330   78.9770  222.9690 C   0  0  0  0  0  0  0  0  0  0  0  0
  142.0340   80.2690  223.4430 Cl  0  0  0  0  0  0  0  0  0  0  0  0
  141.4330   77.8090  222.4230 C   0  0  0  0  0  0  0  0  0  0  0  0
  140.3390   71.1790  224.1020 C   0  0  0  0  0  0  0  0  0  0  0  0
  140.8780   71.8890  225.1540 C   0  0  0  0  0  0  0  0  0  0  0  0
  141.0230   71.3350  226.4260 C   0  0  0  0  0  0  0  0  0  0  0  0
  140.6150   70.0400  226.6300 C   0  0  0  0  0  0  0  0  0  0  0  0
  140.7080   69.3840  227.8380 C   0  0  0  0  0  0  0  0  0  0  0  0
  140.2800   68.0790  227.9810 C   0  0  0  0  0  0  0  0  0  0  0  0
  139.7460   67.4020  226.9040 C   0  0  0  0  0  0  0  0  0  0  0  0
  139.6480   68.0440  225.6910 C   0  0  0  0  0  0  0  0  0  0  0  0
  140.0790   69.3630  225.5430 C   0  0  0  0  0  0  0  0  0  0  0  0
  139.9480   69.9080  224.3350 N   0  0  0  0  0  0  0  0  0  0  0  0
  140.5590   69.9480  221.7680 H   0  0  0  0  0  0  0  0  0  0  0  0
  140.7565   70.8112  219.5959 H   0  0  0  0  0  0  0  0  0  0  0  0
  139.1776   71.5813  220.0416 H   0  0  0  0  0  0  0  0  0  0  0  0
  143.1350   71.4632  221.6720 H   0  0  0  0  0  0  0  0  0  0  0  0
  143.0831   71.1205  219.9320 H   0  0  0  0  0  0  0  0  0  0  0  0
  145.0750   72.6643  221.4934 H   0  0  0  0  0  0  0  0  0  0  0  0
  145.2636   71.9987  219.8912 H   0  0  0  0  0  0  0  0  0  0  0  0
  144.9813   74.6993  220.1200 H   0  0  0  0  0  0  0  0  0  0  0  0
  144.0512   73.9940  218.8562 H   0  0  0  0  0  0  0  0  0  0  0  0
  143.2321   74.4189  221.8232 H   0  0  0  0  0  0  0  0  0  0  0  0
  142.8625   76.3089  220.6057 H   0  0  0  0  0  0  0  0  0  0  0  0
  141.7857   75.3763  219.4928 H   0  0  0  0  0  0  0  0  0  0  0  0
  140.6100   74.6720  221.7150 H   0  0  0  0  0  0  0  0  0  0  0  0
  138.5658   76.1491  221.9264 H   0  0  0  0  0  0  0  0  0  0  0  0
  137.6736   78.2138  222.8915 H   0  0  0  0  0  0  0  0  0  0  0  0
  142.5219   77.7170  222.2971 H   0  0  0  0  0  0  0  0  0  0  0  0
  141.2042   72.9258  224.9847 H   0  0  0  0  0  0  0  0  0  0  0  0
  141.4553   71.9235  227.2486 H   0  0  0  0  0  0  0  0  0  0  0  0
  141.1317   69.9104  228.7060 H   0  0  0  0  0  0  0  0  0  0  0  0
  140.3651   67.5777  228.9564 H   0  0  0  0  0  0  0  0  0  0  0  0
  139.4031   66.3626  227.0136 H   0  0  0  0  0  0  0  0  0  0  0  0
  139.2246   67.5108  224.8270 H   0  0  0  0  0  0  0  0  0  0  0  0
  1  2  2  0
  2  3  1  0
  3  4  1  0
  4  5  1  0
  5  6  2  0
  5  7  1  0
  7  8  1  0
  8  9  1  0
  9 10  1  0
 10 11  1  0
 11 12  1  0
 12 13  1  0
 13 14  1  0
 14 15  2  0
 15 16  1  0
 16 17  2  0
 17 18  1  0
 17 19  1  0
 19 20  1  0
 19 21  2  0
  2 22  1  0
 22 23  2  0
 23 24  1  0
 24 25  2  0
 25 26  1  0
 26 27  2  0
 27 28  1  0
 28 29  2  0
 29 30  1  0
 30 31  2  0
 11  7  1  0
 21 14  1  0
 31 22  1  0
 30 25  1  0
  3 32  1  0
  4 33  1  0
  4 34  1  0
  8 35  1  0
  8 36  1  0
  9 37  1  0
  9 38  1  0
 10 39  1  0
 10 40  1  0
 11 41  1  1
 12 42  1  0
 12 43  1  0
 13 44  1  0
 15 45  1  0
 16 46  1  0
 21 47  1  0
 23 48  1  0
 24 49  1  0
 26 50  1  0
 27 51  1  0
 28 52  1  0
 29 53  1  0
M  END
>  <smiles>  (36) 
O=C(NCC(=O)N1CCC[C@H]1CNc1ccc(Cl)c(Cl)c1)c1ccc2ccccc2n1

>  <score_type>  (36) 
oracle

>  <origin>  (36) 
autodockgpu

>  <m_score__min__energy>  (36) 
-9.3599999999999994

>  <m_primary>  (36) 
energy

>  <rmsd>  (36) 
4.0338749017664846

>  <m_score__min__rmsd>  (36) 
4.0338749017664846

>  <meeko>  (36) 
{"free_energy": -8.83, "intermolecular_energy": -10.92, "internal_energy": -2.81, "cluster_size": 16, "cluster_id": 2, "rank_in_cluster": 3}

>  <energy>  (36) 
-7.44

>  <cluster_rmsd>  (36) 
1.3

>  <cluster>  (36) 
3

$$$$

     RDKit          3D

 53 56  0  0  0  0  0  0  0  0999 V2000
  138.7040   70.4900  221.4550 O   0  0  0  0  0  0  0  0  0  0  0  0
  139.0830   71.1890  222.4350 C   0  0  0  0  0  0  0  0  0  0  0  0
  139.2260   72.6010  222.3260 N   0  0  0  0  0  0  0  0  0  0  0  0
  138.9450   73.3030  221.0880 C   0  0  0  0  0  0  0  0  0  0  0  0
  139.7960   74.5100  220.9400 C   0  0  0  0  0  0  0  0  0  0  0  0
  140.3090   75.0080  221.9720 O   0  0  0  0  0  0  0  0  0  0  0  0
  139.9830   75.0350  219.6320 N   0  0  0  0  0  0  0  0  0  0  0  0
  139.0350   75.0240  218.5170 C   0  0  0  0  0  0  0  0  0  0  0  0
  139.4770   76.1000  217.5760 C   0  0  0  0  0  0  0  0  0  0  0  0
  140.5010   76.8780  218.4300 C   0  0  0  0  0  0  0  0  0  0  0  0
  141.1600   75.7110  219.0920 C   0  0  1  0  0  0  0  0  0  0  0  0
  142.2010   75.9780  220.1040 C   0  0  0  0  0  0  0  0  0  0  0  0
  142.2980   77.3820  220.3830 N   0  0  0  0  0  0  0  0  0  0  0  0
  141.5110   78.1250  221.2850 C   0  0  0  0  0  0  0  0  0  0  0  0
  140.1490   77.8230  221.4470 C   0  0  0  0  0  0  0  0  0  0  0  0
  139.3420   78.5480  222.2940 C   0  0  0  0  0  0  0  0  0  0  0  0
  139.8250   79.6090  223.0270 C   0  0  0  0  0  0  0  0  0  0  0  0
  138.8370   80.5570  224.1130 Cl  0  0  0  0  0  0  0  0  0  0  0  0
  141.1540   79.9210  222.8820 C   0  0  0  0  0  0  0  0  0  0  0  0
  141.8280   81.2690  223.7950 Cl  0  0  0  0  0  0  0  0  0  0  0  0
  141.9610   79.1910  222.0300 C   0  0  0  0  0  0  0  0  0  0  0  0
  139.3920   70.5730  223.7330 C   0  0  0  0  0  0  0  0  0  0  0  0
  139.1360   69.2340  223.9430 C   0  0  0  0  0  0  0  0  0  0  0  0
  139.4140   68.6070  225.1570 C   0  0  0  0  0  0  0  0  0  0  0  0
  139.9580   69.3530  226.1730 C   0  0  0  0  0  0  0  0  0  0  0  0
  140.2740   68.8470  227.4160 C   0  0  0  0  0  0  0  0  0  0  0  0
  140.8210   69.6490  228.3990 C   0  0  0  0  0  0  0  0  0  0  0  0
  141.0620   70.9850  228.1500 C   0  0  0  0  0  0  0  0  0  0  0  0
  140.7510   71.5030  226.9140 C   0  0  0  0  0  0  0  0  0  0  0  0
  140.1980   70.6960  225.9190 C   0  0  0  0  0  0  0  0  0  0  0  0
  139.9270   71.2780  224.7520 N   0  0  0  0  0  0  0  0  0  0  0  0
  139.5450   73.1540  223.1620 H   0  0  0  0  0  0  0  0  0  0  0  0
  139.1355   72.6258  220.2423 H   0  0  0  0  0  0  0  0  0  0  0  0
  137.8928   73.6234  221.1049 H   0  0  0  0  0  0  0  0  0  0  0  0
  139.0524   74.0467  218.0125 H   0  0  0  0  0  0  0  0  0  0  0  0
  138.0065   75.1976  218.8663 H   0  0  0  0  0  0  0  0  0  0  0  0
  139.9478   75.6753  216.6771 H   0  0  0  0  0  0  0  0  0  0  0  0
  138.6527   76.7227  217.1981 H   0  0  0  0  0  0  0  0  0  0  0  0
  141.2035   77.4563  217.8119 H   0  0  0  0  0  0  0  0  0  0  0  0
  140.0833   77.6398  219.1047 H   0  0  0  0  0  0  0  0  0  0  0  0
  141.7819   75.1380  218.3885 H   0  0  0  0  0  0  0  0  0  0  0  0
  141.9469   75.4436  221.0313 H   0  0  0  0  0  0  0  0  0  0  0  0
  143.1684   75.6307  219.7121 H   0  0  0  0  0  0  0  0  0  0  0  0
  143.0450   77.9250  219.8540 H   0  0  0  0  0  0  0  0  0  0  0  0
  139.7157   76.9846  220.8819 H   0  0  0  0  0  0  0  0  0  0  0  0
  138.2813   78.2721  222.3881 H   0  0  0  0  0  0  0  0  0  0  0  0
  143.0195   79.4773  221.9427 H   0  0  0  0  0  0  0  0  0  0  0  0
  138.6983   68.6415  223.1261 H   0  0  0  0  0  0  0  0  0  0  0  0
  139.2018   67.5369  225.2977 H   0  0  0  0  0  0  0  0  0  0  0  0
  140.0870   67.7842  227.6292 H   0  0  0  0  0  0  0  0  0  0  0  0
  141.0651   69.2216  229.3828 H   0  0  0  0  0  0  0  0  0  0  0  0
  141.4971   71.6273  228.9298 H   0  0  0  0  0  0  0  0  0  0  0  0
  140.9407   72.5667  226.7075 H   0  0  0  0  0  0  0  0  0  0  0  0
  1  2  2  0
  2  3  1  0
  3  4  1  0
  4  5  1  0
  5  6  2  0
  5  7  1  0
  7  8  1  0
  8  9  1  0
  9 10  1  0
 10 11  1  0
 11 12  1  0
 12 13  1  0
 13 14  1  0
 14 15  2  0
 15 16  1  0
 16 17  2  0
 17 18  1  0
 17 19  1  0
 19 20  1  0
 19 21  2  0
  2 22  1  0
 22 23  2  0
 23 24  1  0
 24 25  2  0
 25 26  1  0
 26 27  2  0
 27 28  1  0
 28 29  2  0
 29 30  1  0
 30 31  2  0
 11  7  1  0
 21 14  1  0
 31 22  1  0
 30 25  1  0
  3 32  1  0
  4 33  1  0
  4 34  1  0
  8 35  1  0
  8 36  1  0
  9 37  1  0
  9 38  1  0
 10 39  1  0
 10 40  1  0
 11 41  1  6
 12 42  1  0
 12 43  1  0
 13 44  1  0
 15 45  1  0
 16 46  1  0
 21 47  1  0
 23 48  1  0
 24 49  1  0
 26 50  1  0
 27 51  1  0
 28 52  1  0
 29 53  1  0
M  END
>  <smiles>  (37) 
O=C(NCC(=O)N1CCC[C@H]1CNc1ccc(Cl)c(Cl)c1)c1ccc2ccccc2n1

>  <score_type>  (37) 
oracle

>  <origin>  (37) 
autodockgpu

>  <m_score__min__energy>  (37) 
-9.3599999999999994

>  <m_primary>  (37) 
energy

>  <rmsd>  (37) 
1.6578498525303271

>  <m_score__min__rmsd>  (37) 
1.6578498525303271

>  <meeko>  (37) 
{"free_energy": -8.67, "intermolecular_energy": -10.76, "internal_energy": -2.11, "cluster_size": 16, "cluster_id": 2, "rank_in_cluster": 6}

>  <energy>  (37) 
-8.82

>  <cluster_rmsd>  (37) 
0.0

>  <cluster>  (37) 
4

$$$$

     RDKit          3D

 53 56  0  0  0  0  0  0  0  0999 V2000
  138.0430   69.6300  222.1040 O   0  0  0  0  0  0  0  0  0  0  0  0
  138.5820   70.3480  222.9900 C   0  0  0  0  0  0  0  0  0  0  0  0
  138.7430   71.7510  222.8110 N   0  0  0  0  0  0  0  0  0  0  0  0
  138.2980   72.4210  221.6030 C   0  0  0  0  0  0  0  0  0  0  0  0
  139.0280   73.6940  221.3850 C   0  0  0  0  0  0  0  0  0  0  0  0
  139.9590   73.9900  222.1740 O   0  0  0  0  0  0  0  0  0  0  0  0
  138.6310   74.5100  220.2910 N   0  0  0  0  0  0  0  0  0  0  0  0
  138.7320   74.2070  218.8630 C   0  0  0  0  0  0  0  0  0  0  0  0
  137.7560   75.1060  218.1700 C   0  0  0  0  0  0  0  0  0  0  0  0
  136.9180   75.6450  219.3490 C   0  0  0  0  0  0  0  0  0  0  0  0
  138.0280   75.8400  220.3300 C   0  0  1  0  0  0  0  0  0  0  0  0
  137.6840   76.2890  221.6940 C   0  0  0  0  0  0  0  0  0  0  0  0
  138.8590   76.4080  222.5070 N   0  0  0  0  0  0  0  0  0  0  0  0
  139.6340   77.5670  222.7160 C   0  0  0  0  0  0  0  0  0  0  0  0
  140.9870   77.4560  223.0710 C   0  0  0  0  0  0  0  0  0  0  0  0
  141.7670   78.5650  223.3140 C   0  0  0  0  0  0  0  0  0  0  0  0
  141.2600   79.8420  223.2230 C   0  0  0  0  0  0  0  0  0  0  0  0
  142.2110   81.2770  223.5240 Cl  0  0  0  0  0  0  0  0  0  0  0  0
  139.9380   79.9720  222.8780 C   0  0  0  0  0  0  0  0  0  0  0  0
  139.2350   81.5830  222.7480 Cl  0  0  0  0  0  0  0  0  0  0  0  0
  139.1590   78.8560  222.6350 C   0  0  0  0  0  0  0  0  0  0  0  0
  139.0660   69.7650  224.2500 C   0  0  0  0  0  0  0  0  0  0  0  0
  138.8300   68.4360  224.5340 C   0  0  0  0  0  0  0  0  0  0  0  0
  139.2710   67.8390  225.7150 C   0  0  0  0  0  0  0  0  0  0  0  0
  139.9610   68.6060  226.6210 C   0  0  0  0  0  0  0  0  0  0  0  0
  140.4450   68.1320  227.8200 C   0  0  0  0  0  0  0  0  0  0  0  0
  141.1330   68.9540  228.6920 C   0  0  0  0  0  0  0  0  0  0  0  0
  141.3490   70.2790  228.3720 C   0  0  0  0  0  0  0  0  0  0  0  0
  140.8700   70.7660  227.1780 C   0  0  0  0  0  0  0  0  0  0  0  0
  140.1750   69.9390  226.2950 C   0  0  0  0  0  0  0  0  0  0  0  0
  139.7460   70.4910  225.1610 N   0  0  0  0  0  0  0  0  0  0  0  0
  139.1970   72.3210  223.5690 H   0  0  0  0  0  0  0  0  0  0  0  0
  138.4713   71.7581  220.7425 H   0  0  0  0  0  0  0  0  0  0  0  0
  137.2280   72.6518  221.7114 H   0  0  0  0  0  0  0  0  0  0  0  0
  139.7527   74.4045  218.5035 H   0  0  0  0  0  0  0  0  0  0  0  0
  138.5101   73.1483  218.6634 H   0  0  0  0  0  0  0  0  0  0  0  0
  138.2707   75.9213  217.6405 H   0  0  0  0  0  0  0  0  0  0  0  0
  137.1585   74.5988  217.3982 H   0  0  0  0  0  0  0  0  0  0  0  0
  136.4116   76.5896  219.1013 H   0  0  0  0  0  0  0  0  0  0  0  0
  136.0897   75.0027  219.6826 H   0  0  0  0  0  0  0  0  0  0  0  0
  138.6745   76.6860  220.0539 H   0  0  0  0  0  0  0  0  0  0  0  0
  137.1862   77.2682  221.6356 H   0  0  0  0  0  0  0  0  0  0  0  0
  137.0159   75.5438  222.1504 H   0  0  0  0  0  0  0  0  0  0  0  0
  139.1850   75.5290  223.0100 H   0  0  0  0  0  0  0  0  0  0  0  0
  141.4371   76.4560  223.1576 H   0  0  0  0  0  0  0  0  0  0  0  0
  142.8233   78.4268  223.5881 H   0  0  0  0  0  0  0  0  0  0  0  0
  138.1039   79.0063  222.3625 H   0  0  0  0  0  0  0  0  0  0  0  0
  138.2756   67.8267  223.8050 H   0  0  0  0  0  0  0  0  0  0  0  0
  139.0703   66.7764  225.9162 H   0  0  0  0  0  0  0  0  0  0  0  0
  140.2807   67.0781  228.0889 H   0  0  0  0  0  0  0  0  0  0  0  0
  141.5095   68.5512  229.6438 H   0  0  0  0  0  0  0  0  0  0  0  0
  141.8969   70.9369  229.0626 H   0  0  0  0  0  0  0  0  0  0  0  0
  141.0371   71.8212  226.9160 H   0  0  0  0  0  0  0  0  0  0  0  0
  1  2  2  0
  2  3  1  0
  3  4  1  0
  4  5  1  0
  5  6  2  0
  5  7  1  0
  7  8  1  0
  8  9  1  0
  9 10  1  0
 10 11  1  0
 11 12  1  0
 12 13  1  0
 13 14  1  0
 14 15  2  0
 15 16  1  0
 16 17  2  0
 17 18  1  0
 17 19  1  0
 19 20  1  0
 19 21  2  0
  2 22  1  0
 22 23  2  0
 23 24  1  0
 24 25  2  0
 25 26  1  0
 26 27  2  0
 27 28  1  0
 28 29  2  0
 29 30  1  0
 30 31  2  0
 11  7  1  0
 21 14  1  0
 31 22  1  0
 30 25  1  0
  3 32  1  0
  4 33  1  0
  4 34  1  0
  8 35  1  0
  8 36  1  0
  9 37  1  0
  9 38  1  0
 10 39  1  0
 10 40  1  0
 11 41  1  6
 12 42  1  0
 12 43  1  0
 13 44  1  0
 15 45  1  0
 16 46  1  0
 21 47  1  0
 23 48  1  0
 24 49  1  0
 26 50  1  0
 27 51  1  0
 28 52  1  0
 29 53  1  0
M  END
>  <smiles>  (38) 
O=C(NCC(=O)N1CCC[C@H]1CNc1ccc(Cl)c(Cl)c1)c1ccc2ccccc2n1

>  <score_type>  (38) 
oracle

>  <origin>  (38) 
autodockgpu

>  <m_score__min__energy>  (38) 
-9.3599999999999994

>  <m_primary>  (38) 
energy

>  <rmsd>  (38) 
2.6135282629214203

>  <m_score__min__rmsd>  (38) 
2.6135282629214203

>  <meeko>  (38) 
{"free_energy": -8.16, "intermolecular_energy": -10.24, "internal_energy": -2.64, "cluster_size": 16, "cluster_id": 2, "rank_in_cluster": 13}

>  <energy>  (38) 
-8.79

>  <cluster_rmsd>  (38) 
0.39

>  <cluster>  (38) 
4

$$$$

     RDKit          3D

 53 56  0  0  0  0  0  0  0  0999 V2000
  141.2040   72.6530  221.6050 O   0  0  0  0  0  0  0  0  0  0  0  0
  140.2410   72.7190  222.4180 C   0  0  0  0  0  0  0  0  0  0  0  0
  139.2840   73.7700  222.3500 N   0  0  0  0  0  0  0  0  0  0  0  0
  139.3680   74.8150  221.3470 C   0  0  0  0  0  0  0  0  0  0  0  0
  140.4970   75.7400  221.6150 C   0  0  0  0  0  0  0  0  0  0  0  0
  141.4470   75.3300  222.3260 O   0  0  0  0  0  0  0  0  0  0  0  0
  140.4370   77.0430  221.0510 N   0  0  0  0  0  0  0  0  0  0  0  0
  139.7690   78.2270  221.5950 C   0  0  0  0  0  0  0  0  0  0  0  0
  140.4010   79.4110  220.9320 C   0  0  0  0  0  0  0  0  0  0  0  0
  141.6490   78.7850  220.2710 C   0  0  0  0  0  0  0  0  0  0  0  0
  141.0260   77.5120  219.7990 C   0  0  1  0  0  0  0  0  0  0  0  0
  141.8930   76.5110  219.1460 C   0  0  0  0  0  0  0  0  0  0  0  0
  142.7540   75.8760  220.1010 N   0  0  0  0  0  0  0  0  0  0  0  0
  143.4690   74.6730  219.9330 C   0  0  0  0  0  0  0  0  0  0  0  0
  144.7610   74.5390  220.4650 C   0  0  0  0  0  0  0  0  0  0  0  0
  145.5010   73.3910  220.2920 C   0  0  0  0  0  0  0  0  0  0  0  0
  145.0150   72.3120  219.5880 C   0  0  0  0  0  0  0  0  0  0  0  0
  145.9180   70.8370  219.3430 Cl  0  0  0  0  0  0  0  0  0  0  0  0
  143.7530   72.4230  219.0590 C   0  0  0  0  0  0  0  0  0  0  0  0
  143.0780   71.0740  218.1480 Cl  0  0  0  0  0  0  0  0  0  0  0  0
  143.0120   73.5780  219.2350 C   0  0  0  0  0  0  0  0  0  0  0  0
  140.0660   71.7090  223.4720 C   0  0  0  0  0  0  0  0  0  0  0  0
  139.4240   70.5210  223.1920 C   0  0  0  0  0  0  0  0  0  0  0  0
  139.2350   69.5340  224.1590 C   0  0  0  0  0  0  0  0  0  0  0  0
  139.7070   69.7590  225.4290 C   0  0  0  0  0  0  0  0  0  0  0  0
  139.5800   68.8620  226.4680 C   0  0  0  0  0  0  0  0  0  0  0  0
  140.0760   69.1460  227.7260 C   0  0  0  0  0  0  0  0  0  0  0  0
  140.7130   70.3470  227.9650 C   0  0  0  0  0  0  0  0  0  0  0  0
  140.8450   71.2520  226.9370 C   0  0  0  0  0  0  0  0  0  0  0  0
  140.3460   70.9680  225.6660 C   0  0  0  0  0  0  0  0  0  0  0  0
  140.5170   71.9000  224.7290 N   0  0  0  0  0  0  0  0  0  0  0  0
  138.4930   73.7960  223.0430 H   0  0  0  0  0  0  0  0  0  0  0  0
  139.5128   74.3516  220.3599 H   0  0  0  0  0  0  0  0  0  0  0  0
  138.4338   75.3951  221.3755 H   0  0  0  0  0  0  0  0  0  0  0  0
  138.6929   78.1940  221.3693 H   0  0  0  0  0  0  0  0  0  0  0  0
  139.8761   78.2781  222.6886 H   0  0  0  0  0  0  0  0  0  0  0  0
  139.7303   79.8527  220.1803 H   0  0  0  0  0  0  0  0  0  0  0  0
  140.6330   80.2339  221.6242 H   0  0  0  0  0  0  0  0  0  0  0  0
  142.0287   79.3955  219.4385 H   0  0  0  0  0  0  0  0  0  0  0  0
  142.5318   78.6766  220.9182 H   0  0  0  0  0  0  0  0  0  0  0  0
  140.3354   77.6806  218.9595 H   0  0  0  0  0  0  0  0  0  0  0  0
  141.2629   75.7476  218.6662 H   0  0  0  0  0  0  0  0  0  0  0  0
  142.5163   77.0221  218.3975 H   0  0  0  0  0  0  0  0  0  0  0  0
  142.8690   76.3620  221.0410 H   0  0  0  0  0  0  0  0  0  0  0  0
  145.1940   75.3738  221.0356 H   0  0  0  0  0  0  0  0  0  0  0  0
  146.5091   73.3341  220.7286 H   0  0  0  0  0  0  0  0  0  0  0  0
  142.0052   73.6237  218.7942 H   0  0  0  0  0  0  0  0  0  0  0  0
  139.0488   70.3462  222.1728 H   0  0  0  0  0  0  0  0  0  0  0  0
  138.7188   68.5951  223.9098 H   0  0  0  0  0  0  0  0  0  0  0  0
  139.0739   67.9013  226.2922 H   0  0  0  0  0  0  0  0  0  0  0  0
  139.9630   68.4134  228.5388 H   0  0  0  0  0  0  0  0  0  0  0  0
  141.1100   70.5777  228.9646 H   0  0  0  0  0  0  0  0  0  0  0  0
  141.3505   72.2117  227.1199 H   0  0  0  0  0  0  0  0  0  0  0  0
  1  2  2  0
  2  3  1  0
  3  4  1  0
  4  5  1  0
  5  6  2  0
  5  7  1  0
  7  8  1  0
  8  9  1  0
  9 10  1  0
 10 11  1  0
 11 12  1  0
 12 13  1  0
 13 14  1  0
 14 15  2  0
 15 16  1  0
 16 17  2  0
 17 18  1  0
 17 19  1  0
 19 20  1  0
 19 21  2  0
  2 22  1  0
 22 23  2  0
 23 24  1  0
 24 25  2  0
 25 26  1  0
 26 27  2  0
 27 28  1  0
 28 29  2  0
 29 30  1  0
 30 31  2  0
 11  7  1  0
 21 14  1  0
 31 22  1  0
 30 25  1  0
  3 32  1  0
  4 33  1  0
  4 34  1  0
  8 35  1  0
  8 36  1  0
  9 37  1  0
  9 38  1  0
 10 39  1  0
 10 40  1  0
 11 41  1  6
 12 42  1  0
 12 43  1  0
 13 44  1  0
 15 45  1  0
 16 46  1  0
 21 47  1  0
 23 48  1  0
 24 49  1  0
 26 50  1  0
 27 51  1  0
 28 52  1  0
 29 53  1  0
M  END
>  <smiles>  (39) 
O=C(NCC(=O)N1CCC[C@H]1CNc1ccc(Cl)c(Cl)c1)c1ccc2ccccc2n1

>  <score_type>  (39) 
oracle

>  <origin>  (39) 
autodockgpu

>  <m_score__min__energy>  (39) 
-9.3599999999999994

>  <m_primary>  (39) 
energy

>  <rmsd>  (39) 
4.328660040070109

>  <m_score__min__rmsd>  (39) 
4.328660040070109

>  <meeko>  (39) 
{"free_energy": -8.41, "intermolecular_energy": -10.49, "internal_energy": -2.22, "cluster_size": 3, "cluster_id": 1, "rank_in_cluster": 2}

>  <energy>  (39) 
-7.72

>  <cluster_rmsd>  (39) 
1.91

>  <cluster>  (39) 
4

$$$$

     RDKit          3D

 53 56  0  0  0  0  0  0  0  0999 V2000
  138.2640   69.5830  221.9360 O   0  0  0  0  0  0  0  0  0  0  0  0
  138.8860   70.2930  222.7730 C   0  0  0  0  0  0  0  0  0  0  0  0
  139.2190   71.6480  222.4930 N   0  0  0  0  0  0  0  0  0  0  0  0
  138.8600   72.2780  221.2360 C   0  0  0  0  0  0  0  0  0  0  0  0
  139.5010   73.6080  221.0890 C   0  0  0  0  0  0  0  0  0  0  0  0
  140.2960   73.9880  221.9840 O   0  0  0  0  0  0  0  0  0  0  0  0
  139.1770   74.3790  219.9400 N   0  0  0  0  0  0  0  0  0  0  0  0
  138.9350   73.9010  218.5780 C   0  0  0  0  0  0  0  0  0  0  0  0
  138.1620   74.9780  217.8830 C   0  0  0  0  0  0  0  0  0  0  0  0
  137.7370   75.8830  219.0600 C   0  0  0  0  0  0  0  0  0  0  0  0
  139.0080   75.8270  219.8440 C   0  0  1  0  0  0  0  0  0  0  0  0
  139.0530   76.5120  221.1510 C   0  0  0  0  0  0  0  0  0  0  0  0
  140.4070   76.7330  221.5680 N   0  0  0  0  0  0  0  0  0  0  0  0
  140.9330   77.8990  222.1620 C   0  0  0  0  0  0  0  0  0  0  0  0
  141.4470   77.8540  223.4680 C   0  0  0  0  0  0  0  0  0  0  0  0
  141.9390   78.9790  224.0920 C   0  0  0  0  0  0  0  0  0  0  0  0
  141.9530   80.2070  223.4710 C   0  0  0  0  0  0  0  0  0  0  0  0
  142.5660   81.6590  224.2240 Cl  0  0  0  0  0  0  0  0  0  0  0  0
  141.4540   80.2710  222.1940 C   0  0  0  0  0  0  0  0  0  0  0  0
  141.4450   81.8180  221.3480 Cl  0  0  0  0  0  0  0  0  0  0  0  0
  140.9610   79.1400  221.5700 C   0  0  0  0  0  0  0  0  0  0  0  0
  139.2950   69.7500  224.0760 C   0  0  0  0  0  0  0  0  0  0  0  0
  139.0990   68.4140  224.3610 C   0  0  0  0  0  0  0  0  0  0  0  0
  139.4710   67.8530  225.5830 C   0  0  0  0  0  0  0  0  0  0  0  0
  140.0490   68.6640  226.5290 C   0  0  0  0  0  0  0  0  0  0  0  0
  140.4570   68.2280  227.7710 C   0  0  0  0  0  0  0  0  0  0  0  0
  141.0330   69.0920  228.6820 C   0  0  0  0  0  0  0  0  0  0  0  0
  141.2110   70.4220  228.3590 C   0  0  0  0  0  0  0  0  0  0  0  0
  140.8080   70.8710  227.1220 C   0  0  0  0  0  0  0  0  0  0  0  0
  140.2260   70.0010  226.2010 C   0  0  0  0  0  0  0  0  0  0  0  0
  139.8640   70.5190  225.0270 N   0  0  0  0  0  0  0  0  0  0  0  0
  139.7380   72.2130  223.2130 H   0  0  0  0  0  0  0  0  0  0  0  0
  139.1847   71.6317  220.4072 H   0  0  0  0  0  0  0  0  0  0  0  0
  137.7691   72.4182  221.2206 H   0  0  0  0  0  0  0  0  0  0  0  0
  139.8900   73.7245  218.0615 H   0  0  0  0  0  0  0  0  0  0  0  0
  138.3803   72.9511  218.5815 H   0  0  0  0  0  0  0  0  0  0  0  0
  138.7938   75.5244  217.1673 H   0  0  0  0  0  0  0  0  0  0  0  0
  137.3175   74.6019  217.2868 H   0  0  0  0  0  0  0  0  0  0  0  0
  137.4956   76.9049  218.7323 H   0  0  0  0  0  0  0  0  0  0  0  0
  136.8275   75.5764  219.5974 H   0  0  0  0  0  0  0  0  0  0  0  0
  139.8168   76.3893  219.3544 H   0  0  0  0  0  0  0  0  0  0  0  0
  138.5395   77.4812  221.0673 H   0  0  0  0  0  0  0  0  0  0  0  0
  138.5553   75.8759  221.8978 H   0  0  0  0  0  0  0  0  0  0  0  0
  141.0930   75.9340  221.4150 H   0  0  0  0  0  0  0  0  0  0  0  0
  141.4570   76.8951  224.0069 H   0  0  0  0  0  0  0  0  0  0  0  0
  142.3319   78.8935  225.1159 H   0  0  0  0  0  0  0  0  0  0  0  0
  140.5707   79.2379  220.5463 H   0  0  0  0  0  0  0  0  0  0  0  0
  138.6342   67.7703  223.5997 H   0  0  0  0  0  0  0  0  0  0  0  0
  139.3050   66.7844  225.7845 H   0  0  0  0  0  0  0  0  0  0  0  0
  140.3213   67.1707  228.0424 H   0  0  0  0  0  0  0  0  0  0  0  0
  141.3505   68.7192  229.6670 H   0  0  0  0  0  0  0  0  0  0  0  0
  141.6690   71.1142  229.0809 H   0  0  0  0  0  0  0  0  0  0  0  0
  140.9468   71.9295  226.8567 H   0  0  0  0  0  0  0  0  0  0  0  0
  1  2  2  0
  2  3  1  0
  3  4  1  0
  4  5  1  0
  5  6  2  0
  5  7  1  0
  7  8  1  0
  8  9  1  0
  9 10  1  0
 10 11  1  0
 11 12  1  0
 12 13  1  0
 13 14  1  0
 14 15  2  0
 15 16  1  0
 16 17  2  0
 17 18  1  0
 17 19  1  0
 19 20  1  0
 19 21  2  0
  2 22  1  0
 22 23  2  0
 23 24  1  0
 24 25  2  0
 25 26  1  0
 26 27  2  0
 27 28  1  0
 28 29  2  0
 29 30  1  0
 30 31  2  0
 11  7  1  0
 21 14  1  0
 31 22  1  0
 30 25  1  0
  3 32  1  0
  4 33  1  0
  4 34  1  0
  8 35  1  0
  8 36  1  0
  9 37  1  0
  9 38  1  0
 10 39  1  0
 10 40  1  0
 11 41  1  6
 12 42  1  0
 12 43  1  0
 13 44  1  0
 15 45  1  0
 16 46  1  0
 21 47  1  0
 23 48  1  0
 24 49  1  0
 26 50  1  0
 27 51  1  0
 28 52  1  0
 29 53  1  0
M  END
>  <smiles>  (40) 
O=C(NCC(=O)N1CCC[C@H]1CNc1ccc(Cl)c(Cl)c1)c1ccc2ccccc2n1

>  <score_type>  (40) 
oracle

>  <origin>  (40) 
autodockgpu

>  <m_score__min__energy>  (40) 
-9.3599999999999994

>  <m_primary>  (40) 
energy

>  <rmsd>  (40) 
2.29410475693163

>  <m_score__min__rmsd>  (40) 
2.29410475693163

>  <meeko>  (40) 
{"free_energy": -7.97, "intermolecular_energy": -10.06, "internal_energy": -2.62, "cluster_size": 16, "cluster_id": 2, "rank_in_cluster": 15}

>  <energy>  (40) 
-8.5

>  <cluster_rmsd>  (40) 
0.0

>  <cluster>  (40) 
5

$$$$

     RDKit          3D

 53 56  0  0  0  0  0  0  0  0999 V2000
  137.6270   70.5040  222.2600 O   0  0  0  0  0  0  0  0  0  0  0  0
  138.4940   70.9880  223.0400 C   0  0  0  0  0  0  0  0  0  0  0  0
  139.0490   72.2810  222.8200 N   0  0  0  0  0  0  0  0  0  0  0  0
  138.6460   73.1020  221.6940 C   0  0  0  0  0  0  0  0  0  0  0  0
  139.7030   74.0750  221.3220 C   0  0  0  0  0  0  0  0  0  0  0  0
  140.7760   74.0670  221.9740 O   0  0  0  0  0  0  0  0  0  0  0  0
  139.4390   74.9650  220.2460 N   0  0  0  0  0  0  0  0  0  0  0  0
  138.1960   75.1130  219.4880 C   0  0  0  0  0  0  0  0  0  0  0  0
  138.2500   76.4640  218.8460 C   0  0  0  0  0  0  0  0  0  0  0  0
  139.4330   77.1270  219.5850 C   0  0  0  0  0  0  0  0  0  0  0  0
  140.3420   75.9420  219.6420 C   0  0  1  0  0  0  0  0  0  0  0  0
  141.6250   76.0800  220.3600 C   0  0  0  0  0  0  0  0  0  0  0  0
  141.4080   76.3510  221.7510 N   0  0  0  0  0  0  0  0  0  0  0  0
  140.7350   77.4580  222.3060 C   0  0  0  0  0  0  0  0  0  0  0  0
  139.3600   77.3840  222.5780 C   0  0  0  0  0  0  0  0  0  0  0  0
  138.6630   78.4560  223.0890 C   0  0  0  0  0  0  0  0  0  0  0  0
  139.2760   79.6580  223.3600 C   0  0  0  0  0  0  0  0  0  0  0  0
  138.4320   81.0440  224.0080 Cl  0  0  0  0  0  0  0  0  0  0  0  0
  140.6210   79.7510  223.1010 C   0  0  0  0  0  0  0  0  0  0  0  0
  141.4590   81.2660  223.4270 Cl  0  0  0  0  0  0  0  0  0  0  0  0
  141.3170   78.6730  222.5870 C   0  0  0  0  0  0  0  0  0  0  0  0
  138.9690   70.2360  224.2100 C   0  0  0  0  0  0  0  0  0  0  0  0
  138.7560   68.8760  224.2910 C   0  0  0  0  0  0  0  0  0  0  0  0
  139.1890   68.1210  225.3810 C   0  0  0  0  0  0  0  0  0  0  0  0
  139.8460   68.7590  226.4040 C   0  0  0  0  0  0  0  0  0  0  0  0
  140.3190   68.1230  227.5310 C   0  0  0  0  0  0  0  0  0  0  0  0
  140.9740   68.8210  228.5270 C   0  0  0  0  0  0  0  0  0  0  0  0
  141.1670   70.1820  228.4090 C   0  0  0  0  0  0  0  0  0  0  0  0
  140.6990   70.8300  227.2890 C   0  0  0  0  0  0  0  0  0  0  0  0
  140.0380   70.1280  226.2810 C   0  0  0  0  0  0  0  0  0  0  0  0
  139.6170   70.8340  225.2310 N   0  0  0  0  0  0  0  0  0  0  0  0
  139.7700   72.6550  223.4880 H   0  0  0  0  0  0  0  0  0  0  0  0
  138.4413   72.4501  220.8319 H   0  0  0  0  0  0  0  0  0  0  0  0
  137.7462   73.6649  221.9829 H   0  0  0  0  0  0  0  0  0  0  0  0
  138.1236   74.3293  218.7195 H   0  0  0  0  0  0  0  0  0  0  0  0
  137.3167   75.0175  220.1420 H   0  0  0  0  0  0  0  0  0  0  0  0
  138.4471   76.3854  217.7667 H   0  0  0  0  0  0  0  0  0  0  0  0
  137.3087   77.0280  218.9224 H   0  0  0  0  0  0  0  0  0  0  0  0
  139.8688   77.9577  219.0106 H   0  0  0  0  0  0  0  0  0  0  0  0
  139.1938   77.5956  220.5510 H   0  0  0  0  0  0  0  0  0  0  0  0
  140.7525   75.6920  218.6525 H   0  0  0  0  0  0  0  0  0  0  0  0
  142.1956   75.1448  220.2603 H   0  0  0  0  0  0  0  0  0  0  0  0
  142.1835   76.9203  219.9219 H   0  0  0  0  0  0  0  0  0  0  0  0
  141.7960   75.6430  222.4440 H   0  0  0  0  0  0  0  0  0  0  0  0
  138.8247   76.4442  222.3775 H   0  0  0  0  0  0  0  0  0  0  0  0
  137.5861   78.3486  223.2861 H   0  0  0  0  0  0  0  0  0  0  0  0
  142.3930   78.7926  222.3923 H   0  0  0  0  0  0  0  0  0  0  0  0
  138.2275   68.3702  223.4695 H   0  0  0  0  0  0  0  0  0  0  0  0
  139.0078   67.0367  225.4202 H   0  0  0  0  0  0  0  0  0  0  0  0
  140.1722   67.0383  227.6398 H   0  0  0  0  0  0  0  0  0  0  0  0
  141.3428   68.2900  229.4170 H   0  0  0  0  0  0  0  0  0  0  0  0
  141.6881   70.7416  229.1997 H   0  0  0  0  0  0  0  0  0  0  0  0
  140.8480   71.9151  227.1873 H   0  0  0  0  0  0  0  0  0  0  0  0
  1  2  2  0
  2  3  1  0
  3  4  1  0
  4  5  1  0
  5  6  2  0
  5  7  1  0
  7  8  1  0
  8  9  1  0
  9 10  1  0
 10 11  1  0
 11 12  1  0
 12 13  1  0
 13 14  1  0
 14 15  2  0
 15 16  1  0
 16 17  2  0
 17 18  1  0
 17 19  1  0
 19 20  1  0
 19 21  2  0
  2 22  1  0
 22 23  2  0
 23 24  1  0
 24 25  2  0
 25 26  1  0
 26 27  2  0
 27 28  1  0
 28 29  2  0
 29 30  1  0
 30 31  2  0
 11  7  1  0
 21 14  1  0
 31 22  1  0
 30 25  1  0
  3 32  1  0
  4 33  1  0
  4 34  1  0
  8 35  1  0
  8 36  1  0
  9 37  1  0
  9 38  1  0
 10 39  1  0
 10 40  1  0
 11 41  1  6
 12 42  1  0
 12 43  1  0
 13 44  1  0
 15 45  1  0
 16 46  1  0
 21 47  1  0
 23 48  1  0
 24 49  1  0
 26 50  1  0
 27 51  1  0
 28 52  1  0
 29 53  1  0
M  END
>  <smiles>  (41) 
O=C(NCC(=O)N1CCC[C@H]1CNc1ccc(Cl)c(Cl)c1)c1ccc2ccccc2n1

>  <score_type>  (41) 
oracle

>  <origin>  (41) 
autodockgpu

>  <m_score__min__energy>  (41) 
-9.3599999999999994

>  <m_primary>  (41) 
energy

>  <rmsd>  (41) 
2.0748757544833176

>  <m_score__min__rmsd>  (41) 
2.0748757544833176

>  <meeko>  (41) 
{"free_energy": -8.45, "intermolecular_energy": -10.54, "internal_energy": -2.25, "cluster_size": 16, "cluster_id": 2, "rank_in_cluster": 8}

>  <energy>  (41) 
-7.32

>  <cluster_rmsd>  (41) 
1.0

>  <cluster>  (41) 
5

$$$$

     RDKit          3D

 53 56  0  0  0  0  0  0  0  0999 V2000
  137.8480   70.3880  222.0070 O   0  0  0  0  0  0  0  0  0  0  0  0
  138.5830   70.8920  222.9010 C   0  0  0  0  0  0  0  0  0  0  0  0
  139.0030   72.2500  222.8360 N   0  0  0  0  0  0  0  0  0  0  0  0
  138.6080   73.1200  221.7440 C   0  0  0  0  0  0  0  0  0  0  0  0
  139.0880   74.5090  221.9510 C   0  0  0  0  0  0  0  0  0  0  0  0
  140.3080   74.6880  222.1890 O   0  0  0  0  0  0  0  0  0  0  0  0
  138.1360   75.5610  221.8700 N   0  0  0  0  0  0  0  0  0  0  0  0
  136.9250   75.7390  222.6720 C   0  0  0  0  0  0  0  0  0  0  0  0
  136.5610   77.1870  222.5710 C   0  0  0  0  0  0  0  0  0  0  0  0
  137.8340   77.8000  221.9470 C   0  0  0  0  0  0  0  0  0  0  0  0
  138.1390   76.7110  220.9700 C   0  0  1  0  0  0  0  0  0  0  0  0
  139.3700   76.8230  220.1620 C   0  0  0  0  0  0  0  0  0  0  0  0
  140.5300   76.9030  221.0020 N   0  0  0  0  0  0  0  0  0  0  0  0
  140.9750   78.0240  221.7310 C   0  0  0  0  0  0  0  0  0  0  0  0
  141.4060   77.8760  223.0590 C   0  0  0  0  0  0  0  0  0  0  0  0
  141.8170   78.9530  223.8120 C   0  0  0  0  0  0  0  0  0  0  0  0
  141.8280   80.2330  223.3040 C   0  0  0  0  0  0  0  0  0  0  0  0
  142.3400   81.6280  224.2220 Cl  0  0  0  0  0  0  0  0  0  0  0  0
  141.4100   80.3980  222.0070 C   0  0  0  0  0  0  0  0  0  0  0  0
  141.4010   82.0140  221.3030 Cl  0  0  0  0  0  0  0  0  0  0  0  0
  140.9970   79.3150  221.2540 C   0  0  0  0  0  0  0  0  0  0  0  0
  139.0370   70.0950  224.0490 C   0  0  0  0  0  0  0  0  0  0  0  0
  138.8380   68.7300  224.0670 C   0  0  0  0  0  0  0  0  0  0  0  0
  139.2520   67.9330  225.1330 C   0  0  0  0  0  0  0  0  0  0  0  0
  139.8770   68.5330  226.1980 C   0  0  0  0  0  0  0  0  0  0  0  0
  140.3300   67.8540  227.3080 C   0  0  0  0  0  0  0  0  0  0  0  0
  140.9530   68.5140  228.3490 C   0  0  0  0  0  0  0  0  0  0  0  0
  141.1340   69.8810  228.2940 C   0  0  0  0  0  0  0  0  0  0  0  0
  140.6870   70.5720  227.1920 C   0  0  0  0  0  0  0  0  0  0  0  0
  140.0570   69.9080  226.1390 C   0  0  0  0  0  0  0  0  0  0  0  0
  139.6550   70.6530  225.1110 N   0  0  0  0  0  0  0  0  0  0  0  0
  139.6160   72.6390  223.5980 H   0  0  0  0  0  0  0  0  0  0  0  0
  139.0327   72.7315  220.8066 H   0  0  0  0  0  0  0  0  0  0  0  0
  137.5091   73.1388  221.6994 H   0  0  0  0  0  0  0  0  0  0  0  0
  136.1112   75.1136  222.2763 H   0  0  0  0  0  0  0  0  0  0  0  0
  137.0918   75.4415  223.7178 H   0  0  0  0  0  0  0  0  0  0  0  0
  135.6869   77.3341  221.9197 H   0  0  0  0  0  0  0  0  0  0  0  0
  136.2785   77.6397  223.5329 H   0  0  0  0  0  0  0  0  0  0  0  0
  137.6322   78.7602  221.4497 H   0  0  0  0  0  0  0  0  0  0  0  0
  138.6401   78.0535  222.6512 H   0  0  0  0  0  0  0  0  0  0  0  0
  137.4181   76.6914  220.1394 H   0  0  0  0  0  0  0  0  0  0  0  0
  139.4560   75.9391  219.5129 H   0  0  0  0  0  0  0  0  0  0  0  0
  139.3106   77.7402  219.5577 H   0  0  0  0  0  0  0  0  0  0  0  0
  141.1210   76.0220  221.0860 H   0  0  0  0  0  0  0  0  0  0  0  0
  141.4156   76.8727  223.5100 H   0  0  0  0  0  0  0  0  0  0  0  0
  142.1458   78.7864  224.8484 H   0  0  0  0  0  0  0  0  0  0  0  0
  140.6687   79.4942  220.2195 H   0  0  0  0  0  0  0  0  0  0  0  0
  138.3358   68.2547  223.2115 H   0  0  0  0  0  0  0  0  0  0  0  0
  139.0816   66.8463  225.1212 H   0  0  0  0  0  0  0  0  0  0  0  0
  140.1927   66.7642  227.3662 H   0  0  0  0  0  0  0  0  0  0  0  0
  141.3058   67.9486  229.2242 H   0  0  0  0  0  0  0  0  0  0  0  0
  141.6294   70.4111  229.1208 H   0  0  0  0  0  0  0  0  0  0  0  0
  140.8279   71.6617  227.1402 H   0  0  0  0  0  0  0  0  0  0  0  0
  1  2  2  0
  2  3  1  0
  3  4  1  0
  4  5  1  0
  5  6  2  0
  5  7  1  0
  7  8  1  0
  8  9  1  0
  9 10  1  0
 10 11  1  0
 11 12  1  0
 12 13  1  0
 13 14  1  0
 14 15  2  0
 15 16  1  0
 16 17  2  0
 17 18  1  0
 17 19  1  0
 19 20  1  0
 19 21  2  0
  2 22  1  0
 22 23  2  0
 23 24  1  0
 24 25  2  0
 25 26  1  0
 26 27  2  0
 27 28  1  0
 28 29  2  0
 29 30  1  0
 30 31  2  0
 11  7  1  0
 21 14  1  0
 31 22  1  0
 30 25  1  0
  3 32  1  0
  4 33  1  0
  4 34  1  0
  8 35  1  0
  8 36  1  0
  9 37  1  0
  9 38  1  0
 10 39  1  0
 10 40  1  0
 11 41  1  6
 12 42  1  0
 12 43  1  0
 13 44  1  0
 15 45  1  0
 16 46  1  0
 21 47  1  0
 23 48  1  0
 24 49  1  0
 26 50  1  0
 27 51  1  0
 28 52  1  0
 29 53  1  0
M  END
>  <smiles>  (42) 
O=C(NCC(=O)N1CCC[C@H]1CNc1ccc(Cl)c(Cl)c1)c1ccc2ccccc2n1

>  <score_type>  (42) 
oracle

>  <origin>  (42) 
autodockgpu

>  <m_score__min__energy>  (42) 
-9.3599999999999994

>  <m_primary>  (42) 
energy

>  <rmsd>  (42) 
3.0100895417063205

>  <m_score__min__rmsd>  (42) 
3.0100895417063205

>  <meeko>  (42) 
{"free_energy": -8.82, "intermolecular_energy": -10.91, "internal_energy": -2.44, "cluster_size": 3, "cluster_id": 4, "rank_in_cluster": 1}

>  <energy>  (42) 
-8.01

>  <cluster_rmsd>  (42) 
0.0

>  <cluster>  (42) 
6

$$$$

     RDKit          3D

 53 56  0  0  0  0  0  0  0  0999 V2000
  141.0570   72.1660  221.6560 O   0  0  0  0  0  0  0  0  0  0  0  0
  140.1270   72.2780  222.5020 C   0  0  0  0  0  0  0  0  0  0  0  0
  139.0650   73.2070  222.3160 N   0  0  0  0  0  0  0  0  0  0  0  0
  138.9990   74.0670  221.1490 C   0  0  0  0  0  0  0  0  0  0  0  0
  140.2410   74.8630  220.9870 C   0  0  0  0  0  0  0  0  0  0  0  0
  140.8750   75.1960  222.0180 O   0  0  0  0  0  0  0  0  0  0  0  0
  140.6450   75.2040  219.6670 N   0  0  0  0  0  0  0  0  0  0  0  0
  139.7910   75.4870  218.5130 C   0  0  0  0  0  0  0  0  0  0  0  0
  140.6290   76.2620  217.5460 C   0  0  0  0  0  0  0  0  0  0  0  0
  141.8510   76.6450  218.4100 C   0  0  0  0  0  0  0  0  0  0  0  0
  142.0020   75.3560  219.1500 C   0  0  1  0  0  0  0  0  0  0  0  0
  143.0420   75.2680  220.1940 C   0  0  0  0  0  0  0  0  0  0  0  0
  143.0780   73.9580  220.7760 N   0  0  0  0  0  0  0  0  0  0  0  0
  143.8240   72.8490  220.3270 C   0  0  0  0  0  0  0  0  0  0  0  0
  145.2130   72.9580  220.1530 C   0  0  0  0  0  0  0  0  0  0  0  0
  145.9700   71.9070  219.6850 C   0  0  0  0  0  0  0  0  0  0  0  0
  145.4060   70.6930  219.3620 C   0  0  0  0  0  0  0  0  0  0  0  0
  146.3260   69.3330  218.7650 Cl  0  0  0  0  0  0  0  0  0  0  0  0
  144.0480   70.5670  219.5240 C   0  0  0  0  0  0  0  0  0  0  0  0
  143.2710   69.0370  219.1250 Cl  0  0  0  0  0  0  0  0  0  0  0  0
  143.2920   71.6250  219.9940 C   0  0  0  0  0  0  0  0  0  0  0  0
  140.1020   71.4520  223.7180 C   0  0  0  0  0  0  0  0  0  0  0  0
  139.5660   70.1820  223.6800 C   0  0  0  0  0  0  0  0  0  0  0  0
  139.5210   69.3610  224.8070 C   0  0  0  0  0  0  0  0  0  0  0  0
  140.0260   69.8420  225.9900 C   0  0  0  0  0  0  0  0  0  0  0  0
  140.0370   69.1280  227.1690 C   0  0  0  0  0  0  0  0  0  0  0  0
  140.5600   69.6660  228.3290 C   0  0  0  0  0  0  0  0  0  0  0  0
  141.0860   70.9420  228.3260 C   0  0  0  0  0  0  0  0  0  0  0  0
  141.0820   71.6650  227.1550 C   0  0  0  0  0  0  0  0  0  0  0  0
  140.5540   71.1250  225.9830 C   0  0  0  0  0  0  0  0  0  0  0  0
  140.5890   71.8940  224.8950 N   0  0  0  0  0  0  0  0  0  0  0  0
  138.3050   73.2760  223.0400 H   0  0  0  0  0  0  0  0  0  0  0  0
  138.8548   73.4440  220.2540 H   0  0  0  0  0  0  0  0  0  0  0  0
  138.1582   74.7638  221.2818 H   0  0  0  0  0  0  0  0  0  0  0  0
  139.4499   74.5478  218.0530 H   0  0  0  0  0  0  0  0  0  0  0  0
  138.8965   76.0547  218.8091 H   0  0  0  0  0  0  0  0  0  0  0  0
  140.9257   75.6410  216.6879 H   0  0  0  0  0  0  0  0  0  0  0  0
  140.1106   77.1263  217.1053 H   0  0  0  0  0  0  0  0  0  0  0  0
  142.7351   76.8796  217.7989 H   0  0  0  0  0  0  0  0  0  0  0  0
  141.7369   77.5454  219.0315 H   0  0  0  0  0  0  0  0  0  0  0  0
  142.3768   74.5522  218.4993 H   0  0  0  0  0  0  0  0  0  0  0  0
  144.0216   75.4890  219.7451 H   0  0  0  0  0  0  0  0  0  0  0  0
  142.8067   75.9958  220.9846 H   0  0  0  0  0  0  0  0  0  0  0  0
  142.4770   73.8000  221.6400 H   0  0  0  0  0  0  0  0  0  0  0  0
  145.7100   73.9085  220.3971 H   0  0  0  0  0  0  0  0  0  0  0  0
  147.0553   72.0410  219.5659 H   0  0  0  0  0  0  0  0  0  0  0  0
  142.2075   71.4802  220.1077 H   0  0  0  0  0  0  0  0  0  0  0  0
  139.1606   69.8039  222.7299 H   0  0  0  0  0  0  0  0  0  0  0  0
  139.0904   68.3504  224.7493 H   0  0  0  0  0  0  0  0  0  0  0  0
  139.6212   68.1098  227.1866 H   0  0  0  0  0  0  0  0  0  0  0  0
  140.5572   69.0759  229.2573 H   0  0  0  0  0  0  0  0  0  0  0  0
  141.5028   71.3753  229.2472 H   0  0  0  0  0  0  0  0  0  0  0  0
  141.5008   72.6821  227.1435 H   0  0  0  0  0  0  0  0  0  0  0  0
  1  2  2  0
  2  3  1  0
  3  4  1  0
  4  5  1  0
  5  6  2  0
  5  7  1  0
  7  8  1  0
  8  9  1  0
  9 10  1  0
 10 11  1  0
 11 12  1  0
 12 13  1  0
 13 14  1  0
 14 15  2  0
 15 16  1  0
 16 17  2  0
 17 18  1  0
 17 19  1  0
 19 20  1  0
 19 21  2  0
  2 22  1  0
 22 23  2  0
 23 24  1  0
 24 25  2  0
 25 26  1  0
 26 27  2  0
 27 28  1  0
 28 29  2  0
 29 30  1  0
 30 31  2  0
 11  7  1  0
 21 14  1  0
 31 22  1  0
 30 25  1  0
  3 32  1  0
  4 33  1  0
  4 34  1  0
  8 35  1  0
  8 36  1  0
  9 37  1  0
  9 38  1  0
 10 39  1  0
 10 40  1  0
 11 41  1  6
 12 42  1  0
 12 43  1  0
 13 44  1  0
 15 45  1  0
 16 46  1  0
 21 47  1  0
 23 48  1  0
 24 49  1  0
 26 50  1  0
 27 51  1  0
 28 52  1  0
 29 53  1  0
M  END
>  <smiles>  (43) 
O=C(NCC(=O)N1CCC[C@H]1CNc1ccc(Cl)c(Cl)c1)c1ccc2ccccc2n1

>  <score_type>  (43) 
oracle

>  <origin>  (43) 
autodockgpu

>  <m_score__min__energy>  (43) 
-9.3599999999999994

>  <m_primary>  (43) 
energy

>  <rmsd>  (43) 
4.617997000279875

>  <m_score__min__rmsd>  (43) 
4.617997000279875

>  <meeko>  (43) 
{"free_energy": -7.92, "intermolecular_energy": -10.0, "internal_energy": -2.93, "cluster_size": 3, "cluster_id": 1, "rank_in_cluster": 3}

>  <energy>  (43) 
-7.94

>  <cluster_rmsd>  (43) 
1.33

>  <cluster>  (43) 
6

$$$$

     RDKit          3D

 53 56  0  0  0  0  0  0  0  0999 V2000
  140.3910   74.1260  222.0290 O   0  0  0  0  0  0  0  0  0  0  0  0
  139.5140   75.0270  221.9180 C   0  0  0  0  0  0  0  0  0  0  0  0
  138.2370   74.7530  221.3510 N   0  0  0  0  0  0  0  0  0  0  0  0
  137.8820   73.4290  220.8750 C   0  0  0  0  0  0  0  0  0  0  0  0
  137.3460   72.5810  221.9690 C   0  0  0  0  0  0  0  0  0  0  0  0
  136.7370   73.1420  222.9130 O   0  0  0  0  0  0  0  0  0  0  0  0
  137.5530   71.1780  221.8850 N   0  0  0  0  0  0  0  0  0  0  0  0
  136.5700   70.1430  221.5600 C   0  0  0  0  0  0  0  0  0  0  0  0
  137.3490   68.9460  221.1110 C   0  0  0  0  0  0  0  0  0  0  0  0
  138.7620   69.5360  220.9080 C   0  0  0  0  0  0  0  0  0  0  0  0
  138.7920   70.4350  222.1010 C   0  0  1  0  0  0  0  0  0  0  0  0
  139.9720   71.3020  222.2920 C   0  0  0  0  0  0  0  0  0  0  0  0
  140.0080   71.8350  223.6220 N   0  0  0  0  0  0  0  0  0  0  0  0
  140.2260   71.1210  224.8180 C   0  0  0  0  0  0  0  0  0  0  0  0
  140.8110   71.7580  225.9240 C   0  0  0  0  0  0  0  0  0  0  0  0
  141.0690   71.0830  227.0970 C   0  0  0  0  0  0  0  0  0  0  0  0
  140.7660   69.7490  227.2480 C   0  0  0  0  0  0  0  0  0  0  0  0
  141.0750   68.8540  228.7170 Cl  0  0  0  0  0  0  0  0  0  0  0  0
  140.1930   69.1080  226.1780 C   0  0  0  0  0  0  0  0  0  0  0  0
  139.7850   67.3990  226.3140 Cl  0  0  0  0  0  0  0  0  0  0  0  0
  139.9370   69.7880  225.0020 C   0  0  0  0  0  0  0  0  0  0  0  0
  139.7750   76.4010  222.3700 C   0  0  0  0  0  0  0  0  0  0  0  0
  141.0680   76.8200  222.6000 C   0  0  0  0  0  0  0  0  0  0  0  0
  141.3650   78.1140  223.0290 C   0  0  0  0  0  0  0  0  0  0  0  0
  140.3290   78.9930  223.2280 C   0  0  0  0  0  0  0  0  0  0  0  0
  140.4940   80.2950  223.6500 C   0  0  0  0  0  0  0  0  0  0  0  0
  139.4120   81.1330  223.8320 C   0  0  0  0  0  0  0  0  0  0  0  0
  138.1320   80.6760  223.5910 C   0  0  0  0  0  0  0  0  0  0  0  0
  137.9530   79.3790  223.1690 C   0  0  0  0  0  0  0  0  0  0  0  0
  139.0440   78.5300  222.9840 C   0  0  0  0  0  0  0  0  0  0  0  0
  138.7800   77.2900  222.5750 N   0  0  0  0  0  0  0  0  0  0  0  0
  137.5290   75.5270  221.2730 H   0  0  0  0  0  0  0  0  0  0  0  0
  137.1172   73.5249  220.0902 H   0  0  0  0  0  0  0  0  0  0  0  0
  138.7905   72.9496  220.4815 H   0  0  0  0  0  0  0  0  0  0  0  0
  135.9705   69.8954  222.4484 H   0  0  0  0  0  0  0  0  0  0  0  0
  135.8763   70.4837  220.7773 H   0  0  0  0  0  0  0  0  0  0  0  0
  137.3515   68.1598  221.8803 H   0  0  0  0  0  0  0  0  0  0  0  0
  136.9382   68.4626  220.2123 H   0  0  0  0  0  0  0  0  0  0  0  0
  139.5446   68.7641  220.9494 H   0  0  0  0  0  0  0  0  0  0  0  0
  138.9458   70.0196  219.9373 H   0  0  0  0  0  0  0  0  0  0  0  0
  138.8715   69.8673  223.0398 H   0  0  0  0  0  0  0  0  0  0  0  0
  140.8838   70.7124  222.1160 H   0  0  0  0  0  0  0  0  0  0  0  0
  139.9108   72.1388  221.5807 H   0  0  0  0  0  0  0  0  0  0  0  0
  139.8550   72.8830  223.7230 H   0  0  0  0  0  0  0  0  0  0  0  0
  141.0703   72.8246  225.8520 H   0  0  0  0  0  0  0  0  0  0  0  0
  141.5298   71.6252  227.9359 H   0  0  0  0  0  0  0  0  0  0  0  0
  139.4781   69.2346  224.1694 H   0  0  0  0  0  0  0  0  0  0  0  0
  141.8932   76.1104  222.4400 H   0  0  0  0  0  0  0  0  0  0  0  0
  142.4061   78.4232  223.2040 H   0  0  0  0  0  0  0  0  0  0  0  0
  141.5080   80.6738  223.8456 H   0  0  0  0  0  0  0  0  0  0  0  0
  139.5704   82.1677  224.1700 H   0  0  0  0  0  0  0  0  0  0  0  0
  137.2668   81.3400  223.7345 H   0  0  0  0  0  0  0  0  0  0  0  0
  136.9363   79.0066  222.9750 H   0  0  0  0  0  0  0  0  0  0  0  0
  1  2  2  0
  2  3  1  0
  3  4  1  0
  4  5  1  0
  5  6  2  0
  5  7  1  0
  7  8  1  0
  8  9  1  0
  9 10  1  0
 10 11  1  0
 11 12  1  0
 12 13  1  0
 13 14  1  0
 14 15  2  0
 15 16  1  0
 16 17  2  0
 17 18  1  0
 17 19  1  0
 19 20  1  0
 19 21  2  0
  2 22  1  0
 22 23  2  0
 23 24  1  0
 24 25  2  0
 25 26  1  0
 26 27  2  0
 27 28  1  0
 28 29  2  0
 29 30  1  0
 30 31  2  0
 11  7  1  0
 21 14  1  0
 31 22  1  0
 30 25  1  0
  3 32  1  0
  4 33  1  0
  4 34  1  0
  8 35  1  0
  8 36  1  0
  9 37  1  0
  9 38  1  0
 10 39  1  0
 10 40  1  0
 11 41  1  1
 12 42  1  0
 12 43  1  0
 13 44  1  0
 15 45  1  0
 16 46  1  0
 21 47  1  0
 23 48  1  0
 24 49  1  0
 26 50  1  0
 27 51  1  0
 28 52  1  0
 29 53  1  0
M  END
>  <smiles>  (44) 
O=C(NCC(=O)N1CCC[C@H]1CNc1ccc(Cl)c(Cl)c1)c1ccc2ccccc2n1

>  <score_type>  (44) 
oracle

>  <origin>  (44) 
autodockgpu

>  <m_score__min__energy>  (44) 
-9.3599999999999994

>  <m_primary>  (44) 
energy

>  <rmsd>  (44) 
8.76231183882936

>  <m_score__min__rmsd>  (44) 
8.76231183882936

>  <meeko>  (44) 
{"free_energy": -8.03, "intermolecular_energy": -10.12, "internal_energy": -2.6, "cluster_size": 17, "cluster_id": 3, "rank_in_cluster": 15}

>  <energy>  (44) 
-7.85

>  <cluster_rmsd>  (44) 
1.04

>  <cluster>  (44) 
6

$$$$

     RDKit          3D

 53 56  0  0  0  0  0  0  0  0999 V2000
  137.2640   76.4880  222.2780 O   0  0  0  0  0  0  0  0  0  0  0  0
  138.5240   76.5510  222.2980 C   0  0  0  0  0  0  0  0  0  0  0  0
  139.3280   75.4350  221.9340 N   0  0  0  0  0  0  0  0  0  0  0  0
  138.7410   74.1730  221.5230 C   0  0  0  0  0  0  0  0  0  0  0  0
  139.7010   73.0510  221.6670 C   0  0  0  0  0  0  0  0  0  0  0  0
  140.7380   73.2390  222.3480 O   0  0  0  0  0  0  0  0  0  0  0  0
  139.3910   71.8230  221.0210 N   0  0  0  0  0  0  0  0  0  0  0  0
  139.9530   71.2960  219.7770 C   0  0  0  0  0  0  0  0  0  0  0  0
  139.7060   69.8200  219.7930 C   0  0  0  0  0  0  0  0  0  0  0  0
  139.2840   69.5770  221.2590 C   0  0  0  0  0  0  0  0  0  0  0  0
  138.4410   70.7970  221.4440 C   0  0  1  0  0  0  0  0  0  0  0  0
  137.8600   71.0480  222.7780 C   0  0  0  0  0  0  0  0  0  0  0  0
  138.8640   71.4910  223.7010 N   0  0  0  0  0  0  0  0  0  0  0  0
  139.3920   70.7720  224.7930 C   0  0  0  0  0  0  0  0  0  0  0  0
  139.2990   69.3710  224.8250 C   0  0  0  0  0  0  0  0  0  0  0  0
  139.7740   68.6380  225.8890 C   0  0  0  0  0  0  0  0  0  0  0  0
  140.3640   69.2380  226.9790 C   0  0  0  0  0  0  0  0  0  0  0  0
  140.9790   68.3480  228.3510 Cl  0  0  0  0  0  0  0  0  0  0  0  0
  140.4630   70.6070  226.9670 C   0  0  0  0  0  0  0  0  0  0  0  0
  141.2080   71.4300  228.3350 Cl  0  0  0  0  0  0  0  0  0  0  0  0
  139.9850   71.3400  225.8970 C   0  0  0  0  0  0  0  0  0  0  0  0
  139.2170   77.7840  222.7000 C   0  0  0  0  0  0  0  0  0  0  0  0
  138.4910   78.8900  223.0880 C   0  0  0  0  0  0  0  0  0  0  0  0
  139.1030   80.0810  223.4770 C   0  0  0  0  0  0  0  0  0  0  0  0
  140.4750   80.1470  223.4710 C   0  0  0  0  0  0  0  0  0  0  0  0
  141.1940   81.2660  223.8330 C   0  0  0  0  0  0  0  0  0  0  0  0
  142.5750   81.2710  223.8050 C   0  0  0  0  0  0  0  0  0  0  0  0
  143.2650   80.1430  223.4110 C   0  0  0  0  0  0  0  0  0  0  0  0
  142.5600   79.0200  223.0460 C   0  0  0  0  0  0  0  0  0  0  0  0
  141.1660   79.0110  223.0730 C   0  0  0  0  0  0  0  0  0  0  0  0
  140.5620   77.8820  222.7040 N   0  0  0  0  0  0  0  0  0  0  0  0
  140.3760   75.5210  221.9610 H   0  0  0  0  0  0  0  0  0  0  0  0
  137.8584   73.9698  222.1472 H   0  0  0  0  0  0  0  0  0  0  0  0
  138.4621   74.2529  220.4619 H   0  0  0  0  0  0  0  0  0  0  0  0
  139.4555   71.7555  218.9102 H   0  0  0  0  0  0  0  0  0  0  0  0
  141.0272   71.5195  219.6988 H   0  0  0  0  0  0  0  0  0  0  0  0
  138.9023   69.5423  219.0951 H   0  0  0  0  0  0  0  0  0  0  0  0
  140.5746   69.2230  219.4783 H   0  0  0  0  0  0  0  0  0  0  0  0
  138.7044   68.6495  221.3764 H   0  0  0  0  0  0  0  0  0  0  0  0
  140.1045   69.4461  221.9798 H   0  0  0  0  0  0  0  0  0  0  0  0
  137.4981   70.7327  220.8811 H   0  0  0  0  0  0  0  0  0  0  0  0
  137.0835   71.8224  222.6922 H   0  0  0  0  0  0  0  0  0  0  0  0
  137.4280   70.1090  223.1543 H   0  0  0  0  0  0  0  0  0  0  0  0
  139.2570   72.4690  223.5500 H   0  0  0  0  0  0  0  0  0  0  0  0
  138.8344   68.8456  223.9776 H   0  0  0  0  0  0  0  0  0  0  0  0
  139.6796   67.5423  225.8679 H   0  0  0  0  0  0  0  0  0  0  0  0
  140.0839   72.4350  225.9299 H   0  0  0  0  0  0  0  0  0  0  0  0
  137.3926   78.8309  223.0908 H   0  0  0  0  0  0  0  0  0  0  0  0
  138.5001   80.9490  223.7821 H   0  0  0  0  0  0  0  0  0  0  0  0
  140.6576   82.1724  224.1503 H   0  0  0  0  0  0  0  0  0  0  0  0
  143.1262   82.1768  224.0976 H   0  0  0  0  0  0  0  0  0  0  0  0
  144.3648   80.1419  223.3891 H   0  0  0  0  0  0  0  0  0  0  0  0
  143.1028   78.1174  222.7287 H   0  0  0  0  0  0  0  0  0  0  0  0
  1  2  2  0
  2  3  1  0
  3  4  1  0
  4  5  1  0
  5  6  2  0
  5  7  1  0
  7  8  1  0
  8  9  1  0
  9 10  1  0
 10 11  1  0
 11 12  1  0
 12 13  1  0
 13 14  1  0
 14 15  2  0
 15 16  1  0
 16 17  2  0
 17 18  1  0
 17 19  1  0
 19 20  1  0
 19 21  2  0
  2 22  1  0
 22 23  2  0
 23 24  1  0
 24 25  2  0
 25 26  1  0
 26 27  2  0
 27 28  1  0
 28 29  2  0
 29 30  1  0
 30 31  2  0
 11  7  1  0
 21 14  1  0
 31 22  1  0
 30 25  1  0
  3 32  1  0
  4 33  1  0
  4 34  1  0
  8 35  1  0
  8 36  1  0
  9 37  1  0
  9 38  1  0
 10 39  1  0
 10 40  1  0
 11 41  1  6
 12 42  1  0
 12 43  1  0
 13 44  1  0
 15 45  1  0
 16 46  1  0
 21 47  1  0
 23 48  1  0
 24 49  1  0
 26 50  1  0
 27 51  1  0
 28 52  1  0
 29 53  1  0
M  END
>  <smiles>  (45) 
O=C(NCC(=O)N1CCC[C@H]1CNc1ccc(Cl)c(Cl)c1)c1ccc2ccccc2n1

>  <score_type>  (45) 
oracle

>  <origin>  (45) 
autodockgpu

>  <m_score__min__energy>  (45) 
-9.3599999999999994

>  <m_primary>  (45) 
energy

>  <rmsd>  (45) 
8.953586642849922

>  <m_score__min__rmsd>  (45) 
8.953586642849922

>  <meeko>  (45) 
{"free_energy": -8.93, "intermolecular_energy": -11.02, "internal_energy": -2.41, "cluster_size": 17, "cluster_id": 3, "rank_in_cluster": 1}

>  <energy>  (45) 
-7.78

>  <cluster_rmsd>  (45) 
0.0

>  <cluster>  (45) 
7

$$$$

     RDKit          3D

 53 56  0  0  0  0  0  0  0  0999 V2000
  139.1850   70.0160  221.3910 O   0  0  0  0  0  0  0  0  0  0  0  0
  139.3950   70.7180  222.4180 C   0  0  0  0  0  0  0  0  0  0  0  0
  139.4840   72.1360  222.3410 N   0  0  0  0  0  0  0  0  0  0  0  0
  139.3380   72.8420  221.0810 C   0  0  0  0  0  0  0  0  0  0  0  0
  139.5540   74.3010  221.2450 C   0  0  0  0  0  0  0  0  0  0  0  0
  139.9190   74.7270  222.3680 O   0  0  0  0  0  0  0  0  0  0  0  0
  139.3330   75.1370  220.1160 N   0  0  0  0  0  0  0  0  0  0  0  0
  138.0840   75.3430  219.3830 C   0  0  0  0  0  0  0  0  0  0  0  0
  138.2340   76.6380  218.6470 C   0  0  0  0  0  0  0  0  0  0  0  0
  139.4930   77.2410  219.3060 C   0  0  0  0  0  0  0  0  0  0  0  0
  140.2970   75.9870  219.4220 C   0  0  1  0  0  0  0  0  0  0  0  0
  141.6100   76.0580  220.0940 C   0  0  0  0  0  0  0  0  0  0  0  0
  141.4570   76.3600  221.4880 N   0  0  0  0  0  0  0  0  0  0  0  0
  140.8380   77.4960  222.0480 C   0  0  0  0  0  0  0  0  0  0  0  0
  139.4660   77.4760  222.3460 C   0  0  0  0  0  0  0  0  0  0  0  0
  138.8210   78.5780  222.8630 C   0  0  0  0  0  0  0  0  0  0  0  0
  139.4860   79.7570  223.1150 C   0  0  0  0  0  0  0  0  0  0  0  0
  138.7080   81.1780  223.7700 Cl  0  0  0  0  0  0  0  0  0  0  0  0
  140.8280   79.7960  222.8300 C   0  0  0  0  0  0  0  0  0  0  0  0
  141.7310   81.2790  223.1320 Cl  0  0  0  0  0  0  0  0  0  0  0  0
  141.4720   78.6890  222.3110 C   0  0  0  0  0  0  0  0  0  0  0  0
  139.5570   70.1000  223.7420 C   0  0  0  0  0  0  0  0  0  0  0  0
  139.1990   68.7820  223.9390 C   0  0  0  0  0  0  0  0  0  0  0  0
  139.3350   68.1530  225.1760 C   0  0  0  0  0  0  0  0  0  0  0  0
  139.8410   68.8750  226.2290 C   0  0  0  0  0  0  0  0  0  0  0  0
  140.0210   68.3650  227.4960 C   0  0  0  0  0  0  0  0  0  0  0  0
  140.5360   69.1420  228.5160 C   0  0  0  0  0  0  0  0  0  0  0  0
  140.8820   70.4570  228.2790 C   0  0  0  0  0  0  0  0  0  0  0  0
  140.7070   70.9790  227.0180 C   0  0  0  0  0  0  0  0  0  0  0  0
  140.1880   70.1970  225.9860 C   0  0  0  0  0  0  0  0  0  0  0  0
  140.0510   70.7810  224.7970 N   0  0  0  0  0  0  0  0  0  0  0  0
  139.6600   72.6930  223.2160 H   0  0  0  0  0  0  0  0  0  0  0  0
  140.0750   72.4502  220.3646 H   0  0  0  0  0  0  0  0  0  0  0  0
  138.3127   72.6846  220.7148 H   0  0  0  0  0  0  0  0  0  0  0  0
  137.9192   74.5190  218.6732 H   0  0  0  0  0  0  0  0  0  0  0  0
  137.2213   75.3697  220.0650 H   0  0  0  0  0  0  0  0  0  0  0  0
  138.3882   76.4701  217.5709 H   0  0  0  0  0  0  0  0  0  0  0  0
  137.3482   77.2872  218.7089 H   0  0  0  0  0  0  0  0  0  0  0  0
  139.9804   77.9891  218.6635 H   0  0  0  0  0  0  0  0  0  0  0  0
  139.3267   77.7929  220.2429 H   0  0  0  0  0  0  0  0  0  0  0  0
  140.6522   75.6359  218.4419 H   0  0  0  0  0  0  0  0  0  0  0  0
  142.1207   75.0894  219.9895 H   0  0  0  0  0  0  0  0  0  0  0  0
  142.2018   76.8576  219.6245 H   0  0  0  0  0  0  0  0  0  0  0  0
  141.8530   75.6530  222.1780 H   0  0  0  0  0  0  0  0  0  0  0  0
  138.8912   76.5564  222.1618 H   0  0  0  0  0  0  0  0  0  0  0  0
  137.7446   78.5142  223.0806 H   0  0  0  0  0  0  0  0  0  0  0  0
  142.5482   78.7653  222.0967 H   0  0  0  0  0  0  0  0  0  0  0  0
  138.7930   68.2088  223.0925 H   0  0  0  0  0  0  0  0  0  0  0  0
  139.0431   67.1004  225.3057 H   0  0  0  0  0  0  0  0  0  0  0  0
  139.7494   67.3187  227.6997 H   0  0  0  0  0  0  0  0  0  0  0  0
  140.6705   68.7115  229.5193 H   0  0  0  0  0  0  0  0  0  0  0  0
  141.2923   71.0796  229.0877 H   0  0  0  0  0  0  0  0  0  0  0  0
  140.9798   72.0263  226.8212 H   0  0  0  0  0  0  0  0  0  0  0  0
  1  2  2  0
  2  3  1  0
  3  4  1  0
  4  5  1  0
  5  6  2  0
  5  7  1  0
  7  8  1  0
  8  9  1  0
  9 10  1  0
 10 11  1  0
 11 12  1  0
 12 13  1  0
 13 14  1  0
 14 15  2  0
 15 16  1  0
 16 17  2  0
 17 18  1  0
 17 19  1  0
 19 20  1  0
 19 21  2  0
  2 22  1  0
 22 23  2  0
 23 24  1  0
 24 25  2  0
 25 26  1  0
 26 27  2  0
 27 28  1  0
 28 29  2  0
 29 30  1  0
 30 31  2  0
 11  7  1  0
 21 14  1  0
 31 22  1  0
 30 25  1  0
  3 32  1  0
  4 33  1  0
  4 34  1  0
  8 35  1  0
  8 36  1  0
  9 37  1  0
  9 38  1  0
 10 39  1  0
 10 40  1  0
 11 41  1  6
 12 42  1  0
 12 43  1  0
 13 44  1  0
 15 45  1  0
 16 46  1  0
 21 47  1  0
 23 48  1  0
 24 49  1  0
 26 50  1  0
 27 51  1  0
 28 52  1  0
 29 53  1  0
M  END
>  <smiles>  (46) 
O=C(NCC(=O)N1CCC[C@H]1CNc1ccc(Cl)c(Cl)c1)c1ccc2ccccc2n1

>  <score_type>  (46) 
oracle

>  <origin>  (46) 
autodockgpu

>  <m_score__min__energy>  (46) 
-9.3599999999999994

>  <m_primary>  (46) 
energy

>  <rmsd>  (46) 
1.983104449208142

>  <m_score__min__rmsd>  (46) 
1.983104449208142

>  <meeko>  (46) 
{"free_energy": -8.29, "intermolecular_energy": -10.37, "internal_energy": -2.41, "cluster_size": 16, "cluster_id": 2, "rank_in_cluster": 11}

>  <energy>  (46) 
-7.55

>  <cluster_rmsd>  (46) 
0.0

>  <cluster>  (46) 
8

$$$$

     RDKit          3D

 53 56  0  0  0  0  0  0  0  0999 V2000
  137.6810   76.4770  221.6260 O   0  0  0  0  0  0  0  0  0  0  0  0
  138.9250   76.5780  221.8170 C   0  0  0  0  0  0  0  0  0  0  0  0
  139.8100   75.5040  221.5200 N   0  0  0  0  0  0  0  0  0  0  0  0
  139.3280   74.2440  220.9850 C   0  0  0  0  0  0  0  0  0  0  0  0
  140.1870   73.1090  221.4050 C   0  0  0  0  0  0  0  0  0  0  0  0
  141.2290   73.3600  222.0590 O   0  0  0  0  0  0  0  0  0  0  0  0
  139.7800   71.7970  221.0400 N   0  0  0  0  0  0  0  0  0  0  0  0
  140.2670   70.9850  219.9240 C   0  0  0  0  0  0  0  0  0  0  0  0
  139.9300   69.5650  220.2560 C   0  0  0  0  0  0  0  0  0  0  0  0
  139.5440   69.6630  221.7480 C   0  0  0  0  0  0  0  0  0  0  0  0
  138.7840   70.9490  221.6890 C   0  0  1  0  0  0  0  0  0  0  0  0
  138.2650   71.5120  222.9510 C   0  0  0  0  0  0  0  0  0  0  0  0
  139.3370   71.8450  223.8440 N   0  0  0  0  0  0  0  0  0  0  0  0
  139.7670   71.1100  224.9670 C   0  0  0  0  0  0  0  0  0  0  0  0
  140.5510   71.7260  225.9550 C   0  0  0  0  0  0  0  0  0  0  0  0
  141.0160   71.0310  227.0500 C   0  0  0  0  0  0  0  0  0  0  0  0
  140.7380   69.6950  227.2330 C   0  0  0  0  0  0  0  0  0  0  0  0
  141.3070   68.7740  228.6050 Cl  0  0  0  0  0  0  0  0  0  0  0  0
  139.9720   69.0750  226.2780 C   0  0  0  0  0  0  0  0  0  0  0  0
  139.5850   67.3650  226.4600 Cl  0  0  0  0  0  0  0  0  0  0  0  0
  139.5070   69.7760  225.1800 C   0  0  0  0  0  0  0  0  0  0  0  0
  139.5130   77.8130  222.3560 C   0  0  0  0  0  0  0  0  0  0  0  0
  138.7030   78.7750  222.9230 C   0  0  0  0  0  0  0  0  0  0  0  0
  139.2150   79.9620  223.4480 C   0  0  0  0  0  0  0  0  0  0  0  0
  140.5710   80.1730  223.3920 C   0  0  0  0  0  0  0  0  0  0  0  0
  141.1940   81.3030  223.8740 C   0  0  0  0  0  0  0  0  0  0  0  0
  142.5640   81.4590  223.7900 C   0  0  0  0  0  0  0  0  0  0  0  0
  143.3400   80.4740  223.2140 C   0  0  0  0  0  0  0  0  0  0  0  0
  142.7310   79.3400  222.7280 C   0  0  0  0  0  0  0  0  0  0  0  0
  141.3480   79.1800  222.8120 C   0  0  0  0  0  0  0  0  0  0  0  0
  140.8400   78.0520  222.3160 N   0  0  0  0  0  0  0  0  0  0  0  0
  140.8410   75.6210  221.6920 H   0  0  0  0  0  0  0  0  0  0  0  0
  138.3041   74.0703  221.3476 H   0  0  0  0  0  0  0  0  0  0  0  0
  139.3502   74.3050  219.8869 H   0  0  0  0  0  0  0  0  0  0  0  0
  139.7702   71.2855  218.9897 H   0  0  0  0  0  0  0  0  0  0  0  0
  141.3497   71.1145  219.7792 H   0  0  0  0  0  0  0  0  0  0  0  0
  139.0875   69.2024  219.6488 H   0  0  0  0  0  0  0  0  0  0  0  0
  140.7489   68.8581  220.0568 H   0  0  0  0  0  0  0  0  0  0  0  0
  138.9129   68.8216  222.0701 H   0  0  0  0  0  0  0  0  0  0  0  0
  140.3791   69.6310  222.4633 H   0  0  0  0  0  0  0  0  0  0  0  0
  137.8201   70.8319  221.1720 H   0  0  0  0  0  0  0  0  0  0  0  0
  137.6865   72.4208  222.7286 H   0  0  0  0  0  0  0  0  0  0  0  0
  137.6268   70.7581  223.4350 H   0  0  0  0  0  0  0  0  0  0  0  0
  139.8680   72.7450  223.6410 H   0  0  0  0  0  0  0  0  0  0  0  0
  140.8009   72.7923  225.8523 H   0  0  0  0  0  0  0  0  0  0  0  0
  141.6260   71.5579  227.7985 H   0  0  0  0  0  0  0  0  0  0  0  0
  138.8975   69.2388  224.4384 H   0  0  0  0  0  0  0  0  0  0  0  0
  137.6176   78.6005  222.9625 H   0  0  0  0  0  0  0  0  0  0  0  0
  138.5474   80.7122  223.8968 H   0  0  0  0  0  0  0  0  0  0  0  0
  140.5884   82.0972  224.3351 H   0  0  0  0  0  0  0  0  0  0  0  0
  143.0375   82.3707  224.1832 H   0  0  0  0  0  0  0  0  0  0  0  0
  144.4312   80.5939  223.1443 H   0  0  0  0  0  0  0  0  0  0  0  0
  143.3423   78.5499  222.2676 H   0  0  0  0  0  0  0  0  0  0  0  0
  1  2  2  0
  2  3  1  0
  3  4  1  0
  4  5  1  0
  5  6  2  0
  5  7  1  0
  7  8  1  0
  8  9  1  0
  9 10  1  0
 10 11  1  0
 11 12  1  0
 12 13  1  0
 13 14  1  0
 14 15  2  0
 15 16  1  0
 16 17  2  0
 17 18  1  0
 17 19  1  0
 19 20  1  0
 19 21  2  0
  2 22  1  0
 22 23  2  0
 23 24  1  0
 24 25  2  0
 25 26  1  0
 26 27  2  0
 27 28  1  0
 28 29  2  0
 29 30  1  0
 30 31  2  0
 11  7  1  0
 21 14  1  0
 31 22  1  0
 30 25  1  0
  3 32  1  0
  4 33  1  0
  4 34  1  0
  8 35  1  0
  8 36  1  0
  9 37  1  0
  9 38  1  0
 10 39  1  0
 10 40  1  0
 11 41  1  6
 12 42  1  0
 12 43  1  0
 13 44  1  0
 15 45  1  0
 16 46  1  0
 21 47  1  0
 23 48  1  0
 24 49  1  0
 26 50  1  0
 27 51  1  0
 28 52  1  0
 29 53  1  0
M  END
>  <smiles>  (47) 
O=C(NCC(=O)N1CCC[C@H]1CNc1ccc(Cl)c(Cl)c1)c1ccc2ccccc2n1

>  <score_type>  (47) 
oracle

>  <origin>  (47) 
autodockgpu

>  <m_score__min__energy>  (47) 
-9.3599999999999994

>  <m_primary>  (47) 
energy

>  <rmsd>  (47) 
8.94993863917085

>  <m_score__min__rmsd>  (47) 
8.94993863917085

>  <meeko>  (47) 
{"free_energy": -8.45, "intermolecular_energy": -10.54, "internal_energy": -2.74, "cluster_size": 17, "cluster_id": 3, "rank_in_cluster": 11}

>  <energy>  (47) 
-7.31

>  <cluster_rmsd>  (47) 
0.44

>  <cluster>  (47) 
8

$$$$

     RDKit          3D

 53 56  0  0  0  0  0  0  0  0999 V2000
  135.7690   76.5800  222.1340 O   0  0  0  0  0  0  0  0  0  0  0  0
  136.9770   76.3640  222.4250 C   0  0  0  0  0  0  0  0  0  0  0  0
  137.4950   75.0410  222.5110 N   0  0  0  0  0  0  0  0  0  0  0  0
  136.6600   73.8790  222.2690 C   0  0  0  0  0  0  0  0  0  0  0  0
  137.3200   72.6300  222.7230 C   0  0  0  0  0  0  0  0  0  0  0  0
  138.5360   72.4670  222.4550 O   0  0  0  0  0  0  0  0  0  0  0  0
  136.5350   71.6840  223.4370 N   0  0  0  0  0  0  0  0  0  0  0  0
  135.3460   71.9390  224.2530 C   0  0  0  0  0  0  0  0  0  0  0  0
  134.6190   70.6350  224.3580 C   0  0  0  0  0  0  0  0  0  0  0  0
  135.3220   69.7830  223.2800 C   0  0  0  0  0  0  0  0  0  0  0  0
  136.7240   70.2390  223.5260 C   0  0  1  0  0  0  0  0  0  0  0  0
  137.7900   69.7300  222.6410 C   0  0  0  0  0  0  0  0  0  0  0  0
  139.0870   70.0020  223.1890 N   0  0  0  0  0  0  0  0  0  0  0  0
  139.5470   69.6800  224.4820 C   0  0  0  0  0  0  0  0  0  0  0  0
  139.5040   68.3530  224.9360 C   0  0  0  0  0  0  0  0  0  0  0  0
  139.9150   68.0060  226.2040 C   0  0  0  0  0  0  0  0  0  0  0  0
  140.3890   68.9430  227.0950 C   0  0  0  0  0  0  0  0  0  0  0  0
  140.9200   68.5490  228.7120 Cl  0  0  0  0  0  0  0  0  0  0  0  0
  140.4390   70.2470  226.6690 C   0  0  0  0  0  0  0  0  0  0  0  0
  141.0370   71.4890  227.7670 Cl  0  0  0  0  0  0  0  0  0  0  0  0
  140.0260   70.5910  225.3960 C   0  0  0  0  0  0  0  0  0  0  0  0
  137.9050   77.4740  222.6880 C   0  0  0  0  0  0  0  0  0  0  0  0
  137.4190   78.7450  222.9100 C   0  0  0  0  0  0  0  0  0  0  0  0
  138.2600   79.8290  223.1640 C   0  0  0  0  0  0  0  0  0  0  0  0
  139.6160   79.6150  223.1920 C   0  0  0  0  0  0  0  0  0  0  0  0
  140.5460   80.6030  223.4310 C   0  0  0  0  0  0  0  0  0  0  0  0
  141.8990   80.3260  223.4470 C   0  0  0  0  0  0  0  0  0  0  0  0
  142.3470   79.0410  223.2200 C   0  0  0  0  0  0  0  0  0  0  0  0
  141.4290   78.0440  222.9800 C   0  0  0  0  0  0  0  0  0  0  0  0
  140.0620   78.3210  222.9630 C   0  0  0  0  0  0  0  0  0  0  0  0
  139.2430   77.2980  222.7220 N   0  0  0  0  0  0  0  0  0  0  0  0
  138.5070   74.8960  222.7560 H   0  0  0  0  0  0  0  0  0  0  0  0
  135.7121   74.0005  222.8137 H   0  0  0  0  0  0  0  0  0  0  0  0
  136.4828   73.8013  221.1862 H   0  0  0  0  0  0  0  0  0  0  0  0
  135.6390   72.2929  225.2524 H   0  0  0  0  0  0  0  0  0  0  0  0
  134.7106   72.7149  223.8011 H   0  0  0  0  0  0  0  0  0  0  0  0
  134.7379   70.1913  225.3575 H   0  0  0  0  0  0  0  0  0  0  0  0
  133.5321   70.7221  224.2130 H   0  0  0  0  0  0  0  0  0  0  0  0
  135.1988   68.7044  223.4572 H   0  0  0  0  0  0  0  0  0  0  0  0
  134.9502   69.9069  222.2522 H   0  0  0  0  0  0  0  0  0  0  0  0
  137.1209   69.8484  224.4746 H   0  0  0  0  0  0  0  0  0  0  0  0
  137.6704   68.6430  222.5224 H   0  0  0  0  0  0  0  0  0  0  0  0
  137.7081   70.2355  221.6675 H   0  0  0  0  0  0  0  0  0  0  0  0
  139.7800   70.5010  222.5540 H   0  0  0  0  0  0  0  0  0  0  0  0
  139.1319   67.5684  224.2608 H   0  0  0  0  0  0  0  0  0  0  0  0
  139.8632   66.9517  226.5134 H   0  0  0  0  0  0  0  0  0  0  0  0
  140.0830   71.6482  225.0974 H   0  0  0  0  0  0  0  0  0  0  0  0
  136.3317   78.9100  222.8861 H   0  0  0  0  0  0  0  0  0  0  0  0
  137.8457   80.8331  223.3380 H   0  0  0  0  0  0  0  0  0  0  0  0
  140.2042   81.6327  223.6126 H   0  0  0  0  0  0  0  0  0  0  0  0
  142.6215   81.1323  223.6413 H   0  0  0  0  0  0  0  0  0  0  0  0
  143.4237   78.8162  223.2307 H   0  0  0  0  0  0  0  0  0  0  0  0
  141.7775   77.0164  222.7994 H   0  0  0  0  0  0  0  0  0  0  0  0
  1  2  2  0
  2  3  1  0
  3  4  1  0
  4  5  1  0
  5  6  2  0
  5  7  1  0
  7  8  1  0
  8  9  1  0
  9 10  1  0
 10 11  1  0
 11 12  1  0
 12 13  1  0
 13 14  1  0
 14 15  2  0
 15 16  1  0
 16 17  2  0
 17 18  1  0
 17 19  1  0
 19 20  1  0
 19 21  2  0
  2 22  1  0
 22 23  2  0
 23 24  1  0
 24 25  2  0
 25 26  1  0
 26 27  2  0
 27 28  1  0
 28 29  2  0
 29 30  1  0
 30 31  2  0
 11  7  1  0
 21 14  1  0
 31 22  1  0
 30 25  1  0
  3 32  1  0
  4 33  1  0
  4 34  1  0
  8 35  1  0
  8 36  1  0
  9 37  1  0
  9 38  1  0
 10 39  1  0
 10 40  1  0
 11 41  1  1
 12 42  1  0
 12 43  1  0
 13 44  1  0
 15 45  1  0
 16 46  1  0
 21 47  1  0
 23 48  1  0
 24 49  1  0
 26 50  1  0
 27 51  1  0
 28 52  1  0
 29 53  1  0
M  END
>  <smiles>  (48) 
O=C(NCC(=O)N1CCC[C@H]1CNc1ccc(Cl)c(Cl)c1)c1ccc2ccccc2n1

>  <score_type>  (48) 
oracle

>  <origin>  (48) 
autodockgpu

>  <m_score__min__energy>  (48) 
-9.3599999999999994

>  <m_primary>  (48) 
energy

>  <rmsd>  (48) 
9.566202043237626

>  <m_score__min__rmsd>  (48) 
9.566202043237626

>  <meeko>  (48) 
{"free_energy": -7.93, "intermolecular_energy": -10.02, "internal_energy": -2.37, "cluster_size": 17, "cluster_id": 3, "rank_in_cluster": 16}

>  <energy>  (48) 
-7.28

>  <cluster_rmsd>  (48) 
0.47

>  <cluster>  (48) 
8

$$$$

     RDKit          3D

 53 56  0  0  0  0  0  0  0  0999 V2000
  139.8560   71.2140  221.1430 O   0  0  0  0  0  0  0  0  0  0  0  0
  139.8320   71.8880  222.2100 C   0  0  0  0  0  0  0  0  0  0  0  0
  139.7250   73.3070  222.1870 N   0  0  0  0  0  0  0  0  0  0  0  0
  139.6380   74.0460  220.9410 C   0  0  0  0  0  0  0  0  0  0  0  0
  140.6330   73.5650  219.9510 C   0  0  0  0  0  0  0  0  0  0  0  0
  140.2120   73.0930  218.8660 O   0  0  0  0  0  0  0  0  0  0  0  0
  142.0100   73.6650  220.2880 N   0  0  0  0  0  0  0  0  0  0  0  0
  142.8720   72.6280  220.8560 C   0  0  0  0  0  0  0  0  0  0  0  0
  144.2800   73.0390  220.5560 C   0  0  0  0  0  0  0  0  0  0  0  0
  144.0760   74.1660  219.5200 C   0  0  0  0  0  0  0  0  0  0  0  0
  142.8900   74.8220  220.1480 C   0  0  1  0  0  0  0  0  0  0  0  0
  142.2630   75.9560  219.4390 C   0  0  0  0  0  0  0  0  0  0  0  0
  142.5620   77.1980  220.0910 N   0  0  0  0  0  0  0  0  0  0  0  0
  141.7520   77.8900  221.0130 C   0  0  0  0  0  0  0  0  0  0  0  0
  140.4270   77.4800  221.2350 C   0  0  0  0  0  0  0  0  0  0  0  0
  139.5970   78.1520  222.1040 C   0  0  0  0  0  0  0  0  0  0  0  0
  140.0190   79.2610  222.8010 C   0  0  0  0  0  0  0  0  0  0  0  0
  139.0000   80.1440  223.9130 Cl  0  0  0  0  0  0  0  0  0  0  0  0
  141.3110   79.6780  222.5980 C   0  0  0  0  0  0  0  0  0  0  0  0
  141.9070   81.0930  223.4630 Cl  0  0  0  0  0  0  0  0  0  0  0  0
  142.1420   79.0020  221.7250 C   0  0  0  0  0  0  0  0  0  0  0  0
  139.9140   71.2340  223.5240 C   0  0  0  0  0  0  0  0  0  0  0  0
  139.4870   69.9320  223.6770 C   0  0  0  0  0  0  0  0  0  0  0  0
  139.5450   69.2710  224.9040 C   0  0  0  0  0  0  0  0  0  0  0  0
  140.0450   69.9450  225.9900 C   0  0  0  0  0  0  0  0  0  0  0  0
  140.1530   69.4000  227.2520 C   0  0  0  0  0  0  0  0  0  0  0  0
  140.6650   70.1300  228.3070 C   0  0  0  0  0  0  0  0  0  0  0  0
  141.0820   71.4310  228.1130 C   0  0  0  0  0  0  0  0  0  0  0  0
  140.9800   71.9870  226.8590 C   0  0  0  0  0  0  0  0  0  0  0  0
  140.4630   71.2530  225.7920 C   0  0  0  0  0  0  0  0  0  0  0  0
  140.3990   71.8690  224.6110 N   0  0  0  0  0  0  0  0  0  0  0  0
  139.7080   73.8390  223.0940 H   0  0  0  0  0  0  0  0  0  0  0  0
  138.6285   73.9219  220.5219 H   0  0  0  0  0  0  0  0  0  0  0  0
  139.8474   75.1048  221.1532 H   0  0  0  0  0  0  0  0  0  0  0  0
  142.7190   72.5593  221.9431 H   0  0  0  0  0  0  0  0  0  0  0  0
  142.6444   71.6408  220.4274 H   0  0  0  0  0  0  0  0  0  0  0  0
  144.7872   73.4129  221.4576 H   0  0  0  0  0  0  0  0  0  0  0  0
  144.9133   72.2155  220.1943 H   0  0  0  0  0  0  0  0  0  0  0  0
  144.9429   74.8408  219.4637 H   0  0  0  0  0  0  0  0  0  0  0  0
  143.9494   73.8421  218.4764 H   0  0  0  0  0  0  0  0  0  0  0  0
  143.1578   75.3548  221.0724 H   0  0  0  0  0  0  0  0  0  0  0  0
  142.6438   75.9903  218.4076 H   0  0  0  0  0  0  0  0  0  0  0  0
  141.1725   75.8119  219.4424 H   0  0  0  0  0  0  0  0  0  0  0  0
  143.4960   77.6500  219.8550 H   0  0  0  0  0  0  0  0  0  0  0  0
  140.0424   76.5989  220.7005 H   0  0  0  0  0  0  0  0  0  0  0  0
  138.5672   77.7921  222.2452 H   0  0  0  0  0  0  0  0  0  0  0  0
  143.1694   79.3719  221.5919 H   0  0  0  0  0  0  0  0  0  0  0  0
  139.0875   69.3969  222.8029 H   0  0  0  0  0  0  0  0  0  0  0  0
  139.1974   68.2317  224.9992 H   0  0  0  0  0  0  0  0  0  0  0  0
  139.8251   68.3639  227.4219 H   0  0  0  0  0  0  0  0  0  0  0  0
  140.7405   69.6729  229.3047 H   0  0  0  0  0  0  0  0  0  0  0  0
  141.4907   72.0158  228.9502 H   0  0  0  0  0  0  0  0  0  0  0  0
  141.3103   73.0235  226.6958 H   0  0  0  0  0  0  0  0  0  0  0  0
  1  2  2  0
  2  3  1  0
  3  4  1  0
  4  5  1  0
  5  6  2  0
  5  7  1  0
  7  8  1  0
  8  9  1  0
  9 10  1  0
 10 11  1  0
 11 12  1  0
 12 13  1  0
 13 14  1  0
 14 15  2  0
 15 16  1  0
 16 17  2  0
 17 18  1  0
 17 19  1  0
 19 20  1  0
 19 21  2  0
  2 22  1  0
 22 23  2  0
 23 24  1  0
 24 25  2  0
 25 26  1  0
 26 27  2  0
 27 28  1  0
 28 29  2  0
 29 30  1  0
 30 31  2  0
 11  7  1  0
 21 14  1  0
 31 22  1  0
 30 25  1  0
  3 32  1  0
  4 33  1  0
  4 34  1  0
  8 35  1  0
  8 36  1  0
  9 37  1  0
  9 38  1  0
 10 39  1  0
 10 40  1  0
 11 41  1  1
 12 42  1  0
 12 43  1  0
 13 44  1  0
 15 45  1  0
 16 46  1  0
 21 47  1  0
 23 48  1  0
 24 49  1  0
 26 50  1  0
 27 51  1  0
 28 52  1  0
 29 53  1  0
M  END
>  <smiles>  (49) 
O=C(NCC(=O)N1CCC[C@H]1CNc1ccc(Cl)c(Cl)c1)c1ccc2ccccc2n1

>  <score_type>  (49) 
oracle

>  <origin>  (49) 
autodockgpu

>  <m_score__min__energy>  (49) 
-9.3599999999999994

>  <m_primary>  (49) 
energy

>  <rmsd>  (49) 
3.0248126966683553

>  <m_score__min__rmsd>  (49) 
3.0248126966683553

>  <meeko>  (49) 
{"free_energy": -9.31, "intermolecular_energy": -11.4, "internal_energy": -1.77, "cluster_size": 16, "cluster_id": 2, "rank_in_cluster": 1}

>  <energy>  (49) 
-7.02

>  <cluster_rmsd>  (49) 
0.0

>  <cluster>  (49) 
9

$$$$

     RDKit          3D

 53 56  0  0  0  0  0  0  0  0999 V2000
  140.3470   74.5130  222.2860 O   0  0  0  0  0  0  0  0  0  0  0  0
  139.6950   75.4830  221.8120 C   0  0  0  0  0  0  0  0  0  0  0  0
  138.7500   75.3000  220.7630 N   0  0  0  0  0  0  0  0  0  0  0  0
  138.4920   73.9930  220.1900 C   0  0  0  0  0  0  0  0  0  0  0  0
  138.3140   72.9600  221.2410 C   0  0  0  0  0  0  0  0  0  0  0  0
  137.8300   73.3110  222.3450 O   0  0  0  0  0  0  0  0  0  0  0  0
  138.7050   71.6280  220.9370 N   0  0  0  0  0  0  0  0  0  0  0  0
  138.0360   70.6770  220.0490 C   0  0  0  0  0  0  0  0  0  0  0  0
  139.0610   69.6520  219.6760 C   0  0  0  0  0  0  0  0  0  0  0  0
  140.3710   70.3160  220.1540 C   0  0  0  0  0  0  0  0  0  0  0  0
  139.8640   70.8920  221.4360 C   0  0  1  0  0  0  0  0  0  0  0  0
  140.7840   71.7200  222.2410 C   0  0  0  0  0  0  0  0  0  0  0  0
  140.2130   72.0280  223.5200 N   0  0  0  0  0  0  0  0  0  0  0  0
  140.3350   71.2780  224.7070 C   0  0  0  0  0  0  0  0  0  0  0  0
  140.9230   71.8500  225.8460 C   0  0  0  0  0  0  0  0  0  0  0  0
  141.0890   71.1370  227.0130 C   0  0  0  0  0  0  0  0  0  0  0  0
  140.6870   69.8260  227.1260 C   0  0  0  0  0  0  0  0  0  0  0  0
  140.8770   68.8830  228.5850 Cl  0  0  0  0  0  0  0  0  0  0  0  0
  140.1090   69.2470  226.0230 C   0  0  0  0  0  0  0  0  0  0  0  0
  139.5750   67.5700  226.1080 Cl  0  0  0  0  0  0  0  0  0  0  0  0
  139.9450   69.9660  224.8530 C   0  0  0  0  0  0  0  0  0  0  0  0
  139.8830   76.8480  222.3250 C   0  0  0  0  0  0  0  0  0  0  0  0
  138.7920   77.6020  222.7040 C   0  0  0  0  0  0  0  0  0  0  0  0
  138.9220   78.9010  223.1960 C   0  0  0  0  0  0  0  0  0  0  0  0
  140.1800   79.4400  223.3030 C   0  0  0  0  0  0  0  0  0  0  0  0
  140.4360   80.7100  223.7730 C   0  0  0  0  0  0  0  0  0  0  0  0
  141.7250   81.1980  223.8570 C   0  0  0  0  0  0  0  0  0  0  0  0
  142.7910   80.4130  223.4670 C   0  0  0  0  0  0  0  0  0  0  0  0
  142.5500   79.1430  222.9960 C   0  0  0  0  0  0  0  0  0  0  0  0
  141.2490   78.6470  222.9090 C   0  0  0  0  0  0  0  0  0  0  0  0
  141.1050   77.4080  222.4410 N   0  0  0  0  0  0  0  0  0  0  0  0
  138.2230   76.1310  220.3900 H   0  0  0  0  0  0  0  0  0  0  0  0
  137.5770   74.0444  219.5817 H   0  0  0  0  0  0  0  0  0  0  0  0
  139.3585   73.7107  219.5740 H   0  0  0  0  0  0  0  0  0  0  0  0
  137.1927   70.1995  220.5693 H   0  0  0  0  0  0  0  0  0  0  0  0
  137.6332   71.1801  219.1576 H   0  0  0  0  0  0  0  0  0  0  0  0
  138.8822   68.7002  220.1977 H   0  0  0  0  0  0  0  0  0  0  0  0
  139.0601   69.3938  218.6067 H   0  0  0  0  0  0  0  0  0  0  0  0
  141.1737   69.5818  220.3170 H   0  0  0  0  0  0  0  0  0  0  0  0
  140.8303   71.0303  219.4549 H   0  0  0  0  0  0  0  0  0  0  0  0
  139.6699   70.1123  222.1873 H   0  0  0  0  0  0  0  0  0  0  0  0
  141.7252   71.1705  222.3902 H   0  0  0  0  0  0  0  0  0  0  0  0
  140.9685   72.6620  221.7037 H   0  0  0  0  0  0  0  0  0  0  0  0
  139.6330   72.9180  223.5850 H   0  0  0  0  0  0  0  0  0  0  0  0
  141.2605   72.8962  225.8057 H   0  0  0  0  0  0  0  0  0  0  0  0
  141.5560   71.6295  227.8786 H   0  0  0  0  0  0  0  0  0  0  0  0
  139.4782   69.4627  223.9935 H   0  0  0  0  0  0  0  0  0  0  0  0
  137.7865   77.1648  222.6154 H   0  0  0  0  0  0  0  0  0  0  0  0
  138.0354   79.4809  223.4919 H   0  0  0  0  0  0  0  0  0  0  0  0
  139.5967   81.3477  224.0875 H   0  0  0  0  0  0  0  0  0  0  0  0
  141.9027   82.2153  224.2358 H   0  0  0  0  0  0  0  0  0  0  0  0
  143.8195   80.7976  223.5319 H   0  0  0  0  0  0  0  0  0  0  0  0
  143.3941   78.5105  222.6840 H   0  0  0  0  0  0  0  0  0  0  0  0
  1  2  2  0
  2  3  1  0
  3  4  1  0
  4  5  1  0
  5  6  2  0
  5  7  1  0
  7  8  1  0
  8  9  1  0
  9 10  1  0
 10 11  1  0
 11 12  1  0
 12 13  1  0
 13 14  1  0
 14 15  2  0
 15 16  1  0
 16 17  2  0
 17 18  1  0
 17 19  1  0
 19 20  1  0
 19 21  2  0
  2 22  1  0
 22 23  2  0
 23 24  1  0
 24 25  2  0
 25 26  1  0
 26 27  2  0
 27 28  1  0
 28 29  2  0
 29 30  1  0
 30 31  2  0
 11  7  1  0
 21 14  1  0
 31 22  1  0
 30 25  1  0
  3 32  1  0
  4 33  1  0
  4 34  1  0
  8 35  1  0
  8 36  1  0
  9 37  1  0
  9 38  1  0
 10 39  1  0
 10 40  1  0
 11 41  1  1
 12 42  1  0
 12 43  1  0
 13 44  1  0
 15 45  1  0
 16 46  1  0
 21 47  1  0
 23 48  1  0
 24 49  1  0
 26 50  1  0
 27 51  1  0
 28 52  1  0
 29 53  1  0
M  END
>  <smiles>  (50) 
O=C(NCC(=O)N1CCC[C@H]1CNc1ccc(Cl)c(Cl)c1)c1ccc2ccccc2n1

>  <score_type>  (50) 
oracle

>  <origin>  (50) 
autodockgpu

>  <m_score__min__energy>  (50) 
-9.3599999999999994

>  <m_primary>  (50) 
energy

>  <rmsd>  (50) 
8.518487273770608

>  <m_score__min__rmsd>  (50) 
8.518487273770608

>  <meeko>  (50) 
{"free_energy": -8.91, "intermolecular_energy": -10.99, "internal_energy": -2.66, "cluster_size": 17, "cluster_id": 3, "rank_in_cluster": 3}

>  <energy>  (50) 
-6.37

>  <cluster_rmsd>  (50) 
0.0

>  <cluster>  (50) 
10

$$$$
