
     RDKit          3D

 53 56  0  0  0  0  0  0  0  0999 V2000
  138.1700   70.2640  221.7340 O   0  0  0  0  0  0  0  0  0  0  0  0
  138.7400   70.8730  222.6790 C   0  0  0  0  0  0  0  0  0  0  0  0
  139.0520   72.2680  222.6200 N   0  0  0  0  0  0  0  0  0  0  0  0
  138.7370   73.0920  221.4690 C   0  0  0  0  0  0  0  0  0  0  0  0
  139.5820   74.3230  221.5840 C   0  0  0  0  0  0  0  0  0  0  0  0
  140.5940   74.2550  222.3330 O   0  0  0  0  0  0  0  0  0  0  0  0
  139.2440   75.5240  220.8650 N   0  0  0  0  0  0  0  0  0  0  0  0
  140.0030   75.8220  219.6540 C   0  0  0  0  0  0  0  0  0  0  0  0
  139.1880   76.6430  218.6830 C   0  0  0  0  0  0  0  0  0  0  0  0
  138.6390   77.8480  219.4140 C   0  0  0  0  0  0  0  0  0  0  0  0
  137.6610   77.3690  220.4470 C   0  0  0  0  0  0  0  0  0  0  0  0
  138.1970   76.3310  221.3850 C   0  0  2  0  0  0  0  0  0  0  0  0
  138.4550   76.9630  222.7110 C   0  0  0  0  0  0  0  0  0  0  0  0
  139.5300   77.9430  222.7790 C   0  0  0  0  0  0  0  0  0  0  0  0
  139.2550   79.2010  223.2730 C   0  0  0  0  0  0  0  0  0  0  0  0
  140.2190   80.1850  223.3680 C   0  0  0  0  0  0  0  0  0  0  0  0
  141.5160   79.9540  222.9690 C   0  0  0  0  0  0  0  0  0  0  0  0
  141.8140   78.7010  222.4710 C   0  0  0  0  0  0  0  0  0  0  0  0
  140.8390   77.7160  222.3790 C   0  0  0  0  0  0  0  0  0  0  0  0
  139.1000   70.1230  223.8960 C   0  0  0  0  0  0  0  0  0  0  0  0
  138.8010   68.7810  223.9940 C   0  0  0  0  0  0  0  0  0  0  0  0
  139.1280   68.0860  225.1060 N   0  0  0  0  0  0  0  0  0  0  0  0
  139.7530   68.6920  226.1430 C   0  0  0  0  0  0  0  0  0  0  0  0
  140.0710   67.9440  227.2620 C   0  0  0  0  0  0  0  0  0  0  0  0
  140.7040   68.5230  228.3310 C   0  0  0  0  0  0  0  0  0  0  0  0
  141.0120   69.8680  228.2500 C   0  0  0  0  0  0  0  0  0  0  0  0
  140.6920   70.6070  227.1280 C   0  0  0  0  0  0  0  0  0  0  0  0
  140.0550   70.0290  226.0520 C   0  0  0  0  0  0  0  0  0  0  0  0
  139.7230   70.7060  224.9370 N   0  0  0  0  0  0  0  0  0  0  0  0
  139.5340   72.6850  223.4730 H   0  0  0  0  0  0  0  0  0  0  0  0
  138.9743   72.5535  220.5396 H   0  0  0  0  0  0  0  0  0  0  0  0
  137.6668   73.3450  221.4415 H   0  0  0  0  0  0  0  0  0  0  0  0
  140.9077   76.3847  219.9276 H   0  0  0  0  0  0  0  0  0  0  0  0
  140.2678   74.8715  219.1678 H   0  0  0  0  0  0  0  0  0  0  0  0
  139.8261   76.9735  217.8501 H   0  0  0  0  0  0  0  0  0  0  0  0
  138.3619   76.0387  218.2801 H   0  0  0  0  0  0  0  0  0  0  0  0
  139.4603   78.3917  219.9036 H   0  0  0  0  0  0  0  0  0  0  0  0
  138.1398   78.5253  218.7055 H   0  0  0  0  0  0  0  0  0  0  0  0
  137.3404   78.2362  221.0430 H   0  0  0  0  0  0  0  0  0  0  0  0
  136.8365   76.8928  219.8961 H   0  0  0  0  0  0  0  0  0  0  0  0
  137.4233   75.5626  221.5294 H   0  0  0  0  0  0  0  0  0  0  0  0
  137.5281   77.4651  223.0251 H   0  0  0  0  0  0  0  0  0  0  0  0
  138.7794   76.1379  223.3621 H   0  0  0  0  0  0  0  0  0  0  0  0
  138.2307   79.4286  223.6032 H   0  0  0  0  0  0  0  0  0  0  0  0
  139.9454   81.1717  223.7699 H   0  0  0  0  0  0  0  0  0  0  0  0
  142.2850   80.7369  223.0439 H   0  0  0  0  0  0  0  0  0  0  0  0
  142.8399   78.4794  222.1419 H   0  0  0  0  0  0  0  0  0  0  0  0
  141.1122   76.7288  221.9780 H   0  0  0  0  0  0  0  0  0  0  0  0
  138.2928   68.2723  223.1616 H   0  0  0  0  0  0  0  0  0  0  0  0
  139.8137   66.8750  227.2944 H   0  0  0  0  0  0  0  0  0  0  0  0
  140.9589   67.9356  229.2254 H   0  0  0  0  0  0  0  0  0  0  0  0
  141.5205   70.3580  229.0934 H   0  0  0  0  0  0  0  0  0  0  0  0
  140.9503   71.6757  227.0930 H   0  0  0  0  0  0  0  0  0  0  0  0
  1  2  2  0
  2  3  1  0
  3  4  1  0
  4  5  1  0
  5  6  2  0
  5  7  1  0
  7  8  1  0
  8  9  1  0
  9 10  1  0
 10 11  1  0
 11 12  1  0
 12 13  1  0
 13 14  1  0
 14 15  2  0
 15 16  1  0
 16 17  2  0
 17 18  1  0
 18 19  2  0
  2 20  1  0
 20 21  2  0
 21 22  1  0
 22 23  2  0
 23 24  1  0
 24 25  2  0
 25 26  1  0
 26 27  2  0
 27 28  1  0
 28 29  2  0
 12  7  1  0
 19 14  1  0
 29 20  1  0
 28 23  1  0
  3 30  1  0
  4 31  1  0
  4 32  1  0
  8 33  1  0
  8 34  1  0
  9 35  1  0
  9 36  1  0
 10 37  1  0
 10 38  1  0
 11 39  1  0
 11 40  1  0
 12 41  1  1
 13 42  1  0
 13 43  1  0
 15 44  1  0
 16 45  1  0
 17 46  1  0
 18 47  1  0
 19 48  1  0
 21 49  1  0
 24 50  1  0
 25 51  1  0
 26 52  1  0
 27 53  1  0
M  END
>  <smiles>  (1) 
O=C(NCC(=O)N1CCCCC1Cc1ccccc1)c1cnc2ccccc2n1

>  <score_type>  (1) 
oracle

>  <origin>  (1) 
autodockgpu

>  <m_score__min__energy>  (1) 
-9.1999999999999993

>  <m_primary>  (1) 
energy

>  <rmsd>  (1) 
2.3393774600022184

>  <m_score__min__rmsd>  (1) 
2.3393774600022184

>  <meeko>  (1) 
{"free_energy": -8.0, "intermolecular_energy": -9.79, "internal_energy": -2.36, "cluster_size": 46, "cluster_id": 1, "rank_in_cluster": 46}

>  <energy>  (1) 
-9.2

>  <cluster_rmsd>  (1) 
0.0

>  <cluster>  (1) 
1

$$$$

     RDKit          3D

 53 56  0  0  0  0  0  0  0  0999 V2000
  140.6650   71.3510  221.2740 O   0  0  0  0  0  0  0  0  0  0  0  0
  140.2760   72.0010  222.2810 C   0  0  0  0  0  0  0  0  0  0  0  0
  139.9130   73.3830  222.2130 N   0  0  0  0  0  0  0  0  0  0  0  0
  139.9630   74.1450  220.9800 C   0  0  0  0  0  0  0  0  0  0  0  0
  140.3420   75.5430  221.3600 C   0  0  0  0  0  0  0  0  0  0  0  0
  140.0730   75.9090  222.5350 O   0  0  0  0  0  0  0  0  0  0  0  0
  140.9850   76.4190  220.4150 N   0  0  0  0  0  0  0  0  0  0  0  0
  142.3860   76.1580  220.0980 C   0  0  0  0  0  0  0  0  0  0  0  0
  142.7350   76.6430  218.7110 C   0  0  0  0  0  0  0  0  0  0  0  0
  142.3010   78.0870  218.5830 C   0  0  0  0  0  0  0  0  0  0  0  0
  140.8030   78.1380  218.6560 C   0  0  0  0  0  0  0  0  0  0  0  0
  140.2100   77.4720  219.8590 C   0  0  2  0  0  0  0  0  0  0  0  0
  139.7490   78.5200  220.8160 C   0  0  0  0  0  0  0  0  0  0  0  0
  140.7330   79.0360  221.7570 C   0  0  0  0  0  0  0  0  0  0  0  0
  141.6160   80.0070  221.3340 C   0  0  0  0  0  0  0  0  0  0  0  0
  142.5790   80.5450  222.1650 C   0  0  0  0  0  0  0  0  0  0  0  0
  142.7040   80.1310  223.4730 C   0  0  0  0  0  0  0  0  0  0  0  0
  141.8290   79.1590  223.9190 C   0  0  0  0  0  0  0  0  0  0  0  0
  140.8640   78.6230  223.0760 C   0  0  0  0  0  0  0  0  0  0  0  0
  140.1900   71.3150  223.5830 C   0  0  0  0  0  0  0  0  0  0  0  0
  139.6050   70.0700  223.6700 C   0  0  0  0  0  0  0  0  0  0  0  0
  139.5220   69.4340  224.8600 N   0  0  0  0  0  0  0  0  0  0  0  0
  140.0090   70.0050  225.9860 C   0  0  0  0  0  0  0  0  0  0  0  0
  139.9040   69.3200  227.1840 C   0  0  0  0  0  0  0  0  0  0  0  0
  140.3860   69.8670  228.3440 C   0  0  0  0  0  0  0  0  0  0  0  0
  140.9760   71.1150  228.2760 C   0  0  0  0  0  0  0  0  0  0  0  0
  141.0770   71.7920  227.0760 C   0  0  0  0  0  0  0  0  0  0  0  0
  140.5930   71.2460  225.9070 C   0  0  0  0  0  0  0  0  0  0  0  0
  140.6690   71.8650  224.7140 N   0  0  0  0  0  0  0  0  0  0  0  0
  139.5980   73.8380  223.1230 H   0  0  0  0  0  0  0  0  0  0  0  0
  140.7152   73.7187  220.2999 H   0  0  0  0  0  0  0  0  0  0  0  0
  138.9946   74.1228  220.4588 H   0  0  0  0  0  0  0  0  0  0  0  0
  143.0217   76.6779  220.8298 H   0  0  0  0  0  0  0  0  0  0  0  0
  142.5542   75.0717  220.1382 H   0  0  0  0  0  0  0  0  0  0  0  0
  143.8210   76.5668  218.5538 H   0  0  0  0  0  0  0  0  0  0  0  0
  142.2226   76.0276  217.9569 H   0  0  0  0  0  0  0  0  0  0  0  0
  142.7336   78.6793  219.4028 H   0  0  0  0  0  0  0  0  0  0  0  0
  142.6478   78.5031  217.6256 H   0  0  0  0  0  0  0  0  0  0  0  0
  140.4965   79.1944  218.6638 H   0  0  0  0  0  0  0  0  0  0  0  0
  140.4312   77.5848  217.7810 H   0  0  0  0  0  0  0  0  0  0  0  0
  139.3245   76.9038  219.5380 H   0  0  0  0  0  0  0  0  0  0  0  0
  139.3787   79.3699  220.2240 H   0  0  0  0  0  0  0  0  0  0  0  0
  138.9911   78.0233  221.4396 H   0  0  0  0  0  0  0  0  0  0  0  0
  141.5510   80.3663  220.2964 H   0  0  0  0  0  0  0  0  0  0  0  0
  143.2582   81.3177  221.7756 H   0  0  0  0  0  0  0  0  0  0  0  0
  143.4706   80.5576  224.1366 H   0  0  0  0  0  0  0  0  0  0  0  0
  141.8978   78.8042  224.9579 H   0  0  0  0  0  0  0  0  0  0  0  0
  140.1847   77.8498  223.4642 H   0  0  0  0  0  0  0  0  0  0  0  0
  139.2030   69.5908  222.7652 H   0  0  0  0  0  0  0  0  0  0  0  0
  139.4295   68.3278  227.2050 H   0  0  0  0  0  0  0  0  0  0  0  0
  140.3059   69.3293  229.3003 H   0  0  0  0  0  0  0  0  0  0  0  0
  141.3717   71.5769  229.1926 H   0  0  0  0  0  0  0  0  0  0  0  0
  141.5519   72.7839  227.0533 H   0  0  0  0  0  0  0  0  0  0  0  0
  1  2  2  0
  2  3  1  0
  3  4  1  0
  4  5  1  0
  5  6  2  0
  5  7  1  0
  7  8  1  0
  8  9  1  0
  9 10  1  0
 10 11  1  0
 11 12  1  0
 12 13  1  0
 13 14  1  0
 14 15  2  0
 15 16  1  0
 16 17  2  0
 17 18  1  0
 18 19  2  0
  2 20  1  0
 20 21  2  0
 21 22  1  0
 22 23  2  0
 23 24  1  0
 24 25  2  0
 25 26  1  0
 26 27  2  0
 27 28  1  0
 28 29  2  0
 12  7  1  0
 19 14  1  0
 29 20  1  0
 28 23  1  0
  3 30  1  0
  4 31  1  0
  4 32  1  0
  8 33  1  0
  8 34  1  0
  9 35  1  0
  9 36  1  0
 10 37  1  0
 10 38  1  0
 11 39  1  0
 11 40  1  0
 12 41  1  6
 13 42  1  0
 13 43  1  0
 15 44  1  0
 16 45  1  0
 17 46  1  0
 18 47  1  0
 19 48  1  0
 21 49  1  0
 24 50  1  0
 25 51  1  0
 26 52  1  0
 27 53  1  0
M  END
>  <smiles>  (2) 
O=C(NCC(=O)N1CCCCC1Cc1ccccc1)c1cnc2ccccc2n1

>  <score_type>  (2) 
oracle

>  <origin>  (2) 
autodockgpu

>  <m_score__min__energy>  (2) 
-9.1999999999999993

>  <m_primary>  (2) 
energy

>  <rmsd>  (2) 
2.308400116888299

>  <m_score__min__rmsd>  (2) 
2.308400116888299

>  <meeko>  (2) 
{"free_energy": -8.93, "intermolecular_energy": -10.72, "internal_energy": -2.18, "cluster_size": 46, "cluster_id": 1, "rank_in_cluster": 10}

>  <energy>  (2) 
-8.98

>  <cluster_rmsd>  (2) 
0.28

>  <cluster>  (2) 
1

$$$$

     RDKit          3D

 53 56  0  0  0  0  0  0  0  0999 V2000
  138.0080   70.3340  221.9090 O   0  0  0  0  0  0  0  0  0  0  0  0
  138.6720   70.8880  222.8270 C   0  0  0  0  0  0  0  0  0  0  0  0
  139.0560   72.2660  222.7760 N   0  0  0  0  0  0  0  0  0  0  0  0
  138.7110   73.1330  221.6660 C   0  0  0  0  0  0  0  0  0  0  0  0
  139.4780   74.4040  221.8670 C   0  0  0  0  0  0  0  0  0  0  0  0
  140.7220   74.3010  222.0440 O   0  0  0  0  0  0  0  0  0  0  0  0
  138.8120   75.6810  221.8550 N   0  0  0  0  0  0  0  0  0  0  0  0
  137.4910   75.7480  221.2370 C   0  0  0  0  0  0  0  0  0  0  0  0
  136.6570   76.8530  221.8390 C   0  0  0  0  0  0  0  0  0  0  0  0
  137.4570   78.1370  221.7960 C   0  0  0  0  0  0  0  0  0  0  0  0
  138.6390   77.9880  222.7080 C   0  0  0  0  0  0  0  0  0  0  0  0
  139.4870   76.7820  222.4460 C   0  0  2  0  0  0  0  0  0  0  0  0
  140.7480   77.2130  221.7750 C   0  0  0  0  0  0  0  0  0  0  0  0
  141.3690   78.4380  222.2570 C   0  0  0  0  0  0  0  0  0  0  0  0
  141.5740   79.4750  221.3720 C   0  0  0  0  0  0  0  0  0  0  0  0
  142.1580   80.6680  221.7510 C   0  0  0  0  0  0  0  0  0  0  0  0
  142.5680   80.8800  223.0480 C   0  0  0  0  0  0  0  0  0  0  0  0
  142.3730   79.8540  223.9530 C   0  0  0  0  0  0  0  0  0  0  0  0
  141.7840   78.6580  223.5630 C   0  0  0  0  0  0  0  0  0  0  0  0
  139.0720   70.0900  224.0000 C   0  0  0  0  0  0  0  0  0  0  0  0
  138.8080   68.7380  224.0370 C   0  0  0  0  0  0  0  0  0  0  0  0
  139.1710   67.9980  225.1090 N   0  0  0  0  0  0  0  0  0  0  0  0
  139.7970   68.5700  226.1640 C   0  0  0  0  0  0  0  0  0  0  0  0
  140.1510   67.7770  227.2410 C   0  0  0  0  0  0  0  0  0  0  0  0
  140.7860   68.3210  228.3270 C   0  0  0  0  0  0  0  0  0  0  0  0
  141.0590   69.6750  228.3080 C   0  0  0  0  0  0  0  0  0  0  0  0
  140.7020   70.4590  227.2280 C   0  0  0  0  0  0  0  0  0  0  0  0
  140.0630   69.9170  226.1350 C   0  0  0  0  0  0  0  0  0  0  0  0
  139.6950   70.6390  225.0590 N   0  0  0  0  0  0  0  0  0  0  0  0
  139.6160   72.6350  223.6030 H   0  0  0  0  0  0  0  0  0  0  0  0
  138.9966   72.6631  220.7133 H   0  0  0  0  0  0  0  0  0  0  0  0
  137.6280   73.3225  221.6300 H   0  0  0  0  0  0  0  0  0  0  0  0
  137.6090   75.9351  220.1595 H   0  0  0  0  0  0  0  0  0  0  0  0
  136.9774   74.7913  221.4130 H   0  0  0  0  0  0  0  0  0  0  0  0
  135.7291   76.9745  221.2608 H   0  0  0  0  0  0  0  0  0  0  0  0
  136.3977   76.6054  222.8789 H   0  0  0  0  0  0  0  0  0  0  0  0
  137.8017   78.3260  220.7686 H   0  0  0  0  0  0  0  0  0  0  0  0
  136.8329   78.9827  222.1205 H   0  0  0  0  0  0  0  0  0  0  0  0
  139.2712   78.8813  222.5973 H   0  0  0  0  0  0  0  0  0  0  0  0
  138.2331   77.8662  223.7231 H   0  0  0  0  0  0  0  0  0  0  0  0
  139.7619   76.3354  223.4130 H   0  0  0  0  0  0  0  0  0  0  0  0
  141.4807   76.4011  221.8931 H   0  0  0  0  0  0  0  0  0  0  0  0
  140.4585   77.4298  220.7362 H   0  0  0  0  0  0  0  0  0  0  0  0
  141.2609   79.3476  220.3252 H   0  0  0  0  0  0  0  0  0  0  0  0
  142.2979   81.4626  221.0034 H   0  0  0  0  0  0  0  0  0  0  0  0
  143.0328   81.8294  223.3522 H   0  0  0  0  0  0  0  0  0  0  0  0
  142.6891   79.9865  224.9983 H   0  0  0  0  0  0  0  0  0  0  0  0
  141.6425   77.8631  224.3101 H   0  0  0  0  0  0  0  0  0  0  0  0
  138.2985   68.2575  223.1888 H   0  0  0  0  0  0  0  0  0  0  0  0
  139.9210   66.7014  227.2256 H   0  0  0  0  0  0  0  0  0  0  0  0
  141.0698   67.6980  229.1880 H   0  0  0  0  0  0  0  0  0  0  0  0
  141.5689   70.1364  229.1666 H   0  0  0  0  0  0  0  0  0  0  0  0
  140.9320   71.5346  227.2413 H   0  0  0  0  0  0  0  0  0  0  0  0
  1  2  2  0
  2  3  1  0
  3  4  1  0
  4  5  1  0
  5  6  2  0
  5  7  1  0
  7  8  1  0
  8  9  1  0
  9 10  1  0
 10 11  1  0
 11 12  1  0
 12 13  1  0
 13 14  1  0
 14 15  2  0
 15 16  1  0
 16 17  2  0
 17 18  1  0
 18 19  2  0
  2 20  1  0
 20 21  2  0
 21 22  1  0
 22 23  2  0
 23 24  1  0
 24 25  2  0
 25 26  1  0
 26 27  2  0
 27 28  1  0
 28 29  2  0
 12  7  1  0
 19 14  1  0
 29 20  1  0
 28 23  1  0
  3 30  1  0
  4 31  1  0
  4 32  1  0
  8 33  1  0
  8 34  1  0
  9 35  1  0
  9 36  1  0
 10 37  1  0
 10 38  1  0
 11 39  1  0
 11 40  1  0
 12 41  1  1
 13 42  1  0
 13 43  1  0
 15 44  1  0
 16 45  1  0
 17 46  1  0
 18 47  1  0
 19 48  1  0
 21 49  1  0
 24 50  1  0
 25 51  1  0
 26 52  1  0
 27 53  1  0
M  END
>  <smiles>  (3) 
O=C(NCC(=O)N1CCCCC1Cc1ccccc1)c1cnc2ccccc2n1

>  <score_type>  (3) 
oracle

>  <origin>  (3) 
autodockgpu

>  <m_score__min__energy>  (3) 
-9.1999999999999993

>  <m_primary>  (3) 
energy

>  <rmsd>  (3) 
2.6514155303872884

>  <m_score__min__rmsd>  (3) 
2.6514155303872884

>  <meeko>  (3) 
{"free_energy": -9.2, "intermolecular_energy": -10.99, "internal_energy": -1.7, "cluster_size": 46, "cluster_id": 1, "rank_in_cluster": 1}

>  <energy>  (3) 
-8.97

>  <cluster_rmsd>  (3) 
1.49

>  <cluster>  (3) 
1

$$$$

     RDKit          3D

 53 56  0  0  0  0  0  0  0  0999 V2000
  141.3100   72.5470  222.0370 O   0  0  0  0  0  0  0  0  0  0  0  0
  140.2070   72.4390  222.6390 C   0  0  0  0  0  0  0  0  0  0  0  0
  139.0420   73.1720  222.2490 N   0  0  0  0  0  0  0  0  0  0  0  0
  139.0360   74.0940  221.1300 C   0  0  0  0  0  0  0  0  0  0  0  0
  139.7730   75.3170  221.5840 C   0  0  0  0  0  0  0  0  0  0  0  0
  139.4750   75.7760  222.7200 O   0  0  0  0  0  0  0  0  0  0  0  0
  140.7750   75.9310  220.7520 N   0  0  0  0  0  0  0  0  0  0  0  0
  142.1280   75.3840  220.8100 C   0  0  0  0  0  0  0  0  0  0  0  0
  142.8670   75.6100  219.5130 C   0  0  0  0  0  0  0  0  0  0  0  0
  142.7780   77.0780  219.1570 C   0  0  0  0  0  0  0  0  0  0  0  0
  141.3440   77.4060  218.8590 C   0  0  0  0  0  0  0  0  0  0  0  0
  140.3760   77.0220  219.9350 C   0  0  2  0  0  0  0  0  0  0  0  0
  139.9390   78.2530  220.6560 C   0  0  0  0  0  0  0  0  0  0  0  0
  140.8490   78.7920  221.6560 C   0  0  0  0  0  0  0  0  0  0  0  0
  141.6720   79.8440  221.3110 C   0  0  0  0  0  0  0  0  0  0  0  0
  142.5630   80.4090  222.2020 C   0  0  0  0  0  0  0  0  0  0  0  0
  142.6730   79.9430  223.4930 C   0  0  0  0  0  0  0  0  0  0  0  0
  141.8580   78.8900  223.8610 C   0  0  0  0  0  0  0  0  0  0  0  0
  140.9640   78.3270  222.9590 C   0  0  0  0  0  0  0  0  0  0  0  0
  140.1090   71.5250  223.7910 C   0  0  0  0  0  0  0  0  0  0  0  0
  139.4550   70.3190  223.6600 C   0  0  0  0  0  0  0  0  0  0  0  0
  139.3610   69.4730  224.7120 N   0  0  0  0  0  0  0  0  0  0  0  0
  139.9050   69.7950  225.9090 C   0  0  0  0  0  0  0  0  0  0  0  0
  139.7860   68.9010  226.9590 C   0  0  0  0  0  0  0  0  0  0  0  0
  140.3230   69.1930  228.1850 C   0  0  0  0  0  0  0  0  0  0  0  0
  140.9830   70.3980  228.3340 C   0  0  0  0  0  0  0  0  0  0  0  0
  141.0970   71.2830  227.2810 C   0  0  0  0  0  0  0  0  0  0  0  0
  140.5580   70.9950  226.0460 C   0  0  0  0  0  0  0  0  0  0  0  0
  140.6430   71.8250  224.9890 N   0  0  0  0  0  0  0  0  0  0  0  0
  138.1610   73.0080  222.8250 H   0  0  0  0  0  0  0  0  0  0  0  0
  139.5433   73.6440  220.2639 H   0  0  0  0  0  0  0  0  0  0  0  0
  138.0090   74.3394  220.8217 H   0  0  0  0  0  0  0  0  0  0  0  0
  142.6783   75.8749  221.6262 H   0  0  0  0  0  0  0  0  0  0  0  0
  142.0572   74.3003  220.9851 H   0  0  0  0  0  0  0  0  0  0  0  0
  143.9216   75.3207  219.6319 H   0  0  0  0  0  0  0  0  0  0  0  0
  142.4189   75.0013  218.7138 H   0  0  0  0  0  0  0  0  0  0  0  0
  143.1308   77.6875  220.0020 H   0  0  0  0  0  0  0  0  0  0  0  0
  143.4056   77.2933  218.2797 H   0  0  0  0  0  0  0  0  0  0  0  0
  141.2669   78.4918  218.7008 H   0  0  0  0  0  0  0  0  0  0  0  0
  141.0696   76.8178  217.9709 H   0  0  0  0  0  0  0  0  0  0  0  0
  139.4870   76.5830  219.4587 H   0  0  0  0  0  0  0  0  0  0  0  0
  139.7719   79.0370  219.9027 H   0  0  0  0  0  0  0  0  0  0  0  0
  139.0431   77.9514  221.2185 H   0  0  0  0  0  0  0  0  0  0  0  0
  141.6165   80.2474  220.2892 H   0  0  0  0  0  0  0  0  0  0  0  0
  143.1964   81.2466  221.8744 H   0  0  0  0  0  0  0  0  0  0  0  0
  143.3824   80.3918  224.2038 H   0  0  0  0  0  0  0  0  0  0  0  0
  141.9179   78.4911  224.8844 H   0  0  0  0  0  0  0  0  0  0  0  0
  140.3299   77.4898  223.2862 H   0  0  0  0  0  0  0  0  0  0  0  0
  139.0067   70.0424  222.6944 H   0  0  0  0  0  0  0  0  0  0  0  0
  139.2562   67.9489  226.8079 H   0  0  0  0  0  0  0  0  0  0  0  0
  140.2316   68.4894  229.0256 H   0  0  0  0  0  0  0  0  0  0  0  0
  141.4247   70.6561  229.3078 H   0  0  0  0  0  0  0  0  0  0  0  0
  141.6275   72.2350  227.4303 H   0  0  0  0  0  0  0  0  0  0  0  0
  1  2  2  0
  2  3  1  0
  3  4  1  0
  4  5  1  0
  5  6  2  0
  5  7  1  0
  7  8  1  0
  8  9  1  0
  9 10  1  0
 10 11  1  0
 11 12  1  0
 12 13  1  0
 13 14  1  0
 14 15  2  0
 15 16  1  0
 16 17  2  0
 17 18  1  0
 18 19  2  0
  2 20  1  0
 20 21  2  0
 21 22  1  0
 22 23  2  0
 23 24  1  0
 24 25  2  0
 25 26  1  0
 26 27  2  0
 27 28  1  0
 28 29  2  0
 12  7  1  0
 19 14  1  0
 29 20  1  0
 28 23  1  0
  3 30  1  0
  4 31  1  0
  4 32  1  0
  8 33  1  0
  8 34  1  0
  9 35  1  0
  9 36  1  0
 10 37  1  0
 10 38  1  0
 11 39  1  0
 11 40  1  0
 12 41  1  6
 13 42  1  0
 13 43  1  0
 15 44  1  0
 16 45  1  0
 17 46  1  0
 18 47  1  0
 19 48  1  0
 21 49  1  0
 24 50  1  0
 25 51  1  0
 26 52  1  0
 27 53  1  0
M  END
>  <smiles>  (4) 
O=C(NCC(=O)N1CCCCC1Cc1ccccc1)c1cnc2ccccc2n1

>  <score_type>  (4) 
oracle

>  <origin>  (4) 
autodockgpu

>  <m_score__min__energy>  (4) 
-9.1999999999999993

>  <m_primary>  (4) 
energy

>  <rmsd>  (4) 
2.2510800088185046

>  <m_score__min__rmsd>  (4) 
2.2510800088185046

>  <meeko>  (4) 
{"free_energy": -8.84, "intermolecular_energy": -10.63, "internal_energy": -1.71, "cluster_size": 46, "cluster_id": 1, "rank_in_cluster": 27}

>  <energy>  (4) 
-8.95

>  <cluster_rmsd>  (4) 
1.83

>  <cluster>  (4) 
1

$$$$

     RDKit          3D

 53 56  0  0  0  0  0  0  0  0999 V2000
  135.7590   76.8420  223.3330 O   0  0  0  0  0  0  0  0  0  0  0  0
  136.0660   75.6230  223.4290 C   0  0  0  0  0  0  0  0  0  0  0  0
  137.1150   75.0300  222.6570 N   0  0  0  0  0  0  0  0  0  0  0  0
  137.9080   75.7840  221.7060 C   0  0  0  0  0  0  0  0  0  0  0  0
  139.2760   75.1750  221.7160 C   0  0  0  0  0  0  0  0  0  0  0  0
  139.4170   74.0960  222.3520 O   0  0  0  0  0  0  0  0  0  0  0  0
  140.3730   75.8030  221.0250 N   0  0  0  0  0  0  0  0  0  0  0  0
  141.1410   74.9840  220.0930 C   0  0  0  0  0  0  0  0  0  0  0  0
  141.7600   75.8250  219.0030 C   0  0  0  0  0  0  0  0  0  0  0  0
  142.5230   76.9620  219.6460 C   0  0  0  0  0  0  0  0  0  0  0  0
  141.5400   77.8620  220.3340 C   0  0  0  0  0  0  0  0  0  0  0  0
  140.6260   77.1730  221.3000 C   0  0  2  0  0  0  0  0  0  0  0  0
  141.0630   77.4920  222.6910 C   0  0  0  0  0  0  0  0  0  0  0  0
  141.3640   78.8850  222.9870 C   0  0  0  0  0  0  0  0  0  0  0  0
  140.3230   79.7560  223.2280 C   0  0  0  0  0  0  0  0  0  0  0  0
  140.5260   81.0920  223.5140 C   0  0  0  0  0  0  0  0  0  0  0  0
  141.7960   81.6230  223.5730 C   0  0  0  0  0  0  0  0  0  0  0  0
  142.8540   80.7680  223.3350 C   0  0  0  0  0  0  0  0  0  0  0  0
  142.6410   79.4260  223.0480 C   0  0  0  0  0  0  0  0  0  0  0  0
  135.3180   74.7710  224.3710 C   0  0  0  0  0  0  0  0  0  0  0  0
  134.5950   75.3440  225.3940 C   0  0  0  0  0  0  0  0  0  0  0  0
  133.9060   74.5690  226.2630 N   0  0  0  0  0  0  0  0  0  0  0  0
  133.9140   73.2210  226.1450 C   0  0  0  0  0  0  0  0  0  0  0  0
  133.1950   72.4650  227.0540 C   0  0  0  0  0  0  0  0  0  0  0  0
  133.1800   71.0980  226.9660 C   0  0  0  0  0  0  0  0  0  0  0  0
  133.9000   70.5060  225.9450 C   0  0  0  0  0  0  0  0  0  0  0  0
  134.6140   71.2680  225.0420 C   0  0  0  0  0  0  0  0  0  0  0  0
  134.6330   72.6430  225.1270 C   0  0  0  0  0  0  0  0  0  0  0  0
  135.3120   73.4290  224.2710 N   0  0  0  0  0  0  0  0  0  0  0  0
  137.2930   73.9920  222.8140 H   0  0  0  0  0  0  0  0  0  0  0  0
  137.4669   75.7111  220.7010 H   0  0  0  0  0  0  0  0  0  0  0  0
  137.9450   76.8499  221.9754 H   0  0  0  0  0  0  0  0  0  0  0  0
  141.9406   74.4680  220.6448 H   0  0  0  0  0  0  0  0  0  0  0  0
  140.4588   74.2585  219.6258 H   0  0  0  0  0  0  0  0  0  0  0  0
  142.4473   75.2089  218.4047 H   0  0  0  0  0  0  0  0  0  0  0  0
  140.9747   76.2242  218.3443 H   0  0  0  0  0  0  0  0  0  0  0  0
  143.2374   76.5616  220.3804 H   0  0  0  0  0  0  0  0  0  0  0  0
  143.0794   77.5240  218.8814 H   0  0  0  0  0  0  0  0  0  0  0  0
  142.1052   78.6282  220.8849 H   0  0  0  0  0  0  0  0  0  0  0  0
  140.8978   78.2796  219.5446 H   0  0  0  0  0  0  0  0  0  0  0  0
  139.6124   77.5799  221.1695 H   0  0  0  0  0  0  0  0  0  0  0  0
  140.2597   77.1743  223.3721 H   0  0  0  0  0  0  0  0  0  0  0  0
  142.0175   76.9605  222.8190 H   0  0  0  0  0  0  0  0  0  0  0  0
  139.2925   79.3729  223.1912 H   0  0  0  0  0  0  0  0  0  0  0  0
  139.6588   81.7432  223.6979 H   0  0  0  0  0  0  0  0  0  0  0  0
  141.9608   82.6865  223.8008 H   0  0  0  0  0  0  0  0  0  0  0  0
  143.8825   81.1563  223.3734 H   0  0  0  0  0  0  0  0  0  0  0  0
  143.5077   78.7741  222.8640 H   0  0  0  0  0  0  0  0  0  0  0  0
  134.5777   76.4382  225.5050 H   0  0  0  0  0  0  0  0  0  0  0  0
  132.6306   72.9660  227.8542 H   0  0  0  0  0  0  0  0  0  0  0  0
  132.6124   70.4899  227.6858 H   0  0  0  0  0  0  0  0  0  0  0  0
  133.9040   69.4101  225.8506 H   0  0  0  0  0  0  0  0  0  0  0  0
  135.1778   70.7685  224.2404 H   0  0  0  0  0  0  0  0  0  0  0  0
  1  2  2  0
  2  3  1  0
  3  4  1  0
  4  5  1  0
  5  6  2  0
  5  7  1  0
  7  8  1  0
  8  9  1  0
  9 10  1  0
 10 11  1  0
 11 12  1  0
 12 13  1  0
 13 14  1  0
 14 15  2  0
 15 16  1  0
 16 17  2  0
 17 18  1  0
 18 19  2  0
  2 20  1  0
 20 21  2  0
 21 22  1  0
 22 23  2  0
 23 24  1  0
 24 25  2  0
 25 26  1  0
 26 27  2  0
 27 28  1  0
 28 29  2  0
 12  7  1  0
 19 14  1  0
 29 20  1  0
 28 23  1  0
  3 30  1  0
  4 31  1  0
  4 32  1  0
  8 33  1  0
  8 34  1  0
  9 35  1  0
  9 36  1  0
 10 37  1  0
 10 38  1  0
 11 39  1  0
 11 40  1  0
 12 41  1  1
 13 42  1  0
 13 43  1  0
 15 44  1  0
 16 45  1  0
 17 46  1  0
 18 47  1  0
 19 48  1  0
 21 49  1  0
 24 50  1  0
 25 51  1  0
 26 52  1  0
 27 53  1  0
M  END
>  <smiles>  (5) 
O=C(NCC(=O)N1CCCCC1Cc1ccccc1)c1cnc2ccccc2n1

>  <score_type>  (5) 
oracle

>  <origin>  (5) 
autodockgpu

>  <m_score__min__energy>  (5) 
-9.1999999999999993

>  <m_primary>  (5) 
energy

>  <rmsd>  (5) 
5.155572582157462

>  <m_score__min__rmsd>  (5) 
5.155572582157462

>  <meeko>  (5) 
{"free_energy": -8.17, "intermolecular_energy": -9.96, "internal_energy": -2.11, "cluster_size": 1, "cluster_id": 3, "rank_in_cluster": 1}

>  <energy>  (5) 
-8.94

>  <cluster_rmsd>  (5) 
1.68

>  <cluster>  (5) 
1

$$$$

     RDKit          3D

 53 56  0  0  0  0  0  0  0  0999 V2000
  140.8390   71.4380  221.3240 O   0  0  0  0  0  0  0  0  0  0  0  0
  140.3660   72.0660  222.3090 C   0  0  0  0  0  0  0  0  0  0  0  0
  139.9650   73.4370  222.2280 N   0  0  0  0  0  0  0  0  0  0  0  0
  140.0710   74.2120  221.0060 C   0  0  0  0  0  0  0  0  0  0  0  0
  140.4380   75.6040  221.4170 C   0  0  0  0  0  0  0  0  0  0  0  0
  140.2110   75.9260  222.6140 O   0  0  0  0  0  0  0  0  0  0  0  0
  141.0230   76.5250  220.4760 N   0  0  0  0  0  0  0  0  0  0  0  0
  142.4170   76.3090  220.0990 C   0  0  0  0  0  0  0  0  0  0  0  0
  142.7010   76.8440  218.7160 C   0  0  0  0  0  0  0  0  0  0  0  0
  142.2280   78.2800  218.6490 C   0  0  0  0  0  0  0  0  0  0  0  0
  140.7330   78.2910  218.7800 C   0  0  0  0  0  0  0  0  0  0  0  0
  140.2030   77.5740  219.9840 C   0  0  2  0  0  0  0  0  0  0  0  0
  139.7540   78.5810  220.9890 C   0  0  0  0  0  0  0  0  0  0  0  0
  140.7740   79.1440  221.8630 C   0  0  0  0  0  0  0  0  0  0  0  0
  140.8570   78.6970  223.1650 C   0  0  0  0  0  0  0  0  0  0  0  0
  141.7940   79.1820  224.0550 C   0  0  0  0  0  0  0  0  0  0  0  0
  142.7020   80.1470  223.6800 C   0  0  0  0  0  0  0  0  0  0  0  0
  142.6370   80.6100  222.3790 C   0  0  0  0  0  0  0  0  0  0  0  0
  141.6910   80.1160  221.4900 C   0  0  0  0  0  0  0  0  0  0  0  0
  140.2170   71.3660  223.5980 C   0  0  0  0  0  0  0  0  0  0  0  0
  139.5820   70.1440  223.6490 C   0  0  0  0  0  0  0  0  0  0  0  0
  139.4410   69.4940  224.8270 N   0  0  0  0  0  0  0  0  0  0  0  0
  139.9180   70.0300  225.9740 C   0  0  0  0  0  0  0  0  0  0  0  0
  139.7540   69.3330  227.1580 C   0  0  0  0  0  0  0  0  0  0  0  0
  140.2230   69.8450  228.3390 C   0  0  0  0  0  0  0  0  0  0  0  0
  140.8630   71.0690  228.3060 C   0  0  0  0  0  0  0  0  0  0  0  0
  141.0230   71.7580  227.1200 C   0  0  0  0  0  0  0  0  0  0  0  0
  140.5520   71.2480  225.9310 C   0  0  0  0  0  0  0  0  0  0  0  0
  140.6840   71.8810  224.7500 N   0  0  0  0  0  0  0  0  0  0  0  0
  139.5780   73.8740  223.1180 H   0  0  0  0  0  0  0  0  0  0  0  0
  140.8504   73.7900  220.3546 H   0  0  0  0  0  0  0  0  0  0  0  0
  139.1260   74.1991  220.4431 H   0  0  0  0  0  0  0  0  0  0  0  0
  143.0674   76.8226  220.8223 H   0  0  0  0  0  0  0  0  0  0  0  0
  142.6128   75.2266  220.0993 H   0  0  0  0  0  0  0  0  0  0  0  0
  143.7818   76.7998  218.5160 H   0  0  0  0  0  0  0  0  0  0  0  0
  142.1750   76.2389  217.9629 H   0  0  0  0  0  0  0  0  0  0  0  0
  142.6774   78.8582  219.4698 H   0  0  0  0  0  0  0  0  0  0  0  0
  142.5277   78.7332  217.6926 H   0  0  0  0  0  0  0  0  0  0  0  0
  140.4017   79.3386  218.8321 H   0  0  0  0  0  0  0  0  0  0  0  0
  140.3411   77.7552  217.9028 H   0  0  0  0  0  0  0  0  0  0  0  0
  139.3196   76.9931  219.6804 H   0  0  0  0  0  0  0  0  0  0  0  0
  139.2911   79.4141  220.4398 H   0  0  0  0  0  0  0  0  0  0  0  0
  139.0753   78.0327  221.6588 H   0  0  0  0  0  0  0  0  0  0  0  0
  140.1508   77.9259  223.5067 H   0  0  0  0  0  0  0  0  0  0  0  0
  141.8158   78.7904  225.0827 H   0  0  0  0  0  0  0  0  0  0  0  0
  143.4497   80.5342  224.3878 H   0  0  0  0  0  0  0  0  0  0  0  0
  143.3453   81.3815  222.0427 H   0  0  0  0  0  0  0  0  0  0  0  0
  141.6682   80.5062  220.4618 H   0  0  0  0  0  0  0  0  0  0  0  0
  139.1873   69.6943  222.7260 H   0  0  0  0  0  0  0  0  0  0  0  0
  139.2425   68.3592  227.1510 H   0  0  0  0  0  0  0  0  0  0  0  0
  140.0940   69.2982  229.2847 H   0  0  0  0  0  0  0  0  0  0  0  0
  141.2515   71.5017  229.2397 H   0  0  0  0  0  0  0  0  0  0  0  0
  141.5356   72.7312  227.1253 H   0  0  0  0  0  0  0  0  0  0  0  0
  1  2  2  0
  2  3  1  0
  3  4  1  0
  4  5  1  0
  5  6  2  0
  5  7  1  0
  7  8  1  0
  8  9  1  0
  9 10  1  0
 10 11  1  0
 11 12  1  0
 12 13  1  0
 13 14  1  0
 14 15  2  0
 15 16  1  0
 16 17  2  0
 17 18  1  0
 18 19  2  0
  2 20  1  0
 20 21  2  0
 21 22  1  0
 22 23  2  0
 23 24  1  0
 24 25  2  0
 25 26  1  0
 26 27  2  0
 27 28  1  0
 28 29  2  0
 12  7  1  0
 19 14  1  0
 29 20  1  0
 28 23  1  0
  3 30  1  0
  4 31  1  0
  4 32  1  0
  8 33  1  0
  8 34  1  0
  9 35  1  0
  9 36  1  0
 10 37  1  0
 10 38  1  0
 11 39  1  0
 11 40  1  0
 12 41  1  6
 13 42  1  0
 13 43  1  0
 15 44  1  0
 16 45  1  0
 17 46  1  0
 18 47  1  0
 19 48  1  0
 21 49  1  0
 24 50  1  0
 25 51  1  0
 26 52  1  0
 27 53  1  0
M  END
>  <smiles>  (6) 
O=C(NCC(=O)N1CCCCC1Cc1ccccc1)c1cnc2ccccc2n1

>  <score_type>  (6) 
oracle

>  <origin>  (6) 
autodockgpu

>  <m_score__min__energy>  (6) 
-9.1999999999999993

>  <m_primary>  (6) 
energy

>  <rmsd>  (6) 
2.3734253885439394

>  <m_score__min__rmsd>  (6) 
2.3734253885439394

>  <meeko>  (6) 
{"free_energy": -8.95, "intermolecular_energy": -10.74, "internal_energy": -2.17, "cluster_size": 46, "cluster_id": 1, "rank_in_cluster": 4}

>  <energy>  (6) 
-8.94

>  <cluster_rmsd>  (6) 
1.82

>  <cluster>  (6) 
1

$$$$

     RDKit          3D

 53 56  0  0  0  0  0  0  0  0999 V2000
  140.5710   71.5360  221.3390 O   0  0  0  0  0  0  0  0  0  0  0  0
  139.9090   71.9890  222.3120 C   0  0  0  0  0  0  0  0  0  0  0  0
  139.0880   73.1560  222.2080 N   0  0  0  0  0  0  0  0  0  0  0  0
  138.9520   73.9090  220.9760 C   0  0  0  0  0  0  0  0  0  0  0  0
  139.4090   75.3030  221.2790 C   0  0  0  0  0  0  0  0  0  0  0  0
  138.6690   76.0000  222.0240 O   0  0  0  0  0  0  0  0  0  0  0  0
  140.6430   75.8120  220.7370 N   0  0  0  0  0  0  0  0  0  0  0  0
  141.8770   75.1230  221.1040 C   0  0  0  0  0  0  0  0  0  0  0  0
  142.9320   75.2790  220.0360 C   0  0  0  0  0  0  0  0  0  0  0  0
  143.0840   76.7510  219.7200 C   0  0  0  0  0  0  0  0  0  0  0  0
  141.8080   77.2340  219.0930 C   0  0  0  0  0  0  0  0  0  0  0  0
  140.5710   76.9470  219.8860 C   0  0  2  0  0  0  0  0  0  0  0  0
  140.0980   78.2120  220.5210 C   0  0  0  0  0  0  0  0  0  0  0  0
  140.9540   78.8000  221.5420 C   0  0  0  0  0  0  0  0  0  0  0  0
  140.9850   78.2280  222.7960 C   0  0  0  0  0  0  0  0  0  0  0  0
  141.7690   78.7280  223.8180 C   0  0  0  0  0  0  0  0  0  0  0  0
  142.5670   79.8340  223.6290 C   0  0  0  0  0  0  0  0  0  0  0  0
  142.5520   80.4230  222.3800 C   0  0  0  0  0  0  0  0  0  0  0  0
  141.7610   79.9150  221.3570 C   0  0  0  0  0  0  0  0  0  0  0  0
  139.9790   71.2920  223.6090 C   0  0  0  0  0  0  0  0  0  0  0  0
  139.5470   69.9880  223.7160 C   0  0  0  0  0  0  0  0  0  0  0  0
  139.6080   69.3410  224.9020 N   0  0  0  0  0  0  0  0  0  0  0  0
  140.0920   69.9600  226.0040 C   0  0  0  0  0  0  0  0  0  0  0  0
  140.1370   69.2630  227.1970 C   0  0  0  0  0  0  0  0  0  0  0  0
  140.6200   69.8570  228.3340 C   0  0  0  0  0  0  0  0  0  0  0  0
  141.0580   71.1640  228.2450 C   0  0  0  0  0  0  0  0  0  0  0  0
  141.0100   71.8540  227.0490 C   0  0  0  0  0  0  0  0  0  0  0  0
  140.5240   71.2600  225.9050 C   0  0  0  0  0  0  0  0  0  0  0  0
  140.4570   71.8890  224.7160 N   0  0  0  0  0  0  0  0  0  0  0  0
  138.5700   73.4540  223.0890 H   0  0  0  0  0  0  0  0  0  0  0  0
  139.5791   73.4660  220.1883 H   0  0  0  0  0  0  0  0  0  0  0  0
  137.9126   73.8997  220.6159 H   0  0  0  0  0  0  0  0  0  0  0  0
  142.2562   75.5452  222.0463 H   0  0  0  0  0  0  0  0  0  0  0  0
  141.6551   74.0517  221.2183 H   0  0  0  0  0  0  0  0  0  0  0  0
  143.8894   74.8770  220.3991 H   0  0  0  0  0  0  0  0  0  0  0  0
  142.6352   74.7287  219.1309 H   0  0  0  0  0  0  0  0  0  0  0  0
  143.2787   77.3118  220.6460 H   0  0  0  0  0  0  0  0  0  0  0  0
  143.9267   76.9050  219.0300 H   0  0  0  0  0  0  0  0  0  0  0  0
  141.8835   78.3232  218.9589 H   0  0  0  0  0  0  0  0  0  0  0  0
  141.7021   76.6863  218.1449 H   0  0  0  0  0  0  0  0  0  0  0  0
  139.7863   76.6103  219.1925 H   0  0  0  0  0  0  0  0  0  0  0  0
  139.9740   78.9580  219.7222 H   0  0  0  0  0  0  0  0  0  0  0  0
  139.1721   77.9381  221.0479 H   0  0  0  0  0  0  0  0  0  0  0  0
  140.3632   77.3416  222.9899 H   0  0  0  0  0  0  0  0  0  0  0  0
  141.7554   78.2335  224.8005 H   0  0  0  0  0  0  0  0  0  0  0  0
  143.1922   80.2330  224.4414 H   0  0  0  0  0  0  0  0  0  0  0  0
  143.1765   81.3088  222.1920 H   0  0  0  0  0  0  0  0  0  0  0  0
  141.7743   80.4091  220.3743 H   0  0  0  0  0  0  0  0  0  0  0  0
  139.1498   69.4697  222.8308 H   0  0  0  0  0  0  0  0  0  0  0  0
  139.7821   68.2225  227.2342 H   0  0  0  0  0  0  0  0  0  0  0  0
  140.6576   69.3099  229.2876 H   0  0  0  0  0  0  0  0  0  0  0  0
  141.4519   71.6642  229.1420 H   0  0  0  0  0  0  0  0  0  0  0  0
  141.3655   72.8942  227.0096 H   0  0  0  0  0  0  0  0  0  0  0  0
  1  2  2  0
  2  3  1  0
  3  4  1  0
  4  5  1  0
  5  6  2  0
  5  7  1  0
  7  8  1  0
  8  9  1  0
  9 10  1  0
 10 11  1  0
 11 12  1  0
 12 13  1  0
 13 14  1  0
 14 15  2  0
 15 16  1  0
 16 17  2  0
 17 18  1  0
 18 19  2  0
  2 20  1  0
 20 21  2  0
 21 22  1  0
 22 23  2  0
 23 24  1  0
 24 25  2  0
 25 26  1  0
 26 27  2  0
 27 28  1  0
 28 29  2  0
 12  7  1  0
 19 14  1  0
 29 20  1  0
 28 23  1  0
  3 30  1  0
  4 31  1  0
  4 32  1  0
  8 33  1  0
  8 34  1  0
  9 35  1  0
  9 36  1  0
 10 37  1  0
 10 38  1  0
 11 39  1  0
 11 40  1  0
 12 41  1  6
 13 42  1  0
 13 43  1  0
 15 44  1  0
 16 45  1  0
 17 46  1  0
 18 47  1  0
 19 48  1  0
 21 49  1  0
 24 50  1  0
 25 51  1  0
 26 52  1  0
 27 53  1  0
M  END
>  <smiles>  (7) 
O=C(NCC(=O)N1CCCCC1Cc1ccccc1)c1cnc2ccccc2n1

>  <score_type>  (7) 
oracle

>  <origin>  (7) 
autodockgpu

>  <m_score__min__energy>  (7) 
-9.1999999999999993

>  <m_primary>  (7) 
energy

>  <rmsd>  (7) 
2.2363811955662647

>  <m_score__min__rmsd>  (7) 
2.2363811955662647

>  <meeko>  (7) 
{"free_energy": -8.79, "intermolecular_energy": -10.58, "internal_energy": -1.79, "cluster_size": 46, "cluster_id": 1, "rank_in_cluster": 37}

>  <energy>  (7) 
-8.94

>  <cluster_rmsd>  (7) 
1.67

>  <cluster>  (7) 
1

$$$$

     RDKit          3D

 53 56  0  0  0  0  0  0  0  0999 V2000
  139.9460   71.5340  220.9610 O   0  0  0  0  0  0  0  0  0  0  0  0
  139.8700   72.1690  222.0480 C   0  0  0  0  0  0  0  0  0  0  0  0
  139.8250   73.5980  222.1030 N   0  0  0  0  0  0  0  0  0  0  0  0
  139.8640   74.4280  220.9140 C   0  0  0  0  0  0  0  0  0  0  0  0
  140.8190   75.5430  221.2070 C   0  0  0  0  0  0  0  0  0  0  0  0
  141.2960   75.5980  222.3730 O   0  0  0  0  0  0  0  0  0  0  0  0
  141.1690   76.5050  220.1930 N   0  0  0  0  0  0  0  0  0  0  0  0
  142.5270   76.4560  219.6580 C   0  0  0  0  0  0  0  0  0  0  0  0
  142.5790   76.9860  218.2440 C   0  0  0  0  0  0  0  0  0  0  0  0
  141.9210   78.3480  218.2160 C   0  0  0  0  0  0  0  0  0  0  0  0
  140.4620   78.1750  218.5220 C   0  0  0  0  0  0  0  0  0  0  0  0
  140.1700   77.4290  219.7880 C   0  0  2  0  0  0  0  0  0  0  0  0
  139.7140   78.3980  220.8270 C   0  0  0  0  0  0  0  0  0  0  0  0
  140.7380   78.9790  221.6840 C   0  0  0  0  0  0  0  0  0  0  0  0
  140.8700   78.5120  222.9750 C   0  0  0  0  0  0  0  0  0  0  0  0
  141.8140   79.0120  223.8500 C   0  0  0  0  0  0  0  0  0  0  0  0
  142.6800   80.0140  223.4690 C   0  0  0  0  0  0  0  0  0  0  0  0
  142.5650   80.4970  222.1800 C   0  0  0  0  0  0  0  0  0  0  0  0
  141.6120   79.9880  221.3060 C   0  0  0  0  0  0  0  0  0  0  0  0
  139.8230   71.4140  223.3130 C   0  0  0  0  0  0  0  0  0  0  0  0
  139.2240   70.1740  223.3560 C   0  0  0  0  0  0  0  0  0  0  0  0
  139.1770   69.4750  224.5120 N   0  0  0  0  0  0  0  0  0  0  0  0
  139.7160   69.9790  225.6480 C   0  0  0  0  0  0  0  0  0  0  0  0
  139.6470   69.2310  226.8100 C   0  0  0  0  0  0  0  0  0  0  0  0
  140.1800   69.7090  227.9780 C   0  0  0  0  0  0  0  0  0  0  0  0
  140.7860   70.9510  227.9540 C   0  0  0  0  0  0  0  0  0  0  0  0
  140.8510   71.6900  226.7890 C   0  0  0  0  0  0  0  0  0  0  0  0
  140.3150   71.2140  225.6130 C   0  0  0  0  0  0  0  0  0  0  0  0
  140.3530   71.8970  224.4520 N   0  0  0  0  0  0  0  0  0  0  0  0
  139.7610   74.0350  223.0720 H   0  0  0  0  0  0  0  0  0  0  0  0
  140.2165   73.8419  220.0525 H   0  0  0  0  0  0  0  0  0  0  0  0
  138.8647   74.8144  220.6649 H   0  0  0  0  0  0  0  0  0  0  0  0
  143.1850   77.0664  220.2940 H   0  0  0  0  0  0  0  0  0  0  0  0
  142.8589   75.4073  219.6483 H   0  0  0  0  0  0  0  0  0  0  0  0
  143.6263   77.0734  217.9190 H   0  0  0  0  0  0  0  0  0  0  0  0
  142.0520   76.2994  217.5651 H   0  0  0  0  0  0  0  0  0  0  0  0
  142.3843   79.0001  218.9711 H   0  0  0  0  0  0  0  0  0  0  0  0
  142.0476   78.8088  217.2252 H   0  0  0  0  0  0  0  0  0  0  0  0
  140.0081   79.1739  218.6009 H   0  0  0  0  0  0  0  0  0  0  0  0
  140.0432   77.5715  217.7032 H   0  0  0  0  0  0  0  0  0  0  0  0
  139.3395   76.7335  219.5967 H   0  0  0  0  0  0  0  0  0  0  0  0
  139.2061   79.2251  220.3093 H   0  0  0  0  0  0  0  0  0  0  0  0
  139.0744   77.8118  221.5032 H   0  0  0  0  0  0  0  0  0  0  0  0
  140.1987   77.7119  223.3203 H   0  0  0  0  0  0  0  0  0  0  0  0
  141.8759   78.6032  224.8694 H   0  0  0  0  0  0  0  0  0  0  0  0
  143.4332   80.4135  224.1640 H   0  0  0  0  0  0  0  0  0  0  0  0
  143.2386   81.2974  221.8399 H   0  0  0  0  0  0  0  0  0  0  0  0
  141.5489   80.3963  220.2865 H   0  0  0  0  0  0  0  0  0  0  0  0
  138.7808   69.7498  222.4430 H   0  0  0  0  0  0  0  0  0  0  0  0
  139.1603   68.2446  226.7958 H   0  0  0  0  0  0  0  0  0  0  0  0
  140.1273   69.1221  228.9069 H   0  0  0  0  0  0  0  0  0  0  0  0
  141.2236   71.3575  228.8777 H   0  0  0  0  0  0  0  0  0  0  0  0
  141.3392   72.6756  226.8006 H   0  0  0  0  0  0  0  0  0  0  0  0
  1  2  2  0
  2  3  1  0
  3  4  1  0
  4  5  1  0
  5  6  2  0
  5  7  1  0
  7  8  1  0
  8  9  1  0
  9 10  1  0
 10 11  1  0
 11 12  1  0
 12 13  1  0
 13 14  1  0
 14 15  2  0
 15 16  1  0
 16 17  2  0
 17 18  1  0
 18 19  2  0
  2 20  1  0
 20 21  2  0
 21 22  1  0
 22 23  2  0
 23 24  1  0
 24 25  2  0
 25 26  1  0
 26 27  2  0
 27 28  1  0
 28 29  2  0
 12  7  1  0
 19 14  1  0
 29 20  1  0
 28 23  1  0
  3 30  1  0
  4 31  1  0
  4 32  1  0
  8 33  1  0
  8 34  1  0
  9 35  1  0
  9 36  1  0
 10 37  1  0
 10 38  1  0
 11 39  1  0
 11 40  1  0
 12 41  1  6
 13 42  1  0
 13 43  1  0
 15 44  1  0
 16 45  1  0
 17 46  1  0
 18 47  1  0
 19 48  1  0
 21 49  1  0
 24 50  1  0
 25 51  1  0
 26 52  1  0
 27 53  1  0
M  END
>  <smiles>  (8) 
O=C(NCC(=O)N1CCCCC1Cc1ccccc1)c1cnc2ccccc2n1

>  <score_type>  (8) 
oracle

>  <origin>  (8) 
autodockgpu

>  <m_score__min__energy>  (8) 
-9.1999999999999993

>  <m_primary>  (8) 
energy

>  <rmsd>  (8) 
2.2566926972339894

>  <m_score__min__rmsd>  (8) 
2.2566926972339894

>  <meeko>  (8) 
{"free_energy": -8.33, "intermolecular_energy": -10.12, "internal_energy": -2.23, "cluster_size": 46, "cluster_id": 1, "rank_in_cluster": 42}

>  <energy>  (8) 
-8.94

>  <cluster_rmsd>  (8) 
1.83

>  <cluster>  (8) 
1

$$$$

     RDKit          3D

 53 56  0  0  0  0  0  0  0  0999 V2000
  139.1170   71.0200  221.3620 O   0  0  0  0  0  0  0  0  0  0  0  0
  139.3510   71.7410  222.3690 C   0  0  0  0  0  0  0  0  0  0  0  0
  139.3840   73.1700  222.3020 N   0  0  0  0  0  0  0  0  0  0  0  0
  139.1490   73.9010  221.0720 C   0  0  0  0  0  0  0  0  0  0  0  0
  140.0650   75.0850  221.1000 C   0  0  0  0  0  0  0  0  0  0  0  0
  140.7030   75.2910  222.1680 O   0  0  0  0  0  0  0  0  0  0  0  0
  140.2040   75.9430  219.9510 N   0  0  0  0  0  0  0  0  0  0  0  0
  140.0510   75.3340  218.6320 C   0  0  0  0  0  0  0  0  0  0  0  0
  139.5610   76.3390  217.6170 C   0  0  0  0  0  0  0  0  0  0  0  0
  140.4620   77.5540  217.6680 C   0  0  0  0  0  0  0  0  0  0  0  0
  140.2840   78.2180  219.0030 C   0  0  0  0  0  0  0  0  0  0  0  0
  140.4780   77.3170  220.1830 C   0  0  2  0  0  0  0  0  0  0  0  0
  141.7940   77.6240  220.8160 C   0  0  0  0  0  0  0  0  0  0  0  0
  141.7990   78.6110  221.8860 C   0  0  0  0  0  0  0  0  0  0  0  0
  142.1680   79.9070  221.5950 C   0  0  0  0  0  0  0  0  0  0  0  0
  142.2000   80.9000  222.5550 C   0  0  0  0  0  0  0  0  0  0  0  0
  141.8610   80.6390  223.8640 C   0  0  0  0  0  0  0  0  0  0  0  0
  141.4890   79.3460  224.1780 C   0  0  0  0  0  0  0  0  0  0  0  0
  141.4590   78.3530  223.2070 C   0  0  0  0  0  0  0  0  0  0  0  0
  139.6020   71.0930  223.6690 C   0  0  0  0  0  0  0  0  0  0  0  0
  139.3070   69.7580  223.8420 C   0  0  0  0  0  0  0  0  0  0  0  0
  139.5350   69.1550  225.0310 N   0  0  0  0  0  0  0  0  0  0  0  0
  140.0530   69.8490  226.0710 C   0  0  0  0  0  0  0  0  0  0  0  0
  140.2700   69.1940  227.2700 C   0  0  0  0  0  0  0  0  0  0  0  0
  140.7940   69.8640  228.3450 C   0  0  0  0  0  0  0  0  0  0  0  0
  141.0960   71.2030  228.1890 C   0  0  0  0  0  0  0  0  0  0  0  0
  140.8760   71.8490  226.9880 C   0  0  0  0  0  0  0  0  0  0  0  0
  140.3490   71.1800  225.9060 C   0  0  0  0  0  0  0  0  0  0  0  0
  140.1180   71.7640  224.7150 N   0  0  0  0  0  0  0  0  0  0  0  0
  139.5910   73.6850  223.2110 H   0  0  0  0  0  0  0  0  0  0  0  0
  139.3755   73.2657  220.2031 H   0  0  0  0  0  0  0  0  0  0  0  0
  138.0975   74.2132  220.9893 H   0  0  0  0  0  0  0  0  0  0  0  0
  141.0241   74.9393  218.3045 H   0  0  0  0  0  0  0  0  0  0  0  0
  139.3084   74.5259  218.7068 H   0  0  0  0  0  0  0  0  0  0  0  0
  139.5932   75.8956  216.6109 H   0  0  0  0  0  0  0  0  0  0  0  0
  138.5248   76.6293  217.8450 H   0  0  0  0  0  0  0  0  0  0  0  0
  141.5103   77.2450  217.5432 H   0  0  0  0  0  0  0  0  0  0  0  0
  140.2014   78.2530  216.8596 H   0  0  0  0  0  0  0  0  0  0  0  0
  141.0118   79.0395  219.0764 H   0  0  0  0  0  0  0  0  0  0  0  0
  139.2390   78.5593  219.0423 H   0  0  0  0  0  0  0  0  0  0  0  0
  139.6943   77.5412  220.9217 H   0  0  0  0  0  0  0  0  0  0  0  0
  142.1905   76.6848  221.2292 H   0  0  0  0  0  0  0  0  0  0  0  0
  142.3997   78.0701  220.0134 H   0  0  0  0  0  0  0  0  0  0  0  0
  142.4470   80.1595  220.5614 H   0  0  0  0  0  0  0  0  0  0  0  0
  142.5019   81.9182  222.2684 H   0  0  0  0  0  0  0  0  0  0  0  0
  141.8854   81.4288  224.6293 H   0  0  0  0  0  0  0  0  0  0  0  0
  141.2121   79.0989  225.2135 H   0  0  0  0  0  0  0  0  0  0  0  0
  141.1576   77.3344  223.4927 H   0  0  0  0  0  0  0  0  0  0  0  0
  138.8835   69.1793  223.0079 H   0  0  0  0  0  0  0  0  0  0  0  0
  140.0200   68.1267  227.3615 H   0  0  0  0  0  0  0  0  0  0  0  0
  140.9687   69.3512  229.3024 H   0  0  0  0  0  0  0  0  0  0  0  0
  141.5187   71.7642  229.0354 H   0  0  0  0  0  0  0  0  0  0  0  0
  141.1261   72.9161  226.8944 H   0  0  0  0  0  0  0  0  0  0  0  0
  1  2  2  0
  2  3  1  0
  3  4  1  0
  4  5  1  0
  5  6  2  0
  5  7  1  0
  7  8  1  0
  8  9  1  0
  9 10  1  0
 10 11  1  0
 11 12  1  0
 12 13  1  0
 13 14  1  0
 14 15  2  0
 15 16  1  0
 16 17  2  0
 17 18  1  0
 18 19  2  0
  2 20  1  0
 20 21  2  0
 21 22  1  0
 22 23  2  0
 23 24  1  0
 24 25  2  0
 25 26  1  0
 26 27  2  0
 27 28  1  0
 28 29  2  0
 12  7  1  0
 19 14  1  0
 29 20  1  0
 28 23  1  0
  3 30  1  0
  4 31  1  0
  4 32  1  0
  8 33  1  0
  8 34  1  0
  9 35  1  0
  9 36  1  0
 10 37  1  0
 10 38  1  0
 11 39  1  0
 11 40  1  0
 12 41  1  1
 13 42  1  0
 13 43  1  0
 15 44  1  0
 16 45  1  0
 17 46  1  0
 18 47  1  0
 19 48  1  0
 21 49  1  0
 24 50  1  0
 25 51  1  0
 26 52  1  0
 27 53  1  0
M  END
>  <smiles>  (9) 
O=C(NCC(=O)N1CCCCC1Cc1ccccc1)c1cnc2ccccc2n1

>  <score_type>  (9) 
oracle

>  <origin>  (9) 
autodockgpu

>  <m_score__min__energy>  (9) 
-9.1999999999999993

>  <m_primary>  (9) 
energy

>  <rmsd>  (9) 
1.3952097441469293

>  <m_score__min__rmsd>  (9) 
1.3952097441469293

>  <meeko>  (9) 
{"free_energy": -8.2, "intermolecular_energy": -9.99, "internal_energy": -2.06, "cluster_size": 46, "cluster_id": 1, "rank_in_cluster": 44}

>  <energy>  (9) 
-8.94

>  <cluster_rmsd>  (9) 
1.84

>  <cluster>  (9) 
1

$$$$

     RDKit          3D

 53 56  0  0  0  0  0  0  0  0999 V2000
  140.7610   71.3950  221.3010 O   0  0  0  0  0  0  0  0  0  0  0  0
  140.3210   72.0240  222.3000 C   0  0  0  0  0  0  0  0  0  0  0  0
  139.9270   73.3990  222.2330 N   0  0  0  0  0  0  0  0  0  0  0  0
  140.0040   74.1750  221.0100 C   0  0  0  0  0  0  0  0  0  0  0  0
  140.1550   75.6060  221.4250 C   0  0  0  0  0  0  0  0  0  0  0  0
  139.6690   75.9330  222.5410 O   0  0  0  0  0  0  0  0  0  0  0  0
  140.8290   76.5560  220.5780 N   0  0  0  0  0  0  0  0  0  0  0  0
  142.2200   76.2820  220.2290 C   0  0  0  0  0  0  0  0  0  0  0  0
  142.5860   76.9010  218.9020 C   0  0  0  0  0  0  0  0  0  0  0  0
  142.2030   78.3650  218.9310 C   0  0  0  0  0  0  0  0  0  0  0  0
  140.7080   78.4600  219.0160 C   0  0  0  0  0  0  0  0  0  0  0  0
  140.0920   77.6890  220.1420 C   0  0  2  0  0  0  0  0  0  0  0  0
  139.6680   78.6440  221.2080 C   0  0  0  0  0  0  0  0  0  0  0  0
  140.7140   79.1900  222.0610 C   0  0  0  0  0  0  0  0  0  0  0  0
  140.9270   78.6230  223.3000 C   0  0  0  0  0  0  0  0  0  0  0  0
  141.8980   79.0850  224.1680 C   0  0  0  0  0  0  0  0  0  0  0  0
  142.7080   80.1460  223.8310 C   0  0  0  0  0  0  0  0  0  0  0  0
  142.5120   80.7300  222.5950 C   0  0  0  0  0  0  0  0  0  0  0  0
  141.5340   80.2590  221.7280 C   0  0  0  0  0  0  0  0  0  0  0  0
  140.2040   71.3220  223.5910 C   0  0  0  0  0  0  0  0  0  0  0  0
  139.5860   70.0920  223.6530 C   0  0  0  0  0  0  0  0  0  0  0  0
  139.4750   69.4400  224.8330 N   0  0  0  0  0  0  0  0  0  0  0  0
  139.9650   69.9830  225.9720 C   0  0  0  0  0  0  0  0  0  0  0  0
  139.8300   69.2840  227.1580 C   0  0  0  0  0  0  0  0  0  0  0  0
  140.3130   69.8020  228.3310 C   0  0  0  0  0  0  0  0  0  0  0  0
  140.9360   71.0340  228.2870 C   0  0  0  0  0  0  0  0  0  0  0  0
  141.0660   71.7260  227.0990 C   0  0  0  0  0  0  0  0  0  0  0  0
  140.5810   71.2090  225.9180 C   0  0  0  0  0  0  0  0  0  0  0  0
  140.6850   71.8440  224.7350 N   0  0  0  0  0  0  0  0  0  0  0  0
  139.5690   73.8360  223.1350 H   0  0  0  0  0  0  0  0  0  0  0  0
  140.8719   73.8586  220.4129 H   0  0  0  0  0  0  0  0  0  0  0  0
  139.1063   74.0324  220.3905 H   0  0  0  0  0  0  0  0  0  0  0  0
  142.8737   76.6972  221.0102 H   0  0  0  0  0  0  0  0  0  0  0  0
  142.3496   75.1925  220.1508 H   0  0  0  0  0  0  0  0  0  0  0  0
  143.6688   76.8043  218.7339 H   0  0  0  0  0  0  0  0  0  0  0  0
  142.0523   76.3886  218.0880 H   0  0  0  0  0  0  0  0  0  0  0  0
  142.6569   78.8508  219.8074 H   0  0  0  0  0  0  0  0  0  0  0  0
  142.5634   78.8688  218.0220 H   0  0  0  0  0  0  0  0  0  0  0  0
  140.4391   79.5194  219.1395 H   0  0  0  0  0  0  0  0  0  0  0  0
  140.3167   78.0177  218.0879 H   0  0  0  0  0  0  0  0  0  0  0  0
  139.1873   77.1894  219.7653 H   0  0  0  0  0  0  0  0  0  0  0  0
  139.1665   79.4900  220.7152 H   0  0  0  0  0  0  0  0  0  0  0  0
  139.0290   78.0544  221.8818 H   0  0  0  0  0  0  0  0  0  0  0  0
  140.3015   77.7724  223.6084 H   0  0  0  0  0  0  0  0  0  0  0  0
  142.0260   78.5965  225.1452 H   0  0  0  0  0  0  0  0  0  0  0  0
  143.4820   80.5146  224.5202 H   0  0  0  0  0  0  0  0  0  0  0  0
  143.1398   81.5811  222.2924 H   0  0  0  0  0  0  0  0  0  0  0  0
  141.4060   80.7469  220.7505 H   0  0  0  0  0  0  0  0  0  0  0  0
  139.1803   69.6374  222.7371 H   0  0  0  0  0  0  0  0  0  0  0  0
  139.3306   68.3039  227.1595 H   0  0  0  0  0  0  0  0  0  0  0  0
  140.2078   69.2535  229.2787 H   0  0  0  0  0  0  0  0  0  0  0  0
  141.3354   71.4713  229.2140 H   0  0  0  0  0  0  0  0  0  0  0  0
  141.5651   72.7062  227.0958 H   0  0  0  0  0  0  0  0  0  0  0  0
  1  2  2  0
  2  3  1  0
  3  4  1  0
  4  5  1  0
  5  6  2  0
  5  7  1  0
  7  8  1  0
  8  9  1  0
  9 10  1  0
 10 11  1  0
 11 12  1  0
 12 13  1  0
 13 14  1  0
 14 15  2  0
 15 16  1  0
 16 17  2  0
 17 18  1  0
 18 19  2  0
  2 20  1  0
 20 21  2  0
 21 22  1  0
 22 23  2  0
 23 24  1  0
 24 25  2  0
 25 26  1  0
 26 27  2  0
 27 28  1  0
 28 29  2  0
 12  7  1  0
 19 14  1  0
 29 20  1  0
 28 23  1  0
  3 30  1  0
  4 31  1  0
  4 32  1  0
  8 33  1  0
  8 34  1  0
  9 35  1  0
  9 36  1  0
 10 37  1  0
 10 38  1  0
 11 39  1  0
 11 40  1  0
 12 41  1  6
 13 42  1  0
 13 43  1  0
 15 44  1  0
 16 45  1  0
 17 46  1  0
 18 47  1  0
 19 48  1  0
 21 49  1  0
 24 50  1  0
 25 51  1  0
 26 52  1  0
 27 53  1  0
M  END
>  <smiles>  (10) 
O=C(NCC(=O)N1CCCCC1Cc1ccccc1)c1cnc2ccccc2n1

>  <score_type>  (10) 
oracle

>  <origin>  (10) 
autodockgpu

>  <m_score__min__energy>  (10) 
-9.1999999999999993

>  <m_primary>  (10) 
energy

>  <rmsd>  (10) 
2.3824616534123466

>  <m_score__min__rmsd>  (10) 
2.3824616534123466

>  <meeko>  (10) 
{"free_energy": -8.9, "intermolecular_energy": -10.69, "internal_energy": -2.19, "cluster_size": 46, "cluster_id": 1, "rank_in_cluster": 18}

>  <energy>  (10) 
-8.93

>  <cluster_rmsd>  (10) 
1.83

>  <cluster>  (10) 
1

$$$$

     RDKit          3D

 53 56  0  0  0  0  0  0  0  0999 V2000
  140.9300   71.5000  221.3780 O   0  0  0  0  0  0  0  0  0  0  0  0
  140.4100   72.1050  222.3540 C   0  0  0  0  0  0  0  0  0  0  0  0
  139.9760   73.4660  222.2740 N   0  0  0  0  0  0  0  0  0  0  0  0
  140.0990   74.2560  221.0640 C   0  0  0  0  0  0  0  0  0  0  0  0
  140.3170   75.6720  221.5020 C   0  0  0  0  0  0  0  0  0  0  0  0
  140.0060   75.9580  222.6900 O   0  0  0  0  0  0  0  0  0  0  0  0
  140.8580   76.6530  220.5970 N   0  0  0  0  0  0  0  0  0  0  0  0
  142.2380   76.4740  220.1540 C   0  0  0  0  0  0  0  0  0  0  0  0
  142.4640   77.0940  218.7960 C   0  0  0  0  0  0  0  0  0  0  0  0
  141.9780   78.5260  218.8340 C   0  0  0  0  0  0  0  0  0  0  0  0
  140.4890   78.5150  219.0230 C   0  0  0  0  0  0  0  0  0  0  0  0
  140.0110   77.7210  220.2000 C   0  0  2  0  0  0  0  0  0  0  0  0
  139.5940   78.6620  221.2800 C   0  0  0  0  0  0  0  0  0  0  0  0
  140.6530   79.3400  222.0140 C   0  0  0  0  0  0  0  0  0  0  0  0
  140.7920   80.7050  221.8750 C   0  0  0  0  0  0  0  0  0  0  0  0
  141.7730   81.4190  222.5360 C   0  0  0  0  0  0  0  0  0  0  0  0
  142.6690   80.7940  223.3740 C   0  0  0  0  0  0  0  0  0  0  0  0
  142.5480   79.4260  223.5270 C   0  0  0  0  0  0  0  0  0  0  0  0
  141.5590   78.7150  222.8600 C   0  0  0  0  0  0  0  0  0  0  0  0
  140.2400   71.3870  223.6300 C   0  0  0  0  0  0  0  0  0  0  0  0
  139.5960   70.1690  223.6560 C   0  0  0  0  0  0  0  0  0  0  0  0
  139.4360   69.5040  224.8220 N   0  0  0  0  0  0  0  0  0  0  0  0
  139.9030   70.0200  225.9830 C   0  0  0  0  0  0  0  0  0  0  0  0
  139.7190   69.3060  227.1540 C   0  0  0  0  0  0  0  0  0  0  0  0
  140.1780   69.7970  228.3490 C   0  0  0  0  0  0  0  0  0  0  0  0
  140.8270   71.0170  228.3410 C   0  0  0  0  0  0  0  0  0  0  0  0
  141.0070   71.7220  227.1680 C   0  0  0  0  0  0  0  0  0  0  0  0
  140.5460   71.2330  225.9650 C   0  0  0  0  0  0  0  0  0  0  0  0
  140.6980   71.8820  224.7950 N   0  0  0  0  0  0  0  0  0  0  0  0
  139.5500   73.8830  223.1570 H   0  0  0  0  0  0  0  0  0  0  0  0
  140.9544   73.9067  220.4672 H   0  0  0  0  0  0  0  0  0  0  0  0
  139.1994   74.1671  220.4372 H   0  0  0  0  0  0  0  0  0  0  0  0
  142.9122   76.9495  220.8815 H   0  0  0  0  0  0  0  0  0  0  0  0
  142.4417   75.3955  220.0811 H   0  0  0  0  0  0  0  0  0  0  0  0
  143.5365   77.0727  218.5525 H   0  0  0  0  0  0  0  0  0  0  0  0
  141.9138   76.5300  218.0284 H   0  0  0  0  0  0  0  0  0  0  0  0
  142.4549   79.0583  219.6702 H   0  0  0  0  0  0  0  0  0  0  0  0
  142.2365   79.0384  217.8956 H   0  0  0  0  0  0  0  0  0  0  0  0
  140.1527   79.5544  219.1520 H   0  0  0  0  0  0  0  0  0  0  0  0
  140.0671   78.0300  218.1304 H   0  0  0  0  0  0  0  0  0  0  0  0
  139.1216   77.1499  219.8954 H   0  0  0  0  0  0  0  0  0  0  0  0
  138.9620   79.4358  220.8196 H   0  0  0  0  0  0  0  0  0  0  0  0
  139.0882   78.0322  222.0267 H   0  0  0  0  0  0  0  0  0  0  0  0
  140.0973   81.2445  221.2145 H   0  0  0  0  0  0  0  0  0  0  0  0
  141.8394   82.5072  222.3900 H   0  0  0  0  0  0  0  0  0  0  0  0
  143.4504   81.3613  223.9009 H   0  0  0  0  0  0  0  0  0  0  0  0
  143.2464   78.8916  224.1878 H   0  0  0  0  0  0  0  0  0  0  0  0
  141.4917   77.6268  223.0060 H   0  0  0  0  0  0  0  0  0  0  0  0
  139.2096   69.7351  222.7220 H   0  0  0  0  0  0  0  0  0  0  0  0
  139.2002   68.3365  227.1259 H   0  0  0  0  0  0  0  0  0  0  0  0
  140.0341   69.2373  229.2849 H   0  0  0  0  0  0  0  0  0  0  0  0
  141.2067   71.4335  229.2857 H   0  0  0  0  0  0  0  0  0  0  0  0
  141.5274   72.6908  227.1940 H   0  0  0  0  0  0  0  0  0  0  0  0
  1  2  2  0
  2  3  1  0
  3  4  1  0
  4  5  1  0
  5  6  2  0
  5  7  1  0
  7  8  1  0
  8  9  1  0
  9 10  1  0
 10 11  1  0
 11 12  1  0
 12 13  1  0
 13 14  1  0
 14 15  2  0
 15 16  1  0
 16 17  2  0
 17 18  1  0
 18 19  2  0
  2 20  1  0
 20 21  2  0
 21 22  1  0
 22 23  2  0
 23 24  1  0
 24 25  2  0
 25 26  1  0
 26 27  2  0
 27 28  1  0
 28 29  2  0
 12  7  1  0
 19 14  1  0
 29 20  1  0
 28 23  1  0
  3 30  1  0
  4 31  1  0
  4 32  1  0
  8 33  1  0
  8 34  1  0
  9 35  1  0
  9 36  1  0
 10 37  1  0
 10 38  1  0
 11 39  1  0
 11 40  1  0
 12 41  1  6
 13 42  1  0
 13 43  1  0
 15 44  1  0
 16 45  1  0
 17 46  1  0
 18 47  1  0
 19 48  1  0
 21 49  1  0
 24 50  1  0
 25 51  1  0
 26 52  1  0
 27 53  1  0
M  END
>  <smiles>  (11) 
O=C(NCC(=O)N1CCCCC1Cc1ccccc1)c1cnc2ccccc2n1

>  <score_type>  (11) 
oracle

>  <origin>  (11) 
autodockgpu

>  <m_score__min__energy>  (11) 
-9.1999999999999993

>  <m_primary>  (11) 
energy

>  <rmsd>  (11) 
2.429689380753405

>  <m_score__min__rmsd>  (11) 
2.429689380753405

>  <meeko>  (11) 
{"free_energy": -8.8, "intermolecular_energy": -10.59, "internal_energy": -2.18, "cluster_size": 46, "cluster_id": 1, "rank_in_cluster": 36}

>  <energy>  (11) 
-8.92

>  <cluster_rmsd>  (11) 
1.82

>  <cluster>  (11) 
1

$$$$

     RDKit          3D

 53 56  0  0  0  0  0  0  0  0999 V2000
  140.9220   71.4700  221.3530 O   0  0  0  0  0  0  0  0  0  0  0  0
  140.4120   72.0840  222.3290 C   0  0  0  0  0  0  0  0  0  0  0  0
  139.9820   73.4450  222.2430 N   0  0  0  0  0  0  0  0  0  0  0  0
  140.0980   74.2270  221.0270 C   0  0  0  0  0  0  0  0  0  0  0  0
  140.2250   75.6570  221.4520 C   0  0  0  0  0  0  0  0  0  0  0  0
  139.7830   75.9570  222.5930 O   0  0  0  0  0  0  0  0  0  0  0  0
  140.8290   76.6370  220.5850 N   0  0  0  0  0  0  0  0  0  0  0  0
  142.2160   76.4210  220.1860 C   0  0  0  0  0  0  0  0  0  0  0  0
  142.5090   77.0590  218.8500 C   0  0  0  0  0  0  0  0  0  0  0  0
  142.0690   78.5060  218.9000 C   0  0  0  0  0  0  0  0  0  0  0  0
  140.5750   78.5400  219.0380 C   0  0  0  0  0  0  0  0  0  0  0  0
  140.0310   77.7410  220.1820 C   0  0  2  0  0  0  0  0  0  0  0  0
  139.6080   78.6730  221.2670 C   0  0  0  0  0  0  0  0  0  0  0  0
  140.6640   79.3220  222.0320 C   0  0  0  0  0  0  0  0  0  0  0  0
  141.2010   78.6630  223.1180 C   0  0  0  0  0  0  0  0  0  0  0  0
  142.2030   79.2110  223.8940 C   0  0  0  0  0  0  0  0  0  0  0  0
  142.7190   80.4580  223.6160 C   0  0  0  0  0  0  0  0  0  0  0  0
  142.1950   81.1360  222.5330 C   0  0  0  0  0  0  0  0  0  0  0  0
  141.1880   80.5770  221.7570 C   0  0  0  0  0  0  0  0  0  0  0  0
  140.2500   71.3750  223.6110 C   0  0  0  0  0  0  0  0  0  0  0  0
  139.6070   70.1570  223.6500 C   0  0  0  0  0  0  0  0  0  0  0  0
  139.4550   69.5000  224.8220 N   0  0  0  0  0  0  0  0  0  0  0  0
  139.9280   70.0240  225.9760 C   0  0  0  0  0  0  0  0  0  0  0  0
  139.7510   69.3200  227.1530 C   0  0  0  0  0  0  0  0  0  0  0  0
  140.2160   69.8200  228.3420 C   0  0  0  0  0  0  0  0  0  0  0  0
  140.8640   71.0400  228.3220 C   0  0  0  0  0  0  0  0  0  0  0  0
  141.0360   71.7370  227.1420 C   0  0  0  0  0  0  0  0  0  0  0  0
  140.5690   71.2380  225.9450 C   0  0  0  0  0  0  0  0  0  0  0  0
  140.7140   71.8790  224.7700 N   0  0  0  0  0  0  0  0  0  0  0  0
  139.5650   73.8700  223.1260 H   0  0  0  0  0  0  0  0  0  0  0  0
  140.9888   73.9184  220.4602 H   0  0  0  0  0  0  0  0  0  0  0  0
  139.2237   74.0817  220.3755 H   0  0  0  0  0  0  0  0  0  0  0  0
  142.8797   76.8597  220.9456 H   0  0  0  0  0  0  0  0  0  0  0  0
  142.3869   75.3379  220.0980 H   0  0  0  0  0  0  0  0  0  0  0  0
  143.5880   77.0066  218.6428 H   0  0  0  0  0  0  0  0  0  0  0  0
  141.9674   76.5285  218.0530 H   0  0  0  0  0  0  0  0  0  0  0  0
  142.5336   79.0064  219.7624 H   0  0  0  0  0  0  0  0  0  0  0  0
  142.3766   79.0275  217.9816 H   0  0  0  0  0  0  0  0  0  0  0  0
  140.2679   79.5873  219.1756 H   0  0  0  0  0  0  0  0  0  0  0  0
  140.1693   78.0851  218.1223 H   0  0  0  0  0  0  0  0  0  0  0  0
  139.1334   77.2075  219.8360 H   0  0  0  0  0  0  0  0  0  0  0  0
  138.9986   79.4641  220.8057 H   0  0  0  0  0  0  0  0  0  0  0  0
  139.0763   78.0415  221.9940 H   0  0  0  0  0  0  0  0  0  0  0  0
  140.8172   77.6648  223.3753 H   0  0  0  0  0  0  0  0  0  0  0  0
  142.5963   78.6420  224.7493 H   0  0  0  0  0  0  0  0  0  0  0  0
  143.5173   80.8965  224.2328 H   0  0  0  0  0  0  0  0  0  0  0  0
  142.5814   82.1346  222.2810 H   0  0  0  0  0  0  0  0  0  0  0  0
  140.7950   81.1448  220.9008 H   0  0  0  0  0  0  0  0  0  0  0  0
  139.2147   69.7162  222.7216 H   0  0  0  0  0  0  0  0  0  0  0  0
  139.2325   68.3501  227.1352 H   0  0  0  0  0  0  0  0  0  0  0  0
  140.0774   69.2669  229.2827 H   0  0  0  0  0  0  0  0  0  0  0  0
  141.2493   71.4633  229.2613 H   0  0  0  0  0  0  0  0  0  0  0  0
  141.5546   72.7070  227.1578 H   0  0  0  0  0  0  0  0  0  0  0  0
  1  2  2  0
  2  3  1  0
  3  4  1  0
  4  5  1  0
  5  6  2  0
  5  7  1  0
  7  8  1  0
  8  9  1  0
  9 10  1  0
 10 11  1  0
 11 12  1  0
 12 13  1  0
 13 14  1  0
 14 15  2  0
 15 16  1  0
 16 17  2  0
 17 18  1  0
 18 19  2  0
  2 20  1  0
 20 21  2  0
 21 22  1  0
 22 23  2  0
 23 24  1  0
 24 25  2  0
 25 26  1  0
 26 27  2  0
 27 28  1  0
 28 29  2  0
 12  7  1  0
 19 14  1  0
 29 20  1  0
 28 23  1  0
  3 30  1  0
  4 31  1  0
  4 32  1  0
  8 33  1  0
  8 34  1  0
  9 35  1  0
  9 36  1  0
 10 37  1  0
 10 38  1  0
 11 39  1  0
 11 40  1  0
 12 41  1  6
 13 42  1  0
 13 43  1  0
 15 44  1  0
 16 45  1  0
 17 46  1  0
 18 47  1  0
 19 48  1  0
 21 49  1  0
 24 50  1  0
 25 51  1  0
 26 52  1  0
 27 53  1  0
M  END
>  <smiles>  (12) 
O=C(NCC(=O)N1CCCCC1Cc1ccccc1)c1cnc2ccccc2n1

>  <score_type>  (12) 
oracle

>  <origin>  (12) 
autodockgpu

>  <m_score__min__energy>  (12) 
-9.1999999999999993

>  <m_primary>  (12) 
energy

>  <rmsd>  (12) 
2.4280957893191686

>  <m_score__min__rmsd>  (12) 
2.4280957893191686

>  <meeko>  (12) 
{"free_energy": -8.9, "intermolecular_energy": -10.69, "internal_energy": -2.19, "cluster_size": 46, "cluster_id": 1, "rank_in_cluster": 20}

>  <energy>  (12) 
-8.92

>  <cluster_rmsd>  (12) 
1.84

>  <cluster>  (12) 
1

$$$$

     RDKit          3D

 53 56  0  0  0  0  0  0  0  0999 V2000
  139.8950   71.0240  221.2330 O   0  0  0  0  0  0  0  0  0  0  0  0
  139.7910   71.6800  222.3040 C   0  0  0  0  0  0  0  0  0  0  0  0
  139.6300   73.1010  222.3250 N   0  0  0  0  0  0  0  0  0  0  0  0
  139.5730   73.8990  221.1150 C   0  0  0  0  0  0  0  0  0  0  0  0
  139.9960   75.2830  221.5000 C   0  0  0  0  0  0  0  0  0  0  0  0
  139.6050   75.7120  222.6180 O   0  0  0  0  0  0  0  0  0  0  0  0
  140.8160   76.0780  220.6210 N   0  0  0  0  0  0  0  0  0  0  0  0
  142.2120   75.6820  220.4590 C   0  0  0  0  0  0  0  0  0  0  0  0
  142.7500   76.1070  219.1130 C   0  0  0  0  0  0  0  0  0  0  0  0
  142.4710   77.5820  218.9270 C   0  0  0  0  0  0  0  0  0  0  0  0
  140.9850   77.7740  218.8390 C   0  0  0  0  0  0  0  0  0  0  0  0
  140.2070   77.1880  219.9780 C   0  0  2  0  0  0  0  0  0  0  0  0
  139.7490   78.2920  220.8700 C   0  0  0  0  0  0  0  0  0  0  0  0
  140.7530   78.9150  221.7220 C   0  0  0  0  0  0  0  0  0  0  0  0
  140.9280   78.4390  223.0040 C   0  0  0  0  0  0  0  0  0  0  0  0
  141.8570   78.9770  223.8730 C   0  0  0  0  0  0  0  0  0  0  0  0
  142.6640   80.0270  223.4940 C   0  0  0  0  0  0  0  0  0  0  0  0
  142.5050   80.5200  222.2130 C   0  0  0  0  0  0  0  0  0  0  0  0
  141.5680   79.9730  221.3450 C   0  0  0  0  0  0  0  0  0  0  0  0
  139.8360   70.9590  223.5890 C   0  0  0  0  0  0  0  0  0  0  0  0
  139.3900   69.6570  223.6660 C   0  0  0  0  0  0  0  0  0  0  0  0
  139.4280   68.9880  224.8410 N   0  0  0  0  0  0  0  0  0  0  0  0
  139.9030   69.5830  225.9610 C   0  0  0  0  0  0  0  0  0  0  0  0
  139.9250   68.8630  227.1420 C   0  0  0  0  0  0  0  0  0  0  0  0
  140.3980   69.4320  228.2950 C   0  0  0  0  0  0  0  0  0  0  0  0
  140.8510   70.7360  228.2370 C   0  0  0  0  0  0  0  0  0  0  0  0
  140.8250   71.4470  227.0530 C   0  0  0  0  0  0  0  0  0  0  0  0
  140.3490   70.8800  225.8910 C   0  0  0  0  0  0  0  0  0  0  0  0
  140.3050   71.5310  224.7140 N   0  0  0  0  0  0  0  0  0  0  0  0
  139.5520   73.5580  223.2840 H   0  0  0  0  0  0  0  0  0  0  0  0
  140.2567   73.4895  220.3568 H   0  0  0  0  0  0  0  0  0  0  0  0
  138.5610   73.8971  220.6838 H   0  0  0  0  0  0  0  0  0  0  0  0
  142.8126   76.1542  221.2504 H   0  0  0  0  0  0  0  0  0  0  0  0
  142.2722   74.5857  220.5267 H   0  0  0  0  0  0  0  0  0  0  0  0
  143.8344   75.9269  219.0735 H   0  0  0  0  0  0  0  0  0  0  0  0
  142.2639   75.5284  218.3137 H   0  0  0  0  0  0  0  0  0  0  0  0
  142.8688   78.1465  219.7832 H   0  0  0  0  0  0  0  0  0  0  0  0
  142.9548   77.9460  218.0086 H   0  0  0  0  0  0  0  0  0  0  0  0
  140.7810   78.8544  218.8052 H   0  0  0  0  0  0  0  0  0  0  0  0
  140.6571   77.2419  217.9338 H   0  0  0  0  0  0  0  0  0  0  0  0
  139.3099   76.6987  219.5708 H   0  0  0  0  0  0  0  0  0  0  0  0
  139.3217   79.0789  220.2311 H   0  0  0  0  0  0  0  0  0  0  0  0
  139.0381   77.8209  221.5647 H   0  0  0  0  0  0  0  0  0  0  0  0
  140.3049   77.6000  223.3473 H   0  0  0  0  0  0  0  0  0  0  0  0
  141.9542   78.5594  224.8860 H   0  0  0  0  0  0  0  0  0  0  0  0
  143.4057   80.4561  224.1838 H   0  0  0  0  0  0  0  0  0  0  0  0
  143.1305   81.3593  221.8748 H   0  0  0  0  0  0  0  0  0  0  0  0
  141.4696   80.3898  220.3318 H   0  0  0  0  0  0  0  0  0  0  0  0
  139.0006   69.1587  222.7659 H   0  0  0  0  0  0  0  0  0  0  0  0
  139.5599   67.8255  227.1554 H   0  0  0  0  0  0  0  0  0  0  0  0
  140.4166   68.8675  229.2389 H   0  0  0  0  0  0  0  0  0  0  0  0
  141.2384   71.2155  229.1480 H   0  0  0  0  0  0  0  0  0  0  0  0
  141.1908   72.4843  227.0376 H   0  0  0  0  0  0  0  0  0  0  0  0
  1  2  2  0
  2  3  1  0
  3  4  1  0
  4  5  1  0
  5  6  2  0
  5  7  1  0
  7  8  1  0
  8  9  1  0
  9 10  1  0
 10 11  1  0
 11 12  1  0
 12 13  1  0
 13 14  1  0
 14 15  2  0
 15 16  1  0
 16 17  2  0
 17 18  1  0
 18 19  2  0
  2 20  1  0
 20 21  2  0
 21 22  1  0
 22 23  2  0
 23 24  1  0
 24 25  2  0
 25 26  1  0
 26 27  2  0
 27 28  1  0
 28 29  2  0
 12  7  1  0
 19 14  1  0
 29 20  1  0
 28 23  1  0
  3 30  1  0
  4 31  1  0
  4 32  1  0
  8 33  1  0
  8 34  1  0
  9 35  1  0
  9 36  1  0
 10 37  1  0
 10 38  1  0
 11 39  1  0
 11 40  1  0
 12 41  1  6
 13 42  1  0
 13 43  1  0
 15 44  1  0
 16 45  1  0
 17 46  1  0
 18 47  1  0
 19 48  1  0
 21 49  1  0
 24 50  1  0
 25 51  1  0
 26 52  1  0
 27 53  1  0
M  END
>  <smiles>  (13) 
O=C(NCC(=O)N1CCCCC1Cc1ccccc1)c1cnc2ccccc2n1

>  <score_type>  (13) 
oracle

>  <origin>  (13) 
autodockgpu

>  <m_score__min__energy>  (13) 
-9.1999999999999993

>  <m_primary>  (13) 
energy

>  <rmsd>  (13) 
2.1647331542997934

>  <m_score__min__rmsd>  (13) 
2.1647331542997934

>  <meeko>  (13) 
{"free_energy": -8.81, "intermolecular_energy": -10.6, "internal_energy": -2.24, "cluster_size": 46, "cluster_id": 1, "rank_in_cluster": 35}

>  <energy>  (13) 
-8.92

>  <cluster_rmsd>  (13) 
1.82

>  <cluster>  (13) 
1

$$$$

     RDKit          3D

 53 56  0  0  0  0  0  0  0  0999 V2000
  139.9640   71.0160  221.2720 O   0  0  0  0  0  0  0  0  0  0  0  0
  139.8460   71.6710  222.3430 C   0  0  0  0  0  0  0  0  0  0  0  0
  139.6730   73.0910  222.3620 N   0  0  0  0  0  0  0  0  0  0  0  0
  139.6170   73.8890  221.1520 C   0  0  0  0  0  0  0  0  0  0  0  0
  140.0660   75.2660  221.5310 C   0  0  0  0  0  0  0  0  0  0  0  0
  139.7100   75.6940  222.6620 O   0  0  0  0  0  0  0  0  0  0  0  0
  140.8700   76.0560  220.6350 N   0  0  0  0  0  0  0  0  0  0  0  0
  142.2660   75.6670  220.4590 C   0  0  0  0  0  0  0  0  0  0  0  0
  142.7860   76.0800  219.1020 C   0  0  0  0  0  0  0  0  0  0  0  0
  142.4960   77.5510  218.9040 C   0  0  0  0  0  0  0  0  0  0  0  0
  141.0080   77.7350  218.8330 C   0  0  0  0  0  0  0  0  0  0  0  0
  140.2480   77.1560  219.9870 C   0  0  2  0  0  0  0  0  0  0  0  0
  139.7950   78.2670  220.8740 C   0  0  0  0  0  0  0  0  0  0  0  0
  140.7990   78.8850  221.7280 C   0  0  0  0  0  0  0  0  0  0  0  0
  140.9550   78.4200  223.0170 C   0  0  0  0  0  0  0  0  0  0  0  0
  141.8850   78.9540  223.8880 C   0  0  0  0  0  0  0  0  0  0  0  0
  142.7090   79.9880  223.5050 C   0  0  0  0  0  0  0  0  0  0  0  0
  142.5700   80.4690  222.2180 C   0  0  0  0  0  0  0  0  0  0  0  0
  141.6330   79.9270  221.3470 C   0  0  0  0  0  0  0  0  0  0  0  0
  139.8880   70.9500  223.6280 C   0  0  0  0  0  0  0  0  0  0  0  0
  139.4600   69.6430  223.7010 C   0  0  0  0  0  0  0  0  0  0  0  0
  139.4950   68.9740  224.8750 N   0  0  0  0  0  0  0  0  0  0  0  0
  139.9500   69.5750  226.0000 C   0  0  0  0  0  0  0  0  0  0  0  0
  139.9700   68.8550  227.1810 C   0  0  0  0  0  0  0  0  0  0  0  0
  140.4230   69.4300  228.3400 C   0  0  0  0  0  0  0  0  0  0  0  0
  140.8580   70.7410  228.2860 C   0  0  0  0  0  0  0  0  0  0  0  0
  140.8350   71.4520  227.1020 C   0  0  0  0  0  0  0  0  0  0  0  0
  140.3790   70.8780  225.9350 C   0  0  0  0  0  0  0  0  0  0  0  0
  140.3380   71.5290  224.7580 N   0  0  0  0  0  0  0  0  0  0  0  0
  139.5840   73.5470  223.3210 H   0  0  0  0  0  0  0  0  0  0  0  0
  140.2864   73.4678  220.3875 H   0  0  0  0  0  0  0  0  0  0  0  0
  138.6008   73.9032  220.7310 H   0  0  0  0  0  0  0  0  0  0  0  0
  142.8735   76.1513  221.2377 H   0  0  0  0  0  0  0  0  0  0  0  0
  142.3329   74.5718  220.5369 H   0  0  0  0  0  0  0  0  0  0  0  0
  143.8709   75.9057  219.0517 H   0  0  0  0  0  0  0  0  0  0  0  0
  142.2945   75.4898  218.3146 H   0  0  0  0  0  0  0  0  0  0  0  0
  142.9016   78.1267  219.7490 H   0  0  0  0  0  0  0  0  0  0  0  0
  142.9657   77.9072  217.9753 H   0  0  0  0  0  0  0  0  0  0  0  0
  140.7981   78.8140  218.7918 H   0  0  0  0  0  0  0  0  0  0  0  0
  140.6712   77.1930  217.9370 H   0  0  0  0  0  0  0  0  0  0  0  0
  139.3498   76.6570  219.5944 H   0  0  0  0  0  0  0  0  0  0  0  0
  139.3766   79.0551  220.2307 H   0  0  0  0  0  0  0  0  0  0  0  0
  139.0779   77.8033  221.5674 H   0  0  0  0  0  0  0  0  0  0  0  0
  140.3162   77.5945  223.3640 H   0  0  0  0  0  0  0  0  0  0  0  0
  141.9685   78.5455  224.9059 H   0  0  0  0  0  0  0  0  0  0  0  0
  143.4496   80.4147  224.1974 H   0  0  0  0  0  0  0  0  0  0  0  0
  143.2116   81.2948  221.8768 H   0  0  0  0  0  0  0  0  0  0  0  0
  141.5499   80.3344  220.3286 H   0  0  0  0  0  0  0  0  0  0  0  0
  139.0868   69.1396  222.7969 H   0  0  0  0  0  0  0  0  0  0  0  0
  139.6195   67.8124  227.1902 H   0  0  0  0  0  0  0  0  0  0  0  0
  140.4398   68.8655  229.2840 H   0  0  0  0  0  0  0  0  0  0  0  0
  141.2286   71.2260  229.2011 H   0  0  0  0  0  0  0  0  0  0  0  0
  141.1867   72.4942  227.0904 H   0  0  0  0  0  0  0  0  0  0  0  0
  1  2  2  0
  2  3  1  0
  3  4  1  0
  4  5  1  0
  5  6  2  0
  5  7  1  0
  7  8  1  0
  8  9  1  0
  9 10  1  0
 10 11  1  0
 11 12  1  0
 12 13  1  0
 13 14  1  0
 14 15  2  0
 15 16  1  0
 16 17  2  0
 17 18  1  0
 18 19  2  0
  2 20  1  0
 20 21  2  0
 21 22  1  0
 22 23  2  0
 23 24  1  0
 24 25  2  0
 25 26  1  0
 26 27  2  0
 27 28  1  0
 28 29  2  0
 12  7  1  0
 19 14  1  0
 29 20  1  0
 28 23  1  0
  3 30  1  0
  4 31  1  0
  4 32  1  0
  8 33  1  0
  8 34  1  0
  9 35  1  0
  9 36  1  0
 10 37  1  0
 10 38  1  0
 11 39  1  0
 11 40  1  0
 12 41  1  6
 13 42  1  0
 13 43  1  0
 15 44  1  0
 16 45  1  0
 17 46  1  0
 18 47  1  0
 19 48  1  0
 21 49  1  0
 24 50  1  0
 25 51  1  0
 26 52  1  0
 27 53  1  0
M  END
>  <smiles>  (14) 
O=C(NCC(=O)N1CCCCC1Cc1ccccc1)c1cnc2ccccc2n1

>  <score_type>  (14) 
oracle

>  <origin>  (14) 
autodockgpu

>  <m_score__min__energy>  (14) 
-9.1999999999999993

>  <m_primary>  (14) 
energy

>  <rmsd>  (14) 
2.1780645353298036

>  <m_score__min__rmsd>  (14) 
2.1780645353298036

>  <meeko>  (14) 
{"free_energy": -8.82, "intermolecular_energy": -10.61, "internal_energy": -2.26, "cluster_size": 46, "cluster_id": 1, "rank_in_cluster": 34}

>  <energy>  (14) 
-8.92

>  <cluster_rmsd>  (14) 
1.81

>  <cluster>  (14) 
1

$$$$

     RDKit          3D

 53 56  0  0  0  0  0  0  0  0999 V2000
  141.2800   71.5820  221.4720 O   0  0  0  0  0  0  0  0  0  0  0  0
  140.5870   72.0750  222.4030 C   0  0  0  0  0  0  0  0  0  0  0  0
  140.0370   73.3940  222.3390 N   0  0  0  0  0  0  0  0  0  0  0  0
  140.2310   74.2680  221.1980 C   0  0  0  0  0  0  0  0  0  0  0  0
  139.9350   75.6570  221.6720 C   0  0  0  0  0  0  0  0  0  0  0  0
  139.2200   75.7690  222.7050 O   0  0  0  0  0  0  0  0  0  0  0  0
  140.4490   76.8050  220.9710 N   0  0  0  0  0  0  0  0  0  0  0  0
  141.7140   76.6500  220.2580 C   0  0  0  0  0  0  0  0  0  0  0  0
  141.8060   77.6020  219.0900 C   0  0  0  0  0  0  0  0  0  0  0  0
  141.5110   79.0010  219.5850 C   0  0  0  0  0  0  0  0  0  0  0  0
  140.0780   79.0530  220.0280 C   0  0  0  0  0  0  0  0  0  0  0  0
  139.6900   78.0040  221.0240 C   0  0  2  0  0  0  0  0  0  0  0  0
  139.5600   78.6380  222.3680 C   0  0  0  0  0  0  0  0  0  0  0  0
  140.6840   79.4370  222.8350 C   0  0  0  0  0  0  0  0  0  0  0  0
  141.9590   78.9240  222.7240 C   0  0  0  0  0  0  0  0  0  0  0  0
  143.0760   79.6190  223.1450 C   0  0  0  0  0  0  0  0  0  0  0  0
  142.9670   80.8740  223.7020 C   0  0  0  0  0  0  0  0  0  0  0  0
  141.6990   81.4080  223.8230 C   0  0  0  0  0  0  0  0  0  0  0  0
  140.5800   80.7020  223.3970 C   0  0  0  0  0  0  0  0  0  0  0  0
  140.3310   71.2640  223.6070 C   0  0  0  0  0  0  0  0  0  0  0  0
  139.6730   70.0580  223.5000 C   0  0  0  0  0  0  0  0  0  0  0  0
  139.4340   69.3080  224.6000 N   0  0  0  0  0  0  0  0  0  0  0  0
  139.8350   69.7260  225.8230 C   0  0  0  0  0  0  0  0  0  0  0  0
  139.5710   68.9280  226.9220 C   0  0  0  0  0  0  0  0  0  0  0  0
  139.9610   69.3180  228.1760 C   0  0  0  0  0  0  0  0  0  0  0  0
  140.6240   70.5250  228.3020 C   0  0  0  0  0  0  0  0  0  0  0  0
  140.8830   71.3150  227.2000 C   0  0  0  0  0  0  0  0  0  0  0  0
  140.4920   70.9270  225.9380 C   0  0  0  0  0  0  0  0  0  0  0  0
  140.7220   71.6610  224.8330 N   0  0  0  0  0  0  0  0  0  0  0  0
  139.4670   73.7130  223.1800 H   0  0  0  0  0  0  0  0  0  0  0  0
  141.2691   74.2015  220.8404 H   0  0  0  0  0  0  0  0  0  0  0  0
  139.5739   73.9840  220.3628 H   0  0  0  0  0  0  0  0  0  0  0  0
  142.5434   76.8527  220.9516 H   0  0  0  0  0  0  0  0  0  0  0  0
  141.7713   75.6213  219.8726 H   0  0  0  0  0  0  0  0  0  0  0  0
  142.8183   77.5661  218.6612 H   0  0  0  0  0  0  0  0  0  0  0  0
  141.0807   77.3166  218.3138 H   0  0  0  0  0  0  0  0  0  0  0  0
  142.1707   79.2427  220.4314 H   0  0  0  0  0  0  0  0  0  0  0  0
  141.6855   79.7315  218.7813 H   0  0  0  0  0  0  0  0  0  0  0  0
  139.8953   80.0388  220.4806 H   0  0  0  0  0  0  0  0  0  0  0  0
  139.4696   78.8679  219.1305 H   0  0  0  0  0  0  0  0  0  0  0  0
  138.7011   77.6105  220.7460 H   0  0  0  0  0  0  0  0  0  0  0  0
  138.6762   79.2924  222.3418 H   0  0  0  0  0  0  0  0  0  0  0  0
  139.4948   77.7974  223.0745 H   0  0  0  0  0  0  0  0  0  0  0  0
  142.0915   77.9246  222.2840 H   0  0  0  0  0  0  0  0  0  0  0  0
  144.0704   79.1620  223.0335 H   0  0  0  0  0  0  0  0  0  0  0  0
  143.8553   81.4294  224.0374 H   0  0  0  0  0  0  0  0  0  0  0  0
  141.5727   82.4080  224.2635 H   0  0  0  0  0  0  0  0  0  0  0  0
  139.5852   81.1580  223.5082 H   0  0  0  0  0  0  0  0  0  0  0  0
  139.3399   69.7029  222.5136 H   0  0  0  0  0  0  0  0  0  0  0  0
  139.0434   67.9722  226.7877 H   0  0  0  0  0  0  0  0  0  0  0  0
  139.7532   68.6906  229.0553 H   0  0  0  0  0  0  0  0  0  0  0  0
  140.9505   70.8613  229.2971 H   0  0  0  0  0  0  0  0  0  0  0  0
  141.4108   72.2710  227.3323 H   0  0  0  0  0  0  0  0  0  0  0  0
  1  2  2  0
  2  3  1  0
  3  4  1  0
  4  5  1  0
  5  6  2  0
  5  7  1  0
  7  8  1  0
  8  9  1  0
  9 10  1  0
 10 11  1  0
 11 12  1  0
 12 13  1  0
 13 14  1  0
 14 15  2  0
 15 16  1  0
 16 17  2  0
 17 18  1  0
 18 19  2  0
  2 20  1  0
 20 21  2  0
 21 22  1  0
 22 23  2  0
 23 24  1  0
 24 25  2  0
 25 26  1  0
 26 27  2  0
 27 28  1  0
 28 29  2  0
 12  7  1  0
 19 14  1  0
 29 20  1  0
 28 23  1  0
  3 30  1  0
  4 31  1  0
  4 32  1  0
  8 33  1  0
  8 34  1  0
  9 35  1  0
  9 36  1  0
 10 37  1  0
 10 38  1  0
 11 39  1  0
 11 40  1  0
 12 41  1  6
 13 42  1  0
 13 43  1  0
 15 44  1  0
 16 45  1  0
 17 46  1  0
 18 47  1  0
 19 48  1  0
 21 49  1  0
 24 50  1  0
 25 51  1  0
 26 52  1  0
 27 53  1  0
M  END
>  <smiles>  (15) 
O=C(NCC(=O)N1CCCCC1Cc1ccccc1)c1cnc2ccccc2n1

>  <score_type>  (15) 
oracle

>  <origin>  (15) 
autodockgpu

>  <m_score__min__energy>  (15) 
-9.1999999999999993

>  <m_primary>  (15) 
energy

>  <rmsd>  (15) 
2.585338709631903

>  <m_score__min__rmsd>  (15) 
2.585338709631903

>  <meeko>  (15) 
{"free_energy": -8.94, "intermolecular_energy": -10.73, "internal_energy": -1.98, "cluster_size": 46, "cluster_id": 1, "rank_in_cluster": 7}

>  <energy>  (15) 
-8.91

>  <cluster_rmsd>  (15) 
1.81

>  <cluster>  (15) 
1

$$$$

     RDKit          3D

 53 56  0  0  0  0  0  0  0  0999 V2000
  140.0970   70.9930  221.2770 O   0  0  0  0  0  0  0  0  0  0  0  0
  139.9160   71.6510  222.3370 C   0  0  0  0  0  0  0  0  0  0  0  0
  139.7130   73.0670  222.3400 N   0  0  0  0  0  0  0  0  0  0  0  0
  139.6980   73.8570  221.1240 C   0  0  0  0  0  0  0  0  0  0  0  0
  140.0240   75.2620  221.5270 C   0  0  0  0  0  0  0  0  0  0  0  0
  139.5860   75.6550  222.6420 O   0  0  0  0  0  0  0  0  0  0  0  0
  140.8050   76.1170  220.6700 N   0  0  0  0  0  0  0  0  0  0  0  0
  142.1950   75.7400  220.4260 C   0  0  0  0  0  0  0  0  0  0  0  0
  142.6770   76.2530  219.0900 C   0  0  0  0  0  0  0  0  0  0  0  0
  142.3860   77.7360  219.0110 C   0  0  0  0  0  0  0  0  0  0  0  0
  140.8970   77.9250  218.9950 C   0  0  0  0  0  0  0  0  0  0  0  0
  140.1680   77.2630  220.1240 C   0  0  2  0  0  0  0  0  0  0  0  0
  139.7430   78.3040  221.1040 C   0  0  0  0  0  0  0  0  0  0  0  0
  140.7940   78.9630  221.8670 C   0  0  0  0  0  0  0  0  0  0  0  0
  141.1500   78.4470  223.0950 C   0  0  0  0  0  0  0  0  0  0  0  0
  142.1340   79.0150  223.8790 C   0  0  0  0  0  0  0  0  0  0  0  0
  142.8160   80.1390  223.4660 C   0  0  0  0  0  0  0  0  0  0  0  0
  142.4750   80.6730  222.2380 C   0  0  0  0  0  0  0  0  0  0  0  0
  141.4840   80.0950  221.4550 C   0  0  0  0  0  0  0  0  0  0  0  0
  139.9130   70.9380  223.6270 C   0  0  0  0  0  0  0  0  0  0  0  0
  139.4510   69.6410  223.6980 C   0  0  0  0  0  0  0  0  0  0  0  0
  139.4450   68.9800  224.8770 N   0  0  0  0  0  0  0  0  0  0  0  0
  139.8890   69.5760  226.0080 C   0  0  0  0  0  0  0  0  0  0  0  0
  139.8660   68.8640  227.1940 C   0  0  0  0  0  0  0  0  0  0  0  0
  140.3080   69.4350  228.3580 C   0  0  0  0  0  0  0  0  0  0  0  0
  140.7760   70.7340  228.3060 C   0  0  0  0  0  0  0  0  0  0  0  0
  140.7960   71.4380  227.1180 C   0  0  0  0  0  0  0  0  0  0  0  0
  140.3510   70.8680  225.9450 C   0  0  0  0  0  0  0  0  0  0  0  0
  140.3520   71.5120  224.7630 N   0  0  0  0  0  0  0  0  0  0  0  0
  139.5700   73.5260  223.2900 H   0  0  0  0  0  0  0  0  0  0  0  0
  140.4511   73.4800  220.4163 H   0  0  0  0  0  0  0  0  0  0  0  0
  138.7188   73.8026  220.6258 H   0  0  0  0  0  0  0  0  0  0  0  0
  142.8259   76.1638  221.2212 H   0  0  0  0  0  0  0  0  0  0  0  0
  142.2607   74.6420  220.4201 H   0  0  0  0  0  0  0  0  0  0  0  0
  143.7595   76.0818  218.9955 H   0  0  0  0  0  0  0  0  0  0  0  0
  142.1612   75.7240  218.2751 H   0  0  0  0  0  0  0  0  0  0  0  0
  142.8161   78.2463  219.8854 H   0  0  0  0  0  0  0  0  0  0  0  0
  142.8314   78.1611  218.0995 H   0  0  0  0  0  0  0  0  0  0  0  0
  140.6885   79.0042  219.0389 H   0  0  0  0  0  0  0  0  0  0  0  0
  140.5343   77.4504  218.0713 H   0  0  0  0  0  0  0  0  0  0  0  0
  139.2571   76.7965  219.7207 H   0  0  0  0  0  0  0  0  0  0  0  0
  139.1999   79.0818  220.5471 H   0  0  0  0  0  0  0  0  0  0  0  0
  139.1433   77.7642  221.8516 H   0  0  0  0  0  0  0  0  0  0  0  0
  140.6309   77.5499  223.4635 H   0  0  0  0  0  0  0  0  0  0  0  0
  142.3782   78.5621  224.8512 H   0  0  0  0  0  0  0  0  0  0  0  0
  143.6006   80.5930  224.0891 H   0  0  0  0  0  0  0  0  0  0  0  0
  142.9969   81.5705  221.8746 H   0  0  0  0  0  0  0  0  0  0  0  0
  141.2393   80.5464  220.4822 H   0  0  0  0  0  0  0  0  0  0  0  0
  139.0849   69.1408  222.7893 H   0  0  0  0  0  0  0  0  0  0  0  0
  139.4895   67.8305  227.2023 H   0  0  0  0  0  0  0  0  0  0  0  0
  140.2909   68.8763  229.3054 H   0  0  0  0  0  0  0  0  0  0  0  0
  141.1387   71.2154  229.2261 H   0  0  0  0  0  0  0  0  0  0  0  0
  141.1735   72.4711  227.1080 H   0  0  0  0  0  0  0  0  0  0  0  0
  1  2  2  0
  2  3  1  0
  3  4  1  0
  4  5  1  0
  5  6  2  0
  5  7  1  0
  7  8  1  0
  8  9  1  0
  9 10  1  0
 10 11  1  0
 11 12  1  0
 12 13  1  0
 13 14  1  0
 14 15  2  0
 15 16  1  0
 16 17  2  0
 17 18  1  0
 18 19  2  0
  2 20  1  0
 20 21  2  0
 21 22  1  0
 22 23  2  0
 23 24  1  0
 24 25  2  0
 25 26  1  0
 26 27  2  0
 27 28  1  0
 28 29  2  0
 12  7  1  0
 19 14  1  0
 29 20  1  0
 28 23  1  0
  3 30  1  0
  4 31  1  0
  4 32  1  0
  8 33  1  0
  8 34  1  0
  9 35  1  0
  9 36  1  0
 10 37  1  0
 10 38  1  0
 11 39  1  0
 11 40  1  0
 12 41  1  6
 13 42  1  0
 13 43  1  0
 15 44  1  0
 16 45  1  0
 17 46  1  0
 18 47  1  0
 19 48  1  0
 21 49  1  0
 24 50  1  0
 25 51  1  0
 26 52  1  0
 27 53  1  0
M  END
>  <smiles>  (16) 
O=C(NCC(=O)N1CCCCC1Cc1ccccc1)c1cnc2ccccc2n1

>  <score_type>  (16) 
oracle

>  <origin>  (16) 
autodockgpu

>  <m_score__min__energy>  (16) 
-9.1999999999999993

>  <m_primary>  (16) 
energy

>  <rmsd>  (16) 
2.206772193268876

>  <m_score__min__rmsd>  (16) 
2.206772193268876

>  <meeko>  (16) 
{"free_energy": -8.83, "intermolecular_energy": -10.62, "internal_energy": -2.24, "cluster_size": 46, "cluster_id": 1, "rank_in_cluster": 30}

>  <energy>  (16) 
-8.9

>  <cluster_rmsd>  (16) 
1.79

>  <cluster>  (16) 
1

$$$$

     RDKit          3D

 53 56  0  0  0  0  0  0  0  0999 V2000
  139.6200   70.8470  221.2610 O   0  0  0  0  0  0  0  0  0  0  0  0
  139.6060   71.5010  222.3390 C   0  0  0  0  0  0  0  0  0  0  0  0
  139.5320   72.9300  222.3720 N   0  0  0  0  0  0  0  0  0  0  0  0
  139.4670   73.7380  221.1690 C   0  0  0  0  0  0  0  0  0  0  0  0
  139.9250   75.1100  221.5550 C   0  0  0  0  0  0  0  0  0  0  0  0
  139.5030   75.5680  222.6510 O   0  0  0  0  0  0  0  0  0  0  0  0
  140.8100   75.8630  220.7030 N   0  0  0  0  0  0  0  0  0  0  0  0
  142.2020   75.4290  220.6260 C   0  0  0  0  0  0  0  0  0  0  0  0
  142.8220   75.8060  219.3020 C   0  0  0  0  0  0  0  0  0  0  0  0
  142.5900   77.2830  219.0650 C   0  0  0  0  0  0  0  0  0  0  0  0
  141.1170   77.5080  218.8920 C   0  0  0  0  0  0  0  0  0  0  0  0
  140.2650   76.9700  220.0010 C   0  0  2  0  0  0  0  0  0  0  0  0
  139.7880   78.1070  220.8410 C   0  0  0  0  0  0  0  0  0  0  0  0
  140.7690   78.7510  221.7030 C   0  0  0  0  0  0  0  0  0  0  0  0
  140.9420   78.2760  222.9860 C   0  0  0  0  0  0  0  0  0  0  0  0
  141.8510   78.8330  223.8650 C   0  0  0  0  0  0  0  0  0  0  0  0
  142.6370   79.9020  223.4960 C   0  0  0  0  0  0  0  0  0  0  0  0
  142.4810   80.3940  222.2140 C   0  0  0  0  0  0  0  0  0  0  0  0
  141.5650   79.8280  221.3360 C   0  0  0  0  0  0  0  0  0  0  0  0
  139.6670   70.7700  223.6170 C   0  0  0  0  0  0  0  0  0  0  0  0
  139.2040   69.4740  223.6940 C   0  0  0  0  0  0  0  0  0  0  0  0
  139.2570   68.7970  224.8630 N   0  0  0  0  0  0  0  0  0  0  0  0
  139.7630   69.3760  225.9770 C   0  0  0  0  0  0  0  0  0  0  0  0
  139.7980   68.6480  227.1530 C   0  0  0  0  0  0  0  0  0  0  0  0
  140.3030   69.2010  228.3000 C   0  0  0  0  0  0  0  0  0  0  0  0
  140.7720   70.5000  228.2410 C   0  0  0  0  0  0  0  0  0  0  0  0
  140.7330   71.2200  227.0630 C   0  0  0  0  0  0  0  0  0  0  0  0
  140.2250   70.6680  225.9080 C   0  0  0  0  0  0  0  0  0  0  0  0
  140.1670   71.3280  224.7360 N   0  0  0  0  0  0  0  0  0  0  0  0
  139.5260   73.3840  223.3350 H   0  0  0  0  0  0  0  0  0  0  0  0
  140.1272   73.3206  220.3944 H   0  0  0  0  0  0  0  0  0  0  0  0
  138.4468   73.7594  220.7581 H   0  0  0  0  0  0  0  0  0  0  0  0
  142.7715   75.9063  221.4371 H   0  0  0  0  0  0  0  0  0  0  0  0
  142.2299   74.3336  220.7230 H   0  0  0  0  0  0  0  0  0  0  0  0
  143.9022   75.5994  219.3261 H   0  0  0  0  0  0  0  0  0  0  0  0
  142.3657   75.2185  218.4917 H   0  0  0  0  0  0  0  0  0  0  0  0
  142.9553   77.8597  219.9275 H   0  0  0  0  0  0  0  0  0  0  0  0
  143.1312   77.6115  218.1655 H   0  0  0  0  0  0  0  0  0  0  0  0
  140.9423   78.5917  218.8211 H   0  0  0  0  0  0  0  0  0  0  0  0
  140.8247   76.9611  217.9835 H   0  0  0  0  0  0  0  0  0  0  0  0
  139.3793   76.4923  219.5568 H   0  0  0  0  0  0  0  0  0  0  0  0
  139.3876   78.8750  220.1629 H   0  0  0  0  0  0  0  0  0  0  0  0
  139.0518   77.6644  221.5281 H   0  0  0  0  0  0  0  0  0  0  0  0
  140.3343   77.4228  223.3218 H   0  0  0  0  0  0  0  0  0  0  0  0
  141.9486   78.4151  224.8778 H   0  0  0  0  0  0  0  0  0  0  0  0
  143.3609   80.3470  224.1946 H   0  0  0  0  0  0  0  0  0  0  0  0
  143.0917   81.2471  221.8835 H   0  0  0  0  0  0  0  0  0  0  0  0
  141.4677   80.2444  220.3225 H   0  0  0  0  0  0  0  0  0  0  0  0
  138.7889   68.9877  222.7989 H   0  0  0  0  0  0  0  0  0  0  0  0
  139.4170   67.6162  227.1670 H   0  0  0  0  0  0  0  0  0  0  0  0
  140.3343   68.6290  229.2391 H   0  0  0  0  0  0  0  0  0  0  0  0
  141.1832   70.9681  229.1475 H   0  0  0  0  0  0  0  0  0  0  0  0
  141.1141   72.2517  227.0470 H   0  0  0  0  0  0  0  0  0  0  0  0
  1  2  2  0
  2  3  1  0
  3  4  1  0
  4  5  1  0
  5  6  2  0
  5  7  1  0
  7  8  1  0
  8  9  1  0
  9 10  1  0
 10 11  1  0
 11 12  1  0
 12 13  1  0
 13 14  1  0
 14 15  2  0
 15 16  1  0
 16 17  2  0
 17 18  1  0
 18 19  2  0
  2 20  1  0
 20 21  2  0
 21 22  1  0
 22 23  2  0
 23 24  1  0
 24 25  2  0
 25 26  1  0
 26 27  2  0
 27 28  1  0
 28 29  2  0
 12  7  1  0
 19 14  1  0
 29 20  1  0
 28 23  1  0
  3 30  1  0
  4 31  1  0
  4 32  1  0
  8 33  1  0
  8 34  1  0
  9 35  1  0
  9 36  1  0
 10 37  1  0
 10 38  1  0
 11 39  1  0
 11 40  1  0
 12 41  1  6
 13 42  1  0
 13 43  1  0
 15 44  1  0
 16 45  1  0
 17 46  1  0
 18 47  1  0
 19 48  1  0
 21 49  1  0
 24 50  1  0
 25 51  1  0
 26 52  1  0
 27 53  1  0
M  END
>  <smiles>  (17) 
O=C(NCC(=O)N1CCCCC1Cc1ccccc1)c1cnc2ccccc2n1

>  <score_type>  (17) 
oracle

>  <origin>  (17) 
autodockgpu

>  <m_score__min__energy>  (17) 
-9.1999999999999993

>  <m_primary>  (17) 
energy

>  <rmsd>  (17) 
2.1411329326370185

>  <m_score__min__rmsd>  (17) 
2.1411329326370185

>  <meeko>  (17) 
{"free_energy": -8.75, "intermolecular_energy": -10.54, "internal_energy": -2.23, "cluster_size": 46, "cluster_id": 1, "rank_in_cluster": 38}

>  <energy>  (17) 
-8.9

>  <cluster_rmsd>  (17) 
1.8

>  <cluster>  (17) 
1

$$$$

     RDKit          3D

 53 56  0  0  0  0  0  0  0  0999 V2000
  140.1040   70.9730  221.2770 O   0  0  0  0  0  0  0  0  0  0  0  0
  139.9210   71.6340  222.3350 C   0  0  0  0  0  0  0  0  0  0  0  0
  139.7100   73.0490  222.3340 N   0  0  0  0  0  0  0  0  0  0  0  0
  139.6880   73.8350  221.1150 C   0  0  0  0  0  0  0  0  0  0  0  0
  140.0740   75.2290  221.5020 C   0  0  0  0  0  0  0  0  0  0  0  0
  139.6520   75.6530  222.6120 O   0  0  0  0  0  0  0  0  0  0  0  0
  140.8920   76.0390  220.6370 N   0  0  0  0  0  0  0  0  0  0  0  0
  142.2860   75.6420  220.4610 C   0  0  0  0  0  0  0  0  0  0  0  0
  142.8210   76.0920  219.1220 C   0  0  0  0  0  0  0  0  0  0  0  0
  142.5450   77.5710  218.9660 C   0  0  0  0  0  0  0  0  0  0  0  0
  141.0590   77.7690  218.8880 C   0  0  0  0  0  0  0  0  0  0  0  0
  140.2850   77.1630  220.0180 C   0  0  2  0  0  0  0  0  0  0  0  0
  139.8330   78.2510  220.9340 C   0  0  0  0  0  0  0  0  0  0  0  0
  140.8350   78.8290  221.8180 C   0  0  0  0  0  0  0  0  0  0  0  0
  141.5730   79.9060  221.3740 C   0  0  0  0  0  0  0  0  0  0  0  0
  142.5420   80.5090  222.1520 C   0  0  0  0  0  0  0  0  0  0  0  0
  142.8200   80.0580  223.4230 C   0  0  0  0  0  0  0  0  0  0  0  0
  142.0920   78.9800  223.8880 C   0  0  0  0  0  0  0  0  0  0  0  0
  141.1180   78.3790  223.1000 C   0  0  0  0  0  0  0  0  0  0  0  0
  139.9240   70.9250  223.6280 C   0  0  0  0  0  0  0  0  0  0  0  0
  139.4950   69.6170  223.6990 C   0  0  0  0  0  0  0  0  0  0  0  0
  139.4950   68.9600  224.8810 N   0  0  0  0  0  0  0  0  0  0  0  0
  139.9140   69.5710  226.0130 C   0  0  0  0  0  0  0  0  0  0  0  0
  139.8980   68.8630  227.2010 C   0  0  0  0  0  0  0  0  0  0  0  0
  140.3150   69.4490  228.3680 C   0  0  0  0  0  0  0  0  0  0  0  0
  140.7490   70.7590  228.3150 C   0  0  0  0  0  0  0  0  0  0  0  0
  140.7620   71.4600  227.1250 C   0  0  0  0  0  0  0  0  0  0  0  0
  140.3430   70.8750  225.9500 C   0  0  0  0  0  0  0  0  0  0  0  0
  140.3380   71.5140  224.7650 N   0  0  0  0  0  0  0  0  0  0  0  0
  139.5650   73.5100  223.2830 H   0  0  0  0  0  0  0  0  0  0  0  0
  140.4071   73.4294  220.3881 H   0  0  0  0  0  0  0  0  0  0  0  0
  138.6937   73.8131  220.6451 H   0  0  0  0  0  0  0  0  0  0  0  0
  142.8912   76.0961  221.2594 H   0  0  0  0  0  0  0  0  0  0  0  0
  142.3422   74.5443  220.5058 H   0  0  0  0  0  0  0  0  0  0  0  0
  143.9049   75.9101  219.0756 H   0  0  0  0  0  0  0  0  0  0  0  0
  142.3312   75.5303  218.3129 H   0  0  0  0  0  0  0  0  0  0  0  0
  142.9479   78.1176  219.8314 H   0  0  0  0  0  0  0  0  0  0  0  0
  143.0259   77.9514  218.0527 H   0  0  0  0  0  0  0  0  0  0  0  0
  140.8579   78.8504  218.8765 H   0  0  0  0  0  0  0  0  0  0  0  0
  140.7256   77.2561  217.9738 H   0  0  0  0  0  0  0  0  0  0  0  0
  139.3856   76.6838  219.6039 H   0  0  0  0  0  0  0  0  0  0  0  0
  139.4314   79.0638  220.3111 H   0  0  0  0  0  0  0  0  0  0  0  0
  139.1013   77.7754  221.6036 H   0  0  0  0  0  0  0  0  0  0  0  0
  141.3832   80.2989  220.3642 H   0  0  0  0  0  0  0  0  0  0  0  0
  143.1021   81.3655  221.7487 H   0  0  0  0  0  0  0  0  0  0  0  0
  143.5914   80.5373  224.0436 H   0  0  0  0  0  0  0  0  0  0  0  0
  142.2865   78.5911  224.8984 H   0  0  0  0  0  0  0  0  0  0  0  0
  140.5561   77.5236  223.5032 H   0  0  0  0  0  0  0  0  0  0  0  0
  139.1506   69.1045  222.7887 H   0  0  0  0  0  0  0  0  0  0  0  0
  139.5475   67.8204  227.2095 H   0  0  0  0  0  0  0  0  0  0  0  0
  140.3043   68.8931  229.3171 H   0  0  0  0  0  0  0  0  0  0  0  0
  141.0903   71.2528  229.2368 H   0  0  0  0  0  0  0  0  0  0  0  0
  141.1127   72.5026  227.1152 H   0  0  0  0  0  0  0  0  0  0  0  0
  1  2  2  0
  2  3  1  0
  3  4  1  0
  4  5  1  0
  5  6  2  0
  5  7  1  0
  7  8  1  0
  8  9  1  0
  9 10  1  0
 10 11  1  0
 11 12  1  0
 12 13  1  0
 13 14  1  0
 14 15  2  0
 15 16  1  0
 16 17  2  0
 17 18  1  0
 18 19  2  0
  2 20  1  0
 20 21  2  0
 21 22  1  0
 22 23  2  0
 23 24  1  0
 24 25  2  0
 25 26  1  0
 26 27  2  0
 27 28  1  0
 28 29  2  0
 12  7  1  0
 19 14  1  0
 29 20  1  0
 28 23  1  0
  3 30  1  0
  4 31  1  0
  4 32  1  0
  8 33  1  0
  8 34  1  0
  9 35  1  0
  9 36  1  0
 10 37  1  0
 10 38  1  0
 11 39  1  0
 11 40  1  0
 12 41  1  6
 13 42  1  0
 13 43  1  0
 15 44  1  0
 16 45  1  0
 17 46  1  0
 18 47  1  0
 19 48  1  0
 21 49  1  0
 24 50  1  0
 25 51  1  0
 26 52  1  0
 27 53  1  0
M  END
>  <smiles>  (18) 
O=C(NCC(=O)N1CCCCC1Cc1ccccc1)c1cnc2ccccc2n1

>  <score_type>  (18) 
oracle

>  <origin>  (18) 
autodockgpu

>  <m_score__min__energy>  (18) 
-9.1999999999999993

>  <m_primary>  (18) 
energy

>  <rmsd>  (18) 
2.197384895167407

>  <m_score__min__rmsd>  (18) 
2.197384895167407

>  <meeko>  (18) 
{"free_energy": -8.83, "intermolecular_energy": -10.62, "internal_energy": -2.24, "cluster_size": 46, "cluster_id": 1, "rank_in_cluster": 32}

>  <energy>  (18) 
-8.9

>  <cluster_rmsd>  (18) 
1.77

>  <cluster>  (18) 
1

$$$$

     RDKit          3D

 53 56  0  0  0  0  0  0  0  0999 V2000
  140.7820   71.4420  221.3100 O   0  0  0  0  0  0  0  0  0  0  0  0
  140.3370   72.0740  222.3060 C   0  0  0  0  0  0  0  0  0  0  0  0
  139.9580   73.4520  222.2370 N   0  0  0  0  0  0  0  0  0  0  0  0
  140.0540   74.2290  221.0160 C   0  0  0  0  0  0  0  0  0  0  0  0
  140.4770   75.6070  221.4230 C   0  0  0  0  0  0  0  0  0  0  0  0
  140.3010   75.9280  222.6290 O   0  0  0  0  0  0  0  0  0  0  0  0
  141.0590   76.5160  220.4680 N   0  0  0  0  0  0  0  0  0  0  0  0
  142.4530   76.2980  220.0920 C   0  0  0  0  0  0  0  0  0  0  0  0
  142.7330   76.8150  218.7010 C   0  0  0  0  0  0  0  0  0  0  0  0
  142.2570   78.2480  218.6150 C   0  0  0  0  0  0  0  0  0  0  0  0
  140.7620   78.2590  218.7490 C   0  0  0  0  0  0  0  0  0  0  0  0
  140.2360   77.5570  219.9630 C   0  0  2  0  0  0  0  0  0  0  0  0
  139.7870   78.5770  220.9550 C   0  0  0  0  0  0  0  0  0  0  0  0
  140.8030   79.1390  221.8330 C   0  0  0  0  0  0  0  0  0  0  0  0
  140.8670   78.7070  223.1410 C   0  0  0  0  0  0  0  0  0  0  0  0
  141.8010   79.1930  224.0350 C   0  0  0  0  0  0  0  0  0  0  0  0
  142.7240   80.1430  223.6570 C   0  0  0  0  0  0  0  0  0  0  0  0
  142.6780   80.5900  222.3510 C   0  0  0  0  0  0  0  0  0  0  0  0
  141.7360   80.0960  221.4570 C   0  0  0  0  0  0  0  0  0  0  0  0
  140.2000   71.3720  223.5950 C   0  0  0  0  0  0  0  0  0  0  0  0
  139.5800   70.1420  223.6470 C   0  0  0  0  0  0  0  0  0  0  0  0
  139.4510   69.4900  224.8250 N   0  0  0  0  0  0  0  0  0  0  0  0
  139.9240   70.0320  225.9720 C   0  0  0  0  0  0  0  0  0  0  0  0
  139.7710   69.3320  227.1550 C   0  0  0  0  0  0  0  0  0  0  0  0
  140.2380   69.8490  228.3350 C   0  0  0  0  0  0  0  0  0  0  0  0
  140.8630   71.0810  228.3010 C   0  0  0  0  0  0  0  0  0  0  0  0
  141.0110   71.7730  227.1150 C   0  0  0  0  0  0  0  0  0  0  0  0
  140.5430   71.2570  225.9270 C   0  0  0  0  0  0  0  0  0  0  0  0
  140.6650   71.8920  224.7460 N   0  0  0  0  0  0  0  0  0  0  0  0
  139.5950   73.8920  223.1360 H   0  0  0  0  0  0  0  0  0  0  0  0
  140.8008   73.7858  220.3409 H   0  0  0  0  0  0  0  0  0  0  0  0
  139.0937   74.2490  220.4798 H   0  0  0  0  0  0  0  0  0  0  0  0
  143.1034   76.8229  220.8071 H   0  0  0  0  0  0  0  0  0  0  0  0
  142.6517   75.2162  220.1070 H   0  0  0  0  0  0  0  0  0  0  0  0
  143.8135   76.7705  218.4994 H   0  0  0  0  0  0  0  0  0  0  0  0
  142.2066   76.1985  217.9575 H   0  0  0  0  0  0  0  0  0  0  0  0
  142.7072   78.8384  219.4266 H   0  0  0  0  0  0  0  0  0  0  0  0
  142.5535   78.6878  217.6513 H   0  0  0  0  0  0  0  0  0  0  0  0
  140.4295   79.3068  218.7884 H   0  0  0  0  0  0  0  0  0  0  0  0
  140.3687   77.7118  217.8796 H   0  0  0  0  0  0  0  0  0  0  0  0
  139.3536   76.9698  219.6688 H   0  0  0  0  0  0  0  0  0  0  0  0
  139.3364   79.4091  220.3941 H   0  0  0  0  0  0  0  0  0  0  0  0
  139.0978   78.0403  221.6236 H   0  0  0  0  0  0  0  0  0  0  0  0
  140.1486   77.9482  223.4847 H   0  0  0  0  0  0  0  0  0  0  0  0
  141.8078   78.8145  225.0678 H   0  0  0  0  0  0  0  0  0  0  0  0
  143.4688   80.5306  224.3677 H   0  0  0  0  0  0  0  0  0  0  0  0
  143.3987   81.3493  222.0132 H   0  0  0  0  0  0  0  0  0  0  0  0
  141.7292   80.4732  220.4237 H   0  0  0  0  0  0  0  0  0  0  0  0
  139.1878   69.6880  222.7250 H   0  0  0  0  0  0  0  0  0  0  0  0
  139.2705   68.3525  227.1486 H   0  0  0  0  0  0  0  0  0  0  0  0
  140.1190   69.2999  229.2807 H   0  0  0  0  0  0  0  0  0  0  0  0
  141.2490   71.5177  229.2339 H   0  0  0  0  0  0  0  0  0  0  0  0
  141.5111   72.7528  227.1193 H   0  0  0  0  0  0  0  0  0  0  0  0
  1  2  2  0
  2  3  1  0
  3  4  1  0
  4  5  1  0
  5  6  2  0
  5  7  1  0
  7  8  1  0
  8  9  1  0
  9 10  1  0
 10 11  1  0
 11 12  1  0
 12 13  1  0
 13 14  1  0
 14 15  2  0
 15 16  1  0
 16 17  2  0
 17 18  1  0
 18 19  2  0
  2 20  1  0
 20 21  2  0
 21 22  1  0
 22 23  2  0
 23 24  1  0
 24 25  2  0
 25 26  1  0
 26 27  2  0
 27 28  1  0
 28 29  2  0
 12  7  1  0
 19 14  1  0
 29 20  1  0
 28 23  1  0
  3 30  1  0
  4 31  1  0
  4 32  1  0
  8 33  1  0
  8 34  1  0
  9 35  1  0
  9 36  1  0
 10 37  1  0
 10 38  1  0
 11 39  1  0
 11 40  1  0
 12 41  1  6
 13 42  1  0
 13 43  1  0
 15 44  1  0
 16 45  1  0
 17 46  1  0
 18 47  1  0
 19 48  1  0
 21 49  1  0
 24 50  1  0
 25 51  1  0
 26 52  1  0
 27 53  1  0
M  END
>  <smiles>  (19) 
O=C(NCC(=O)N1CCCCC1Cc1ccccc1)c1cnc2ccccc2n1

>  <score_type>  (19) 
oracle

>  <origin>  (19) 
autodockgpu

>  <m_score__min__energy>  (19) 
-9.1999999999999993

>  <m_primary>  (19) 
energy

>  <rmsd>  (19) 
2.3672460164388482

>  <m_score__min__rmsd>  (19) 
2.3672460164388482

>  <meeko>  (19) 
{"free_energy": -8.92, "intermolecular_energy": -10.71, "internal_energy": -2.18, "cluster_size": 46, "cluster_id": 1, "rank_in_cluster": 12}

>  <energy>  (19) 
-8.9

>  <cluster_rmsd>  (19) 
1.84

>  <cluster>  (19) 
1

$$$$

     RDKit          3D

 53 56  0  0  0  0  0  0  0  0999 V2000
  139.9100   70.8750  221.1610 O   0  0  0  0  0  0  0  0  0  0  0  0
  140.1700   71.5490  222.1940 C   0  0  0  0  0  0  0  0  0  0  0  0
  140.5950   72.9140  222.1380 N   0  0  0  0  0  0  0  0  0  0  0  0
  140.7590   73.6310  220.8870 C   0  0  0  0  0  0  0  0  0  0  0  0
  140.8130   75.0860  221.2360 C   0  0  0  0  0  0  0  0  0  0  0  0
  140.3260   75.4270  222.3480 O   0  0  0  0  0  0  0  0  0  0  0  0
  141.4000   76.0430  220.3340 N   0  0  0  0  0  0  0  0  0  0  0  0
  142.8310   75.9300  220.0670 C   0  0  0  0  0  0  0  0  0  0  0  0
  143.1810   76.4790  218.7040 C   0  0  0  0  0  0  0  0  0  0  0  0
  142.6090   77.8740  218.5860 C   0  0  0  0  0  0  0  0  0  0  0  0
  141.1120   77.7750  218.6020 C   0  0  0  0  0  0  0  0  0  0  0  0
  140.5450   77.0260  219.7690 C   0  0  2  0  0  0  0  0  0  0  0  0
  139.9460   78.0010  220.7260 C   0  0  0  0  0  0  0  0  0  0  0  0
  140.8450   78.6190  221.6900 C   0  0  0  0  0  0  0  0  0  0  0  0
  141.6420   79.6680  221.2820 C   0  0  0  0  0  0  0  0  0  0  0  0
  142.5210   80.3050  222.1360 C   0  0  0  0  0  0  0  0  0  0  0  0
  142.6450   79.9170  223.4510 C   0  0  0  0  0  0  0  0  0  0  0  0
  141.8570   78.8680  223.8820 C   0  0  0  0  0  0  0  0  0  0  0  0
  140.9740   78.2320  223.0170 C   0  0  0  0  0  0  0  0  0  0  0  0
  140.0330   70.9100  223.5160 C   0  0  0  0  0  0  0  0  0  0  0  0
  139.4470   69.6670  223.6240 C   0  0  0  0  0  0  0  0  0  0  0  0
  139.3180   69.0740  224.8320 N   0  0  0  0  0  0  0  0  0  0  0  0
  139.7580   69.6870  225.9550 C   0  0  0  0  0  0  0  0  0  0  0  0
  139.6060   69.0450  227.1710 C   0  0  0  0  0  0  0  0  0  0  0  0
  140.0390   69.6360  228.3300 C   0  0  0  0  0  0  0  0  0  0  0  0
  140.6290   70.8820  228.2400 C   0  0  0  0  0  0  0  0  0  0  0  0
  140.7770   71.5160  227.0220 C   0  0  0  0  0  0  0  0  0  0  0  0
  140.3420   70.9260  225.8550 C   0  0  0  0  0  0  0  0  0  0  0  0
  140.4640   71.5030  224.6450 N   0  0  0  0  0  0  0  0  0  0  0  0
  140.7890   73.3920  223.0690 H   0  0  0  0  0  0  0  0  0  0  0  0
  141.6922   73.3238  220.3922 H   0  0  0  0  0  0  0  0  0  0  0  0
  139.9313   73.4181  220.1945 H   0  0  0  0  0  0  0  0  0  0  0  0
  143.3838   76.4937  220.8329 H   0  0  0  0  0  0  0  0  0  0  0  0
  143.1056   74.8651  220.0929 H   0  0  0  0  0  0  0  0  0  0  0  0
  144.2743   76.5155  218.5884 H   0  0  0  0  0  0  0  0  0  0  0  0
  142.7618   75.8326  217.9188 H   0  0  0  0  0  0  0  0  0  0  0  0
  142.9498   78.4881  219.4326 H   0  0  0  0  0  0  0  0  0  0  0  0
  142.9467   78.3430  217.6501 H   0  0  0  0  0  0  0  0  0  0  0  0
  140.7016   78.7954  218.6181 H   0  0  0  0  0  0  0  0  0  0  0  0
  140.8292   77.2080  217.7028 H   0  0  0  0  0  0  0  0  0  0  0  0
  139.7334   76.3794  219.4040 H   0  0  0  0  0  0  0  0  0  0  0  0
  139.4883   78.8077  220.1347 H   0  0  0  0  0  0  0  0  0  0  0  0
  139.2410   77.4113  221.3304 H   0  0  0  0  0  0  0  0  0  0  0  0
  141.5752   80.0098  220.2386 H   0  0  0  0  0  0  0  0  0  0  0  0
  143.1330   81.1374  221.7586 H   0  0  0  0  0  0  0  0  0  0  0  0
  143.3449   80.4231  224.1322 H   0  0  0  0  0  0  0  0  0  0  0  0
  141.9292   78.5303  224.9264 H   0  0  0  0  0  0  0  0  0  0  0  0
  140.3612   77.3999  223.3940 H   0  0  0  0  0  0  0  0  0  0  0  0
  139.0821   69.1545  222.7217 H   0  0  0  0  0  0  0  0  0  0  0  0
  139.1339   68.0522  227.2084 H   0  0  0  0  0  0  0  0  0  0  0  0
  139.9203   69.1336  229.3014 H   0  0  0  0  0  0  0  0  0  0  0  0
  140.9871   71.3777  229.1544 H   0  0  0  0  0  0  0  0  0  0  0  0
  141.2499   72.5084  226.9827 H   0  0  0  0  0  0  0  0  0  0  0  0
  1  2  2  0
  2  3  1  0
  3  4  1  0
  4  5  1  0
  5  6  2  0
  5  7  1  0
  7  8  1  0
  8  9  1  0
  9 10  1  0
 10 11  1  0
 11 12  1  0
 12 13  1  0
 13 14  1  0
 14 15  2  0
 15 16  1  0
 16 17  2  0
 17 18  1  0
 18 19  2  0
  2 20  1  0
 20 21  2  0
 21 22  1  0
 22 23  2  0
 23 24  1  0
 24 25  2  0
 25 26  1  0
 26 27  2  0
 27 28  1  0
 28 29  2  0
 12  7  1  0
 19 14  1  0
 29 20  1  0
 28 23  1  0
  3 30  1  0
  4 31  1  0
  4 32  1  0
  8 33  1  0
  8 34  1  0
  9 35  1  0
  9 36  1  0
 10 37  1  0
 10 38  1  0
 11 39  1  0
 11 40  1  0
 12 41  1  6
 13 42  1  0
 13 43  1  0
 15 44  1  0
 16 45  1  0
 17 46  1  0
 18 47  1  0
 19 48  1  0
 21 49  1  0
 24 50  1  0
 25 51  1  0
 26 52  1  0
 27 53  1  0
M  END
>  <smiles>  (20) 
O=C(NCC(=O)N1CCCCC1Cc1ccccc1)c1cnc2ccccc2n1

>  <score_type>  (20) 
oracle

>  <origin>  (20) 
autodockgpu

>  <m_score__min__energy>  (20) 
-9.1999999999999993

>  <m_primary>  (20) 
energy

>  <rmsd>  (20) 
2.3943905475592757

>  <m_score__min__rmsd>  (20) 
2.3943905475592757

>  <meeko>  (20) 
{"free_energy": -8.38, "intermolecular_energy": -10.17, "internal_energy": -2.35, "cluster_size": 46, "cluster_id": 1, "rank_in_cluster": 40}

>  <energy>  (20) 
-8.9

>  <cluster_rmsd>  (20) 
1.78

>  <cluster>  (20) 
1

$$$$

     RDKit          3D

 53 56  0  0  0  0  0  0  0  0999 V2000
  140.7580   71.3670  221.3000 O   0  0  0  0  0  0  0  0  0  0  0  0
  140.3210   72.0030  222.2970 C   0  0  0  0  0  0  0  0  0  0  0  0
  139.9230   73.3750  222.2210 N   0  0  0  0  0  0  0  0  0  0  0  0
  139.9900   74.1420  220.9920 C   0  0  0  0  0  0  0  0  0  0  0  0
  140.2320   75.5650  221.3920 C   0  0  0  0  0  0  0  0  0  0  0  0
  139.8270   75.9150  222.5330 O   0  0  0  0  0  0  0  0  0  0  0  0
  140.9000   76.4820  220.5040 N   0  0  0  0  0  0  0  0  0  0  0  0
  142.2880   76.1940  220.1560 C   0  0  0  0  0  0  0  0  0  0  0  0
  142.6440   76.7610  218.8030 C   0  0  0  0  0  0  0  0  0  0  0  0
  142.2620   78.2250  218.7800 C   0  0  0  0  0  0  0  0  0  0  0  0
  140.7670   78.3250  218.8720 C   0  0  0  0  0  0  0  0  0  0  0  0
  140.1600   77.5980  220.0310 C   0  0  2  0  0  0  0  0  0  0  0  0
  139.7450   78.5920  221.0630 C   0  0  0  0  0  0  0  0  0  0  0  0
  140.7890   79.1260  221.9260 C   0  0  0  0  0  0  0  0  0  0  0  0
  141.4410   80.2810  221.5470 C   0  0  0  0  0  0  0  0  0  0  0  0
  142.4430   80.8490  222.3100 C   0  0  0  0  0  0  0  0  0  0  0  0
  142.8430   80.2810  223.4990 C   0  0  0  0  0  0  0  0  0  0  0  0
  142.2040   79.1230  223.8970 C   0  0  0  0  0  0  0  0  0  0  0  0
  141.1960   78.5580  223.1250 C   0  0  0  0  0  0  0  0  0  0  0  0
  140.2140   71.3100  223.5940 C   0  0  0  0  0  0  0  0  0  0  0  0
  139.6070   70.0750  223.6680 C   0  0  0  0  0  0  0  0  0  0  0  0
  139.5040   69.4330  224.8540 N   0  0  0  0  0  0  0  0  0  0  0  0
  139.9940   69.9890  225.9870 C   0  0  0  0  0  0  0  0  0  0  0  0
  139.8680   69.2980  227.1790 C   0  0  0  0  0  0  0  0  0  0  0  0
  140.3510   69.8300  228.3460 C   0  0  0  0  0  0  0  0  0  0  0  0
  140.9640   71.0670  228.2900 C   0  0  0  0  0  0  0  0  0  0  0  0
  141.0850   71.7500  227.0950 C   0  0  0  0  0  0  0  0  0  0  0  0
  140.6000   71.2200  225.9200 C   0  0  0  0  0  0  0  0  0  0  0  0
  140.6940   71.8450  224.7310 N   0  0  0  0  0  0  0  0  0  0  0  0
  139.5690   73.8180  223.1220 H   0  0  0  0  0  0  0  0  0  0  0  0
  140.8151   73.7788  220.3618 H   0  0  0  0  0  0  0  0  0  0  0  0
  139.0612   74.0444  220.4108 H   0  0  0  0  0  0  0  0  0  0  0  0
  142.9475   76.6390  220.9157 H   0  0  0  0  0  0  0  0  0  0  0  0
  142.4171   75.1022  220.1195 H   0  0  0  0  0  0  0  0  0  0  0  0
  143.7253   76.6570  218.6300 H   0  0  0  0  0  0  0  0  0  0  0  0
  142.1041   76.2183  218.0131 H   0  0  0  0  0  0  0  0  0  0  0  0
  142.7224   78.7427  219.6344 H   0  0  0  0  0  0  0  0  0  0  0  0
  142.6161   78.6939  217.8501 H   0  0  0  0  0  0  0  0  0  0  0  0
  140.4997   79.3886  218.9571 H   0  0  0  0  0  0  0  0  0  0  0  0
  140.3681   77.8488  217.9642 H   0  0  0  0  0  0  0  0  0  0  0  0
  139.2522   77.0853  219.6803 H   0  0  0  0  0  0  0  0  0  0  0  0
  139.2820   79.4408  220.5385 H   0  0  0  0  0  0  0  0  0  0  0  0
  139.0732   78.0398  221.7366 H   0  0  0  0  0  0  0  0  0  0  0  0
  141.1528   80.7673  220.6034 H   0  0  0  0  0  0  0  0  0  0  0  0
  142.9301   81.7716  221.9614 H   0  0  0  0  0  0  0  0  0  0  0  0
  143.6403   80.7319  224.1080 H   0  0  0  0  0  0  0  0  0  0  0  0
  142.4978   78.6400  224.8406 H   0  0  0  0  0  0  0  0  0  0  0  0
  140.7077   77.6360  223.4736 H   0  0  0  0  0  0  0  0  0  0  0  0
  139.2038   69.6085  222.7570 H   0  0  0  0  0  0  0  0  0  0  0  0
  139.3764   68.3140  227.1901 H   0  0  0  0  0  0  0  0  0  0  0  0
  140.2536   69.2885  229.2985 H   0  0  0  0  0  0  0  0  0  0  0  0
  141.3623   71.5155  229.2121 H   0  0  0  0  0  0  0  0  0  0  0  0
  141.5770   72.7337  227.0819 H   0  0  0  0  0  0  0  0  0  0  0  0
  1  2  2  0
  2  3  1  0
  3  4  1  0
  4  5  1  0
  5  6  2  0
  5  7  1  0
  7  8  1  0
  8  9  1  0
  9 10  1  0
 10 11  1  0
 11 12  1  0
 12 13  1  0
 13 14  1  0
 14 15  2  0
 15 16  1  0
 16 17  2  0
 17 18  1  0
 18 19  2  0
  2 20  1  0
 20 21  2  0
 21 22  1  0
 22 23  2  0
 23 24  1  0
 24 25  2  0
 25 26  1  0
 26 27  2  0
 27 28  1  0
 28 29  2  0
 12  7  1  0
 19 14  1  0
 29 20  1  0
 28 23  1  0
  3 30  1  0
  4 31  1  0
  4 32  1  0
  8 33  1  0
  8 34  1  0
  9 35  1  0
  9 36  1  0
 10 37  1  0
 10 38  1  0
 11 39  1  0
 11 40  1  0
 12 41  1  6
 13 42  1  0
 13 43  1  0
 15 44  1  0
 16 45  1  0
 17 46  1  0
 18 47  1  0
 19 48  1  0
 21 49  1  0
 24 50  1  0
 25 51  1  0
 26 52  1  0
 27 53  1  0
M  END
>  <smiles>  (21) 
O=C(NCC(=O)N1CCCCC1Cc1ccccc1)c1cnc2ccccc2n1

>  <score_type>  (21) 
oracle

>  <origin>  (21) 
autodockgpu

>  <m_score__min__energy>  (21) 
-9.1999999999999993

>  <m_primary>  (21) 
energy

>  <rmsd>  (21) 
2.3426907441980767

>  <m_score__min__rmsd>  (21) 
2.3426907441980767

>  <meeko>  (21) 
{"free_energy": -8.9, "intermolecular_energy": -10.69, "internal_energy": -2.2, "cluster_size": 46, "cluster_id": 1, "rank_in_cluster": 17}

>  <energy>  (21) 
-8.89

>  <cluster_rmsd>  (21) 
1.8

>  <cluster>  (21) 
1

$$$$

     RDKit          3D

 53 56  0  0  0  0  0  0  0  0999 V2000
  140.7410   71.4150  221.3050 O   0  0  0  0  0  0  0  0  0  0  0  0
  140.3120   72.0470  222.3080 C   0  0  0  0  0  0  0  0  0  0  0  0
  139.9220   73.4220  222.2430 N   0  0  0  0  0  0  0  0  0  0  0  0
  139.9900   74.1970  221.0180 C   0  0  0  0  0  0  0  0  0  0  0  0
  140.3570   75.5930  221.4190 C   0  0  0  0  0  0  0  0  0  0  0  0
  140.1020   75.9330  222.6060 O   0  0  0  0  0  0  0  0  0  0  0  0
  140.9730   76.4960  220.4810 N   0  0  0  0  0  0  0  0  0  0  0  0
  142.3600   76.2360  220.1060 C   0  0  0  0  0  0  0  0  0  0  0  0
  142.6640   76.7640  218.7250 C   0  0  0  0  0  0  0  0  0  0  0  0
  142.2380   78.2140  218.6600 C   0  0  0  0  0  0  0  0  0  0  0  0
  140.7430   78.2740  218.7890 C   0  0  0  0  0  0  0  0  0  0  0  0
  140.1880   77.5720  219.9900 C   0  0  2  0  0  0  0  0  0  0  0  0
  139.7700   78.5910  220.9960 C   0  0  0  0  0  0  0  0  0  0  0  0
  140.8100   79.1330  221.8590 C   0  0  0  0  0  0  0  0  0  0  0  0
  141.5210   80.2360  221.4340 C   0  0  0  0  0  0  0  0  0  0  0  0
  142.5230   80.8080  222.1940 C   0  0  0  0  0  0  0  0  0  0  0  0
  142.8630   80.2980  223.4270 C   0  0  0  0  0  0  0  0  0  0  0  0
  142.1630   79.1930  223.8730 C   0  0  0  0  0  0  0  0  0  0  0  0
  141.1560   78.6240  223.1030 C   0  0  0  0  0  0  0  0  0  0  0  0
  140.2040   71.3470  223.6010 C   0  0  0  0  0  0  0  0  0  0  0  0
  139.6050   70.1070  223.6660 C   0  0  0  0  0  0  0  0  0  0  0  0
  139.5030   69.4580  224.8480 N   0  0  0  0  0  0  0  0  0  0  0  0
  139.9840   70.0110  225.9860 C   0  0  0  0  0  0  0  0  0  0  0  0
  139.8590   69.3130  227.1730 C   0  0  0  0  0  0  0  0  0  0  0  0
  140.3330   69.8410  228.3450 C   0  0  0  0  0  0  0  0  0  0  0  0
  140.9380   71.0830  228.2980 C   0  0  0  0  0  0  0  0  0  0  0  0
  141.0590   71.7730  227.1080 C   0  0  0  0  0  0  0  0  0  0  0  0
  140.5820   71.2460  225.9280 C   0  0  0  0  0  0  0  0  0  0  0  0
  140.6770   71.8790  224.7430 N   0  0  0  0  0  0  0  0  0  0  0  0
  139.5740   73.8620  223.1470 H   0  0  0  0  0  0  0  0  0  0  0  0
  140.7555   73.7806  220.3467 H   0  0  0  0  0  0  0  0  0  0  0  0
  139.0308   74.1763  220.4799 H   0  0  0  0  0  0  0  0  0  0  0  0
  143.0252   76.7269  220.8316 H   0  0  0  0  0  0  0  0  0  0  0  0
  142.5206   75.1478  220.1043 H   0  0  0  0  0  0  0  0  0  0  0  0
  143.7432   76.6853  218.5271 H   0  0  0  0  0  0  0  0  0  0  0  0
  142.1203   76.1776  217.9696 H   0  0  0  0  0  0  0  0  0  0  0  0
  142.7049   78.7758  219.4825 H   0  0  0  0  0  0  0  0  0  0  0  0
  142.5535   78.6586  217.7046 H   0  0  0  0  0  0  0  0  0  0  0  0
  140.4463   79.3318  218.8434 H   0  0  0  0  0  0  0  0  0  0  0  0
  140.3350   77.7537  217.9099 H   0  0  0  0  0  0  0  0  0  0  0  0
  139.2869   77.0203  219.6841 H   0  0  0  0  0  0  0  0  0  0  0  0
  139.3208   79.4328  220.4487 H   0  0  0  0  0  0  0  0  0  0  0  0
  139.0849   78.0598  221.6731 H   0  0  0  0  0  0  0  0  0  0  0  0
  141.2816   80.6760  220.4547 H   0  0  0  0  0  0  0  0  0  0  0  0
  143.0591   81.6871  221.8069 H   0  0  0  0  0  0  0  0  0  0  0  0
  143.6605   80.7523  224.0333 H   0  0  0  0  0  0  0  0  0  0  0  0
  142.4069   78.7571  224.8530 H   0  0  0  0  0  0  0  0  0  0  0  0
  140.6182   77.7459  223.4900 H   0  0  0  0  0  0  0  0  0  0  0  0
  139.2078   69.6429  222.7512 H   0  0  0  0  0  0  0  0  0  0  0  0
  139.3748   68.3253  227.1764 H   0  0  0  0  0  0  0  0  0  0  0  0
  140.2351   69.2935  229.2940 H   0  0  0  0  0  0  0  0  0  0  0  0
  141.3296   71.5292  229.2241 H   0  0  0  0  0  0  0  0  0  0  0  0
  141.5445   72.7601  227.1022 H   0  0  0  0  0  0  0  0  0  0  0  0
  1  2  2  0
  2  3  1  0
  3  4  1  0
  4  5  1  0
  5  6  2  0
  5  7  1  0
  7  8  1  0
  8  9  1  0
  9 10  1  0
 10 11  1  0
 11 12  1  0
 12 13  1  0
 13 14  1  0
 14 15  2  0
 15 16  1  0
 16 17  2  0
 17 18  1  0
 18 19  2  0
  2 20  1  0
 20 21  2  0
 21 22  1  0
 22 23  2  0
 23 24  1  0
 24 25  2  0
 25 26  1  0
 26 27  2  0
 27 28  1  0
 28 29  2  0
 12  7  1  0
 19 14  1  0
 29 20  1  0
 28 23  1  0
  3 30  1  0
  4 31  1  0
  4 32  1  0
  8 33  1  0
  8 34  1  0
  9 35  1  0
  9 36  1  0
 10 37  1  0
 10 38  1  0
 11 39  1  0
 11 40  1  0
 12 41  1  6
 13 42  1  0
 13 43  1  0
 15 44  1  0
 16 45  1  0
 17 46  1  0
 18 47  1  0
 19 48  1  0
 21 49  1  0
 24 50  1  0
 25 51  1  0
 26 52  1  0
 27 53  1  0
M  END
>  <smiles>  (22) 
O=C(NCC(=O)N1CCCCC1Cc1ccccc1)c1cnc2ccccc2n1

>  <score_type>  (22) 
oracle

>  <origin>  (22) 
autodockgpu

>  <m_score__min__energy>  (22) 
-9.1999999999999993

>  <m_primary>  (22) 
energy

>  <rmsd>  (22) 
2.341821723449097

>  <m_score__min__rmsd>  (22) 
2.341821723449097

>  <meeko>  (22) 
{"free_energy": -8.92, "intermolecular_energy": -10.71, "internal_energy": -2.19, "cluster_size": 46, "cluster_id": 1, "rank_in_cluster": 13}

>  <energy>  (22) 
-8.89

>  <cluster_rmsd>  (22) 
1.75

>  <cluster>  (22) 
1

$$$$

     RDKit          3D

 53 56  0  0  0  0  0  0  0  0999 V2000
  140.1170   70.9580  221.2790 O   0  0  0  0  0  0  0  0  0  0  0  0
  139.9310   71.6250  222.3330 C   0  0  0  0  0  0  0  0  0  0  0  0
  139.7260   73.0410  222.3220 N   0  0  0  0  0  0  0  0  0  0  0  0
  139.7170   73.8200  221.0980 C   0  0  0  0  0  0  0  0  0  0  0  0
  140.0810   75.2210  221.4850 C   0  0  0  0  0  0  0  0  0  0  0  0
  139.6380   75.6450  222.5860 O   0  0  0  0  0  0  0  0  0  0  0  0
  140.9020   76.0370  220.6270 N   0  0  0  0  0  0  0  0  0  0  0  0
  142.2960   75.6390  220.4500 C   0  0  0  0  0  0  0  0  0  0  0  0
  142.8330   76.0990  219.1160 C   0  0  0  0  0  0  0  0  0  0  0  0
  142.5600   77.5800  218.9720 C   0  0  0  0  0  0  0  0  0  0  0  0
  141.0750   77.7820  218.8940 C   0  0  0  0  0  0  0  0  0  0  0  0
  140.2980   77.1670  220.0170 C   0  0  2  0  0  0  0  0  0  0  0  0
  139.8470   78.2480  220.9420 C   0  0  0  0  0  0  0  0  0  0  0  0
  140.8560   78.8390  221.8110 C   0  0  0  0  0  0  0  0  0  0  0  0
  141.5750   79.9240  221.3550 C   0  0  0  0  0  0  0  0  0  0  0  0
  142.5490   80.5390  222.1180 C   0  0  0  0  0  0  0  0  0  0  0  0
  142.8510   80.0910  223.3850 C   0  0  0  0  0  0  0  0  0  0  0  0
  142.1430   79.0050  223.8610 C   0  0  0  0  0  0  0  0  0  0  0  0
  141.1640   78.3920  223.0880 C   0  0  0  0  0  0  0  0  0  0  0  0
  139.9210   70.9240  223.6290 C   0  0  0  0  0  0  0  0  0  0  0  0
  139.4650   69.6250  223.7080 C   0  0  0  0  0  0  0  0  0  0  0  0
  139.4530   68.9750  224.8930 N   0  0  0  0  0  0  0  0  0  0  0  0
  139.8870   69.5840  226.0220 C   0  0  0  0  0  0  0  0  0  0  0  0
  139.8580   68.8820  227.2140 C   0  0  0  0  0  0  0  0  0  0  0  0
  140.2880   69.4660  228.3760 C   0  0  0  0  0  0  0  0  0  0  0  0
  140.7490   70.7670  228.3160 C   0  0  0  0  0  0  0  0  0  0  0  0
  140.7750   71.4600  227.1210 C   0  0  0  0  0  0  0  0  0  0  0  0
  140.3420   70.8780  225.9510 C   0  0  0  0  0  0  0  0  0  0  0  0
  140.3480   71.5110  224.7630 N   0  0  0  0  0  0  0  0  0  0  0  0
  139.5790   73.5080  223.2670 H   0  0  0  0  0  0  0  0  0  0  0  0
  140.4533   73.4185  220.3862 H   0  0  0  0  0  0  0  0  0  0  0  0
  138.7317   73.7845  220.6102 H   0  0  0  0  0  0  0  0  0  0  0  0
  142.9008   76.0856  221.2529 H   0  0  0  0  0  0  0  0  0  0  0  0
  142.3507   74.5410  220.4862 H   0  0  0  0  0  0  0  0  0  0  0  0
  143.9166   75.9154  219.0692 H   0  0  0  0  0  0  0  0  0  0  0  0
  142.3429   75.5451  218.3018 H   0  0  0  0  0  0  0  0  0  0  0  0
  142.9631   78.1185  219.8424 H   0  0  0  0  0  0  0  0  0  0  0  0
  143.0426   77.9668  218.0623 H   0  0  0  0  0  0  0  0  0  0  0  0
  140.8764   78.8639  218.8926 H   0  0  0  0  0  0  0  0  0  0  0  0
  140.7417   77.2785  217.9745 H   0  0  0  0  0  0  0  0  0  0  0  0
  139.3986   76.6928  219.5972 H   0  0  0  0  0  0  0  0  0  0  0  0
  139.4244   79.0561  220.3269 H   0  0  0  0  0  0  0  0  0  0  0  0
  139.1331   77.7616  221.6230 H   0  0  0  0  0  0  0  0  0  0  0  0
  141.3655   80.3137  220.3479 H   0  0  0  0  0  0  0  0  0  0  0  0
  143.0930   81.4019  221.7062 H   0  0  0  0  0  0  0  0  0  0  0  0
  143.6260   80.5793  223.9940 H   0  0  0  0  0  0  0  0  0  0  0  0
  142.3574   78.6188  224.8684 H   0  0  0  0  0  0  0  0  0  0  0  0
  140.6189   77.5297  223.4994 H   0  0  0  0  0  0  0  0  0  0  0  0
  139.1088   69.1146  222.8010 H   0  0  0  0  0  0  0  0  0  0  0  0
  139.4867   67.8467  227.2286 H   0  0  0  0  0  0  0  0  0  0  0  0
  140.2669   68.9157  229.3282 H   0  0  0  0  0  0  0  0  0  0  0  0
  141.1011   71.2591  229.2346 H   0  0  0  0  0  0  0  0  0  0  0  0
  141.1481   72.4946  227.1042 H   0  0  0  0  0  0  0  0  0  0  0  0
  1  2  2  0
  2  3  1  0
  3  4  1  0
  4  5  1  0
  5  6  2  0
  5  7  1  0
  7  8  1  0
  8  9  1  0
  9 10  1  0
 10 11  1  0
 11 12  1  0
 12 13  1  0
 13 14  1  0
 14 15  2  0
 15 16  1  0
 16 17  2  0
 17 18  1  0
 18 19  2  0
  2 20  1  0
 20 21  2  0
 21 22  1  0
 22 23  2  0
 23 24  1  0
 24 25  2  0
 25 26  1  0
 26 27  2  0
 27 28  1  0
 28 29  2  0
 12  7  1  0
 19 14  1  0
 29 20  1  0
 28 23  1  0
  3 30  1  0
  4 31  1  0
  4 32  1  0
  8 33  1  0
  8 34  1  0
  9 35  1  0
  9 36  1  0
 10 37  1  0
 10 38  1  0
 11 39  1  0
 11 40  1  0
 12 41  1  6
 13 42  1  0
 13 43  1  0
 15 44  1  0
 16 45  1  0
 17 46  1  0
 18 47  1  0
 19 48  1  0
 21 49  1  0
 24 50  1  0
 25 51  1  0
 26 52  1  0
 27 53  1  0
M  END
>  <smiles>  (23) 
O=C(NCC(=O)N1CCCCC1Cc1ccccc1)c1cnc2ccccc2n1

>  <score_type>  (23) 
oracle

>  <origin>  (23) 
autodockgpu

>  <m_score__min__energy>  (23) 
-9.1999999999999993

>  <m_primary>  (23) 
energy

>  <rmsd>  (23) 
2.202044337684269

>  <m_score__min__rmsd>  (23) 
2.202044337684269

>  <meeko>  (23) 
{"free_energy": -8.83, "intermolecular_energy": -10.62, "internal_energy": -2.24, "cluster_size": 46, "cluster_id": 1, "rank_in_cluster": 31}

>  <energy>  (23) 
-8.89

>  <cluster_rmsd>  (23) 
1.61

>  <cluster>  (23) 
1

$$$$

     RDKit          3D

 53 56  0  0  0  0  0  0  0  0999 V2000
  140.3480   71.2750  221.2760 O   0  0  0  0  0  0  0  0  0  0  0  0
  140.0750   71.9250  222.3210 C   0  0  0  0  0  0  0  0  0  0  0  0
  139.7920   73.3270  222.3040 N   0  0  0  0  0  0  0  0  0  0  0  0
  139.7970   74.1110  221.0840 C   0  0  0  0  0  0  0  0  0  0  0  0
  140.2110   75.4970  221.4710 C   0  0  0  0  0  0  0  0  0  0  0  0
  139.9350   75.8700  222.6430 O   0  0  0  0  0  0  0  0  0  0  0  0
  140.8930   76.3550  220.5370 N   0  0  0  0  0  0  0  0  0  0  0  0
  142.2840   76.0430  220.2250 C   0  0  0  0  0  0  0  0  0  0  0  0
  142.6600   76.5250  218.8440 C   0  0  0  0  0  0  0  0  0  0  0  0
  142.2830   77.9860  218.7260 C   0  0  0  0  0  0  0  0  0  0  0  0
  140.7880   78.0950  218.7920 C   0  0  0  0  0  0  0  0  0  0  0  0
  140.1630   77.4420  219.9870 C   0  0  2  0  0  0  0  0  0  0  0  0
  139.7380   78.5000  220.9500 C   0  0  0  0  0  0  0  0  0  0  0  0
  140.7690   79.0640  221.8100 C   0  0  0  0  0  0  0  0  0  0  0  0
  140.8600   78.6290  223.1150 C   0  0  0  0  0  0  0  0  0  0  0  0
  141.8080   79.1160  223.9940 C   0  0  0  0  0  0  0  0  0  0  0  0
  142.7190   80.0720  223.6020 C   0  0  0  0  0  0  0  0  0  0  0  0
  142.6460   80.5230  222.2980 C   0  0  0  0  0  0  0  0  0  0  0  0
  141.6890   80.0270  221.4210 C   0  0  0  0  0  0  0  0  0  0  0  0
  140.0440   71.2170  223.6140 C   0  0  0  0  0  0  0  0  0  0  0  0
  139.5400   69.9360  223.6880 C   0  0  0  0  0  0  0  0  0  0  0  0
  139.5090   69.2800  224.8690 N   0  0  0  0  0  0  0  0  0  0  0  0
  139.9680   69.8670  226.0000 C   0  0  0  0  0  0  0  0  0  0  0  0
  139.9180   69.1600  227.1880 C   0  0  0  0  0  0  0  0  0  0  0  0
  140.3730   69.7210  228.3520 C   0  0  0  0  0  0  0  0  0  0  0  0
  140.8820   71.0050  228.2970 C   0  0  0  0  0  0  0  0  0  0  0  0
  140.9290   71.7030  227.1060 C   0  0  0  0  0  0  0  0  0  0  0  0
  140.4710   71.1430  225.9340 C   0  0  0  0  0  0  0  0  0  0  0  0
  140.4970   71.7820  224.7490 N   0  0  0  0  0  0  0  0  0  0  0  0
  139.5740   73.7800  223.2420 H   0  0  0  0  0  0  0  0  0  0  0  0
  140.5124   73.6880  220.3634 H   0  0  0  0  0  0  0  0  0  0  0  0
  138.8059   74.1105  220.6068 H   0  0  0  0  0  0  0  0  0  0  0  0
  142.9351   76.5321  220.9645 H   0  0  0  0  0  0  0  0  0  0  0  0
  142.4095   74.9506  220.2567 H   0  0  0  0  0  0  0  0  0  0  0  0
  143.7432   76.4079  218.6923 H   0  0  0  0  0  0  0  0  0  0  0  0
  142.1289   75.9360  218.0817 H   0  0  0  0  0  0  0  0  0  0  0  0
  142.7340   78.5542  219.5529 H   0  0  0  0  0  0  0  0  0  0  0  0
  142.6506   78.3960  217.7737 H   0  0  0  0  0  0  0  0  0  0  0  0
  140.5230   79.1625  218.8076 H   0  0  0  0  0  0  0  0  0  0  0  0
  140.3994   77.5644  217.9103 H   0  0  0  0  0  0  0  0  0  0  0  0
  139.2578   76.9107  219.6579 H   0  0  0  0  0  0  0  0  0  0  0  0
  139.3048   79.3255  220.3661 H   0  0  0  0  0  0  0  0  0  0  0  0
  139.0379   77.9987  221.6345 H   0  0  0  0  0  0  0  0  0  0  0  0
  140.1515   77.8659  223.4695 H   0  0  0  0  0  0  0  0  0  0  0  0
  141.8359   78.7336  225.0250 H   0  0  0  0  0  0  0  0  0  0  0  0
  143.4750   80.4612  224.2998 H   0  0  0  0  0  0  0  0  0  0  0  0
  143.3565   81.2866  221.9486 H   0  0  0  0  0  0  0  0  0  0  0  0
  141.6600   80.4085  220.3897 H   0  0  0  0  0  0  0  0  0  0  0  0
  139.1606   69.4447  222.7799 H   0  0  0  0  0  0  0  0  0  0  0  0
  139.5094   68.1387  227.1981 H   0  0  0  0  0  0  0  0  0  0  0  0
  140.3345   69.1667  229.3013 H   0  0  0  0  0  0  0  0  0  0  0  0
  141.2557   71.4787  229.2168 H   0  0  0  0  0  0  0  0  0  0  0  0
  141.3392   72.7236  227.0933 H   0  0  0  0  0  0  0  0  0  0  0  0
  1  2  2  0
  2  3  1  0
  3  4  1  0
  4  5  1  0
  5  6  2  0
  5  7  1  0
  7  8  1  0
  8  9  1  0
  9 10  1  0
 10 11  1  0
 11 12  1  0
 12 13  1  0
 13 14  1  0
 14 15  2  0
 15 16  1  0
 16 17  2  0
 17 18  1  0
 18 19  2  0
  2 20  1  0
 20 21  2  0
 21 22  1  0
 22 23  2  0
 23 24  1  0
 24 25  2  0
 25 26  1  0
 26 27  2  0
 27 28  1  0
 28 29  2  0
 12  7  1  0
 19 14  1  0
 29 20  1  0
 28 23  1  0
  3 30  1  0
  4 31  1  0
  4 32  1  0
  8 33  1  0
  8 34  1  0
  9 35  1  0
  9 36  1  0
 10 37  1  0
 10 38  1  0
 11 39  1  0
 11 40  1  0
 12 41  1  6
 13 42  1  0
 13 43  1  0
 15 44  1  0
 16 45  1  0
 17 46  1  0
 18 47  1  0
 19 48  1  0
 21 49  1  0
 24 50  1  0
 25 51  1  0
 26 52  1  0
 27 53  1  0
M  END
>  <smiles>  (24) 
O=C(NCC(=O)N1CCCCC1Cc1ccccc1)c1cnc2ccccc2n1

>  <score_type>  (24) 
oracle

>  <origin>  (24) 
autodockgpu

>  <m_score__min__energy>  (24) 
-9.1999999999999993

>  <m_primary>  (24) 
energy

>  <rmsd>  (24) 
2.2576944891251123

>  <m_score__min__rmsd>  (24) 
2.2576944891251123

>  <meeko>  (24) 
{"free_energy": -8.84, "intermolecular_energy": -10.63, "internal_energy": -2.24, "cluster_size": 46, "cluster_id": 1, "rank_in_cluster": 28}

>  <energy>  (24) 
-8.86

>  <cluster_rmsd>  (24) 
1.79

>  <cluster>  (24) 
1

$$$$

     RDKit          3D

 53 56  0  0  0  0  0  0  0  0999 V2000
  140.7530   71.3810  221.3330 O   0  0  0  0  0  0  0  0  0  0  0  0
  140.3140   72.0000  222.3390 C   0  0  0  0  0  0  0  0  0  0  0  0
  139.9180   73.3750  222.2850 N   0  0  0  0  0  0  0  0  0  0  0  0
  139.9910   74.1620  221.0700 C   0  0  0  0  0  0  0  0  0  0  0  0
  140.1780   75.5850  221.4970 C   0  0  0  0  0  0  0  0  0  0  0  0
  139.7530   75.9000  222.6400 O   0  0  0  0  0  0  0  0  0  0  0  0
  140.8180   76.5410  220.6300 N   0  0  0  0  0  0  0  0  0  0  0  0
  142.2100   76.2960  220.2650 C   0  0  0  0  0  0  0  0  0  0  0  0
  142.5440   76.9090  218.9260 C   0  0  0  0  0  0  0  0  0  0  0  0
  142.1270   78.3630  218.9450 C   0  0  0  0  0  0  0  0  0  0  0  0
  140.6310   78.4250  219.0490 C   0  0  0  0  0  0  0  0  0  0  0  0
  140.0490   77.6520  220.1920 C   0  0  2  0  0  0  0  0  0  0  0  0
  139.6170   78.6080  221.2530 C   0  0  0  0  0  0  0  0  0  0  0  0
  140.6670   79.2710  222.0130 C   0  0  0  0  0  0  0  0  0  0  0  0
  141.1870   78.6400  223.1230 C   0  0  0  0  0  0  0  0  0  0  0  0
  142.1820   79.2040  223.8970 C   0  0  0  0  0  0  0  0  0  0  0  0
  142.7090   80.4390  223.5920 C   0  0  0  0  0  0  0  0  0  0  0  0
  142.2030   81.0900  222.4830 C   0  0  0  0  0  0  0  0  0  0  0  0
  141.2020   80.5160  221.7100 C   0  0  0  0  0  0  0  0  0  0  0  0
  140.2000   71.2860  223.6240 C   0  0  0  0  0  0  0  0  0  0  0  0
  139.5970   70.0480  223.6740 C   0  0  0  0  0  0  0  0  0  0  0  0
  139.4880   69.3860  224.8480 N   0  0  0  0  0  0  0  0  0  0  0  0
  139.9680   69.9250  225.9930 C   0  0  0  0  0  0  0  0  0  0  0  0
  139.8370   69.2140  227.1730 C   0  0  0  0  0  0  0  0  0  0  0  0
  140.3090   69.7280  228.3520 C   0  0  0  0  0  0  0  0  0  0  0  0
  140.9180   70.9690  228.3200 C   0  0  0  0  0  0  0  0  0  0  0  0
  141.0450   71.6710  227.1380 C   0  0  0  0  0  0  0  0  0  0  0  0
  140.5700   71.1590  225.9510 C   0  0  0  0  0  0  0  0  0  0  0  0
  140.6700   71.8040  224.7740 N   0  0  0  0  0  0  0  0  0  0  0  0
  139.5610   73.8030  223.1920 H   0  0  0  0  0  0  0  0  0  0  0  0
  140.8425   73.8344  220.4554 H   0  0  0  0  0  0  0  0  0  0  0  0
  139.0805   74.0444  220.4641 H   0  0  0  0  0  0  0  0  0  0  0  0
  142.8640   76.7350  221.0328 H   0  0  0  0  0  0  0  0  0  0  0  0
  142.3640   75.2090  220.1965 H   0  0  0  0  0  0  0  0  0  0  0  0
  143.6264   76.8360  218.7444 H   0  0  0  0  0  0  0  0  0  0  0  0
  142.0122   76.3753  218.1245 H   0  0  0  0  0  0  0  0  0  0  0  0
  142.5809   78.8685  219.8102 H   0  0  0  0  0  0  0  0  0  0  0  0
  142.4633   78.8649  218.0257 H   0  0  0  0  0  0  0  0  0  0  0  0
  140.3393   79.4793  219.1649 H   0  0  0  0  0  0  0  0  0  0  0  0
  140.2371   77.9645  218.1309 H   0  0  0  0  0  0  0  0  0  0  0  0
  139.1515   77.1270  219.8330 H   0  0  0  0  0  0  0  0  0  0  0  0
  139.0134   79.3900  220.7692 H   0  0  0  0  0  0  0  0  0  0  0  0
  139.0769   77.9935  221.9883 H   0  0  0  0  0  0  0  0  0  0  0  0
  140.7949   77.6509  223.4024 H   0  0  0  0  0  0  0  0  0  0  0  0
  142.5604   78.6567  224.7730 H   0  0  0  0  0  0  0  0  0  0  0  0
  143.5018   80.8898  224.2070 H   0  0  0  0  0  0  0  0  0  0  0  0
  142.5994   82.0786  222.2081 H   0  0  0  0  0  0  0  0  0  0  0  0
  140.8227   81.0625  220.8340 H   0  0  0  0  0  0  0  0  0  0  0  0
  139.2017   69.5952  222.7527 H   0  0  0  0  0  0  0  0  0  0  0  0
  139.3498   68.2278  227.1643 H   0  0  0  0  0  0  0  0  0  0  0  0
  140.2067   69.1707  229.2949 H   0  0  0  0  0  0  0  0  0  0  0  0
  141.3078   71.4042  229.2520 H   0  0  0  0  0  0  0  0  0  0  0  0
  141.5340   72.6563  227.1444 H   0  0  0  0  0  0  0  0  0  0  0  0
  1  2  2  0
  2  3  1  0
  3  4  1  0
  4  5  1  0
  5  6  2  0
  5  7  1  0
  7  8  1  0
  8  9  1  0
  9 10  1  0
 10 11  1  0
 11 12  1  0
 12 13  1  0
 13 14  1  0
 14 15  2  0
 15 16  1  0
 16 17  2  0
 17 18  1  0
 18 19  2  0
  2 20  1  0
 20 21  2  0
 21 22  1  0
 22 23  2  0
 23 24  1  0
 24 25  2  0
 25 26  1  0
 26 27  2  0
 27 28  1  0
 28 29  2  0
 12  7  1  0
 19 14  1  0
 29 20  1  0
 28 23  1  0
  3 30  1  0
  4 31  1  0
  4 32  1  0
  8 33  1  0
  8 34  1  0
  9 35  1  0
  9 36  1  0
 10 37  1  0
 10 38  1  0
 11 39  1  0
 11 40  1  0
 12 41  1  6
 13 42  1  0
 13 43  1  0
 15 44  1  0
 16 45  1  0
 17 46  1  0
 18 47  1  0
 19 48  1  0
 21 49  1  0
 24 50  1  0
 25 51  1  0
 26 52  1  0
 27 53  1  0
M  END
>  <smiles>  (25) 
O=C(NCC(=O)N1CCCCC1Cc1ccccc1)c1cnc2ccccc2n1

>  <score_type>  (25) 
oracle

>  <origin>  (25) 
autodockgpu

>  <m_score__min__energy>  (25) 
-9.1999999999999993

>  <m_primary>  (25) 
energy

>  <rmsd>  (25) 
2.381486742516515

>  <m_score__min__rmsd>  (25) 
2.381486742516515

>  <meeko>  (25) 
{"free_energy": -8.89, "intermolecular_energy": -10.68, "internal_energy": -2.21, "cluster_size": 46, "cluster_id": 1, "rank_in_cluster": 22}

>  <energy>  (25) 
-8.86

>  <cluster_rmsd>  (25) 
1.7

>  <cluster>  (25) 
1

$$$$

     RDKit          3D

 53 56  0  0  0  0  0  0  0  0999 V2000
  140.6300   71.2590  221.2800 O   0  0  0  0  0  0  0  0  0  0  0  0
  140.2480   71.9230  222.2810 C   0  0  0  0  0  0  0  0  0  0  0  0
  139.9130   73.3120  222.2010 N   0  0  0  0  0  0  0  0  0  0  0  0
  139.9850   74.0640  220.9630 C   0  0  0  0  0  0  0  0  0  0  0  0
  140.2340   75.4900  221.3470 C   0  0  0  0  0  0  0  0  0  0  0  0
  139.8170   75.8610  222.4770 O   0  0  0  0  0  0  0  0  0  0  0  0
  140.9220   76.3880  220.4550 N   0  0  0  0  0  0  0  0  0  0  0  0
  142.3100   76.0780  220.1230 C   0  0  0  0  0  0  0  0  0  0  0  0
  142.6860   76.6260  218.7680 C   0  0  0  0  0  0  0  0  0  0  0  0
  142.3240   78.0940  218.7240 C   0  0  0  0  0  0  0  0  0  0  0  0
  140.8300   78.2150  218.8010 C   0  0  0  0  0  0  0  0  0  0  0  0
  140.2020   77.5080  219.9630 C   0  0  2  0  0  0  0  0  0  0  0  0
  139.7900   78.5200  220.9800 C   0  0  0  0  0  0  0  0  0  0  0  0
  140.8300   79.0370  221.8570 C   0  0  0  0  0  0  0  0  0  0  0  0
  141.5680   80.1270  221.4450 C   0  0  0  0  0  0  0  0  0  0  0  0
  142.5730   80.6750  222.2190 C   0  0  0  0  0  0  0  0  0  0  0  0
  142.8870   80.1530  223.4540 C   0  0  0  0  0  0  0  0  0  0  0  0
  142.1600   79.0610  223.8860 C   0  0  0  0  0  0  0  0  0  0  0  0
  141.1520   78.5150  223.1020 C   0  0  0  0  0  0  0  0  0  0  0  0
  140.1410   71.2490  223.5870 C   0  0  0  0  0  0  0  0  0  0  0  0
  139.5750   69.9950  223.6720 C   0  0  0  0  0  0  0  0  0  0  0  0
  139.4730   69.3690  224.8660 N   0  0  0  0  0  0  0  0  0  0  0  0
  139.9230   69.9590  225.9980 C   0  0  0  0  0  0  0  0  0  0  0  0
  139.8000   69.2840  227.1990 C   0  0  0  0  0  0  0  0  0  0  0  0
  140.2440   69.8500  228.3650 C   0  0  0  0  0  0  0  0  0  0  0  0
  140.8160   71.1060  228.2990 C   0  0  0  0  0  0  0  0  0  0  0  0
  140.9350   71.7730  227.0960 C   0  0  0  0  0  0  0  0  0  0  0  0
  140.4890   71.2080  225.9210 C   0  0  0  0  0  0  0  0  0  0  0  0
  140.5840   71.8180  224.7240 N   0  0  0  0  0  0  0  0  0  0  0  0
  139.6020   73.7800  223.1060 H   0  0  0  0  0  0  0  0  0  0  0  0
  140.8088   73.6892  220.3378 H   0  0  0  0  0  0  0  0  0  0  0  0
  139.0564   73.9643  220.3818 H   0  0  0  0  0  0  0  0  0  0  0  0
  142.9682   76.5222  220.8842 H   0  0  0  0  0  0  0  0  0  0  0  0
  142.4250   74.9843  220.0989 H   0  0  0  0  0  0  0  0  0  0  0  0
  143.7675   76.5060  218.6068 H   0  0  0  0  0  0  0  0  0  0  0  0
  142.1457   76.0818  217.9793 H   0  0  0  0  0  0  0  0  0  0  0  0
  142.7836   78.6159  219.5763 H   0  0  0  0  0  0  0  0  0  0  0  0
  142.6927   78.5469  217.7918 H   0  0  0  0  0  0  0  0  0  0  0  0
  140.5763   79.2830  218.8723 H   0  0  0  0  0  0  0  0  0  0  0  0
  140.4331   77.7345  217.8946 H   0  0  0  0  0  0  0  0  0  0  0  0
  139.2911   77.0026  219.6096 H   0  0  0  0  0  0  0  0  0  0  0  0
  139.3557   79.3747  220.4406 H   0  0  0  0  0  0  0  0  0  0  0  0
  139.0934   77.9889  221.6453 H   0  0  0  0  0  0  0  0  0  0  0  0
  141.3486   80.5762  220.4651 H   0  0  0  0  0  0  0  0  0  0  0  0
  143.1323   81.5439  221.8418 H   0  0  0  0  0  0  0  0  0  0  0  0
  143.6856   80.5887  224.0723 H   0  0  0  0  0  0  0  0  0  0  0  0
  142.3830   78.6164  224.8671 H   0  0  0  0  0  0  0  0  0  0  0  0
  140.5936   77.6451  223.4781 H   0  0  0  0  0  0  0  0  0  0  0  0
  139.2038   69.5003  222.7623 H   0  0  0  0  0  0  0  0  0  0  0  0
  139.3418   68.2842  227.2181 H   0  0  0  0  0  0  0  0  0  0  0  0
  140.1480   69.3206  229.3245 H   0  0  0  0  0  0  0  0  0  0  0  0
  141.1826   71.5824  229.2202 H   0  0  0  0  0  0  0  0  0  0  0  0
  141.3937   72.7726  227.0752 H   0  0  0  0  0  0  0  0  0  0  0  0
  1  2  2  0
  2  3  1  0
  3  4  1  0
  4  5  1  0
  5  6  2  0
  5  7  1  0
  7  8  1  0
  8  9  1  0
  9 10  1  0
 10 11  1  0
 11 12  1  0
 12 13  1  0
 13 14  1  0
 14 15  2  0
 15 16  1  0
 16 17  2  0
 17 18  1  0
 18 19  2  0
  2 20  1  0
 20 21  2  0
 21 22  1  0
 22 23  2  0
 23 24  1  0
 24 25  2  0
 25 26  1  0
 26 27  2  0
 27 28  1  0
 28 29  2  0
 12  7  1  0
 19 14  1  0
 29 20  1  0
 28 23  1  0
  3 30  1  0
  4 31  1  0
  4 32  1  0
  8 33  1  0
  8 34  1  0
  9 35  1  0
  9 36  1  0
 10 37  1  0
 10 38  1  0
 11 39  1  0
 11 40  1  0
 12 41  1  6
 13 42  1  0
 13 43  1  0
 15 44  1  0
 16 45  1  0
 17 46  1  0
 18 47  1  0
 19 48  1  0
 21 49  1  0
 24 50  1  0
 25 51  1  0
 26 52  1  0
 27 53  1  0
M  END
>  <smiles>  (26) 
O=C(NCC(=O)N1CCCCC1Cc1ccccc1)c1cnc2ccccc2n1

>  <score_type>  (26) 
oracle

>  <origin>  (26) 
autodockgpu

>  <m_score__min__energy>  (26) 
-9.1999999999999993

>  <m_primary>  (26) 
energy

>  <rmsd>  (26) 
2.299633198286561

>  <m_score__min__rmsd>  (26) 
2.299633198286561

>  <meeko>  (26) 
{"free_energy": -8.86, "intermolecular_energy": -10.65, "internal_energy": -2.23, "cluster_size": 46, "cluster_id": 1, "rank_in_cluster": 24}

>  <energy>  (26) 
-8.85

>  <cluster_rmsd>  (26) 
1.73

>  <cluster>  (26) 
1

$$$$

     RDKit          3D

 53 56  0  0  0  0  0  0  0  0999 V2000
  140.7090   71.3690  221.2750 O   0  0  0  0  0  0  0  0  0  0  0  0
  140.2990   72.0150  222.2770 C   0  0  0  0  0  0  0  0  0  0  0  0
  139.9200   73.3930  222.2020 N   0  0  0  0  0  0  0  0  0  0  0  0
  139.9740   74.1530  220.9680 C   0  0  0  0  0  0  0  0  0  0  0  0
  140.3360   75.5550  221.3500 C   0  0  0  0  0  0  0  0  0  0  0  0
  140.0510   75.9220  222.5220 O   0  0  0  0  0  0  0  0  0  0  0  0
  140.9820   76.4360  220.4100 N   0  0  0  0  0  0  0  0  0  0  0  0
  142.3810   76.1720  220.0900 C   0  0  0  0  0  0  0  0  0  0  0  0
  142.7310   76.6660  218.7060 C   0  0  0  0  0  0  0  0  0  0  0  0
  142.3030   78.1120  218.5880 C   0  0  0  0  0  0  0  0  0  0  0  0
  140.8050   78.1690  218.6650 C   0  0  0  0  0  0  0  0  0  0  0  0
  140.2110   77.4960  219.8640 C   0  0  2  0  0  0  0  0  0  0  0  0
  139.7550   78.5390  220.8280 C   0  0  0  0  0  0  0  0  0  0  0  0
  140.7450   79.0500  221.7670 C   0  0  0  0  0  0  0  0  0  0  0  0
  141.6260   80.0220  221.3430 C   0  0  0  0  0  0  0  0  0  0  0  0
  142.5940   80.5560  222.1710 C   0  0  0  0  0  0  0  0  0  0  0  0
  142.7250   80.1370  223.4760 C   0  0  0  0  0  0  0  0  0  0  0  0
  141.8530   79.1630  223.9230 C   0  0  0  0  0  0  0  0  0  0  0  0
  140.8820   78.6320  223.0830 C   0  0  0  0  0  0  0  0  0  0  0  0
  140.2070   71.3310  223.5790 C   0  0  0  0  0  0  0  0  0  0  0  0
  139.6210   70.0860  223.6640 C   0  0  0  0  0  0  0  0  0  0  0  0
  139.5320   69.4510  224.8540 N   0  0  0  0  0  0  0  0  0  0  0  0
  140.0130   70.0230  225.9820 C   0  0  0  0  0  0  0  0  0  0  0  0
  139.9020   69.3390  227.1790 C   0  0  0  0  0  0  0  0  0  0  0  0
  140.3780   69.8870  228.3420 C   0  0  0  0  0  0  0  0  0  0  0  0
  140.9690   71.1340  228.2750 C   0  0  0  0  0  0  0  0  0  0  0  0
  141.0760   71.8100  227.0760 C   0  0  0  0  0  0  0  0  0  0  0  0
  140.5980   71.2630  225.9050 C   0  0  0  0  0  0  0  0  0  0  0  0
  140.6800   71.8820  224.7120 N   0  0  0  0  0  0  0  0  0  0  0  0
  139.5880   73.8450  223.1070 H   0  0  0  0  0  0  0  0  0  0  0  0
  140.7366   73.7330  220.2957 H   0  0  0  0  0  0  0  0  0  0  0  0
  139.0110   74.1204  220.4373 H   0  0  0  0  0  0  0  0  0  0  0  0
  143.0193   76.6840  220.8251 H   0  0  0  0  0  0  0  0  0  0  0  0
  142.5449   75.0847  220.1219 H   0  0  0  0  0  0  0  0  0  0  0  0
  143.8166   76.5866  218.5476 H   0  0  0  0  0  0  0  0  0  0  0  0
  142.2153   76.0581  217.9481 H   0  0  0  0  0  0  0  0  0  0  0  0
  142.7401   78.6974  219.4104 H   0  0  0  0  0  0  0  0  0  0  0  0
  142.6492   78.5325  217.6323 H   0  0  0  0  0  0  0  0  0  0  0  0
  140.5033   79.2267  218.6819 H   0  0  0  0  0  0  0  0  0  0  0  0
  140.4291   77.6241  217.7865 H   0  0  0  0  0  0  0  0  0  0  0  0
  139.3229   76.9328  219.5414 H   0  0  0  0  0  0  0  0  0  0  0  0
  139.3820   79.3920  220.2421 H   0  0  0  0  0  0  0  0  0  0  0  0
  138.9997   78.0398  221.4528 H   0  0  0  0  0  0  0  0  0  0  0  0
  141.5554   80.3856  220.3072 H   0  0  0  0  0  0  0  0  0  0  0  0
  143.2720   81.3295  221.7811 H   0  0  0  0  0  0  0  0  0  0  0  0
  143.4946   80.5615  224.1375 H   0  0  0  0  0  0  0  0  0  0  0  0
  141.9286   78.8025  224.9595 H   0  0  0  0  0  0  0  0  0  0  0  0
  140.2031   77.8588  223.4720 H   0  0  0  0  0  0  0  0  0  0  0  0
  139.2233   69.6062  222.7576 H   0  0  0  0  0  0  0  0  0  0  0  0
  139.4277   68.3467  227.1980 H   0  0  0  0  0  0  0  0  0  0  0  0
  140.2921   69.3507  229.2985 H   0  0  0  0  0  0  0  0  0  0  0  0
  141.3611   71.5963  229.1929 H   0  0  0  0  0  0  0  0  0  0  0  0
  141.5508   72.8020  227.0551 H   0  0  0  0  0  0  0  0  0  0  0  0
  1  2  2  0
  2  3  1  0
  3  4  1  0
  4  5  1  0
  5  6  2  0
  5  7  1  0
  7  8  1  0
  8  9  1  0
  9 10  1  0
 10 11  1  0
 11 12  1  0
 12 13  1  0
 13 14  1  0
 14 15  2  0
 15 16  1  0
 16 17  2  0
 17 18  1  0
 18 19  2  0
  2 20  1  0
 20 21  2  0
 21 22  1  0
 22 23  2  0
 23 24  1  0
 24 25  2  0
 25 26  1  0
 26 27  2  0
 27 28  1  0
 28 29  2  0
 12  7  1  0
 19 14  1  0
 29 20  1  0
 28 23  1  0
  3 30  1  0
  4 31  1  0
  4 32  1  0
  8 33  1  0
  8 34  1  0
  9 35  1  0
  9 36  1  0
 10 37  1  0
 10 38  1  0
 11 39  1  0
 11 40  1  0
 12 41  1  6
 13 42  1  0
 13 43  1  0
 15 44  1  0
 16 45  1  0
 17 46  1  0
 18 47  1  0
 19 48  1  0
 21 49  1  0
 24 50  1  0
 25 51  1  0
 26 52  1  0
 27 53  1  0
M  END
>  <smiles>  (27) 
O=C(NCC(=O)N1CCCCC1Cc1ccccc1)c1cnc2ccccc2n1

>  <score_type>  (27) 
oracle

>  <origin>  (27) 
autodockgpu

>  <m_score__min__energy>  (27) 
-9.1999999999999993

>  <m_primary>  (27) 
energy

>  <rmsd>  (27) 
2.316570201217905

>  <m_score__min__rmsd>  (27) 
2.316570201217905

>  <meeko>  (27) 
{"free_energy": -8.94, "intermolecular_energy": -10.73, "internal_energy": -2.18, "cluster_size": 46, "cluster_id": 1, "rank_in_cluster": 9}

>  <energy>  (27) 
-8.84

>  <cluster_rmsd>  (27) 
1.65

>  <cluster>  (27) 
1

$$$$

     RDKit          3D

 53 56  0  0  0  0  0  0  0  0999 V2000
  140.7950   71.3870  221.3210 O   0  0  0  0  0  0  0  0  0  0  0  0
  140.3420   72.0210  222.3120 C   0  0  0  0  0  0  0  0  0  0  0  0
  139.9530   73.3960  222.2340 N   0  0  0  0  0  0  0  0  0  0  0  0
  140.0470   74.1670  221.0090 C   0  0  0  0  0  0  0  0  0  0  0  0
  140.4050   75.5640  221.4140 C   0  0  0  0  0  0  0  0  0  0  0  0
  140.1530   75.8980  222.6030 O   0  0  0  0  0  0  0  0  0  0  0  0
  141.0110   76.4750  220.4770 N   0  0  0  0  0  0  0  0  0  0  0  0
  142.4060   76.2420  220.1150 C   0  0  0  0  0  0  0  0  0  0  0  0
  142.7100   76.7700  218.7340 C   0  0  0  0  0  0  0  0  0  0  0  0
  142.2550   78.2110  218.6580 C   0  0  0  0  0  0  0  0  0  0  0  0
  140.7590   78.2410  218.7750 C   0  0  0  0  0  0  0  0  0  0  0  0
  140.2080   77.5330  219.9740 C   0  0  2  0  0  0  0  0  0  0  0  0
  139.7610   78.5470  220.9720 C   0  0  0  0  0  0  0  0  0  0  0  0
  140.7830   79.1170  221.8400 C   0  0  0  0  0  0  0  0  0  0  0  0
  140.8820   78.6640  223.1390 C   0  0  0  0  0  0  0  0  0  0  0  0
  141.8230   79.1550  224.0230 C   0  0  0  0  0  0  0  0  0  0  0  0
  142.7160   80.1320  223.6450 C   0  0  0  0  0  0  0  0  0  0  0  0
  142.6340   80.6010  222.3480 C   0  0  0  0  0  0  0  0  0  0  0  0
  141.6860   80.1020  221.4640 C   0  0  0  0  0  0  0  0  0  0  0  0
  140.2070   71.3240  223.6030 C   0  0  0  0  0  0  0  0  0  0  0  0
  139.5830   70.0960  223.6630 C   0  0  0  0  0  0  0  0  0  0  0  0
  139.4550   69.4500  224.8440 N   0  0  0  0  0  0  0  0  0  0  0  0
  139.9330   69.9950  225.9870 C   0  0  0  0  0  0  0  0  0  0  0  0
  139.7810   69.3000  227.1730 C   0  0  0  0  0  0  0  0  0  0  0  0
  140.2530   69.8200  228.3500 C   0  0  0  0  0  0  0  0  0  0  0  0
  140.8810   71.0500  228.3090 C   0  0  0  0  0  0  0  0  0  0  0  0
  141.0290   71.7370  227.1200 C   0  0  0  0  0  0  0  0  0  0  0  0
  140.5560   71.2180  225.9350 C   0  0  0  0  0  0  0  0  0  0  0  0
  140.6760   71.8480  224.7510 N   0  0  0  0  0  0  0  0  0  0  0  0
  139.5830   73.8370  223.1290 H   0  0  0  0  0  0  0  0  0  0  0  0
  140.8267   73.7489  220.3554 H   0  0  0  0  0  0  0  0  0  0  0  0
  139.0997   74.1445  220.4504 H   0  0  0  0  0  0  0  0  0  0  0  0
  143.0549   76.7500  220.8437 H   0  0  0  0  0  0  0  0  0  0  0  0
  142.5894   75.1574  220.1201 H   0  0  0  0  0  0  0  0  0  0  0  0
  143.7921   76.7125  218.5450 H   0  0  0  0  0  0  0  0  0  0  0  0
  142.1841   76.1691  217.9774 H   0  0  0  0  0  0  0  0  0  0  0  0
  142.7038   78.7864  219.4811 H   0  0  0  0  0  0  0  0  0  0  0  0
  142.5689   78.6571  217.7028 H   0  0  0  0  0  0  0  0  0  0  0  0
  140.4406   79.2928  218.8225 H   0  0  0  0  0  0  0  0  0  0  0  0
  140.3691   77.7085  217.8950 H   0  0  0  0  0  0  0  0  0  0  0  0
  139.3209   76.9621  219.6622 H   0  0  0  0  0  0  0  0  0  0  0  0
  139.2967   79.3759  220.4175 H   0  0  0  0  0  0  0  0  0  0  0  0
  139.0838   78.0035  221.6473 H   0  0  0  0  0  0  0  0  0  0  0  0
  140.1869   77.8840  223.4832 H   0  0  0  0  0  0  0  0  0  0  0  0
  141.8594   78.7579  225.0482 H   0  0  0  0  0  0  0  0  0  0  0  0
  143.4656   80.5240  224.3481 H   0  0  0  0  0  0  0  0  0  0  0  0
  143.3308   81.3822  222.0100 H   0  0  0  0  0  0  0  0  0  0  0  0
  141.6498   80.4980  220.4384 H   0  0  0  0  0  0  0  0  0  0  0  0
  139.1867   69.6389  222.7443 H   0  0  0  0  0  0  0  0  0  0  0  0
  139.2773   68.3221  227.1717 H   0  0  0  0  0  0  0  0  0  0  0  0
  140.1355   69.2748  229.2981 H   0  0  0  0  0  0  0  0  0  0  0  0
  141.2698   71.4897  229.2393 H   0  0  0  0  0  0  0  0  0  0  0  0
  141.5330   72.7148  227.1193 H   0  0  0  0  0  0  0  0  0  0  0  0
  1  2  2  0
  2  3  1  0
  3  4  1  0
  4  5  1  0
  5  6  2  0
  5  7  1  0
  7  8  1  0
  8  9  1  0
  9 10  1  0
 10 11  1  0
 11 12  1  0
 12 13  1  0
 13 14  1  0
 14 15  2  0
 15 16  1  0
 16 17  2  0
 17 18  1  0
 18 19  2  0
  2 20  1  0
 20 21  2  0
 21 22  1  0
 22 23  2  0
 23 24  1  0
 24 25  2  0
 25 26  1  0
 26 27  2  0
 27 28  1  0
 28 29  2  0
 12  7  1  0
 19 14  1  0
 29 20  1  0
 28 23  1  0
  3 30  1  0
  4 31  1  0
  4 32  1  0
  8 33  1  0
  8 34  1  0
  9 35  1  0
  9 36  1  0
 10 37  1  0
 10 38  1  0
 11 39  1  0
 11 40  1  0
 12 41  1  6
 13 42  1  0
 13 43  1  0
 15 44  1  0
 16 45  1  0
 17 46  1  0
 18 47  1  0
 19 48  1  0
 21 49  1  0
 24 50  1  0
 25 51  1  0
 26 52  1  0
 27 53  1  0
M  END
>  <smiles>  (28) 
O=C(NCC(=O)N1CCCCC1Cc1ccccc1)c1cnc2ccccc2n1

>  <score_type>  (28) 
oracle

>  <origin>  (28) 
autodockgpu

>  <m_score__min__energy>  (28) 
-9.1999999999999993

>  <m_primary>  (28) 
energy

>  <rmsd>  (28) 
2.3515306998908625

>  <m_score__min__rmsd>  (28) 
2.3515306998908625

>  <meeko>  (28) 
{"free_energy": -8.94, "intermolecular_energy": -10.73, "internal_energy": -2.18, "cluster_size": 46, "cluster_id": 1, "rank_in_cluster": 6}

>  <energy>  (28) 
-8.84

>  <cluster_rmsd>  (28) 
1.74

>  <cluster>  (28) 
1

$$$$

     RDKit          3D

 53 56  0  0  0  0  0  0  0  0999 V2000
  139.7660   71.1230  221.2590 O   0  0  0  0  0  0  0  0  0  0  0  0
  139.7400   71.8070  222.3180 C   0  0  0  0  0  0  0  0  0  0  0  0
  139.5920   73.2300  222.3120 N   0  0  0  0  0  0  0  0  0  0  0  0
  139.4590   73.9980  221.0890 C   0  0  0  0  0  0  0  0  0  0  0  0
  139.2820   75.4260  221.5020 C   0  0  0  0  0  0  0  0  0  0  0  0
  138.8340   75.6360  222.6610 O   0  0  0  0  0  0  0  0  0  0  0  0
  139.6120   76.5040  220.6040 N   0  0  0  0  0  0  0  0  0  0  0  0
  139.5130   76.2430  219.1710 C   0  0  0  0  0  0  0  0  0  0  0  0
  139.2250   77.5100  218.4010 C   0  0  0  0  0  0  0  0  0  0  0  0
  140.2420   78.5570  218.7990 C   0  0  0  0  0  0  0  0  0  0  0  0
  140.0200   78.9090  220.2410 C   0  0  0  0  0  0  0  0  0  0  0  0
  140.0110   77.7400  221.1780 C   0  0  2  0  0  0  0  0  0  0  0  0
  141.2910   77.7240  221.9450 C   0  0  0  0  0  0  0  0  0  0  0  0
  141.6540   78.9440  222.6520 C   0  0  0  0  0  0  0  0  0  0  0  0
  140.6530   79.7270  223.1870 C   0  0  0  0  0  0  0  0  0  0  0  0
  140.9160   80.8990  223.8700 C   0  0  0  0  0  0  0  0  0  0  0  0
  142.2060   81.3450  224.0510 C   0  0  0  0  0  0  0  0  0  0  0  0
  143.2250   80.5760  223.5230 C   0  0  0  0  0  0  0  0  0  0  0  0
  142.9520   79.3980  222.8370 C   0  0  0  0  0  0  0  0  0  0  0  0
  139.8660   71.1190  223.6150 C   0  0  0  0  0  0  0  0  0  0  0  0
  139.5110   69.7920  223.7290 C   0  0  0  0  0  0  0  0  0  0  0  0
  139.6240   69.1530  224.9160 N   0  0  0  0  0  0  0  0  0  0  0  0
  140.0860   69.8010  226.0100 C   0  0  0  0  0  0  0  0  0  0  0  0
  140.1870   69.1100  227.2040 C   0  0  0  0  0  0  0  0  0  0  0  0
  140.6500   69.7330  228.3330 C   0  0  0  0  0  0  0  0  0  0  0  0
  141.0120   71.0630  228.2360 C   0  0  0  0  0  0  0  0  0  0  0  0
  140.9090   71.7460  227.0400 C   0  0  0  0  0  0  0  0  0  0  0  0
  140.4430   71.1230  225.9030 C   0  0  0  0  0  0  0  0  0  0  0  0
  140.3250   71.7450  224.7150 N   0  0  0  0  0  0  0  0  0  0  0  0
  139.5830   73.7120  223.2620 H   0  0  0  0  0  0  0  0  0  0  0  0
  140.3633   73.8900  220.4720 H   0  0  0  0  0  0  0  0  0  0  0  0
  138.6054   73.6481  220.4899 H   0  0  0  0  0  0  0  0  0  0  0  0
  140.4638   75.8173  218.8178 H   0  0  0  0  0  0  0  0  0  0  0  0
  138.6850   75.5387  219.0028 H   0  0  0  0  0  0  0  0  0  0  0  0
  139.2990   77.3127  217.3214 H   0  0  0  0  0  0  0  0  0  0  0  0
  138.2095   77.8661  218.6287 H   0  0  0  0  0  0  0  0  0  0  0  0
  141.2582   78.1572  218.6664 H   0  0  0  0  0  0  0  0  0  0  0  0
  140.1290   79.4521  218.1697 H   0  0  0  0  0  0  0  0  0  0  0  0
  140.8230   79.5925  220.5541 H   0  0  0  0  0  0  0  0  0  0  0  0
  139.0188   79.3608  220.2993 H   0  0  0  0  0  0  0  0  0  0  0  0
  139.1940   77.8814  221.9009 H   0  0  0  0  0  0  0  0  0  0  0  0
  141.2214   76.9173  222.6896 H   0  0  0  0  0  0  0  0  0  0  0  0
  142.0764   77.5892  221.1867 H   0  0  0  0  0  0  0  0  0  0  0  0
  139.6075   79.4071  223.0657 H   0  0  0  0  0  0  0  0  0  0  0  0
  140.0795   81.4864  224.2765 H   0  0  0  0  0  0  0  0  0  0  0  0
  142.4170   82.2775  224.5949 H   0  0  0  0  0  0  0  0  0  0  0  0
  144.2686   80.9008  223.6473 H   0  0  0  0  0  0  0  0  0  0  0  0
  143.7877   78.8099  222.4299 H   0  0  0  0  0  0  0  0  0  0  0  0
  139.1336   69.2494  222.8497 H   0  0  0  0  0  0  0  0  0  0  0  0
  139.8930   68.0509  227.2475 H   0  0  0  0  0  0  0  0  0  0  0  0
  140.7310   69.1913  229.2869 H   0  0  0  0  0  0  0  0  0  0  0  0
  141.3888   71.5869  229.1268 H   0  0  0  0  0  0  0  0  0  0  0  0
  141.2039   72.8048  226.9945 H   0  0  0  0  0  0  0  0  0  0  0  0
  1  2  2  0
  2  3  1  0
  3  4  1  0
  4  5  1  0
  5  6  2  0
  5  7  1  0
  7  8  1  0
  8  9  1  0
  9 10  1  0
 10 11  1  0
 11 12  1  0
 12 13  1  0
 13 14  1  0
 14 15  2  0
 15 16  1  0
 16 17  2  0
 17 18  1  0
 18 19  2  0
  2 20  1  0
 20 21  2  0
 21 22  1  0
 22 23  2  0
 23 24  1  0
 24 25  2  0
 25 26  1  0
 26 27  2  0
 27 28  1  0
 28 29  2  0
 12  7  1  0
 19 14  1  0
 29 20  1  0
 28 23  1  0
  3 30  1  0
  4 31  1  0
  4 32  1  0
  8 33  1  0
  8 34  1  0
  9 35  1  0
  9 36  1  0
 10 37  1  0
 10 38  1  0
 11 39  1  0
 11 40  1  0
 12 41  1  1
 13 42  1  0
 13 43  1  0
 15 44  1  0
 16 45  1  0
 17 46  1  0
 18 47  1  0
 19 48  1  0
 21 49  1  0
 24 50  1  0
 25 51  1  0
 26 52  1  0
 27 53  1  0
M  END
>  <smiles>  (29) 
O=C(NCC(=O)N1CCCCC1Cc1ccccc1)c1cnc2ccccc2n1

>  <score_type>  (29) 
oracle

>  <origin>  (29) 
autodockgpu

>  <m_score__min__energy>  (29) 
-9.1999999999999993

>  <m_primary>  (29) 
energy

>  <rmsd>  (29) 
1.863276171643874

>  <m_score__min__rmsd>  (29) 
1.863276171643874

>  <meeko>  (29) 
{"free_energy": -8.31, "intermolecular_energy": -10.1, "internal_energy": -1.98, "cluster_size": 46, "cluster_id": 1, "rank_in_cluster": 43}

>  <energy>  (29) 
-8.84

>  <cluster_rmsd>  (29) 
1.73

>  <cluster>  (29) 
1

$$$$

     RDKit          3D

 53 56  0  0  0  0  0  0  0  0999 V2000
  140.8030   71.4210  221.3200 O   0  0  0  0  0  0  0  0  0  0  0  0
  140.3470   72.0490  222.3130 C   0  0  0  0  0  0  0  0  0  0  0  0
  139.9560   73.4240  222.2410 N   0  0  0  0  0  0  0  0  0  0  0  0
  140.0510   74.2010  221.0210 C   0  0  0  0  0  0  0  0  0  0  0  0
  140.3980   75.5980  221.4330 C   0  0  0  0  0  0  0  0  0  0  0  0
  140.1460   75.9230  222.6250 O   0  0  0  0  0  0  0  0  0  0  0  0
  140.9950   76.5200  220.5010 N   0  0  0  0  0  0  0  0  0  0  0  0
  142.3800   76.2780  220.1050 C   0  0  0  0  0  0  0  0  0  0  0  0
  142.6620   76.8280  218.7280 C   0  0  0  0  0  0  0  0  0  0  0  0
  142.2220   78.2750  218.6880 C   0  0  0  0  0  0  0  0  0  0  0  0
  140.7290   78.3200  218.8360 C   0  0  0  0  0  0  0  0  0  0  0  0
  140.1950   77.5950  220.0340 C   0  0  2  0  0  0  0  0  0  0  0  0
  139.7800   78.5960  221.0600 C   0  0  0  0  0  0  0  0  0  0  0  0
  140.8370   79.2090  221.8520 C   0  0  0  0  0  0  0  0  0  0  0  0
  141.1590   78.6570  223.0740 C   0  0  0  0  0  0  0  0  0  0  0  0
  142.1470   79.1800  223.8850 C   0  0  0  0  0  0  0  0  0  0  0  0
  142.8670   80.2910  223.5060 C   0  0  0  0  0  0  0  0  0  0  0  0
  142.5610   80.8610  222.2850 C   0  0  0  0  0  0  0  0  0  0  0  0
  141.5650   80.3290  221.4750 C   0  0  0  0  0  0  0  0  0  0  0  0
  140.2110   71.3460  223.6020 C   0  0  0  0  0  0  0  0  0  0  0  0
  139.5830   70.1210  223.6550 C   0  0  0  0  0  0  0  0  0  0  0  0
  139.4530   69.4680  224.8330 N   0  0  0  0  0  0  0  0  0  0  0  0
  139.9350   70.0050  225.9780 C   0  0  0  0  0  0  0  0  0  0  0  0
  139.7820   69.3050  227.1610 C   0  0  0  0  0  0  0  0  0  0  0  0
  140.2570   69.8170  228.3400 C   0  0  0  0  0  0  0  0  0  0  0  0
  140.8900   71.0450  228.3050 C   0  0  0  0  0  0  0  0  0  0  0  0
  141.0390   71.7370  227.1190 C   0  0  0  0  0  0  0  0  0  0  0  0
  140.5620   71.2270  225.9320 C   0  0  0  0  0  0  0  0  0  0  0  0
  140.6840   71.8620  224.7510 N   0  0  0  0  0  0  0  0  0  0  0  0
  139.5840   73.8600  223.1380 H   0  0  0  0  0  0  0  0  0  0  0  0
  140.8365   73.7907  220.3693 H   0  0  0  0  0  0  0  0  0  0  0  0
  139.1062   74.1752  220.4582 H   0  0  0  0  0  0  0  0  0  0  0  0
  143.0498   76.7648  220.8291 H   0  0  0  0  0  0  0  0  0  0  0  0
  142.5503   75.1914  220.0859 H   0  0  0  0  0  0  0  0  0  0  0  0
  143.7393   76.7621  218.5159 H   0  0  0  0  0  0  0  0  0  0  0  0
  142.1142   76.2471  217.9714 H   0  0  0  0  0  0  0  0  0  0  0  0
  142.6940   78.8298  219.5123 H   0  0  0  0  0  0  0  0  0  0  0  0
  142.5215   78.7351  217.7348 H   0  0  0  0  0  0  0  0  0  0  0  0
  140.4239   79.3743  218.9097 H   0  0  0  0  0  0  0  0  0  0  0  0
  140.3145   77.8093  217.9543 H   0  0  0  0  0  0  0  0  0  0  0  0
  139.2960   77.0390  219.7297 H   0  0  0  0  0  0  0  0  0  0  0  0
  139.2456   79.4036  220.5383 H   0  0  0  0  0  0  0  0  0  0  0  0
  139.1741   78.0296  221.7825 H   0  0  0  0  0  0  0  0  0  0  0  0
  140.6089   77.7677  223.4153 H   0  0  0  0  0  0  0  0  0  0  0  0
  142.3627   78.7004  224.8512 H   0  0  0  0  0  0  0  0  0  0  0  0
  143.6550   80.7084  224.1501 H   0  0  0  0  0  0  0  0  0  0  0  0
  143.1147   81.7501  221.9488 H   0  0  0  0  0  0  0  0  0  0  0  0
  141.3477   80.8084  220.5091 H   0  0  0  0  0  0  0  0  0  0  0  0
  139.1847   69.6708  222.7338 H   0  0  0  0  0  0  0  0  0  0  0  0
  139.2747   68.3290  227.1554 H   0  0  0  0  0  0  0  0  0  0  0  0
  140.1381   69.2674  229.2854 H   0  0  0  0  0  0  0  0  0  0  0  0
  141.2816   71.4785  229.2371 H   0  0  0  0  0  0  0  0  0  0  0  0
  141.5475   72.7124  227.1226 H   0  0  0  0  0  0  0  0  0  0  0  0
  1  2  2  0
  2  3  1  0
  3  4  1  0
  4  5  1  0
  5  6  2  0
  5  7  1  0
  7  8  1  0
  8  9  1  0
  9 10  1  0
 10 11  1  0
 11 12  1  0
 12 13  1  0
 13 14  1  0
 14 15  2  0
 15 16  1  0
 16 17  2  0
 17 18  1  0
 18 19  2  0
  2 20  1  0
 20 21  2  0
 21 22  1  0
 22 23  2  0
 23 24  1  0
 24 25  2  0
 25 26  1  0
 26 27  2  0
 27 28  1  0
 28 29  2  0
 12  7  1  0
 19 14  1  0
 29 20  1  0
 28 23  1  0
  3 30  1  0
  4 31  1  0
  4 32  1  0
  8 33  1  0
  8 34  1  0
  9 35  1  0
  9 36  1  0
 10 37  1  0
 10 38  1  0
 11 39  1  0
 11 40  1  0
 12 41  1  6
 13 42  1  0
 13 43  1  0
 15 44  1  0
 16 45  1  0
 17 46  1  0
 18 47  1  0
 19 48  1  0
 21 49  1  0
 24 50  1  0
 25 51  1  0
 26 52  1  0
 27 53  1  0
M  END
>  <smiles>  (30) 
O=C(NCC(=O)N1CCCCC1Cc1ccccc1)c1cnc2ccccc2n1

>  <score_type>  (30) 
oracle

>  <origin>  (30) 
autodockgpu

>  <m_score__min__energy>  (30) 
-9.1999999999999993

>  <m_primary>  (30) 
energy

>  <rmsd>  (30) 
2.363999818024106

>  <m_score__min__rmsd>  (30) 
2.363999818024106

>  <meeko>  (30) 
{"free_energy": -8.92, "intermolecular_energy": -10.71, "internal_energy": -2.19, "cluster_size": 46, "cluster_id": 1, "rank_in_cluster": 11}

>  <energy>  (30) 
-8.83

>  <cluster_rmsd>  (30) 
1.59

>  <cluster>  (30) 
1

$$$$

     RDKit          3D

 53 56  0  0  0  0  0  0  0  0999 V2000
  137.8010   70.3740  222.0400 O   0  0  0  0  0  0  0  0  0  0  0  0
  138.5450   70.9100  222.9050 C   0  0  0  0  0  0  0  0  0  0  0  0
  138.9720   72.2730  222.8160 N   0  0  0  0  0  0  0  0  0  0  0  0
  138.5820   73.1440  221.7240 C   0  0  0  0  0  0  0  0  0  0  0  0
  139.3270   74.4290  221.9200 C   0  0  0  0  0  0  0  0  0  0  0  0
  140.5110   74.3450  222.3430 O   0  0  0  0  0  0  0  0  0  0  0  0
  138.7060   75.6970  221.6340 N   0  0  0  0  0  0  0  0  0  0  0  0
  137.5200   75.6900  220.7830 C   0  0  0  0  0  0  0  0  0  0  0  0
  136.6200   76.8640  221.0870 C   0  0  0  0  0  0  0  0  0  0  0  0
  137.4460   78.1310  221.0340 C   0  0  0  0  0  0  0  0  0  0  0  0
  138.4420   78.0920  222.1560 C   0  0  0  0  0  0  0  0  0  0  0  0
  139.2920   76.8600  222.2000 C   0  0  2  0  0  0  0  0  0  0  0  0
  140.6640   77.2010  221.7210 C   0  0  0  0  0  0  0  0  0  0  0  0
  141.2660   78.4170  222.2490 C   0  0  0  0  0  0  0  0  0  0  0  0
  141.5840   79.4370  221.3770 C   0  0  0  0  0  0  0  0  0  0  0  0
  142.1590   80.6190  221.8000 C   0  0  0  0  0  0  0  0  0  0  0  0
  142.4450   80.8380  223.1290 C   0  0  0  0  0  0  0  0  0  0  0  0
  142.1350   79.8290  224.0210 C   0  0  0  0  0  0  0  0  0  0  0  0
  141.5560   78.6430  223.5870 C   0  0  0  0  0  0  0  0  0  0  0  0
  138.9950   70.1060  224.0560 C   0  0  0  0  0  0  0  0  0  0  0  0
  138.7910   68.7430  224.0670 C   0  0  0  0  0  0  0  0  0  0  0  0
  139.2010   67.9980  225.1180 N   0  0  0  0  0  0  0  0  0  0  0  0
  139.8180   68.5750  226.1770 C   0  0  0  0  0  0  0  0  0  0  0  0
  140.2220   67.7760  227.2320 C   0  0  0  0  0  0  0  0  0  0  0  0
  140.8490   68.3240  228.3200 C   0  0  0  0  0  0  0  0  0  0  0  0
  141.0620   69.6900  228.3250 C   0  0  0  0  0  0  0  0  0  0  0  0
  140.6560   70.4790  227.2670 C   0  0  0  0  0  0  0  0  0  0  0  0
  140.0240   69.9320  226.1720 C   0  0  0  0  0  0  0  0  0  0  0  0
  139.6110   70.6590  225.1170 N   0  0  0  0  0  0  0  0  0  0  0  0
  139.6000   72.6270  223.5990 H   0  0  0  0  0  0  0  0  0  0  0  0
  138.8540   72.6900  220.7597 H   0  0  0  0  0  0  0  0  0  0  0  0
  137.4948   73.3110  221.7163 H   0  0  0  0  0  0  0  0  0  0  0  0
  137.8341   75.7424  219.7301 H   0  0  0  0  0  0  0  0  0  0  0  0
  136.9594   74.7635  220.9761 H   0  0  0  0  0  0  0  0  0  0  0  0
  135.8134   76.9158  220.3408 H   0  0  0  0  0  0  0  0  0  0  0  0
  136.1739   76.7473  222.0857 H   0  0  0  0  0  0  0  0  0  0  0  0
  137.9734   78.1911  220.0705 H   0  0  0  0  0  0  0  0  0  0  0  0
  136.7952   79.0120  221.1356 H   0  0  0  0  0  0  0  0  0  0  0  0
  139.1066   78.9626  222.0537 H   0  0  0  0  0  0  0  0  0  0  0  0
  137.8580   78.0982  223.0882 H   0  0  0  0  0  0  0  0  0  0  0  0
  139.3776   76.5353  223.2475 H   0  0  0  0  0  0  0  0  0  0  0  0
  141.3252   76.3622  221.9842 H   0  0  0  0  0  0  0  0  0  0  0  0
  140.5524   77.3832  220.6419 H   0  0  0  0  0  0  0  0  0  0  0  0
  141.3719   79.3042  220.3058 H   0  0  0  0  0  0  0  0  0  0  0  0
  142.3929   81.4001  221.0616 H   0  0  0  0  0  0  0  0  0  0  0  0
  142.9024   81.7794  223.4675 H   0  0  0  0  0  0  0  0  0  0  0  0
  142.3499   79.9670  225.0909 H   0  0  0  0  0  0  0  0  0  0  0  0
  141.3209   77.8615  224.3245 H   0  0  0  0  0  0  0  0  0  0  0  0
  138.2914   68.2583  223.2153 H   0  0  0  0  0  0  0  0  0  0  0  0
  140.0383   66.6920  227.1969 H   0  0  0  0  0  0  0  0  0  0  0  0
  141.1729   67.6965  229.1634 H   0  0  0  0  0  0  0  0  0  0  0  0
  141.5632   70.1561  229.1861 H   0  0  0  0  0  0  0  0  0  0  0  0
  140.8404   71.5630  227.2991 H   0  0  0  0  0  0  0  0  0  0  0  0
  1  2  2  0
  2  3  1  0
  3  4  1  0
  4  5  1  0
  5  6  2  0
  5  7  1  0
  7  8  1  0
  8  9  1  0
  9 10  1  0
 10 11  1  0
 11 12  1  0
 12 13  1  0
 13 14  1  0
 14 15  2  0
 15 16  1  0
 16 17  2  0
 17 18  1  0
 18 19  2  0
  2 20  1  0
 20 21  2  0
 21 22  1  0
 22 23  2  0
 23 24  1  0
 24 25  2  0
 25 26  1  0
 26 27  2  0
 27 28  1  0
 28 29  2  0
 12  7  1  0
 19 14  1  0
 29 20  1  0
 28 23  1  0
  3 30  1  0
  4 31  1  0
  4 32  1  0
  8 33  1  0
  8 34  1  0
  9 35  1  0
  9 36  1  0
 10 37  1  0
 10 38  1  0
 11 39  1  0
 11 40  1  0
 12 41  1  1
 13 42  1  0
 13 43  1  0
 15 44  1  0
 16 45  1  0
 17 46  1  0
 18 47  1  0
 19 48  1  0
 21 49  1  0
 24 50  1  0
 25 51  1  0
 26 52  1  0
 27 53  1  0
M  END
>  <smiles>  (31) 
O=C(NCC(=O)N1CCCCC1Cc1ccccc1)c1cnc2ccccc2n1

>  <score_type>  (31) 
oracle

>  <origin>  (31) 
autodockgpu

>  <m_score__min__energy>  (31) 
-9.1999999999999993

>  <m_primary>  (31) 
energy

>  <rmsd>  (31) 
2.492213719471853

>  <m_score__min__rmsd>  (31) 
2.492213719471853

>  <meeko>  (31) 
{"free_energy": -8.98, "intermolecular_energy": -10.77, "internal_energy": -1.92, "cluster_size": 46, "cluster_id": 1, "rank_in_cluster": 2}

>  <energy>  (31) 
-8.83

>  <cluster_rmsd>  (31) 
1.62

>  <cluster>  (31) 
1

$$$$

     RDKit          3D

 53 56  0  0  0  0  0  0  0  0999 V2000
  140.3350   70.8340  221.3350 O   0  0  0  0  0  0  0  0  0  0  0  0
  140.0250   71.4710  222.3780 C   0  0  0  0  0  0  0  0  0  0  0  0
  139.7650   72.8780  222.3730 N   0  0  0  0  0  0  0  0  0  0  0  0
  139.8360   73.6820  221.1680 C   0  0  0  0  0  0  0  0  0  0  0  0
  139.7580   75.1110  221.6060 C   0  0  0  0  0  0  0  0  0  0  0  0
  139.0570   75.3610  222.6240 O   0  0  0  0  0  0  0  0  0  0  0  0
  140.4580   76.1460  220.8890 N   0  0  0  0  0  0  0  0  0  0  0  0
  141.1360   75.7700  219.6520 C   0  0  0  0  0  0  0  0  0  0  0  0
  141.2350   76.9390  218.7020 C   0  0  0  0  0  0  0  0  0  0  0  0
  141.8430   78.1100  219.4410 C   0  0  0  0  0  0  0  0  0  0  0  0
  140.8820   78.5460  220.5090 C   0  0  0  0  0  0  0  0  0  0  0  0
  140.4380   77.4560  221.4370 C   0  0  2  0  0  0  0  0  0  0  0  0
  141.1260   77.6280  222.7490 C   0  0  0  0  0  0  0  0  0  0  0  0
  141.5410   78.9770  223.1080 C   0  0  0  0  0  0  0  0  0  0  0  0
  140.5780   79.8960  223.4680 C   0  0  0  0  0  0  0  0  0  0  0  0
  140.8900   81.1950  223.8190 C   0  0  0  0  0  0  0  0  0  0  0  0
  142.1940   81.6390  223.8270 C   0  0  0  0  0  0  0  0  0  0  0  0
  143.1750   80.7340  223.4690 C   0  0  0  0  0  0  0  0  0  0  0  0
  142.8530   79.4290  223.1170 C   0  0  0  0  0  0  0  0  0  0  0  0
  139.9260   70.7420  223.6550 C   0  0  0  0  0  0  0  0  0  0  0  0
  139.3330   69.4980  223.6960 C   0  0  0  0  0  0  0  0  0  0  0  0
  139.2380   68.8230  224.8640 N   0  0  0  0  0  0  0  0  0  0  0  0
  139.7200   69.3540  226.0120 C   0  0  0  0  0  0  0  0  0  0  0  0
  139.6030   68.6300  227.1840 C   0  0  0  0  0  0  0  0  0  0  0  0
  140.0790   69.1350  228.3660 C   0  0  0  0  0  0  0  0  0  0  0  0
  140.6760   70.3810  228.3440 C   0  0  0  0  0  0  0  0  0  0  0  0
  140.7900   71.0970  227.1680 C   0  0  0  0  0  0  0  0  0  0  0  0
  140.3120   70.5930  225.9790 C   0  0  0  0  0  0  0  0  0  0  0  0
  140.3990   71.2520  224.8070 N   0  0  0  0  0  0  0  0  0  0  0  0
  139.5120   73.3180  223.3080 H   0  0  0  0  0  0  0  0  0  0  0  0
  140.7846   73.4967  220.6427 H   0  0  0  0  0  0  0  0  0  0  0  0
  139.0190   73.4331  220.4747 H   0  0  0  0  0  0  0  0  0  0  0  0
  142.1497   75.4171  219.8923 H   0  0  0  0  0  0  0  0  0  0  0  0
  140.5520   74.9756  219.1643 H   0  0  0  0  0  0  0  0  0  0  0  0
  141.8722   76.6690  217.8470 H   0  0  0  0  0  0  0  0  0  0  0  0
  140.2351   77.2071  218.3300 H   0  0  0  0  0  0  0  0  0  0  0  0
  142.7955   77.8060  219.8997 H   0  0  0  0  0  0  0  0  0  0  0  0
  142.0351   78.9388  218.7437 H   0  0  0  0  0  0  0  0  0  0  0  0
  141.3690   79.3290  221.1088 H   0  0  0  0  0  0  0  0  0  0  0  0
  139.9787   78.8972  219.9887 H   0  0  0  0  0  0  0  0  0  0  0  0
  139.3579   77.5678  221.6124 H   0  0  0  0  0  0  0  0  0  0  0  0
  140.4400   77.2728  223.5321 H   0  0  0  0  0  0  0  0  0  0  0  0
  142.0618   77.0571  222.6569 H   0  0  0  0  0  0  0  0  0  0  0  0
  139.5234   79.5834  223.4759 H   0  0  0  0  0  0  0  0  0  0  0  0
  140.0822   81.8878  224.0973 H   0  0  0  0  0  0  0  0  0  0  0  0
  142.4444   82.6728  224.1072 H   0  0  0  0  0  0  0  0  0  0  0  0
  144.2280   81.0519  223.4626 H   0  0  0  0  0  0  0  0  0  0  0  0
  143.6599   78.7354  222.8379 H   0  0  0  0  0  0  0  0  0  0  0  0
  138.9346   69.0517  222.7729 H   0  0  0  0  0  0  0  0  0  0  0  0
  139.1237   67.6400  227.1678 H   0  0  0  0  0  0  0  0  0  0  0  0
  139.9886   68.5660  229.3031 H   0  0  0  0  0  0  0  0  0  0  0  0
  141.0670   70.8099  229.2784 H   0  0  0  0  0  0  0  0  0  0  0  0
  141.2707   72.0863  227.1817 H   0  0  0  0  0  0  0  0  0  0  0  0
  1  2  2  0
  2  3  1  0
  3  4  1  0
  4  5  1  0
  5  6  2  0
  5  7  1  0
  7  8  1  0
  8  9  1  0
  9 10  1  0
 10 11  1  0
 11 12  1  0
 12 13  1  0
 13 14  1  0
 14 15  2  0
 15 16  1  0
 16 17  2  0
 17 18  1  0
 18 19  2  0
  2 20  1  0
 20 21  2  0
 21 22  1  0
 22 23  2  0
 23 24  1  0
 24 25  2  0
 25 26  1  0
 26 27  2  0
 27 28  1  0
 28 29  2  0
 12  7  1  0
 19 14  1  0
 29 20  1  0
 28 23  1  0
  3 30  1  0
  4 31  1  0
  4 32  1  0
  8 33  1  0
  8 34  1  0
  9 35  1  0
  9 36  1  0
 10 37  1  0
 10 38  1  0
 11 39  1  0
 11 40  1  0
 12 41  1  1
 13 42  1  0
 13 43  1  0
 15 44  1  0
 16 45  1  0
 17 46  1  0
 18 47  1  0
 19 48  1  0
 21 49  1  0
 24 50  1  0
 25 51  1  0
 26 52  1  0
 27 53  1  0
M  END
>  <smiles>  (32) 
O=C(NCC(=O)N1CCCCC1Cc1ccccc1)c1cnc2ccccc2n1

>  <score_type>  (32) 
oracle

>  <origin>  (32) 
autodockgpu

>  <m_score__min__energy>  (32) 
-9.1999999999999993

>  <m_primary>  (32) 
energy

>  <rmsd>  (32) 
2.1215716328327674

>  <m_score__min__rmsd>  (32) 
2.1215716328327674

>  <meeko>  (32) 
{"free_energy": -8.97, "intermolecular_energy": -10.76, "internal_energy": -1.92, "cluster_size": 46, "cluster_id": 1, "rank_in_cluster": 3}

>  <energy>  (32) 
-8.83

>  <cluster_rmsd>  (32) 
1.62

>  <cluster>  (32) 
1

$$$$

     RDKit          3D

 53 56  0  0  0  0  0  0  0  0999 V2000
  140.2870   71.3950  221.2630 O   0  0  0  0  0  0  0  0  0  0  0  0
  140.0460   72.0460  222.3160 C   0  0  0  0  0  0  0  0  0  0  0  0
  139.7560   73.4470  222.3060 N   0  0  0  0  0  0  0  0  0  0  0  0
  139.7150   74.2290  221.0850 C   0  0  0  0  0  0  0  0  0  0  0  0
  140.2520   75.5830  221.4300 C   0  0  0  0  0  0  0  0  0  0  0  0
  140.3070   75.8830  222.6530 O   0  0  0  0  0  0  0  0  0  0  0  0
  140.6830   76.4940  220.4010 N   0  0  0  0  0  0  0  0  0  0  0  0
  139.7050   77.4510  219.8930 C   0  0  0  0  0  0  0  0  0  0  0  0
  140.3760   78.7010  219.3760 C   0  0  0  0  0  0  0  0  0  0  0  0
  141.4540   78.2970  218.3940 C   0  0  0  0  0  0  0  0  0  0  0  0
  142.5210   77.5540  219.1430 C   0  0  0  0  0  0  0  0  0  0  0  0
  142.0280   76.3950  219.9540 C   0  0  2  0  0  0  0  0  0  0  0  0
  142.3950   75.1270  219.2600 C   0  0  0  0  0  0  0  0  0  0  0  0
  143.3880   74.2810  219.9080 C   0  0  0  0  0  0  0  0  0  0  0  0
  144.6090   74.8250  220.2450 C   0  0  0  0  0  0  0  0  0  0  0  0
  145.6030   74.0890  220.8600 C   0  0  0  0  0  0  0  0  0  0  0  0
  145.4180   72.7600  221.1700 C   0  0  0  0  0  0  0  0  0  0  0  0
  144.2010   72.1940  220.8410 C   0  0  0  0  0  0  0  0  0  0  0  0
  143.2070   72.9410  220.2230 C   0  0  0  0  0  0  0  0  0  0  0  0
  140.0640   71.3410  223.6100 C   0  0  0  0  0  0  0  0  0  0  0  0
  139.5840   70.0520  223.7000 C   0  0  0  0  0  0  0  0  0  0  0  0
  139.5960   69.3980  224.8840 N   0  0  0  0  0  0  0  0  0  0  0  0
  140.0770   69.9940  226.0000 C   0  0  0  0  0  0  0  0  0  0  0  0
  140.0710   69.2900  227.1900 C   0  0  0  0  0  0  0  0  0  0  0  0
  140.5500   69.8610  228.3400 C   0  0  0  0  0  0  0  0  0  0  0  0
  141.0360   71.1530  228.2680 C   0  0  0  0  0  0  0  0  0  0  0  0
  141.0380   71.8490  227.0750 C   0  0  0  0  0  0  0  0  0  0  0  0
  140.5570   71.2790  225.9170 C   0  0  0  0  0  0  0  0  0  0  0  0
  140.5380   71.9160  224.7310 N   0  0  0  0  0  0  0  0  0  0  0  0
  139.5680   73.9010  223.2510 H   0  0  0  0  0  0  0  0  0  0  0  0
  140.3392   73.7584  220.3111 H   0  0  0  0  0  0  0  0  0  0  0  0
  138.6908   74.2959  220.6894 H   0  0  0  0  0  0  0  0  0  0  0  0
  139.1387   76.9836  219.0739 H   0  0  0  0  0  0  0  0  0  0  0  0
  139.0351   77.7333  220.7186 H   0  0  0  0  0  0  0  0  0  0  0  0
  139.6348   79.3384  218.8717 H   0  0  0  0  0  0  0  0  0  0  0  0
  140.8189   79.2635  220.2111 H   0  0  0  0  0  0  0  0  0  0  0  0
  141.0245   77.6476  217.6169 H   0  0  0  0  0  0  0  0  0  0  0  0
  141.8810   79.1891  217.9125 H   0  0  0  0  0  0  0  0  0  0  0  0
  143.2509   77.1748  218.4126 H   0  0  0  0  0  0  0  0  0  0  0  0
  142.9537   78.2700  219.8573 H   0  0  0  0  0  0  0  0  0  0  0  0
  142.5482   76.4046  220.9232 H   0  0  0  0  0  0  0  0  0  0  0  0
  141.4762   74.5329  219.1469 H   0  0  0  0  0  0  0  0  0  0  0  0
  142.8624   75.4435  218.3159 H   0  0  0  0  0  0  0  0  0  0  0  0
  144.7987   75.8840  220.0157 H   0  0  0  0  0  0  0  0  0  0  0  0
  146.5595   74.5731  221.1066 H   0  0  0  0  0  0  0  0  0  0  0  0
  146.2079   72.1721  221.6602 H   0  0  0  0  0  0  0  0  0  0  0  0
  144.0168   71.1345  221.0725 H   0  0  0  0  0  0  0  0  0  0  0  0
  142.2500   72.4579  219.9763 H   0  0  0  0  0  0  0  0  0  0  0  0
  139.1887   69.5521  222.8034 H   0  0  0  0  0  0  0  0  0  0  0  0
  139.6784   68.2627  227.2138 H   0  0  0  0  0  0  0  0  0  0  0  0
  140.5478   69.3082  229.2910 H   0  0  0  0  0  0  0  0  0  0  0  0
  141.4277   71.6349  229.1760 H   0  0  0  0  0  0  0  0  0  0  0  0
  141.4305   72.8763  227.0492 H   0  0  0  0  0  0  0  0  0  0  0  0
  1  2  2  0
  2  3  1  0
  3  4  1  0
  4  5  1  0
  5  6  2  0
  5  7  1  0
  7  8  1  0
  8  9  1  0
  9 10  1  0
 10 11  1  0
 11 12  1  0
 12 13  1  0
 13 14  1  0
 14 15  2  0
 15 16  1  0
 16 17  2  0
 17 18  1  0
 18 19  2  0
  2 20  1  0
 20 21  2  0
 21 22  1  0
 22 23  2  0
 23 24  1  0
 24 25  2  0
 25 26  1  0
 26 27  2  0
 27 28  1  0
 28 29  2  0
 12  7  1  0
 19 14  1  0
 29 20  1  0
 28 23  1  0
  3 30  1  0
  4 31  1  0
  4 32  1  0
  8 33  1  0
  8 34  1  0
  9 35  1  0
  9 36  1  0
 10 37  1  0
 10 38  1  0
 11 39  1  0
 11 40  1  0
 12 41  1  1
 13 42  1  0
 13 43  1  0
 15 44  1  0
 16 45  1  0
 17 46  1  0
 18 47  1  0
 19 48  1  0
 21 49  1  0
 24 50  1  0
 25 51  1  0
 26 52  1  0
 27 53  1  0
M  END
>  <smiles>  (33) 
O=C(NCC(=O)N1CCCCC1Cc1ccccc1)c1cnc2ccccc2n1

>  <score_type>  (33) 
oracle

>  <origin>  (33) 
autodockgpu

>  <m_score__min__energy>  (33) 
-9.1999999999999993

>  <m_primary>  (33) 
energy

>  <rmsd>  (33) 
1.983879712210691

>  <m_score__min__rmsd>  (33) 
1.983879712210691

>  <meeko>  (33) 
{"free_energy": -8.18, "intermolecular_energy": -9.97, "internal_energy": -2.35, "cluster_size": 3, "cluster_id": 2, "rank_in_cluster": 3}

>  <energy>  (33) 
-8.83

>  <cluster_rmsd>  (33) 
1.69

>  <cluster>  (33) 
1

$$$$

     RDKit          3D

 53 56  0  0  0  0  0  0  0  0999 V2000
  140.7070   71.3930  221.2810 O   0  0  0  0  0  0  0  0  0  0  0  0
  140.2780   72.0360  222.2770 C   0  0  0  0  0  0  0  0  0  0  0  0
  139.9070   73.4160  222.2010 N   0  0  0  0  0  0  0  0  0  0  0  0
  139.9950   74.1830  220.9730 C   0  0  0  0  0  0  0  0  0  0  0  0
  140.3930   75.5720  221.3680 C   0  0  0  0  0  0  0  0  0  0  0  0
  140.1650   75.9160  222.5590 O   0  0  0  0  0  0  0  0  0  0  0  0
  141.0090   76.4640  220.4200 N   0  0  0  0  0  0  0  0  0  0  0  0
  142.4040   76.2160  220.0680 C   0  0  0  0  0  0  0  0  0  0  0  0
  142.7180   76.7210  218.6800 C   0  0  0  0  0  0  0  0  0  0  0  0
  142.2730   78.1630  218.5800 C   0  0  0  0  0  0  0  0  0  0  0  0
  140.7770   78.2050  218.6890 C   0  0  0  0  0  0  0  0  0  0  0  0
  140.2160   77.5200  219.8970 C   0  0  2  0  0  0  0  0  0  0  0  0
  139.7720   78.5530  220.8780 C   0  0  0  0  0  0  0  0  0  0  0  0
  140.7770   79.0700  221.7950 C   0  0  0  0  0  0  0  0  0  0  0  0
  141.6160   80.0770  221.3670 C   0  0  0  0  0  0  0  0  0  0  0  0
  142.5950   80.6190  222.1760 C   0  0  0  0  0  0  0  0  0  0  0  0
  142.7820   80.1730  223.4660 C   0  0  0  0  0  0  0  0  0  0  0  0
  141.9520   79.1640  223.9160 C   0  0  0  0  0  0  0  0  0  0  0  0
  140.9700   78.6240  223.0960 C   0  0  0  0  0  0  0  0  0  0  0  0
  140.1510   71.3440  223.5730 C   0  0  0  0  0  0  0  0  0  0  0  0
  139.5320   70.1150  223.6400 C   0  0  0  0  0  0  0  0  0  0  0  0
  139.4120   69.4730  224.8250 N   0  0  0  0  0  0  0  0  0  0  0  0
  139.8940   70.0250  225.9630 C   0  0  0  0  0  0  0  0  0  0  0  0
  139.7500   69.3350  227.1530 C   0  0  0  0  0  0  0  0  0  0  0  0
  140.2260   69.8620  228.3260 C   0  0  0  0  0  0  0  0  0  0  0  0
  140.8510   71.0930  228.2760 C   0  0  0  0  0  0  0  0  0  0  0  0
  140.9900   71.7750  227.0830 C   0  0  0  0  0  0  0  0  0  0  0  0
  140.5120   71.2500  225.9030 C   0  0  0  0  0  0  0  0  0  0  0  0
  140.6250   71.8750  224.7150 N   0  0  0  0  0  0  0  0  0  0  0  0
  139.5570   73.8650  223.1010 H   0  0  0  0  0  0  0  0  0  0  0  0
  140.7520   73.7460  220.3052 H   0  0  0  0  0  0  0  0  0  0  0  0
  139.0366   74.1817  220.4331 H   0  0  0  0  0  0  0  0  0  0  0  0
  143.0531   76.7306  220.7918 H   0  0  0  0  0  0  0  0  0  0  0  0
  142.5799   75.1304  220.0904 H   0  0  0  0  0  0  0  0  0  0  0  0
  143.8006   76.6536  218.4970 H   0  0  0  0  0  0  0  0  0  0  0  0
  142.1917   76.1121  217.9302 H   0  0  0  0  0  0  0  0  0  0  0  0
  142.7216   78.7478  219.3965 H   0  0  0  0  0  0  0  0  0  0  0  0
  142.5944   78.5923  217.6196 H   0  0  0  0  0  0  0  0  0  0  0  0
  140.4654   79.2596  218.7180 H   0  0  0  0  0  0  0  0  0  0  0  0
  140.3874   77.6613  217.8157 H   0  0  0  0  0  0  0  0  0  0  0  0
  139.3260   76.9510  219.5901 H   0  0  0  0  0  0  0  0  0  0  0  0
  139.3755   79.4048  220.3060 H   0  0  0  0  0  0  0  0  0  0  0  0
  139.0381   78.0416  221.5181 H   0  0  0  0  0  0  0  0  0  0  0  0
  141.5012   80.4628  220.3433 H   0  0  0  0  0  0  0  0  0  0  0  0
  143.2371   81.4213  221.7834 H   0  0  0  0  0  0  0  0  0  0  0  0
  143.5613   80.6031  224.1123 H   0  0  0  0  0  0  0  0  0  0  0  0
  142.0711   78.7822  224.9407 H   0  0  0  0  0  0  0  0  0  0  0  0
  140.3277   77.8214  223.4874 H   0  0  0  0  0  0  0  0  0  0  0  0
  139.1330   69.6530  222.7249 H   0  0  0  0  0  0  0  0  0  0  0  0
  139.2495   68.3555  227.1585 H   0  0  0  0  0  0  0  0  0  0  0  0
  140.1137   69.3213  229.2773 H   0  0  0  0  0  0  0  0  0  0  0  0
  141.2446   71.5376  229.2020 H   0  0  0  0  0  0  0  0  0  0  0  0
  141.4911   72.7542  227.0753 H   0  0  0  0  0  0  0  0  0  0  0  0
  1  2  2  0
  2  3  1  0
  3  4  1  0
  4  5  1  0
  5  6  2  0
  5  7  1  0
  7  8  1  0
  8  9  1  0
  9 10  1  0
 10 11  1  0
 11 12  1  0
 12 13  1  0
 13 14  1  0
 14 15  2  0
 15 16  1  0
 16 17  2  0
 17 18  1  0
 18 19  2  0
  2 20  1  0
 20 21  2  0
 21 22  1  0
 22 23  2  0
 23 24  1  0
 24 25  2  0
 25 26  1  0
 26 27  2  0
 27 28  1  0
 28 29  2  0
 12  7  1  0
 19 14  1  0
 29 20  1  0
 28 23  1  0
  3 30  1  0
  4 31  1  0
  4 32  1  0
  8 33  1  0
  8 34  1  0
  9 35  1  0
  9 36  1  0
 10 37  1  0
 10 38  1  0
 11 39  1  0
 11 40  1  0
 12 41  1  6
 13 42  1  0
 13 43  1  0
 15 44  1  0
 16 45  1  0
 17 46  1  0
 18 47  1  0
 19 48  1  0
 21 49  1  0
 24 50  1  0
 25 51  1  0
 26 52  1  0
 27 53  1  0
M  END
>  <smiles>  (34) 
O=C(NCC(=O)N1CCCCC1Cc1ccccc1)c1cnc2ccccc2n1

>  <score_type>  (34) 
oracle

>  <origin>  (34) 
autodockgpu

>  <m_score__min__energy>  (34) 
-9.1999999999999993

>  <m_primary>  (34) 
energy

>  <rmsd>  (34) 
2.3236893015318074

>  <m_score__min__rmsd>  (34) 
2.3236893015318074

>  <meeko>  (34) 
{"free_energy": -8.9, "intermolecular_energy": -10.69, "internal_energy": -2.17, "cluster_size": 46, "cluster_id": 1, "rank_in_cluster": 19}

>  <energy>  (34) 
-8.82

>  <cluster_rmsd>  (34) 
1.61

>  <cluster>  (34) 
1

$$$$

     RDKit          3D

 53 56  0  0  0  0  0  0  0  0999 V2000
  140.4900   71.3460  221.2470 O   0  0  0  0  0  0  0  0  0  0  0  0
  140.1630   72.0070  222.2690 C   0  0  0  0  0  0  0  0  0  0  0  0
  139.8300   73.3970  222.2150 N   0  0  0  0  0  0  0  0  0  0  0  0
  139.8410   74.1560  220.9790 C   0  0  0  0  0  0  0  0  0  0  0  0
  140.3020   75.5360  221.3330 C   0  0  0  0  0  0  0  0  0  0  0  0
  140.3020   75.8440  222.5550 O   0  0  0  0  0  0  0  0  0  0  0  0
  140.7250   76.4610  220.3120 N   0  0  0  0  0  0  0  0  0  0  0  0
  139.7240   77.3800  219.7780 C   0  0  0  0  0  0  0  0  0  0  0  0
  140.3610   78.6530  219.2750 C   0  0  0  0  0  0  0  0  0  0  0  0
  141.4780   78.2890  218.3220 C   0  0  0  0  0  0  0  0  0  0  0  0
  142.5530   77.5870  219.0990 C   0  0  0  0  0  0  0  0  0  0  0  0
  142.0830   76.4120  219.9000 C   0  0  2  0  0  0  0  0  0  0  0  0
  142.5150   75.1570  219.2180 C   0  0  0  0  0  0  0  0  0  0  0  0
  143.5190   74.3480  219.8950 C   0  0  0  0  0  0  0  0  0  0  0  0
  143.2410   73.0220  220.1550 C   0  0  0  0  0  0  0  0  0  0  0  0
  144.1390   72.1900  220.7950 C   0  0  0  0  0  0  0  0  0  0  0  0
  145.3700   72.6510  221.2070 C   0  0  0  0  0  0  0  0  0  0  0  0
  145.6690   73.9760  220.9570 C   0  0  0  0  0  0  0  0  0  0  0  0
  144.7600   74.8070  220.3130 C   0  0  0  0  0  0  0  0  0  0  0  0
  140.1200   71.3240  223.5760 C   0  0  0  0  0  0  0  0  0  0  0  0
  139.5760   70.0630  223.6770 C   0  0  0  0  0  0  0  0  0  0  0  0
  139.5330   69.4300  224.8710 N   0  0  0  0  0  0  0  0  0  0  0  0
  140.0210   70.0210  225.9870 C   0  0  0  0  0  0  0  0  0  0  0  0
  139.9580   69.3390  227.1880 C   0  0  0  0  0  0  0  0  0  0  0  0
  140.4410   69.9060  228.3380 C   0  0  0  0  0  0  0  0  0  0  0  0
  140.9920   71.1710  228.2540 C   0  0  0  0  0  0  0  0  0  0  0  0
  141.0510   71.8450  227.0500 C   0  0  0  0  0  0  0  0  0  0  0  0
  140.5650   71.2790  225.8930 C   0  0  0  0  0  0  0  0  0  0  0  0
  140.6010   71.8950  224.6960 N   0  0  0  0  0  0  0  0  0  0  0  0
  139.5680   73.8610  223.1370 H   0  0  0  0  0  0  0  0  0  0  0  0
  140.5330   73.6974  220.2573 H   0  0  0  0  0  0  0  0  0  0  0  0
  138.8439   74.1760  220.5150 H   0  0  0  0  0  0  0  0  0  0  0  0
  139.1958   76.8907  218.9464 H   0  0  0  0  0  0  0  0  0  0  0  0
  139.0235   77.6380  220.5859 H   0  0  0  0  0  0  0  0  0  0  0  0
  139.6096   79.2613  218.7503 H   0  0  0  0  0  0  0  0  0  0  0  0
  140.7613   79.2326  220.1199 H   0  0  0  0  0  0  0  0  0  0  0  0
  141.0932   77.6234  217.5353 H   0  0  0  0  0  0  0  0  0  0  0  0
  141.8834   79.1963  217.8504 H   0  0  0  0  0  0  0  0  0  0  0  0
  143.3143   77.2339  218.3878 H   0  0  0  0  0  0  0  0  0  0  0  0
  142.9413   78.3195  219.8220 H   0  0  0  0  0  0  0  0  0  0  0  0
  142.5772   76.4428  220.8822 H   0  0  0  0  0  0  0  0  0  0  0  0
  141.6217   74.5301  219.0800 H   0  0  0  0  0  0  0  0  0  0  0  0
  142.9969   75.4896  218.2868 H   0  0  0  0  0  0  0  0  0  0  0  0
  142.2694   72.6125  219.8414 H   0  0  0  0  0  0  0  0  0  0  0  0
  143.8662   71.1404  220.9790 H   0  0  0  0  0  0  0  0  0  0  0  0
  146.0870   71.9895  221.7154 H   0  0  0  0  0  0  0  0  0  0  0  0
  146.6422   74.3801  221.2727 H   0  0  0  0  0  0  0  0  0  0  0  0
  145.0317   75.8570  220.1297 H   0  0  0  0  0  0  0  0  0  0  0  0
  139.1740   69.5677  222.7809 H   0  0  0  0  0  0  0  0  0  0  0  0
  139.5161   68.3322  227.2206 H   0  0  0  0  0  0  0  0  0  0  0  0
  140.3918   69.3713  229.2981 H   0  0  0  0  0  0  0  0  0  0  0  0
  141.3901   71.6488  229.1613 H   0  0  0  0  0  0  0  0  0  0  0  0
  141.4939   72.8513  227.0149 H   0  0  0  0  0  0  0  0  0  0  0  0
  1  2  2  0
  2  3  1  0
  3  4  1  0
  4  5  1  0
  5  6  2  0
  5  7  1  0
  7  8  1  0
  8  9  1  0
  9 10  1  0
 10 11  1  0
 11 12  1  0
 12 13  1  0
 13 14  1  0
 14 15  2  0
 15 16  1  0
 16 17  2  0
 17 18  1  0
 18 19  2  0
  2 20  1  0
 20 21  2  0
 21 22  1  0
 22 23  2  0
 23 24  1  0
 24 25  2  0
 25 26  1  0
 26 27  2  0
 27 28  1  0
 28 29  2  0
 12  7  1  0
 19 14  1  0
 29 20  1  0
 28 23  1  0
  3 30  1  0
  4 31  1  0
  4 32  1  0
  8 33  1  0
  8 34  1  0
  9 35  1  0
  9 36  1  0
 10 37  1  0
 10 38  1  0
 11 39  1  0
 11 40  1  0
 12 41  1  1
 13 42  1  0
 13 43  1  0
 15 44  1  0
 16 45  1  0
 17 46  1  0
 18 47  1  0
 19 48  1  0
 21 49  1  0
 24 50  1  0
 25 51  1  0
 26 52  1  0
 27 53  1  0
M  END
>  <smiles>  (35) 
O=C(NCC(=O)N1CCCCC1Cc1ccccc1)c1cnc2ccccc2n1

>  <score_type>  (35) 
oracle

>  <origin>  (35) 
autodockgpu

>  <m_score__min__energy>  (35) 
-9.1999999999999993

>  <m_primary>  (35) 
energy

>  <rmsd>  (35) 
1.9765200965147873

>  <m_score__min__rmsd>  (35) 
1.9765200965147873

>  <meeko>  (35) 
{"free_energy": -8.18, "intermolecular_energy": -9.97, "internal_energy": -2.33, "cluster_size": 3, "cluster_id": 2, "rank_in_cluster": 2}

>  <energy>  (35) 
-8.81

>  <cluster_rmsd>  (35) 
1.61

>  <cluster>  (35) 
1

$$$$

     RDKit          3D

 53 56  0  0  0  0  0  0  0  0999 V2000
  140.4390   71.3190  221.2880 O   0  0  0  0  0  0  0  0  0  0  0  0
  140.1350   71.9520  222.3350 C   0  0  0  0  0  0  0  0  0  0  0  0
  139.8170   73.3470  222.3280 N   0  0  0  0  0  0  0  0  0  0  0  0
  139.8190   74.1420  221.1150 C   0  0  0  0  0  0  0  0  0  0  0  0
  140.0850   75.5550  221.5350 C   0  0  0  0  0  0  0  0  0  0  0  0
  139.6720   75.9010  222.6750 O   0  0  0  0  0  0  0  0  0  0  0  0
  140.7820   76.4680  220.6660 N   0  0  0  0  0  0  0  0  0  0  0  0
  142.1750   76.1680  220.3490 C   0  0  0  0  0  0  0  0  0  0  0  0
  142.5690   76.7360  219.0070 C   0  0  0  0  0  0  0  0  0  0  0  0
  142.2020   78.2040  218.9800 C   0  0  0  0  0  0  0  0  0  0  0  0
  140.7060   78.3180  219.0370 C   0  0  0  0  0  0  0  0  0  0  0  0
  140.0640   77.5930  220.1800 C   0  0  2  0  0  0  0  0  0  0  0  0
  139.6350   78.5890  221.2050 C   0  0  0  0  0  0  0  0  0  0  0  0
  140.6830   79.2160  221.9980 C   0  0  0  0  0  0  0  0  0  0  0  0
  141.1870   78.5420  223.0900 C   0  0  0  0  0  0  0  0  0  0  0  0
  142.1800   79.0700  223.8920 C   0  0  0  0  0  0  0  0  0  0  0  0
  142.7190   80.3110  223.6350 C   0  0  0  0  0  0  0  0  0  0  0  0
  142.2280   81.0050  222.5460 C   0  0  0  0  0  0  0  0  0  0  0  0
  141.2300   80.4660  221.7440 C   0  0  0  0  0  0  0  0  0  0  0  0
  140.1040   71.2310  223.6210 C   0  0  0  0  0  0  0  0  0  0  0  0
  139.5630   69.9650  223.6890 C   0  0  0  0  0  0  0  0  0  0  0  0
  139.5310   69.2970  224.8640 N   0  0  0  0  0  0  0  0  0  0  0  0
  140.0260   69.8570  225.9930 C   0  0  0  0  0  0  0  0  0  0  0  0
  139.9730   69.1390  227.1740 C   0  0  0  0  0  0  0  0  0  0  0  0
  140.4640   69.6730  228.3370 C   0  0  0  0  0  0  0  0  0  0  0  0
  141.0110   70.9410  228.2870 C   0  0  0  0  0  0  0  0  0  0  0  0
  141.0590   71.6510  227.1030 C   0  0  0  0  0  0  0  0  0  0  0  0
  140.5660   71.1180  225.9320 C   0  0  0  0  0  0  0  0  0  0  0  0
  140.5910   71.7690  224.7540 N   0  0  0  0  0  0  0  0  0  0  0  0
  139.5740   73.7850  223.2670 H   0  0  0  0  0  0  0  0  0  0  0  0
  140.6082   73.7930  220.4329 H   0  0  0  0  0  0  0  0  0  0  0  0
  138.8603   74.0584  220.5822 H   0  0  0  0  0  0  0  0  0  0  0  0
  142.8207   76.6038  221.1256 H   0  0  0  0  0  0  0  0  0  0  0  0
  142.2938   75.0751  220.3108 H   0  0  0  0  0  0  0  0  0  0  0  0
  143.6531   76.6219  218.8597 H   0  0  0  0  0  0  0  0  0  0  0  0
  142.0429   76.2013  218.2024 H   0  0  0  0  0  0  0  0  0  0  0  0
  142.6471   78.7145  219.8468 H   0  0  0  0  0  0  0  0  0  0  0  0
  142.5826   78.6726  218.0605 H   0  0  0  0  0  0  0  0  0  0  0  0
  140.4469   79.3839  219.1190 H   0  0  0  0  0  0  0  0  0  0  0  0
  140.3243   77.8481  218.1186 H   0  0  0  0  0  0  0  0  0  0  0  0
  139.1593   77.0902  219.8076 H   0  0  0  0  0  0  0  0  0  0  0  0
  139.0908   79.3894  220.6823 H   0  0  0  0  0  0  0  0  0  0  0  0
  139.0357   78.0151  221.9271 H   0  0  0  0  0  0  0  0  0  0  0  0
  140.7836   77.5475  223.3314 H   0  0  0  0  0  0  0  0  0  0  0  0
  142.5467   78.4890  224.7511 H   0  0  0  0  0  0  0  0  0  0  0  0
  143.5099   80.7333  224.2722 H   0  0  0  0  0  0  0  0  0  0  0  0
  142.6337   81.9999  222.3103 H   0  0  0  0  0  0  0  0  0  0  0  0
  140.8632   81.0458  220.8841 H   0  0  0  0  0  0  0  0  0  0  0  0
  139.1549   69.4954  222.7818 H   0  0  0  0  0  0  0  0  0  0  0  0
  139.5331   68.1308  227.1800 H   0  0  0  0  0  0  0  0  0  0  0  0
  140.4239   69.1096  229.2809 H   0  0  0  0  0  0  0  0  0  0  0  0
  141.4149   71.3925  229.2052 H   0  0  0  0  0  0  0  0  0  0  0  0
  141.4985   72.6594  227.0949 H   0  0  0  0  0  0  0  0  0  0  0  0
  1  2  2  0
  2  3  1  0
  3  4  1  0
  4  5  1  0
  5  6  2  0
  5  7  1  0
  7  8  1  0
  8  9  1  0
  9 10  1  0
 10 11  1  0
 11 12  1  0
 12 13  1  0
 13 14  1  0
 14 15  2  0
 15 16  1  0
 16 17  2  0
 17 18  1  0
 18 19  2  0
  2 20  1  0
 20 21  2  0
 21 22  1  0
 22 23  2  0
 23 24  1  0
 24 25  2  0
 25 26  1  0
 26 27  2  0
 27 28  1  0
 28 29  2  0
 12  7  1  0
 19 14  1  0
 29 20  1  0
 28 23  1  0
  3 30  1  0
  4 31  1  0
  4 32  1  0
  8 33  1  0
  8 34  1  0
  9 35  1  0
  9 36  1  0
 10 37  1  0
 10 38  1  0
 11 39  1  0
 11 40  1  0
 12 41  1  6
 13 42  1  0
 13 43  1  0
 15 44  1  0
 16 45  1  0
 17 46  1  0
 18 47  1  0
 19 48  1  0
 21 49  1  0
 24 50  1  0
 25 51  1  0
 26 52  1  0
 27 53  1  0
M  END
>  <smiles>  (36) 
O=C(NCC(=O)N1CCCCC1Cc1ccccc1)c1cnc2ccccc2n1

>  <score_type>  (36) 
oracle

>  <origin>  (36) 
autodockgpu

>  <m_score__min__energy>  (36) 
-9.1999999999999993

>  <m_primary>  (36) 
energy

>  <rmsd>  (36) 
2.327496843537359

>  <m_score__min__rmsd>  (36) 
2.327496843537359

>  <meeko>  (36) 
{"free_energy": -8.86, "intermolecular_energy": -10.65, "internal_energy": -2.23, "cluster_size": 46, "cluster_id": 1, "rank_in_cluster": 25}

>  <energy>  (36) 
-8.8

>  <cluster_rmsd>  (36) 
1.79

>  <cluster>  (36) 
1

$$$$

     RDKit          3D

 53 56  0  0  0  0  0  0  0  0999 V2000
  140.1910   70.8070  221.1980 O   0  0  0  0  0  0  0  0  0  0  0  0
  140.3470   71.4990  222.2400 C   0  0  0  0  0  0  0  0  0  0  0  0
  140.6990   72.8850  222.1990 N   0  0  0  0  0  0  0  0  0  0  0  0
  140.9030   73.6040  220.9560 C   0  0  0  0  0  0  0  0  0  0  0  0
  140.7100   75.0550  221.2690 C   0  0  0  0  0  0  0  0  0  0  0  0
  140.0440   75.3350  222.3020 O   0  0  0  0  0  0  0  0  0  0  0  0
  141.2670   76.0770  220.4190 N   0  0  0  0  0  0  0  0  0  0  0  0
  142.6830   75.9720  220.0770 C   0  0  0  0  0  0  0  0  0  0  0  0
  142.9770   76.6260  218.7480 C   0  0  0  0  0  0  0  0  0  0  0  0
  142.4190   78.0320  218.7700 C   0  0  0  0  0  0  0  0  0  0  0  0
  140.9230   77.9460  218.8480 C   0  0  0  0  0  0  0  0  0  0  0  0
  140.4000   77.1100  219.9760 C   0  0  2  0  0  0  0  0  0  0  0  0
  139.8590   78.0110  221.0360 C   0  0  0  0  0  0  0  0  0  0  0  0
  140.8280   78.6980  221.8780 C   0  0  0  0  0  0  0  0  0  0  0  0
  141.3780   79.8810  221.4320 C   0  0  0  0  0  0  0  0  0  0  0  0
  142.3050   80.5910  222.1710 C   0  0  0  0  0  0  0  0  0  0  0  0
  142.7270   80.1450  223.4040 C   0  0  0  0  0  0  0  0  0  0  0  0
  142.1890   78.9610  223.8700 C   0  0  0  0  0  0  0  0  0  0  0  0
  141.2580   78.2530  223.1210 C   0  0  0  0  0  0  0  0  0  0  0  0
  140.1620   70.8590  223.5560 C   0  0  0  0  0  0  0  0  0  0  0  0
  139.5740   69.6160  223.6410 C   0  0  0  0  0  0  0  0  0  0  0  0
  139.4000   69.0220  224.8440 N   0  0  0  0  0  0  0  0  0  0  0  0
  139.7980   69.6360  225.9830 C   0  0  0  0  0  0  0  0  0  0  0  0
  139.6010   68.9930  227.1920 C   0  0  0  0  0  0  0  0  0  0  0  0
  139.9910   69.5840  228.3660 C   0  0  0  0  0  0  0  0  0  0  0  0
  140.5830   70.8310  228.2990 C   0  0  0  0  0  0  0  0  0  0  0  0
  140.7750   71.4650  227.0870 C   0  0  0  0  0  0  0  0  0  0  0  0
  140.3840   70.8750  225.9050 C   0  0  0  0  0  0  0  0  0  0  0  0
  140.5510   71.4520  224.7000 N   0  0  0  0  0  0  0  0  0  0  0  0
  140.8080   73.3770  223.1370 H   0  0  0  0  0  0  0  0  0  0  0  0
  141.9210   73.4287  220.5780 H   0  0  0  0  0  0  0  0  0  0  0  0
  140.1992   73.2668  220.1808 H   0  0  0  0  0  0  0  0  0  0  0  0
  143.2780   76.4664  220.8590 H   0  0  0  0  0  0  0  0  0  0  0  0
  142.9443   74.9059  220.0044 H   0  0  0  0  0  0  0  0  0  0  0  0
  144.0642   76.6610  218.5843 H   0  0  0  0  0  0  0  0  0  0  0  0
  142.5133   76.0496  217.9339 H   0  0  0  0  0  0  0  0  0  0  0  0
  142.8064   78.5719  219.6466 H   0  0  0  0  0  0  0  0  0  0  0  0
  142.7198   78.5726  217.8605 H   0  0  0  0  0  0  0  0  0  0  0  0
  140.5272   78.9656  218.9656 H   0  0  0  0  0  0  0  0  0  0  0  0
  140.5920   77.4564  217.9202 H   0  0  0  0  0  0  0  0  0  0  0  0
  139.5639   76.5027  219.5990 H   0  0  0  0  0  0  0  0  0  0  0  0
  139.2482   78.7789  220.5387 H   0  0  0  0  0  0  0  0  0  0  0  0
  139.3063   77.3489  221.7187 H   0  0  0  0  0  0  0  0  0  0  0  0
  141.0677   80.2738  220.4525 H   0  0  0  0  0  0  0  0  0  0  0  0
  142.7132   81.5293  221.7673 H   0  0  0  0  0  0  0  0  0  0  0  0
  143.4636   80.7095  223.9945 H   0  0  0  0  0  0  0  0  0  0  0  0
  142.5030   78.5727  224.8501 H   0  0  0  0  0  0  0  0  0  0  0  0
  140.8501   77.3141  223.5235 H   0  0  0  0  0  0  0  0  0  0  0  0
  139.2441   69.1035  222.7253 H   0  0  0  0  0  0  0  0  0  0  0  0
  139.1279   68.0001  227.2115 H   0  0  0  0  0  0  0  0  0  0  0  0
  139.8374   69.0809  229.3320 H   0  0  0  0  0  0  0  0  0  0  0  0
  140.9066   71.3268  229.2261 H   0  0  0  0  0  0  0  0  0  0  0  0
  141.2481   72.4578  227.0651 H   0  0  0  0  0  0  0  0  0  0  0  0
  1  2  2  0
  2  3  1  0
  3  4  1  0
  4  5  1  0
  5  6  2  0
  5  7  1  0
  7  8  1  0
  8  9  1  0
  9 10  1  0
 10 11  1  0
 11 12  1  0
 12 13  1  0
 13 14  1  0
 14 15  2  0
 15 16  1  0
 16 17  2  0
 17 18  1  0
 18 19  2  0
  2 20  1  0
 20 21  2  0
 21 22  1  0
 22 23  2  0
 23 24  1  0
 24 25  2  0
 25 26  1  0
 26 27  2  0
 27 28  1  0
 28 29  2  0
 12  7  1  0
 19 14  1  0
 29 20  1  0
 28 23  1  0
  3 30  1  0
  4 31  1  0
  4 32  1  0
  8 33  1  0
  8 34  1  0
  9 35  1  0
  9 36  1  0
 10 37  1  0
 10 38  1  0
 11 39  1  0
 11 40  1  0
 12 41  1  6
 13 42  1  0
 13 43  1  0
 15 44  1  0
 16 45  1  0
 17 46  1  0
 18 47  1  0
 19 48  1  0
 21 49  1  0
 24 50  1  0
 25 51  1  0
 26 52  1  0
 27 53  1  0
M  END
>  <smiles>  (37) 
O=C(NCC(=O)N1CCCCC1Cc1ccccc1)c1cnc2ccccc2n1

>  <score_type>  (37) 
oracle

>  <origin>  (37) 
autodockgpu

>  <m_score__min__energy>  (37) 
-9.1999999999999993

>  <m_primary>  (37) 
energy

>  <rmsd>  (37) 
2.43325091494467

>  <m_score__min__rmsd>  (37) 
2.43325091494467

>  <meeko>  (37) 
{"free_energy": -8.34, "intermolecular_energy": -10.13, "internal_energy": -2.27, "cluster_size": 46, "cluster_id": 1, "rank_in_cluster": 41}

>  <energy>  (37) 
-8.79

>  <cluster_rmsd>  (37) 
1.71

>  <cluster>  (37) 
1

$$$$

     RDKit          3D

 53 56  0  0  0  0  0  0  0  0999 V2000
  140.4170   71.2450  221.2210 O   0  0  0  0  0  0  0  0  0  0  0  0
  140.1570   71.9430  222.2380 C   0  0  0  0  0  0  0  0  0  0  0  0
  139.8920   73.3470  222.1610 N   0  0  0  0  0  0  0  0  0  0  0  0
  139.9010   74.0770  220.9080 C   0  0  0  0  0  0  0  0  0  0  0  0
  140.6680   75.3380  221.1570 C   0  0  0  0  0  0  0  0  0  0  0  0
  140.8640   75.6620  222.3590 O   0  0  0  0  0  0  0  0  0  0  0  0
  141.1570   76.1370  220.0620 N   0  0  0  0  0  0  0  0  0  0  0  0
  140.2380   77.1040  219.4690 C   0  0  0  0  0  0  0  0  0  0  0  0
  140.9830   78.2680  218.8600 C   0  0  0  0  0  0  0  0  0  0  0  0
  142.0420   77.7260  217.9260 C   0  0  0  0  0  0  0  0  0  0  0  0
  143.0610   76.9860  218.7440 C   0  0  0  0  0  0  0  0  0  0  0  0
  142.4970   75.9270  219.6400 C   0  0  2  0  0  0  0  0  0  0  0  0
  142.7960   74.5870  219.0540 C   0  0  0  0  0  0  0  0  0  0  0  0
  143.9640   73.8860  219.5670 C   0  0  0  0  0  0  0  0  0  0  0  0
  144.7920   74.5350  220.4590 C   0  0  0  0  0  0  0  0  0  0  0  0
  145.9200   73.9390  220.9900 C   0  0  0  0  0  0  0  0  0  0  0  0
  146.2750   72.6530  220.6480 C   0  0  0  0  0  0  0  0  0  0  0  0
  145.4590   71.9840  219.7550 C   0  0  0  0  0  0  0  0  0  0  0  0
  144.3270   72.5910  219.2260 C   0  0  0  0  0  0  0  0  0  0  0  0
  140.1230   71.2920  223.5600 C   0  0  0  0  0  0  0  0  0  0  0  0
  139.5700   70.0380  223.6980 C   0  0  0  0  0  0  0  0  0  0  0  0
  139.5350   69.4340  224.9070 N   0  0  0  0  0  0  0  0  0  0  0  0
  140.0400   70.0480  226.0020 C   0  0  0  0  0  0  0  0  0  0  0  0
  139.9850   69.3950  227.2210 C   0  0  0  0  0  0  0  0  0  0  0  0
  140.4860   69.9850  228.3510 C   0  0  0  0  0  0  0  0  0  0  0  0
  141.0460   71.2430  228.2310 C   0  0  0  0  0  0  0  0  0  0  0  0
  141.0970   71.8880  227.0110 C   0  0  0  0  0  0  0  0  0  0  0  0
  140.5940   71.2980  225.8720 C   0  0  0  0  0  0  0  0  0  0  0  0
  140.6210   71.8850  224.6610 N   0  0  0  0  0  0  0  0  0  0  0  0
  139.6840   73.8430  223.0800 H   0  0  0  0  0  0  0  0  0  0  0  0
  140.3926   73.4815  220.1246 H   0  0  0  0  0  0  0  0  0  0  0  0
  138.8781   74.2941  220.5665 H   0  0  0  0  0  0  0  0  0  0  0  0
  139.6502   76.6050  218.6845 H   0  0  0  0  0  0  0  0  0  0  0  0
  139.5808   77.4896  220.2623 H   0  0  0  0  0  0  0  0  0  0  0  0
  140.2827   78.9032  218.2978 H   0  0  0  0  0  0  0  0  0  0  0  0
  141.4522   78.8703  219.6519 H   0  0  0  0  0  0  0  0  0  0  0  0
  141.5810   77.0414  217.1988 H   0  0  0  0  0  0  0  0  0  0  0  0
  142.5225   78.5510  217.3796 H   0  0  0  0  0  0  0  0  0  0  0  0
  143.7720   76.5078  218.0542 H   0  0  0  0  0  0  0  0  0  0  0  0
  143.5306   77.7315  219.4026 H   0  0  0  0  0  0  0  0  0  0  0  0
  143.0099   75.9867  220.6113 H   0  0  0  0  0  0  0  0  0  0  0  0
  141.9202   73.9452  219.2300 H   0  0  0  0  0  0  0  0  0  0  0  0
  143.0230   74.7828  217.9956 H   0  0  0  0  0  0  0  0  0  0  0  0
  144.5455   75.5643  220.7585 H   0  0  0  0  0  0  0  0  0  0  0  0
  146.5456   74.5018  221.6985 H   0  0  0  0  0  0  0  0  0  0  0  0
  147.1728   72.1768  221.0690 H   0  0  0  0  0  0  0  0  0  0  0  0
  145.7100   70.9548  219.4586 H   0  0  0  0  0  0  0  0  0  0  0  0
  143.7010   72.0293  218.5170 H   0  0  0  0  0  0  0  0  0  0  0  0
  139.1541   69.5246  222.8186 H   0  0  0  0  0  0  0  0  0  0  0  0
  139.5349   68.3932  227.2829 H   0  0  0  0  0  0  0  0  0  0  0  0
  140.4440   69.4735  229.3239 H   0  0  0  0  0  0  0  0  0  0  0  0
  141.4580   71.7387  229.1224 H   0  0  0  0  0  0  0  0  0  0  0  0
  141.5468   72.8898  226.9475 H   0  0  0  0  0  0  0  0  0  0  0  0
  1  2  2  0
  2  3  1  0
  3  4  1  0
  4  5  1  0
  5  6  2  0
  5  7  1  0
  7  8  1  0
  8  9  1  0
  9 10  1  0
 10 11  1  0
 11 12  1  0
 12 13  1  0
 13 14  1  0
 14 15  2  0
 15 16  1  0
 16 17  2  0
 17 18  1  0
 18 19  2  0
  2 20  1  0
 20 21  2  0
 21 22  1  0
 22 23  2  0
 23 24  1  0
 24 25  2  0
 25 26  1  0
 26 27  2  0
 27 28  1  0
 28 29  2  0
 12  7  1  0
 19 14  1  0
 29 20  1  0
 28 23  1  0
  3 30  1  0
  4 31  1  0
  4 32  1  0
  8 33  1  0
  8 34  1  0
  9 35  1  0
  9 36  1  0
 10 37  1  0
 10 38  1  0
 11 39  1  0
 11 40  1  0
 12 41  1  1
 13 42  1  0
 13 43  1  0
 15 44  1  0
 16 45  1  0
 17 46  1  0
 18 47  1  0
 19 48  1  0
 21 49  1  0
 24 50  1  0
 25 51  1  0
 26 52  1  0
 27 53  1  0
M  END
>  <smiles>  (38) 
O=C(NCC(=O)N1CCCCC1Cc1ccccc1)c1cnc2ccccc2n1

>  <score_type>  (38) 
oracle

>  <origin>  (38) 
autodockgpu

>  <m_score__min__energy>  (38) 
-9.1999999999999993

>  <m_primary>  (38) 
energy

>  <rmsd>  (38) 
2.0070699073309353

>  <m_score__min__rmsd>  (38) 
2.0070699073309353

>  <meeko>  (38) 
{"free_energy": -8.47, "intermolecular_energy": -10.26, "internal_energy": -2.06, "cluster_size": 3, "cluster_id": 2, "rank_in_cluster": 1}

>  <energy>  (38) 
-8.75

>  <cluster_rmsd>  (38) 
1.53

>  <cluster>  (38) 
1

$$$$

     RDKit          3D

 53 56  0  0  0  0  0  0  0  0999 V2000
  140.5880   71.3040  221.3110 O   0  0  0  0  0  0  0  0  0  0  0  0
  140.2240   71.9420  222.3350 C   0  0  0  0  0  0  0  0  0  0  0  0
  139.8750   73.3290  222.2950 N   0  0  0  0  0  0  0  0  0  0  0  0
  139.9110   74.1090  221.0730 C   0  0  0  0  0  0  0  0  0  0  0  0
  140.1160   75.5340  221.4850 C   0  0  0  0  0  0  0  0  0  0  0  0
  139.6570   75.8770  222.6080 O   0  0  0  0  0  0  0  0  0  0  0  0
  140.8090   76.4620  220.6280 N   0  0  0  0  0  0  0  0  0  0  0  0
  142.2080   76.1790  220.3190 C   0  0  0  0  0  0  0  0  0  0  0  0
  142.6040   76.7630  218.9840 C   0  0  0  0  0  0  0  0  0  0  0  0
  142.2220   78.2260  218.9660 C   0  0  0  0  0  0  0  0  0  0  0  0
  140.7250   78.3250  219.0150 C   0  0  0  0  0  0  0  0  0  0  0  0
  140.0830   77.5830  220.1470 C   0  0  2  0  0  0  0  0  0  0  0  0
  139.6370   78.5660  221.1780 C   0  0  0  0  0  0  0  0  0  0  0  0
  140.6640   79.1390  222.0340 C   0  0  0  0  0  0  0  0  0  0  0  0
  141.1670   80.3870  221.7290 C   0  0  0  0  0  0  0  0  0  0  0  0
  142.1440   80.9970  222.4900 C   0  0  0  0  0  0  0  0  0  0  0  0
  142.6680   80.3820  223.6050 C   0  0  0  0  0  0  0  0  0  0  0  0
  142.1790   79.1310  223.9300 C   0  0  0  0  0  0  0  0  0  0  0  0
  141.1960   78.5240  223.1590 C   0  0  0  0  0  0  0  0  0  0  0  0
  140.1530   71.2370  223.6280 C   0  0  0  0  0  0  0  0  0  0  0  0
  139.5910   69.9810  223.6980 C   0  0  0  0  0  0  0  0  0  0  0  0
  139.5220   69.3260  224.8800 N   0  0  0  0  0  0  0  0  0  0  0  0
  140.0010   69.8910  226.0130 C   0  0  0  0  0  0  0  0  0  0  0  0
  139.9110   69.1880  227.2000 C   0  0  0  0  0  0  0  0  0  0  0  0
  140.3850   69.7280  228.3670 C   0  0  0  0  0  0  0  0  0  0  0  0
  140.9520   70.9870  228.3150 C   0  0  0  0  0  0  0  0  0  0  0  0
  141.0380   71.6820  227.1250 C   0  0  0  0  0  0  0  0  0  0  0  0
  140.5620   71.1440  225.9500 C   0  0  0  0  0  0  0  0  0  0  0  0
  140.6240   71.7810  224.7650 N   0  0  0  0  0  0  0  0  0  0  0  0
  139.5810   73.7730  223.2170 H   0  0  0  0  0  0  0  0  0  0  0  0
  140.7411   73.7751  220.4332 H   0  0  0  0  0  0  0  0  0  0  0  0
  138.9809   73.9908  220.4977 H   0  0  0  0  0  0  0  0  0  0  0  0
  142.8436   76.6152  221.1037 H   0  0  0  0  0  0  0  0  0  0  0  0
  142.3396   75.0879  220.2734 H   0  0  0  0  0  0  0  0  0  0  0  0
  143.6902   76.6617  218.8425 H   0  0  0  0  0  0  0  0  0  0  0  0
  142.0881   76.2295  218.1721 H   0  0  0  0  0  0  0  0  0  0  0  0
  142.6568   78.7343  219.8393 H   0  0  0  0  0  0  0  0  0  0  0  0
  142.6029   78.7050  218.0520 H   0  0  0  0  0  0  0  0  0  0  0  0
  140.4551   79.3875  219.1056 H   0  0  0  0  0  0  0  0  0  0  0  0
  140.3535   77.8601  218.0899 H   0  0  0  0  0  0  0  0  0  0  0  0
  139.1863   77.0738  219.7640 H   0  0  0  0  0  0  0  0  0  0  0  0
  139.1422   79.3961  220.6525 H   0  0  0  0  0  0  0  0  0  0  0  0
  138.9878   77.9929  221.8563 H   0  0  0  0  0  0  0  0  0  0  0  0
  140.7752   80.9152  220.8473 H   0  0  0  0  0  0  0  0  0  0  0  0
  142.5107   81.9928  222.2003 H   0  0  0  0  0  0  0  0  0  0  0  0
  143.4454   80.8675  224.2132 H   0  0  0  0  0  0  0  0  0  0  0  0
  142.5744   78.6078  224.8131 H   0  0  0  0  0  0  0  0  0  0  0  0
  140.8288   77.5282  223.4479 H   0  0  0  0  0  0  0  0  0  0  0  0
  139.1958   69.5076  222.7871 H   0  0  0  0  0  0  0  0  0  0  0  0
  139.4551   68.1869  227.2078 H   0  0  0  0  0  0  0  0  0  0  0  0
  140.3162   69.1761  229.3160 H   0  0  0  0  0  0  0  0  0  0  0  0
  141.3414   71.4432  229.2371 H   0  0  0  0  0  0  0  0  0  0  0  0
  141.4946   72.6827  227.1153 H   0  0  0  0  0  0  0  0  0  0  0  0
  1  2  2  0
  2  3  1  0
  3  4  1  0
  4  5  1  0
  5  6  2  0
  5  7  1  0
  7  8  1  0
  8  9  1  0
  9 10  1  0
 10 11  1  0
 11 12  1  0
 12 13  1  0
 13 14  1  0
 14 15  2  0
 15 16  1  0
 16 17  2  0
 17 18  1  0
 18 19  2  0
  2 20  1  0
 20 21  2  0
 21 22  1  0
 22 23  2  0
 23 24  1  0
 24 25  2  0
 25 26  1  0
 26 27  2  0
 27 28  1  0
 28 29  2  0
 12  7  1  0
 19 14  1  0
 29 20  1  0
 28 23  1  0
  3 30  1  0
  4 31  1  0
  4 32  1  0
  8 33  1  0
  8 34  1  0
  9 35  1  0
  9 36  1  0
 10 37  1  0
 10 38  1  0
 11 39  1  0
 11 40  1  0
 12 41  1  6
 13 42  1  0
 13 43  1  0
 15 44  1  0
 16 45  1  0
 17 46  1  0
 18 47  1  0
 19 48  1  0
 21 49  1  0
 24 50  1  0
 25 51  1  0
 26 52  1  0
 27 53  1  0
M  END
>  <smiles>  (39) 
O=C(NCC(=O)N1CCCCC1Cc1ccccc1)c1cnc2ccccc2n1

>  <score_type>  (39) 
oracle

>  <origin>  (39) 
autodockgpu

>  <m_score__min__energy>  (39) 
-9.1999999999999993

>  <m_primary>  (39) 
energy

>  <rmsd>  (39) 
2.3453203243930343

>  <m_score__min__rmsd>  (39) 
2.3453203243930343

>  <meeko>  (39) 
{"free_energy": -8.84, "intermolecular_energy": -10.63, "internal_energy": -2.23, "cluster_size": 46, "cluster_id": 1, "rank_in_cluster": 29}

>  <energy>  (39) 
-8.72

>  <cluster_rmsd>  (39) 
1.63

>  <cluster>  (39) 
1

$$$$

     RDKit          3D

 53 56  0  0  0  0  0  0  0  0999 V2000
  140.8900   71.4600  221.3560 O   0  0  0  0  0  0  0  0  0  0  0  0
  140.3810   72.0840  222.3260 C   0  0  0  0  0  0  0  0  0  0  0  0
  139.9690   73.4510  222.2320 N   0  0  0  0  0  0  0  0  0  0  0  0
  140.1040   74.2260  221.0140 C   0  0  0  0  0  0  0  0  0  0  0  0
  140.3990   75.6320  221.4370 C   0  0  0  0  0  0  0  0  0  0  0  0
  140.1270   75.9410  222.6280 O   0  0  0  0  0  0  0  0  0  0  0  0
  140.9690   76.5800  220.5130 N   0  0  0  0  0  0  0  0  0  0  0  0
  142.3490   76.3640  220.0900 C   0  0  0  0  0  0  0  0  0  0  0  0
  142.6010   76.9450  218.7200 C   0  0  0  0  0  0  0  0  0  0  0  0
  142.1430   78.3870  218.7160 C   0  0  0  0  0  0  0  0  0  0  0  0
  140.6520   78.4090  218.8890 C   0  0  0  0  0  0  0  0  0  0  0  0
  140.1470   77.6540  220.0810 C   0  0  2  0  0  0  0  0  0  0  0  0
  139.7370   78.6290  221.1330 C   0  0  0  0  0  0  0  0  0  0  0  0
  140.7910   79.1810  221.9710 C   0  0  0  0  0  0  0  0  0  0  0  0
  141.4930   80.2800  221.5220 C   0  0  0  0  0  0  0  0  0  0  0  0
  142.5090   80.8600  222.2580 C   0  0  0  0  0  0  0  0  0  0  0  0
  142.8720   80.3620  223.4890 C   0  0  0  0  0  0  0  0  0  0  0  0
  142.1820   79.2610  223.9580 C   0  0  0  0  0  0  0  0  0  0  0  0
  141.1620   78.6830  223.2130 C   0  0  0  0  0  0  0  0  0  0  0  0
  140.2000   71.3820  223.6100 C   0  0  0  0  0  0  0  0  0  0  0  0
  139.5300   70.1780  223.6500 C   0  0  0  0  0  0  0  0  0  0  0  0
  139.3600   69.5280  224.8230 N   0  0  0  0  0  0  0  0  0  0  0  0
  139.8410   70.0450  225.9780 C   0  0  0  0  0  0  0  0  0  0  0  0
  139.6460   69.3470  227.1560 C   0  0  0  0  0  0  0  0  0  0  0  0
  140.1190   69.8400  228.3440 C   0  0  0  0  0  0  0  0  0  0  0  0
  140.7930   71.0460  228.3230 C   0  0  0  0  0  0  0  0  0  0  0  0
  140.9840   71.7360  227.1420 C   0  0  0  0  0  0  0  0  0  0  0  0
  140.5100   71.2450  225.9460 C   0  0  0  0  0  0  0  0  0  0  0  0
  140.6710   71.8790  224.7690 N   0  0  0  0  0  0  0  0  0  0  0  0
  139.5510   73.8840  223.1110 H   0  0  0  0  0  0  0  0  0  0  0  0
  140.9288   73.8320  220.4020 H   0  0  0  0  0  0  0  0  0  0  0  0
  139.1882   74.1765  220.4067 H   0  0  0  0  0  0  0  0  0  0  0  0
  143.0246   76.8449  220.8127 H   0  0  0  0  0  0  0  0  0  0  0  0
  142.5327   75.2803  220.0462 H   0  0  0  0  0  0  0  0  0  0  0  0
  143.6753   76.8967  218.4888 H   0  0  0  0  0  0  0  0  0  0  0  0
  142.0473   76.3726  217.9612 H   0  0  0  0  0  0  0  0  0  0  0  0
  142.6214   78.9314  219.5435 H   0  0  0  0  0  0  0  0  0  0  0  0
  142.4215   78.8702  217.7679 H   0  0  0  0  0  0  0  0  0  0  0  0
  140.3343   79.4575  218.9881 H   0  0  0  0  0  0  0  0  0  0  0  0
  140.2300   77.9097  218.0043 H   0  0  0  0  0  0  0  0  0  0  0  0
  139.2496   77.0928  219.7813 H   0  0  0  0  0  0  0  0  0  0  0  0
  139.2391   79.4705  220.6291 H   0  0  0  0  0  0  0  0  0  0  0  0
  139.0979   78.0550  221.8200 H   0  0  0  0  0  0  0  0  0  0  0  0
  141.2350   80.7103  220.5431 H   0  0  0  0  0  0  0  0  0  0  0  0
  143.0372   81.7356  221.8527 H   0  0  0  0  0  0  0  0  0  0  0  0
  143.6799   80.8228  224.0762 H   0  0  0  0  0  0  0  0  0  0  0  0
  142.4446   78.8350  224.9375 H   0  0  0  0  0  0  0  0  0  0  0  0
  140.6339   77.8071  223.6178 H   0  0  0  0  0  0  0  0  0  0  0  0
  139.1312   69.7434  222.7215 H   0  0  0  0  0  0  0  0  0  0  0  0
  139.1068   68.3883  227.1392 H   0  0  0  0  0  0  0  0  0  0  0  0
  139.9667   69.2922  229.2857 H   0  0  0  0  0  0  0  0  0  0  0  0
  141.1840   71.4635  229.2626 H   0  0  0  0  0  0  0  0  0  0  0  0
  141.5240   72.6942  227.1570 H   0  0  0  0  0  0  0  0  0  0  0  0
  1  2  2  0
  2  3  1  0
  3  4  1  0
  4  5  1  0
  5  6  2  0
  5  7  1  0
  7  8  1  0
  8  9  1  0
  9 10  1  0
 10 11  1  0
 11 12  1  0
 12 13  1  0
 13 14  1  0
 14 15  2  0
 15 16  1  0
 16 17  2  0
 17 18  1  0
 18 19  2  0
  2 20  1  0
 20 21  2  0
 21 22  1  0
 22 23  2  0
 23 24  1  0
 24 25  2  0
 25 26  1  0
 26 27  2  0
 27 28  1  0
 28 29  2  0
 12  7  1  0
 19 14  1  0
 29 20  1  0
 28 23  1  0
  3 30  1  0
  4 31  1  0
  4 32  1  0
  8 33  1  0
  8 34  1  0
  9 35  1  0
  9 36  1  0
 10 37  1  0
 10 38  1  0
 11 39  1  0
 11 40  1  0
 12 41  1  6
 13 42  1  0
 13 43  1  0
 15 44  1  0
 16 45  1  0
 17 46  1  0
 18 47  1  0
 19 48  1  0
 21 49  1  0
 24 50  1  0
 25 51  1  0
 26 52  1  0
 27 53  1  0
M  END
>  <smiles>  (40) 
O=C(NCC(=O)N1CCCCC1Cc1ccccc1)c1cnc2ccccc2n1

>  <score_type>  (40) 
oracle

>  <origin>  (40) 
autodockgpu

>  <m_score__min__energy>  (40) 
-9.1999999999999993

>  <m_primary>  (40) 
energy

>  <rmsd>  (40) 
2.394910499627702

>  <m_score__min__rmsd>  (40) 
2.394910499627702

>  <meeko>  (40) 
{"free_energy": -8.92, "intermolecular_energy": -10.7, "internal_energy": -2.18, "cluster_size": 46, "cluster_id": 1, "rank_in_cluster": 14}

>  <energy>  (40) 
-8.38

>  <cluster_rmsd>  (40) 
1.81

>  <cluster>  (40) 
1

$$$$

     RDKit          3D

 53 56  0  0  0  0  0  0  0  0999 V2000
  140.5220   71.2880  221.2590 O   0  0  0  0  0  0  0  0  0  0  0  0
  140.1820   71.9430  222.2810 C   0  0  0  0  0  0  0  0  0  0  0  0
  139.8490   73.3340  222.2290 N   0  0  0  0  0  0  0  0  0  0  0  0
  139.8760   74.0990  220.9970 C   0  0  0  0  0  0  0  0  0  0  0  0
  140.2870   75.4900  221.3700 C   0  0  0  0  0  0  0  0  0  0  0  0
  139.9850   75.8850  222.5280 O   0  0  0  0  0  0  0  0  0  0  0  0
  140.9970   76.3280  220.4380 N   0  0  0  0  0  0  0  0  0  0  0  0
  142.4010   76.0160  220.1840 C   0  0  0  0  0  0  0  0  0  0  0  0
  142.8220   76.4650  218.8050 C   0  0  0  0  0  0  0  0  0  0  0  0
  142.4420   77.9200  218.6350 C   0  0  0  0  0  0  0  0  0  0  0  0
  140.9440   78.0210  218.6460 C   0  0  0  0  0  0  0  0  0  0  0  0
  140.2810   77.3950  219.8340 C   0  0  2  0  0  0  0  0  0  0  0  0
  139.8170   78.4750  220.7540 C   0  0  0  0  0  0  0  0  0  0  0  0
  140.7820   78.9830  221.7180 C   0  0  0  0  0  0  0  0  0  0  0  0
  141.6520   79.9790  221.3280 C   0  0  0  0  0  0  0  0  0  0  0  0
  142.5970   80.5130  222.1830 C   0  0  0  0  0  0  0  0  0  0  0  0
  142.7150   80.0690  223.4810 C   0  0  0  0  0  0  0  0  0  0  0  0
  141.8530   79.0710  223.8940 C   0  0  0  0  0  0  0  0  0  0  0  0
  140.9060   78.5400  223.0280 C   0  0  0  0  0  0  0  0  0  0  0  0
  140.1230   71.2550  223.5830 C   0  0  0  0  0  0  0  0  0  0  0  0
  139.5760   69.9930  223.6710 C   0  0  0  0  0  0  0  0  0  0  0  0
  139.5180   69.3540  224.8620 N   0  0  0  0  0  0  0  0  0  0  0  0
  139.9940   69.9390  225.9860 C   0  0  0  0  0  0  0  0  0  0  0  0
  139.9160   69.2510  227.1830 C   0  0  0  0  0  0  0  0  0  0  0  0
  140.3860   69.8120  228.3410 C   0  0  0  0  0  0  0  0  0  0  0  0
  140.9390   71.0770  228.2710 C   0  0  0  0  0  0  0  0  0  0  0  0
  141.0130   71.7570  227.0710 C   0  0  0  0  0  0  0  0  0  0  0  0
  140.5400   71.1970  225.9050 C   0  0  0  0  0  0  0  0  0  0  0  0
  140.5910   71.8190  224.7110 N   0  0  0  0  0  0  0  0  0  0  0  0
  139.5750   73.7930  223.1500 H   0  0  0  0  0  0  0  0  0  0  0  0
  140.6022   73.6634  220.2949 H   0  0  0  0  0  0  0  0  0  0  0  0
  138.8931   74.0932  220.5032 H   0  0  0  0  0  0  0  0  0  0  0  0
  143.0230   76.5279  220.9330 H   0  0  0  0  0  0  0  0  0  0  0  0
  142.5317   74.9257  220.2492 H   0  0  0  0  0  0  0  0  0  0  0  0
  143.9104   76.3507  218.6941 H   0  0  0  0  0  0  0  0  0  0  0  0
  142.3202   75.8534  218.0407 H   0  0  0  0  0  0  0  0  0  0  0  0
  142.8607   78.5127  219.4616 H   0  0  0  0  0  0  0  0  0  0  0  0
  142.8408   78.3072  217.6857 H   0  0  0  0  0  0  0  0  0  0  0  0
  140.6727   79.0868  218.6249 H   0  0  0  0  0  0  0  0  0  0  0  0
  140.5897   77.4654  217.7652 H   0  0  0  0  0  0  0  0  0  0  0  0
  139.3913   76.8495  219.4865 H   0  0  0  0  0  0  0  0  0  0  0  0
  139.4911   79.3224  220.1329 H   0  0  0  0  0  0  0  0  0  0  0  0
  139.0246   78.0121  221.3605 H   0  0  0  0  0  0  0  0  0  0  0  0
  141.5916   80.3624  220.2988 H   0  0  0  0  0  0  0  0  0  0  0  0
  143.2667   81.3067  221.8204 H   0  0  0  0  0  0  0  0  0  0  0  0
  143.4668   80.4926  224.1632 H   0  0  0  0  0  0  0  0  0  0  0  0
  141.9179   78.6914  224.9244 H   0  0  0  0  0  0  0  0  0  0  0  0
  140.2357   77.7465  223.3899 H   0  0  0  0  0  0  0  0  0  0  0  0
  139.1843   69.5025  222.7676 H   0  0  0  0  0  0  0  0  0  0  0  0
  139.4727   68.2445  227.2055 H   0  0  0  0  0  0  0  0  0  0  0  0
  140.3252   69.2722  229.2975 H   0  0  0  0  0  0  0  0  0  0  0  0
  141.3263   71.5497  229.1856 H   0  0  0  0  0  0  0  0  0  0  0  0
  141.4573   72.7630  227.0462 H   0  0  0  0  0  0  0  0  0  0  0  0
  1  2  2  0
  2  3  1  0
  3  4  1  0
  4  5  1  0
  5  6  2  0
  5  7  1  0
  7  8  1  0
  8  9  1  0
  9 10  1  0
 10 11  1  0
 11 12  1  0
 12 13  1  0
 13 14  1  0
 14 15  2  0
 15 16  1  0
 16 17  2  0
 17 18  1  0
 18 19  2  0
  2 20  1  0
 20 21  2  0
 21 22  1  0
 22 23  2  0
 23 24  1  0
 24 25  2  0
 25 26  1  0
 26 27  2  0
 27 28  1  0
 28 29  2  0
 12  7  1  0
 19 14  1  0
 29 20  1  0
 28 23  1  0
  3 30  1  0
  4 31  1  0
  4 32  1  0
  8 33  1  0
  8 34  1  0
  9 35  1  0
  9 36  1  0
 10 37  1  0
 10 38  1  0
 11 39  1  0
 11 40  1  0
 12 41  1  6
 13 42  1  0
 13 43  1  0
 15 44  1  0
 16 45  1  0
 17 46  1  0
 18 47  1  0
 19 48  1  0
 21 49  1  0
 24 50  1  0
 25 51  1  0
 26 52  1  0
 27 53  1  0
M  END
>  <smiles>  (41) 
O=C(NCC(=O)N1CCCCC1Cc1ccccc1)c1cnc2ccccc2n1

>  <score_type>  (41) 
oracle

>  <origin>  (41) 
autodockgpu

>  <m_score__min__energy>  (41) 
-9.1999999999999993

>  <m_primary>  (41) 
energy

>  <rmsd>  (41) 
2.272389066330946

>  <m_score__min__rmsd>  (41) 
2.272389066330946

>  <meeko>  (41) 
{"free_energy": -8.89, "intermolecular_energy": -10.68, "internal_energy": -2.19, "cluster_size": 46, "cluster_id": 1, "rank_in_cluster": 21}

>  <energy>  (41) 
-8.34

>  <cluster_rmsd>  (41) 
1.77

>  <cluster>  (41) 
1

$$$$

     RDKit          3D

 53 56  0  0  0  0  0  0  0  0999 V2000
  140.9240   71.4700  221.3580 O   0  0  0  0  0  0  0  0  0  0  0  0
  140.4110   72.0820  222.3330 C   0  0  0  0  0  0  0  0  0  0  0  0
  139.9810   73.4440  222.2490 N   0  0  0  0  0  0  0  0  0  0  0  0
  140.1010   74.2280  221.0340 C   0  0  0  0  0  0  0  0  0  0  0  0
  140.2960   75.6490  221.4630 C   0  0  0  0  0  0  0  0  0  0  0  0
  139.9290   75.9500  222.6310 O   0  0  0  0  0  0  0  0  0  0  0  0
  140.8800   76.6190  220.5720 N   0  0  0  0  0  0  0  0  0  0  0  0
  142.2680   76.4150  220.1690 C   0  0  0  0  0  0  0  0  0  0  0  0
  142.5430   77.0290  218.8170 C   0  0  0  0  0  0  0  0  0  0  0  0
  142.0820   78.4690  218.8390 C   0  0  0  0  0  0  0  0  0  0  0  0
  140.5880   78.4850  218.9870 C   0  0  0  0  0  0  0  0  0  0  0  0
  140.0640   77.7020  220.1510 C   0  0  2  0  0  0  0  0  0  0  0  0
  139.6330   78.6510  221.2180 C   0  0  0  0  0  0  0  0  0  0  0  0
  140.6840   79.3100  221.9810 C   0  0  0  0  0  0  0  0  0  0  0  0
  141.2100   78.6690  223.0830 C   0  0  0  0  0  0  0  0  0  0  0  0
  142.2070   79.2280  223.8580 C   0  0  0  0  0  0  0  0  0  0  0  0
  142.7280   80.4680  223.5640 C   0  0  0  0  0  0  0  0  0  0  0  0
  142.2160   81.1290  222.4640 C   0  0  0  0  0  0  0  0  0  0  0  0
  141.2130   80.5590  221.6890 C   0  0  0  0  0  0  0  0  0  0  0  0
  140.2460   71.3710  223.6140 C   0  0  0  0  0  0  0  0  0  0  0  0
  139.6100   70.1490  223.6480 C   0  0  0  0  0  0  0  0  0  0  0  0
  139.4540   69.4900  224.8180 N   0  0  0  0  0  0  0  0  0  0  0  0
  139.9170   70.0170  225.9760 C   0  0  0  0  0  0  0  0  0  0  0  0
  139.7370   69.3100  227.1520 C   0  0  0  0  0  0  0  0  0  0  0  0
  140.1910   69.8120  228.3430 C   0  0  0  0  0  0  0  0  0  0  0  0
  140.8320   71.0360  228.3280 C   0  0  0  0  0  0  0  0  0  0  0  0
  141.0080   71.7350  227.1500 C   0  0  0  0  0  0  0  0  0  0  0  0
  140.5510   71.2350  225.9500 C   0  0  0  0  0  0  0  0  0  0  0  0
  140.6990   71.8770  224.7760 N   0  0  0  0  0  0  0  0  0  0  0  0
  139.5620   73.8670  223.1310 H   0  0  0  0  0  0  0  0  0  0  0  0
  140.9652   73.8867  220.4452 H   0  0  0  0  0  0  0  0  0  0  0  0
  139.2068   74.1222  220.4022 H   0  0  0  0  0  0  0  0  0  0  0  0
  142.9296   76.8798  220.9148 H   0  0  0  0  0  0  0  0  0  0  0  0
  142.4549   75.3330  220.1033 H   0  0  0  0  0  0  0  0  0  0  0  0
  143.6214   76.9882  218.6038 H   0  0  0  0  0  0  0  0  0  0  0  0
  142.0043   76.4736  218.0352 H   0  0  0  0  0  0  0  0  0  0  0  0
  142.5452   78.9946  219.6871 H   0  0  0  0  0  0  0  0  0  0  0  0
  142.3754   78.9745  217.9071 H   0  0  0  0  0  0  0  0  0  0  0  0
  140.2670   79.5304  219.1054 H   0  0  0  0  0  0  0  0  0  0  0  0
  140.1821   78.0061  218.0837 H   0  0  0  0  0  0  0  0  0  0  0  0
  139.1732   77.1466  219.8223 H   0  0  0  0  0  0  0  0  0  0  0  0
  139.0284   79.4357  220.7397 H   0  0  0  0  0  0  0  0  0  0  0  0
  139.0940   78.0318  221.9502 H   0  0  0  0  0  0  0  0  0  0  0  0
  140.8213   77.6764  223.3545 H   0  0  0  0  0  0  0  0  0  0  0  0
  142.5918   78.6725  224.7259 H   0  0  0  0  0  0  0  0  0  0  0  0
  143.5213   80.9152  224.1810 H   0  0  0  0  0  0  0  0  0  0  0  0
  142.6082   82.1216  222.1976 H   0  0  0  0  0  0  0  0  0  0  0  0
  140.8280   81.1132  220.8203 H   0  0  0  0  0  0  0  0  0  0  0  0
  139.2266   69.7067  222.7167 H   0  0  0  0  0  0  0  0  0  0  0  0
  139.2250   68.3367  227.1302 H   0  0  0  0  0  0  0  0  0  0  0  0
  140.0496   69.2577  229.2825 H   0  0  0  0  0  0  0  0  0  0  0  0
  141.2085   71.4608  229.2702 H   0  0  0  0  0  0  0  0  0  0  0  0
  141.5217   72.7075  227.1700 H   0  0  0  0  0  0  0  0  0  0  0  0
  1  2  2  0
  2  3  1  0
  3  4  1  0
  4  5  1  0
  5  6  2  0
  5  7  1  0
  7  8  1  0
  8  9  1  0
  9 10  1  0
 10 11  1  0
 11 12  1  0
 12 13  1  0
 13 14  1  0
 14 15  2  0
 15 16  1  0
 16 17  2  0
 17 18  1  0
 18 19  2  0
  2 20  1  0
 20 21  2  0
 21 22  1  0
 22 23  2  0
 23 24  1  0
 24 25  2  0
 25 26  1  0
 26 27  2  0
 27 28  1  0
 28 29  2  0
 12  7  1  0
 19 14  1  0
 29 20  1  0
 28 23  1  0
  3 30  1  0
  4 31  1  0
  4 32  1  0
  8 33  1  0
  8 34  1  0
  9 35  1  0
  9 36  1  0
 10 37  1  0
 10 38  1  0
 11 39  1  0
 11 40  1  0
 12 41  1  6
 13 42  1  0
 13 43  1  0
 15 44  1  0
 16 45  1  0
 17 46  1  0
 18 47  1  0
 19 48  1  0
 21 49  1  0
 24 50  1  0
 25 51  1  0
 26 52  1  0
 27 53  1  0
M  END
>  <smiles>  (42) 
O=C(NCC(=O)N1CCCCC1Cc1ccccc1)c1cnc2ccccc2n1

>  <score_type>  (42) 
oracle

>  <origin>  (42) 
autodockgpu

>  <m_score__min__energy>  (42) 
-9.1999999999999993

>  <m_primary>  (42) 
energy

>  <rmsd>  (42) 
2.419754615082865

>  <m_score__min__rmsd>  (42) 
2.419754615082865

>  <meeko>  (42) 
{"free_energy": -8.9, "intermolecular_energy": -10.69, "internal_energy": -2.2, "cluster_size": 46, "cluster_id": 1, "rank_in_cluster": 16}

>  <energy>  (42) 
-8.33

>  <cluster_rmsd>  (42) 
1.87

>  <cluster>  (42) 
1

$$$$

     RDKit          3D

 53 56  0  0  0  0  0  0  0  0999 V2000
  141.1750   71.6160  221.4310 O   0  0  0  0  0  0  0  0  0  0  0  0
  140.5470   72.1600  222.3780 C   0  0  0  0  0  0  0  0  0  0  0  0
  140.0580   73.5030  222.3070 N   0  0  0  0  0  0  0  0  0  0  0  0
  140.2460   74.3430  221.1400 C   0  0  0  0  0  0  0  0  0  0  0  0
  140.1300   75.7590  221.6120 C   0  0  0  0  0  0  0  0  0  0  0  0
  139.5620   75.9480  222.7210 O   0  0  0  0  0  0  0  0  0  0  0  0
  140.6510   76.8480  220.8260 N   0  0  0  0  0  0  0  0  0  0  0  0
  142.0110   76.7180  220.3100 C   0  0  0  0  0  0  0  0  0  0  0  0
  142.1940   77.5120  219.0390 C   0  0  0  0  0  0  0  0  0  0  0  0
  141.7300   78.9310  219.2870 C   0  0  0  0  0  0  0  0  0  0  0  0
  140.2490   78.9070  219.5310 C   0  0  0  0  0  0  0  0  0  0  0  0
  139.8050   77.9670  220.6090 C   0  0  2  0  0  0  0  0  0  0  0  0
  139.4420   78.7580  221.8210 C   0  0  0  0  0  0  0  0  0  0  0  0
  140.5170   79.4750  222.4910 C   0  0  0  0  0  0  0  0  0  0  0  0
  140.5490   80.8510  222.4170 C   0  0  0  0  0  0  0  0  0  0  0  0
  141.5370   81.6020  223.0230 C   0  0  0  0  0  0  0  0  0  0  0  0
  142.5490   81.0040  223.7400 C   0  0  0  0  0  0  0  0  0  0  0  0
  142.5380   79.6250  223.8270 C   0  0  0  0  0  0  0  0  0  0  0  0
  141.5400   78.8770  223.2140 C   0  0  0  0  0  0  0  0  0  0  0  0
  140.3040   71.3880  223.6100 C   0  0  0  0  0  0  0  0  0  0  0  0
  139.6490   70.1770  223.5470 C   0  0  0  0  0  0  0  0  0  0  0  0
  139.4220   69.4620  224.6720 N   0  0  0  0  0  0  0  0  0  0  0  0
  139.8310   69.9210  225.8780 C   0  0  0  0  0  0  0  0  0  0  0  0
  139.5790   69.1580  227.0050 C   0  0  0  0  0  0  0  0  0  0  0  0
  139.9780   69.5900  228.2420 C   0  0  0  0  0  0  0  0  0  0  0  0
  140.6360   70.8020  228.3240 C   0  0  0  0  0  0  0  0  0  0  0  0
  140.8840   71.5570  227.1940 C   0  0  0  0  0  0  0  0  0  0  0  0
  140.4840   71.1270  225.9480 C   0  0  0  0  0  0  0  0  0  0  0  0
  140.7030   71.8260  224.8190 N   0  0  0  0  0  0  0  0  0  0  0  0
  139.5410   73.8680  223.1630 H   0  0  0  0  0  0  0  0  0  0  0  0
  141.2400   74.1686  220.7024 H   0  0  0  0  0  0  0  0  0  0  0  0
  139.4983   74.1197  220.3647 H   0  0  0  0  0  0  0  0  0  0  0  0
  142.7184   77.0864  221.0676 H   0  0  0  0  0  0  0  0  0  0  0  0
  142.1975   75.6572  220.0864 H   0  0  0  0  0  0  0  0  0  0  0  0
  143.2560   77.5138  218.7525 H   0  0  0  0  0  0  0  0  0  0  0  0
  141.6071   77.0608  218.2254 H   0  0  0  0  0  0  0  0  0  0  0  0
  142.2454   79.3423  220.1675 H   0  0  0  0  0  0  0  0  0  0  0  0
  141.9604   79.5626  218.4164 H   0  0  0  0  0  0  0  0  0  0  0  0
  139.9318   79.9225  219.8105 H   0  0  0  0  0  0  0  0  0  0  0  0
  139.7875   78.5491  218.5988 H   0  0  0  0  0  0  0  0  0  0  0  0
  138.8967   77.4501  220.2657 H   0  0  0  0  0  0  0  0  0  0  0  0
  138.6871   79.4990  221.5193 H   0  0  0  0  0  0  0  0  0  0  0  0
  139.0963   78.0138  222.5536 H   0  0  0  0  0  0  0  0  0  0  0  0
  139.7587   81.3699  221.8547 H   0  0  0  0  0  0  0  0  0  0  0  0
  141.5150   82.6979  222.9312 H   0  0  0  0  0  0  0  0  0  0  0  0
  143.3357   81.6008  224.2247 H   0  0  0  0  0  0  0  0  0  0  0  0
  143.3313   79.1115  224.3900 H   0  0  0  0  0  0  0  0  0  0  0  0
  141.5613   77.7809  223.3042 H   0  0  0  0  0  0  0  0  0  0  0  0
  139.3087   69.7897  222.5753 H   0  0  0  0  0  0  0  0  0  0  0  0
  139.0538   68.1965  226.9064 H   0  0  0  0  0  0  0  0  0  0  0  0
  139.7805   68.9902  229.1427 H   0  0  0  0  0  0  0  0  0  0  0  0
  140.9679   71.1720  229.3053 H   0  0  0  0  0  0  0  0  0  0  0  0
  141.4100   72.5182  227.2909 H   0  0  0  0  0  0  0  0  0  0  0  0
  1  2  2  0
  2  3  1  0
  3  4  1  0
  4  5  1  0
  5  6  2  0
  5  7  1  0
  7  8  1  0
  8  9  1  0
  9 10  1  0
 10 11  1  0
 11 12  1  0
 12 13  1  0
 13 14  1  0
 14 15  2  0
 15 16  1  0
 16 17  2  0
 17 18  1  0
 18 19  2  0
  2 20  1  0
 20 21  2  0
 21 22  1  0
 22 23  2  0
 23 24  1  0
 24 25  2  0
 25 26  1  0
 26 27  2  0
 27 28  1  0
 28 29  2  0
 12  7  1  0
 19 14  1  0
 29 20  1  0
 28 23  1  0
  3 30  1  0
  4 31  1  0
  4 32  1  0
  8 33  1  0
  8 34  1  0
  9 35  1  0
  9 36  1  0
 10 37  1  0
 10 38  1  0
 11 39  1  0
 11 40  1  0
 12 41  1  6
 13 42  1  0
 13 43  1  0
 15 44  1  0
 16 45  1  0
 17 46  1  0
 18 47  1  0
 19 48  1  0
 21 49  1  0
 24 50  1  0
 25 51  1  0
 26 52  1  0
 27 53  1  0
M  END
>  <smiles>  (43) 
O=C(NCC(=O)N1CCCCC1Cc1ccccc1)c1cnc2ccccc2n1

>  <score_type>  (43) 
oracle

>  <origin>  (43) 
autodockgpu

>  <m_score__min__energy>  (43) 
-9.1999999999999993

>  <m_primary>  (43) 
energy

>  <rmsd>  (43) 
2.5772581438810054

>  <m_score__min__rmsd>  (43) 
2.5772581438810054

>  <meeko>  (43) 
{"free_energy": -8.85, "intermolecular_energy": -10.64, "internal_energy": -2.14, "cluster_size": 46, "cluster_id": 1, "rank_in_cluster": 26}

>  <energy>  (43) 
-8.31

>  <cluster_rmsd>  (43) 
1.66

>  <cluster>  (43) 
1

$$$$

     RDKit          3D

 53 56  0  0  0  0  0  0  0  0999 V2000
  140.7810   71.3800  221.3210 O   0  0  0  0  0  0  0  0  0  0  0  0
  140.3280   72.0150  222.3110 C   0  0  0  0  0  0  0  0  0  0  0  0
  139.9270   73.3860  222.2280 N   0  0  0  0  0  0  0  0  0  0  0  0
  140.0100   74.1530  221.0000 C   0  0  0  0  0  0  0  0  0  0  0  0
  140.2710   75.5710  221.4020 C   0  0  0  0  0  0  0  0  0  0  0  0
  139.8940   75.9190  222.5530 O   0  0  0  0  0  0  0  0  0  0  0  0
  140.9240   76.4880  220.5030 N   0  0  0  0  0  0  0  0  0  0  0  0
  142.3140   76.2140  220.1530 C   0  0  0  0  0  0  0  0  0  0  0  0
  142.6590   76.7740  218.7930 C   0  0  0  0  0  0  0  0  0  0  0  0
  142.2600   78.2330  218.7590 C   0  0  0  0  0  0  0  0  0  0  0  0
  140.7640   78.3160  218.8550 C   0  0  0  0  0  0  0  0  0  0  0  0
  140.1690   77.5910  220.0240 C   0  0  2  0  0  0  0  0  0  0  0  0
  139.7460   78.5900  221.0480 C   0  0  0  0  0  0  0  0  0  0  0  0
  140.7840   79.1300  221.9140 C   0  0  0  0  0  0  0  0  0  0  0  0
  141.4330   80.2870  221.5360 C   0  0  0  0  0  0  0  0  0  0  0  0
  142.4290   80.8600  222.3010 C   0  0  0  0  0  0  0  0  0  0  0  0
  142.8260   80.2970  223.4940 C   0  0  0  0  0  0  0  0  0  0  0  0
  142.1890   79.1380  223.8930 C   0  0  0  0  0  0  0  0  0  0  0  0
  141.1880   78.5670  223.1170 C   0  0  0  0  0  0  0  0  0  0  0  0
  140.2030   71.3230  223.6060 C   0  0  0  0  0  0  0  0  0  0  0  0
  139.5900   70.0910  223.6740 C   0  0  0  0  0  0  0  0  0  0  0  0
  139.4720   69.4490  224.8580 N   0  0  0  0  0  0  0  0  0  0  0  0
  139.9500   70.0030  225.9970 C   0  0  0  0  0  0  0  0  0  0  0  0
  139.8090   69.3130  227.1870 C   0  0  0  0  0  0  0  0  0  0  0  0
  140.2800   69.8420  228.3600 C   0  0  0  0  0  0  0  0  0  0  0  0
  140.8980   71.0770  228.3110 C   0  0  0  0  0  0  0  0  0  0  0  0
  141.0360   71.7600  227.1180 C   0  0  0  0  0  0  0  0  0  0  0  0
  140.5620   71.2310  225.9370 C   0  0  0  0  0  0  0  0  0  0  0  0
  140.6730   71.8560  224.7490 N   0  0  0  0  0  0  0  0  0  0  0  0
  139.5570   73.8290  223.1230 H   0  0  0  0  0  0  0  0  0  0  0  0
  140.8322   73.7783  220.3726 H   0  0  0  0  0  0  0  0  0  0  0  0
  139.0821   74.0695  220.4151 H   0  0  0  0  0  0  0  0  0  0  0  0
  142.9704   76.6736  220.9066 H   0  0  0  0  0  0  0  0  0  0  0  0
  142.4563   75.1236  220.1254 H   0  0  0  0  0  0  0  0  0  0  0  0
  143.7408   76.6810  218.6170 H   0  0  0  0  0  0  0  0  0  0  0  0
  142.1227   76.2184  218.0096 H   0  0  0  0  0  0  0  0  0  0  0  0
  142.7170   78.7633  219.6075 H   0  0  0  0  0  0  0  0  0  0  0  0
  142.6058   78.6983  217.8242 H   0  0  0  0  0  0  0  0  0  0  0  0
  140.4842   79.3770  218.9317 H   0  0  0  0  0  0  0  0  0  0  0  0
  140.3678   77.8273  217.9527 H   0  0  0  0  0  0  0  0  0  0  0  0
  139.2659   77.0639  219.6828 H   0  0  0  0  0  0  0  0  0  0  0  0
  139.2849   79.4353  220.5161 H   0  0  0  0  0  0  0  0  0  0  0  0
  139.0707   78.0407  221.7205 H   0  0  0  0  0  0  0  0  0  0  0  0
  141.1464   80.7707  220.5905 H   0  0  0  0  0  0  0  0  0  0  0  0
  142.9146   81.7831  221.9516 H   0  0  0  0  0  0  0  0  0  0  0  0
  143.6192   80.7525  224.1050 H   0  0  0  0  0  0  0  0  0  0  0  0
  142.4789   78.6596  224.8402 H   0  0  0  0  0  0  0  0  0  0  0  0
  140.7023   77.6436  223.4653 H   0  0  0  0  0  0  0  0  0  0  0  0
  139.1939   69.6266  222.7589 H   0  0  0  0  0  0  0  0  0  0  0  0
  139.3143   68.3306  227.1920 H   0  0  0  0  0  0  0  0  0  0  0  0
  140.1696   69.3004  229.3111 H   0  0  0  0  0  0  0  0  0  0  0  0
  141.2868   71.5240  229.2378 H   0  0  0  0  0  0  0  0  0  0  0  0
  141.5321   72.7417  227.1107 H   0  0  0  0  0  0  0  0  0  0  0  0
  1  2  2  0
  2  3  1  0
  3  4  1  0
  4  5  1  0
  5  6  2  0
  5  7  1  0
  7  8  1  0
  8  9  1  0
  9 10  1  0
 10 11  1  0
 11 12  1  0
 12 13  1  0
 13 14  1  0
 14 15  2  0
 15 16  1  0
 16 17  2  0
 17 18  1  0
 18 19  2  0
  2 20  1  0
 20 21  2  0
 21 22  1  0
 22 23  2  0
 23 24  1  0
 24 25  2  0
 25 26  1  0
 26 27  2  0
 27 28  1  0
 28 29  2  0
 12  7  1  0
 19 14  1  0
 29 20  1  0
 28 23  1  0
  3 30  1  0
  4 31  1  0
  4 32  1  0
  8 33  1  0
  8 34  1  0
  9 35  1  0
  9 36  1  0
 10 37  1  0
 10 38  1  0
 11 39  1  0
 11 40  1  0
 12 41  1  6
 13 42  1  0
 13 43  1  0
 15 44  1  0
 16 45  1  0
 17 46  1  0
 18 47  1  0
 19 48  1  0
 21 49  1  0
 24 50  1  0
 25 51  1  0
 26 52  1  0
 27 53  1  0
M  END
>  <smiles>  (44) 
O=C(NCC(=O)N1CCCCC1Cc1ccccc1)c1cnc2ccccc2n1

>  <score_type>  (44) 
oracle

>  <origin>  (44) 
autodockgpu

>  <m_score__min__energy>  (44) 
-9.1999999999999993

>  <m_primary>  (44) 
energy

>  <rmsd>  (44) 
2.350777052783286

>  <m_score__min__rmsd>  (44) 
2.350777052783286

>  <meeko>  (44) 
{"free_energy": -8.91, "intermolecular_energy": -10.7, "internal_energy": -2.2, "cluster_size": 46, "cluster_id": 1, "rank_in_cluster": 15}

>  <energy>  (44) 
-8.2

>  <cluster_rmsd>  (44) 
1.74

>  <cluster>  (44) 
1

$$$$

     RDKit          3D

 53 56  0  0  0  0  0  0  0  0999 V2000
  140.3470   71.2900  221.2720 O   0  0  0  0  0  0  0  0  0  0  0  0
  140.0740   71.9170  222.3310 C   0  0  0  0  0  0  0  0  0  0  0  0
  139.8010   73.3210  222.3460 N   0  0  0  0  0  0  0  0  0  0  0  0
  139.8150   74.1330  221.1450 C   0  0  0  0  0  0  0  0  0  0  0  0
  139.9360   75.5560  221.5960 C   0  0  0  0  0  0  0  0  0  0  0  0
  139.4150   75.8520  222.7040 O   0  0  0  0  0  0  0  0  0  0  0  0
  140.6220   76.5330  220.7900 N   0  0  0  0  0  0  0  0  0  0  0  0
  142.0070   76.2530  220.4220 C   0  0  0  0  0  0  0  0  0  0  0  0
  142.3770   76.9270  219.1220 C   0  0  0  0  0  0  0  0  0  0  0  0
  142.0190   78.3940  219.2220 C   0  0  0  0  0  0  0  0  0  0  0  0
  140.5260   78.5100  219.3180 C   0  0  0  0  0  0  0  0  0  0  0  0
  139.9020   77.6970  220.4110 C   0  0  2  0  0  0  0  0  0  0  0  0
  139.4990   78.6080  221.5220 C   0  0  0  0  0  0  0  0  0  0  0  0
  140.5650   79.3150  222.2180 C   0  0  0  0  0  0  0  0  0  0  0  0
  140.6580   80.6840  222.0810 C   0  0  0  0  0  0  0  0  0  0  0  0
  141.6410   81.4250  222.7070 C   0  0  0  0  0  0  0  0  0  0  0  0
  142.5860   80.8240  223.5080 C   0  0  0  0  0  0  0  0  0  0  0  0
  142.5120   79.4530  223.6590 C   0  0  0  0  0  0  0  0  0  0  0  0
  141.5200   78.7140  223.0260 C   0  0  0  0  0  0  0  0  0  0  0  0
  140.0340   71.1790  223.6070 C   0  0  0  0  0  0  0  0  0  0  0  0
  139.5550   69.8880  223.6420 C   0  0  0  0  0  0  0  0  0  0  0  0
  139.5150   69.2040  224.8080 N   0  0  0  0  0  0  0  0  0  0  0  0
  139.9420   69.7730  225.9590 C   0  0  0  0  0  0  0  0  0  0  0  0
  139.8840   69.0380  227.1300 C   0  0  0  0  0  0  0  0  0  0  0  0
  140.3080   69.5810  228.3150 C   0  0  0  0  0  0  0  0  0  0  0  0
  140.7920   70.8760  228.2980 C   0  0  0  0  0  0  0  0  0  0  0  0
  140.8470   71.6020  227.1240 C   0  0  0  0  0  0  0  0  0  0  0  0
  140.4210   71.0600  225.9320 C   0  0  0  0  0  0  0  0  0  0  0  0
  140.4550   71.7260  224.7620 N   0  0  0  0  0  0  0  0  0  0  0  0
  139.5820   73.7540  223.2940 H   0  0  0  0  0  0  0  0  0  0  0  0
  140.6724   73.8607  220.5120 H   0  0  0  0  0  0  0  0  0  0  0  0
  138.9022   73.9801  220.5505 H   0  0  0  0  0  0  0  0  0  0  0  0
  142.6707   76.6215  221.2181 H   0  0  0  0  0  0  0  0  0  0  0  0
  142.1189   75.1663  220.2935 H   0  0  0  0  0  0  0  0  0  0  0  0
  143.4571   76.8201  218.9430 H   0  0  0  0  0  0  0  0  0  0  0  0
  141.8309   76.4621  218.2880 H   0  0  0  0  0  0  0  0  0  0  0  0
  142.4842   78.8300  220.1184 H   0  0  0  0  0  0  0  0  0  0  0  0
  142.3846   78.9342  218.3363 H   0  0  0  0  0  0  0  0  0  0  0  0
  140.2753   79.5669  219.4918 H   0  0  0  0  0  0  0  0  0  0  0  0
  140.1234   78.1185  218.3722 H   0  0  0  0  0  0  0  0  0  0  0  0
  138.9875   77.2302  220.0164 H   0  0  0  0  0  0  0  0  0  0  0  0
  138.8194   79.3637  221.1013 H   0  0  0  0  0  0  0  0  0  0  0  0
  139.0496   77.9508  222.2810 H   0  0  0  0  0  0  0  0  0  0  0  0
  139.9225   81.2047  221.4502 H   0  0  0  0  0  0  0  0  0  0  0  0
  141.6695   82.5152  222.5631 H   0  0  0  0  0  0  0  0  0  0  0  0
  143.3692   81.4126  224.0081 H   0  0  0  0  0  0  0  0  0  0  0  0
  143.2505   78.9377  224.2907 H   0  0  0  0  0  0  0  0  0  0  0  0
  141.4909   77.6237  223.1691 H   0  0  0  0  0  0  0  0  0  0  0  0
  139.2028   69.4104  222.7158 H   0  0  0  0  0  0  0  0  0  0  0  0
  139.4944   68.0095  227.1097 H   0  0  0  0  0  0  0  0  0  0  0  0
  140.2645   69.0042  229.2507 H   0  0  0  0  0  0  0  0  0  0  0  0
  141.1391   71.3359  229.2350 H   0  0  0  0  0  0  0  0  0  0  0  0
  141.2376   72.6302  227.1417 H   0  0  0  0  0  0  0  0  0  0  0  0
  1  2  2  0
  2  3  1  0
  3  4  1  0
  4  5  1  0
  5  6  2  0
  5  7  1  0
  7  8  1  0
  8  9  1  0
  9 10  1  0
 10 11  1  0
 11 12  1  0
 12 13  1  0
 13 14  1  0
 14 15  2  0
 15 16  1  0
 16 17  2  0
 17 18  1  0
 18 19  2  0
  2 20  1  0
 20 21  2  0
 21 22  1  0
 22 23  2  0
 23 24  1  0
 24 25  2  0
 25 26  1  0
 26 27  2  0
 27 28  1  0
 28 29  2  0
 12  7  1  0
 19 14  1  0
 29 20  1  0
 28 23  1  0
  3 30  1  0
  4 31  1  0
  4 32  1  0
  8 33  1  0
  8 34  1  0
  9 35  1  0
  9 36  1  0
 10 37  1  0
 10 38  1  0
 11 39  1  0
 11 40  1  0
 12 41  1  6
 13 42  1  0
 13 43  1  0
 15 44  1  0
 16 45  1  0
 17 46  1  0
 18 47  1  0
 19 48  1  0
 21 49  1  0
 24 50  1  0
 25 51  1  0
 26 52  1  0
 27 53  1  0
M  END
>  <smiles>  (45) 
O=C(NCC(=O)N1CCCCC1Cc1ccccc1)c1cnc2ccccc2n1

>  <score_type>  (45) 
oracle

>  <origin>  (45) 
autodockgpu

>  <m_score__min__energy>  (45) 
-9.1999999999999993

>  <m_primary>  (45) 
energy

>  <rmsd>  (45) 
2.3644784845659195

>  <m_score__min__rmsd>  (45) 
2.3644784845659195

>  <meeko>  (45) 
{"free_energy": -8.72, "intermolecular_energy": -10.51, "internal_energy": -2.23, "cluster_size": 46, "cluster_id": 1, "rank_in_cluster": 39}

>  <energy>  (45) 
-8.12

>  <cluster_rmsd>  (45) 
1.71

>  <cluster>  (45) 
1

$$$$

     RDKit          3D

 53 56  0  0  0  0  0  0  0  0999 V2000
  140.7350   71.4060  221.2810 O   0  0  0  0  0  0  0  0  0  0  0  0
  140.3100   72.0410  222.2830 C   0  0  0  0  0  0  0  0  0  0  0  0
  139.9300   73.4190  222.2180 N   0  0  0  0  0  0  0  0  0  0  0  0
  140.0050   74.1940  220.9940 C   0  0  0  0  0  0  0  0  0  0  0  0
  140.3930   75.5830  221.3940 C   0  0  0  0  0  0  0  0  0  0  0  0
  140.1590   75.9230  222.5850 O   0  0  0  0  0  0  0  0  0  0  0  0
  141.0080   76.4820  220.4510 N   0  0  0  0  0  0  0  0  0  0  0  0
  142.4030   76.2380  220.0970 C   0  0  0  0  0  0  0  0  0  0  0  0
  142.7160   76.7510  218.7120 C   0  0  0  0  0  0  0  0  0  0  0  0
  142.2680   78.1940  218.6200 C   0  0  0  0  0  0  0  0  0  0  0  0
  140.7720   78.2320  218.7300 C   0  0  0  0  0  0  0  0  0  0  0  0
  140.2130   77.5390  219.9340 C   0  0  2  0  0  0  0  0  0  0  0  0
  139.7670   78.5660  220.9200 C   0  0  0  0  0  0  0  0  0  0  0  0
  140.7850   79.1300  221.7950 C   0  0  0  0  0  0  0  0  0  0  0  0
  140.8770   78.6720  223.0930 C   0  0  0  0  0  0  0  0  0  0  0  0
  141.8140   79.1570  223.9840 C   0  0  0  0  0  0  0  0  0  0  0  0
  142.7120   80.1330  223.6130 C   0  0  0  0  0  0  0  0  0  0  0  0
  142.6380   80.6070  222.3170 C   0  0  0  0  0  0  0  0  0  0  0  0
  141.6920   80.1130  221.4270 C   0  0  0  0  0  0  0  0  0  0  0  0
  140.1960   71.3410  223.5750 C   0  0  0  0  0  0  0  0  0  0  0  0
  139.5910   70.1040  223.6390 C   0  0  0  0  0  0  0  0  0  0  0  0
  139.4830   69.4550  224.8210 N   0  0  0  0  0  0  0  0  0  0  0  0
  139.9640   70.0060  225.9600 C   0  0  0  0  0  0  0  0  0  0  0  0
  139.8330   69.3090  227.1470 C   0  0  0  0  0  0  0  0  0  0  0  0
  140.3070   69.8350  228.3200 C   0  0  0  0  0  0  0  0  0  0  0  0
  140.9170   71.0740  228.2750 C   0  0  0  0  0  0  0  0  0  0  0  0
  141.0440   71.7630  227.0850 C   0  0  0  0  0  0  0  0  0  0  0  0
  140.5670   71.2390  225.9040 C   0  0  0  0  0  0  0  0  0  0  0  0
  140.6680   71.8710  224.7190 N   0  0  0  0  0  0  0  0  0  0  0  0
  139.5840   73.8610  223.1230 H   0  0  0  0  0  0  0  0  0  0  0  0
  140.7621   73.7672  220.3197 H   0  0  0  0  0  0  0  0  0  0  0  0
  139.0436   74.1877  220.4595 H   0  0  0  0  0  0  0  0  0  0  0  0
  143.0516   76.7494  220.8235 H   0  0  0  0  0  0  0  0  0  0  0  0
  142.5802   75.1525  220.1131 H   0  0  0  0  0  0  0  0  0  0  0  0
  143.7987   76.6865  218.5286 H   0  0  0  0  0  0  0  0  0  0  0  0
  142.1909   76.1452  217.9588 H   0  0  0  0  0  0  0  0  0  0  0  0
  142.7159   78.7753  219.4395 H   0  0  0  0  0  0  0  0  0  0  0  0
  142.5883   78.6294  217.6620 H   0  0  0  0  0  0  0  0  0  0  0  0
  140.4581   79.2857  218.7652 H   0  0  0  0  0  0  0  0  0  0  0  0
  140.3833   77.6923  217.8538 H   0  0  0  0  0  0  0  0  0  0  0  0
  139.3245   76.9691  219.6245 H   0  0  0  0  0  0  0  0  0  0  0  0
  139.3190   79.3962  220.3543 H   0  0  0  0  0  0  0  0  0  0  0  0
  139.0760   78.0354  221.5915 H   0  0  0  0  0  0  0  0  0  0  0  0
  140.1786   77.8921  223.4306 H   0  0  0  0  0  0  0  0  0  0  0  0
  141.8436   78.7567  225.0081 H   0  0  0  0  0  0  0  0  0  0  0  0
  143.4594   80.5204  224.3210 H   0  0  0  0  0  0  0  0  0  0  0  0
  143.3386   81.3873  221.9848 H   0  0  0  0  0  0  0  0  0  0  0  0
  141.6615   80.5124  220.4025 H   0  0  0  0  0  0  0  0  0  0  0  0
  139.1936   69.6418  222.7233 H   0  0  0  0  0  0  0  0  0  0  0  0
  139.3440   68.3237  227.1496 H   0  0  0  0  0  0  0  0  0  0  0  0
  140.2051   69.2876  229.2687 H   0  0  0  0  0  0  0  0  0  0  0  0
  141.3078   71.5187  229.2021 H   0  0  0  0  0  0  0  0  0  0  0  0
  141.5347   72.7475  227.0803 H   0  0  0  0  0  0  0  0  0  0  0  0
  1  2  2  0
  2  3  1  0
  3  4  1  0
  4  5  1  0
  5  6  2  0
  5  7  1  0
  7  8  1  0
  8  9  1  0
  9 10  1  0
 10 11  1  0
 11 12  1  0
 12 13  1  0
 13 14  1  0
 14 15  2  0
 15 16  1  0
 16 17  2  0
 17 18  1  0
 18 19  2  0
  2 20  1  0
 20 21  2  0
 21 22  1  0
 22 23  2  0
 23 24  1  0
 24 25  2  0
 25 26  1  0
 26 27  2  0
 27 28  1  0
 28 29  2  0
 12  7  1  0
 19 14  1  0
 29 20  1  0
 28 23  1  0
  3 30  1  0
  4 31  1  0
  4 32  1  0
  8 33  1  0
  8 34  1  0
  9 35  1  0
  9 36  1  0
 10 37  1  0
 10 38  1  0
 11 39  1  0
 11 40  1  0
 12 41  1  6
 13 42  1  0
 13 43  1  0
 15 44  1  0
 16 45  1  0
 17 46  1  0
 18 47  1  0
 19 48  1  0
 21 49  1  0
 24 50  1  0
 25 51  1  0
 26 52  1  0
 27 53  1  0
M  END
>  <smiles>  (46) 
O=C(NCC(=O)N1CCCCC1Cc1ccccc1)c1cnc2ccccc2n1

>  <score_type>  (46) 
oracle

>  <origin>  (46) 
autodockgpu

>  <m_score__min__energy>  (46) 
-9.1999999999999993

>  <m_primary>  (46) 
energy

>  <rmsd>  (46) 
2.3378684455366194

>  <m_score__min__rmsd>  (46) 
2.3378684455366194

>  <meeko>  (46) 
{"free_energy": -8.94, "intermolecular_energy": -10.73, "internal_energy": -2.18, "cluster_size": 46, "cluster_id": 1, "rank_in_cluster": 8}

>  <energy>  (46) 
-8.0

>  <cluster_rmsd>  (46) 
1.27

>  <cluster>  (46) 
1

$$$$

     RDKit          3D

 53 56  0  0  0  0  0  0  0  0999 V2000
  141.5480   72.2830  221.6400 O   0  0  0  0  0  0  0  0  0  0  0  0
  140.6250   72.5860  222.4440 C   0  0  0  0  0  0  0  0  0  0  0  0
  139.8750   73.7990  222.3330 N   0  0  0  0  0  0  0  0  0  0  0  0
  140.1160   74.7750  221.2880 C   0  0  0  0  0  0  0  0  0  0  0  0
  139.0540   75.8210  221.4300 C   0  0  0  0  0  0  0  0  0  0  0  0
  137.9770   75.4710  221.9840 O   0  0  0  0  0  0  0  0  0  0  0  0
  139.2660   77.1630  220.9530 N   0  0  0  0  0  0  0  0  0  0  0  0
  140.0160   77.3270  219.7110 C   0  0  0  0  0  0  0  0  0  0  0  0
  139.6190   78.5940  218.9920 C   0  0  0  0  0  0  0  0  0  0  0  0
  139.7180   79.7490  219.9640 C   0  0  0  0  0  0  0  0  0  0  0  0
  138.6830   79.5580  221.0330 C   0  0  0  0  0  0  0  0  0  0  0  0
  138.7310   78.2290  221.7230 C   0  0  2  0  0  0  0  0  0  0  0  0
  139.3150   78.4110  223.0840 C   0  0  0  0  0  0  0  0  0  0  0  0
  140.5640   79.1540  223.1740 C   0  0  0  0  0  0  0  0  0  0  0  0
  140.5490   80.4190  223.7250 C   0  0  0  0  0  0  0  0  0  0  0  0
  141.6900   81.1870  223.8440 C   0  0  0  0  0  0  0  0  0  0  0  0
  142.9120   80.7210  223.4130 C   0  0  0  0  0  0  0  0  0  0  0  0
  142.9510   79.4570  222.8570 C   0  0  0  0  0  0  0  0  0  0  0  0
  141.7980   78.6900  222.7410 C   0  0  0  0  0  0  0  0  0  0  0  0
  140.3020   71.6570  223.5420 C   0  0  0  0  0  0  0  0  0  0  0  0
  139.5560   70.5250  223.2920 C   0  0  0  0  0  0  0  0  0  0  0  0
  139.2560   69.6680  224.2940 N   0  0  0  0  0  0  0  0  0  0  0  0
  139.6790   69.9050  225.5580 C   0  0  0  0  0  0  0  0  0  0  0  0
  139.3490   69.0020  226.5530 C   0  0  0  0  0  0  0  0  0  0  0  0
  139.7600   69.2090  227.8440 C   0  0  0  0  0  0  0  0  0  0  0  0
  140.5090   70.3380  228.1130 C   0  0  0  0  0  0  0  0  0  0  0  0
  140.8340   71.2340  227.1130 C   0  0  0  0  0  0  0  0  0  0  0  0
  140.4220   71.0310  225.8140 C   0  0  0  0  0  0  0  0  0  0  0  0
  140.7140   71.8730  224.8050 N   0  0  0  0  0  0  0  0  0  0  0  0
  139.1170   73.9580  223.0640 H   0  0  0  0  0  0  0  0  0  0  0  0
  141.1119   75.2255  221.4111 H   0  0  0  0  0  0  0  0  0  0  0  0
  140.0838   74.3081  220.2925 H   0  0  0  0  0  0  0  0  0  0  0  0
  141.0902   77.3692  219.9443 H   0  0  0  0  0  0  0  0  0  0  0  0
  139.7927   76.4721  219.0558 H   0  0  0  0  0  0  0  0  0  0  0  0
  140.2955   78.7656  218.1418 H   0  0  0  0  0  0  0  0  0  0  0  0
  138.5895   78.5063  218.6147 H   0  0  0  0  0  0  0  0  0  0  0  0
  140.7204   79.7688  220.4166 H   0  0  0  0  0  0  0  0  0  0  0  0
  139.5481   80.7006  219.4390 H   0  0  0  0  0  0  0  0  0  0  0  0
  138.8249   80.3425  221.7909 H   0  0  0  0  0  0  0  0  0  0  0  0
  137.7056   79.6115  220.5311 H   0  0  0  0  0  0  0  0  0  0  0  0
  137.6999   77.8674  221.8502 H   0  0  0  0  0  0  0  0  0  0  0  0
  138.5698   78.9394  223.6968 H   0  0  0  0  0  0  0  0  0  0  0  0
  139.5618   77.3953  223.4268 H   0  0  0  0  0  0  0  0  0  0  0  0
  139.5934   80.8303  224.0823 H   0  0  0  0  0  0  0  0  0  0  0  0
  141.6217   82.1896  224.2913 H   0  0  0  0  0  0  0  0  0  0  0  0
  143.8220   81.3317  223.5078 H   0  0  0  0  0  0  0  0  0  0  0  0
  143.9094   79.0514  222.5006 H   0  0  0  0  0  0  0  0  0  0  0  0
  141.8654   77.6874  222.2936 H   0  0  0  0  0  0  0  0  0  0  0  0
  139.2026   70.3176  222.2712 H   0  0  0  0  0  0  0  0  0  0  0  0
  138.7524   68.1114  226.3061 H   0  0  0  0  0  0  0  0  0  0  0  0
  139.5012   68.4974  228.6419 H   0  0  0  0  0  0  0  0  0  0  0  0
  140.8525   70.5268  229.1408 H   0  0  0  0  0  0  0  0  0  0  0  0
  141.4317   72.1244  227.3579 H   0  0  0  0  0  0  0  0  0  0  0  0
  1  2  2  0
  2  3  1  0
  3  4  1  0
  4  5  1  0
  5  6  2  0
  5  7  1  0
  7  8  1  0
  8  9  1  0
  9 10  1  0
 10 11  1  0
 11 12  1  0
 12 13  1  0
 13 14  1  0
 14 15  2  0
 15 16  1  0
 16 17  2  0
 17 18  1  0
 18 19  2  0
  2 20  1  0
 20 21  2  0
 21 22  1  0
 22 23  2  0
 23 24  1  0
 24 25  2  0
 25 26  1  0
 26 27  2  0
 27 28  1  0
 28 29  2  0
 12  7  1  0
 19 14  1  0
 29 20  1  0
 28 23  1  0
  3 30  1  0
  4 31  1  0
  4 32  1  0
  8 33  1  0
  8 34  1  0
  9 35  1  0
  9 36  1  0
 10 37  1  0
 10 38  1  0
 11 39  1  0
 11 40  1  0
 12 41  1  1
 13 42  1  0
 13 43  1  0
 15 44  1  0
 16 45  1  0
 17 46  1  0
 18 47  1  0
 19 48  1  0
 21 49  1  0
 24 50  1  0
 25 51  1  0
 26 52  1  0
 27 53  1  0
M  END
>  <smiles>  (47) 
O=C(NCC(=O)N1CCCCC1Cc1ccccc1)c1cnc2ccccc2n1

>  <score_type>  (47) 
oracle

>  <origin>  (47) 
autodockgpu

>  <m_score__min__energy>  (47) 
-9.1999999999999993

>  <m_primary>  (47) 
energy

>  <rmsd>  (47) 
2.840800531906624

>  <m_score__min__rmsd>  (47) 
2.840800531906624

>  <meeko>  (47) 
{"free_energy": -8.12, "intermolecular_energy": -9.91, "internal_energy": -2.06, "cluster_size": 46, "cluster_id": 1, "rank_in_cluster": 45}

>  <energy>  (47) 
-8.47

>  <cluster_rmsd>  (47) 
0.0

>  <cluster>  (47) 
2

$$$$

     RDKit          3D

 53 56  0  0  0  0  0  0  0  0999 V2000
  141.3920   72.0980  221.6920 O   0  0  0  0  0  0  0  0  0  0  0  0
  140.4060   72.3320  222.4420 C   0  0  0  0  0  0  0  0  0  0  0  0
  139.4640   73.3750  222.1750 N   0  0  0  0  0  0  0  0  0  0  0  0
  139.5680   74.2450  221.0190 C   0  0  0  0  0  0  0  0  0  0  0  0
  139.9190   75.6040  221.5400 C   0  0  0  0  0  0  0  0  0  0  0  0
  139.5790   75.8680  222.7250 O   0  0  0  0  0  0  0  0  0  0  0  0
  140.6160   76.5570  220.7150 N   0  0  0  0  0  0  0  0  0  0  0  0
  141.9890   76.2420  220.3320 C   0  0  0  0  0  0  0  0  0  0  0  0
  142.3580   76.8940  219.0210 C   0  0  0  0  0  0  0  0  0  0  0  0
  142.0340   78.3690  219.1100 C   0  0  0  0  0  0  0  0  0  0  0  0
  140.5460   78.5210  219.2250 C   0  0  0  0  0  0  0  0  0  0  0  0
  139.9180   77.7340  220.3340 C   0  0  2  0  0  0  0  0  0  0  0  0
  139.5510   78.6640  221.4410 C   0  0  0  0  0  0  0  0  0  0  0  0
  140.6410   79.3670  222.1040 C   0  0  0  0  0  0  0  0  0  0  0  0
  140.4890   80.7060  222.3990 C   0  0  0  0  0  0  0  0  0  0  0  0
  141.4760   81.4420  223.0250 C   0  0  0  0  0  0  0  0  0  0  0  0
  142.6740   80.8670  223.3870 C   0  0  0  0  0  0  0  0  0  0  0  0
  142.8480   79.5260  223.1000 C   0  0  0  0  0  0  0  0  0  0  0  0
  141.8500   78.7930  222.4710 C   0  0  0  0  0  0  0  0  0  0  0  0
  140.2120   71.5010  223.6450 C   0  0  0  0  0  0  0  0  0  0  0  0
  139.5180   70.3140  223.5580 C   0  0  0  0  0  0  0  0  0  0  0  0
  139.3350   69.5450  224.6550 N   0  0  0  0  0  0  0  0  0  0  0  0
  139.8280   69.9270  225.8570 C   0  0  0  0  0  0  0  0  0  0  0  0
  139.6190   69.1110  226.9550 C   0  0  0  0  0  0  0  0  0  0  0  0
  140.1020   69.4650  228.1870 C   0  0  0  0  0  0  0  0  0  0  0  0
  140.8010   70.6530  228.2930 C   0  0  0  0  0  0  0  0  0  0  0  0
  141.0050   71.4610  227.1920 C   0  0  0  0  0  0  0  0  0  0  0  0
  140.5200   71.1090  225.9510 C   0  0  0  0  0  0  0  0  0  0  0  0
  140.6940   71.8620  224.8480 N   0  0  0  0  0  0  0  0  0  0  0  0
  138.6680   73.4890  222.8720 H   0  0  0  0  0  0  0  0  0  0  0  0
  140.3547   73.8832  220.3406 H   0  0  0  0  0  0  0  0  0  0  0  0
  138.6256   74.2675  220.4520 H   0  0  0  0  0  0  0  0  0  0  0  0
  142.6711   76.6030  221.1159 H   0  0  0  0  0  0  0  0  0  0  0  0
  142.0740   75.1518  220.2128 H   0  0  0  0  0  0  0  0  0  0  0  0
  143.4332   76.7612  218.8303 H   0  0  0  0  0  0  0  0  0  0  0  0
  141.7917   76.4329  218.1984 H   0  0  0  0  0  0  0  0  0  0  0  0
  142.5213   78.8036  219.9952 H   0  0  0  0  0  0  0  0  0  0  0  0
  142.3989   78.8909  218.2131 H   0  0  0  0  0  0  0  0  0  0  0  0
  140.3226   79.5851  219.3915 H   0  0  0  0  0  0  0  0  0  0  0  0
  140.1215   78.1297  218.2887 H   0  0  0  0  0  0  0  0  0  0  0  0
  138.9874   77.2856  219.9560 H   0  0  0  0  0  0  0  0  0  0  0  0
  138.8714   79.4225  221.0253 H   0  0  0  0  0  0  0  0  0  0  0  0
  139.1107   78.0224  222.2185 H   0  0  0  0  0  0  0  0  0  0  0  0
  139.5478   81.2056  222.1258 H   0  0  0  0  0  0  0  0  0  0  0  0
  141.3020   82.5070  223.2383 H   0  0  0  0  0  0  0  0  0  0  0  0
  143.4614   81.4519  223.8849 H   0  0  0  0  0  0  0  0  0  0  0  0
  143.7917   79.0317  223.3741 H   0  0  0  0  0  0  0  0  0  0  0  0
  142.0227   77.7278  222.2578 H   0  0  0  0  0  0  0  0  0  0  0  0
  139.1099   69.9896  222.5894 H   0  0  0  0  0  0  0  0  0  0  0  0
  139.0606   68.1706  226.8375 H   0  0  0  0  0  0  0  0  0  0  0  0
  139.9386   68.8234  229.0654 H   0  0  0  0  0  0  0  0  0  0  0  0
  141.2013   70.9597  229.2706 H   0  0  0  0  0  0  0  0  0  0  0  0
  141.5640   72.4013  227.3074 H   0  0  0  0  0  0  0  0  0  0  0  0
  1  2  2  0
  2  3  1  0
  3  4  1  0
  4  5  1  0
  5  6  2  0
  5  7  1  0
  7  8  1  0
  8  9  1  0
  9 10  1  0
 10 11  1  0
 11 12  1  0
 12 13  1  0
 13 14  1  0
 14 15  2  0
 15 16  1  0
 16 17  2  0
 17 18  1  0
 18 19  2  0
  2 20  1  0
 20 21  2  0
 21 22  1  0
 22 23  2  0
 23 24  1  0
 24 25  2  0
 25 26  1  0
 26 27  2  0
 27 28  1  0
 28 29  2  0
 12  7  1  0
 19 14  1  0
 29 20  1  0
 28 23  1  0
  3 30  1  0
  4 31  1  0
  4 32  1  0
  8 33  1  0
  8 34  1  0
  9 35  1  0
  9 36  1  0
 10 37  1  0
 10 38  1  0
 11 39  1  0
 11 40  1  0
 12 41  1  6
 13 42  1  0
 13 43  1  0
 15 44  1  0
 16 45  1  0
 17 46  1  0
 18 47  1  0
 19 48  1  0
 21 49  1  0
 24 50  1  0
 25 51  1  0
 26 52  1  0
 27 53  1  0
M  END
>  <smiles>  (48) 
O=C(NCC(=O)N1CCCCC1Cc1ccccc1)c1cnc2ccccc2n1

>  <score_type>  (48) 
oracle

>  <origin>  (48) 
autodockgpu

>  <m_score__min__energy>  (48) 
-9.1999999999999993

>  <m_primary>  (48) 
energy

>  <rmsd>  (48) 
2.374129927875065

>  <m_score__min__rmsd>  (48) 
2.374129927875065

>  <meeko>  (48) 
{"free_energy": -8.83, "intermolecular_energy": -10.62, "internal_energy": -1.69, "cluster_size": 46, "cluster_id": 1, "rank_in_cluster": 33}

>  <energy>  (48) 
-8.18

>  <cluster_rmsd>  (48) 
0.59

>  <cluster>  (48) 
2

$$$$

     RDKit          3D

 53 56  0  0  0  0  0  0  0  0999 V2000
  140.8720   71.3200  221.3920 O   0  0  0  0  0  0  0  0  0  0  0  0
  140.3780   71.9030  222.3950 C   0  0  0  0  0  0  0  0  0  0  0  0
  139.9650   73.2720  222.3640 N   0  0  0  0  0  0  0  0  0  0  0  0
  140.0810   74.0970  221.1770 C   0  0  0  0  0  0  0  0  0  0  0  0
  139.8300   75.5080  221.6140 C   0  0  0  0  0  0  0  0  0  0  0  0
  139.0330   75.6760  222.5770 O   0  0  0  0  0  0  0  0  0  0  0  0
  140.4760   76.6140  220.9570 N   0  0  0  0  0  0  0  0  0  0  0  0
  141.8250   76.3970  220.4400 C   0  0  0  0  0  0  0  0  0  0  0  0
  142.1150   77.3010  219.2660 C   0  0  0  0  0  0  0  0  0  0  0  0
  141.7970   78.7260  219.6650 C   0  0  0  0  0  0  0  0  0  0  0  0
  140.3170   78.8330  219.8930 C   0  0  0  0  0  0  0  0  0  0  0  0
  139.7560   77.8340  220.8580 C   0  0  2  0  0  0  0  0  0  0  0  0
  139.4540   78.5220  222.1470 C   0  0  0  0  0  0  0  0  0  0  0  0
  140.4710   79.4240  222.6690 C   0  0  0  0  0  0  0  0  0  0  0  0
  141.5640   78.8920  223.3190 C   0  0  0  0  0  0  0  0  0  0  0  0
  142.5690   79.6800  223.8440 C   0  0  0  0  0  0  0  0  0  0  0  0
  142.5260   81.0530  223.7410 C   0  0  0  0  0  0  0  0  0  0  0  0
  141.4390   81.6080  223.0940 C   0  0  0  0  0  0  0  0  0  0  0  0
  140.4330   80.8080  222.5690 C   0  0  0  0  0  0  0  0  0  0  0  0
  140.2180   71.1480  223.6510 C   0  0  0  0  0  0  0  0  0  0  0  0
  139.5920   69.9210  223.6430 C   0  0  0  0  0  0  0  0  0  0  0  0
  139.4410   69.2220  224.7910 N   0  0  0  0  0  0  0  0  0  0  0  0
  139.8990   69.7130  225.9660 C   0  0  0  0  0  0  0  0  0  0  0  0
  139.7240   68.9660  227.1170 C   0  0  0  0  0  0  0  0  0  0  0  0
  140.1740   69.4320  228.3250 C   0  0  0  0  0  0  0  0  0  0  0  0
  140.8050   70.6610  228.3510 C   0  0  0  0  0  0  0  0  0  0  0  0
  140.9750   71.4000  227.1970 C   0  0  0  0  0  0  0  0  0  0  0  0
  140.5230   70.9360  225.9810 C   0  0  0  0  0  0  0  0  0  0  0  0
  140.6660   71.6190  224.8300 N   0  0  0  0  0  0  0  0  0  0  0  0
  139.5610   73.6680  223.2660 H   0  0  0  0  0  0  0  0  0  0  0  0
  141.0897   74.0058  220.7478 H   0  0  0  0  0  0  0  0  0  0  0  0
  139.3625   73.7859  220.4043 H   0  0  0  0  0  0  0  0  0  0  0  0
  142.5523   76.6031  221.2391 H   0  0  0  0  0  0  0  0  0  0  0  0
  141.9033   75.3532  220.1019 H   0  0  0  0  0  0  0  0  0  0  0  0
  143.1769   77.2214  218.9902 H   0  0  0  0  0  0  0  0  0  0  0  0
  141.5001   77.0058  218.4030 H   0  0  0  0  0  0  0  0  0  0  0  0
  142.3352   78.9822  220.5895 H   0  0  0  0  0  0  0  0  0  0  0  0
  142.1091   79.4203  218.8710 H   0  0  0  0  0  0  0  0  0  0  0  0
  140.1023   79.8402  220.2797 H   0  0  0  0  0  0  0  0  0  0  0  0
  139.8389   78.6292  218.9235 H   0  0  0  0  0  0  0  0  0  0  0  0
  138.8052   77.4575  220.4527 H   0  0  0  0  0  0  0  0  0  0  0  0
  138.5337   79.1072  222.0032 H   0  0  0  0  0  0  0  0  0  0  0  0
  139.3789   77.7151  222.8908 H   0  0  0  0  0  0  0  0  0  0  0  0
  141.6383   77.7995  223.4233 H   0  0  0  0  0  0  0  0  0  0  0  0
  143.4191   79.2029  224.3536 H   0  0  0  0  0  0  0  0  0  0  0  0
  143.3259   81.6828  224.1576 H   0  0  0  0  0  0  0  0  0  0  0  0
  141.3693   82.7011  222.9931 H   0  0  0  0  0  0  0  0  0  0  0  0
  139.5822   81.2841  222.0596 H   0  0  0  0  0  0  0  0  0  0  0  0
  139.2126   69.5071  222.6971 H   0  0  0  0  0  0  0  0  0  0  0  0
  139.2196   67.9900  227.0624 H   0  0  0  0  0  0  0  0  0  0  0  0
  140.0370   68.8455  229.2455 H   0  0  0  0  0  0  0  0  0  0  0  0
  141.1781   71.0573  229.3069 H   0  0  0  0  0  0  0  0  0  0  0  0
  141.4800   72.3758  227.2495 H   0  0  0  0  0  0  0  0  0  0  0  0
  1  2  2  0
  2  3  1  0
  3  4  1  0
  4  5  1  0
  5  6  2  0
  5  7  1  0
  7  8  1  0
  8  9  1  0
  9 10  1  0
 10 11  1  0
 11 12  1  0
 12 13  1  0
 13 14  1  0
 14 15  2  0
 15 16  1  0
 16 17  2  0
 17 18  1  0
 18 19  2  0
  2 20  1  0
 20 21  2  0
 21 22  1  0
 22 23  2  0
 23 24  1  0
 24 25  2  0
 25 26  1  0
 26 27  2  0
 27 28  1  0
 28 29  2  0
 12  7  1  0
 19 14  1  0
 29 20  1  0
 28 23  1  0
  3 30  1  0
  4 31  1  0
  4 32  1  0
  8 33  1  0
  8 34  1  0
  9 35  1  0
  9 36  1  0
 10 37  1  0
 10 38  1  0
 11 39  1  0
 11 40  1  0
 12 41  1  6
 13 42  1  0
 13 43  1  0
 15 44  1  0
 16 45  1  0
 17 46  1  0
 18 47  1  0
 19 48  1  0
 21 49  1  0
 24 50  1  0
 25 51  1  0
 26 52  1  0
 27 53  1  0
M  END
>  <smiles>  (49) 
O=C(NCC(=O)N1CCCCC1Cc1ccccc1)c1cnc2ccccc2n1

>  <score_type>  (49) 
oracle

>  <origin>  (49) 
autodockgpu

>  <m_score__min__energy>  (49) 
-9.1999999999999993

>  <m_primary>  (49) 
energy

>  <rmsd>  (49) 
2.5153957323184275

>  <m_score__min__rmsd>  (49) 
2.5153957323184275

>  <meeko>  (49) 
{"free_energy": -8.89, "intermolecular_energy": -10.68, "internal_energy": -2.08, "cluster_size": 46, "cluster_id": 1, "rank_in_cluster": 23}

>  <energy>  (49) 
-8.18

>  <cluster_rmsd>  (49) 
0.63

>  <cluster>  (49) 
2

$$$$

     RDKit          3D

 53 56  0  0  0  0  0  0  0  0999 V2000
  141.3230   72.3180  221.8350 O   0  0  0  0  0  0  0  0  0  0  0  0
  140.2870   72.3900  222.5490 C   0  0  0  0  0  0  0  0  0  0  0  0
  139.2070   73.2800  222.2520 N   0  0  0  0  0  0  0  0  0  0  0  0
  139.2190   74.1690  221.1070 C   0  0  0  0  0  0  0  0  0  0  0  0
  139.9050   75.4240  221.5510 C   0  0  0  0  0  0  0  0  0  0  0  0
  139.6700   75.8210  222.7240 O   0  0  0  0  0  0  0  0  0  0  0  0
  140.7930   76.1360  220.6670 N   0  0  0  0  0  0  0  0  0  0  0  0
  142.1730   75.6690  220.5780 C   0  0  0  0  0  0  0  0  0  0  0  0
  142.7790   76.0000  219.2350 C   0  0  0  0  0  0  0  0  0  0  0  0
  142.5770   77.4750  218.9670 C   0  0  0  0  0  0  0  0  0  0  0  0
  141.1060   77.7310  218.8130 C   0  0  0  0  0  0  0  0  0  0  0  0
  140.2610   77.2380  219.9470 C   0  0  2  0  0  0  0  0  0  0  0  0
  139.8240   78.4060  220.7670 C   0  0  0  0  0  0  0  0  0  0  0  0
  140.7790   78.9320  221.7310 C   0  0  0  0  0  0  0  0  0  0  0  0
  141.6240   79.9510  221.3440 C   0  0  0  0  0  0  0  0  0  0  0  0
  142.5580   80.5030  222.2000 C   0  0  0  0  0  0  0  0  0  0  0  0
  142.6910   80.0550  223.4950 C   0  0  0  0  0  0  0  0  0  0  0  0
  141.8550   79.0340  223.9040 C   0  0  0  0  0  0  0  0  0  0  0  0
  140.9170   78.4850  223.0380 C   0  0  0  0  0  0  0  0  0  0  0  0
  140.1790   71.5240  223.7380 C   0  0  0  0  0  0  0  0  0  0  0  0
  139.5570   70.2980  223.6440 C   0  0  0  0  0  0  0  0  0  0  0  0
  139.4530   69.4980  224.7290 N   0  0  0  0  0  0  0  0  0  0  0  0
  139.9550   69.8850  225.9250 C   0  0  0  0  0  0  0  0  0  0  0  0
  139.8280   69.0360  227.0100 C   0  0  0  0  0  0  0  0  0  0  0  0
  140.3240   69.3950  228.2360 C   0  0  0  0  0  0  0  0  0  0  0  0
  140.9510   70.6210  228.3490 C   0  0  0  0  0  0  0  0  0  0  0  0
  141.0740   71.4620  227.2600 C   0  0  0  0  0  0  0  0  0  0  0  0
  140.5760   71.1060  226.0260 C   0  0  0  0  0  0  0  0  0  0  0  0
  140.6720   71.8900  224.9350 N   0  0  0  0  0  0  0  0  0  0  0  0
  138.3780   73.2620  222.9200 H   0  0  0  0  0  0  0  0  0  0  0  0
  139.7706   73.7086  220.2741 H   0  0  0  0  0  0  0  0  0  0  0  0
  138.1982   74.3770  220.7538 H   0  0  0  0  0  0  0  0  0  0  0  0
  142.7665   76.1526  221.3679 H   0  0  0  0  0  0  0  0  0  0  0  0
  142.1781   74.5759  220.7012 H   0  0  0  0  0  0  0  0  0  0  0  0
  143.8544   75.7689  219.2462 H   0  0  0  0  0  0  0  0  0  0  0  0
  142.2957   75.4043  218.4466 H   0  0  0  0  0  0  0  0  0  0  0  0
  142.9703   78.0630  219.8093 H   0  0  0  0  0  0  0  0  0  0  0  0
  143.1100   77.7693  218.0509 H   0  0  0  0  0  0  0  0  0  0  0  0
  140.9554   78.8167  218.7207 H   0  0  0  0  0  0  0  0  0  0  0  0
  140.7857   77.1713  217.9218 H   0  0  0  0  0  0  0  0  0  0  0  0
  139.3582   76.7691  219.5287 H   0  0  0  0  0  0  0  0  0  0  0  0
  139.5694   79.2212  220.0737 H   0  0  0  0  0  0  0  0  0  0  0  0
  138.9849   78.0318  221.3719 H   0  0  0  0  0  0  0  0  0  0  0  0
  141.5519   80.3383  220.3170 H   0  0  0  0  0  0  0  0  0  0  0  0
  143.2069   81.3150  221.8401 H   0  0  0  0  0  0  0  0  0  0  0  0
  143.4341   80.4930  224.1776 H   0  0  0  0  0  0  0  0  0  0  0  0
  141.9331   78.6494  224.9316 H   0  0  0  0  0  0  0  0  0  0  0  0
  140.2663   77.6744  223.3979 H   0  0  0  0  0  0  0  0  0  0  0  0
  139.1424   69.9680  222.6800 H   0  0  0  0  0  0  0  0  0  0  0  0
  139.3250   68.0654  226.8876 H   0  0  0  0  0  0  0  0  0  0  0  0
  140.2259   68.7269  229.1043 H   0  0  0  0  0  0  0  0  0  0  0  0
  141.3589   70.9325  229.3219 H   0  0  0  0  0  0  0  0  0  0  0  0
  141.5781   72.4323  227.3803 H   0  0  0  0  0  0  0  0  0  0  0  0
  1  2  2  0
  2  3  1  0
  3  4  1  0
  4  5  1  0
  5  6  2  0
  5  7  1  0
  7  8  1  0
  8  9  1  0
  9 10  1  0
 10 11  1  0
 11 12  1  0
 12 13  1  0
 13 14  1  0
 14 15  2  0
 15 16  1  0
 16 17  2  0
 17 18  1  0
 18 19  2  0
  2 20  1  0
 20 21  2  0
 21 22  1  0
 22 23  2  0
 23 24  1  0
 24 25  2  0
 25 26  1  0
 26 27  2  0
 27 28  1  0
 28 29  2  0
 12  7  1  0
 19 14  1  0
 29 20  1  0
 28 23  1  0
  3 30  1  0
  4 31  1  0
  4 32  1  0
  8 33  1  0
  8 34  1  0
  9 35  1  0
  9 36  1  0
 10 37  1  0
 10 38  1  0
 11 39  1  0
 11 40  1  0
 12 41  1  6
 13 42  1  0
 13 43  1  0
 15 44  1  0
 16 45  1  0
 17 46  1  0
 18 47  1  0
 19 48  1  0
 21 49  1  0
 24 50  1  0
 25 51  1  0
 26 52  1  0
 27 53  1  0
M  END
>  <smiles>  (50) 
O=C(NCC(=O)N1CCCCC1Cc1ccccc1)c1cnc2ccccc2n1

>  <score_type>  (50) 
oracle

>  <origin>  (50) 
autodockgpu

>  <m_score__min__energy>  (50) 
-9.1999999999999993

>  <m_primary>  (50) 
energy

>  <rmsd>  (50) 
2.253386109322765

>  <m_score__min__rmsd>  (50) 
2.253386109322765

>  <meeko>  (50) 
{"free_energy": -8.94, "intermolecular_energy": -10.73, "internal_energy": -1.71, "cluster_size": 46, "cluster_id": 1, "rank_in_cluster": 5}

>  <energy>  (50) 
-8.17

>  <cluster_rmsd>  (50) 
0.0

>  <cluster>  (50) 
3

$$$$

     RDKit          3D

 53 56  0  0  0  0  0  0  0  0999 V2000
  140.5980   72.0450  220.9720 O   0  0  0  0  0  0  0  0  0  0  0  0
  140.1850   72.4820  222.0790 C   0  0  0  0  0  0  0  0  0  0  0  0
  139.8520   73.8520  222.2090 N   0  0  0  0  0  0  0  0  0  0  0  0
  140.0020   74.7180  221.0410 C   0  0  0  0  0  0  0  0  0  0  0  0
  140.7100   75.9370  221.5160 C   0  0  0  0  0  0  0  0  0  0  0  0
  140.7050   76.3040  222.7210 O   0  0  0  0  0  0  0  0  0  0  0  0
  141.4300   76.7450  220.5910 N   0  0  0  0  0  0  0  0  0  0  0  0
  141.5710   78.1710  220.8820 C   0  0  0  0  0  0  0  0  0  0  0  0
  141.1560   79.0070  219.6920 C   0  0  0  0  0  0  0  0  0  0  0  0
  141.7290   78.4730  218.4030 C   0  0  0  0  0  0  0  0  0  0  0  0
  141.5610   77.0000  218.2250 C   0  0  0  0  0  0  0  0  0  0  0  0
  142.0090   76.1720  219.3910 C   0  0  1  0  0  0  0  0  0  0  0  0
  143.5270   76.1410  219.5270 C   0  0  0  0  0  0  0  0  0  0  0  0
  143.9220   74.7830  219.9770 C   0  0  0  0  0  0  0  0  0  0  0  0
  145.1720   74.5970  220.5270 C   0  0  0  0  0  0  0  0  0  0  0  0
  145.6090   73.3650  220.9650 C   0  0  0  0  0  0  0  0  0  0  0  0
  144.7660   72.2600  220.8530 C   0  0  0  0  0  0  0  0  0  0  0  0
  143.5120   72.4130  220.3080 C   0  0  0  0  0  0  0  0  0  0  0  0
  143.1110   73.6780  219.8780 C   0  0  0  0  0  0  0  0  0  0  0  0
  140.0430   71.5990  223.2350 C   0  0  0  0  0  0  0  0  0  0  0  0
  139.4250   70.3580  223.0740 C   0  0  0  0  0  0  0  0  0  0  0  0
  139.2840   69.5270  224.1350 N   0  0  0  0  0  0  0  0  0  0  0  0
  139.7330   69.8760  225.3550 C   0  0  0  0  0  0  0  0  0  0  0  0
  139.5980   69.0400  226.4460 C   0  0  0  0  0  0  0  0  0  0  0  0
  140.0600   69.3950  227.7100 C   0  0  0  0  0  0  0  0  0  0  0  0
  140.6770   70.6390  227.8600 C   0  0  0  0  0  0  0  0  0  0  0  0
  140.8120   71.4740  226.7670 C   0  0  0  0  0  0  0  0  0  0  0  0
  140.3520   71.1180  225.5120 C   0  0  0  0  0  0  0  0  0  0  0  0
  140.4930   71.9490  224.4580 N   0  0  0  0  0  0  0  0  0  0  0  0
  139.5170   74.1800  223.1280 H   0  0  0  0  0  0  0  0  0  0  0  0
  140.5939   74.2116  220.2644 H   0  0  0  0  0  0  0  0  0  0  0  0
  139.0260   74.9679  220.5995 H   0  0  0  0  0  0  0  0  0  0  0  0
  140.9352   78.4279  221.7421 H   0  0  0  0  0  0  0  0  0  0  0  0
  142.6266   78.3812  221.1089 H   0  0  0  0  0  0  0  0  0  0  0  0
  140.0583   79.0048  219.6212 H   0  0  0  0  0  0  0  0  0  0  0  0
  141.5415   80.0265  219.8402 H   0  0  0  0  0  0  0  0  0  0  0  0
  141.2285   78.9814  217.5657 H   0  0  0  0  0  0  0  0  0  0  0  0
  142.8113   78.6675  218.4324 H   0  0  0  0  0  0  0  0  0  0  0  0
  140.4945   76.7957  218.0497 H   0  0  0  0  0  0  0  0  0  0  0  0
  142.2019   76.7149  217.3777 H   0  0  0  0  0  0  0  0  0  0  0  0
  141.6761   75.1351  219.2361 H   0  0  0  0  0  0  0  0  0  0  0  0
  143.9930   76.3620  218.5554 H   0  0  0  0  0  0  0  0  0  0  0  0
  143.8599   76.8955  220.2549 H   0  0  0  0  0  0  0  0  0  0  0  0
  145.8448   75.4623  220.6198 H   0  0  0  0  0  0  0  0  0  0  0  0
  146.6137   73.2547  221.3990 H   0  0  0  0  0  0  0  0  0  0  0  0
  145.1018   71.2711  221.1986 H   0  0  0  0  0  0  0  0  0  0  0  0
  142.8357   71.5507  220.2128 H   0  0  0  0  0  0  0  0  0  0  0  0
  142.1075   73.7955  219.4432 H   0  0  0  0  0  0  0  0  0  0  0  0
  139.0520   70.0542  222.0848 H   0  0  0  0  0  0  0  0  0  0  0  0
  139.1102   68.0632  226.3118 H   0  0  0  0  0  0  0  0  0  0  0  0
  139.9425   68.7150  228.5666 H   0  0  0  0  0  0  0  0  0  0  0  0
  141.0541   70.9530  228.8445 H   0  0  0  0  0  0  0  0  0  0  0  0
  141.2999   72.4510  226.8990 H   0  0  0  0  0  0  0  0  0  0  0  0
  1  2  2  0
  2  3  1  0
  3  4  1  0
  4  5  1  0
  5  6  2  0
  5  7  1  0
  7  8  1  0
  8  9  1  0
  9 10  1  0
 10 11  1  0
 11 12  1  0
 12 13  1  0
 13 14  1  0
 14 15  2  0
 15 16  1  0
 16 17  2  0
 17 18  1  0
 18 19  2  0
  2 20  1  0
 20 21  2  0
 21 22  1  0
 22 23  2  0
 23 24  1  0
 24 25  2  0
 25 26  1  0
 26 27  2  0
 27 28  1  0
 28 29  2  0
 12  7  1  0
 19 14  1  0
 29 20  1  0
 28 23  1  0
  3 30  1  0
  4 31  1  0
  4 32  1  0
  8 33  1  0
  8 34  1  0
  9 35  1  0
  9 36  1  0
 10 37  1  0
 10 38  1  0
 11 39  1  0
 11 40  1  0
 12 41  1  6
 13 42  1  0
 13 43  1  0
 15 44  1  0
 16 45  1  0
 17 46  1  0
 18 47  1  0
 19 48  1  0
 21 49  1  0
 24 50  1  0
 25 51  1  0
 26 52  1  0
 27 53  1  0
M  END
>  <smiles>  (51) 
O=C(NCC(=O)N1CCCCC1Cc1ccccc1)c1cnc2ccccc2n1

>  <score_type>  (51) 
oracle

>  <origin>  (51) 
autodockgpu

>  <m_score__min__energy>  (51) 
-9.3399999999999999

>  <m_primary>  (51) 
energy

>  <rmsd>  (51) 
2.549408190008283

>  <m_score__min__rmsd>  (51) 
2.549408190008283

>  <meeko>  (51) 
{"free_energy": -8.15, "intermolecular_energy": -9.94, "internal_energy": -2.12, "cluster_size": 8, "cluster_id": 4, "rank_in_cluster": 8}

>  <energy>  (51) 
-9.34

>  <cluster_rmsd>  (51) 
0.0

>  <cluster>  (51) 
1

$$$$

     RDKit          3D

 53 56  0  0  0  0  0  0  0  0999 V2000
  140.7520   77.1090  218.1230 O   0  0  0  0  0  0  0  0  0  0  0  0
  141.8680   77.1120  218.7080 C   0  0  0  0  0  0  0  0  0  0  0  0
  142.3940   78.3310  219.2020 N   0  0  0  0  0  0  0  0  0  0  0  0
  141.6140   79.5520  219.0110 C   0  0  0  0  0  0  0  0  0  0  0  0
  140.5700   79.5480  220.0710 C   0  0  0  0  0  0  0  0  0  0  0  0
  139.3450   79.3790  219.8230 O   0  0  0  0  0  0  0  0  0  0  0  0
  140.9390   79.7410  221.4310 N   0  0  0  0  0  0  0  0  0  0  0  0
  140.3410   80.8620  222.1580 C   0  0  0  0  0  0  0  0  0  0  0  0
  141.4080   81.6940  222.8350 C   0  0  0  0  0  0  0  0  0  0  0  0
  142.4250   80.8340  223.5440 C   0  0  0  0  0  0  0  0  0  0  0  0
  142.9410   79.6990  222.7230 C   0  0  0  0  0  0  0  0  0  0  0  0
  141.8810   78.8540  222.0840 C   0  0  1  0  0  0  0  0  0  0  0  0
  141.1440   77.9890  223.1000 C   0  0  0  0  0  0  0  0  0  0  0  0
  140.4610   76.8950  222.3650 C   0  0  0  0  0  0  0  0  0  0  0  0
  139.1200   77.0210  222.0720 C   0  0  0  0  0  0  0  0  0  0  0  0
  138.4190   76.0450  221.3950 C   0  0  0  0  0  0  0  0  0  0  0  0
  139.0780   74.8870  220.9870 C   0  0  0  0  0  0  0  0  0  0  0  0
  140.4160   74.7310  221.2640 C   0  0  0  0  0  0  0  0  0  0  0  0
  141.0870   75.7430  221.9520 C   0  0  0  0  0  0  0  0  0  0  0  0
  142.6320   75.8790  218.8870 C   0  0  0  0  0  0  0  0  0  0  0  0
  142.3130   74.7610  218.1150 C   0  0  0  0  0  0  0  0  0  0  0  0
  143.0110   73.6090  218.2690 N   0  0  0  0  0  0  0  0  0  0  0  0
  144.0150   73.5190  219.1600 C   0  0  0  0  0  0  0  0  0  0  0  0
  144.7350   72.3530  219.3280 C   0  0  0  0  0  0  0  0  0  0  0  0
  145.7750   72.2530  220.2480 C   0  0  0  0  0  0  0  0  0  0  0  0
  146.0840   73.3770  221.0150 C   0  0  0  0  0  0  0  0  0  0  0  0
  145.3630   74.5440  220.8460 C   0  0  0  0  0  0  0  0  0  0  0  0
  144.3310   74.6400  219.9310 C   0  0  0  0  0  0  0  0  0  0  0  0
  143.6380   75.7880  219.7810 N   0  0  0  0  0  0  0  0  0  0  0  0
  143.3090   78.3020  219.6760 H   0  0  0  0  0  0  0  0  0  0  0  0
  142.2593   80.4368  219.1147 H   0  0  0  0  0  0  0  0  0  0  0  0
  141.1657   79.5882  218.0071 H   0  0  0  0  0  0  0  0  0  0  0  0
  139.7849   81.4949  221.4507 H   0  0  0  0  0  0  0  0  0  0  0  0
  139.6645   80.4622  222.9278 H   0  0  0  0  0  0  0  0  0  0  0  0
  141.9225   82.2999  222.0746 H   0  0  0  0  0  0  0  0  0  0  0  0
  140.9183   82.3323  223.5852 H   0  0  0  0  0  0  0  0  0  0  0  0
  143.2765   81.4695  223.8289 H   0  0  0  0  0  0  0  0  0  0  0  0
  141.9160   80.3915  224.4130 H   0  0  0  0  0  0  0  0  0  0  0  0
  143.5751   80.1138  221.9256 H   0  0  0  0  0  0  0  0  0  0  0  0
  143.4881   79.0404  223.4136 H   0  0  0  0  0  0  0  0  0  0  0  0
  142.3583   78.1725  221.3645 H   0  0  0  0  0  0  0  0  0  0  0  0
  141.8610   77.5647  223.8183 H   0  0  0  0  0  0  0  0  0  0  0  0
  140.4097   78.5929  223.6532 H   0  0  0  0  0  0  0  0  0  0  0  0
  138.5905   77.9316  222.3891 H   0  0  0  0  0  0  0  0  0  0  0  0
  137.3489   76.1796  221.1790 H   0  0  0  0  0  0  0  0  0  0  0  0
  138.5305   74.1012  220.4458 H   0  0  0  0  0  0  0  0  0  0  0  0
  140.9493   73.8223  220.9481 H   0  0  0  0  0  0  0  0  0  0  0  0
  142.1570   75.6139  222.1720 H   0  0  0  0  0  0  0  0  0  0  0  0
  141.4951   74.8145  217.3814 H   0  0  0  0  0  0  0  0  0  0  0  0
  144.4789   71.4757  218.7158 H   0  0  0  0  0  0  0  0  0  0  0  0
  146.3370   71.3149  220.3669 H   0  0  0  0  0  0  0  0  0  0  0  0
  146.8993   73.3344  221.7522 H   0  0  0  0  0  0  0  0  0  0  0  0
  145.6178   75.4222  221.4574 H   0  0  0  0  0  0  0  0  0  0  0  0
  1  2  2  0
  2  3  1  0
  3  4  1  0
  4  5  1  0
  5  6  2  0
  5  7  1  0
  7  8  1  0
  8  9  1  0
  9 10  1  0
 10 11  1  0
 11 12  1  0
 12 13  1  0
 13 14  1  0
 14 15  2  0
 15 16  1  0
 16 17  2  0
 17 18  1  0
 18 19  2  0
  2 20  1  0
 20 21  2  0
 21 22  1  0
 22 23  2  0
 23 24  1  0
 24 25  2  0
 25 26  1  0
 26 27  2  0
 27 28  1  0
 28 29  2  0
 12  7  1  0
 19 14  1  0
 29 20  1  0
 28 23  1  0
  3 30  1  0
  4 31  1  0
  4 32  1  0
  8 33  1  0
  8 34  1  0
  9 35  1  0
  9 36  1  0
 10 37  1  0
 10 38  1  0
 11 39  1  0
 11 40  1  0
 12 41  1  6
 13 42  1  0
 13 43  1  0
 15 44  1  0
 16 45  1  0
 17 46  1  0
 18 47  1  0
 19 48  1  0
 21 49  1  0
 24 50  1  0
 25 51  1  0
 26 52  1  0
 27 53  1  0
M  END
>  <smiles>  (52) 
O=C(NCC(=O)N1CCCCC1Cc1ccccc1)c1cnc2ccccc2n1

>  <score_type>  (52) 
oracle

>  <origin>  (52) 
autodockgpu

>  <m_score__min__energy>  (52) 
-9.3399999999999999

>  <m_primary>  (52) 
energy

>  <rmsd>  (52) 
7.425876959295876

>  <m_score__min__rmsd>  (52) 
7.425876959295876

>  <meeko>  (52) 
{"free_energy": -6.73, "intermolecular_energy": -8.52, "internal_energy": -2.97, "cluster_size": 1, "cluster_id": 6, "rank_in_cluster": 1}

>  <energy>  (52) 
-8.82

>  <cluster_rmsd>  (52) 
0.88

>  <cluster>  (52) 
1

$$$$

     RDKit          3D

 53 56  0  0  0  0  0  0  0  0999 V2000
  140.1940   71.2910  221.2530 O   0  0  0  0  0  0  0  0  0  0  0  0
  139.9820   71.9000  222.3350 C   0  0  0  0  0  0  0  0  0  0  0  0
  139.7460   73.2970  222.3150 N   0  0  0  0  0  0  0  0  0  0  0  0
  139.7570   73.9850  221.0260 C   0  0  0  0  0  0  0  0  0  0  0  0
  140.3610   75.3220  221.2750 C   0  0  0  0  0  0  0  0  0  0  0  0
  140.4310   75.8370  222.4230 O   0  0  0  0  0  0  0  0  0  0  0  0
  140.8900   76.0740  220.1890 N   0  0  0  0  0  0  0  0  0  0  0  0
  140.3460   75.8350  218.8520 C   0  0  0  0  0  0  0  0  0  0  0  0
  141.4570   75.5810  217.8570 C   0  0  0  0  0  0  0  0  0  0  0  0
  142.5850   76.5690  218.0100 C   0  0  0  0  0  0  0  0  0  0  0  0
  143.0370   76.7630  219.4200 C   0  0  0  0  0  0  0  0  0  0  0  0
  141.9390   77.0530  220.3970 C   0  0  1  0  0  0  0  0  0  0  0  0
  141.3660   78.4540  220.2220 C   0  0  0  0  0  0  0  0  0  0  0  0
  141.6490   79.2260  221.4590 C   0  0  0  0  0  0  0  0  0  0  0  0
  141.5890   78.5840  222.6770 C   0  0  0  0  0  0  0  0  0  0  0  0
  141.8370   79.2370  223.8660 C   0  0  0  0  0  0  0  0  0  0  0  0
  142.1590   80.5920  223.8500 C   0  0  0  0  0  0  0  0  0  0  0  0
  142.2260   81.2620  222.6500 C   0  0  0  0  0  0  0  0  0  0  0  0
  141.9680   80.5630  221.4700 C   0  0  0  0  0  0  0  0  0  0  0  0
  139.9760   71.1920  223.6140 C   0  0  0  0  0  0  0  0  0  0  0  0
  139.4750   69.8910  223.6700 C   0  0  0  0  0  0  0  0  0  0  0  0
  139.4620   69.2190  224.8480 N   0  0  0  0  0  0  0  0  0  0  0  0
  139.9260   69.7870  225.9760 C   0  0  0  0  0  0  0  0  0  0  0  0
  139.9190   69.1160  227.1830 C   0  0  0  0  0  0  0  0  0  0  0  0
  140.3980   69.6970  228.3540 C   0  0  0  0  0  0  0  0  0  0  0  0
  140.8970   70.9990  228.2850 C   0  0  0  0  0  0  0  0  0  0  0  0
  140.9030   71.6700  227.0770 C   0  0  0  0  0  0  0  0  0  0  0  0
  140.4270   71.0890  225.9150 C   0  0  0  0  0  0  0  0  0  0  0  0
  140.4410   71.7610  224.7450 N   0  0  0  0  0  0  0  0  0  0  0  0
  139.5760   73.7680  223.2180 H   0  0  0  0  0  0  0  0  0  0  0  0
  140.3613   73.4229  220.2987 H   0  0  0  0  0  0  0  0  0  0  0  0
  138.7425   74.0743  220.6103 H   0  0  0  0  0  0  0  0  0  0  0  0
  139.6831   74.9578  218.8840 H   0  0  0  0  0  0  0  0  0  0  0  0
  139.7859   76.7270  218.5348 H   0  0  0  0  0  0  0  0  0  0  0  0
  141.8498   74.5656  218.0140 H   0  0  0  0  0  0  0  0  0  0  0  0
  141.0406   75.6929  216.8450 H   0  0  0  0  0  0  0  0  0  0  0  0
  143.4408   76.2109  217.4188 H   0  0  0  0  0  0  0  0  0  0  0  0
  142.2056   77.5409  217.6614 H   0  0  0  0  0  0  0  0  0  0  0  0
  143.5502   75.8457  219.7442 H   0  0  0  0  0  0  0  0  0  0  0  0
  143.6906   77.6477  219.4169 H   0  0  0  0  0  0  0  0  0  0  0  0
  142.3493   76.9963  221.4160 H   0  0  0  0  0  0  0  0  0  0  0  0
  141.8395   78.9454  219.3593 H   0  0  0  0  0  0  0  0  0  0  0  0
  140.2816   78.4028  220.0443 H   0  0  0  0  0  0  0  0  0  0  0  0
  141.3346   77.5141  222.7016 H   0  0  0  0  0  0  0  0  0  0  0  0
  141.7810   78.6919  224.8198 H   0  0  0  0  0  0  0  0  0  0  0  0
  142.3587   81.1239  224.7919 H   0  0  0  0  0  0  0  0  0  0  0  0
  142.4790   82.3321  222.6212 H   0  0  0  0  0  0  0  0  0  0  0  0
  142.0219   81.1022  220.5127 H   0  0  0  0  0  0  0  0  0  0  0  0
  139.0905   69.4102  222.7584 H   0  0  0  0  0  0  0  0  0  0  0  0
  139.5227   68.0906  227.2203 H   0  0  0  0  0  0  0  0  0  0  0  0
  140.3837   69.1461  229.3060 H   0  0  0  0  0  0  0  0  0  0  0  0
  141.2845   71.4896  229.1901 H   0  0  0  0  0  0  0  0  0  0  0  0
  141.2977   72.6960  227.0381 H   0  0  0  0  0  0  0  0  0  0  0  0
  1  2  2  0
  2  3  1  0
  3  4  1  0
  4  5  1  0
  5  6  2  0
  5  7  1  0
  7  8  1  0
  8  9  1  0
  9 10  1  0
 10 11  1  0
 11 12  1  0
 12 13  1  0
 13 14  1  0
 14 15  2  0
 15 16  1  0
 16 17  2  0
 17 18  1  0
 18 19  2  0
  2 20  1  0
 20 21  2  0
 21 22  1  0
 22 23  2  0
 23 24  1  0
 24 25  2  0
 25 26  1  0
 26 27  2  0
 27 28  1  0
 28 29  2  0
 12  7  1  0
 19 14  1  0
 29 20  1  0
 28 23  1  0
  3 30  1  0
  4 31  1  0
  4 32  1  0
  8 33  1  0
  8 34  1  0
  9 35  1  0
  9 36  1  0
 10 37  1  0
 10 38  1  0
 11 39  1  0
 11 40  1  0
 12 41  1  1
 13 42  1  0
 13 43  1  0
 15 44  1  0
 16 45  1  0
 17 46  1  0
 18 47  1  0
 19 48  1  0
 21 49  1  0
 24 50  1  0
 25 51  1  0
 26 52  1  0
 27 53  1  0
M  END
>  <smiles>  (53) 
O=C(NCC(=O)N1CCCCC1Cc1ccccc1)c1cnc2ccccc2n1

>  <score_type>  (53) 
oracle

>  <origin>  (53) 
autodockgpu

>  <m_score__min__energy>  (53) 
-9.3399999999999999

>  <m_primary>  (53) 
energy

>  <rmsd>  (53) 
1.5313718679818167

>  <m_score__min__rmsd>  (53) 
1.5313718679818167

>  <meeko>  (53) 
{"free_energy": -8.86, "intermolecular_energy": -10.65, "internal_energy": -1.82, "cluster_size": 18, "cluster_id": 2, "rank_in_cluster": 7}

>  <energy>  (53) 
-8.78

>  <cluster_rmsd>  (53) 
0.89

>  <cluster>  (53) 
1

$$$$

     RDKit          3D

 53 56  0  0  0  0  0  0  0  0999 V2000
  138.1260   75.2480  221.8670 O   0  0  0  0  0  0  0  0  0  0  0  0
  139.3260   75.6290  221.8970 C   0  0  0  0  0  0  0  0  0  0  0  0
  140.3510   74.7390  221.4920 N   0  0  0  0  0  0  0  0  0  0  0  0
  139.9730   73.3980  221.0510 C   0  0  0  0  0  0  0  0  0  0  0  0
  140.1350   72.5110  222.2340 C   0  0  0  0  0  0  0  0  0  0  0  0
  141.0600   72.6580  223.0770 O   0  0  0  0  0  0  0  0  0  0  0  0
  139.2210   71.4410  222.4480 N   0  0  0  0  0  0  0  0  0  0  0  0
  138.8970   70.5720  221.3170 C   0  0  0  0  0  0  0  0  0  0  0  0
  137.3980   70.4380  221.1530 C   0  0  0  0  0  0  0  0  0  0  0  0
  136.7090   70.1940  222.4720 C   0  0  0  0  0  0  0  0  0  0  0  0
  137.1420   71.1140  223.5650 C   0  0  0  0  0  0  0  0  0  0  0  0
  138.6260   71.2150  223.7500 C   0  0  1  0  0  0  0  0  0  0  0  0
  139.2170   69.9520  224.3660 C   0  0  0  0  0  0  0  0  0  0  0  0
  139.8430   70.3190  225.6610 C   0  0  0  0  0  0  0  0  0  0  0  0
  140.5370   71.5060  225.7570 C   0  0  0  0  0  0  0  0  0  0  0  0
  141.1450   71.9110  226.9260 C   0  0  0  0  0  0  0  0  0  0  0  0
  141.0630   71.1010  228.0570 C   0  0  0  0  0  0  0  0  0  0  0  0
  140.3780   69.9100  227.9940 C   0  0  0  0  0  0  0  0  0  0  0  0
  139.7770   69.5390  226.7900 C   0  0  0  0  0  0  0  0  0  0  0  0
  139.6820   76.9750  222.3430 C   0  0  0  0  0  0  0  0  0  0  0  0
  138.6700   77.8600  222.7170 C   0  0  0  0  0  0  0  0  0  0  0  0
  138.9820   79.1110  223.1320 N   0  0  0  0  0  0  0  0  0  0  0  0
  140.2610   79.5240  223.1930 C   0  0  0  0  0  0  0  0  0  0  0  0
  140.5950   80.7970  223.6140 C   0  0  0  0  0  0  0  0  0  0  0  0
  141.9160   81.2300  223.6780 C   0  0  0  0  0  0  0  0  0  0  0  0
  142.9200   80.3370  223.3020 C   0  0  0  0  0  0  0  0  0  0  0  0
  142.5850   79.0640  222.8800 C   0  0  0  0  0  0  0  0  0  0  0  0
  141.2710   78.6360  222.8180 C   0  0  0  0  0  0  0  0  0  0  0  0
  140.9640   77.3890  222.4030 N   0  0  0  0  0  0  0  0  0  0  0  0
  141.3250   75.0800  221.5280 H   0  0  0  0  0  0  0  0  0  0  0  0
  138.9277   73.3897  220.7085 H   0  0  0  0  0  0  0  0  0  0  0  0
  140.5969   73.0620  220.2097 H   0  0  0  0  0  0  0  0  0  0  0  0
  139.3231   71.0018  220.3985 H   0  0  0  0  0  0  0  0  0  0  0  0
  139.3211   69.5748  221.5062 H   0  0  0  0  0  0  0  0  0  0  0  0
  137.0039   71.3654  220.7119 H   0  0  0  0  0  0  0  0  0  0  0  0
  137.2017   69.5746  220.5003 H   0  0  0  0  0  0  0  0  0  0  0  0
  135.6261   70.3185  222.3243 H   0  0  0  0  0  0  0  0  0  0  0  0
  136.9803   69.1759  222.7881 H   0  0  0  0  0  0  0  0  0  0  0  0
  136.7560   72.1190  223.3394 H   0  0  0  0  0  0  0  0  0  0  0  0
  136.7410   70.6950  224.4997 H   0  0  0  0  0  0  0  0  0  0  0  0
  138.8407   72.0432  224.4414 H   0  0  0  0  0  0  0  0  0  0  0  0
  138.4211   69.2114  224.5334 H   0  0  0  0  0  0  0  0  0  0  0  0
  139.9671   69.5142  223.6910 H   0  0  0  0  0  0  0  0  0  0  0  0
  140.6082   72.1526  224.8700 H   0  0  0  0  0  0  0  0  0  0  0  0
  141.6903   72.8655  226.9657 H   0  0  0  0  0  0  0  0  0  0  0  0
  141.5439   71.4127  228.9959 H   0  0  0  0  0  0  0  0  0  0  0  0
  140.3049   69.2601  228.8785 H   0  0  0  0  0  0  0  0  0  0  0  0
  139.2297   68.5859  226.7434 H   0  0  0  0  0  0  0  0  0  0  0  0
  137.6180   77.5414  222.6747 H   0  0  0  0  0  0  0  0  0  0  0  0
  139.7922   81.4893  223.9075 H   0  0  0  0  0  0  0  0  0  0  0  0
  142.1618   82.2477  224.0155 H   0  0  0  0  0  0  0  0  0  0  0  0
  143.9752   80.6451  223.3413 H   0  0  0  0  0  0  0  0  0  0  0  0
  143.3867   78.3711  222.5849 H   0  0  0  0  0  0  0  0  0  0  0  0
  1  2  2  0
  2  3  1  0
  3  4  1  0
  4  5  1  0
  5  6  2  0
  5  7  1  0
  7  8  1  0
  8  9  1  0
  9 10  1  0
 10 11  1  0
 11 12  1  0
 12 13  1  0
 13 14  1  0
 14 15  2  0
 15 16  1  0
 16 17  2  0
 17 18  1  0
 18 19  2  0
  2 20  1  0
 20 21  2  0
 21 22  1  0
 22 23  2  0
 23 24  1  0
 24 25  2  0
 25 26  1  0
 26 27  2  0
 27 28  1  0
 28 29  2  0
 12  7  1  0
 19 14  1  0
 29 20  1  0
 28 23  1  0
  3 30  1  0
  4 31  1  0
  4 32  1  0
  8 33  1  0
  8 34  1  0
  9 35  1  0
  9 36  1  0
 10 37  1  0
 10 38  1  0
 11 39  1  0
 11 40  1  0
 12 41  1  1
 13 42  1  0
 13 43  1  0
 15 44  1  0
 16 45  1  0
 17 46  1  0
 18 47  1  0
 19 48  1  0
 21 49  1  0
 24 50  1  0
 25 51  1  0
 26 52  1  0
 27 53  1  0
M  END
>  <smiles>  (54) 
O=C(NCC(=O)N1CCCCC1Cc1ccccc1)c1cnc2ccccc2n1

>  <score_type>  (54) 
oracle

>  <origin>  (54) 
autodockgpu

>  <m_score__min__energy>  (54) 
-9.3399999999999999

>  <m_primary>  (54) 
energy

>  <rmsd>  (54) 
7.851845424646179

>  <m_score__min__rmsd>  (54) 
7.851845424646179

>  <meeko>  (54) 
{"free_energy": -8.22, "intermolecular_energy": -10.01, "internal_energy": -1.78, "cluster_size": 21, "cluster_id": 1, "rank_in_cluster": 21}

>  <energy>  (54) 
-8.78

>  <cluster_rmsd>  (54) 
0.9

>  <cluster>  (54) 
1

$$$$

     RDKit          3D

 53 56  0  0  0  0  0  0  0  0999 V2000
  140.3570   70.9800  221.2550 O   0  0  0  0  0  0  0  0  0  0  0  0
  140.0900   71.6180  222.3080 C   0  0  0  0  0  0  0  0  0  0  0  0
  139.8990   73.0200  222.2440 N   0  0  0  0  0  0  0  0  0  0  0  0
  140.0210   73.6800  220.9460 C   0  0  0  0  0  0  0  0  0  0  0  0
  140.1940   75.1290  221.2310 C   0  0  0  0  0  0  0  0  0  0  0  0
  139.9090   75.6450  222.3450 O   0  0  0  0  0  0  0  0  0  0  0  0
  140.7000   75.9950  220.2210 N   0  0  0  0  0  0  0  0  0  0  0  0
  140.1120   75.9170  218.8840 C   0  0  0  0  0  0  0  0  0  0  0  0
  141.1880   75.7670  217.8310 C   0  0  0  0  0  0  0  0  0  0  0  0
  142.3350   76.7180  218.0600 C   0  0  0  0  0  0  0  0  0  0  0  0
  142.8330   76.7450  219.4680 C   0  0  0  0  0  0  0  0  0  0  0  0
  141.7690   76.9320  220.5070 C   0  0  1  0  0  0  0  0  0  0  0  0
  141.2130   78.3510  220.5120 C   0  0  0  0  0  0  0  0  0  0  0  0
  141.5860   78.9890  221.7990 C   0  0  0  0  0  0  0  0  0  0  0  0
  142.1760   80.2340  221.7840 C   0  0  0  0  0  0  0  0  0  0  0  0
  142.5510   80.8860  222.9390 C   0  0  0  0  0  0  0  0  0  0  0  0
  142.3310   80.2750  224.1730 C   0  0  0  0  0  0  0  0  0  0  0  0
  141.7450   79.0320  224.2220 C   0  0  0  0  0  0  0  0  0  0  0  0
  141.3810   78.4080  223.0280 C   0  0  0  0  0  0  0  0  0  0  0  0
  139.9740   70.9390  223.5970 C   0  0  0  0  0  0  0  0  0  0  0  0
  139.4060   69.6650  223.6470 C   0  0  0  0  0  0  0  0  0  0  0  0
  139.2900   69.0200  224.8340 N   0  0  0  0  0  0  0  0  0  0  0  0
  139.7150   69.5880  225.9770 C   0  0  0  0  0  0  0  0  0  0  0  0
  139.6030   68.9450  227.1940 C   0  0  0  0  0  0  0  0  0  0  0  0
  140.0410   69.5270  228.3800 C   0  0  0  0  0  0  0  0  0  0  0  0
  140.6070   70.8010  228.3180 C   0  0  0  0  0  0  0  0  0  0  0  0
  140.7180   71.4450  227.1000 C   0  0  0  0  0  0  0  0  0  0  0  0
  140.2820   70.8630  225.9230 C   0  0  0  0  0  0  0  0  0  0  0  0
  140.3990   71.5080  224.7430 N   0  0  0  0  0  0  0  0  0  0  0  0
  139.6820   73.5160  223.1230 H   0  0  0  0  0  0  0  0  0  0  0  0
  140.8944   73.2917  220.4015 H   0  0  0  0  0  0  0  0  0  0  0  0
  139.1354   73.4981  220.3194 H   0  0  0  0  0  0  0  0  0  0  0  0
  139.4379   75.0491  218.8367 H   0  0  0  0  0  0  0  0  0  0  0  0
  139.5555   76.8456  218.6892 H   0  0  0  0  0  0  0  0  0  0  0  0
  141.5702   74.7359  217.8575 H   0  0  0  0  0  0  0  0  0  0  0  0
  140.7423   75.9997  216.8526 H   0  0  0  0  0  0  0  0  0  0  0  0
  143.1669   76.4199  217.4050 H   0  0  0  0  0  0  0  0  0  0  0  0
  141.9594   77.7275  217.8370 H   0  0  0  0  0  0  0  0  0  0  0  0
  143.3437   75.7917  219.6688 H   0  0  0  0  0  0  0  0  0  0  0  0
  143.4980   77.6179  219.5448 H   0  0  0  0  0  0  0  0  0  0  0  0
  142.2078   76.7528  221.4997 H   0  0  0  0  0  0  0  0  0  0  0  0
  141.6413   78.9220  219.6751 H   0  0  0  0  0  0  0  0  0  0  0  0
  140.1189   78.3315  220.3998 H   0  0  0  0  0  0  0  0  0  0  0  0
  142.3541   80.7250  220.8159 H   0  0  0  0  0  0  0  0  0  0  0  0
  143.0198   81.8798  222.8878 H   0  0  0  0  0  0  0  0  0  0  0  0
  142.6247   80.7847  225.1025 H   0  0  0  0  0  0  0  0  0  0  0  0
  141.5658   78.5369  225.1878 H   0  0  0  0  0  0  0  0  0  0  0  0
  140.9124   77.4138  223.0719 H   0  0  0  0  0  0  0  0  0  0  0  0
  139.0524   69.1841  222.7231 H   0  0  0  0  0  0  0  0  0  0  0  0
  139.1536   67.9415  227.2271 H   0  0  0  0  0  0  0  0  0  0  0  0
  139.9437   68.9976  229.3393 H   0  0  0  0  0  0  0  0  0  0  0  0
  140.9638   71.2913  229.2357 H   0  0  0  0  0  0  0  0  0  0  0  0
  141.1659   72.4491  227.0655 H   0  0  0  0  0  0  0  0  0  0  0  0
  1  2  2  0
  2  3  1  0
  3  4  1  0
  4  5  1  0
  5  6  2  0
  5  7  1  0
  7  8  1  0
  8  9  1  0
  9 10  1  0
 10 11  1  0
 11 12  1  0
 12 13  1  0
 13 14  1  0
 14 15  2  0
 15 16  1  0
 16 17  2  0
 17 18  1  0
 18 19  2  0
  2 20  1  0
 20 21  2  0
 21 22  1  0
 22 23  2  0
 23 24  1  0
 24 25  2  0
 25 26  1  0
 26 27  2  0
 27 28  1  0
 28 29  2  0
 12  7  1  0
 19 14  1  0
 29 20  1  0
 28 23  1  0
  3 30  1  0
  4 31  1  0
  4 32  1  0
  8 33  1  0
  8 34  1  0
  9 35  1  0
  9 36  1  0
 10 37  1  0
 10 38  1  0
 11 39  1  0
 11 40  1  0
 12 41  1  1
 13 42  1  0
 13 43  1  0
 15 44  1  0
 16 45  1  0
 17 46  1  0
 18 47  1  0
 19 48  1  0
 21 49  1  0
 24 50  1  0
 25 51  1  0
 26 52  1  0
 27 53  1  0
M  END
>  <smiles>  (55) 
O=C(NCC(=O)N1CCCCC1Cc1ccccc1)c1cnc2ccccc2n1

>  <score_type>  (55) 
oracle

>  <origin>  (55) 
autodockgpu

>  <m_score__min__energy>  (55) 
-9.3399999999999999

>  <m_primary>  (55) 
energy

>  <rmsd>  (55) 
1.5345501038794893

>  <m_score__min__rmsd>  (55) 
1.5345501038794893

>  <meeko>  (55) 
{"free_energy": -8.83, "intermolecular_energy": -10.62, "internal_energy": -1.91, "cluster_size": 18, "cluster_id": 2, "rank_in_cluster": 9}

>  <energy>  (55) 
-8.76

>  <cluster_rmsd>  (55) 
0.94

>  <cluster>  (55) 
1

$$$$

     RDKit          3D

 53 56  0  0  0  0  0  0  0  0999 V2000
  137.4350   75.9860  222.3600 O   0  0  0  0  0  0  0  0  0  0  0  0
  138.6810   76.1680  222.3500 C   0  0  0  0  0  0  0  0  0  0  0  0
  139.5410   75.0860  222.0370 N   0  0  0  0  0  0  0  0  0  0  0  0
  138.9430   73.7870  221.7350 C   0  0  0  0  0  0  0  0  0  0  0  0
  139.8470   72.7660  222.3300 C   0  0  0  0  0  0  0  0  0  0  0  0
  141.0470   73.0070  222.6290 O   0  0  0  0  0  0  0  0  0  0  0  0
  139.3630   71.4520  222.5830 N   0  0  0  0  0  0  0  0  0  0  0  0
  139.3240   70.5040  221.4690 C   0  0  0  0  0  0  0  0  0  0  0  0
  137.9580   69.8610  221.3590 C   0  0  0  0  0  0  0  0  0  0  0  0
  137.4350   69.4190  222.7020 C   0  0  0  0  0  0  0  0  0  0  0  0
  137.5570   70.4520  223.7730 C   0  0  0  0  0  0  0  0  0  0  0  0
  138.9210   71.0600  223.9060 C   0  0  1  0  0  0  0  0  0  0  0  0
  139.9280   70.0880  224.5100 C   0  0  0  0  0  0  0  0  0  0  0  0
  140.3090   70.5930  225.8530 C   0  0  0  0  0  0  0  0  0  0  0  0
  141.0600   71.7440  225.9480 C   0  0  0  0  0  0  0  0  0  0  0  0
  141.4520   72.2710  227.1600 C   0  0  0  0  0  0  0  0  0  0  0  0
  141.0830   71.6260  228.3390 C   0  0  0  0  0  0  0  0  0  0  0  0
  140.3330   70.4740  228.2780 C   0  0  0  0  0  0  0  0  0  0  0  0
  139.9580   69.9750  227.0300 C   0  0  0  0  0  0  0  0  0  0  0  0
  139.2580   77.4750  222.6550 C   0  0  0  0  0  0  0  0  0  0  0  0
  138.4090   78.5610  222.8750 C   0  0  0  0  0  0  0  0  0  0  0  0
  138.9270   79.7810  223.1590 N   0  0  0  0  0  0  0  0  0  0  0  0
  140.2570   79.9700  223.2340 C   0  0  0  0  0  0  0  0  0  0  0  0
  140.8000   81.2070  223.5220 C   0  0  0  0  0  0  0  0  0  0  0  0
  142.1750   81.4100  223.6010 C   0  0  0  0  0  0  0  0  0  0  0  0
  143.0150   80.3160  223.3790 C   0  0  0  0  0  0  0  0  0  0  0  0
  142.4700   79.0790  223.0900 C   0  0  0  0  0  0  0  0  0  0  0  0
  141.1040   78.8810  223.0130 C   0  0  0  0  0  0  0  0  0  0  0  0
  140.5910   77.6650  222.7300 N   0  0  0  0  0  0  0  0  0  0  0  0
  140.5580   75.2660  222.0360 H   0  0  0  0  0  0  0  0  0  0  0  0
  137.9404   73.7155  222.1819 H   0  0  0  0  0  0  0  0  0  0  0  0
  138.8303   73.6397  220.6507 H   0  0  0  0  0  0  0  0  0  0  0  0
  139.5481   71.0373  220.5334 H   0  0  0  0  0  0  0  0  0  0  0  0
  140.0711   69.7169  221.6490 H   0  0  0  0  0  0  0  0  0  0  0  0
  137.2561   70.5890  220.9261 H   0  0  0  0  0  0  0  0  0  0  0  0
  138.0507   68.9708  220.7195 H   0  0  0  0  0  0  0  0  0  0  0  0
  136.3716   69.1605  222.5907 H   0  0  0  0  0  0  0  0  0  0  0  0
  138.0495   68.5623  223.0157 H   0  0  0  0  0  0  0  0  0  0  0  0
  136.8424   71.2589  223.5535 H   0  0  0  0  0  0  0  0  0  0  0  0
  137.3522   69.9385  224.7240 H   0  0  0  0  0  0  0  0  0  0  0  0
  138.8585   71.9244  224.5835 H   0  0  0  0  0  0  0  0  0  0  0  0
  139.4740   69.0903  224.6019 H   0  0  0  0  0  0  0  0  0  0  0  0
  140.8164   70.0110  223.8660 H   0  0  0  0  0  0  0  0  0  0  0  0
  141.3575   72.2610  225.0237 H   0  0  0  0  0  0  0  0  0  0  0  0
  142.0510   73.1929  227.1962 H   0  0  0  0  0  0  0  0  0  0  0  0
  141.3896   72.0355  229.3128 H   0  0  0  0  0  0  0  0  0  0  0  0
  140.0333   69.9539  229.1998 H   0  0  0  0  0  0  0  0  0  0  0  0
  139.3594   69.0531  226.9862 H   0  0  0  0  0  0  0  0  0  0  0  0
  137.3187   78.4266  222.8179 H   0  0  0  0  0  0  0  0  0  0  0  0
  140.1249   82.0582  223.6943 H   0  0  0  0  0  0  0  0  0  0  0  0
  142.5881   82.4031  223.8315 H   0  0  0  0  0  0  0  0  0  0  0  0
  144.1068   80.4386  223.4340 H   0  0  0  0  0  0  0  0  0  0  0  0
  143.1433   78.2267  222.9161 H   0  0  0  0  0  0  0  0  0  0  0  0
  1  2  2  0
  2  3  1  0
  3  4  1  0
  4  5  1  0
  5  6  2  0
  5  7  1  0
  7  8  1  0
  8  9  1  0
  9 10  1  0
 10 11  1  0
 11 12  1  0
 12 13  1  0
 13 14  1  0
 14 15  2  0
 15 16  1  0
 16 17  2  0
 17 18  1  0
 18 19  2  0
  2 20  1  0
 20 21  2  0
 21 22  1  0
 22 23  2  0
 23 24  1  0
 24 25  2  0
 25 26  1  0
 26 27  2  0
 27 28  1  0
 28 29  2  0
 12  7  1  0
 19 14  1  0
 29 20  1  0
 28 23  1  0
  3 30  1  0
  4 31  1  0
  4 32  1  0
  8 33  1  0
  8 34  1  0
  9 35  1  0
  9 36  1  0
 10 37  1  0
 10 38  1  0
 11 39  1  0
 11 40  1  0
 12 41  1  1
 13 42  1  0
 13 43  1  0
 15 44  1  0
 16 45  1  0
 17 46  1  0
 18 47  1  0
 19 48  1  0
 21 49  1  0
 24 50  1  0
 25 51  1  0
 26 52  1  0
 27 53  1  0
M  END
>  <smiles>  (56) 
O=C(NCC(=O)N1CCCCC1Cc1ccccc1)c1cnc2ccccc2n1

>  <score_type>  (56) 
oracle

>  <origin>  (56) 
autodockgpu

>  <m_score__min__energy>  (56) 
-9.3399999999999999

>  <m_primary>  (56) 
energy

>  <rmsd>  (56) 
8.023275059813315

>  <m_score__min__rmsd>  (56) 
8.023275059813315

>  <meeko>  (56) 
{"free_energy": -8.73, "intermolecular_energy": -10.52, "internal_energy": -1.96, "cluster_size": 21, "cluster_id": 1, "rank_in_cluster": 8}

>  <energy>  (56) 
-8.75

>  <cluster_rmsd>  (56) 
0.89

>  <cluster>  (56) 
1

$$$$

     RDKit          3D

 53 56  0  0  0  0  0  0  0  0999 V2000
  140.7440   71.9390  221.0890 O   0  0  0  0  0  0  0  0  0  0  0  0
  140.2960   72.4030  222.1710 C   0  0  0  0  0  0  0  0  0  0  0  0
  139.9480   73.7740  222.2510 N   0  0  0  0  0  0  0  0  0  0  0  0
  140.1240   74.6070  221.0630 C   0  0  0  0  0  0  0  0  0  0  0  0
  140.6820   75.9000  221.5420 C   0  0  0  0  0  0  0  0  0  0  0  0
  140.5370   76.3110  222.7250 O   0  0  0  0  0  0  0  0  0  0  0  0
  141.4140   76.7310  220.6480 N   0  0  0  0  0  0  0  0  0  0  0  0
  141.5190   78.1570  220.9590 C   0  0  0  0  0  0  0  0  0  0  0  0
  141.1240   78.9970  219.7640 C   0  0  0  0  0  0  0  0  0  0  0  0
  141.7470   78.4880  218.4880 C   0  0  0  0  0  0  0  0  0  0  0  0
  141.6130   77.0150  218.2910 C   0  0  0  0  0  0  0  0  0  0  0  0
  142.0410   76.1830  219.4620 C   0  0  1  0  0  0  0  0  0  0  0  0
  143.5540   76.1790  219.6430 C   0  0  0  0  0  0  0  0  0  0  0  0
  143.9650   74.8170  220.0670 C   0  0  0  0  0  0  0  0  0  0  0  0
  145.2160   74.6340  220.6140 C   0  0  0  0  0  0  0  0  0  0  0  0
  145.6660   73.3990  221.0280 C   0  0  0  0  0  0  0  0  0  0  0  0
  144.8370   72.2870  220.8940 C   0  0  0  0  0  0  0  0  0  0  0  0
  143.5820   72.4360  220.3510 C   0  0  0  0  0  0  0  0  0  0  0  0
  143.1660   73.7040  219.9450 C   0  0  0  0  0  0  0  0  0  0  0  0
  140.1280   71.5530  223.3480 C   0  0  0  0  0  0  0  0  0  0  0  0
  139.4570   70.3360  223.2200 C   0  0  0  0  0  0  0  0  0  0  0  0
  139.2910   69.5350  224.3000 N   0  0  0  0  0  0  0  0  0  0  0  0
  139.7660   69.8910  225.5080 C   0  0  0  0  0  0  0  0  0  0  0  0
  139.6050   69.0870  226.6190 C   0  0  0  0  0  0  0  0  0  0  0  0
  140.0930   69.4500  227.8710 C   0  0  0  0  0  0  0  0  0  0  0  0
  140.7630   70.6690  227.9870 C   0  0  0  0  0  0  0  0  0  0  0  0
  140.9220   71.4740  226.8750 C   0  0  0  0  0  0  0  0  0  0  0  0
  140.4360   71.1100  225.6320 C   0  0  0  0  0  0  0  0  0  0  0  0
  140.6020   71.9100  224.5590 N   0  0  0  0  0  0  0  0  0  0  0  0
  139.5840   74.1250  223.1510 H   0  0  0  0  0  0  0  0  0  0  0  0
  140.8217   74.1273  220.3608 H   0  0  0  0  0  0  0  0  0  0  0  0
  139.1722   74.7535  220.5314 H   0  0  0  0  0  0  0  0  0  0  0  0
  140.8525   78.3925  221.8018 H   0  0  0  0  0  0  0  0  0  0  0  0
  142.5626   78.3852  221.2215 H   0  0  0  0  0  0  0  0  0  0  0  0
  140.0292   78.9737  219.6592 H   0  0  0  0  0  0  0  0  0  0  0  0
  141.4844   80.0223  219.9340 H   0  0  0  0  0  0  0  0  0  0  0  0
  141.2628   78.9955  217.6406 H   0  0  0  0  0  0  0  0  0  0  0  0
  142.8238   78.7031  218.5525 H   0  0  0  0  0  0  0  0  0  0  0  0
  140.5564   76.7925  218.0810 H   0  0  0  0  0  0  0  0  0  0  0  0
  142.2852   76.7510  217.4613 H   0  0  0  0  0  0  0  0  0  0  0  0
  141.7335   75.1414  219.2875 H   0  0  0  0  0  0  0  0  0  0  0  0
  144.0438   76.4371  218.6925 H   0  0  0  0  0  0  0  0  0  0  0  0
  143.8487   76.9191  220.4016 H   0  0  0  0  0  0  0  0  0  0  0  0
  145.8793   75.5046  220.7242 H   0  0  0  0  0  0  0  0  0  0  0  0
  146.6716   73.2919  221.4608 H   0  0  0  0  0  0  0  0  0  0  0  0
  145.1842   71.2957  221.2206 H   0  0  0  0  0  0  0  0  0  0  0  0
  142.9161   71.5677  220.2386 H   0  0  0  0  0  0  0  0  0  0  0  0
  142.1616   73.8181  219.5112 H   0  0  0  0  0  0  0  0  0  0  0  0
  139.0624   70.0267  222.2409 H   0  0  0  0  0  0  0  0  0  0  0  0
  139.0744   68.1295  226.5112 H   0  0  0  0  0  0  0  0  0  0  0  0
  139.9546   68.7951  228.7439 H   0  0  0  0  0  0  0  0  0  0  0  0
  141.1633   70.9880  228.9607 H   0  0  0  0  0  0  0  0  0  0  0  0
  141.4507   72.4327  226.9814 H   0  0  0  0  0  0  0  0  0  0  0  0
  1  2  2  0
  2  3  1  0
  3  4  1  0
  4  5  1  0
  5  6  2  0
  5  7  1  0
  7  8  1  0
  8  9  1  0
  9 10  1  0
 10 11  1  0
 11 12  1  0
 12 13  1  0
 13 14  1  0
 14 15  2  0
 15 16  1  0
 16 17  2  0
 17 18  1  0
 18 19  2  0
  2 20  1  0
 20 21  2  0
 21 22  1  0
 22 23  2  0
 23 24  1  0
 24 25  2  0
 25 26  1  0
 26 27  2  0
 27 28  1  0
 28 29  2  0
 12  7  1  0
 19 14  1  0
 29 20  1  0
 28 23  1  0
  3 30  1  0
  4 31  1  0
  4 32  1  0
  8 33  1  0
  8 34  1  0
  9 35  1  0
  9 36  1  0
 10 37  1  0
 10 38  1  0
 11 39  1  0
 11 40  1  0
 12 41  1  6
 13 42  1  0
 13 43  1  0
 15 44  1  0
 16 45  1  0
 17 46  1  0
 18 47  1  0
 19 48  1  0
 21 49  1  0
 24 50  1  0
 25 51  1  0
 26 52  1  0
 27 53  1  0
M  END
>  <smiles>  (57) 
O=C(NCC(=O)N1CCCCC1Cc1ccccc1)c1cnc2ccccc2n1

>  <score_type>  (57) 
oracle

>  <origin>  (57) 
autodockgpu

>  <m_score__min__energy>  (57) 
-9.3399999999999999

>  <m_primary>  (57) 
energy

>  <rmsd>  (57) 
2.5700461847314817

>  <m_score__min__rmsd>  (57) 
2.5700461847314817

>  <meeko>  (57) 
{"free_energy": -8.27, "intermolecular_energy": -10.06, "internal_energy": -2.12, "cluster_size": 8, "cluster_id": 4, "rank_in_cluster": 7}

>  <energy>  (57) 
-8.73

>  <cluster_rmsd>  (57) 
0.9

>  <cluster>  (57) 
1

$$$$

     RDKit          3D

 53 56  0  0  0  0  0  0  0  0999 V2000
  137.3520   76.0760  222.3190 O   0  0  0  0  0  0  0  0  0  0  0  0
  138.6010   76.2120  222.4050 C   0  0  0  0  0  0  0  0  0  0  0  0
  139.4390   75.0830  222.2320 N   0  0  0  0  0  0  0  0  0  0  0  0
  138.8160   73.7900  221.9570 C   0  0  0  0  0  0  0  0  0  0  0  0
  139.8290   72.7580  222.3060 C   0  0  0  0  0  0  0  0  0  0  0  0
  141.0570   73.0180  222.4240 O   0  0  0  0  0  0  0  0  0  0  0  0
  139.4240   71.4110  222.5210 N   0  0  0  0  0  0  0  0  0  0  0  0
  139.5030   70.4780  221.3980 C   0  0  0  0  0  0  0  0  0  0  0  0
  138.1920   69.7460  221.2130 C   0  0  0  0  0  0  0  0  0  0  0  0
  137.6350   69.2520  222.5250 C   0  0  0  0  0  0  0  0  0  0  0  0
  137.6350   70.2760  223.6110 C   0  0  0  0  0  0  0  0  0  0  0  0
  138.9460   70.9720  223.8180 C   0  0  1  0  0  0  0  0  0  0  0  0
  139.9870   70.0620  224.4600 C   0  0  0  0  0  0  0  0  0  0  0  0
  140.3380   70.6280  225.7860 C   0  0  0  0  0  0  0  0  0  0  0  0
  139.9010   69.9880  226.9260 C   0  0  0  0  0  0  0  0  0  0  0  0
  140.1870   70.4560  228.1900 C   0  0  0  0  0  0  0  0  0  0  0  0
  140.9440   71.6170  228.3360 C   0  0  0  0  0  0  0  0  0  0  0  0
  141.3950   72.2800  227.2180 C   0  0  0  0  0  0  0  0  0  0  0  0
  141.0830   71.7710  225.9570 C   0  0  0  0  0  0  0  0  0  0  0  0
  139.2030   77.5140  222.6820 C   0  0  0  0  0  0  0  0  0  0  0  0
  138.3760   78.6190  222.8850 C   0  0  0  0  0  0  0  0  0  0  0  0
  138.9170   79.8350  223.1420 N   0  0  0  0  0  0  0  0  0  0  0  0
  140.2500   80.0010  223.2070 C   0  0  0  0  0  0  0  0  0  0  0  0
  140.8180   81.2330  223.4680 C   0  0  0  0  0  0  0  0  0  0  0  0
  142.1960   81.4120  223.5370 C   0  0  0  0  0  0  0  0  0  0  0  0
  143.0150   80.3000  223.3320 C   0  0  0  0  0  0  0  0  0  0  0  0
  142.4460   79.0670  223.0710 C   0  0  0  0  0  0  0  0  0  0  0  0
  141.0760   78.8930  223.0040 C   0  0  0  0  0  0  0  0  0  0  0  0
  140.5400   77.6810  222.7470 N   0  0  0  0  0  0  0  0  0  0  0  0
  140.4580   75.2250  222.3090 H   0  0  0  0  0  0  0  0  0  0  0  0
  137.9140   73.6626  222.5736 H   0  0  0  0  0  0  0  0  0  0  0  0
  138.5084   73.7094  220.9040 H   0  0  0  0  0  0  0  0  0  0  0  0
  139.7360   71.0377  220.4801 H   0  0  0  0  0  0  0  0  0  0  0  0
  140.2916   69.7404  221.6079 H   0  0  0  0  0  0  0  0  0  0  0  0
  137.4642   70.4303  220.7525 H   0  0  0  0  0  0  0  0  0  0  0  0
  138.3763   68.8728  220.5699 H   0  0  0  0  0  0  0  0  0  0  0  0
  136.5981   68.9247  222.3588 H   0  0  0  0  0  0  0  0  0  0  0  0
  138.2900   68.4342  222.8600 H   0  0  0  0  0  0  0  0  0  0  0  0
  136.8791   71.0362  223.3646 H   0  0  0  0  0  0  0  0  0  0  0  0
  137.4196   69.7368  224.5453 H   0  0  0  0  0  0  0  0  0  0  0  0
  138.7921   71.8201  224.5014 H   0  0  0  0  0  0  0  0  0  0  0  0
  139.5726   69.0506  224.5840 H   0  0  0  0  0  0  0  0  0  0  0  0
  140.8820   69.9979  223.8237 H   0  0  0  0  0  0  0  0  0  0  0  0
  139.3025   69.0708  226.8229 H   0  0  0  0  0  0  0  0  0  0  0  0
  139.8208   69.9177  229.0766 H   0  0  0  0  0  0  0  0  0  0  0  0
  141.1796   72.0011  229.3395 H   0  0  0  0  0  0  0  0  0  0  0  0
  141.9929   73.1980  227.3169 H   0  0  0  0  0  0  0  0  0  0  0  0
  141.4466   72.3041  225.0662 H   0  0  0  0  0  0  0  0  0  0  0  0
  137.2832   78.5033  222.8364 H   0  0  0  0  0  0  0  0  0  0  0  0
  140.1598   82.1000  223.6263 H   0  0  0  0  0  0  0  0  0  0  0  0
  142.6280   82.4016  223.7471 H   0  0  0  0  0  0  0  0  0  0  0  0
  144.1091   80.4044  223.3779 H   0  0  0  0  0  0  0  0  0  0  0  0
  143.1027   78.1990  222.9120 H   0  0  0  0  0  0  0  0  0  0  0  0
  1  2  2  0
  2  3  1  0
  3  4  1  0
  4  5  1  0
  5  6  2  0
  5  7  1  0
  7  8  1  0
  8  9  1  0
  9 10  1  0
 10 11  1  0
 11 12  1  0
 12 13  1  0
 13 14  1  0
 14 15  2  0
 15 16  1  0
 16 17  2  0
 17 18  1  0
 18 19  2  0
  2 20  1  0
 20 21  2  0
 21 22  1  0
 22 23  2  0
 23 24  1  0
 24 25  2  0
 25 26  1  0
 26 27  2  0
 27 28  1  0
 28 29  2  0
 12  7  1  0
 19 14  1  0
 29 20  1  0
 28 23  1  0
  3 30  1  0
  4 31  1  0
  4 32  1  0
  8 33  1  0
  8 34  1  0
  9 35  1  0
  9 36  1  0
 10 37  1  0
 10 38  1  0
 11 39  1  0
 11 40  1  0
 12 41  1  1
 13 42  1  0
 13 43  1  0
 15 44  1  0
 16 45  1  0
 17 46  1  0
 18 47  1  0
 19 48  1  0
 21 49  1  0
 24 50  1  0
 25 51  1  0
 26 52  1  0
 27 53  1  0
M  END
>  <smiles>  (58) 
O=C(NCC(=O)N1CCCCC1Cc1ccccc1)c1cnc2ccccc2n1

>  <score_type>  (58) 
oracle

>  <origin>  (58) 
autodockgpu

>  <m_score__min__energy>  (58) 
-9.3399999999999999

>  <m_primary>  (58) 
energy

>  <rmsd>  (58) 
8.034938357927363

>  <m_score__min__rmsd>  (58) 
8.034938357927363

>  <meeko>  (58) 
{"free_energy": -8.71, "intermolecular_energy": -10.5, "internal_energy": -2.06, "cluster_size": 21, "cluster_id": 1, "rank_in_cluster": 11}

>  <energy>  (58) 
-8.73

>  <cluster_rmsd>  (58) 
0.9

>  <cluster>  (58) 
1

$$$$

     RDKit          3D

 53 56  0  0  0  0  0  0  0  0999 V2000
  140.4840   71.0160  221.3030 O   0  0  0  0  0  0  0  0  0  0  0  0
  140.1460   71.6510  222.3370 C   0  0  0  0  0  0  0  0  0  0  0  0
  139.8730   73.0380  222.2460 N   0  0  0  0  0  0  0  0  0  0  0  0
  139.9950   73.6860  220.9420 C   0  0  0  0  0  0  0  0  0  0  0  0
  140.1480   75.1400  221.2130 C   0  0  0  0  0  0  0  0  0  0  0  0
  139.7950   75.6740  222.2990 O   0  0  0  0  0  0  0  0  0  0  0  0
  140.7140   75.9910  220.2220 N   0  0  0  0  0  0  0  0  0  0  0  0
  140.1790   75.9190  218.8630 C   0  0  0  0  0  0  0  0  0  0  0  0
  141.2940   75.7410  217.8550 C   0  0  0  0  0  0  0  0  0  0  0  0
  142.4510   76.6700  218.1280 C   0  0  0  0  0  0  0  0  0  0  0  0
  142.8910   76.6910  219.5540 C   0  0  0  0  0  0  0  0  0  0  0  0
  141.7900   76.9060  220.5480 C   0  0  1  0  0  0  0  0  0  0  0  0
  141.2640   78.3360  220.5250 C   0  0  0  0  0  0  0  0  0  0  0  0
  141.6300   78.9830  221.8100 C   0  0  0  0  0  0  0  0  0  0  0  0
  142.2080   80.2340  221.7900 C   0  0  0  0  0  0  0  0  0  0  0  0
  142.5760   80.8950  222.9420 C   0  0  0  0  0  0  0  0  0  0  0  0
  142.3620   80.2870  224.1780 C   0  0  0  0  0  0  0  0  0  0  0  0
  141.7880   79.0390  224.2330 C   0  0  0  0  0  0  0  0  0  0  0  0
  141.4300   78.4060  223.0420 C   0  0  0  0  0  0  0  0  0  0  0  0
  140.0320   70.9830  223.6320 C   0  0  0  0  0  0  0  0  0  0  0  0
  139.4030   69.7400  223.7050 C   0  0  0  0  0  0  0  0  0  0  0  0
  139.2870   69.1070  224.8980 N   0  0  0  0  0  0  0  0  0  0  0  0
  139.7710   69.6570  226.0260 C   0  0  0  0  0  0  0  0  0  0  0  0
  139.6610   69.0250  227.2490 C   0  0  0  0  0  0  0  0  0  0  0  0
  140.1590   69.5890  228.4200 C   0  0  0  0  0  0  0  0  0  0  0  0
  140.7860   70.8340  228.3350 C   0  0  0  0  0  0  0  0  0  0  0  0
  140.8950   71.4660  227.1110 C   0  0  0  0  0  0  0  0  0  0  0  0
  140.4000   70.9020  225.9490 C   0  0  0  0  0  0  0  0  0  0  0  0
  140.5160   71.5360  224.7640 N   0  0  0  0  0  0  0  0  0  0  0  0
  139.5990   73.5320  223.1100 H   0  0  0  0  0  0  0  0  0  0  0  0
  140.8766   73.3031  220.4071 H   0  0  0  0  0  0  0  0  0  0  0  0
  139.1158   73.4864  220.3118 H   0  0  0  0  0  0  0  0  0  0  0  0
  139.4889   75.0653  218.7919 H   0  0  0  0  0  0  0  0  0  0  0  0
  139.6506   76.8581  218.6420 H   0  0  0  0  0  0  0  0  0  0  0  0
  141.6531   74.7023  217.9012 H   0  0  0  0  0  0  0  0  0  0  0  0
  140.8940   75.9776  216.8580 H   0  0  0  0  0  0  0  0  0  0  0  0
  143.3026   76.3529  217.5082 H   0  0  0  0  0  0  0  0  0  0  0  0
  142.1060   77.6863  217.8870 H   0  0  0  0  0  0  0  0  0  0  0  0
  143.3712   75.7271  219.7783 H   0  0  0  0  0  0  0  0  0  0  0  0
  143.5720   77.5489  219.6555 H   0  0  0  0  0  0  0  0  0  0  0  0
  142.1847   76.7228  221.5583 H   0  0  0  0  0  0  0  0  0  0  0  0
  141.7177   78.8867  219.6878 H   0  0  0  0  0  0  0  0  0  0  0  0
  140.1717   78.3381  220.3949 H   0  0  0  0  0  0  0  0  0  0  0  0
  142.3818   80.7224  220.8198 H   0  0  0  0  0  0  0  0  0  0  0  0
  143.0345   81.8934  222.8866 H   0  0  0  0  0  0  0  0  0  0  0  0
  142.6511   80.8035  225.1052 H   0  0  0  0  0  0  0  0  0  0  0  0
  141.6136   78.5469  225.2012 H   0  0  0  0  0  0  0  0  0  0  0  0
  140.9704   77.4078  223.0906 H   0  0  0  0  0  0  0  0  0  0  0  0
  139.0009   69.2732  222.7938 H   0  0  0  0  0  0  0  0  0  0  0  0
  139.1641   68.0449  227.2993 H   0  0  0  0  0  0  0  0  0  0  0  0
  140.0615   69.0691  229.3845 H   0  0  0  0  0  0  0  0  0  0  0  0
  141.1919   71.3101  229.2398 H   0  0  0  0  0  0  0  0  0  0  0  0
  141.3902   72.4469  227.0591 H   0  0  0  0  0  0  0  0  0  0  0  0
  1  2  2  0
  2  3  1  0
  3  4  1  0
  4  5  1  0
  5  6  2  0
  5  7  1  0
  7  8  1  0
  8  9  1  0
  9 10  1  0
 10 11  1  0
 11 12  1  0
 12 13  1  0
 13 14  1  0
 14 15  2  0
 15 16  1  0
 16 17  2  0
 17 18  1  0
 18 19  2  0
  2 20  1  0
 20 21  2  0
 21 22  1  0
 22 23  2  0
 23 24  1  0
 24 25  2  0
 25 26  1  0
 26 27  2  0
 27 28  1  0
 28 29  2  0
 12  7  1  0
 19 14  1  0
 29 20  1  0
 28 23  1  0
  3 30  1  0
  4 31  1  0
  4 32  1  0
  8 33  1  0
  8 34  1  0
  9 35  1  0
  9 36  1  0
 10 37  1  0
 10 38  1  0
 11 39  1  0
 11 40  1  0
 12 41  1  1
 13 42  1  0
 13 43  1  0
 15 44  1  0
 16 45  1  0
 17 46  1  0
 18 47  1  0
 19 48  1  0
 21 49  1  0
 24 50  1  0
 25 51  1  0
 26 52  1  0
 27 53  1  0
M  END
>  <smiles>  (59) 
O=C(NCC(=O)N1CCCCC1Cc1ccccc1)c1cnc2ccccc2n1

>  <score_type>  (59) 
oracle

>  <origin>  (59) 
autodockgpu

>  <m_score__min__energy>  (59) 
-9.3399999999999999

>  <m_primary>  (59) 
energy

>  <rmsd>  (59) 
1.5633995904948181

>  <m_score__min__rmsd>  (59) 
1.5633995904948181

>  <meeko>  (59) 
{"free_energy": -8.85, "intermolecular_energy": -10.64, "internal_energy": -1.85, "cluster_size": 18, "cluster_id": 2, "rank_in_cluster": 8}

>  <energy>  (59) 
-8.72

>  <cluster_rmsd>  (59) 
0.96

>  <cluster>  (59) 
1

$$$$

     RDKit          3D

 53 56  0  0  0  0  0  0  0  0999 V2000
  139.9290   71.3190  221.2820 O   0  0  0  0  0  0  0  0  0  0  0  0
  139.8420   71.9230  222.3840 C   0  0  0  0  0  0  0  0  0  0  0  0
  139.6340   73.3240  222.3980 N   0  0  0  0  0  0  0  0  0  0  0  0
  139.5270   74.0230  221.1190 C   0  0  0  0  0  0  0  0  0  0  0  0
  138.7520   75.2640  221.3890 C   0  0  0  0  0  0  0  0  0  0  0  0
  137.5960   75.2520  221.8900 O   0  0  0  0  0  0  0  0  0  0  0  0
  139.3140   76.5330  221.0750 N   0  0  0  0  0  0  0  0  0  0  0  0
  138.9400   77.1610  219.8080 C   0  0  0  0  0  0  0  0  0  0  0  0
  140.1690   77.5900  219.0370 C   0  0  0  0  0  0  0  0  0  0  0  0
  141.1710   78.2890  219.9200 C   0  0  0  0  0  0  0  0  0  0  0  0
  141.4520   77.5790  221.2030 C   0  0  0  0  0  0  0  0  0  0  0  0
  140.2330   77.1890  221.9840 C   0  0  1  0  0  0  0  0  0  0  0  0
  139.5460   78.3930  222.6190 C   0  0  0  0  0  0  0  0  0  0  0  0
  140.5870   79.4000  222.9430 C   0  0  0  0  0  0  0  0  0  0  0  0
  141.5550   79.0880  223.8730 C   0  0  0  0  0  0  0  0  0  0  0  0
  142.5510   79.9740  224.2260 C   0  0  0  0  0  0  0  0  0  0  0  0
  142.5920   81.2330  223.6280 C   0  0  0  0  0  0  0  0  0  0  0  0
  141.6400   81.5750  222.6960 C   0  0  0  0  0  0  0  0  0  0  0  0
  140.6490   80.6480  222.3690 C   0  0  0  0  0  0  0  0  0  0  0  0
  139.9530   71.2030  223.6520 C   0  0  0  0  0  0  0  0  0  0  0  0
  139.5760   69.8610  223.7100 C   0  0  0  0  0  0  0  0  0  0  0  0
  139.6710   69.1790  224.8770 N   0  0  0  0  0  0  0  0  0  0  0  0
  140.1280   69.7750  225.9940 C   0  0  0  0  0  0  0  0  0  0  0  0
  140.2310   69.0940  227.1910 C   0  0  0  0  0  0  0  0  0  0  0  0
  140.7020   69.7040  228.3500 C   0  0  0  0  0  0  0  0  0  0  0  0
  141.0770   71.0470  228.2800 C   0  0  0  0  0  0  0  0  0  0  0  0
  140.9720   71.7280  227.0820 C   0  0  0  0  0  0  0  0  0  0  0  0
  140.5040   71.1180  225.9320 C   0  0  0  0  0  0  0  0  0  0  0  0
  140.4100   71.8010  224.7720 N   0  0  0  0  0  0  0  0  0  0  0  0
  139.5680   73.7900  223.3160 H   0  0  0  0  0  0  0  0  0  0  0  0
  140.5274   74.2736  220.7363 H   0  0  0  0  0  0  0  0  0  0  0  0
  139.0327   73.3983  220.3604 H   0  0  0  0  0  0  0  0  0  0  0  0
  138.3684   76.4412  219.2037 H   0  0  0  0  0  0  0  0  0  0  0  0
  138.3301   78.0510  220.0224 H   0  0  0  0  0  0  0  0  0  0  0  0
  140.6423   76.6993  218.5980 H   0  0  0  0  0  0  0  0  0  0  0  0
  139.8519   78.2964  218.2557 H   0  0  0  0  0  0  0  0  0  0  0  0
  142.1151   78.3837  219.3635 H   0  0  0  0  0  0  0  0  0  0  0  0
  140.7350   79.2634  220.1853 H   0  0  0  0  0  0  0  0  0  0  0  0
  142.0176   76.6644  220.9716 H   0  0  0  0  0  0  0  0  0  0  0  0
  142.0112   78.2863  221.8331 H   0  0  0  0  0  0  0  0  0  0  0  0
  140.5370   76.5204  222.8029 H   0  0  0  0  0  0  0  0  0  0  0  0
  138.8188   78.8221  221.9140 H   0  0  0  0  0  0  0  0  0  0  0  0
  139.0121   78.0896  223.5316 H   0  0  0  0  0  0  0  0  0  0  0  0
  141.5323   78.0973  224.3506 H   0  0  0  0  0  0  0  0  0  0  0  0
  143.3068   79.6899  224.9730 H   0  0  0  0  0  0  0  0  0  0  0  0
  143.3815   81.9489  223.9002 H   0  0  0  0  0  0  0  0  0  0  0  0
  141.6593   82.5643  222.2155 H   0  0  0  0  0  0  0  0  0  0  0  0
  139.8890   80.9263  221.6241 H   0  0  0  0  0  0  0  0  0  0  0  0
  139.2013   69.3561  222.8075 H   0  0  0  0  0  0  0  0  0  0  0  0
  139.9314   68.0363  227.2297 H   0  0  0  0  0  0  0  0  0  0  0  0
  140.7766   69.1441  229.2939 H   0  0  0  0  0  0  0  0  0  0  0  0
  141.4549   71.5616  229.1757 H   0  0  0  0  0  0  0  0  0  0  0  0
  141.2693   72.7863  227.0417 H   0  0  0  0  0  0  0  0  0  0  0  0
  1  2  2  0
  2  3  1  0
  3  4  1  0
  4  5  1  0
  5  6  2  0
  5  7  1  0
  7  8  1  0
  8  9  1  0
  9 10  1  0
 10 11  1  0
 11 12  1  0
 12 13  1  0
 13 14  1  0
 14 15  2  0
 15 16  1  0
 16 17  2  0
 17 18  1  0
 18 19  2  0
  2 20  1  0
 20 21  2  0
 21 22  1  0
 22 23  2  0
 23 24  1  0
 24 25  2  0
 25 26  1  0
 26 27  2  0
 27 28  1  0
 28 29  2  0
 12  7  1  0
 19 14  1  0
 29 20  1  0
 28 23  1  0
  3 30  1  0
  4 31  1  0
  4 32  1  0
  8 33  1  0
  8 34  1  0
  9 35  1  0
  9 36  1  0
 10 37  1  0
 10 38  1  0
 11 39  1  0
 11 40  1  0
 12 41  1  1
 13 42  1  0
 13 43  1  0
 15 44  1  0
 16 45  1  0
 17 46  1  0
 18 47  1  0
 19 48  1  0
 21 49  1  0
 24 50  1  0
 25 51  1  0
 26 52  1  0
 27 53  1  0
M  END
>  <smiles>  (60) 
O=C(NCC(=O)N1CCCCC1Cc1ccccc1)c1cnc2ccccc2n1

>  <score_type>  (60) 
oracle

>  <origin>  (60) 
autodockgpu

>  <m_score__min__energy>  (60) 
-9.3399999999999999

>  <m_primary>  (60) 
energy

>  <rmsd>  (60) 
2.286219284160431

>  <m_score__min__rmsd>  (60) 
2.286219284160431

>  <meeko>  (60) 
{"free_energy": -8.39, "intermolecular_energy": -10.18, "internal_energy": -1.46, "cluster_size": 18, "cluster_id": 2, "rank_in_cluster": 17}

>  <energy>  (60) 
-8.71

>  <cluster_rmsd>  (60) 
0.89

>  <cluster>  (60) 
1

$$$$

     RDKit          3D

 53 56  0  0  0  0  0  0  0  0999 V2000
  137.4110   76.0350  222.2810 O   0  0  0  0  0  0  0  0  0  0  0  0
  138.6590   76.1790  222.3780 C   0  0  0  0  0  0  0  0  0  0  0  0
  139.5060   75.0580  222.1990 N   0  0  0  0  0  0  0  0  0  0  0  0
  138.8940   73.7640  221.9050 C   0  0  0  0  0  0  0  0  0  0  0  0
  139.8530   72.7330  222.3850 C   0  0  0  0  0  0  0  0  0  0  0  0
  141.0660   72.9840  222.6170 O   0  0  0  0  0  0  0  0  0  0  0  0
  139.4100   71.3980  222.6000 N   0  0  0  0  0  0  0  0  0  0  0  0
  139.4510   70.4670  221.4720 C   0  0  0  0  0  0  0  0  0  0  0  0
  138.1160   69.7750  221.2980 C   0  0  0  0  0  0  0  0  0  0  0  0
  137.5580   69.2920  222.6140 C   0  0  0  0  0  0  0  0  0  0  0  0
  137.6000   70.3120  223.7040 C   0  0  0  0  0  0  0  0  0  0  0  0
  138.9330   70.9680  223.8990 C   0  0  1  0  0  0  0  0  0  0  0  0
  139.9520   70.0250  224.5280 C   0  0  0  0  0  0  0  0  0  0  0  0
  140.3120   70.5600  225.8650 C   0  0  0  0  0  0  0  0  0  0  0  0
  141.0660   71.7100  225.9460 C   0  0  0  0  0  0  0  0  0  0  0  0
  141.4400   72.2630  227.1520 C   0  0  0  0  0  0  0  0  0  0  0  0
  141.0490   71.6470  228.3390 C   0  0  0  0  0  0  0  0  0  0  0  0
  140.2960   70.4970  228.2920 C   0  0  0  0  0  0  0  0  0  0  0  0
  139.9390   69.9710  227.0500 C   0  0  0  0  0  0  0  0  0  0  0  0
  139.2490   77.4830  222.6740 C   0  0  0  0  0  0  0  0  0  0  0  0
  138.4120   78.5770  222.8920 C   0  0  0  0  0  0  0  0  0  0  0  0
  138.9430   79.7940  223.1670 N   0  0  0  0  0  0  0  0  0  0  0  0
  140.2750   79.9710  223.2340 C   0  0  0  0  0  0  0  0  0  0  0  0
  140.8310   81.2040  223.5120 C   0  0  0  0  0  0  0  0  0  0  0  0
  142.2080   81.3940  223.5830 C   0  0  0  0  0  0  0  0  0  0  0  0
  143.0360   80.2920  223.3620 C   0  0  0  0  0  0  0  0  0  0  0  0
  142.4790   79.0590  223.0830 C   0  0  0  0  0  0  0  0  0  0  0  0
  141.1100   78.8730  223.0140 C   0  0  0  0  0  0  0  0  0  0  0  0
  140.5850   77.6610  222.7400 N   0  0  0  0  0  0  0  0  0  0  0  0
  140.5240   75.2070  222.2850 H   0  0  0  0  0  0  0  0  0  0  0  0
  137.9340   73.6673  222.4333 H   0  0  0  0  0  0  0  0  0  0  0  0
  138.6898   73.6521  220.8299 H   0  0  0  0  0  0  0  0  0  0  0  0
  139.6914   71.0231  220.5539 H   0  0  0  0  0  0  0  0  0  0  0  0
  140.2197   69.7057  221.6707 H   0  0  0  0  0  0  0  0  0  0  0  0
  137.4043   70.4828  220.8481 H   0  0  0  0  0  0  0  0  0  0  0  0
  138.2673   68.8995  220.6495 H   0  0  0  0  0  0  0  0  0  0  0  0
  136.5101   68.9964  222.4575 H   0  0  0  0  0  0  0  0  0  0  0  0
  138.1914   68.4534  222.9390 H   0  0  0  0  0  0  0  0  0  0  0  0
  136.8643   71.0951  223.4685 H   0  0  0  0  0  0  0  0  0  0  0  0
  137.3787   69.7759  224.6387 H   0  0  0  0  0  0  0  0  0  0  0  0
  138.8120   71.8184  224.5862 H   0  0  0  0  0  0  0  0  0  0  0  0
  139.5153   69.0209  224.6335 H   0  0  0  0  0  0  0  0  0  0  0  0
  140.8472   69.9529  223.8928 H   0  0  0  0  0  0  0  0  0  0  0  0
  141.3808   72.2046  225.0153 H   0  0  0  0  0  0  0  0  0  0  0  0
  142.0423   73.1831  227.1770 H   0  0  0  0  0  0  0  0  0  0  0  0
  141.3408   72.0779  229.3081 H   0  0  0  0  0  0  0  0  0  0  0  0
  139.9797   69.9990  229.2204 H   0  0  0  0  0  0  0  0  0  0  0  0
  139.3368   69.0510  227.0177 H   0  0  0  0  0  0  0  0  0  0  0  0
  137.3203   78.4526  222.8408 H   0  0  0  0  0  0  0  0  0  0  0  0
  140.1650   82.0627  223.6826 H   0  0  0  0  0  0  0  0  0  0  0  0
  142.6317   82.3841  223.8068 H   0  0  0  0  0  0  0  0  0  0  0  0
  144.1291   80.4052  223.4099 H   0  0  0  0  0  0  0  0  0  0  0  0
  143.1438   78.1997  222.9106 H   0  0  0  0  0  0  0  0  0  0  0  0
  1  2  2  0
  2  3  1  0
  3  4  1  0
  4  5  1  0
  5  6  2  0
  5  7  1  0
  7  8  1  0
  8  9  1  0
  9 10  1  0
 10 11  1  0
 11 12  1  0
 12 13  1  0
 13 14  1  0
 14 15  2  0
 15 16  1  0
 16 17  2  0
 17 18  1  0
 18 19  2  0
  2 20  1  0
 20 21  2  0
 21 22  1  0
 22 23  2  0
 23 24  1  0
 24 25  2  0
 25 26  1  0
 26 27  2  0
 27 28  1  0
 28 29  2  0
 12  7  1  0
 19 14  1  0
 29 20  1  0
 28 23  1  0
  3 30  1  0
  4 31  1  0
  4 32  1  0
  8 33  1  0
  8 34  1  0
  9 35  1  0
  9 36  1  0
 10 37  1  0
 10 38  1  0
 11 39  1  0
 11 40  1  0
 12 41  1  1
 13 42  1  0
 13 43  1  0
 15 44  1  0
 16 45  1  0
 17 46  1  0
 18 47  1  0
 19 48  1  0
 21 49  1  0
 24 50  1  0
 25 51  1  0
 26 52  1  0
 27 53  1  0
M  END
>  <smiles>  (61) 
O=C(NCC(=O)N1CCCCC1Cc1ccccc1)c1cnc2ccccc2n1

>  <score_type>  (61) 
oracle

>  <origin>  (61) 
autodockgpu

>  <m_score__min__energy>  (61) 
-9.3399999999999999

>  <m_primary>  (61) 
energy

>  <rmsd>  (61) 
8.038679708628946

>  <m_score__min__rmsd>  (61) 
8.038679708628946

>  <meeko>  (61) 
{"free_energy": -8.68, "intermolecular_energy": -10.47, "internal_energy": -2.04, "cluster_size": 21, "cluster_id": 1, "rank_in_cluster": 14}

>  <energy>  (61) 
-8.71

>  <cluster_rmsd>  (61) 
0.9

>  <cluster>  (61) 
1

$$$$

     RDKit          3D

 53 56  0  0  0  0  0  0  0  0999 V2000
  137.3750   76.0870  222.3160 O   0  0  0  0  0  0  0  0  0  0  0  0
  138.6250   76.2180  222.4030 C   0  0  0  0  0  0  0  0  0  0  0  0
  139.4590   75.0860  222.2280 N   0  0  0  0  0  0  0  0  0  0  0  0
  138.8310   73.7960  221.9490 C   0  0  0  0  0  0  0  0  0  0  0  0
  139.8400   72.7600  222.2950 C   0  0  0  0  0  0  0  0  0  0  0  0
  141.0700   73.0120  222.3990 O   0  0  0  0  0  0  0  0  0  0  0  0
  139.4270   71.4170  222.5230 N   0  0  0  0  0  0  0  0  0  0  0  0
  139.4820   70.4770  221.4030 C   0  0  0  0  0  0  0  0  0  0  0  0
  138.1610   69.7560  221.2420 C   0  0  0  0  0  0  0  0  0  0  0  0
  137.6210   69.2720  222.5640 C   0  0  0  0  0  0  0  0  0  0  0  0
  137.6470   70.3010  223.6460 C   0  0  0  0  0  0  0  0  0  0  0  0
  138.9670   70.9870  223.8280 C   0  0  1  0  0  0  0  0  0  0  0  0
  140.0100   70.0720  224.4590 C   0  0  0  0  0  0  0  0  0  0  0  0
  140.3760   70.6330  225.7830 C   0  0  0  0  0  0  0  0  0  0  0  0
  139.9560   69.9850  226.9250 C   0  0  0  0  0  0  0  0  0  0  0  0
  140.2560   70.4490  228.1880 C   0  0  0  0  0  0  0  0  0  0  0  0
  141.0090   71.6130  228.3300 C   0  0  0  0  0  0  0  0  0  0  0  0
  141.4430   72.2830  227.2100 C   0  0  0  0  0  0  0  0  0  0  0  0
  141.1170   71.7790  225.9500 C   0  0  0  0  0  0  0  0  0  0  0  0
  139.2330   77.5170  222.6830 C   0  0  0  0  0  0  0  0  0  0  0  0
  138.4090   78.6230  222.8980 C   0  0  0  0  0  0  0  0  0  0  0  0
  138.9560   79.8360  223.1580 N   0  0  0  0  0  0  0  0  0  0  0  0
  140.2900   79.9980  223.2150 C   0  0  0  0  0  0  0  0  0  0  0  0
  140.8630   81.2270  223.4790 C   0  0  0  0  0  0  0  0  0  0  0  0
  142.2420   81.4020  223.5390 C   0  0  0  0  0  0  0  0  0  0  0  0
  143.0560   80.2890  223.3230 C   0  0  0  0  0  0  0  0  0  0  0  0
  142.4820   79.0590  223.0590 C   0  0  0  0  0  0  0  0  0  0  0  0
  141.1110   78.8890  223.0000 C   0  0  0  0  0  0  0  0  0  0  0  0
  140.5710   77.6800  222.7400 N   0  0  0  0  0  0  0  0  0  0  0  0
  140.4790   75.2240  222.3050 H   0  0  0  0  0  0  0  0  0  0  0  0
  137.9285   73.6701  222.5651 H   0  0  0  0  0  0  0  0  0  0  0  0
  138.5229   73.7196  220.8958 H   0  0  0  0  0  0  0  0  0  0  0  0
  139.7063   71.0297  220.4788 H   0  0  0  0  0  0  0  0  0  0  0  0
  140.2675   69.7337  221.6044 H   0  0  0  0  0  0  0  0  0  0  0  0
  137.4321   70.4453  220.7908 H   0  0  0  0  0  0  0  0  0  0  0  0
  138.3270   68.8788  220.5993 H   0  0  0  0  0  0  0  0  0  0  0  0
  136.5788   68.9528  222.4156 H   0  0  0  0  0  0  0  0  0  0  0  0
  138.2741   68.4499  222.8919 H   0  0  0  0  0  0  0  0  0  0  0  0
  136.8932   71.0663  223.4089 H   0  0  0  0  0  0  0  0  0  0  0  0
  137.4425   69.7677  224.5861 H   0  0  0  0  0  0  0  0  0  0  0  0
  138.8314   71.8399  224.5093 H   0  0  0  0  0  0  0  0  0  0  0  0
  139.5926   69.0620  224.5846 H   0  0  0  0  0  0  0  0  0  0  0  0
  140.8989   70.0065  223.8144 H   0  0  0  0  0  0  0  0  0  0  0  0
  139.3606   69.0655  226.8249 H   0  0  0  0  0  0  0  0  0  0  0  0
  139.9038   69.9048  229.0767 H   0  0  0  0  0  0  0  0  0  0  0  0
  141.2549   71.9938  229.3323 H   0  0  0  0  0  0  0  0  0  0  0  0
  142.0385   73.2029  227.3059 H   0  0  0  0  0  0  0  0  0  0  0  0
  141.4659   72.3188  225.0573 H   0  0  0  0  0  0  0  0  0  0  0  0
  137.3156   78.5104  222.8565 H   0  0  0  0  0  0  0  0  0  0  0  0
  140.2083   82.0948  223.6471 H   0  0  0  0  0  0  0  0  0  0  0  0
  142.6783   82.3894  223.7506 H   0  0  0  0  0  0  0  0  0  0  0  0
  144.1506   80.3900  223.3626 H   0  0  0  0  0  0  0  0  0  0  0  0
  143.1353   78.1901  222.8910 H   0  0  0  0  0  0  0  0  0  0  0  0
  1  2  2  0
  2  3  1  0
  3  4  1  0
  4  5  1  0
  5  6  2  0
  5  7  1  0
  7  8  1  0
  8  9  1  0
  9 10  1  0
 10 11  1  0
 11 12  1  0
 12 13  1  0
 13 14  1  0
 14 15  2  0
 15 16  1  0
 16 17  2  0
 17 18  1  0
 18 19  2  0
  2 20  1  0
 20 21  2  0
 21 22  1  0
 22 23  2  0
 23 24  1  0
 24 25  2  0
 25 26  1  0
 26 27  2  0
 27 28  1  0
 28 29  2  0
 12  7  1  0
 19 14  1  0
 29 20  1  0
 28 23  1  0
  3 30  1  0
  4 31  1  0
  4 32  1  0
  8 33  1  0
  8 34  1  0
  9 35  1  0
  9 36  1  0
 10 37  1  0
 10 38  1  0
 11 39  1  0
 11 40  1  0
 12 41  1  1
 13 42  1  0
 13 43  1  0
 15 44  1  0
 16 45  1  0
 17 46  1  0
 18 47  1  0
 19 48  1  0
 21 49  1  0
 24 50  1  0
 25 51  1  0
 26 52  1  0
 27 53  1  0
M  END
>  <smiles>  (62) 
O=C(NCC(=O)N1CCCCC1Cc1ccccc1)c1cnc2ccccc2n1

>  <score_type>  (62) 
oracle

>  <origin>  (62) 
autodockgpu

>  <m_score__min__energy>  (62) 
-9.3399999999999999

>  <m_primary>  (62) 
energy

>  <rmsd>  (62) 
8.034369125805236

>  <m_score__min__rmsd>  (62) 
8.034369125805236

>  <meeko>  (62) 
{"free_energy": -8.71, "intermolecular_energy": -10.5, "internal_energy": -2.06, "cluster_size": 21, "cluster_id": 1, "rank_in_cluster": 10}

>  <energy>  (62) 
-8.71

>  <cluster_rmsd>  (62) 
0.92

>  <cluster>  (62) 
1

$$$$

     RDKit          3D

 53 56  0  0  0  0  0  0  0  0999 V2000
  137.9010   75.2860  222.3550 O   0  0  0  0  0  0  0  0  0  0  0  0
  139.0610   75.6970  222.0840 C   0  0  0  0  0  0  0  0  0  0  0  0
  139.9680   74.8360  221.4190 N   0  0  0  0  0  0  0  0  0  0  0  0
  139.5210   73.4900  221.0710 C   0  0  0  0  0  0  0  0  0  0  0  0
  139.8100   72.6370  222.2550 C   0  0  0  0  0  0  0  0  0  0  0  0
  140.7090   72.9140  223.0940 O   0  0  0  0  0  0  0  0  0  0  0  0
  139.0560   71.4500  222.4750 N   0  0  0  0  0  0  0  0  0  0  0  0
  138.8210   70.5590  221.3390 C   0  0  0  0  0  0  0  0  0  0  0  0
  137.3510   70.2250  221.2130 C   0  0  0  0  0  0  0  0  0  0  0  0
  136.7380   69.8730  222.5450 C   0  0  0  0  0  0  0  0  0  0  0  0
  137.0730   70.8290  223.6420 C   0  0  0  0  0  0  0  0  0  0  0  0
  138.5340   71.1290  223.7890 C   0  0  1  0  0  0  0  0  0  0  0  0
  139.3080   69.9510  224.3680 C   0  0  0  0  0  0  0  0  0  0  0  0
  139.8760   70.3690  225.6740 C   0  0  0  0  0  0  0  0  0  0  0  0
  140.6610   71.5010  225.7320 C   0  0  0  0  0  0  0  0  0  0  0  0
  141.2230   71.9480  226.9080 C   0  0  0  0  0  0  0  0  0  0  0  0
  141.0000   71.2400  228.0880 C   0  0  0  0  0  0  0  0  0  0  0  0
  140.2220   70.1060  228.0640 C   0  0  0  0  0  0  0  0  0  0  0  0
  139.6710   69.6890  226.8510 C   0  0  0  0  0  0  0  0  0  0  0  0
  139.4880   77.0480  222.4420 C   0  0  0  0  0  0  0  0  0  0  0  0
  138.5250   78.0030  222.7720 C   0  0  0  0  0  0  0  0  0  0  0  0
  138.9030   79.2610  223.1060 N   0  0  0  0  0  0  0  0  0  0  0  0
  140.2010   79.6130  223.1270 C   0  0  0  0  0  0  0  0  0  0  0  0
  140.6030   80.8910  223.4650 C   0  0  0  0  0  0  0  0  0  0  0  0
  141.9440   81.2620  223.4880 C   0  0  0  0  0  0  0  0  0  0  0  0
  142.8990   80.2980  223.1560 C   0  0  0  0  0  0  0  0  0  0  0  0
  142.4960   79.0200  222.8180 C   0  0  0  0  0  0  0  0  0  0  0  0
  141.1620   78.6550  222.7960 C   0  0  0  0  0  0  0  0  0  0  0  0
  140.7890   77.4020  222.4620 N   0  0  0  0  0  0  0  0  0  0  0  0
  140.9110   75.2010  221.2100 H   0  0  0  0  0  0  0  0  0  0  0  0
  138.4423   73.4903  220.8556 H   0  0  0  0  0  0  0  0  0  0  0  0
  140.0353   73.1167  220.1732 H   0  0  0  0  0  0  0  0  0  0  0  0
  139.1586   71.0541  220.4166 H   0  0  0  0  0  0  0  0  0  0  0  0
  139.3817   69.6265  221.5006 H   0  0  0  0  0  0  0  0  0  0  0  0
  136.8228   71.0959  220.7975 H   0  0  0  0  0  0  0  0  0  0  0  0
  137.2555   69.3508  220.5522 H   0  0  0  0  0  0  0  0  0  0  0  0
  135.6445   69.8518  222.4272 H   0  0  0  0  0  0  0  0  0  0  0  0
  137.1529   68.8970  222.8371 H   0  0  0  0  0  0  0  0  0  0  0  0
  136.5475   71.7749  223.4441 H   0  0  0  0  0  0  0  0  0  0  0  0
  136.7597   70.3468  224.5797 H   0  0  0  0  0  0  0  0  0  0  0  0
  138.6536   71.9702  224.4876 H   0  0  0  0  0  0  0  0  0  0  0  0
  138.6318   69.0954  224.5123 H   0  0  0  0  0  0  0  0  0  0  0  0
  140.1129   69.6498  223.6815 H   0  0  0  0  0  0  0  0  0  0  0  0
  140.8451   72.0671  224.8070 H   0  0  0  0  0  0  0  0  0  0  0  0
  141.8429   72.8566  226.9157 H   0  0  0  0  0  0  0  0  0  0  0  0
  141.4438   71.5863  229.0330 H   0  0  0  0  0  0  0  0  0  0  0  0
  140.0368   69.5363  228.9866 H   0  0  0  0  0  0  0  0  0  0  0  0
  139.0491   68.7818  226.8365 H   0  0  0  0  0  0  0  0  0  0  0  0
  137.4584   77.7344  222.7610 H   0  0  0  0  0  0  0  0  0  0  0  0
  139.8389   81.6387  223.7241 H   0  0  0  0  0  0  0  0  0  0  0  0
  142.2435   82.2850  223.7598 H   0  0  0  0  0  0  0  0  0  0  0  0
  143.9684   80.5553  223.1636 H   0  0  0  0  0  0  0  0  0  0  0  0
  143.2587   78.2709  222.5588 H   0  0  0  0  0  0  0  0  0  0  0  0
  1  2  2  0
  2  3  1  0
  3  4  1  0
  4  5  1  0
  5  6  2  0
  5  7  1  0
  7  8  1  0
  8  9  1  0
  9 10  1  0
 10 11  1  0
 11 12  1  0
 12 13  1  0
 13 14  1  0
 14 15  2  0
 15 16  1  0
 16 17  2  0
 17 18  1  0
 18 19  2  0
  2 20  1  0
 20 21  2  0
 21 22  1  0
 22 23  2  0
 23 24  1  0
 24 25  2  0
 25 26  1  0
 26 27  2  0
 27 28  1  0
 28 29  2  0
 12  7  1  0
 19 14  1  0
 29 20  1  0
 28 23  1  0
  3 30  1  0
  4 31  1  0
  4 32  1  0
  8 33  1  0
  8 34  1  0
  9 35  1  0
  9 36  1  0
 10 37  1  0
 10 38  1  0
 11 39  1  0
 11 40  1  0
 12 41  1  1
 13 42  1  0
 13 43  1  0
 15 44  1  0
 16 45  1  0
 17 46  1  0
 18 47  1  0
 19 48  1  0
 21 49  1  0
 24 50  1  0
 25 51  1  0
 26 52  1  0
 27 53  1  0
M  END
>  <smiles>  (63) 
O=C(NCC(=O)N1CCCCC1Cc1ccccc1)c1cnc2ccccc2n1

>  <score_type>  (63) 
oracle

>  <origin>  (63) 
autodockgpu

>  <m_score__min__energy>  (63) 
-9.3399999999999999

>  <m_primary>  (63) 
energy

>  <rmsd>  (63) 
7.90731433466838

>  <m_score__min__rmsd>  (63) 
7.90731433466838

>  <meeko>  (63) 
{"free_energy": -8.33, "intermolecular_energy": -10.12, "internal_energy": -1.74, "cluster_size": 21, "cluster_id": 1, "rank_in_cluster": 20}

>  <energy>  (63) 
-8.69

>  <cluster_rmsd>  (63) 
0.89

>  <cluster>  (63) 
1

$$$$

     RDKit          3D

 53 56  0  0  0  0  0  0  0  0999 V2000
  139.8320   70.9330  221.2460 O   0  0  0  0  0  0  0  0  0  0  0  0
  139.7640   71.5610  222.3360 C   0  0  0  0  0  0  0  0  0  0  0  0
  139.6300   72.9710  222.3210 N   0  0  0  0  0  0  0  0  0  0  0  0
  139.5760   73.6510  221.0290 C   0  0  0  0  0  0  0  0  0  0  0  0
  140.0710   75.0330  221.2660 C   0  0  0  0  0  0  0  0  0  0  0  0
  139.9530   75.6210  222.3750 O   0  0  0  0  0  0  0  0  0  0  0  0
  140.7090   75.7490  220.2140 N   0  0  0  0  0  0  0  0  0  0  0  0
  140.2070   75.5680  218.8510 C   0  0  0  0  0  0  0  0  0  0  0  0
  141.3370   75.2310  217.9030 C   0  0  0  0  0  0  0  0  0  0  0  0
  142.5360   76.1210  218.1190 C   0  0  0  0  0  0  0  0  0  0  0  0
  142.9380   76.2650  219.5490 C   0  0  0  0  0  0  0  0  0  0  0  0
  141.8240   76.6360  220.4810 C   0  0  1  0  0  0  0  0  0  0  0  0
  141.3780   78.0810  220.2980 C   0  0  0  0  0  0  0  0  0  0  0  0
  141.6570   78.8130  221.5600 C   0  0  0  0  0  0  0  0  0  0  0  0
  142.1470   80.0990  221.4940 C   0  0  0  0  0  0  0  0  0  0  0  0
  142.4310   80.8380  222.6220 C   0  0  0  0  0  0  0  0  0  0  0  0
  142.2200   80.2770  223.8800 C   0  0  0  0  0  0  0  0  0  0  0  0
  141.7320   78.9940  223.9800 C   0  0  0  0  0  0  0  0  0  0  0  0
  141.4580   78.2820  222.8120 C   0  0  0  0  0  0  0  0  0  0  0  0
  139.8200   70.8610  223.6170 C   0  0  0  0  0  0  0  0  0  0  0  0
  139.3590   69.5460  223.6980 C   0  0  0  0  0  0  0  0  0  0  0  0
  139.4040   68.8820  224.8780 N   0  0  0  0  0  0  0  0  0  0  0  0
  139.8880   69.4700  225.9870 C   0  0  0  0  0  0  0  0  0  0  0  0
  139.9400   68.8070  227.1980 C   0  0  0  0  0  0  0  0  0  0  0  0
  140.4390   69.4090  228.3490 C   0  0  0  0  0  0  0  0  0  0  0  0
  140.8980   70.7250  228.2570 C   0  0  0  0  0  0  0  0  0  0  0  0
  140.8450   71.3870  227.0460 C   0  0  0  0  0  0  0  0  0  0  0  0
  140.3480   70.7860  225.9040 C   0  0  0  0  0  0  0  0  0  0  0  0
  140.3050   71.4500  224.7300 N   0  0  0  0  0  0  0  0  0  0  0  0
  139.5770   73.4580  223.2290 H   0  0  0  0  0  0  0  0  0  0  0  0
  140.2185   73.1357  220.2998 H   0  0  0  0  0  0  0  0  0  0  0  0
  138.5544   73.6558  220.6212 H   0  0  0  0  0  0  0  0  0  0  0  0
  139.4729   74.7489  218.8428 H   0  0  0  0  0  0  0  0  0  0  0  0
  139.7373   76.5062  218.5206 H   0  0  0  0  0  0  0  0  0  0  0  0
  141.6367   74.1850  218.0643 H   0  0  0  0  0  0  0  0  0  0  0  0
  140.9777   75.3861  216.8750 H   0  0  0  0  0  0  0  0  0  0  0  0
  143.3851   75.6978  217.5624 H   0  0  0  0  0  0  0  0  0  0  0  0
  142.2543   77.1240  217.7661 H   0  0  0  0  0  0  0  0  0  0  0  0
  143.3595   75.3058  219.8842 H   0  0  0  0  0  0  0  0  0  0  0  0
  143.6610   77.0932  219.5855 H   0  0  0  0  0  0  0  0  0  0  0  0
  142.1807   76.5362  221.5168 H   0  0  0  0  0  0  0  0  0  0  0  0
  141.9355   78.5412  219.4689 H   0  0  0  0  0  0  0  0  0  0  0  0
  140.3042   78.1217  220.0631 H   0  0  0  0  0  0  0  0  0  0  0  0
  142.3175   80.5518  220.5061 H   0  0  0  0  0  0  0  0  0  0  0  0
  142.8211   81.8624  222.5301 H   0  0  0  0  0  0  0  0  0  0  0  0
  142.4423   80.8564  224.7882 H   0  0  0  0  0  0  0  0  0  0  0  0
  141.5606   78.5370  224.9658 H   0  0  0  0  0  0  0  0  0  0  0  0
  141.0680   77.2569  222.8962 H   0  0  0  0  0  0  0  0  0  0  0  0
  138.9586   69.0482  222.8025 H   0  0  0  0  0  0  0  0  0  0  0  0
  139.5755   67.7707  227.2540 H   0  0  0  0  0  0  0  0  0  0  0  0
  140.4711   68.8641  229.3040 H   0  0  0  0  0  0  0  0  0  0  0  0
  141.3004   71.2325  229.1461 H   0  0  0  0  0  0  0  0  0  0  0  0
  141.2090   72.4234  226.9882 H   0  0  0  0  0  0  0  0  0  0  0  0
  1  2  2  0
  2  3  1  0
  3  4  1  0
  4  5  1  0
  5  6  2  0
  5  7  1  0
  7  8  1  0
  8  9  1  0
  9 10  1  0
 10 11  1  0
 11 12  1  0
 12 13  1  0
 13 14  1  0
 14 15  2  0
 15 16  1  0
 16 17  2  0
 17 18  1  0
 18 19  2  0
  2 20  1  0
 20 21  2  0
 21 22  1  0
 22 23  2  0
 23 24  1  0
 24 25  2  0
 25 26  1  0
 26 27  2  0
 27 28  1  0
 28 29  2  0
 12  7  1  0
 19 14  1  0
 29 20  1  0
 28 23  1  0
  3 30  1  0
  4 31  1  0
  4 32  1  0
  8 33  1  0
  8 34  1  0
  9 35  1  0
  9 36  1  0
 10 37  1  0
 10 38  1  0
 11 39  1  0
 11 40  1  0
 12 41  1  1
 13 42  1  0
 13 43  1  0
 15 44  1  0
 16 45  1  0
 17 46  1  0
 18 47  1  0
 19 48  1  0
 21 49  1  0
 24 50  1  0
 25 51  1  0
 26 52  1  0
 27 53  1  0
M  END
>  <smiles>  (64) 
O=C(NCC(=O)N1CCCCC1Cc1ccccc1)c1cnc2ccccc2n1

>  <score_type>  (64) 
oracle

>  <origin>  (64) 
autodockgpu

>  <m_score__min__energy>  (64) 
-9.3399999999999999

>  <m_primary>  (64) 
energy

>  <rmsd>  (64) 
1.3991143663708336

>  <m_score__min__rmsd>  (64) 
1.3991143663708336

>  <meeko>  (64) 
{"free_energy": -8.88, "intermolecular_energy": -10.67, "internal_energy": -1.87, "cluster_size": 18, "cluster_id": 2, "rank_in_cluster": 4}

>  <energy>  (64) 
-8.68

>  <cluster_rmsd>  (64) 
0.88

>  <cluster>  (64) 
1

$$$$

     RDKit          3D

 53 56  0  0  0  0  0  0  0  0999 V2000
  140.1550   71.3320  221.2320 O   0  0  0  0  0  0  0  0  0  0  0  0
  139.9770   71.9450  222.3180 C   0  0  0  0  0  0  0  0  0  0  0  0
  139.7410   73.3420  222.3000 N   0  0  0  0  0  0  0  0  0  0  0  0
  139.7120   74.0260  221.0090 C   0  0  0  0  0  0  0  0  0  0  0  0
  140.3770   75.3390  221.2200 C   0  0  0  0  0  0  0  0  0  0  0  0
  140.3740   75.9360  222.3310 O   0  0  0  0  0  0  0  0  0  0  0  0
  141.0510   75.9750  220.1400 N   0  0  0  0  0  0  0  0  0  0  0  0
  140.5720   75.7220  218.7810 C   0  0  0  0  0  0  0  0  0  0  0  0
  141.7120   75.3030  217.8790 C   0  0  0  0  0  0  0  0  0  0  0  0
  142.9270   76.1770  218.0650 C   0  0  0  0  0  0  0  0  0  0  0  0
  143.3050   76.3990  219.4920 C   0  0  0  0  0  0  0  0  0  0  0  0
  142.1820   76.8510  220.3760 C   0  0  1  0  0  0  0  0  0  0  0  0
  141.7740   78.2920  220.0970 C   0  0  0  0  0  0  0  0  0  0  0  0
  141.5480   78.9680  221.3990 C   0  0  0  0  0  0  0  0  0  0  0  0
  142.5750   79.6910  221.9670 C   0  0  0  0  0  0  0  0  0  0  0  0
  142.4380   80.3430  223.1740 C   0  0  0  0  0  0  0  0  0  0  0  0
  141.2250   80.2760  223.8550 C   0  0  0  0  0  0  0  0  0  0  0  0
  140.1800   79.5620  223.3160 C   0  0  0  0  0  0  0  0  0  0  0  0
  140.3610   78.9180  222.0920 C   0  0  0  0  0  0  0  0  0  0  0  0
  140.0110   71.2420  223.5990 C   0  0  0  0  0  0  0  0  0  0  0  0
  139.5330   69.9330  223.6700 C   0  0  0  0  0  0  0  0  0  0  0  0
  139.5560   69.2650  224.8500 N   0  0  0  0  0  0  0  0  0  0  0  0
  140.0350   69.8440  225.9660 C   0  0  0  0  0  0  0  0  0  0  0  0
  140.0650   69.1780  227.1750 C   0  0  0  0  0  0  0  0  0  0  0  0
  140.5590   69.7710  228.3330 C   0  0  0  0  0  0  0  0  0  0  0  0
  141.0350   71.0810  228.2500 C   0  0  0  0  0  0  0  0  0  0  0  0
  141.0040   71.7470  227.0390 C   0  0  0  0  0  0  0  0  0  0  0  0
  140.5120   71.1550  225.8900 C   0  0  0  0  0  0  0  0  0  0  0  0
  140.4900   71.8220  224.7180 N   0  0  0  0  0  0  0  0  0  0  0  0
  139.5990   73.8160  223.2060 H   0  0  0  0  0  0  0  0  0  0  0  0
  140.2568   73.4396  220.2545 H   0  0  0  0  0  0  0  0  0  0  0  0
  138.6815   74.1525  220.6455 H   0  0  0  0  0  0  0  0  0  0  0  0
  139.8195   74.9201  218.8073 H   0  0  0  0  0  0  0  0  0  0  0  0
  140.1307   76.6483  218.3845 H   0  0  0  0  0  0  0  0  0  0  0  0
  141.9839   74.2624  218.1096 H   0  0  0  0  0  0  0  0  0  0  0  0
  141.3762   75.4035  216.8363 H   0  0  0  0  0  0  0  0  0  0  0  0
  143.7763   75.7016  217.5525 H   0  0  0  0  0  0  0  0  0  0  0  0
  142.6760   77.1627  217.6461 H   0  0  0  0  0  0  0  0  0  0  0  0
  143.6971   75.4529  219.8934 H   0  0  0  0  0  0  0  0  0  0  0  0
  144.0468   77.2113  219.4934 H   0  0  0  0  0  0  0  0  0  0  0  0
  142.5162   76.8060  221.4230 H   0  0  0  0  0  0  0  0  0  0  0  0
  142.5744   78.8057  219.5442 H   0  0  0  0  0  0  0  0  0  0  0  0
  140.8568   78.3176  219.4903 H   0  0  0  0  0  0  0  0  0  0  0  0
  143.5379   79.7498  221.4385 H   0  0  0  0  0  0  0  0  0  0  0  0
  143.2800   80.9115  223.5957 H   0  0  0  0  0  0  0  0  0  0  0  0
  141.1032   80.7915  224.8191 H   0  0  0  0  0  0  0  0  0  0  0  0
  139.2161   79.4998  223.8423 H   0  0  0  0  0  0  0  0  0  0  0  0
  139.5225   78.3485  221.6647 H   0  0  0  0  0  0  0  0  0  0  0  0
  139.1373   69.4426  222.7684 H   0  0  0  0  0  0  0  0  0  0  0  0
  139.6866   68.1463  227.2245 H   0  0  0  0  0  0  0  0  0  0  0  0
  140.5741   69.2232  229.2868 H   0  0  0  0  0  0  0  0  0  0  0  0
  141.4333   71.5813  229.1450 H   0  0  0  0  0  0  0  0  0  0  0  0
  141.3820   72.7787  226.9877 H   0  0  0  0  0  0  0  0  0  0  0  0
  1  2  2  0
  2  3  1  0
  3  4  1  0
  4  5  1  0
  5  6  2  0
  5  7  1  0
  7  8  1  0
  8  9  1  0
  9 10  1  0
 10 11  1  0
 11 12  1  0
 12 13  1  0
 13 14  1  0
 14 15  2  0
 15 16  1  0
 16 17  2  0
 17 18  1  0
 18 19  2  0
  2 20  1  0
 20 21  2  0
 21 22  1  0
 22 23  2  0
 23 24  1  0
 24 25  2  0
 25 26  1  0
 26 27  2  0
 27 28  1  0
 28 29  2  0
 12  7  1  0
 19 14  1  0
 29 20  1  0
 28 23  1  0
  3 30  1  0
  4 31  1  0
  4 32  1  0
  8 33  1  0
  8 34  1  0
  9 35  1  0
  9 36  1  0
 10 37  1  0
 10 38  1  0
 11 39  1  0
 11 40  1  0
 12 41  1  1
 13 42  1  0
 13 43  1  0
 15 44  1  0
 16 45  1  0
 17 46  1  0
 18 47  1  0
 19 48  1  0
 21 49  1  0
 24 50  1  0
 25 51  1  0
 26 52  1  0
 27 53  1  0
M  END
>  <smiles>  (65) 
O=C(NCC(=O)N1CCCCC1Cc1ccccc1)c1cnc2ccccc2n1

>  <score_type>  (65) 
oracle

>  <origin>  (65) 
autodockgpu

>  <m_score__min__energy>  (65) 
-9.3399999999999999

>  <m_primary>  (65) 
energy

>  <rmsd>  (65) 
1.5935410638101641

>  <m_score__min__rmsd>  (65) 
1.5935410638101641

>  <meeko>  (65) 
{"free_energy": -8.52, "intermolecular_energy": -10.31, "internal_energy": -1.84, "cluster_size": 18, "cluster_id": 2, "rank_in_cluster": 15}

>  <energy>  (65) 
-8.64

>  <cluster_rmsd>  (65) 
0.92

>  <cluster>  (65) 
1

$$$$

     RDKit          3D

 53 56  0  0  0  0  0  0  0  0999 V2000
  137.4340   76.1490  222.1980 O   0  0  0  0  0  0  0  0  0  0  0  0
  138.6810   76.2760  222.3230 C   0  0  0  0  0  0  0  0  0  0  0  0
  139.5210   75.1570  222.1070 N   0  0  0  0  0  0  0  0  0  0  0  0
  138.9040   73.8830  221.7430 C   0  0  0  0  0  0  0  0  0  0  0  0
  139.8380   72.8220  222.2040 C   0  0  0  0  0  0  0  0  0  0  0  0
  141.0760   73.0140  222.3410 O   0  0  0  0  0  0  0  0  0  0  0  0
  139.3420   71.5230  222.5090 N   0  0  0  0  0  0  0  0  0  0  0  0
  139.2280   70.5530  221.4200 C   0  0  0  0  0  0  0  0  0  0  0  0
  137.8460   69.9370  221.3920 C   0  0  0  0  0  0  0  0  0  0  0  0
  137.3820   69.5340  222.7690 C   0  0  0  0  0  0  0  0  0  0  0  0
  137.5790   70.5860  223.8100 C   0  0  0  0  0  0  0  0  0  0  0  0
  138.9590   71.1680  223.8610 C   0  0  1  0  0  0  0  0  0  0  0  0
  139.9760   70.1880  224.4350 C   0  0  0  0  0  0  0  0  0  0  0  0
  140.3410   70.6470  225.7990 C   0  0  0  0  0  0  0  0  0  0  0  0
  141.0870   71.7970  225.9420 C   0  0  0  0  0  0  0  0  0  0  0  0
  141.4640   72.2820  227.1760 C   0  0  0  0  0  0  0  0  0  0  0  0
  141.0850   71.5950  228.3270 C   0  0  0  0  0  0  0  0  0  0  0  0
  140.3400   70.4440  228.2190 C   0  0  0  0  0  0  0  0  0  0  0  0
  139.9790   69.9880  226.9500 C   0  0  0  0  0  0  0  0  0  0  0  0
  139.2780   77.5590  222.6880 C   0  0  0  0  0  0  0  0  0  0  0  0
  138.4460   78.6240  223.0360 C   0  0  0  0  0  0  0  0  0  0  0  0
  138.9830   79.8210  223.3760 N   0  0  0  0  0  0  0  0  0  0  0  0
  140.3150   80.0070  223.3870 C   0  0  0  0  0  0  0  0  0  0  0  0
  140.8770   81.2200  223.7320 C   0  0  0  0  0  0  0  0  0  0  0  0
  142.2550   81.4190  223.7450 C   0  0  0  0  0  0  0  0  0  0  0  0
  143.0770   80.3470  223.3960 C   0  0  0  0  0  0  0  0  0  0  0  0
  142.5140   79.1330  223.0510 C   0  0  0  0  0  0  0  0  0  0  0  0
  141.1450   78.9380  223.0390 C   0  0  0  0  0  0  0  0  0  0  0  0
  140.6140   77.7450  222.6990 N   0  0  0  0  0  0  0  0  0  0  0  0
  140.5390   75.2910  222.2170 H   0  0  0  0  0  0  0  0  0  0  0  0
  137.9292   73.7755  222.2412 H   0  0  0  0  0  0  0  0  0  0  0  0
  138.7282   73.8184  220.6591 H   0  0  0  0  0  0  0  0  0  0  0  0
  139.4157   71.0616  220.4628 H   0  0  0  0  0  0  0  0  0  0  0  0
  139.9671   69.7542  221.5803 H   0  0  0  0  0  0  0  0  0  0  0  0
  137.1380   70.6704  220.9787 H   0  0  0  0  0  0  0  0  0  0  0  0
  137.8887   69.0320  220.7682 H   0  0  0  0  0  0  0  0  0  0  0  0
  136.3093   69.2964  222.7164 H   0  0  0  0  0  0  0  0  0  0  0  0
  137.9937   68.6708  223.0702 H   0  0  0  0  0  0  0  0  0  0  0  0
  136.8701   71.4029  223.6096 H   0  0  0  0  0  0  0  0  0  0  0  0
  137.4130   70.0963  224.7809 H   0  0  0  0  0  0  0  0  0  0  0  0
  138.9473   72.0476  224.5214 H   0  0  0  0  0  0  0  0  0  0  0  0
  139.5358   69.1812  224.4859 H   0  0  0  0  0  0  0  0  0  0  0  0
  140.8696   70.1481  223.7948 H   0  0  0  0  0  0  0  0  0  0  0  0
  141.3923   72.3471  225.0397 H   0  0  0  0  0  0  0  0  0  0  0  0
  142.0593   73.2040  227.2512 H   0  0  0  0  0  0  0  0  0  0  0  0
  141.3802   71.9713  229.3176 H   0  0  0  0  0  0  0  0  0  0  0  0
  140.0332   69.8911  229.1191 H   0  0  0  0  0  0  0  0  0  0  0  0
  139.3828   69.0672  226.8679 H   0  0  0  0  0  0  0  0  0  0  0  0
  137.3540   78.4919  223.0343 H   0  0  0  0  0  0  0  0  0  0  0  0
  140.2154   82.0553  224.0051 H   0  0  0  0  0  0  0  0  0  0  0  0
  142.6833   82.3934  224.0225 H   0  0  0  0  0  0  0  0  0  0  0  0
  144.1703   80.4678  223.3955 H   0  0  0  0  0  0  0  0  0  0  0  0
  143.1745   78.2969  222.7778 H   0  0  0  0  0  0  0  0  0  0  0  0
  1  2  2  0
  2  3  1  0
  3  4  1  0
  4  5  1  0
  5  6  2  0
  5  7  1  0
  7  8  1  0
  8  9  1  0
  9 10  1  0
 10 11  1  0
 11 12  1  0
 12 13  1  0
 13 14  1  0
 14 15  2  0
 15 16  1  0
 16 17  2  0
 17 18  1  0
 18 19  2  0
  2 20  1  0
 20 21  2  0
 21 22  1  0
 22 23  2  0
 23 24  1  0
 24 25  2  0
 25 26  1  0
 26 27  2  0
 27 28  1  0
 28 29  2  0
 12  7  1  0
 19 14  1  0
 29 20  1  0
 28 23  1  0
  3 30  1  0
  4 31  1  0
  4 32  1  0
  8 33  1  0
  8 34  1  0
  9 35  1  0
  9 36  1  0
 10 37  1  0
 10 38  1  0
 11 39  1  0
 11 40  1  0
 12 41  1  1
 13 42  1  0
 13 43  1  0
 15 44  1  0
 16 45  1  0
 17 46  1  0
 18 47  1  0
 19 48  1  0
 21 49  1  0
 24 50  1  0
 25 51  1  0
 26 52  1  0
 27 53  1  0
M  END
>  <smiles>  (66) 
O=C(NCC(=O)N1CCCCC1Cc1ccccc1)c1cnc2ccccc2n1

>  <score_type>  (66) 
oracle

>  <origin>  (66) 
autodockgpu

>  <m_score__min__energy>  (66) 
-9.3399999999999999

>  <m_primary>  (66) 
energy

>  <rmsd>  (66) 
8.009136812919134

>  <m_score__min__rmsd>  (66) 
8.009136812919134

>  <meeko>  (66) 
{"free_energy": -8.78, "intermolecular_energy": -10.57, "internal_energy": -2.0, "cluster_size": 21, "cluster_id": 1, "rank_in_cluster": 3}

>  <energy>  (66) 
-8.57

>  <cluster_rmsd>  (66) 
0.93

>  <cluster>  (66) 
1

$$$$

     RDKit          3D

 53 56  0  0  0  0  0  0  0  0999 V2000
  138.2870   70.8760  221.7280 O   0  0  0  0  0  0  0  0  0  0  0  0
  138.9390   71.3040  222.7170 C   0  0  0  0  0  0  0  0  0  0  0  0
  139.3970   72.6450  222.7230 N   0  0  0  0  0  0  0  0  0  0  0  0
  139.0930   73.4890  221.5700 C   0  0  0  0  0  0  0  0  0  0  0  0
  139.5370   74.8610  221.9310 C   0  0  0  0  0  0  0  0  0  0  0  0
  140.7360   75.1440  222.1970 O   0  0  0  0  0  0  0  0  0  0  0  0
  138.5890   75.9210  221.9890 N   0  0  0  0  0  0  0  0  0  0  0  0
  137.2000   75.5900  222.3060 C   0  0  0  0  0  0  0  0  0  0  0  0
  136.2570   76.1960  221.2890 C   0  0  0  0  0  0  0  0  0  0  0  0
  136.6060   77.6320  220.9860 C   0  0  0  0  0  0  0  0  0  0  0  0
  138.0560   77.8620  220.7140 C   0  0  0  0  0  0  0  0  0  0  0  0
  138.9860   77.2940  221.7430 C   0  0  1  0  0  0  0  0  0  0  0  0
  138.9460   78.0760  223.0500 C   0  0  0  0  0  0  0  0  0  0  0  0
  140.1780   78.9000  223.1320 C   0  0  0  0  0  0  0  0  0  0  0  0
  140.0650   80.2500  223.3850 C   0  0  0  0  0  0  0  0  0  0  0  0
  141.1640   81.0780  223.4730 C   0  0  0  0  0  0  0  0  0  0  0  0
  142.4400   80.5440  223.3010 C   0  0  0  0  0  0  0  0  0  0  0  0
  142.5860   79.2000  223.0470 C   0  0  0  0  0  0  0  0  0  0  0  0
  141.4470   78.3980  222.9670 C   0  0  0  0  0  0  0  0  0  0  0  0
  139.2330   70.4420  223.8600 C   0  0  0  0  0  0  0  0  0  0  0  0
  138.8440   69.1030  223.8220 C   0  0  0  0  0  0  0  0  0  0  0  0
  139.1080   68.2900  224.8740 N   0  0  0  0  0  0  0  0  0  0  0  0
  139.7440   68.7510  225.9660 C   0  0  0  0  0  0  0  0  0  0  0  0
  140.0200   67.9350  227.0460 C   0  0  0  0  0  0  0  0  0  0  0  0
  140.6770   68.4060  228.1790 C   0  0  0  0  0  0  0  0  0  0  0  0
  141.0610   69.7480  228.2060 C   0  0  0  0  0  0  0  0  0  0  0  0
  140.7840   70.5640  227.1250 C   0  0  0  0  0  0  0  0  0  0  0  0
  140.1310   70.0920  226.0000 C   0  0  0  0  0  0  0  0  0  0  0  0
  139.8700   70.9050  224.9550 N   0  0  0  0  0  0  0  0  0  0  0  0
  139.9290   72.9670  223.5470 H   0  0  0  0  0  0  0  0  0  0  0  0
  139.6375   73.1331  220.6830 H   0  0  0  0  0  0  0  0  0  0  0  0
  138.0201   73.4658  221.3283 H   0  0  0  0  0  0  0  0  0  0  0  0
  137.0800   74.4966  222.3022 H   0  0  0  0  0  0  0  0  0  0  0  0
  136.9580   75.9986  223.2982 H   0  0  0  0  0  0  0  0  0  0  0  0
  136.3139   75.6120  220.3586 H   0  0  0  0  0  0  0  0  0  0  0  0
  135.2407   76.1729  221.7093 H   0  0  0  0  0  0  0  0  0  0  0  0
  136.0341   77.9472  220.1008 H   0  0  0  0  0  0  0  0  0  0  0  0
  136.3549   78.2160  221.8837 H   0  0  0  0  0  0  0  0  0  0  0  0
  138.2989   77.4047  219.7435 H   0  0  0  0  0  0  0  0  0  0  0  0
  138.2051   78.9517  220.7296 H   0  0  0  0  0  0  0  0  0  0  0  0
  140.0159   77.3550  221.3616 H   0  0  0  0  0  0  0  0  0  0  0  0
  138.0598   78.7274  223.0678 H   0  0  0  0  0  0  0  0  0  0  0  0
  138.8910   77.3864  223.9053 H   0  0  0  0  0  0  0  0  0  0  0  0
  139.0627   80.6822  223.5215 H   0  0  0  0  0  0  0  0  0  0  0  0
  141.0349   82.1511  223.6773 H   0  0  0  0  0  0  0  0  0  0  0  0
  143.3252   81.1936  223.3680 H   0  0  0  0  0  0  0  0  0  0  0  0
  143.5863   78.7638  222.9089 H   0  0  0  0  0  0  0  0  0  0  0  0
  141.5691   77.3238  222.7643 H   0  0  0  0  0  0  0  0  0  0  0  0
  138.3228   68.7067  222.9381 H   0  0  0  0  0  0  0  0  0  0  0  0
  139.7108   66.8800  227.0094 H   0  0  0  0  0  0  0  0  0  0  0  0
  140.8876   67.7400  229.0288 H   0  0  0  0  0  0  0  0  0  0  0  0
  141.5825   70.1549  229.0849 H   0  0  0  0  0  0  0  0  0  0  0  0
  141.0917   71.6195  227.1602 H   0  0  0  0  0  0  0  0  0  0  0  0
  1  2  2  0
  2  3  1  0
  3  4  1  0
  4  5  1  0
  5  6  2  0
  5  7  1  0
  7  8  1  0
  8  9  1  0
  9 10  1  0
 10 11  1  0
 11 12  1  0
 12 13  1  0
 13 14  1  0
 14 15  2  0
 15 16  1  0
 16 17  2  0
 17 18  1  0
 18 19  2  0
  2 20  1  0
 20 21  2  0
 21 22  1  0
 22 23  2  0
 23 24  1  0
 24 25  2  0
 25 26  1  0
 26 27  2  0
 27 28  1  0
 28 29  2  0
 12  7  1  0
 19 14  1  0
 29 20  1  0
 28 23  1  0
  3 30  1  0
  4 31  1  0
  4 32  1  0
  8 33  1  0
  8 34  1  0
  9 35  1  0
  9 36  1  0
 10 37  1  0
 10 38  1  0
 11 39  1  0
 11 40  1  0
 12 41  1  6
 13 42  1  0
 13 43  1  0
 15 44  1  0
 16 45  1  0
 17 46  1  0
 18 47  1  0
 19 48  1  0
 21 49  1  0
 24 50  1  0
 25 51  1  0
 26 52  1  0
 27 53  1  0
M  END
>  <smiles>  (67) 
O=C(NCC(=O)N1CCCCC1Cc1ccccc1)c1cnc2ccccc2n1

>  <score_type>  (67) 
oracle

>  <origin>  (67) 
autodockgpu

>  <m_score__min__energy>  (67) 
-9.3399999999999999

>  <m_primary>  (67) 
energy

>  <rmsd>  (67) 
2.9587707320312018

>  <m_score__min__rmsd>  (67) 
2.9587707320312018

>  <meeko>  (67) 
{"free_energy": -8.48, "intermolecular_energy": -10.27, "internal_energy": -1.68, "cluster_size": 1, "cluster_id": 3, "rank_in_cluster": 1}

>  <energy>  (67) 
-8.56

>  <cluster_rmsd>  (67) 
1.5

>  <cluster>  (67) 
1

$$$$

     RDKit          3D

 53 56  0  0  0  0  0  0  0  0999 V2000
  139.5860   74.2550  222.3450 O   0  0  0  0  0  0  0  0  0  0  0  0
  140.2900   74.7230  221.4110 C   0  0  0  0  0  0  0  0  0  0  0  0
  140.6070   73.9040  220.2990 N   0  0  0  0  0  0  0  0  0  0  0  0
  140.0990   72.5340  220.2780 C   0  0  0  0  0  0  0  0  0  0  0  0
  140.6510   71.8680  221.4880 C   0  0  0  0  0  0  0  0  0  0  0  0
  141.8330   72.0460  221.8870 O   0  0  0  0  0  0  0  0  0  0  0  0
  139.8330   70.9850  222.2470 N   0  0  0  0  0  0  0  0  0  0  0  0
  139.2520   69.8260  221.5690 C   0  0  0  0  0  0  0  0  0  0  0  0
  137.7610   69.7490  221.8190 C   0  0  0  0  0  0  0  0  0  0  0  0
  137.4220   69.9810  223.2700 C   0  0  0  0  0  0  0  0  0  0  0  0
  138.0990   71.1690  223.8710 C   0  0  0  0  0  0  0  0  0  0  0  0
  139.5810   71.2230  223.6550 C   0  0  1  0  0  0  0  0  0  0  0  0
  140.3230   70.1830  224.4860 C   0  0  0  0  0  0  0  0  0  0  0  0
  140.5100   70.7320  225.8520 C   0  0  0  0  0  0  0  0  0  0  0  0
  141.2390   71.8900  226.0150 C   0  0  0  0  0  0  0  0  0  0  0  0
  141.4550   72.4560  227.2540 C   0  0  0  0  0  0  0  0  0  0  0  0
  140.9240   71.8460  228.3880 C   0  0  0  0  0  0  0  0  0  0  0  0
  140.1910   70.6890  228.2590 C   0  0  0  0  0  0  0  0  0  0  0  0
  139.9970   70.1500  226.9870 C   0  0  0  0  0  0  0  0  0  0  0  0
  140.7880   76.0960  221.4530 C   0  0  0  0  0  0  0  0  0  0  0  0
  141.1070   76.7430  220.2580 C   0  0  0  0  0  0  0  0  0  0  0  0
  141.5700   78.0160  220.2780 N   0  0  0  0  0  0  0  0  0  0  0  0
  141.7320   78.6780  221.4390 C   0  0  0  0  0  0  0  0  0  0  0  0
  142.2030   79.9750  221.4770 C   0  0  0  0  0  0  0  0  0  0  0  0
  142.3730   80.6650  222.6730 C   0  0  0  0  0  0  0  0  0  0  0  0
  142.0510   80.0080  223.8620 C   0  0  0  0  0  0  0  0  0  0  0  0
  141.5800   78.7090  223.8240 C   0  0  0  0  0  0  0  0  0  0  0  0
  141.4120   78.0270  222.6330 C   0  0  0  0  0  0  0  0  0  0  0  0
  140.9510   76.7590  222.6160 N   0  0  0  0  0  0  0  0  0  0  0  0
  141.1850   74.3150  219.5500 H   0  0  0  0  0  0  0  0  0  0  0  0
  138.9995   72.5345  220.3111 H   0  0  0  0  0  0  0  0  0  0  0  0
  140.3997   72.0091  219.3593 H   0  0  0  0  0  0  0  0  0  0  0  0
  139.4323   69.9130  220.4874 H   0  0  0  0  0  0  0  0  0  0  0  0
  139.7234   68.9137  221.9634 H   0  0  0  0  0  0  0  0  0  0  0  0
  137.2581   70.5142  221.2094 H   0  0  0  0  0  0  0  0  0  0  0  0
  137.4211   68.7389  221.5465 H   0  0  0  0  0  0  0  0  0  0  0  0
  136.3345   70.1246  223.3522 H   0  0  0  0  0  0  0  0  0  0  0  0
  137.7766   69.0993  223.8240 H   0  0  0  0  0  0  0  0  0  0  0  0
  137.6557   72.0745  223.4311 H   0  0  0  0  0  0  0  0  0  0  0  0
  137.9467   71.0957  224.9579 H   0  0  0  0  0  0  0  0  0  0  0  0
  139.9484   72.2108  223.9702 H   0  0  0  0  0  0  0  0  0  0  0  0
  139.7341   69.2552  224.5345 H   0  0  0  0  0  0  0  0  0  0  0  0
  141.2979   69.9558  224.0299 H   0  0  0  0  0  0  0  0  0  0  0  0
  141.6633   72.3799  225.1262 H   0  0  0  0  0  0  0  0  0  0  0  0
  142.0419   73.3818  227.3459 H   0  0  0  0  0  0  0  0  0  0  0  0
  141.0899   72.2872  229.3819 H   0  0  0  0  0  0  0  0  0  0  0  0
  139.7644   70.1964  229.1452 H   0  0  0  0  0  0  0  0  0  0  0  0
  139.4113   69.2241  226.8884 H   0  0  0  0  0  0  0  0  0  0  0  0
  140.9823   76.2187  219.2991 H   0  0  0  0  0  0  0  0  0  0  0  0
  142.4519   80.4790  220.5315 H   0  0  0  0  0  0  0  0  0  0  0  0
  142.7502   81.6983  222.6816 H   0  0  0  0  0  0  0  0  0  0  0  0
  142.1718   80.5228  224.8266 H   0  0  0  0  0  0  0  0  0  0  0  0
  141.3316   78.2031  224.7687 H   0  0  0  0  0  0  0  0  0  0  0  0
  1  2  2  0
  2  3  1  0
  3  4  1  0
  4  5  1  0
  5  6  2  0
  5  7  1  0
  7  8  1  0
  8  9  1  0
  9 10  1  0
 10 11  1  0
 11 12  1  0
 12 13  1  0
 13 14  1  0
 14 15  2  0
 15 16  1  0
 16 17  2  0
 17 18  1  0
 18 19  2  0
  2 20  1  0
 20 21  2  0
 21 22  1  0
 22 23  2  0
 23 24  1  0
 24 25  2  0
 25 26  1  0
 26 27  2  0
 27 28  1  0
 28 29  2  0
 12  7  1  0
 19 14  1  0
 29 20  1  0
 28 23  1  0
  3 30  1  0
  4 31  1  0
  4 32  1  0
  8 33  1  0
  8 34  1  0
  9 35  1  0
  9 36  1  0
 10 37  1  0
 10 38  1  0
 11 39  1  0
 11 40  1  0
 12 41  1  1
 13 42  1  0
 13 43  1  0
 15 44  1  0
 16 45  1  0
 17 46  1  0
 18 47  1  0
 19 48  1  0
 21 49  1  0
 24 50  1  0
 25 51  1  0
 26 52  1  0
 27 53  1  0
M  END
>  <smiles>  (68) 
O=C(NCC(=O)N1CCCCC1Cc1ccccc1)c1cnc2ccccc2n1

>  <score_type>  (68) 
oracle

>  <origin>  (68) 
autodockgpu

>  <m_score__min__energy>  (68) 
-9.3399999999999999

>  <m_primary>  (68) 
energy

>  <rmsd>  (68) 
7.743564429745863

>  <m_score__min__rmsd>  (68) 
7.743564429745863

>  <meeko>  (68) 
{"free_energy": -8.56, "intermolecular_energy": -10.35, "internal_energy": -1.43, "cluster_size": 21, "cluster_id": 1, "rank_in_cluster": 17}

>  <energy>  (68) 
-8.48

>  <cluster_rmsd>  (68) 
1.03

>  <cluster>  (68) 
1

$$$$

     RDKit          3D

 53 56  0  0  0  0  0  0  0  0999 V2000
  137.7960   70.7980  221.8900 O   0  0  0  0  0  0  0  0  0  0  0  0
  138.5860   71.1920  222.7890 C   0  0  0  0  0  0  0  0  0  0  0  0
  139.1250   72.4990  222.7210 N   0  0  0  0  0  0  0  0  0  0  0  0
  138.7410   73.3520  221.5980 C   0  0  0  0  0  0  0  0  0  0  0  0
  139.5750   74.5790  221.7050 C   0  0  0  0  0  0  0  0  0  0  0  0
  140.7940   74.5520  222.0210 O   0  0  0  0  0  0  0  0  0  0  0  0
  138.9970   75.8540  221.4470 N   0  0  0  0  0  0  0  0  0  0  0  0
  137.5690   75.9150  221.1330 C   0  0  0  0  0  0  0  0  0  0  0  0
  137.3300   76.7100  219.8680 C   0  0  0  0  0  0  0  0  0  0  0  0
  138.1290   77.9890  219.8480 C   0  0  0  0  0  0  0  0  0  0  0  0
  139.5650   77.8160  220.2190 C   0  0  0  0  0  0  0  0  0  0  0  0
  139.7970   77.0620  221.4940 C   0  0  1  0  0  0  0  0  0  0  0  0
  139.4150   77.8770  222.7230 C   0  0  0  0  0  0  0  0  0  0  0  0
  140.4670   78.9000  222.9440 C   0  0  0  0  0  0  0  0  0  0  0  0
  141.7780   78.5880  222.6530 C   0  0  0  0  0  0  0  0  0  0  0  0
  142.8070   79.4870  222.8350 C   0  0  0  0  0  0  0  0  0  0  0  0
  142.5270   80.7590  223.3290 C   0  0  0  0  0  0  0  0  0  0  0  0
  141.2290   81.1020  223.6290 C   0  0  0  0  0  0  0  0  0  0  0  0
  140.2170   80.1620  223.4300 C   0  0  0  0  0  0  0  0  0  0  0  0
  138.9570   70.3220  223.9040 C   0  0  0  0  0  0  0  0  0  0  0  0
  138.5820   68.9780  223.8750 C   0  0  0  0  0  0  0  0  0  0  0  0
  138.9170   68.1570  224.9000 N   0  0  0  0  0  0  0  0  0  0  0  0
  139.6120   68.6150  225.9570 C   0  0  0  0  0  0  0  0  0  0  0  0
  139.9620   67.7920  227.0090 C   0  0  0  0  0  0  0  0  0  0  0  0
  140.6810   68.2590  228.1060 C   0  0  0  0  0  0  0  0  0  0  0  0
  141.0510   69.6050  228.1240 C   0  0  0  0  0  0  0  0  0  0  0  0
  140.7000   70.4280  227.0710 C   0  0  0  0  0  0  0  0  0  0  0  0
  139.9860   69.9610  225.9820 C   0  0  0  0  0  0  0  0  0  0  0  0
  139.6540   70.7810  224.9640 N   0  0  0  0  0  0  0  0  0  0  0  0
  139.7690   72.7930  223.4720 H   0  0  0  0  0  0  0  0  0  0  0  0
  138.9376   72.8392  220.6449 H   0  0  0  0  0  0  0  0  0  0  0  0
  137.6680   73.5928  221.6260 H   0  0  0  0  0  0  0  0  0  0  0  0
  137.1864   74.8931  220.9943 H   0  0  0  0  0  0  0  0  0  0  0  0
  137.0462   76.4103  221.9645 H   0  0  0  0  0  0  0  0  0  0  0  0
  137.6195   76.0963  219.0023 H   0  0  0  0  0  0  0  0  0  0  0  0
  136.2629   76.9741  219.8279 H   0  0  0  0  0  0  0  0  0  0  0  0
  138.0827   78.4095  218.8326 H   0  0  0  0  0  0  0  0  0  0  0  0
  137.6838   78.6532  220.6034 H   0  0  0  0  0  0  0  0  0  0  0  0
  140.0663   77.2732  219.4041 H   0  0  0  0  0  0  0  0  0  0  0  0
  139.9683   78.8269  220.3785 H   0  0  0  0  0  0  0  0  0  0  0  0
  140.8695   76.8328  221.5792 H   0  0  0  0  0  0  0  0  0  0  0  0
  138.4454   78.3693  222.5571 H   0  0  0  0  0  0  0  0  0  0  0  0
  139.3299   77.2222  223.6027 H   0  0  0  0  0  0  0  0  0  0  0  0
  142.0110   77.5866  222.2619 H   0  0  0  0  0  0  0  0  0  0  0  0
  143.8413   79.2021  222.5920 H   0  0  0  0  0  0  0  0  0  0  0  0
  143.3395   81.4853  223.4784 H   0  0  0  0  0  0  0  0  0  0  0  0
  140.9923   82.1025  224.0200 H   0  0  0  0  0  0  0  0  0  0  0  0
  139.1806   80.4409  223.6709 H   0  0  0  0  0  0  0  0  0  0  0  0
  138.0138   68.5846  223.0192 H   0  0  0  0  0  0  0  0  0  0  0  0
  139.6633   66.7337  226.9794 H   0  0  0  0  0  0  0  0  0  0  0  0
  140.9497   67.5870  228.9344 H   0  0  0  0  0  0  0  0  0  0  0  0
  141.6203   70.0092  228.9740 H   0  0  0  0  0  0  0  0  0  0  0  0
  140.9973   71.4867  227.0995 H   0  0  0  0  0  0  0  0  0  0  0  0
  1  2  2  0
  2  3  1  0
  3  4  1  0
  4  5  1  0
  5  6  2  0
  5  7  1  0
  7  8  1  0
  8  9  1  0
  9 10  1  0
 10 11  1  0
 11 12  1  0
 12 13  1  0
 13 14  1  0
 14 15  2  0
 15 16  1  0
 16 17  2  0
 17 18  1  0
 18 19  2  0
  2 20  1  0
 20 21  2  0
 21 22  1  0
 22 23  2  0
 23 24  1  0
 24 25  2  0
 25 26  1  0
 26 27  2  0
 27 28  1  0
 28 29  2  0
 12  7  1  0
 19 14  1  0
 29 20  1  0
 28 23  1  0
  3 30  1  0
  4 31  1  0
  4 32  1  0
  8 33  1  0
  8 34  1  0
  9 35  1  0
  9 36  1  0
 10 37  1  0
 10 38  1  0
 11 39  1  0
 11 40  1  0
 12 41  1  1
 13 42  1  0
 13 43  1  0
 15 44  1  0
 16 45  1  0
 17 46  1  0
 18 47  1  0
 19 48  1  0
 21 49  1  0
 24 50  1  0
 25 51  1  0
 26 52  1  0
 27 53  1  0
M  END
>  <smiles>  (69) 
O=C(NCC(=O)N1CCCCC1Cc1ccccc1)c1cnc2ccccc2n1

>  <score_type>  (69) 
oracle

>  <origin>  (69) 
autodockgpu

>  <m_score__min__energy>  (69) 
-9.3399999999999999

>  <m_primary>  (69) 
energy

>  <rmsd>  (69) 
2.3947231092641807

>  <m_score__min__rmsd>  (69) 
2.3947231092641807

>  <meeko>  (69) 
{"free_energy": -8.55, "intermolecular_energy": -10.34, "internal_energy": -1.76, "cluster_size": 18, "cluster_id": 2, "rank_in_cluster": 14}

>  <energy>  (69) 
-8.38

>  <cluster_rmsd>  (69) 
1.12

>  <cluster>  (69) 
1

$$$$

     RDKit          3D

 53 56  0  0  0  0  0  0  0  0999 V2000
  140.2310   75.3890  220.5340 O   0  0  0  0  0  0  0  0  0  0  0  0
  139.6820   75.7660  221.6040 C   0  0  0  0  0  0  0  0  0  0  0  0
  138.7910   74.8940  222.2760 N   0  0  0  0  0  0  0  0  0  0  0  0
  138.5390   73.5760  221.6970 C   0  0  0  0  0  0  0  0  0  0  0  0
  139.5520   72.6610  222.2890 C   0  0  0  0  0  0  0  0  0  0  0  0
  140.7310   73.0230  222.5460 O   0  0  0  0  0  0  0  0  0  0  0  0
  139.2030   71.3140  222.5870 N   0  0  0  0  0  0  0  0  0  0  0  0
  139.2170   70.3390  221.4960 C   0  0  0  0  0  0  0  0  0  0  0  0
  137.9150   69.5690  221.4480 C   0  0  0  0  0  0  0  0  0  0  0  0
  137.4800   69.1130  222.8180 C   0  0  0  0  0  0  0  0  0  0  0  0
  137.5400   70.1790  223.8610 C   0  0  0  0  0  0  0  0  0  0  0  0
  138.8440   70.9150  223.9330 C   0  0  1  0  0  0  0  0  0  0  0  0
  139.9580   70.0580  224.5220 C   0  0  0  0  0  0  0  0  0  0  0  0
  140.3450   70.6400  225.8310 C   0  0  0  0  0  0  0  0  0  0  0  0
  139.9590   70.0010  226.9900 C   0  0  0  0  0  0  0  0  0  0  0  0
  140.2810   70.4840  228.2400 C   0  0  0  0  0  0  0  0  0  0  0  0
  141.0210   71.6590  228.3510 C   0  0  0  0  0  0  0  0  0  0  0  0
  141.4220   72.3210  227.2140 C   0  0  0  0  0  0  0  0  0  0  0  0
  141.0750   71.7970  225.9680 C   0  0  0  0  0  0  0  0  0  0  0  0
  139.9480   77.0890  222.1650 C   0  0  0  0  0  0  0  0  0  0  0  0
  138.8870   77.8440  222.6650 C   0  0  0  0  0  0  0  0  0  0  0  0
  139.1150   79.0730  223.1890 N   0  0  0  0  0  0  0  0  0  0  0  0
  140.3580   79.5860  223.2370 C   0  0  0  0  0  0  0  0  0  0  0  0
  140.6070   80.8370  223.7680 C   0  0  0  0  0  0  0  0  0  0  0  0
  141.8900   81.3750  223.8210 C   0  0  0  0  0  0  0  0  0  0  0  0
  142.9440   80.6100  223.3180 C   0  0  0  0  0  0  0  0  0  0  0  0
  142.6940   79.3590  222.7870 C   0  0  0  0  0  0  0  0  0  0  0  0
  141.4180   78.8280  222.7360 C   0  0  0  0  0  0  0  0  0  0  0  0
  141.1940   77.6040  222.2130 N   0  0  0  0  0  0  0  0  0  0  0  0
  138.3570   75.2300  223.1490 H   0  0  0  0  0  0  0  0  0  0  0  0
  137.5240   73.2361  221.9504 H   0  0  0  0  0  0  0  0  0  0  0  0
  138.6134   73.5997  220.5998 H   0  0  0  0  0  0  0  0  0  0  0  0
  139.3591   70.8673  220.5417 H   0  0  0  0  0  0  0  0  0  0  0  0
  140.0404   69.6299  221.6668 H   0  0  0  0  0  0  0  0  0  0  0  0
  137.1339   70.2174  221.0245 H   0  0  0  0  0  0  0  0  0  0  0  0
  138.0702   68.6758  220.8250 H   0  0  0  0  0  0  0  0  0  0  0  0
  136.4424   68.7542  222.7497 H   0  0  0  0  0  0  0  0  0  0  0  0
  138.1817   68.3248  223.1283 H   0  0  0  0  0  0  0  0  0  0  0  0
  136.7457   70.9099  223.6494 H   0  0  0  0  0  0  0  0  0  0  0  0
  137.4165   69.6722  224.8294 H   0  0  0  0  0  0  0  0  0  0  0  0
  138.7221   71.7858  224.5939 H   0  0  0  0  0  0  0  0  0  0  0  0
  139.6003   69.0274  224.6634 H   0  0  0  0  0  0  0  0  0  0  0  0
  140.8232   70.0388  223.8430 H   0  0  0  0  0  0  0  0  0  0  0  0
  139.3734   69.0729  226.9144 H   0  0  0  0  0  0  0  0  0  0  0  0
  139.9563   69.9460  229.1428 H   0  0  0  0  0  0  0  0  0  0  0  0
  141.2833   72.0554  229.3430 H   0  0  0  0  0  0  0  0  0  0  0  0
  142.0074   73.2495  227.2858 H   0  0  0  0  0  0  0  0  0  0  0  0
  141.3977   72.3297  225.0613 H   0  0  0  0  0  0  0  0  0  0  0  0
  137.8638   77.4414  222.6340 H   0  0  0  0  0  0  0  0  0  0  0  0
  139.7654   81.4262  224.1611 H   0  0  0  0  0  0  0  0  0  0  0  0
  142.0680   82.3735  224.2467 H   0  0  0  0  0  0  0  0  0  0  0  0
  143.9713   81.0023  223.3443 H   0  0  0  0  0  0  0  0  0  0  0  0
  143.5343   78.7683  222.3934 H   0  0  0  0  0  0  0  0  0  0  0  0
  1  2  2  0
  2  3  1  0
  3  4  1  0
  4  5  1  0
  5  6  2  0
  5  7  1  0
  7  8  1  0
  8  9  1  0
  9 10  1  0
 10 11  1  0
 11 12  1  0
 12 13  1  0
 13 14  1  0
 14 15  2  0
 15 16  1  0
 16 17  2  0
 17 18  1  0
 18 19  2  0
  2 20  1  0
 20 21  2  0
 21 22  1  0
 22 23  2  0
 23 24  1  0
 24 25  2  0
 25 26  1  0
 26 27  2  0
 27 28  1  0
 28 29  2  0
 12  7  1  0
 19 14  1  0
 29 20  1  0
 28 23  1  0
  3 30  1  0
  4 31  1  0
  4 32  1  0
  8 33  1  0
  8 34  1  0
  9 35  1  0
  9 36  1  0
 10 37  1  0
 10 38  1  0
 11 39  1  0
 11 40  1  0
 12 41  1  1
 13 42  1  0
 13 43  1  0
 15 44  1  0
 16 45  1  0
 17 46  1  0
 18 47  1  0
 19 48  1  0
 21 49  1  0
 24 50  1  0
 25 51  1  0
 26 52  1  0
 27 53  1  0
M  END
>  <smiles>  (70) 
O=C(NCC(=O)N1CCCCC1Cc1ccccc1)c1cnc2ccccc2n1

>  <score_type>  (70) 
oracle

>  <origin>  (70) 
autodockgpu

>  <m_score__min__energy>  (70) 
-9.3399999999999999

>  <m_primary>  (70) 
energy

>  <rmsd>  (70) 
7.970510786933135

>  <m_score__min__rmsd>  (70) 
7.970510786933135

>  <meeko>  (70) 
{"free_energy": -9.34, "intermolecular_energy": -11.13, "internal_energy": -1.29, "cluster_size": 21, "cluster_id": 1, "rank_in_cluster": 1}

>  <energy>  (70) 
-8.33

>  <cluster_rmsd>  (70) 
1.0

>  <cluster>  (70) 
1

$$$$

     RDKit          3D

 53 56  0  0  0  0  0  0  0  0999 V2000
  137.2250   76.2890  222.2510 O   0  0  0  0  0  0  0  0  0  0  0  0
  138.4770   76.3790  222.3580 C   0  0  0  0  0  0  0  0  0  0  0  0
  139.2790   75.2300  222.1500 N   0  0  0  0  0  0  0  0  0  0  0  0
  138.6170   73.9710  221.8150 C   0  0  0  0  0  0  0  0  0  0  0  0
  139.5410   72.8880  222.2480 C   0  0  0  0  0  0  0  0  0  0  0  0
  140.7820   73.0620  222.3810 O   0  0  0  0  0  0  0  0  0  0  0  0
  139.0300   71.5900  222.5280 N   0  0  0  0  0  0  0  0  0  0  0  0
  138.6910   70.7220  221.4000 C   0  0  0  0  0  0  0  0  0  0  0  0
  137.2910   70.1670  221.5510 C   0  0  0  0  0  0  0  0  0  0  0  0
  137.0320   69.6670  222.9500 C   0  0  0  0  0  0  0  0  0  0  0  0
  137.4500   70.6170  224.0230 C   0  0  0  0  0  0  0  0  0  0  0  0
  138.8510   71.1350  223.8930 C   0  0  1  0  0  0  0  0  0  0  0  0
  139.8920   70.0690  224.2130 C   0  0  0  0  0  0  0  0  0  0  0  0
  140.2840   70.2210  225.6370 C   0  0  0  0  0  0  0  0  0  0  0  0
  140.3000   69.1080  226.4500 C   0  0  0  0  0  0  0  0  0  0  0  0
  140.6520   69.1740  227.7810 C   0  0  0  0  0  0  0  0  0  0  0  0
  141.0050   70.4020  228.3370 C   0  0  0  0  0  0  0  0  0  0  0  0
  140.9980   71.5310  227.5530 C   0  0  0  0  0  0  0  0  0  0  0  0
  140.6360   71.4200  226.2100 C   0  0  0  0  0  0  0  0  0  0  0  0
  139.1180   77.6480  222.6940 C   0  0  0  0  0  0  0  0  0  0  0  0
  138.3240   78.7580  222.9850 C   0  0  0  0  0  0  0  0  0  0  0  0
  138.9030   79.9430  223.2980 N   0  0  0  0  0  0  0  0  0  0  0  0
  140.2410   80.0740  223.3350 C   0  0  0  0  0  0  0  0  0  0  0  0
  140.8460   81.2750  223.6520 C   0  0  0  0  0  0  0  0  0  0  0  0
  142.2300   81.4170  223.6920 C   0  0  0  0  0  0  0  0  0  0  0  0
  143.0140   80.3000  223.3990 C   0  0  0  0  0  0  0  0  0  0  0  0
  142.4080   79.0990  223.0820 C   0  0  0  0  0  0  0  0  0  0  0  0
  141.0330   78.9610  223.0430 C   0  0  0  0  0  0  0  0  0  0  0  0
  140.4600   77.7800  222.7310 N   0  0  0  0  0  0  0  0  0  0  0  0
  140.3010   75.3340  222.2450 H   0  0  0  0  0  0  0  0  0  0  0  0
  137.6585   73.8904  222.3486 H   0  0  0  0  0  0  0  0  0  0  0  0
  138.4001   73.9062  220.7385 H   0  0  0  0  0  0  0  0  0  0  0  0
  138.7502   71.3026  220.4676 H   0  0  0  0  0  0  0  0  0  0  0  0
  139.4021   69.8831  221.3743 H   0  0  0  0  0  0  0  0  0  0  0  0
  136.5666   70.9611  221.3174 H   0  0  0  0  0  0  0  0  0  0  0  0
  137.1848   69.3175  220.8603 H   0  0  0  0  0  0  0  0  0  0  0  0
  135.9533   69.4791  223.0557 H   0  0  0  0  0  0  0  0  0  0  0  0
  137.6359   68.7567  223.0788 H   0  0  0  0  0  0  0  0  0  0  0  0
  136.7642   71.4768  224.0051 H   0  0  0  0  0  0  0  0  0  0  0  0
  137.4145   70.0533  224.9669 H   0  0  0  0  0  0  0  0  0  0  0  0
  138.9941   71.9530  224.6144 H   0  0  0  0  0  0  0  0  0  0  0  0
  139.4645   69.0689  224.0485 H   0  0  0  0  0  0  0  0  0  0  0  0
  140.7703   70.1857  223.5611 H   0  0  0  0  0  0  0  0  0  0  0  0
  140.0223   68.1336  226.0218 H   0  0  0  0  0  0  0  0  0  0  0  0
  140.6542   68.2644  228.3995 H   0  0  0  0  0  0  0  0  0  0  0  0
  141.2879   70.4676  229.3980 H   0  0  0  0  0  0  0  0  0  0  0  0
  141.2737   72.5074  227.9780 H   0  0  0  0  0  0  0  0  0  0  0  0
  140.6321   72.3261  225.5863 H   0  0  0  0  0  0  0  0  0  0  0  0
  137.2277   78.6713  222.9604 H   0  0  0  0  0  0  0  0  0  0  0  0
  140.2142   82.1461  223.8798 H   0  0  0  0  0  0  0  0  0  0  0  0
  142.6926   82.3818  223.9472 H   0  0  0  0  0  0  0  0  0  0  0  0
  144.1112   80.3754  223.4203 H   0  0  0  0  0  0  0  0  0  0  0  0
  143.0385   78.2270  222.8539 H   0  0  0  0  0  0  0  0  0  0  0  0
  1  2  2  0
  2  3  1  0
  3  4  1  0
  4  5  1  0
  5  6  2  0
  5  7  1  0
  7  8  1  0
  8  9  1  0
  9 10  1  0
 10 11  1  0
 11 12  1  0
 12 13  1  0
 13 14  1  0
 14 15  2  0
 15 16  1  0
 16 17  2  0
 17 18  1  0
 18 19  2  0
  2 20  1  0
 20 21  2  0
 21 22  1  0
 22 23  2  0
 23 24  1  0
 24 25  2  0
 25 26  1  0
 26 27  2  0
 27 28  1  0
 28 29  2  0
 12  7  1  0
 19 14  1  0
 29 20  1  0
 28 23  1  0
  3 30  1  0
  4 31  1  0
  4 32  1  0
  8 33  1  0
  8 34  1  0
  9 35  1  0
  9 36  1  0
 10 37  1  0
 10 38  1  0
 11 39  1  0
 11 40  1  0
 12 41  1  1
 13 42  1  0
 13 43  1  0
 15 44  1  0
 16 45  1  0
 17 46  1  0
 18 47  1  0
 19 48  1  0
 21 49  1  0
 24 50  1  0
 25 51  1  0
 26 52  1  0
 27 53  1  0
M  END
>  <smiles>  (71) 
O=C(NCC(=O)N1CCCCC1Cc1ccccc1)c1cnc2ccccc2n1

>  <score_type>  (71) 
oracle

>  <origin>  (71) 
autodockgpu

>  <m_score__min__energy>  (71) 
-9.3399999999999999

>  <m_primary>  (71) 
energy

>  <rmsd>  (71) 
8.027123060014961

>  <m_score__min__rmsd>  (71) 
8.027123060014961

>  <meeko>  (71) 
{"free_energy": -8.48, "intermolecular_energy": -10.27, "internal_energy": -1.97, "cluster_size": 21, "cluster_id": 1, "rank_in_cluster": 18}

>  <energy>  (71) 
-8.22

>  <cluster_rmsd>  (71) 
1.03

>  <cluster>  (71) 
1

$$$$

     RDKit          3D

 53 56  0  0  0  0  0  0  0  0999 V2000
  140.3470   71.0030  221.2580 O   0  0  0  0  0  0  0  0  0  0  0  0
  140.0780   71.6410  222.3100 C   0  0  0  0  0  0  0  0  0  0  0  0
  139.8580   73.0390  222.2420 N   0  0  0  0  0  0  0  0  0  0  0  0
  139.9540   73.6940  220.9390 C   0  0  0  0  0  0  0  0  0  0  0  0
  140.1960   75.1360  221.2170 C   0  0  0  0  0  0  0  0  0  0  0  0
  139.9320   75.6710  222.3270 O   0  0  0  0  0  0  0  0  0  0  0  0
  140.7470   75.9700  220.2040 N   0  0  0  0  0  0  0  0  0  0  0  0
  140.1880   75.8820  218.8550 C   0  0  0  0  0  0  0  0  0  0  0  0
  141.2840   75.6850  217.8310 C   0  0  0  0  0  0  0  0  0  0  0  0
  142.4500   76.6120  218.0710 C   0  0  0  0  0  0  0  0  0  0  0  0
  142.9150   76.6520  219.4890 C   0  0  0  0  0  0  0  0  0  0  0  0
  141.8320   76.8850  220.4980 C   0  0  1  0  0  0  0  0  0  0  0  0
  141.3110   78.3170  220.4650 C   0  0  0  0  0  0  0  0  0  0  0  0
  141.6670   78.9680  221.7510 C   0  0  0  0  0  0  0  0  0  0  0  0
  142.2370   80.2230  221.7320 C   0  0  0  0  0  0  0  0  0  0  0  0
  142.5950   80.8870  222.8850 C   0  0  0  0  0  0  0  0  0  0  0  0
  142.3780   80.2800  224.1210 C   0  0  0  0  0  0  0  0  0  0  0  0
  141.8110   79.0270  224.1740 C   0  0  0  0  0  0  0  0  0  0  0  0
  141.4640   78.3910  222.9820 C   0  0  0  0  0  0  0  0  0  0  0  0
  139.9880   70.9650  223.6030 C   0  0  0  0  0  0  0  0  0  0  0  0
  139.4200   69.6920  223.6690 C   0  0  0  0  0  0  0  0  0  0  0  0
  139.3280   69.0510  224.8600 N   0  0  0  0  0  0  0  0  0  0  0  0
  139.7770   69.6220  225.9920 C   0  0  0  0  0  0  0  0  0  0  0  0
  139.6910   68.9820  227.2130 C   0  0  0  0  0  0  0  0  0  0  0  0
  140.1530   69.5670  228.3880 C   0  0  0  0  0  0  0  0  0  0  0  0
  140.7190   70.8410  228.3100 C   0  0  0  0  0  0  0  0  0  0  0  0
  140.8050   71.4810  227.0880 C   0  0  0  0  0  0  0  0  0  0  0  0
  140.3450   70.8960  225.9220 C   0  0  0  0  0  0  0  0  0  0  0  0
  140.4370   71.5380  224.7380 N   0  0  0  0  0  0  0  0  0  0  0  0
  139.6400   73.5340  223.1200 H   0  0  0  0  0  0  0  0  0  0  0  0
  140.7887   73.2717  220.3603 H   0  0  0  0  0  0  0  0  0  0  0  0
  139.0380   73.5476  220.3479 H   0  0  0  0  0  0  0  0  0  0  0  0
  139.4929   75.0308  218.8075 H   0  0  0  0  0  0  0  0  0  0  0  0
  139.6601   76.8205  218.6302 H   0  0  0  0  0  0  0  0  0  0  0  0
  141.6390   74.6453  217.8853 H   0  0  0  0  0  0  0  0  0  0  0  0
  140.8678   75.9100  216.8379 H   0  0  0  0  0  0  0  0  0  0  0  0
  143.2893   76.2816  217.4414 H   0  0  0  0  0  0  0  0  0  0  0  0
  142.1054   77.6264  217.8215 H   0  0  0  0  0  0  0  0  0  0  0  0
  143.3959   75.6898  219.7189 H   0  0  0  0  0  0  0  0  0  0  0  0
  143.6006   77.5087  219.5665 H   0  0  0  0  0  0  0  0  0  0  0  0
  142.2437   76.7139  221.5036 H   0  0  0  0  0  0  0  0  0  0  0  0
  141.7744   78.8630  219.6300 H   0  0  0  0  0  0  0  0  0  0  0  0
  140.2200   78.3221  220.3249 H   0  0  0  0  0  0  0  0  0  0  0  0
  142.4122   80.7116  220.7621 H   0  0  0  0  0  0  0  0  0  0  0  0
  143.0483   81.8878  222.8306 H   0  0  0  0  0  0  0  0  0  0  0  0
  142.6584   80.7997  225.0491 H   0  0  0  0  0  0  0  0  0  0  0  0
  141.6342   78.5346  225.1416 H   0  0  0  0  0  0  0  0  0  0  0  0
  141.0108   77.3898  223.0289 H   0  0  0  0  0  0  0  0  0  0  0  0
  139.0467   69.2085  222.7542 H   0  0  0  0  0  0  0  0  0  0  0  0
  139.2432   67.9783  227.2579 H   0  0  0  0  0  0  0  0  0  0  0  0
  140.0746   69.0408  229.3508 H   0  0  0  0  0  0  0  0  0  0  0  0
  141.0954   71.3339  229.2185 H   0  0  0  0  0  0  0  0  0  0  0  0
  141.2523   72.4849  227.0413 H   0  0  0  0  0  0  0  0  0  0  0  0
  1  2  2  0
  2  3  1  0
  3  4  1  0
  4  5  1  0
  5  6  2  0
  5  7  1  0
  7  8  1  0
  8  9  1  0
  9 10  1  0
 10 11  1  0
 11 12  1  0
 12 13  1  0
 13 14  1  0
 14 15  2  0
 15 16  1  0
 16 17  2  0
 17 18  1  0
 18 19  2  0
  2 20  1  0
 20 21  2  0
 21 22  1  0
 22 23  2  0
 23 24  1  0
 24 25  2  0
 25 26  1  0
 26 27  2  0
 27 28  1  0
 28 29  2  0
 12  7  1  0
 19 14  1  0
 29 20  1  0
 28 23  1  0
  3 30  1  0
  4 31  1  0
  4 32  1  0
  8 33  1  0
  8 34  1  0
  9 35  1  0
  9 36  1  0
 10 37  1  0
 10 38  1  0
 11 39  1  0
 11 40  1  0
 12 41  1  1
 13 42  1  0
 13 43  1  0
 15 44  1  0
 16 45  1  0
 17 46  1  0
 18 47  1  0
 19 48  1  0
 21 49  1  0
 24 50  1  0
 25 51  1  0
 26 52  1  0
 27 53  1  0
M  END
>  <smiles>  (72) 
O=C(NCC(=O)N1CCCCC1Cc1ccccc1)c1cnc2ccccc2n1

>  <score_type>  (72) 
oracle

>  <origin>  (72) 
autodockgpu

>  <m_score__min__energy>  (72) 
-9.3399999999999999

>  <m_primary>  (72) 
energy

>  <rmsd>  (72) 
1.5305214946945678

>  <m_score__min__rmsd>  (72) 
1.5305214946945678

>  <meeko>  (72) 
{"free_energy": -8.88, "intermolecular_energy": -10.67, "internal_energy": -1.89, "cluster_size": 18, "cluster_id": 2, "rank_in_cluster": 5}

>  <energy>  (72) 
-8.94

>  <cluster_rmsd>  (72) 
0.0

>  <cluster>  (72) 
2

$$$$

     RDKit          3D

 53 56  0  0  0  0  0  0  0  0999 V2000
  139.6730   70.4700  221.4140 O   0  0  0  0  0  0  0  0  0  0  0  0
  139.6920   71.0420  222.5360 C   0  0  0  0  0  0  0  0  0  0  0  0
  139.6690   72.4570  222.5980 N   0  0  0  0  0  0  0  0  0  0  0  0
  139.6240   73.2070  221.3450 C   0  0  0  0  0  0  0  0  0  0  0  0
  140.8010   74.1160  221.3630 C   0  0  0  0  0  0  0  0  0  0  0  0
  140.8270   75.1870  222.0270 O   0  0  0  0  0  0  0  0  0  0  0  0
  141.9620   73.7890  220.6070 N   0  0  0  0  0  0  0  0  0  0  0  0
  142.0430   72.4570  220.0070 C   0  0  0  0  0  0  0  0  0  0  0  0
  143.3550   71.7890  220.3570 C   0  0  0  0  0  0  0  0  0  0  0  0
  144.5240   72.7280  220.1930 C   0  0  0  0  0  0  0  0  0  0  0  0
  144.3190   74.0710  220.8110 C   0  0  0  0  0  0  0  0  0  0  0  0
  143.0360   74.7470  220.4330 C   0  0  1  0  0  0  0  0  0  0  0  0
  143.0470   75.2390  218.9910 C   0  0  0  0  0  0  0  0  0  0  0  0
  142.7240   76.6880  218.9960 C   0  0  0  0  0  0  0  0  0  0  0  0
  142.1520   77.2440  220.1200 C   0  0  0  0  0  0  0  0  0  0  0  0
  141.8230   78.5800  220.1960 C   0  0  0  0  0  0  0  0  0  0  0  0
  142.0710   79.4100  219.1040 C   0  0  0  0  0  0  0  0  0  0  0  0
  142.6400   78.8860  217.9660 C   0  0  0  0  0  0  0  0  0  0  0  0
  142.9570   77.5280  217.9330 C   0  0  0  0  0  0  0  0  0  0  0  0
  139.7370   70.2720  223.7770 C   0  0  0  0  0  0  0  0  0  0  0  0
  139.1670   68.9990  223.8120 C   0  0  0  0  0  0  0  0  0  0  0  0
  139.1990   68.2710  224.9550 N   0  0  0  0  0  0  0  0  0  0  0  0
  139.7770   68.7540  226.0690 C   0  0  0  0  0  0  0  0  0  0  0  0
  139.8180   68.0250  227.2420 C   0  0  0  0  0  0  0  0  0  0  0  0
  140.4140   68.5200  228.3990 C   0  0  0  0  0  0  0  0  0  0  0  0
  140.9810   69.7950  228.3530 C   0  0  0  0  0  0  0  0  0  0  0  0
  140.9390   70.5240  227.1790 C   0  0  0  0  0  0  0  0  0  0  0  0
  140.3470   70.0290  226.0310 C   0  0  0  0  0  0  0  0  0  0  0  0
  140.3150   70.7570  224.8950 N   0  0  0  0  0  0  0  0  0  0  0  0
  139.6850   72.8970  223.5320 H   0  0  0  0  0  0  0  0  0  0  0  0
  139.6852   72.5208  220.4875 H   0  0  0  0  0  0  0  0  0  0  0  0
  138.6840   73.7702  221.2485 H   0  0  0  0  0  0  0  0  0  0  0  0
  141.2130   71.8409  220.3832 H   0  0  0  0  0  0  0  0  0  0  0  0
  141.9795   72.5583  218.9135 H   0  0  0  0  0  0  0  0  0  0  0  0
  143.3142   71.4507  221.4029 H   0  0  0  0  0  0  0  0  0  0  0  0
  143.4997   70.9406  219.6719 H   0  0  0  0  0  0  0  0  0  0  0  0
  145.4068   72.2649  220.6581 H   0  0  0  0  0  0  0  0  0  0  0  0
  144.6495   72.8921  219.1126 H   0  0  0  0  0  0  0  0  0  0  0  0
  144.3332   73.9505  221.9043 H   0  0  0  0  0  0  0  0  0  0  0  0
  145.1297   74.7123  220.4347 H   0  0  0  0  0  0  0  0  0  0  0  0
  142.8990   75.6295  221.0752 H   0  0  0  0  0  0  0  0  0  0  0  0
  144.0423   75.0803  218.5504 H   0  0  0  0  0  0  0  0  0  0  0  0
  142.3074   74.6856  218.3937 H   0  0  0  0  0  0  0  0  0  0  0  0
  141.9509   76.5982  220.9874 H   0  0  0  0  0  0  0  0  0  0  0  0
  141.3685   78.9881  221.1108 H   0  0  0  0  0  0  0  0  0  0  0  0
  141.8132   80.4783  219.1517 H   0  0  0  0  0  0  0  0  0  0  0  0
  142.8417   79.5280  217.0959 H   0  0  0  0  0  0  0  0  0  0  0  0
  143.4110   77.1131  217.0210 H   0  0  0  0  0  0  0  0  0  0  0  0
  138.6909   68.5855  222.9107 H   0  0  0  0  0  0  0  0  0  0  0  0
  139.3658   67.0225  227.2625 H   0  0  0  0  0  0  0  0  0  0  0  0
  140.4374   67.9235  229.3229 H   0  0  0  0  0  0  0  0  0  0  0  0
  141.4598   70.2183  229.2483 H   0  0  0  0  0  0  0  0  0  0  0  0
  141.3896   71.5272  227.1572 H   0  0  0  0  0  0  0  0  0  0  0  0
  1  2  2  0
  2  3  1  0
  3  4  1  0
  4  5  1  0
  5  6  2  0
  5  7  1  0
  7  8  1  0
  8  9  1  0
  9 10  1  0
 10 11  1  0
 11 12  1  0
 12 13  1  0
 13 14  1  0
 14 15  2  0
 15 16  1  0
 16 17  2  0
 17 18  1  0
 18 19  2  0
  2 20  1  0
 20 21  2  0
 21 22  1  0
 22 23  2  0
 23 24  1  0
 24 25  2  0
 25 26  1  0
 26 27  2  0
 27 28  1  0
 28 29  2  0
 12  7  1  0
 19 14  1  0
 29 20  1  0
 28 23  1  0
  3 30  1  0
  4 31  1  0
  4 32  1  0
  8 33  1  0
  8 34  1  0
  9 35  1  0
  9 36  1  0
 10 37  1  0
 10 38  1  0
 11 39  1  0
 11 40  1  0
 12 41  1  1
 13 42  1  0
 13 43  1  0
 15 44  1  0
 16 45  1  0
 17 46  1  0
 18 47  1  0
 19 48  1  0
 21 49  1  0
 24 50  1  0
 25 51  1  0
 26 52  1  0
 27 53  1  0
M  END
>  <smiles>  (73) 
O=C(NCC(=O)N1CCCCC1Cc1ccccc1)c1cnc2ccccc2n1

>  <score_type>  (73) 
oracle

>  <origin>  (73) 
autodockgpu

>  <m_score__min__energy>  (73) 
-9.3399999999999999

>  <m_primary>  (73) 
energy

>  <rmsd>  (73) 
2.77613942006995

>  <m_score__min__rmsd>  (73) 
2.77613942006995

>  <meeko>  (73) 
{"free_energy": -8.21, "intermolecular_energy": -10.0, "internal_energy": -1.75, "cluster_size": 1, "cluster_id": 5, "rank_in_cluster": 1}

>  <energy>  (73) 
-8.92

>  <cluster_rmsd>  (73) 
0.39

>  <cluster>  (73) 
2

$$$$

     RDKit          3D

 53 56  0  0  0  0  0  0  0  0999 V2000
  137.9380   70.8030  221.9690 O   0  0  0  0  0  0  0  0  0  0  0  0
  138.7070   71.2040  222.8830 C   0  0  0  0  0  0  0  0  0  0  0  0
  139.2540   72.5080  222.8120 N   0  0  0  0  0  0  0  0  0  0  0  0
  138.9040   73.3480  221.6690 C   0  0  0  0  0  0  0  0  0  0  0  0
  139.9380   74.4160  221.6060 C   0  0  0  0  0  0  0  0  0  0  0  0
  141.1330   74.2310  221.9620 O   0  0  0  0  0  0  0  0  0  0  0  0
  139.5920   75.7110  221.1280 N   0  0  0  0  0  0  0  0  0  0  0  0
  138.4090   75.8410  220.2770 C   0  0  0  0  0  0  0  0  0  0  0  0
  138.7390   76.6030  219.0120 C   0  0  0  0  0  0  0  0  0  0  0  0
  139.5630   77.8340  219.2960 C   0  0  0  0  0  0  0  0  0  0  0  0
  140.7230   77.5940  220.2050 C   0  0  0  0  0  0  0  0  0  0  0  0
  140.3870   76.8730  221.4750 C   0  0  1  0  0  0  0  0  0  0  0  0
  139.6070   77.7500  222.4470 C   0  0  0  0  0  0  0  0  0  0  0  0
  140.4640   78.9040  222.8160 C   0  0  0  0  0  0  0  0  0  0  0  0
  141.7900   78.6850  223.1210 C   0  0  0  0  0  0  0  0  0  0  0  0
  142.6440   79.7070  223.4740 C   0  0  0  0  0  0  0  0  0  0  0  0
  142.1620   81.0140  223.5300 C   0  0  0  0  0  0  0  0  0  0  0  0
  140.8430   81.2670  223.2310 C   0  0  0  0  0  0  0  0  0  0  0  0
  140.0130   80.2020  222.8780 C   0  0  0  0  0  0  0  0  0  0  0  0
  139.0440   70.3470  224.0180 C   0  0  0  0  0  0  0  0  0  0  0  0
  138.6350   69.0130  224.0110 C   0  0  0  0  0  0  0  0  0  0  0  0
  138.9390   68.2040  225.0550 N   0  0  0  0  0  0  0  0  0  0  0  0
  139.6350   68.6650  226.1110 C   0  0  0  0  0  0  0  0  0  0  0  0
  139.9520   67.8540  227.1820 C   0  0  0  0  0  0  0  0  0  0  0  0
  140.6710   68.3240  228.2780 C   0  0  0  0  0  0  0  0  0  0  0  0
  141.0750   69.6600  228.2740 C   0  0  0  0  0  0  0  0  0  0  0  0
  140.7560   70.4710  227.2010 C   0  0  0  0  0  0  0  0  0  0  0  0
  140.0420   70.0010  226.1140 C   0  0  0  0  0  0  0  0  0  0  0  0
  139.7410   70.8090  225.0770 N   0  0  0  0  0  0  0  0  0  0  0  0
  139.8810   72.8080  223.5760 H   0  0  0  0  0  0  0  0  0  0  0  0
  138.9122   72.7544  220.7430 H   0  0  0  0  0  0  0  0  0  0  0  0
  137.8953   73.7729  221.7781 H   0  0  0  0  0  0  0  0  0  0  0  0
  138.0451   74.8380  220.0094 H   0  0  0  0  0  0  0  0  0  0  0  0
  137.6354   76.3937  220.8302 H   0  0  0  0  0  0  0  0  0  0  0  0
  139.3050   75.9440  218.3372 H   0  0  0  0  0  0  0  0  0  0  0  0
  137.7934   76.9245  218.5510 H   0  0  0  0  0  0  0  0  0  0  0  0
  139.9470   78.2208  218.3405 H   0  0  0  0  0  0  0  0  0  0  0  0
  138.9010   78.5480  219.8078 H   0  0  0  0  0  0  0  0  0  0  0  0
  141.4678   76.9965  219.6590 H   0  0  0  0  0  0  0  0  0  0  0  0
  141.0951   78.5859  220.5010 H   0  0  0  0  0  0  0  0  0  0  0  0
  141.3228   76.5872  221.9776 H   0  0  0  0  0  0  0  0  0  0  0  0
  138.6844   78.1090  221.9674 H   0  0  0  0  0  0  0  0  0  0  0  0
  139.3344   77.1753  223.3444 H   0  0  0  0  0  0  0  0  0  0  0  0
  142.1806   77.6574  223.0812 H   0  0  0  0  0  0  0  0  0  0  0  0
  143.6970   79.4935  223.7096 H   0  0  0  0  0  0  0  0  0  0  0  0
  142.8329   81.8389  223.8118 H   0  0  0  0  0  0  0  0  0  0  0  0
  140.4487   82.2932  223.2696 H   0  0  0  0  0  0  0  0  0  0  0  0
  138.9589   80.4083  222.6405 H   0  0  0  0  0  0  0  0  0  0  0  0
  138.0652   68.6175  223.1572 H   0  0  0  0  0  0  0  0  0  0  0  0
  139.6264   66.8034  227.1693 H   0  0  0  0  0  0  0  0  0  0  0  0
  140.9135   67.6618  229.1222 H   0  0  0  0  0  0  0  0  0  0  0  0
  141.6455   70.0663  229.1222 H   0  0  0  0  0  0  0  0  0  0  0  0
  141.0799   71.5222  227.2122 H   0  0  0  0  0  0  0  0  0  0  0  0
  1  2  2  0
  2  3  1  0
  3  4  1  0
  4  5  1  0
  5  6  2  0
  5  7  1  0
  7  8  1  0
  8  9  1  0
  9 10  1  0
 10 11  1  0
 11 12  1  0
 12 13  1  0
 13 14  1  0
 14 15  2  0
 15 16  1  0
 16 17  2  0
 17 18  1  0
 18 19  2  0
  2 20  1  0
 20 21  2  0
 21 22  1  0
 22 23  2  0
 23 24  1  0
 24 25  2  0
 25 26  1  0
 26 27  2  0
 27 28  1  0
 28 29  2  0
 12  7  1  0
 19 14  1  0
 29 20  1  0
 28 23  1  0
  3 30  1  0
  4 31  1  0
  4 32  1  0
  8 33  1  0
  8 34  1  0
  9 35  1  0
  9 36  1  0
 10 37  1  0
 10 38  1  0
 11 39  1  0
 11 40  1  0
 12 41  1  1
 13 42  1  0
 13 43  1  0
 15 44  1  0
 16 45  1  0
 17 46  1  0
 18 47  1  0
 19 48  1  0
 21 49  1  0
 24 50  1  0
 25 51  1  0
 26 52  1  0
 27 53  1  0
M  END
>  <smiles>  (74) 
O=C(NCC(=O)N1CCCCC1Cc1ccccc1)c1cnc2ccccc2n1

>  <score_type>  (74) 
oracle

>  <origin>  (74) 
autodockgpu

>  <m_score__min__energy>  (74) 
-9.3399999999999999

>  <m_primary>  (74) 
energy

>  <rmsd>  (74) 
2.0015686238039585

>  <m_score__min__rmsd>  (74) 
2.0015686238039585

>  <meeko>  (74) 
{"free_energy": -8.52, "intermolecular_energy": -10.31, "internal_energy": -1.77, "cluster_size": 18, "cluster_id": 2, "rank_in_cluster": 16}

>  <energy>  (74) 
-8.89

>  <cluster_rmsd>  (74) 
0.46

>  <cluster>  (74) 
2

$$$$

     RDKit          3D

 53 56  0  0  0  0  0  0  0  0999 V2000
  137.5240   76.0400  222.4000 O   0  0  0  0  0  0  0  0  0  0  0  0
  138.7630   76.2500  222.3150 C   0  0  0  0  0  0  0  0  0  0  0  0
  139.6150   75.2220  221.8420 N   0  0  0  0  0  0  0  0  0  0  0  0
  139.0170   73.9420  221.4680 C   0  0  0  0  0  0  0  0  0  0  0  0
  139.8520   72.8900  222.1070 C   0  0  0  0  0  0  0  0  0  0  0  0
  141.0830   73.0390  222.3330 O   0  0  0  0  0  0  0  0  0  0  0  0
  139.2640   71.6520  222.4890 N   0  0  0  0  0  0  0  0  0  0  0  0
  138.9740   70.6720  221.4430 C   0  0  0  0  0  0  0  0  0  0  0  0
  137.5440   70.1890  221.5400 C   0  0  0  0  0  0  0  0  0  0  0  0
  137.1560   69.8640  222.9610 C   0  0  0  0  0  0  0  0  0  0  0  0
  137.5320   70.9170  223.9510 C   0  0  0  0  0  0  0  0  0  0  0  0
  138.9600   71.3660  223.8780 C   0  0  1  0  0  0  0  0  0  0  0  0
  139.9240   70.3080  224.4010 C   0  0  0  0  0  0  0  0  0  0  0  0
  140.3580   70.7120  225.7620 C   0  0  0  0  0  0  0  0  0  0  0  0
  140.0900   69.8790  226.8260 C   0  0  0  0  0  0  0  0  0  0  0  0
  140.4610   70.1890  228.1170 C   0  0  0  0  0  0  0  0  0  0  0  0
  141.1310   71.3850  228.3690 C   0  0  0  0  0  0  0  0  0  0  0  0
  141.4130   72.2390  227.3280 C   0  0  0  0  0  0  0  0  0  0  0  0
  141.0190   71.8860  226.0370 C   0  0  0  0  0  0  0  0  0  0  0  0
  139.3410   77.5380  222.6960 C   0  0  0  0  0  0  0  0  0  0  0  0
  138.4930   78.5850  223.0600 C   0  0  0  0  0  0  0  0  0  0  0  0
  139.0110   79.7860  223.4150 N   0  0  0  0  0  0  0  0  0  0  0  0
  140.3400   79.9930  223.4250 C   0  0  0  0  0  0  0  0  0  0  0  0
  140.8830   81.2110  223.7840 C   0  0  0  0  0  0  0  0  0  0  0  0
  142.2580   81.4320  223.7960 C   0  0  0  0  0  0  0  0  0  0  0  0
  143.0960   80.3780  223.4300 C   0  0  0  0  0  0  0  0  0  0  0  0
  142.5510   79.1590  223.0700 C   0  0  0  0  0  0  0  0  0  0  0  0
  141.1860   78.9430  223.0600 C   0  0  0  0  0  0  0  0  0  0  0  0
  140.6730   77.7460  222.7050 N   0  0  0  0  0  0  0  0  0  0  0  0
  140.6250   75.4240  221.7840 H   0  0  0  0  0  0  0  0  0  0  0  0
  137.9821   73.8829  221.8360 H   0  0  0  0  0  0  0  0  0  0  0  0
  138.9852   73.8190  220.3754 H   0  0  0  0  0  0  0  0  0  0  0  0
  139.1312   71.1378  220.4590 H   0  0  0  0  0  0  0  0  0  0  0  0
  139.6462   69.8107  221.5711 H   0  0  0  0  0  0  0  0  0  0  0  0
  136.8761   70.9761  221.1600 H   0  0  0  0  0  0  0  0  0  0  0  0
  137.4531   69.2698  220.9427 H   0  0  0  0  0  0  0  0  0  0  0  0
  136.0651   69.7278  222.9988 H   0  0  0  0  0  0  0  0  0  0  0  0
  137.7073   68.9541  223.2405 H   0  0  0  0  0  0  0  0  0  0  0  0
  136.8886   71.7927  223.7803 H   0  0  0  0  0  0  0  0  0  0  0  0
  137.3986   70.4684  224.9465 H   0  0  0  0  0  0  0  0  0  0  0  0
  139.0838   72.2572  224.5109 H   0  0  0  0  0  0  0  0  0  0  0  0
  139.4183   69.3321  224.4452 H   0  0  0  0  0  0  0  0  0  0  0  0
  140.7940   70.2218  223.7334 H   0  0  0  0  0  0  0  0  0  0  0  0
  139.5611   68.9328  226.6388 H   0  0  0  0  0  0  0  0  0  0  0  0
  140.2302   69.4983  228.9414 H   0  0  0  0  0  0  0  0  0  0  0  0
  141.4326   71.6446  229.3945 H   0  0  0  0  0  0  0  0  0  0  0  0
  141.9414   73.1863  227.5108 H   0  0  0  0  0  0  0  0  0  0  0  0
  141.2456   72.5726  225.2080 H   0  0  0  0  0  0  0  0  0  0  0  0
  137.4032   78.4353  223.0588 H   0  0  0  0  0  0  0  0  0  0  0  0
  140.2087   82.0319  224.0693 H   0  0  0  0  0  0  0  0  0  0  0  0
  142.6715   82.4093  224.0857 H   0  0  0  0  0  0  0  0  0  0  0  0
  144.1873   80.5164  223.4278 H   0  0  0  0  0  0  0  0  0  0  0  0
  143.2237   78.3372  222.7832 H   0  0  0  0  0  0  0  0  0  0  0  0
  1  2  2  0
  2  3  1  0
  3  4  1  0
  4  5  1  0
  5  6  2  0
  5  7  1  0
  7  8  1  0
  8  9  1  0
  9 10  1  0
 10 11  1  0
 11 12  1  0
 12 13  1  0
 13 14  1  0
 14 15  2  0
 15 16  1  0
 16 17  2  0
 17 18  1  0
 18 19  2  0
  2 20  1  0
 20 21  2  0
 21 22  1  0
 22 23  2  0
 23 24  1  0
 24 25  2  0
 25 26  1  0
 26 27  2  0
 27 28  1  0
 28 29  2  0
 12  7  1  0
 19 14  1  0
 29 20  1  0
 28 23  1  0
  3 30  1  0
  4 31  1  0
  4 32  1  0
  8 33  1  0
  8 34  1  0
  9 35  1  0
  9 36  1  0
 10 37  1  0
 10 38  1  0
 11 39  1  0
 11 40  1  0
 12 41  1  1
 13 42  1  0
 13 43  1  0
 15 44  1  0
 16 45  1  0
 17 46  1  0
 18 47  1  0
 19 48  1  0
 21 49  1  0
 24 50  1  0
 25 51  1  0
 26 52  1  0
 27 53  1  0
M  END
>  <smiles>  (75) 
O=C(NCC(=O)N1CCCCC1Cc1ccccc1)c1cnc2ccccc2n1

>  <score_type>  (75) 
oracle

>  <origin>  (75) 
autodockgpu

>  <m_score__min__energy>  (75) 
-9.3399999999999999

>  <m_primary>  (75) 
energy

>  <rmsd>  (75) 
7.974059354204988

>  <m_score__min__rmsd>  (75) 
7.974059354204988

>  <meeko>  (75) 
{"free_energy": -8.72, "intermolecular_energy": -10.51, "internal_energy": -1.86, "cluster_size": 21, "cluster_id": 1, "rank_in_cluster": 9}

>  <energy>  (75) 
-8.88

>  <cluster_rmsd>  (75) 
0.5

>  <cluster>  (75) 
2

$$$$

     RDKit          3D

 53 56  0  0  0  0  0  0  0  0999 V2000
  137.4980   75.9630  222.5010 O   0  0  0  0  0  0  0  0  0  0  0  0
  138.7410   76.1650  222.4450 C   0  0  0  0  0  0  0  0  0  0  0  0
  139.6080   75.0940  222.1220 N   0  0  0  0  0  0  0  0  0  0  0  0
  139.0240   73.7800  221.8620 C   0  0  0  0  0  0  0  0  0  0  0  0
  140.0760   72.7830  222.1980 C   0  0  0  0  0  0  0  0  0  0  0  0
  141.3070   73.0190  222.0670 O   0  0  0  0  0  0  0  0  0  0  0  0
  139.7060   71.5000  222.6900 N   0  0  0  0  0  0  0  0  0  0  0  0
  139.4750   70.4280  221.7220 C   0  0  0  0  0  0  0  0  0  0  0  0
  138.1420   69.7570  221.9710 C   0  0  0  0  0  0  0  0  0  0  0  0
  137.9250   69.4660  223.4340 C   0  0  0  0  0  0  0  0  0  0  0  0
  138.2260   70.6180  224.3360 C   0  0  0  0  0  0  0  0  0  0  0  0
  139.5630   71.2570  224.1120 C   0  0  1  0  0  0  0  0  0  0  0  0
  140.7100   70.3770  224.5950 C   0  0  0  0  0  0  0  0  0  0  0  0
  140.4430   70.0040  226.0070 C   0  0  0  0  0  0  0  0  0  0  0  0
  140.2930   68.6730  226.3310 C   0  0  0  0  0  0  0  0  0  0  0  0
  140.0420   68.2530  227.6200 C   0  0  0  0  0  0  0  0  0  0  0  0
  139.9320   69.1970  228.6390 C   0  0  0  0  0  0  0  0  0  0  0  0
  140.0760   70.5330  228.3480 C   0  0  0  0  0  0  0  0  0  0  0  0
  140.3300   70.9150  227.0300 C   0  0  0  0  0  0  0  0  0  0  0  0
  139.3040   77.4870  222.7090 C   0  0  0  0  0  0  0  0  0  0  0  0
  138.4450   78.5700  222.8990 C   0  0  0  0  0  0  0  0  0  0  0  0
  138.9500   79.8040  223.1440 N   0  0  0  0  0  0  0  0  0  0  0  0
  140.2780   80.0090  223.2090 C   0  0  0  0  0  0  0  0  0  0  0  0
  140.8090   81.2600  223.4580 C   0  0  0  0  0  0  0  0  0  0  0  0
  142.1820   81.4790  223.5260 C   0  0  0  0  0  0  0  0  0  0  0  0
  143.0320   80.3890  223.3350 C   0  0  0  0  0  0  0  0  0  0  0  0
  142.5000   79.1380  223.0860 C   0  0  0  0  0  0  0  0  0  0  0  0
  141.1360   78.9230  223.0190 C   0  0  0  0  0  0  0  0  0  0  0  0
  140.6360   77.6940  222.7740 N   0  0  0  0  0  0  0  0  0  0  0  0
  140.6210   75.2900  222.0840 H   0  0  0  0  0  0  0  0  0  0  0  0
  138.1368   73.6255  222.4937 H   0  0  0  0  0  0  0  0  0  0  0  0
  138.7024   73.6850  220.8144 H   0  0  0  0  0  0  0  0  0  0  0  0
  139.4816   70.8513  220.7067 H   0  0  0  0  0  0  0  0  0  0  0  0
  140.2726   69.6781  221.8294 H   0  0  0  0  0  0  0  0  0  0  0  0
  137.3385   70.4196  221.6170 H   0  0  0  0  0  0  0  0  0  0  0  0
  138.1346   68.8004  221.4279 H   0  0  0  0  0  0  0  0  0  0  0  0
  136.8722   69.1811  223.5771 H   0  0  0  0  0  0  0  0  0  0  0  0
  138.6236   68.6605  223.7043 H   0  0  0  0  0  0  0  0  0  0  0  0
  137.4508   71.3835  224.1842 H   0  0  0  0  0  0  0  0  0  0  0  0
  138.2422   70.2149  225.3594 H   0  0  0  0  0  0  0  0  0  0  0  0
  139.6089   72.1930  224.6880 H   0  0  0  0  0  0  0  0  0  0  0  0
  140.7708   69.4704  223.9751 H   0  0  0  0  0  0  0  0  0  0  0  0
  141.6642   70.9189  224.5182 H   0  0  0  0  0  0  0  0  0  0  0  0
  140.3764   67.9197  225.5338 H   0  0  0  0  0  0  0  0  0  0  0  0
  139.9295   67.1815  227.8421 H   0  0  0  0  0  0  0  0  0  0  0  0
  139.7309   68.8749  229.6714 H   0  0  0  0  0  0  0  0  0  0  0  0
  139.9923   71.2895  229.1422 H   0  0  0  0  0  0  0  0  0  0  0  0
  140.4440   71.9849  226.8013 H   0  0  0  0  0  0  0  0  0  0  0  0
  137.3561   78.4222  222.8499 H   0  0  0  0  0  0  0  0  0  0  0  0
  140.1257   82.1091  223.6071 H   0  0  0  0  0  0  0  0  0  0  0  0
  142.5855   82.4829  223.7247 H   0  0  0  0  0  0  0  0  0  0  0  0
  144.1225   80.5251  223.3825 H   0  0  0  0  0  0  0  0  0  0  0  0
  143.1822   78.2881  222.9367 H   0  0  0  0  0  0  0  0  0  0  0  0
  1  2  2  0
  2  3  1  0
  3  4  1  0
  4  5  1  0
  5  6  2  0
  5  7  1  0
  7  8  1  0
  8  9  1  0
  9 10  1  0
 10 11  1  0
 11 12  1  0
 12 13  1  0
 13 14  1  0
 14 15  2  0
 15 16  1  0
 16 17  2  0
 17 18  1  0
 18 19  2  0
  2 20  1  0
 20 21  2  0
 21 22  1  0
 22 23  2  0
 23 24  1  0
 24 25  2  0
 25 26  1  0
 26 27  2  0
 27 28  1  0
 28 29  2  0
 12  7  1  0
 19 14  1  0
 29 20  1  0
 28 23  1  0
  3 30  1  0
  4 31  1  0
  4 32  1  0
  8 33  1  0
  8 34  1  0
  9 35  1  0
  9 36  1  0
 10 37  1  0
 10 38  1  0
 11 39  1  0
 11 40  1  0
 12 41  1  1
 13 42  1  0
 13 43  1  0
 15 44  1  0
 16 45  1  0
 17 46  1  0
 18 47  1  0
 19 48  1  0
 21 49  1  0
 24 50  1  0
 25 51  1  0
 26 52  1  0
 27 53  1  0
M  END
>  <smiles>  (76) 
O=C(NCC(=O)N1CCCCC1Cc1ccccc1)c1cnc2ccccc2n1

>  <score_type>  (76) 
oracle

>  <origin>  (76) 
autodockgpu

>  <m_score__min__energy>  (76) 
-9.3399999999999999

>  <m_primary>  (76) 
energy

>  <rmsd>  (76) 
8.036258979720108

>  <m_score__min__rmsd>  (76) 
8.036258979720108

>  <meeko>  (76) 
{"free_energy": -8.38, "intermolecular_energy": -10.17, "internal_energy": -1.95, "cluster_size": 21, "cluster_id": 1, "rank_in_cluster": 19}

>  <energy>  (76) 
-8.88

>  <cluster_rmsd>  (76) 
0.43

>  <cluster>  (76) 
2

$$$$

     RDKit          3D

 53 56  0  0  0  0  0  0  0  0999 V2000
  137.3810   76.0920  222.3590 O   0  0  0  0  0  0  0  0  0  0  0  0
  138.6290   76.2620  222.3440 C   0  0  0  0  0  0  0  0  0  0  0  0
  139.4770   75.1790  222.0090 N   0  0  0  0  0  0  0  0  0  0  0  0
  138.8660   73.8900  221.6900 C   0  0  0  0  0  0  0  0  0  0  0  0
  139.7790   72.8510  222.2360 C   0  0  0  0  0  0  0  0  0  0  0  0
  141.0000   73.0660  222.4640 O   0  0  0  0  0  0  0  0  0  0  0  0
  139.2820   71.5480  222.5210 N   0  0  0  0  0  0  0  0  0  0  0  0
  139.1510   70.6010  221.4140 C   0  0  0  0  0  0  0  0  0  0  0  0
  137.7670   69.9900  221.3910 C   0  0  0  0  0  0  0  0  0  0  0  0
  137.3180   69.5610  222.7650 C   0  0  0  0  0  0  0  0  0  0  0  0
  137.5320   70.5920  223.8250 C   0  0  0  0  0  0  0  0  0  0  0  0
  138.9150   71.1670  223.8710 C   0  0  1  0  0  0  0  0  0  0  0  0
  139.9350   70.1720  224.4120 C   0  0  0  0  0  0  0  0  0  0  0  0
  140.3410   70.6200  225.7680 C   0  0  0  0  0  0  0  0  0  0  0  0
  140.0220   69.8370  226.8560 C   0  0  0  0  0  0  0  0  0  0  0  0
  140.3640   70.1890  228.1440 C   0  0  0  0  0  0  0  0  0  0  0  0
  141.0580   71.3770  228.3680 C   0  0  0  0  0  0  0  0  0  0  0  0
  141.3910   72.1810  227.3030 C   0  0  0  0  0  0  0  0  0  0  0  0
  141.0250   71.7870  226.0150 C   0  0  0  0  0  0  0  0  0  0  0  0
  139.2190   77.5600  222.6670 C   0  0  0  0  0  0  0  0  0  0  0  0
  138.3810   78.6450  222.9240 C   0  0  0  0  0  0  0  0  0  0  0  0
  138.9110   79.8560  223.2250 N   0  0  0  0  0  0  0  0  0  0  0  0
  140.2430   80.0360  223.2820 C   0  0  0  0  0  0  0  0  0  0  0  0
  140.8000   81.2620  223.5870 C   0  0  0  0  0  0  0  0  0  0  0  0
  142.1770   81.4550  223.6470 C   0  0  0  0  0  0  0  0  0  0  0  0
  143.0050   80.3620  223.3880 C   0  0  0  0  0  0  0  0  0  0  0  0
  142.4480   79.1340  223.0830 C   0  0  0  0  0  0  0  0  0  0  0  0
  141.0790   78.9470  223.0240 C   0  0  0  0  0  0  0  0  0  0  0  0
  140.5550   77.7400  222.7240 N   0  0  0  0  0  0  0  0  0  0  0  0
  140.4950   75.3490  222.0060 H   0  0  0  0  0  0  0  0  0  0  0  0
  137.8746   73.8114  222.1600 H   0  0  0  0  0  0  0  0  0  0  0  0
  138.7260   73.7705  220.6055 H   0  0  0  0  0  0  0  0  0  0  0  0
  139.3282   71.1285  220.4652 H   0  0  0  0  0  0  0  0  0  0  0  0
  139.8894   69.7968  221.5485 H   0  0  0  0  0  0  0  0  0  0  0  0
  137.0565   70.7337  221.0010 H   0  0  0  0  0  0  0  0  0  0  0  0
  137.7995   69.0973  220.7492 H   0  0  0  0  0  0  0  0  0  0  0  0
  136.2437   69.3286  222.7207 H   0  0  0  0  0  0  0  0  0  0  0  0
  137.9295   68.6894  223.0414 H   0  0  0  0  0  0  0  0  0  0  0  0
  136.8244   71.4157  223.6493 H   0  0  0  0  0  0  0  0  0  0  0  0
  137.3753   70.0839  224.7879 H   0  0  0  0  0  0  0  0  0  0  0  0
  138.9157   72.0326  224.5498 H   0  0  0  0  0  0  0  0  0  0  0  0
  139.4845   69.1701  224.4695 H   0  0  0  0  0  0  0  0  0  0  0  0
  140.8107   70.1244  223.7480 H   0  0  0  0  0  0  0  0  0  0  0  0
  139.4747   68.8972  226.6907 H   0  0  0  0  0  0  0  0  0  0  0  0
  140.0916   69.5381  228.9879 H   0  0  0  0  0  0  0  0  0  0  0  0
  141.3377   71.6698  229.3908 H   0  0  0  0  0  0  0  0  0  0  0  0
  141.9382   73.1215  227.4640 H   0  0  0  0  0  0  0  0  0  0  0  0
  141.2935   72.4336  225.1666 H   0  0  0  0  0  0  0  0  0  0  0  0
  137.2891   78.5180  222.8824 H   0  0  0  0  0  0  0  0  0  0  0  0
  140.1339   82.1137  223.7891 H   0  0  0  0  0  0  0  0  0  0  0  0
  142.6003   82.4404  223.8915 H   0  0  0  0  0  0  0  0  0  0  0  0
  144.0983   80.4772  223.4264 H   0  0  0  0  0  0  0  0  0  0  0  0
  143.1128   78.2811  222.8814 H   0  0  0  0  0  0  0  0  0  0  0  0
  1  2  2  0
  2  3  1  0
  3  4  1  0
  4  5  1  0
  5  6  2  0
  5  7  1  0
  7  8  1  0
  8  9  1  0
  9 10  1  0
 10 11  1  0
 11 12  1  0
 12 13  1  0
 13 14  1  0
 14 15  2  0
 15 16  1  0
 16 17  2  0
 17 18  1  0
 18 19  2  0
  2 20  1  0
 20 21  2  0
 21 22  1  0
 22 23  2  0
 23 24  1  0
 24 25  2  0
 25 26  1  0
 26 27  2  0
 27 28  1  0
 28 29  2  0
 12  7  1  0
 19 14  1  0
 29 20  1  0
 28 23  1  0
  3 30  1  0
  4 31  1  0
  4 32  1  0
  8 33  1  0
  8 34  1  0
  9 35  1  0
  9 36  1  0
 10 37  1  0
 10 38  1  0
 11 39  1  0
 11 40  1  0
 12 41  1  1
 13 42  1  0
 13 43  1  0
 15 44  1  0
 16 45  1  0
 17 46  1  0
 18 47  1  0
 19 48  1  0
 21 49  1  0
 24 50  1  0
 25 51  1  0
 26 52  1  0
 27 53  1  0
M  END
>  <smiles>  (77) 
O=C(NCC(=O)N1CCCCC1Cc1ccccc1)c1cnc2ccccc2n1

>  <score_type>  (77) 
oracle

>  <origin>  (77) 
autodockgpu

>  <m_score__min__energy>  (77) 
-9.3399999999999999

>  <m_primary>  (77) 
energy

>  <rmsd>  (77) 
8.018066688825076

>  <m_score__min__rmsd>  (77) 
8.018066688825076

>  <meeko>  (77) 
{"free_energy": -8.71, "intermolecular_energy": -10.5, "internal_energy": -1.95, "cluster_size": 21, "cluster_id": 1, "rank_in_cluster": 12}

>  <energy>  (77) 
-8.87

>  <cluster_rmsd>  (77) 
0.42

>  <cluster>  (77) 
2

$$$$

     RDKit          3D

 53 56  0  0  0  0  0  0  0  0999 V2000
  139.7540   70.8850  221.2390 O   0  0  0  0  0  0  0  0  0  0  0  0
  139.7310   71.5140  222.3300 C   0  0  0  0  0  0  0  0  0  0  0  0
  139.6730   72.9290  222.3180 N   0  0  0  0  0  0  0  0  0  0  0  0
  139.6410   73.6130  221.0270 C   0  0  0  0  0  0  0  0  0  0  0  0
  140.0980   75.0050  221.2830 C   0  0  0  0  0  0  0  0  0  0  0  0
  139.9930   75.5630  222.4090 O   0  0  0  0  0  0  0  0  0  0  0  0
  140.6810   75.7650  220.2310 N   0  0  0  0  0  0  0  0  0  0  0  0
  140.1730   75.5700  218.8730 C   0  0  0  0  0  0  0  0  0  0  0  0
  141.3080   75.3060  217.9080 C   0  0  0  0  0  0  0  0  0  0  0  0
  142.4580   76.2590  218.1180 C   0  0  0  0  0  0  0  0  0  0  0  0
  142.8700   76.4100  219.5450 C   0  0  0  0  0  0  0  0  0  0  0  0
  141.7500   76.7100  220.4940 C   0  0  1  0  0  0  0  0  0  0  0  0
  141.2220   78.1300  220.3320 C   0  0  0  0  0  0  0  0  0  0  0  0
  141.6380   78.9150  221.5220 C   0  0  0  0  0  0  0  0  0  0  0  0
  141.4560   78.3770  222.7770 C   0  0  0  0  0  0  0  0  0  0  0  0
  141.8160   79.0480  223.9260 C   0  0  0  0  0  0  0  0  0  0  0  0
  142.3850   80.3170  223.8290 C   0  0  0  0  0  0  0  0  0  0  0  0
  142.5800   80.8820  222.5900 C   0  0  0  0  0  0  0  0  0  0  0  0
  142.2010   80.1680  221.4530 C   0  0  0  0  0  0  0  0  0  0  0  0
  139.7650   70.8100  223.6100 C   0  0  0  0  0  0  0  0  0  0  0  0
  139.2730   69.5060  223.6850 C   0  0  0  0  0  0  0  0  0  0  0  0
  139.2950   68.8390  224.8640 N   0  0  0  0  0  0  0  0  0  0  0  0
  139.7880   69.4120  225.9770 C   0  0  0  0  0  0  0  0  0  0  0  0
  139.8180   68.7460  227.1870 C   0  0  0  0  0  0  0  0  0  0  0  0
  140.3250   69.3330  228.3420 C   0  0  0  0  0  0  0  0  0  0  0  0
  140.8150   70.6380  228.2550 C   0  0  0  0  0  0  0  0  0  0  0  0
  140.7840   71.3040  227.0450 C   0  0  0  0  0  0  0  0  0  0  0  0
  140.2790   70.7170  225.8990 C   0  0  0  0  0  0  0  0  0  0  0  0
  140.2580   71.3850  224.7260 N   0  0  0  0  0  0  0  0  0  0  0  0
  139.6560   73.4170  223.2280 H   0  0  0  0  0  0  0  0  0  0  0  0
  140.3156   73.1151  220.3149 H   0  0  0  0  0  0  0  0  0  0  0  0
  138.6317   73.5967  220.5898 H   0  0  0  0  0  0  0  0  0  0  0  0
  139.4855   74.7113  218.8649 H   0  0  0  0  0  0  0  0  0  0  0  0
  139.6477   76.4838  218.5583 H   0  0  0  0  0  0  0  0  0  0  0  0
  141.6676   74.2769  218.0550 H   0  0  0  0  0  0  0  0  0  0  0  0
  140.9274   75.4510  216.8862 H   0  0  0  0  0  0  0  0  0  0  0  0
  143.3219   75.8896  217.5460 H   0  0  0  0  0  0  0  0  0  0  0  0
  142.1167   77.2484  217.7794 H   0  0  0  0  0  0  0  0  0  0  0  0
  143.3472   75.4718  219.8645 H   0  0  0  0  0  0  0  0  0  0  0  0
  143.5473   77.2759  219.5818 H   0  0  0  0  0  0  0  0  0  0  0  0
  142.1256   76.6201  221.5240 H   0  0  0  0  0  0  0  0  0  0  0  0
  141.6418   78.5824  219.4214 H   0  0  0  0  0  0  0  0  0  0  0  0
  140.1255   78.1215  220.2452 H   0  0  0  0  0  0  0  0  0  0  0  0
  141.0075   77.3765  222.8654 H   0  0  0  0  0  0  0  0  0  0  0  0
  141.6556   78.5860  224.9113 H   0  0  0  0  0  0  0  0  0  0  0  0
  142.6764   80.8634  224.7381 H   0  0  0  0  0  0  0  0  0  0  0  0
  143.0282   81.8822  222.4971 H   0  0  0  0  0  0  0  0  0  0  0  0
  142.3583   80.6241  220.4645 H   0  0  0  0  0  0  0  0  0  0  0  0
  138.8670   69.0194  222.7859 H   0  0  0  0  0  0  0  0  0  0  0  0
  139.4285   67.7186  227.2389 H   0  0  0  0  0  0  0  0  0  0  0  0
  140.3395   68.7853  229.2958 H   0  0  0  0  0  0  0  0  0  0  0  0
  141.2244   71.1341  229.1473 H   0  0  0  0  0  0  0  0  0  0  0  0
  141.1725   72.3317  226.9914 H   0  0  0  0  0  0  0  0  0  0  0  0
  1  2  2  0
  2  3  1  0
  3  4  1  0
  4  5  1  0
  5  6  2  0
  5  7  1  0
  7  8  1  0
  8  9  1  0
  9 10  1  0
 10 11  1  0
 11 12  1  0
 12 13  1  0
 13 14  1  0
 14 15  2  0
 15 16  1  0
 16 17  2  0
 17 18  1  0
 18 19  2  0
  2 20  1  0
 20 21  2  0
 21 22  1  0
 22 23  2  0
 23 24  1  0
 24 25  2  0
 25 26  1  0
 26 27  2  0
 27 28  1  0
 28 29  2  0
 12  7  1  0
 19 14  1  0
 29 20  1  0
 28 23  1  0
  3 30  1  0
  4 31  1  0
  4 32  1  0
  8 33  1  0
  8 34  1  0
  9 35  1  0
  9 36  1  0
 10 37  1  0
 10 38  1  0
 11 39  1  0
 11 40  1  0
 12 41  1  1
 13 42  1  0
 13 43  1  0
 15 44  1  0
 16 45  1  0
 17 46  1  0
 18 47  1  0
 19 48  1  0
 21 49  1  0
 24 50  1  0
 25 51  1  0
 26 52  1  0
 27 53  1  0
M  END
>  <smiles>  (78) 
O=C(NCC(=O)N1CCCCC1Cc1ccccc1)c1cnc2ccccc2n1

>  <score_type>  (78) 
oracle

>  <origin>  (78) 
autodockgpu

>  <m_score__min__energy>  (78) 
-9.3399999999999999

>  <m_primary>  (78) 
energy

>  <rmsd>  (78) 
1.3888612011367443

>  <m_score__min__rmsd>  (78) 
1.3888612011367443

>  <meeko>  (78) 
{"free_energy": -8.82, "intermolecular_energy": -10.61, "internal_energy": -1.93, "cluster_size": 18, "cluster_id": 2, "rank_in_cluster": 11}

>  <energy>  (78) 
-8.86

>  <cluster_rmsd>  (78) 
0.26

>  <cluster>  (78) 
2

$$$$

     RDKit          3D

 53 56  0  0  0  0  0  0  0  0999 V2000
  140.4210   71.0440  221.2590 O   0  0  0  0  0  0  0  0  0  0  0  0
  140.1100   71.6710  222.3060 C   0  0  0  0  0  0  0  0  0  0  0  0
  139.8410   73.0600  222.2340 N   0  0  0  0  0  0  0  0  0  0  0  0
  139.9350   73.7200  220.9330 C   0  0  0  0  0  0  0  0  0  0  0  0
  140.2380   75.1490  221.2130 C   0  0  0  0  0  0  0  0  0  0  0  0
  140.0410   75.6810  222.3390 O   0  0  0  0  0  0  0  0  0  0  0  0
  140.7710   75.9760  220.1850 N   0  0  0  0  0  0  0  0  0  0  0  0
  140.1880   75.8790  218.8470 C   0  0  0  0  0  0  0  0  0  0  0  0
  141.2650   75.6740  217.8050 C   0  0  0  0  0  0  0  0  0  0  0  0
  142.4360   76.6010  218.0160 C   0  0  0  0  0  0  0  0  0  0  0  0
  142.9270   76.6500  219.4250 C   0  0  0  0  0  0  0  0  0  0  0  0
  141.8630   76.8910  220.4530 C   0  0  1  0  0  0  0  0  0  0  0  0
  141.3430   78.3240  220.4190 C   0  0  0  0  0  0  0  0  0  0  0  0
  141.6820   78.9680  221.7120 C   0  0  0  0  0  0  0  0  0  0  0  0
  142.2520   80.2230  221.7070 C   0  0  0  0  0  0  0  0  0  0  0  0
  142.5940   80.8820  222.8680 C   0  0  0  0  0  0  0  0  0  0  0  0
  142.3610   80.2690  224.0980 C   0  0  0  0  0  0  0  0  0  0  0  0
  141.7940   79.0160  224.1380 C   0  0  0  0  0  0  0  0  0  0  0  0
  141.4630   78.3850  222.9380 C   0  0  0  0  0  0  0  0  0  0  0  0
  140.0220   70.9920  223.5970 C   0  0  0  0  0  0  0  0  0  0  0  0
  139.3960   69.7470  223.6720 C   0  0  0  0  0  0  0  0  0  0  0  0
  139.3050   69.1040  224.8610 N   0  0  0  0  0  0  0  0  0  0  0  0
  139.8120   69.6450  225.9840 C   0  0  0  0  0  0  0  0  0  0  0  0
  139.7270   69.0010  227.2030 C   0  0  0  0  0  0  0  0  0  0  0  0
  140.2490   69.5550  228.3690 C   0  0  0  0  0  0  0  0  0  0  0  0
  140.8730   70.8010  228.2820 C   0  0  0  0  0  0  0  0  0  0  0  0
  140.9570   71.4440  227.0610 C   0  0  0  0  0  0  0  0  0  0  0  0
  140.4380   70.8900  225.9050 C   0  0  0  0  0  0  0  0  0  0  0  0
  140.5300   71.5350  224.7230 N   0  0  0  0  0  0  0  0  0  0  0  0
  139.5890   73.5470  223.1080 H   0  0  0  0  0  0  0  0  0  0  0  0
  140.7405   73.2697  220.3344 H   0  0  0  0  0  0  0  0  0  0  0  0
  139.0015   73.6130  220.3611 H   0  0  0  0  0  0  0  0  0  0  0  0
  139.4916   75.0280  218.8180 H   0  0  0  0  0  0  0  0  0  0  0  0
  139.6569   76.8164  218.6252 H   0  0  0  0  0  0  0  0  0  0  0  0
  141.6200   74.6344  217.8604 H   0  0  0  0  0  0  0  0  0  0  0  0
  140.8306   75.8929  216.8184 H   0  0  0  0  0  0  0  0  0  0  0  0
  143.2630   76.2650  217.3733 H   0  0  0  0  0  0  0  0  0  0  0  0
  142.0884   77.6141  217.7653 H   0  0  0  0  0  0  0  0  0  0  0  0
  143.4112   75.6888  219.6524 H   0  0  0  0  0  0  0  0  0  0  0  0
  143.6145   77.5067  219.4839 H   0  0  0  0  0  0  0  0  0  0  0  0
  142.2931   76.7256  221.4518 H   0  0  0  0  0  0  0  0  0  0  0  0
  141.8179   78.8735  219.5929 H   0  0  0  0  0  0  0  0  0  0  0  0
  140.2540   78.3307  220.2638 H   0  0  0  0  0  0  0  0  0  0  0  0
  142.4406   80.7161  220.7420 H   0  0  0  0  0  0  0  0  0  0  0  0
  143.0471   81.8834  222.8244 H   0  0  0  0  0  0  0  0  0  0  0  0
  142.6291   80.7844  225.0321 H   0  0  0  0  0  0  0  0  0  0  0  0
  141.6045   78.5192  225.1010 H   0  0  0  0  0  0  0  0  0  0  0  0
  141.0097   77.3834  222.9743 H   0  0  0  0  0  0  0  0  0  0  0  0
  138.9761   69.2874  222.7651 H   0  0  0  0  0  0  0  0  0  0  0  0
  139.2317   68.0202  227.2543 H   0  0  0  0  0  0  0  0  0  0  0  0
  140.1720   69.0264  229.3306 H   0  0  0  0  0  0  0  0  0  0  0  0
  141.2966   71.2697  229.1825 H   0  0  0  0  0  0  0  0  0  0  0  0
  141.4512   72.4252  227.0074 H   0  0  0  0  0  0  0  0  0  0  0  0
  1  2  2  0
  2  3  1  0
  3  4  1  0
  4  5  1  0
  5  6  2  0
  5  7  1  0
  7  8  1  0
  8  9  1  0
  9 10  1  0
 10 11  1  0
 11 12  1  0
 12 13  1  0
 13 14  1  0
 14 15  2  0
 15 16  1  0
 16 17  2  0
 17 18  1  0
 18 19  2  0
  2 20  1  0
 20 21  2  0
 21 22  1  0
 22 23  2  0
 23 24  1  0
 24 25  2  0
 25 26  1  0
 26 27  2  0
 27 28  1  0
 28 29  2  0
 12  7  1  0
 19 14  1  0
 29 20  1  0
 28 23  1  0
  3 30  1  0
  4 31  1  0
  4 32  1  0
  8 33  1  0
  8 34  1  0
  9 35  1  0
  9 36  1  0
 10 37  1  0
 10 38  1  0
 11 39  1  0
 11 40  1  0
 12 41  1  1
 13 42  1  0
 13 43  1  0
 15 44  1  0
 16 45  1  0
 17 46  1  0
 18 47  1  0
 19 48  1  0
 21 49  1  0
 24 50  1  0
 25 51  1  0
 26 52  1  0
 27 53  1  0
M  END
>  <smiles>  (79) 
O=C(NCC(=O)N1CCCCC1Cc1ccccc1)c1cnc2ccccc2n1

>  <score_type>  (79) 
oracle

>  <origin>  (79) 
autodockgpu

>  <m_score__min__energy>  (79) 
-9.3399999999999999

>  <m_primary>  (79) 
energy

>  <rmsd>  (79) 
1.5240094541255118

>  <m_score__min__rmsd>  (79) 
1.5240094541255118

>  <meeko>  (79) 
{"free_energy": -8.92, "intermolecular_energy": -10.71, "internal_energy": -1.85, "cluster_size": 18, "cluster_id": 2, "rank_in_cluster": 2}

>  <energy>  (79) 
-8.85

>  <cluster_rmsd>  (79) 
0.46

>  <cluster>  (79) 
2

$$$$

     RDKit          3D

 53 56  0  0  0  0  0  0  0  0999 V2000
  137.4850   76.0120  222.1850 O   0  0  0  0  0  0  0  0  0  0  0  0
  138.7310   76.1870  222.2480 C   0  0  0  0  0  0  0  0  0  0  0  0
  139.6020   75.1030  221.9810 N   0  0  0  0  0  0  0  0  0  0  0  0
  139.0170   73.8080  221.6400 C   0  0  0  0  0  0  0  0  0  0  0  0
  139.8580   72.7820  222.3120 C   0  0  0  0  0  0  0  0  0  0  0  0
  141.0500   72.9970  222.6610 O   0  0  0  0  0  0  0  0  0  0  0  0
  139.3200   71.4930  222.5850 N   0  0  0  0  0  0  0  0  0  0  0  0
  139.2160   70.5390  221.4810 C   0  0  0  0  0  0  0  0  0  0  0  0
  137.8210   69.9580  221.4030 C   0  0  0  0  0  0  0  0  0  0  0  0
  137.3050   69.5510  222.7600 C   0  0  0  0  0  0  0  0  0  0  0  0
  137.4950   70.5850  223.8200 C   0  0  0  0  0  0  0  0  0  0  0  0
  138.8880   71.1310  223.9210 C   0  0  1  0  0  0  0  0  0  0  0  0
  139.8620   70.1190  224.5130 C   0  0  0  0  0  0  0  0  0  0  0  0
  140.2710   70.6030  225.8550 C   0  0  0  0  0  0  0  0  0  0  0  0
  141.0010   71.7680  225.9540 C   0  0  0  0  0  0  0  0  0  0  0  0
  141.4170   72.2760  227.1660 C   0  0  0  0  0  0  0  0  0  0  0  0
  141.0950   71.5980  228.3400 C   0  0  0  0  0  0  0  0  0  0  0  0
  140.3680   70.4320  228.2760 C   0  0  0  0  0  0  0  0  0  0  0  0
  139.9670   69.9530  227.0280 C   0  0  0  0  0  0  0  0  0  0  0  0
  139.2950   77.4910  222.5930 C   0  0  0  0  0  0  0  0  0  0  0  0
  138.4360   78.5650  222.8270 C   0  0  0  0  0  0  0  0  0  0  0  0
  138.9430   79.7810  223.1470 N   0  0  0  0  0  0  0  0  0  0  0  0
  140.2700   79.9770  223.2450 C   0  0  0  0  0  0  0  0  0  0  0  0
  140.8020   81.2100  223.5690 C   0  0  0  0  0  0  0  0  0  0  0  0
  142.1740   81.4190  223.6710 C   0  0  0  0  0  0  0  0  0  0  0  0
  143.0230   80.3370  223.4350 C   0  0  0  0  0  0  0  0  0  0  0  0
  142.4910   79.1030  223.1090 C   0  0  0  0  0  0  0  0  0  0  0  0
  141.1270   78.8990  223.0090 C   0  0  0  0  0  0  0  0  0  0  0  0
  140.6260   77.6870  222.6900 N   0  0  0  0  0  0  0  0  0  0  0  0
  140.6180   75.2770  222.0410 H   0  0  0  0  0  0  0  0  0  0  0  0
  137.9808   73.7499  222.0046 H   0  0  0  0  0  0  0  0  0  0  0  0
  138.9914   73.6543  220.5511 H   0  0  0  0  0  0  0  0  0  0  0  0
  139.4456   71.0539  220.5365 H   0  0  0  0  0  0  0  0  0  0  0  0
  139.9300   69.7202  221.6539 H   0  0  0  0  0  0  0  0  0  0  0  0
  137.1444   70.7135  220.9771 H   0  0  0  0  0  0  0  0  0  0  0  0
  137.8608   69.0594  220.7697 H   0  0  0  0  0  0  0  0  0  0  0  0
  136.2289   69.3408  222.6715 H   0  0  0  0  0  0  0  0  0  0  0  0
  137.8862   68.6697  223.0690 H   0  0  0  0  0  0  0  0  0  0  0  0
  136.8135   71.4221  223.6081 H   0  0  0  0  0  0  0  0  0  0  0  0
  137.2859   70.0885  224.7790 H   0  0  0  0  0  0  0  0  0  0  0  0
  138.8790   72.0020  224.5928 H   0  0  0  0  0  0  0  0  0  0  0  0
  139.3716   69.1386  224.6038 H   0  0  0  0  0  0  0  0  0  0  0  0
  140.7422   70.0116  223.8621 H   0  0  0  0  0  0  0  0  0  0  0  0
  141.2607   72.3114  225.0335 H   0  0  0  0  0  0  0  0  0  0  0  0
  141.9984   73.2089  227.2061 H   0  0  0  0  0  0  0  0  0  0  0  0
  141.4207   71.9934  229.3135 H   0  0  0  0  0  0  0  0  0  0  0  0
  140.1067   69.8856  229.1942 H   0  0  0  0  0  0  0  0  0  0  0  0
  139.3858   69.0203  226.9809 H   0  0  0  0  0  0  0  0  0  0  0  0
  137.3475   78.4253  222.7519 H   0  0  0  0  0  0  0  0  0  0  0  0
  140.1196   82.0531  223.7521 H   0  0  0  0  0  0  0  0  0  0  0  0
  142.5777   82.4088  223.9303 H   0  0  0  0  0  0  0  0  0  0  0  0
  144.1130   80.4654  223.5081 H   0  0  0  0  0  0  0  0  0  0  0  0
  143.1723   78.2595  222.9239 H   0  0  0  0  0  0  0  0  0  0  0  0
  1  2  2  0
  2  3  1  0
  3  4  1  0
  4  5  1  0
  5  6  2  0
  5  7  1  0
  7  8  1  0
  8  9  1  0
  9 10  1  0
 10 11  1  0
 11 12  1  0
 12 13  1  0
 13 14  1  0
 14 15  2  0
 15 16  1  0
 16 17  2  0
 17 18  1  0
 18 19  2  0
  2 20  1  0
 20 21  2  0
 21 22  1  0
 22 23  2  0
 23 24  1  0
 24 25  2  0
 25 26  1  0
 26 27  2  0
 27 28  1  0
 28 29  2  0
 12  7  1  0
 19 14  1  0
 29 20  1  0
 28 23  1  0
  3 30  1  0
  4 31  1  0
  4 32  1  0
  8 33  1  0
  8 34  1  0
  9 35  1  0
  9 36  1  0
 10 37  1  0
 10 38  1  0
 11 39  1  0
 11 40  1  0
 12 41  1  1
 13 42  1  0
 13 43  1  0
 15 44  1  0
 16 45  1  0
 17 46  1  0
 18 47  1  0
 19 48  1  0
 21 49  1  0
 24 50  1  0
 25 51  1  0
 26 52  1  0
 27 53  1  0
M  END
>  <smiles>  (80) 
O=C(NCC(=O)N1CCCCC1Cc1ccccc1)c1cnc2ccccc2n1

>  <score_type>  (80) 
oracle

>  <origin>  (80) 
autodockgpu

>  <m_score__min__energy>  (80) 
-9.3399999999999999

>  <m_primary>  (80) 
energy

>  <rmsd>  (80) 
8.016135203515223

>  <m_score__min__rmsd>  (80) 
8.016135203515223

>  <meeko>  (80) 
{"free_energy": -8.69, "intermolecular_energy": -10.48, "internal_energy": -1.95, "cluster_size": 21, "cluster_id": 1, "rank_in_cluster": 13}

>  <energy>  (80) 
-8.83

>  <cluster_rmsd>  (80) 
0.48

>  <cluster>  (80) 
2

$$$$

     RDKit          3D

 53 56  0  0  0  0  0  0  0  0999 V2000
  140.0560   70.9920  221.2500 O   0  0  0  0  0  0  0  0  0  0  0  0
  139.8960   71.6120  222.3350 C   0  0  0  0  0  0  0  0  0  0  0  0
  139.7150   73.0160  222.3160 N   0  0  0  0  0  0  0  0  0  0  0  0
  139.7210   73.7010  221.0250 C   0  0  0  0  0  0  0  0  0  0  0  0
  140.2320   75.0730  221.2850 C   0  0  0  0  0  0  0  0  0  0  0  0
  140.1940   75.6120  222.4240 O   0  0  0  0  0  0  0  0  0  0  0  0
  140.7920   75.8350  220.2210 N   0  0  0  0  0  0  0  0  0  0  0  0
  140.2340   75.6640  218.8800 C   0  0  0  0  0  0  0  0  0  0  0  0
  141.3300   75.3900  217.8730 C   0  0  0  0  0  0  0  0  0  0  0  0
  142.5040   76.3200  218.0530 C   0  0  0  0  0  0  0  0  0  0  0  0
  142.9680   76.4480  219.4670 C   0  0  0  0  0  0  0  0  0  0  0  0
  141.8860   76.7570  220.4570 C   0  0  1  0  0  0  0  0  0  0  0  0
  141.3780   78.1880  220.3290 C   0  0  0  0  0  0  0  0  0  0  0  0
  141.6600   78.8940  221.6040 C   0  0  0  0  0  0  0  0  0  0  0  0
  142.1910   80.1650  221.5640 C   0  0  0  0  0  0  0  0  0  0  0  0
  142.4810   80.8790  222.7070 C   0  0  0  0  0  0  0  0  0  0  0  0
  142.2330   80.3080  223.9530 C   0  0  0  0  0  0  0  0  0  0  0  0
  141.7040   79.0400  224.0280 C   0  0  0  0  0  0  0  0  0  0  0  0
  141.4260   78.3520  222.8460 C   0  0  0  0  0  0  0  0  0  0  0  0
  139.8940   70.9070  223.6160 C   0  0  0  0  0  0  0  0  0  0  0  0
  139.3880   69.6090  223.6790 C   0  0  0  0  0  0  0  0  0  0  0  0
  139.3780   68.9410  224.8590 N   0  0  0  0  0  0  0  0  0  0  0  0
  139.8510   69.5090  225.9820 C   0  0  0  0  0  0  0  0  0  0  0  0
  139.8480   68.8420  227.1920 C   0  0  0  0  0  0  0  0  0  0  0  0
  140.3350   69.4250  228.3580 C   0  0  0  0  0  0  0  0  0  0  0  0
  140.8400   70.7240  228.2830 C   0  0  0  0  0  0  0  0  0  0  0  0
  140.8420   71.3910  227.0720 C   0  0  0  0  0  0  0  0  0  0  0  0
  140.3570   70.8090  225.9150 C   0  0  0  0  0  0  0  0  0  0  0  0
  140.3680   71.4770  224.7420 N   0  0  0  0  0  0  0  0  0  0  0  0
  139.5860   73.4960  223.2210 H   0  0  0  0  0  0  0  0  0  0  0  0
  140.3804   73.1762  220.3181 H   0  0  0  0  0  0  0  0  0  0  0  0
  138.7153   73.7257  220.5800 H   0  0  0  0  0  0  0  0  0  0  0  0
  139.5310   74.8180  218.8871 H   0  0  0  0  0  0  0  0  0  0  0  0
  139.7151   76.5905  218.5932 H   0  0  0  0  0  0  0  0  0  0  0  0
  141.6755   74.3530  217.9966 H   0  0  0  0  0  0  0  0  0  0  0  0
  140.9170   75.5529  216.8666 H   0  0  0  0  0  0  0  0  0  0  0  0
  143.3408   75.9415  217.4475 H   0  0  0  0  0  0  0  0  0  0  0  0
  142.1693   77.3190  217.7368 H   0  0  0  0  0  0  0  0  0  0  0  0
  143.4391   75.4982  219.7600 H   0  0  0  0  0  0  0  0  0  0  0  0
  143.6619   77.3012  219.4896 H   0  0  0  0  0  0  0  0  0  0  0  0
  142.2954   76.6484  221.4722 H   0  0  0  0  0  0  0  0  0  0  0  0
  141.8948   78.6943  219.5004 H   0  0  0  0  0  0  0  0  0  0  0  0
  140.2975   78.1915  220.1227 H   0  0  0  0  0  0  0  0  0  0  0  0
  142.3905   80.6261  220.5854 H   0  0  0  0  0  0  0  0  0  0  0  0
  142.9049   81.8915  222.6356 H   0  0  0  0  0  0  0  0  0  0  0  0
  142.4589   80.8679  224.8725 H   0  0  0  0  0  0  0  0  0  0  0  0
  141.5032   78.5756  225.0048 H   0  0  0  0  0  0  0  0  0  0  0  0
  141.0039   77.3382  222.9102 H   0  0  0  0  0  0  0  0  0  0  0  0
  138.9968   69.1268  222.7710 H   0  0  0  0  0  0  0  0  0  0  0  0
  139.4482   67.8181  227.2350 H   0  0  0  0  0  0  0  0  0  0  0  0
  140.3223   68.8775  229.3120 H   0  0  0  0  0  0  0  0  0  0  0  0
  141.2351   71.2154  229.1844 H   0  0  0  0  0  0  0  0  0  0  0  0
  141.2412   72.4150  227.0274 H   0  0  0  0  0  0  0  0  0  0  0  0
  1  2  2  0
  2  3  1  0
  3  4  1  0
  4  5  1  0
  5  6  2  0
  5  7  1  0
  7  8  1  0
  8  9  1  0
  9 10  1  0
 10 11  1  0
 11 12  1  0
 12 13  1  0
 13 14  1  0
 14 15  2  0
 15 16  1  0
 16 17  2  0
 17 18  1  0
 18 19  2  0
  2 20  1  0
 20 21  2  0
 21 22  1  0
 22 23  2  0
 23 24  1  0
 24 25  2  0
 25 26  1  0
 26 27  2  0
 27 28  1  0
 28 29  2  0
 12  7  1  0
 19 14  1  0
 29 20  1  0
 28 23  1  0
  3 30  1  0
  4 31  1  0
  4 32  1  0
  8 33  1  0
  8 34  1  0
  9 35  1  0
  9 36  1  0
 10 37  1  0
 10 38  1  0
 11 39  1  0
 11 40  1  0
 12 41  1  1
 13 42  1  0
 13 43  1  0
 15 44  1  0
 16 45  1  0
 17 46  1  0
 18 47  1  0
 19 48  1  0
 21 49  1  0
 24 50  1  0
 25 51  1  0
 26 52  1  0
 27 53  1  0
M  END
>  <smiles>  (81) 
O=C(NCC(=O)N1CCCCC1Cc1ccccc1)c1cnc2ccccc2n1

>  <score_type>  (81) 
oracle

>  <origin>  (81) 
autodockgpu

>  <m_score__min__energy>  (81) 
-9.3399999999999999

>  <m_primary>  (81) 
energy

>  <rmsd>  (81) 
1.4412408339420393

>  <m_score__min__rmsd>  (81) 
1.4412408339420393

>  <meeko>  (81) 
{"free_energy": -8.87, "intermolecular_energy": -10.66, "internal_energy": -1.87, "cluster_size": 18, "cluster_id": 2, "rank_in_cluster": 6}

>  <energy>  (81) 
-8.82

>  <cluster_rmsd>  (81) 
0.21

>  <cluster>  (81) 
2

$$$$

     RDKit          3D

 53 56  0  0  0  0  0  0  0  0999 V2000
  140.6440   71.4800  221.2850 O   0  0  0  0  0  0  0  0  0  0  0  0
  140.1850   72.0280  222.3220 C   0  0  0  0  0  0  0  0  0  0  0  0
  139.7160   73.3630  222.2550 N   0  0  0  0  0  0  0  0  0  0  0  0
  139.7830   74.0610  220.9730 C   0  0  0  0  0  0  0  0  0  0  0  0
  140.6670   75.2380  221.1880 C   0  0  0  0  0  0  0  0  0  0  0  0
  141.0480   75.6070  222.3310 O   0  0  0  0  0  0  0  0  0  0  0  0
  141.1140   76.0010  220.0730 N   0  0  0  0  0  0  0  0  0  0  0  0
  140.4710   75.7770  218.7780 C   0  0  0  0  0  0  0  0  0  0  0  0
  141.5040   75.5320  217.7000 C   0  0  0  0  0  0  0  0  0  0  0  0
  142.6440   76.5170  217.7790 C   0  0  0  0  0  0  0  0  0  0  0  0
  143.2000   76.6950  219.1530 C   0  0  0  0  0  0  0  0  0  0  0  0
  142.1780   76.9760  220.2130 C   0  0  1  0  0  0  0  0  0  0  0  0
  141.5980   78.3800  220.0960 C   0  0  0  0  0  0  0  0  0  0  0  0
  141.7260   79.0450  221.4170 C   0  0  0  0  0  0  0  0  0  0  0  0
  142.1480   80.3560  221.4700 C   0  0  0  0  0  0  0  0  0  0  0  0
  142.2920   81.0360  222.6600 C   0  0  0  0  0  0  0  0  0  0  0  0
  142.0070   80.3870  223.8590 C   0  0  0  0  0  0  0  0  0  0  0  0
  141.5850   79.0780  223.8410 C   0  0  0  0  0  0  0  0  0  0  0  0
  141.4520   78.4270  222.6140 C   0  0  0  0  0  0  0  0  0  0  0  0
  140.1270   71.3120  223.5940 C   0  0  0  0  0  0  0  0  0  0  0  0
  139.5630   70.0360  223.6340 C   0  0  0  0  0  0  0  0  0  0  0  0
  139.5010   69.3580  224.8060 N   0  0  0  0  0  0  0  0  0  0  0  0
  139.9770   69.8940  225.9440 C   0  0  0  0  0  0  0  0  0  0  0  0
  139.9210   69.2160  227.1460 C   0  0  0  0  0  0  0  0  0  0  0  0
  140.4110   69.7640  228.3280 C   0  0  0  0  0  0  0  0  0  0  0  0
  140.9730   71.0410  228.2760 C   0  0  0  0  0  0  0  0  0  0  0  0
  141.0280   71.7190  227.0730 C   0  0  0  0  0  0  0  0  0  0  0  0
  140.5410   71.1710  225.9010 C   0  0  0  0  0  0  0  0  0  0  0  0
  140.6040   71.8490  224.7360 N   0  0  0  0  0  0  0  0  0  0  0  0
  139.3460   73.7850  223.1210 H   0  0  0  0  0  0  0  0  0  0  0  0
  140.2068   73.4015  220.2013 H   0  0  0  0  0  0  0  0  0  0  0  0
  138.7836   74.3671  220.6301 H   0  0  0  0  0  0  0  0  0  0  0  0
  139.8104   74.9004  218.8503 H   0  0  0  0  0  0  0  0  0  0  0  0
  139.8908   76.6731  218.5129 H   0  0  0  0  0  0  0  0  0  0  0  0
  141.9047   74.5142  217.8162 H   0  0  0  0  0  0  0  0  0  0  0  0
  141.0134   75.6559  216.7233 H   0  0  0  0  0  0  0  0  0  0  0  0
  143.4524   76.1635  217.1221 H   0  0  0  0  0  0  0  0  0  0  0  0
  142.2424   77.4933  217.4698 H   0  0  0  0  0  0  0  0  0  0  0  0
  143.7340   75.7735  219.4281 H   0  0  0  0  0  0  0  0  0  0  0  0
  143.8534   77.5789  219.1106 H   0  0  0  0  0  0  0  0  0  0  0  0
  142.6622   76.9070  221.1983 H   0  0  0  0  0  0  0  0  0  0  0  0
  142.1529   78.9503  219.3365 H   0  0  0  0  0  0  0  0  0  0  0  0
  140.5410   78.3312  219.7954 H   0  0  0  0  0  0  0  0  0  0  0  0
  142.3779   80.8779  220.5294 H   0  0  0  0  0  0  0  0  0  0  0  0
  142.6294   82.0830  222.6629 H   0  0  0  0  0  0  0  0  0  0  0  0
  142.1188   80.9186  224.8155 H   0  0  0  0  0  0  0  0  0  0  0  0
  141.3558   78.5523  224.7797 H   0  0  0  0  0  0  0  0  0  0  0  0
  141.1152   77.3799  222.6042 H   0  0  0  0  0  0  0  0  0  0  0  0
  139.1686   69.5803  222.7138 H   0  0  0  0  0  0  0  0  0  0  0  0
  139.4749   68.2108  227.1700 H   0  0  0  0  0  0  0  0  0  0  0  0
  140.3570   69.2073  229.2752 H   0  0  0  0  0  0  0  0  0  0  0  0
  141.3709   71.5061  229.1900 H   0  0  0  0  0  0  0  0  0  0  0  0
  141.4726   72.7248  227.0473 H   0  0  0  0  0  0  0  0  0  0  0  0
  1  2  2  0
  2  3  1  0
  3  4  1  0
  4  5  1  0
  5  6  2  0
  5  7  1  0
  7  8  1  0
  8  9  1  0
  9 10  1  0
 10 11  1  0
 11 12  1  0
 12 13  1  0
 13 14  1  0
 14 15  2  0
 15 16  1  0
 16 17  2  0
 17 18  1  0
 18 19  2  0
  2 20  1  0
 20 21  2  0
 21 22  1  0
 22 23  2  0
 23 24  1  0
 24 25  2  0
 25 26  1  0
 26 27  2  0
 27 28  1  0
 28 29  2  0
 12  7  1  0
 19 14  1  0
 29 20  1  0
 28 23  1  0
  3 30  1  0
  4 31  1  0
  4 32  1  0
  8 33  1  0
  8 34  1  0
  9 35  1  0
  9 36  1  0
 10 37  1  0
 10 38  1  0
 11 39  1  0
 11 40  1  0
 12 41  1  1
 13 42  1  0
 13 43  1  0
 15 44  1  0
 16 45  1  0
 17 46  1  0
 18 47  1  0
 19 48  1  0
 21 49  1  0
 24 50  1  0
 25 51  1  0
 26 52  1  0
 27 53  1  0
M  END
>  <smiles>  (82) 
O=C(NCC(=O)N1CCCCC1Cc1ccccc1)c1cnc2ccccc2n1

>  <score_type>  (82) 
oracle

>  <origin>  (82) 
autodockgpu

>  <m_score__min__energy>  (82) 
-9.3399999999999999

>  <m_primary>  (82) 
energy

>  <rmsd>  (82) 
1.5796909770862289

>  <m_score__min__rmsd>  (82) 
1.5796909770862289

>  <meeko>  (82) 
{"free_energy": -8.94, "intermolecular_energy": -10.73, "internal_energy": -1.55, "cluster_size": 18, "cluster_id": 2, "rank_in_cluster": 1}

>  <energy>  (82) 
-8.82

>  <cluster_rmsd>  (82) 
0.54

>  <cluster>  (82) 
2

$$$$

     RDKit          3D

 53 56  0  0  0  0  0  0  0  0999 V2000
  140.2740   71.2150  221.2390 O   0  0  0  0  0  0  0  0  0  0  0  0
  140.0130   71.8280  222.3080 C   0  0  0  0  0  0  0  0  0  0  0  0
  139.7620   73.2210  222.2700 N   0  0  0  0  0  0  0  0  0  0  0  0
  139.8180   73.9030  220.9780 C   0  0  0  0  0  0  0  0  0  0  0  0
  140.6270   75.1330  221.1920 C   0  0  0  0  0  0  0  0  0  0  0  0
  141.0150   75.5050  222.3310 O   0  0  0  0  0  0  0  0  0  0  0  0
  140.9910   75.9440  220.0810 N   0  0  0  0  0  0  0  0  0  0  0  0
  140.3010   75.7260  218.8090 C   0  0  0  0  0  0  0  0  0  0  0  0
  141.2950   75.5550  217.6810 C   0  0  0  0  0  0  0  0  0  0  0  0
  142.3930   76.5880  217.7390 C   0  0  0  0  0  0  0  0  0  0  0  0
  143.0020   76.7550  219.0920 C   0  0  0  0  0  0  0  0  0  0  0  0
  142.0170   76.9620  220.2020 C   0  0  1  0  0  0  0  0  0  0  0  0
  141.3710   78.3410  220.1500 C   0  0  0  0  0  0  0  0  0  0  0  0
  141.6720   79.0400  221.4250 C   0  0  0  0  0  0  0  0  0  0  0  0
  141.4220   78.3950  222.6180 C   0  0  0  0  0  0  0  0  0  0  0  0
  141.6750   78.9820  223.8390 C   0  0  0  0  0  0  0  0  0  0  0  0
  142.2000   80.2720  223.8840 C   0  0  0  0  0  0  0  0  0  0  0  0
  142.4590   80.9430  222.7120 C   0  0  0  0  0  0  0  0  0  0  0  0
  142.1890   80.3110  221.4970 C   0  0  0  0  0  0  0  0  0  0  0  0
  139.9630   71.1270  223.5900 C   0  0  0  0  0  0  0  0  0  0  0  0
  139.4130   69.8450  223.6450 C   0  0  0  0  0  0  0  0  0  0  0  0
  139.3590   69.1810  224.8250 N   0  0  0  0  0  0  0  0  0  0  0  0
  139.8270   69.7370  225.9570 C   0  0  0  0  0  0  0  0  0  0  0  0
  139.7790   69.0730  227.1680 C   0  0  0  0  0  0  0  0  0  0  0  0
  140.2610   69.6420  228.3420 C   0  0  0  0  0  0  0  0  0  0  0  0
  140.8090   70.9250  228.2750 C   0  0  0  0  0  0  0  0  0  0  0  0
  140.8570   71.5890  227.0630 C   0  0  0  0  0  0  0  0  0  0  0  0
  140.3760   71.0200  225.8980 C   0  0  0  0  0  0  0  0  0  0  0  0
  140.4320   71.6840  224.7250 N   0  0  0  0  0  0  0  0  0  0  0  0
  139.5510   73.6960  223.1610 H   0  0  0  0  0  0  0  0  0  0  0  0
  140.2968   73.2577  220.2267 H   0  0  0  0  0  0  0  0  0  0  0  0
  138.8105   74.1454  220.6089 H   0  0  0  0  0  0  0  0  0  0  0  0
  139.6823   74.8196  218.8850 H   0  0  0  0  0  0  0  0  0  0  0  0
  139.6716   76.6023  218.5946 H   0  0  0  0  0  0  0  0  0  0  0  0
  141.7445   74.5535  217.7516 H   0  0  0  0  0  0  0  0  0  0  0  0
  140.7571   75.6814  216.7298 H   0  0  0  0  0  0  0  0  0  0  0  0
  143.1860   76.2890  217.0378 H   0  0  0  0  0  0  0  0  0  0  0  0
  141.9350   77.5529  217.4760 H   0  0  0  0  0  0  0  0  0  0  0  0
  143.5875   75.8516  219.3178 H   0  0  0  0  0  0  0  0  0  0  0  0
  143.6140   77.6679  219.0461 H   0  0  0  0  0  0  0  0  0  0  0  0
  142.5476   76.8892  221.1628 H   0  0  0  0  0  0  0  0  0  0  0  0
  141.7815   78.9134  219.3051 H   0  0  0  0  0  0  0  0  0  0  0  0
  140.2834   78.2474  220.0143 H   0  0  0  0  0  0  0  0  0  0  0  0
  141.0063   77.3768  222.5942 H   0  0  0  0  0  0  0  0  0  0  0  0
  141.4642   78.4365  224.7707 H   0  0  0  0  0  0  0  0  0  0  0  0
  142.4062   80.7513  224.8524 H   0  0  0  0  0  0  0  0  0  0  0  0
  142.8726   81.9621  222.7316 H   0  0  0  0  0  0  0  0  0  0  0  0
  142.3981   80.8510  220.5617 H   0  0  0  0  0  0  0  0  0  0  0  0
  139.0235   69.3739  222.7305 H   0  0  0  0  0  0  0  0  0  0  0  0
  139.3459   68.0625  227.2046 H   0  0  0  0  0  0  0  0  0  0  0  0
  140.2120   69.0970  229.2963 H   0  0  0  0  0  0  0  0  0  0  0  0
  141.2011   71.4057  229.1834 H   0  0  0  0  0  0  0  0  0  0  0  0
  141.2904   72.5993  227.0244 H   0  0  0  0  0  0  0  0  0  0  0  0
  1  2  2  0
  2  3  1  0
  3  4  1  0
  4  5  1  0
  5  6  2  0
  5  7  1  0
  7  8  1  0
  8  9  1  0
  9 10  1  0
 10 11  1  0
 11 12  1  0
 12 13  1  0
 13 14  1  0
 14 15  2  0
 15 16  1  0
 16 17  2  0
 17 18  1  0
 18 19  2  0
  2 20  1  0
 20 21  2  0
 21 22  1  0
 22 23  2  0
 23 24  1  0
 24 25  2  0
 25 26  1  0
 26 27  2  0
 27 28  1  0
 28 29  2  0
 12  7  1  0
 19 14  1  0
 29 20  1  0
 28 23  1  0
  3 30  1  0
  4 31  1  0
  4 32  1  0
  8 33  1  0
  8 34  1  0
  9 35  1  0
  9 36  1  0
 10 37  1  0
 10 38  1  0
 11 39  1  0
 11 40  1  0
 12 41  1  1
 13 42  1  0
 13 43  1  0
 15 44  1  0
 16 45  1  0
 17 46  1  0
 18 47  1  0
 19 48  1  0
 21 49  1  0
 24 50  1  0
 25 51  1  0
 26 52  1  0
 27 53  1  0
M  END
>  <smiles>  (83) 
O=C(NCC(=O)N1CCCCC1Cc1ccccc1)c1cnc2ccccc2n1

>  <score_type>  (83) 
oracle

>  <origin>  (83) 
autodockgpu

>  <m_score__min__energy>  (83) 
-9.3399999999999999

>  <m_primary>  (83) 
energy

>  <rmsd>  (83) 
1.478711460956947

>  <m_score__min__rmsd>  (83) 
1.478711460956947

>  <meeko>  (83) 
{"free_energy": -8.82, "intermolecular_energy": -10.61, "internal_energy": -1.71, "cluster_size": 18, "cluster_id": 2, "rank_in_cluster": 10}

>  <energy>  (83) 
-8.71

>  <cluster_rmsd>  (83) 
0.54

>  <cluster>  (83) 
2

$$$$

     RDKit          3D

 53 56  0  0  0  0  0  0  0  0999 V2000
  139.9620   70.9520  221.2250 O   0  0  0  0  0  0  0  0  0  0  0  0
  139.8560   71.5800  222.3130 C   0  0  0  0  0  0  0  0  0  0  0  0
  139.7040   72.9880  222.2930 N   0  0  0  0  0  0  0  0  0  0  0  0
  139.6770   73.6670  220.9990 C   0  0  0  0  0  0  0  0  0  0  0  0
  140.1360   75.0590  221.2510 C   0  0  0  0  0  0  0  0  0  0  0  0
  139.9990   75.6330  222.3650 O   0  0  0  0  0  0  0  0  0  0  0  0
  140.7580   75.8010  220.2080 N   0  0  0  0  0  0  0  0  0  0  0  0
  140.2790   75.6050  218.8390 C   0  0  0  0  0  0  0  0  0  0  0  0
  141.4310   75.3130  217.9030 C   0  0  0  0  0  0  0  0  0  0  0  0
  142.5930   76.2460  218.1340 C   0  0  0  0  0  0  0  0  0  0  0  0
  142.9740   76.4000  219.5700 C   0  0  0  0  0  0  0  0  0  0  0  0
  141.8370   76.7270  220.4890 C   0  0  1  0  0  0  0  0  0  0  0  0
  141.3400   78.1560  220.3050 C   0  0  0  0  0  0  0  0  0  0  0  0
  141.6770   78.9230  221.5310 C   0  0  0  0  0  0  0  0  0  0  0  0
  141.4650   78.3450  222.7630 C   0  0  0  0  0  0  0  0  0  0  0  0
  141.7520   78.9980  223.9430 C   0  0  0  0  0  0  0  0  0  0  0  0
  142.2750   80.2890  223.9020 C   0  0  0  0  0  0  0  0  0  0  0  0
  142.4980   80.8950  222.6870 C   0  0  0  0  0  0  0  0  0  0  0  0
  142.1930   80.1980  221.5170 C   0  0  0  0  0  0  0  0  0  0  0  0
  139.8850   70.8820  223.5960 C   0  0  0  0  0  0  0  0  0  0  0  0
  139.4230   69.5670  223.6680 C   0  0  0  0  0  0  0  0  0  0  0  0
  139.4430   68.9040  224.8500 N   0  0  0  0  0  0  0  0  0  0  0  0
  139.9040   69.4930  225.9680 C   0  0  0  0  0  0  0  0  0  0  0  0
  139.9310   68.8320  227.1810 C   0  0  0  0  0  0  0  0  0  0  0  0
  140.4060   69.4350  228.3410 C   0  0  0  0  0  0  0  0  0  0  0  0
  140.8660   70.7510  228.2580 C   0  0  0  0  0  0  0  0  0  0  0  0
  140.8380   71.4120  227.0440 C   0  0  0  0  0  0  0  0  0  0  0  0
  140.3660   70.8090  225.8930 C   0  0  0  0  0  0  0  0  0  0  0  0
  140.3470   71.4720  224.7170 N   0  0  0  0  0  0  0  0  0  0  0  0
  139.6190   73.4750  223.1990 H   0  0  0  0  0  0  0  0  0  0  0  0
  140.3527   73.1650  220.2908 H   0  0  0  0  0  0  0  0  0  0  0  0
  138.6690   73.6509  220.5589 H   0  0  0  0  0  0  0  0  0  0  0  0
  139.5761   74.7590  218.8206 H   0  0  0  0  0  0  0  0  0  0  0  0
  139.7787   76.5261  218.5054 H   0  0  0  0  0  0  0  0  0  0  0  0
  141.7678   74.2785  218.0653 H   0  0  0  0  0  0  0  0  0  0  0  0
  141.0774   75.4575  216.8714 H   0  0  0  0  0  0  0  0  0  0  0  0
  143.4633   75.8566  217.5854 H   0  0  0  0  0  0  0  0  0  0  0  0
  142.2782   77.2390  217.7806 H   0  0  0  0  0  0  0  0  0  0  0  0
  143.4263   75.4558  219.9074 H   0  0  0  0  0  0  0  0  0  0  0  0
  143.6663   77.2535  219.6174 H   0  0  0  0  0  0  0  0  0  0  0  0
  142.1859   76.6369  221.5283 H   0  0  0  0  0  0  0  0  0  0  0  0
  141.8312   78.6122  219.4329 H   0  0  0  0  0  0  0  0  0  0  0  0
  140.2528   78.1628  220.1380 H   0  0  0  0  0  0  0  0  0  0  0  0
  141.0521   77.3264  222.8072 H   0  0  0  0  0  0  0  0  0  0  0  0
  141.5696   78.5040  224.9087 H   0  0  0  0  0  0  0  0  0  0  0  0
  142.5083   80.8209  224.8362 H   0  0  0  0  0  0  0  0  0  0  0  0
  142.9105   81.9136  222.6386 H   0  0  0  0  0  0  0  0  0  0  0  0
  142.3719   80.6863  220.5477 H   0  0  0  0  0  0  0  0  0  0  0  0
  139.0423   69.0681  222.7646 H   0  0  0  0  0  0  0  0  0  0  0  0
  139.5652   67.7958  227.2310 H   0  0  0  0  0  0  0  0  0  0  0  0
  140.4190   68.8906  229.2968 H   0  0  0  0  0  0  0  0  0  0  0  0
  141.2491   71.2596  229.1550 H   0  0  0  0  0  0  0  0  0  0  0  0
  141.2022   72.4487  226.9924 H   0  0  0  0  0  0  0  0  0  0  0  0
  1  2  2  0
  2  3  1  0
  3  4  1  0
  4  5  1  0
  5  6  2  0
  5  7  1  0
  7  8  1  0
  8  9  1  0
  9 10  1  0
 10 11  1  0
 11 12  1  0
 12 13  1  0
 13 14  1  0
 14 15  2  0
 15 16  1  0
 16 17  2  0
 17 18  1  0
 18 19  2  0
  2 20  1  0
 20 21  2  0
 21 22  1  0
 22 23  2  0
 23 24  1  0
 24 25  2  0
 25 26  1  0
 26 27  2  0
 27 28  1  0
 28 29  2  0
 12  7  1  0
 19 14  1  0
 29 20  1  0
 28 23  1  0
  3 30  1  0
  4 31  1  0
  4 32  1  0
  8 33  1  0
  8 34  1  0
  9 35  1  0
  9 36  1  0
 10 37  1  0
 10 38  1  0
 11 39  1  0
 11 40  1  0
 12 41  1  1
 13 42  1  0
 13 43  1  0
 15 44  1  0
 16 45  1  0
 17 46  1  0
 18 47  1  0
 19 48  1  0
 21 49  1  0
 24 50  1  0
 25 51  1  0
 26 52  1  0
 27 53  1  0
M  END
>  <smiles>  (84) 
O=C(NCC(=O)N1CCCCC1Cc1ccccc1)c1cnc2ccccc2n1

>  <score_type>  (84) 
oracle

>  <origin>  (84) 
autodockgpu

>  <m_score__min__energy>  (84) 
-9.3399999999999999

>  <m_primary>  (84) 
energy

>  <rmsd>  (84) 
1.4341405047529596

>  <m_score__min__rmsd>  (84) 
1.4341405047529596

>  <meeko>  (84) 
{"free_energy": -8.89, "intermolecular_energy": -10.68, "internal_energy": -1.89, "cluster_size": 18, "cluster_id": 2, "rank_in_cluster": 3}

>  <energy>  (84) 
-8.7

>  <cluster_rmsd>  (84) 
0.52

>  <cluster>  (84) 
2

$$$$

     RDKit          3D

 53 56  0  0  0  0  0  0  0  0999 V2000
  141.2420   71.6820  221.4200 O   0  0  0  0  0  0  0  0  0  0  0  0
  140.6170   72.2030  222.3810 C   0  0  0  0  0  0  0  0  0  0  0  0
  140.1780   73.5460  222.2820 N   0  0  0  0  0  0  0  0  0  0  0  0
  140.4710   74.2840  221.0550 C   0  0  0  0  0  0  0  0  0  0  0  0
  140.6710   75.7010  221.4610 C   0  0  0  0  0  0  0  0  0  0  0  0
  140.1890   76.1830  222.5210 O   0  0  0  0  0  0  0  0  0  0  0  0
  141.4340   76.5740  220.6350 N   0  0  0  0  0  0  0  0  0  0  0  0
  141.4960   77.9900  220.9980 C   0  0  0  0  0  0  0  0  0  0  0  0
  141.1490   78.8640  219.8130 C   0  0  0  0  0  0  0  0  0  0  0  0
  141.8470   78.4100  218.5560 C   0  0  0  0  0  0  0  0  0  0  0  0
  141.7510   76.9420  218.3030 C   0  0  0  0  0  0  0  0  0  0  0  0
  142.1320   76.0780  219.4660 C   0  0  1  0  0  0  0  0  0  0  0  0
  143.6330   76.0930  219.7280 C   0  0  0  0  0  0  0  0  0  0  0  0
  144.0710   74.6980  219.9860 C   0  0  0  0  0  0  0  0  0  0  0  0
  143.3110   73.6560  219.5010 C   0  0  0  0  0  0  0  0  0  0  0  0
  143.6540   72.3370  219.7040 C   0  0  0  0  0  0  0  0  0  0  0  0
  144.8070   72.0320  220.4240 C   0  0  0  0  0  0  0  0  0  0  0  0
  145.5870   73.0490  220.9230 C   0  0  0  0  0  0  0  0  0  0  0  0
  145.2030   74.3710  220.6940 C   0  0  0  0  0  0  0  0  0  0  0  0
  140.3360   71.4470  223.6000 C   0  0  0  0  0  0  0  0  0  0  0  0
  139.6460   70.2370  223.5080 C   0  0  0  0  0  0  0  0  0  0  0  0
  139.3760   69.5230  224.6280 N   0  0  0  0  0  0  0  0  0  0  0  0
  139.7630   69.9600  225.8400 C   0  0  0  0  0  0  0  0  0  0  0  0
  139.4950   69.2440  226.9910 C   0  0  0  0  0  0  0  0  0  0  0  0
  139.8930   69.6910  228.2480 C   0  0  0  0  0  0  0  0  0  0  0  0
  140.5820   70.9020  228.3280 C   0  0  0  0  0  0  0  0  0  0  0  0
  140.8490   71.6180  227.1760 C   0  0  0  0  0  0  0  0  0  0  0  0
  140.4530   71.1710  225.9280 C   0  0  0  0  0  0  0  0  0  0  0  0
  140.7230   71.8850  224.8150 N   0  0  0  0  0  0  0  0  0  0  0  0
  139.6690   73.9460  223.0860 H   0  0  0  0  0  0  0  0  0  0  0  0
  141.3827   73.8905  220.5818 H   0  0  0  0  0  0  0  0  0  0  0  0
  139.6543   74.1877  220.3245 H   0  0  0  0  0  0  0  0  0  0  0  0
  140.7819   78.1853  221.8116 H   0  0  0  0  0  0  0  0  0  0  0  0
  142.5201   78.2263  221.3225 H   0  0  0  0  0  0  0  0  0  0  0  0
  140.0619   78.8263  219.6495 H   0  0  0  0  0  0  0  0  0  0  0  0
  141.4811   79.8886  220.0363 H   0  0  0  0  0  0  0  0  0  0  0  0
  141.3984   78.9380  217.7016 H   0  0  0  0  0  0  0  0  0  0  0  0
  142.9148   78.6410  218.6845 H   0  0  0  0  0  0  0  0  0  0  0  0
  140.7113   76.7091  218.0298 H   0  0  0  0  0  0  0  0  0  0  0  0
  142.4708   76.7181  217.5019 H   0  0  0  0  0  0  0  0  0  0  0  0
  141.8532   75.0383  219.2395 H   0  0  0  0  0  0  0  0  0  0  0  0
  144.1607   76.4929  218.8496 H   0  0  0  0  0  0  0  0  0  0  0  0
  143.8618   76.7304  220.5948 H   0  0  0  0  0  0  0  0  0  0  0  0
  142.3982   73.8852  218.9316 H   0  0  0  0  0  0  0  0  0  0  0  0
  143.0226   71.5315  219.3009 H   0  0  0  0  0  0  0  0  0  0  0  0
  145.0921   70.9831  220.5926 H   0  0  0  0  0  0  0  0  0  0  0  0
  146.4998   72.8237  221.4940 H   0  0  0  0  0  0  0  0  0  0  0  0
  145.8294   75.1815  221.0949 H   0  0  0  0  0  0  0  0  0  0  0  0
  139.3212   69.8628  222.5259 H   0  0  0  0  0  0  0  0  0  0  0  0
  138.9504   68.2916  226.9117 H   0  0  0  0  0  0  0  0  0  0  0  0
  139.6707   69.1061  229.1527 H   0  0  0  0  0  0  0  0  0  0  0  0
  140.9116   71.2856  229.3048 H   0  0  0  0  0  0  0  0  0  0  0  0
  141.3923   72.5713  227.2539 H   0  0  0  0  0  0  0  0  0  0  0  0
  1  2  2  0
  2  3  1  0
  3  4  1  0
  4  5  1  0
  5  6  2  0
  5  7  1  0
  7  8  1  0
  8  9  1  0
  9 10  1  0
 10 11  1  0
 11 12  1  0
 12 13  1  0
 13 14  1  0
 14 15  2  0
 15 16  1  0
 16 17  2  0
 17 18  1  0
 18 19  2  0
  2 20  1  0
 20 21  2  0
 21 22  1  0
 22 23  2  0
 23 24  1  0
 24 25  2  0
 25 26  1  0
 26 27  2  0
 27 28  1  0
 28 29  2  0
 12  7  1  0
 19 14  1  0
 29 20  1  0
 28 23  1  0
  3 30  1  0
  4 31  1  0
  4 32  1  0
  8 33  1  0
  8 34  1  0
  9 35  1  0
  9 36  1  0
 10 37  1  0
 10 38  1  0
 11 39  1  0
 11 40  1  0
 12 41  1  6
 13 42  1  0
 13 43  1  0
 15 44  1  0
 16 45  1  0
 17 46  1  0
 18 47  1  0
 19 48  1  0
 21 49  1  0
 24 50  1  0
 25 51  1  0
 26 52  1  0
 27 53  1  0
M  END
>  <smiles>  (85) 
O=C(NCC(=O)N1CCCCC1Cc1ccccc1)c1cnc2ccccc2n1

>  <score_type>  (85) 
oracle

>  <origin>  (85) 
autodockgpu

>  <m_score__min__energy>  (85) 
-9.3399999999999999

>  <m_primary>  (85) 
energy

>  <rmsd>  (85) 
2.6234147692830354

>  <m_score__min__rmsd>  (85) 
2.6234147692830354

>  <meeko>  (85) 
{"free_energy": -8.39, "intermolecular_energy": -10.18, "internal_energy": -2.11, "cluster_size": 8, "cluster_id": 4, "rank_in_cluster": 3}

>  <energy>  (85) 
-8.55

>  <cluster_rmsd>  (85) 
1.83

>  <cluster>  (85) 
2

$$$$

     RDKit          3D

 53 56  0  0  0  0  0  0  0  0999 V2000
  137.3860   76.1080  222.2700 O   0  0  0  0  0  0  0  0  0  0  0  0
  138.6340   76.2440  222.3720 C   0  0  0  0  0  0  0  0  0  0  0  0
  139.4770   75.1230  222.1720 N   0  0  0  0  0  0  0  0  0  0  0  0
  138.8590   73.8380  221.8500 C   0  0  0  0  0  0  0  0  0  0  0  0
  139.8280   72.7940  222.2790 C   0  0  0  0  0  0  0  0  0  0  0  0
  141.0570   73.0240  222.4340 O   0  0  0  0  0  0  0  0  0  0  0  0
  139.3760   71.4680  222.5310 N   0  0  0  0  0  0  0  0  0  0  0  0
  139.3700   70.5160  221.4200 C   0  0  0  0  0  0  0  0  0  0  0  0
  138.0230   69.8390  221.2990 C   0  0  0  0  0  0  0  0  0  0  0  0
  137.4990   69.3870  222.6390 C   0  0  0  0  0  0  0  0  0  0  0  0
  137.5860   70.4250  223.7090 C   0  0  0  0  0  0  0  0  0  0  0  0
  138.9330   71.0670  223.8520 C   0  0  1  0  0  0  0  0  0  0  0  0
  139.9590   70.1230  224.4670 C   0  0  0  0  0  0  0  0  0  0  0  0
  140.3490   70.6660  225.7920 C   0  0  0  0  0  0  0  0  0  0  0  0
  139.9550   69.9990  226.9320 C   0  0  0  0  0  0  0  0  0  0  0  0
  140.2790   70.4440  228.1960 C   0  0  0  0  0  0  0  0  0  0  0  0
  141.0300   71.6090  228.3400 C   0  0  0  0  0  0  0  0  0  0  0  0
  141.4390   72.2990  227.2220 C   0  0  0  0  0  0  0  0  0  0  0  0
  141.0890   71.8120  225.9620 C   0  0  0  0  0  0  0  0  0  0  0  0
  139.2310   77.5390  222.6950 C   0  0  0  0  0  0  0  0  0  0  0  0
  138.3980   78.6210  222.9820 C   0  0  0  0  0  0  0  0  0  0  0  0
  138.9340   79.8290  223.2830 N   0  0  0  0  0  0  0  0  0  0  0  0
  140.2670   80.0090  223.3120 C   0  0  0  0  0  0  0  0  0  0  0  0
  140.8290   81.2340  223.6160 C   0  0  0  0  0  0  0  0  0  0  0  0
  142.2070   81.4270  223.6470 C   0  0  0  0  0  0  0  0  0  0  0  0
  143.0300   80.3370  223.3590 C   0  0  0  0  0  0  0  0  0  0  0  0
  142.4670   79.1120  223.0540 C   0  0  0  0  0  0  0  0  0  0  0  0
  141.0970   78.9240  223.0240 C   0  0  0  0  0  0  0  0  0  0  0  0
  140.5670   77.7200  222.7230 N   0  0  0  0  0  0  0  0  0  0  0  0
  140.4950   75.2650  222.2620 H   0  0  0  0  0  0  0  0  0  0  0  0
  137.9097   73.7242  222.3940 H   0  0  0  0  0  0  0  0  0  0  0  0
  138.6330   73.7591  220.7764 H   0  0  0  0  0  0  0  0  0  0  0  0
  139.5893   71.0520  220.4848 H   0  0  0  0  0  0  0  0  0  0  0  0
  140.1343   69.7481  221.6100 H   0  0  0  0  0  0  0  0  0  0  0  0
  137.3069   70.5479  220.8577 H   0  0  0  0  0  0  0  0  0  0  0  0
  138.1439   68.9501  220.6625 H   0  0  0  0  0  0  0  0  0  0  0  0
  136.4433   69.1022  222.5190 H   0  0  0  0  0  0  0  0  0  0  0  0
  138.1318   68.5465  222.9601 H   0  0  0  0  0  0  0  0  0  0  0  0
  136.8533   71.2133  223.4818 H   0  0  0  0  0  0  0  0  0  0  0  0
  137.3860   69.9085  224.6594 H   0  0  0  0  0  0  0  0  0  0  0  0
  138.8431   71.9307  224.5273 H   0  0  0  0  0  0  0  0  0  0  0  0
  139.5189   69.1223  224.5890 H   0  0  0  0  0  0  0  0  0  0  0  0
  140.8406   70.0408  223.8143 H   0  0  0  0  0  0  0  0  0  0  0  0
  139.3609   69.0789  226.8297 H   0  0  0  0  0  0  0  0  0  0  0  0
  139.9476   69.8843  229.0831 H   0  0  0  0  0  0  0  0  0  0  0  0
  141.2946   71.9753  229.3429 H   0  0  0  0  0  0  0  0  0  0  0  0
  142.0325   73.2200  227.3199 H   0  0  0  0  0  0  0  0  0  0  0  0
  141.4179   72.3663  225.0706 H   0  0  0  0  0  0  0  0  0  0  0  0
  137.3056   78.4935  222.9639 H   0  0  0  0  0  0  0  0  0  0  0  0
  140.1668   82.0831  223.8405 H   0  0  0  0  0  0  0  0  0  0  0  0
  142.6352   82.4103  223.8915 H   0  0  0  0  0  0  0  0  0  0  0  0
  144.1238   80.4526  223.3747 H   0  0  0  0  0  0  0  0  0  0  0  0
  143.1277   78.2619  222.8286 H   0  0  0  0  0  0  0  0  0  0  0  0
  1  2  2  0
  2  3  1  0
  3  4  1  0
  4  5  1  0
  5  6  2  0
  5  7  1  0
  7  8  1  0
  8  9  1  0
  9 10  1  0
 10 11  1  0
 11 12  1  0
 12 13  1  0
 13 14  1  0
 14 15  2  0
 15 16  1  0
 16 17  2  0
 17 18  1  0
 18 19  2  0
  2 20  1  0
 20 21  2  0
 21 22  1  0
 22 23  2  0
 23 24  1  0
 24 25  2  0
 25 26  1  0
 26 27  2  0
 27 28  1  0
 28 29  2  0
 12  7  1  0
 19 14  1  0
 29 20  1  0
 28 23  1  0
  3 30  1  0
  4 31  1  0
  4 32  1  0
  8 33  1  0
  8 34  1  0
  9 35  1  0
  9 36  1  0
 10 37  1  0
 10 38  1  0
 11 39  1  0
 11 40  1  0
 12 41  1  1
 13 42  1  0
 13 43  1  0
 15 44  1  0
 16 45  1  0
 17 46  1  0
 18 47  1  0
 19 48  1  0
 21 49  1  0
 24 50  1  0
 25 51  1  0
 26 52  1  0
 27 53  1  0
M  END
>  <smiles>  (86) 
O=C(NCC(=O)N1CCCCC1Cc1ccccc1)c1cnc2ccccc2n1

>  <score_type>  (86) 
oracle

>  <origin>  (86) 
autodockgpu

>  <m_score__min__energy>  (86) 
-9.3399999999999999

>  <m_primary>  (86) 
energy

>  <rmsd>  (86) 
8.0282094861997

>  <m_score__min__rmsd>  (86) 
8.0282094861997

>  <meeko>  (86) 
{"free_energy": -8.75, "intermolecular_energy": -10.54, "internal_energy": -2.02, "cluster_size": 21, "cluster_id": 1, "rank_in_cluster": 6}

>  <energy>  (86) 
-8.52

>  <cluster_rmsd>  (86) 
0.53

>  <cluster>  (86) 
2

$$$$

     RDKit          3D

 53 56  0  0  0  0  0  0  0  0999 V2000
  140.1490   74.6260  220.0980 O   0  0  0  0  0  0  0  0  0  0  0  0
  140.0330   75.2400  221.1920 C   0  0  0  0  0  0  0  0  0  0  0  0
  139.3150   74.6400  222.2560 N   0  0  0  0  0  0  0  0  0  0  0  0
  138.7310   73.3180  222.0420 C   0  0  0  0  0  0  0  0  0  0  0  0
  139.7720   72.3340  222.4420 C   0  0  0  0  0  0  0  0  0  0  0  0
  140.9850   72.6450  222.5900 O   0  0  0  0  0  0  0  0  0  0  0  0
  139.4130   70.9770  222.6740 N   0  0  0  0  0  0  0  0  0  0  0  0
  139.6140   70.0140  221.5900 C   0  0  0  0  0  0  0  0  0  0  0  0
  138.3530   69.2160  221.3400 C   0  0  0  0  0  0  0  0  0  0  0  0
  137.7270   68.7360  222.6250 C   0  0  0  0  0  0  0  0  0  0  0  0
  137.6040   69.7920  223.6740 C   0  0  0  0  0  0  0  0  0  0  0  0
  138.8650   70.5550  223.9480 C   0  0  1  0  0  0  0  0  0  0  0  0
  139.8970   69.7150  224.6910 C   0  0  0  0  0  0  0  0  0  0  0  0
  140.2790   70.4410  225.9280 C   0  0  0  0  0  0  0  0  0  0  0  0
  141.0730   71.5630  225.8280 C   0  0  0  0  0  0  0  0  0  0  0  0
  141.4690   72.2860  226.9330 C   0  0  0  0  0  0  0  0  0  0  0  0
  141.0590   71.8800  228.2010 C   0  0  0  0  0  0  0  0  0  0  0  0
  140.2660   70.7640  228.3350 C   0  0  0  0  0  0  0  0  0  0  0  0
  139.8880   70.0610  227.1900 C   0  0  0  0  0  0  0  0  0  0  0  0
  140.6250   76.5620  221.3840 C   0  0  0  0  0  0  0  0  0  0  0  0
  140.9750   77.3220  220.2670 C   0  0  0  0  0  0  0  0  0  0  0  0
  141.5260   78.5500  220.4270 N   0  0  0  0  0  0  0  0  0  0  0  0
  141.7450   79.0580  221.6530 C   0  0  0  0  0  0  0  0  0  0  0  0
  142.3050   80.3080  221.8330 C   0  0  0  0  0  0  0  0  0  0  0  0
  142.5350   80.8400  223.0980 C   0  0  0  0  0  0  0  0  0  0  0  0
  142.1810   80.0710  224.2090 C   0  0  0  0  0  0  0  0  0  0  0  0
  141.6200   78.8200  224.0280 C   0  0  0  0  0  0  0  0  0  0  0  0
  141.3930   78.2950  222.7690 C   0  0  0  0  0  0  0  0  0  0  0  0
  140.8450   77.0720  222.6130 N   0  0  0  0  0  0  0  0  0  0  0  0
  139.2370   75.1680  223.1390 H   0  0  0  0  0  0  0  0  0  0  0  0
  137.8309   73.1940  222.6621 H   0  0  0  0  0  0  0  0  0  0  0  0
  138.4296   73.1782  220.9934 H   0  0  0  0  0  0  0  0  0  0  0  0
  139.8860   70.5557  220.6721 H   0  0  0  0  0  0  0  0  0  0  0  0
  140.4185   69.3213  221.8782 H   0  0  0  0  0  0  0  0  0  0  0  0
  137.6298   69.8514  220.8078 H   0  0  0  0  0  0  0  0  0  0  0  0
  138.6215   68.3332  220.7412 H   0  0  0  0  0  0  0  0  0  0  0  0
  136.7202   68.3555  222.3979 H   0  0  0  0  0  0  0  0  0  0  0  0
  138.3922   67.9601  223.0319 H   0  0  0  0  0  0  0  0  0  0  0  0
  136.8342   70.5080  223.3504 H   0  0  0  0  0  0  0  0  0  0  0  0
  137.3471   69.2720  224.6086 H   0  0  0  0  0  0  0  0  0  0  0  0
  138.6256   71.4153  224.5903 H   0  0  0  0  0  0  0  0  0  0  0  0
  139.4647   68.7375  224.9509 H   0  0  0  0  0  0  0  0  0  0  0  0
  140.7812   69.5500  224.0577 H   0  0  0  0  0  0  0  0  0  0  0  0
  141.4023   71.8932  224.8317 H   0  0  0  0  0  0  0  0  0  0  0  0
  142.1037   73.1765  226.8144 H   0  0  0  0  0  0  0  0  0  0  0  0
  141.3678   72.4489  229.0904 H   0  0  0  0  0  0  0  0  0  0  0  0
  139.9348   70.4306  229.3296 H   0  0  0  0  0  0  0  0  0  0  0  0
  139.2534   69.1694  227.3016 H   0  0  0  0  0  0  0  0  0  0  0  0
  140.8036   76.9241  219.2559 H   0  0  0  0  0  0  0  0  0  0  0  0
  142.5778   80.9017  220.9480 H   0  0  0  0  0  0  0  0  0  0  0  0
  142.9827   81.8374  223.2196 H   0  0  0  0  0  0  0  0  0  0  0  0
  142.3479   80.4592  225.2246 H   0  0  0  0  0  0  0  0  0  0  0  0
  141.3462   78.2249  224.9117 H   0  0  0  0  0  0  0  0  0  0  0  0
  1  2  2  0
  2  3  1  0
  3  4  1  0
  4  5  1  0
  5  6  2  0
  5  7  1  0
  7  8  1  0
  8  9  1  0
  9 10  1  0
 10 11  1  0
 11 12  1  0
 12 13  1  0
 13 14  1  0
 14 15  2  0
 15 16  1  0
 16 17  2  0
 17 18  1  0
 18 19  2  0
  2 20  1  0
 20 21  2  0
 21 22  1  0
 22 23  2  0
 23 24  1  0
 24 25  2  0
 25 26  1  0
 26 27  2  0
 27 28  1  0
 28 29  2  0
 12  7  1  0
 19 14  1  0
 29 20  1  0
 28 23  1  0
  3 30  1  0
  4 31  1  0
  4 32  1  0
  8 33  1  0
  8 34  1  0
  9 35  1  0
  9 36  1  0
 10 37  1  0
 10 38  1  0
 11 39  1  0
 11 40  1  0
 12 41  1  1
 13 42  1  0
 13 43  1  0
 15 44  1  0
 16 45  1  0
 17 46  1  0
 18 47  1  0
 19 48  1  0
 21 49  1  0
 24 50  1  0
 25 51  1  0
 26 52  1  0
 27 53  1  0
M  END
>  <smiles>  (87) 
O=C(NCC(=O)N1CCCCC1Cc1ccccc1)c1cnc2ccccc2n1

>  <score_type>  (87) 
oracle

>  <origin>  (87) 
autodockgpu

>  <m_score__min__energy>  (87) 
-9.3399999999999999

>  <m_primary>  (87) 
energy

>  <rmsd>  (87) 
7.917212620914362

>  <m_score__min__rmsd>  (87) 
7.917212620914362

>  <meeko>  (87) 
{"free_energy": -8.82, "intermolecular_energy": -10.61, "internal_energy": -1.65, "cluster_size": 21, "cluster_id": 1, "rank_in_cluster": 2}

>  <energy>  (87) 
-8.52

>  <cluster_rmsd>  (87) 
1.57

>  <cluster>  (87) 
2

$$$$

     RDKit          3D

 53 56  0  0  0  0  0  0  0  0999 V2000
  137.4520   76.0450  222.2740 O   0  0  0  0  0  0  0  0  0  0  0  0
  138.7020   76.2070  222.2970 C   0  0  0  0  0  0  0  0  0  0  0  0
  139.5520   75.1220  221.9720 N   0  0  0  0  0  0  0  0  0  0  0  0
  138.9410   73.8420  221.6190 C   0  0  0  0  0  0  0  0  0  0  0  0
  139.8350   72.7890  222.1720 C   0  0  0  0  0  0  0  0  0  0  0  0
  141.0690   72.9680  222.3560 O   0  0  0  0  0  0  0  0  0  0  0  0
  139.3020   71.5160  222.5160 N   0  0  0  0  0  0  0  0  0  0  0  0
  139.1080   70.5350  221.4480 C   0  0  0  0  0  0  0  0  0  0  0  0
  137.7040   69.9730  221.4830 C   0  0  0  0  0  0  0  0  0  0  0  0
  137.2800   69.6070  222.8830 C   0  0  0  0  0  0  0  0  0  0  0  0
  137.5570   70.6650  223.8990 C   0  0  0  0  0  0  0  0  0  0  0  0
  138.9600   71.1940  223.8880 C   0  0  1  0  0  0  0  0  0  0  0  0
  139.9600   70.1840  224.4370 C   0  0  0  0  0  0  0  0  0  0  0  0
  140.3460   70.6120  225.8050 C   0  0  0  0  0  0  0  0  0  0  0  0
  141.0410   71.7910  225.9670 C   0  0  0  0  0  0  0  0  0  0  0  0
  141.4340   72.2510  227.2060 C   0  0  0  0  0  0  0  0  0  0  0  0
  141.1230   71.5070  228.3430 C   0  0  0  0  0  0  0  0  0  0  0  0
  140.4310   70.3250  228.2150 C   0  0  0  0  0  0  0  0  0  0  0  0
  140.0530   69.8970  226.9420 C   0  0  0  0  0  0  0  0  0  0  0  0
  139.2910   77.4960  222.6540 C   0  0  0  0  0  0  0  0  0  0  0  0
  138.4520   78.5670  222.9670 C   0  0  0  0  0  0  0  0  0  0  0  0
  138.9820   79.7690  223.2990 N   0  0  0  0  0  0  0  0  0  0  0  0
  140.3140   79.9550  223.3350 C   0  0  0  0  0  0  0  0  0  0  0  0
  140.8690   81.1740  223.6710 C   0  0  0  0  0  0  0  0  0  0  0  0
  142.2460   81.3740  223.7090 C   0  0  0  0  0  0  0  0  0  0  0  0
  143.0760   80.2960  223.3940 C   0  0  0  0  0  0  0  0  0  0  0  0
  142.5190   79.0760  223.0570 C   0  0  0  0  0  0  0  0  0  0  0  0
  141.1500   78.8820  223.0210 C   0  0  0  0  0  0  0  0  0  0  0  0
  140.6260   77.6830  222.6890 N   0  0  0  0  0  0  0  0  0  0  0  0
  140.5700   75.2850  222.0010 H   0  0  0  0  0  0  0  0  0  0  0  0
  137.9380   73.7627  222.0636 H   0  0  0  0  0  0  0  0  0  0  0  0
  138.8264   73.7393  220.5298 H   0  0  0  0  0  0  0  0  0  0  0  0
  139.2775   71.0217  220.4762 H   0  0  0  0  0  0  0  0  0  0  0  0
  139.8215   69.7104  221.5930 H   0  0  0  0  0  0  0  0  0  0  0  0
  137.0088   70.7277  221.0866 H   0  0  0  0  0  0  0  0  0  0  0  0
  137.6872   69.0587  220.8716 H   0  0  0  0  0  0  0  0  0  0  0  0
  136.1979   69.4095  222.8759 H   0  0  0  0  0  0  0  0  0  0  0  0
  137.8704   68.7255  223.1734 H   0  0  0  0  0  0  0  0  0  0  0  0
  136.8726   71.5058  223.7131 H   0  0  0  0  0  0  0  0  0  0  0  0
  137.4101   70.1960  224.8831 H   0  0  0  0  0  0  0  0  0  0  0  0
  139.0087   72.0821  224.5353 H   0  0  0  0  0  0  0  0  0  0  0  0
  139.4989   69.1860  224.4750 H   0  0  0  0  0  0  0  0  0  0  0  0
  140.8474   70.1362  223.7887 H   0  0  0  0  0  0  0  0  0  0  0  0
  141.2911   72.3861  225.0763 H   0  0  0  0  0  0  0  0  0  0  0  0
  141.9882   73.1969  227.2964 H   0  0  0  0  0  0  0  0  0  0  0  0
  141.4294   71.8633  229.3376 H   0  0  0  0  0  0  0  0  0  0  0  0
  140.1795   69.7263  229.1029 H   0  0  0  0  0  0  0  0  0  0  0  0
  139.4994   68.9515  226.8444 H   0  0  0  0  0  0  0  0  0  0  0  0
  137.3602   78.4350  222.9441 H   0  0  0  0  0  0  0  0  0  0  0  0
  140.2019   82.0135  223.9164 H   0  0  0  0  0  0  0  0  0  0  0  0
  142.6683   82.3531  223.9794 H   0  0  0  0  0  0  0  0  0  0  0  0
  144.1692   80.4169  223.4139 H   0  0  0  0  0  0  0  0  0  0  0  0
  143.1841   78.2353  222.8104 H   0  0  0  0  0  0  0  0  0  0  0  0
  1  2  2  0
  2  3  1  0
  3  4  1  0
  4  5  1  0
  5  6  2  0
  5  7  1  0
  7  8  1  0
  8  9  1  0
  9 10  1  0
 10 11  1  0
 11 12  1  0
 12 13  1  0
 13 14  1  0
 14 15  2  0
 15 16  1  0
 16 17  2  0
 17 18  1  0
 18 19  2  0
  2 20  1  0
 20 21  2  0
 21 22  1  0
 22 23  2  0
 23 24  1  0
 24 25  2  0
 25 26  1  0
 26 27  2  0
 27 28  1  0
 28 29  2  0
 12  7  1  0
 19 14  1  0
 29 20  1  0
 28 23  1  0
  3 30  1  0
  4 31  1  0
  4 32  1  0
  8 33  1  0
  8 34  1  0
  9 35  1  0
  9 36  1  0
 10 37  1  0
 10 38  1  0
 11 39  1  0
 11 40  1  0
 12 41  1  1
 13 42  1  0
 13 43  1  0
 15 44  1  0
 16 45  1  0
 17 46  1  0
 18 47  1  0
 19 48  1  0
 21 49  1  0
 24 50  1  0
 25 51  1  0
 26 52  1  0
 27 53  1  0
M  END
>  <smiles>  (88) 
O=C(NCC(=O)N1CCCCC1Cc1ccccc1)c1cnc2ccccc2n1

>  <score_type>  (88) 
oracle

>  <origin>  (88) 
autodockgpu

>  <m_score__min__energy>  (88) 
-9.3399999999999999

>  <m_primary>  (88) 
energy

>  <rmsd>  (88) 
7.9911878157567005

>  <m_score__min__rmsd>  (88) 
7.9911878157567005

>  <meeko>  (88) 
{"free_energy": -8.78, "intermolecular_energy": -10.57, "internal_energy": -1.93, "cluster_size": 21, "cluster_id": 1, "rank_in_cluster": 4}

>  <energy>  (88) 
-8.39

>  <cluster_rmsd>  (88) 
1.34

>  <cluster>  (88) 
2

$$$$

     RDKit          3D

 53 56  0  0  0  0  0  0  0  0999 V2000
  141.1400   71.7610  221.3110 O   0  0  0  0  0  0  0  0  0  0  0  0
  140.5390   72.2600  222.3000 C   0  0  0  0  0  0  0  0  0  0  0  0
  140.1190   73.6120  222.2510 N   0  0  0  0  0  0  0  0  0  0  0  0
  140.4020   74.3840  221.0430 C   0  0  0  0  0  0  0  0  0  0  0  0
  140.7020   75.7690  221.4960 C   0  0  0  0  0  0  0  0  0  0  0  0
  140.3190   76.2220  222.6080 O   0  0  0  0  0  0  0  0  0  0  0  0
  141.4490   76.6430  220.6590 N   0  0  0  0  0  0  0  0  0  0  0  0
  141.5180   78.0590  221.0230 C   0  0  0  0  0  0  0  0  0  0  0  0
  141.1500   78.9350  219.8450 C   0  0  0  0  0  0  0  0  0  0  0  0
  141.8260   78.4830  218.5750 C   0  0  0  0  0  0  0  0  0  0  0  0
  141.7250   77.0150  218.3210 C   0  0  0  0  0  0  0  0  0  0  0  0
  142.1270   76.1490  219.4760 C   0  0  1  0  0  0  0  0  0  0  0  0
  143.6320   76.1630  219.7110 C   0  0  0  0  0  0  0  0  0  0  0  0
  144.0700   74.7720  219.9850 C   0  0  0  0  0  0  0  0  0  0  0  0
  143.3100   73.7240  219.5120 C   0  0  0  0  0  0  0  0  0  0  0  0
  143.6530   72.4070  219.7290 C   0  0  0  0  0  0  0  0  0  0  0  0
  144.8070   72.1100  220.4520 C   0  0  0  0  0  0  0  0  0  0  0  0
  145.5870   73.1330  220.9390 C   0  0  0  0  0  0  0  0  0  0  0  0
  145.2030   74.4520  220.6950 C   0  0  0  0  0  0  0  0  0  0  0  0
  140.2670   71.4700  223.4990 C   0  0  0  0  0  0  0  0  0  0  0  0
  139.6040   70.2480  223.3740 C   0  0  0  0  0  0  0  0  0  0  0  0
  139.3430   69.5030  224.4760 N   0  0  0  0  0  0  0  0  0  0  0  0
  139.7140   69.9190  225.7000 C   0  0  0  0  0  0  0  0  0  0  0  0
  139.4550   69.1710  226.8320 C   0  0  0  0  0  0  0  0  0  0  0  0
  139.8360   69.5960  228.1010 C   0  0  0  0  0  0  0  0  0  0  0  0
  140.4990   70.8190  228.2140 C   0  0  0  0  0  0  0  0  0  0  0  0
  140.7570   71.5670  227.0800 C   0  0  0  0  0  0  0  0  0  0  0  0
  140.3780   71.1420  225.8200 C   0  0  0  0  0  0  0  0  0  0  0  0
  140.6390   71.8870  224.7260 N   0  0  0  0  0  0  0  0  0  0  0  0
  139.6300   73.9930  223.0750 H   0  0  0  0  0  0  0  0  0  0  0  0
  141.2680   73.9600  220.5137 H   0  0  0  0  0  0  0  0  0  0  0  0
  139.5504   74.3656  220.3470 H   0  0  0  0  0  0  0  0  0  0  0  0
  140.8186   78.2534  221.8495 H   0  0  0  0  0  0  0  0  0  0  0  0
  142.5478   78.2946  221.3296 H   0  0  0  0  0  0  0  0  0  0  0  0
  140.0602   78.8973  219.7006 H   0  0  0  0  0  0  0  0  0  0  0  0
  141.4859   79.9593  220.0639 H   0  0  0  0  0  0  0  0  0  0  0  0
  141.3629   79.0127  217.7295 H   0  0  0  0  0  0  0  0  0  0  0  0
  142.8959   78.7134  218.6853 H   0  0  0  0  0  0  0  0  0  0  0  0
  140.6804   76.7827  218.0663 H   0  0  0  0  0  0  0  0  0  0  0  0
  142.4298   76.7921  217.5064 H   0  0  0  0  0  0  0  0  0  0  0  0
  141.8444   75.1096  219.2528 H   0  0  0  0  0  0  0  0  0  0  0  0
  144.1453   76.5459  218.8166 H   0  0  0  0  0  0  0  0  0  0  0  0
  143.8781   76.8142  220.5627 H   0  0  0  0  0  0  0  0  0  0  0  0
  142.3968   73.9468  218.9407 H   0  0  0  0  0  0  0  0  0  0  0  0
  143.0214   71.5971  219.3350 H   0  0  0  0  0  0  0  0  0  0  0  0
  145.0925   71.0631  220.6322 H   0  0  0  0  0  0  0  0  0  0  0  0
  146.5000   72.9144  221.5123 H   0  0  0  0  0  0  0  0  0  0  0  0
  145.8305   75.2667  221.0855 H   0  0  0  0  0  0  0  0  0  0  0  0
  139.2934   69.8896  222.3815 H   0  0  0  0  0  0  0  0  0  0  0  0
  138.9312   68.2094  226.7270 H   0  0  0  0  0  0  0  0  0  0  0  0
  139.6207   68.9853  228.9902 H   0  0  0  0  0  0  0  0  0  0  0  0
  140.8151   71.1864  229.2015 H   0  0  0  0  0  0  0  0  0  0  0  0
  141.2796   72.5294  227.1834 H   0  0  0  0  0  0  0  0  0  0  0  0
  1  2  2  0
  2  3  1  0
  3  4  1  0
  4  5  1  0
  5  6  2  0
  5  7  1  0
  7  8  1  0
  8  9  1  0
  9 10  1  0
 10 11  1  0
 11 12  1  0
 12 13  1  0
 13 14  1  0
 14 15  2  0
 15 16  1  0
 16 17  2  0
 17 18  1  0
 18 19  2  0
  2 20  1  0
 20 21  2  0
 21 22  1  0
 22 23  2  0
 23 24  1  0
 24 25  2  0
 25 26  1  0
 26 27  2  0
 27 28  1  0
 28 29  2  0
 12  7  1  0
 19 14  1  0
 29 20  1  0
 28 23  1  0
  3 30  1  0
  4 31  1  0
  4 32  1  0
  8 33  1  0
  8 34  1  0
  9 35  1  0
  9 36  1  0
 10 37  1  0
 10 38  1  0
 11 39  1  0
 11 40  1  0
 12 41  1  6
 13 42  1  0
 13 43  1  0
 15 44  1  0
 16 45  1  0
 17 46  1  0
 18 47  1  0
 19 48  1  0
 21 49  1  0
 24 50  1  0
 25 51  1  0
 26 52  1  0
 27 53  1  0
M  END
>  <smiles>  (89) 
O=C(NCC(=O)N1CCCCC1Cc1ccccc1)c1cnc2ccccc2n1

>  <score_type>  (89) 
oracle

>  <origin>  (89) 
autodockgpu

>  <m_score__min__energy>  (89) 
-9.3399999999999999

>  <m_primary>  (89) 
energy

>  <rmsd>  (89) 
2.621844840316298

>  <m_score__min__rmsd>  (89) 
2.621844840316298

>  <meeko>  (89) 
{"free_energy": -8.38, "intermolecular_energy": -10.17, "internal_energy": -2.12, "cluster_size": 8, "cluster_id": 4, "rank_in_cluster": 4}

>  <energy>  (89) 
-8.27

>  <cluster_rmsd>  (89) 
0.67

>  <cluster>  (89) 
2

$$$$

     RDKit          3D

 53 56  0  0  0  0  0  0  0  0999 V2000
  137.3230   76.0570  222.4580 O   0  0  0  0  0  0  0  0  0  0  0  0
  138.5740   76.2070  222.4600 C   0  0  0  0  0  0  0  0  0  0  0  0
  139.4110   75.0940  222.2060 N   0  0  0  0  0  0  0  0  0  0  0  0
  138.7860   73.7980  221.9490 C   0  0  0  0  0  0  0  0  0  0  0  0
  139.8290   72.7730  222.2210 C   0  0  0  0  0  0  0  0  0  0  0  0
  141.0620   73.0280  222.1890 O   0  0  0  0  0  0  0  0  0  0  0  0
  139.4460   71.4380  222.5310 N   0  0  0  0  0  0  0  0  0  0  0  0
  139.4660   70.4450  221.4570 C   0  0  0  0  0  0  0  0  0  0  0  0
  138.1520   69.6990  221.3900 C   0  0  0  0  0  0  0  0  0  0  0  0
  137.6760   69.2740  222.7560 C   0  0  0  0  0  0  0  0  0  0  0  0
  137.7320   70.3560  223.7840 C   0  0  0  0  0  0  0  0  0  0  0  0
  139.0480   71.0670  223.8750 C   0  0  1  0  0  0  0  0  0  0  0  0
  140.1310   70.1980  224.5040 C   0  0  0  0  0  0  0  0  0  0  0  0
  140.4190   70.7280  225.8600 C   0  0  0  0  0  0  0  0  0  0  0  0
  139.8960   70.0800  226.9580 C   0  0  0  0  0  0  0  0  0  0  0  0
  140.1200   70.5160  228.2460 C   0  0  0  0  0  0  0  0  0  0  0  0
  140.9000   71.6500  228.4600 C   0  0  0  0  0  0  0  0  0  0  0  0
  141.4360   72.3200  227.3850 C   0  0  0  0  0  0  0  0  0  0  0  0
  141.1850   71.8450  226.0980 C   0  0  0  0  0  0  0  0  0  0  0  0
  139.1780   77.5120  222.7200 C   0  0  0  0  0  0  0  0  0  0  0  0
  138.3530   78.6230  222.9010 C   0  0  0  0  0  0  0  0  0  0  0  0
  138.8960   79.8410  223.1420 N   0  0  0  0  0  0  0  0  0  0  0  0
  140.2300   80.0040  223.2130 C   0  0  0  0  0  0  0  0  0  0  0  0
  140.7990   81.2380  223.4580 C   0  0  0  0  0  0  0  0  0  0  0  0
  142.1780   81.4140  223.5320 C   0  0  0  0  0  0  0  0  0  0  0  0
  142.9940   80.2960  223.3500 C   0  0  0  0  0  0  0  0  0  0  0  0
  142.4230   79.0620  223.1040 C   0  0  0  0  0  0  0  0  0  0  0  0
  141.0530   78.8900  223.0320 C   0  0  0  0  0  0  0  0  0  0  0  0
  140.5150   77.6760  222.7900 N   0  0  0  0  0  0  0  0  0  0  0  0
  140.4310   75.2480  222.2140 H   0  0  0  0  0  0  0  0  0  0  0  0
  137.9240   73.6513  222.6164 H   0  0  0  0  0  0  0  0  0  0  0  0
  138.4164   73.7292  220.9153 H   0  0  0  0  0  0  0  0  0  0  0  0
  139.6405   70.9547  220.4980 H   0  0  0  0  0  0  0  0  0  0  0  0
  140.2710   69.7232  221.6594 H   0  0  0  0  0  0  0  0  0  0  0  0
  137.3936   70.3547  220.9373 H   0  0  0  0  0  0  0  0  0  0  0  0
  138.3051   68.7929  220.7854 H   0  0  0  0  0  0  0  0  0  0  0  0
  136.6335   68.9340  222.6685 H   0  0  0  0  0  0  0  0  0  0  0  0
  138.3548   68.4778  223.0955 H   0  0  0  0  0  0  0  0  0  0  0  0
  136.9575   71.0987  223.5420 H   0  0  0  0  0  0  0  0  0  0  0  0
  137.5751   69.8678  224.7572 H   0  0  0  0  0  0  0  0  0  0  0  0
  138.9284   71.9506  224.5192 H   0  0  0  0  0  0  0  0  0  0  0  0
  139.7789   69.1584  224.5772 H   0  0  0  0  0  0  0  0  0  0  0  0
  141.0411   70.2174  223.8865 H   0  0  0  0  0  0  0  0  0  0  0  0
  139.2782   69.1835  226.8009 H   0  0  0  0  0  0  0  0  0  0  0  0
  139.6862   69.9727  229.0984 H   0  0  0  0  0  0  0  0  0  0  0  0
  141.0863   72.0078  229.4834 H   0  0  0  0  0  0  0  0  0  0  0  0
  142.0536   73.2173  227.5381 H   0  0  0  0  0  0  0  0  0  0  0  0
  141.6158   72.3840  225.2413 H   0  0  0  0  0  0  0  0  0  0  0  0
  137.2601   78.5098  222.8480 H   0  0  0  0  0  0  0  0  0  0  0  0
  140.1423   82.1091  223.5991 H   0  0  0  0  0  0  0  0  0  0  0  0
  142.6121   82.4055  223.7282 H   0  0  0  0  0  0  0  0  0  0  0  0
  144.0881   80.3971  223.4023 H   0  0  0  0  0  0  0  0  0  0  0  0
  143.0782   78.1901  222.9611 H   0  0  0  0  0  0  0  0  0  0  0  0
  1  2  2  0
  2  3  1  0
  3  4  1  0
  4  5  1  0
  5  6  2  0
  5  7  1  0
  7  8  1  0
  8  9  1  0
  9 10  1  0
 10 11  1  0
 11 12  1  0
 12 13  1  0
 13 14  1  0
 14 15  2  0
 15 16  1  0
 16 17  2  0
 17 18  1  0
 18 19  2  0
  2 20  1  0
 20 21  2  0
 21 22  1  0
 22 23  2  0
 23 24  1  0
 24 25  2  0
 25 26  1  0
 26 27  2  0
 27 28  1  0
 28 29  2  0
 12  7  1  0
 19 14  1  0
 29 20  1  0
 28 23  1  0
  3 30  1  0
  4 31  1  0
  4 32  1  0
  8 33  1  0
  8 34  1  0
  9 35  1  0
  9 36  1  0
 10 37  1  0
 10 38  1  0
 11 39  1  0
 11 40  1  0
 12 41  1  1
 13 42  1  0
 13 43  1  0
 15 44  1  0
 16 45  1  0
 17 46  1  0
 18 47  1  0
 19 48  1  0
 21 49  1  0
 24 50  1  0
 25 51  1  0
 26 52  1  0
 27 53  1  0
M  END
>  <smiles>  (90) 
O=C(NCC(=O)N1CCCCC1Cc1ccccc1)c1cnc2ccccc2n1

>  <score_type>  (90) 
oracle

>  <origin>  (90) 
autodockgpu

>  <m_score__min__energy>  (90) 
-9.3399999999999999

>  <m_primary>  (90) 
energy

>  <rmsd>  (90) 
8.029765705127355

>  <m_score__min__rmsd>  (90) 
8.029765705127355

>  <meeko>  (90) 
{"free_energy": -8.64, "intermolecular_energy": -10.43, "internal_energy": -2.02, "cluster_size": 21, "cluster_id": 1, "rank_in_cluster": 15}

>  <energy>  (90) 
-8.48

>  <cluster_rmsd>  (90) 
0.0

>  <cluster>  (90) 
3

$$$$

     RDKit          3D

 53 56  0  0  0  0  0  0  0  0999 V2000
  139.8140   70.8860  221.2540 O   0  0  0  0  0  0  0  0  0  0  0  0
  139.8610   71.5220  222.3410 C   0  0  0  0  0  0  0  0  0  0  0  0
  139.9050   72.9380  222.3180 N   0  0  0  0  0  0  0  0  0  0  0  0
  139.8950   73.6130  221.0220 C   0  0  0  0  0  0  0  0  0  0  0  0
  140.1970   75.0430  221.2970 C   0  0  0  0  0  0  0  0  0  0  0  0
  140.0030   75.5790  222.4210 O   0  0  0  0  0  0  0  0  0  0  0  0
  140.7280   75.8670  220.2650 N   0  0  0  0  0  0  0  0  0  0  0  0
  140.1660   75.7400  218.9210 C   0  0  0  0  0  0  0  0  0  0  0  0
  141.2620   75.5440  217.8960 C   0  0  0  0  0  0  0  0  0  0  0  0
  142.4100   76.4980  218.1120 C   0  0  0  0  0  0  0  0  0  0  0  0
  142.8800   76.5760  219.5270 C   0  0  0  0  0  0  0  0  0  0  0  0
  141.7960   76.8090  220.5360 C   0  0  1  0  0  0  0  0  0  0  0  0
  141.2480   78.2300  220.4750 C   0  0  0  0  0  0  0  0  0  0  0  0
  141.6270   78.9260  221.7300 C   0  0  0  0  0  0  0  0  0  0  0  0
  142.2040   80.1750  221.6560 C   0  0  0  0  0  0  0  0  0  0  0  0
  142.5830   80.8790  222.7780 C   0  0  0  0  0  0  0  0  0  0  0  0
  142.3830   80.3190  224.0390 C   0  0  0  0  0  0  0  0  0  0  0  0
  141.8100   79.0740  224.1470 C   0  0  0  0  0  0  0  0  0  0  0  0
  141.4400   78.3950  222.9850 C   0  0  0  0  0  0  0  0  0  0  0  0
  139.8710   70.8260  223.6260 C   0  0  0  0  0  0  0  0  0  0  0  0
  139.4240   69.5060  223.6900 C   0  0  0  0  0  0  0  0  0  0  0  0
  139.4260   68.8460  224.8740 N   0  0  0  0  0  0  0  0  0  0  0  0
  139.8550   69.4420  226.0010 C   0  0  0  0  0  0  0  0  0  0  0  0
  139.8630   68.7830  227.2150 C   0  0  0  0  0  0  0  0  0  0  0  0
  140.3050   69.3950  228.3840 C   0  0  0  0  0  0  0  0  0  0  0  0
  140.7500   70.7160  228.3080 C   0  0  0  0  0  0  0  0  0  0  0  0
  140.7410   71.3750  227.0930 C   0  0  0  0  0  0  0  0  0  0  0  0
  140.3010   70.7640  225.9330 C   0  0  0  0  0  0  0  0  0  0  0  0
  140.3000   71.4250  224.7560 N   0  0  0  0  0  0  0  0  0  0  0  0
  139.9440   73.4310  223.2240 H   0  0  0  0  0  0  0  0  0  0  0  0
  140.6614   73.1816  220.3614 H   0  0  0  0  0  0  0  0  0  0  0  0
  138.9243   73.4980  220.5175 H   0  0  0  0  0  0  0  0  0  0  0  0
  139.4881   74.8741  218.8940 H   0  0  0  0  0  0  0  0  0  0  0  0
  139.6185   76.6629  218.6793 H   0  0  0  0  0  0  0  0  0  0  0  0
  141.6377   74.5128  217.9696 H   0  0  0  0  0  0  0  0  0  0  0  0
  140.8374   75.7408  216.9005 H   0  0  0  0  0  0  0  0  0  0  0  0
  143.2531   76.1714  217.4855 H   0  0  0  0  0  0  0  0  0  0  0  0
  142.0444   77.5001  217.8436 H   0  0  0  0  0  0  0  0  0  0  0  0
  143.3803   75.6281  219.7745 H   0  0  0  0  0  0  0  0  0  0  0  0
  143.5495   77.4469  219.5841 H   0  0  0  0  0  0  0  0  0  0  0  0
  142.2138   76.6668  221.5436 H   0  0  0  0  0  0  0  0  0  0  0  0
  141.6780   78.7585  219.6114 H   0  0  0  0  0  0  0  0  0  0  0  0
  140.1536   78.2115  220.3657 H   0  0  0  0  0  0  0  0  0  0  0  0
  142.3678   80.6260  220.6662 H   0  0  0  0  0  0  0  0  0  0  0  0
  143.0397   81.8749  222.6797 H   0  0  0  0  0  0  0  0  0  0  0  0
  142.6821   80.8704  224.9426 H   0  0  0  0  0  0  0  0  0  0  0  0
  141.6455   78.6194  225.1351 H   0  0  0  0  0  0  0  0  0  0  0  0
  140.9822   77.3990  223.0762 H   0  0  0  0  0  0  0  0  0  0  0  0
  139.0698   69.0007  222.7794 H   0  0  0  0  0  0  0  0  0  0  0  0
  139.5091   67.7424  227.2590 H   0  0  0  0  0  0  0  0  0  0  0  0
  140.3038   68.8530  229.3412 H   0  0  0  0  0  0  0  0  0  0  0  0
  141.1067   71.2309  229.2122 H   0  0  0  0  0  0  0  0  0  0  0  0
  141.0941   72.4158  227.0474 H   0  0  0  0  0  0  0  0  0  0  0  0
  1  2  2  0
  2  3  1  0
  3  4  1  0
  4  5  1  0
  5  6  2  0
  5  7  1  0
  7  8  1  0
  8  9  1  0
  9 10  1  0
 10 11  1  0
 11 12  1  0
 12 13  1  0
 13 14  1  0
 14 15  2  0
 15 16  1  0
 16 17  2  0
 17 18  1  0
 18 19  2  0
  2 20  1  0
 20 21  2  0
 21 22  1  0
 22 23  2  0
 23 24  1  0
 24 25  2  0
 25 26  1  0
 26 27  2  0
 27 28  1  0
 28 29  2  0
 12  7  1  0
 19 14  1  0
 29 20  1  0
 28 23  1  0
  3 30  1  0
  4 31  1  0
  4 32  1  0
  8 33  1  0
  8 34  1  0
  9 35  1  0
  9 36  1  0
 10 37  1  0
 10 38  1  0
 11 39  1  0
 11 40  1  0
 12 41  1  1
 13 42  1  0
 13 43  1  0
 15 44  1  0
 16 45  1  0
 17 46  1  0
 18 47  1  0
 19 48  1  0
 21 49  1  0
 24 50  1  0
 25 51  1  0
 26 52  1  0
 27 53  1  0
M  END
>  <smiles>  (91) 
O=C(NCC(=O)N1CCCCC1Cc1ccccc1)c1cnc2ccccc2n1

>  <score_type>  (91) 
oracle

>  <origin>  (91) 
autodockgpu

>  <m_score__min__energy>  (91) 
-9.3399999999999999

>  <m_primary>  (91) 
energy

>  <rmsd>  (91) 
1.4751641027589266

>  <m_score__min__rmsd>  (91) 
1.4751641027589266

>  <meeko>  (91) 
{"free_energy": -8.7, "intermolecular_energy": -10.49, "internal_energy": -1.99, "cluster_size": 18, "cluster_id": 2, "rank_in_cluster": 13}

>  <energy>  (91) 
-8.42

>  <cluster_rmsd>  (91) 
0.0

>  <cluster>  (91) 
4

$$$$

     RDKit          3D

 53 56  0  0  0  0  0  0  0  0999 V2000
  139.9280   71.2830  221.2550 O   0  0  0  0  0  0  0  0  0  0  0  0
  139.8370   71.9260  222.3350 C   0  0  0  0  0  0  0  0  0  0  0  0
  139.6360   73.3280  222.2970 N   0  0  0  0  0  0  0  0  0  0  0  0
  139.5410   73.9810  220.9930 C   0  0  0  0  0  0  0  0  0  0  0  0
  140.0910   75.3510  221.1740 C   0  0  0  0  0  0  0  0  0  0  0  0
  139.8700   76.0460  222.2030 O   0  0  0  0  0  0  0  0  0  0  0  0
  140.9050   75.9290  220.1590 N   0  0  0  0  0  0  0  0  0  0  0  0
  140.5310   75.7050  218.7630 C   0  0  0  0  0  0  0  0  0  0  0  0
  141.7120   75.1980  217.9650 C   0  0  0  0  0  0  0  0  0  0  0  0
  142.9670   75.9800  218.2600 C   0  0  0  0  0  0  0  0  0  0  0  0
  143.2320   76.1810  219.7150 C   0  0  0  0  0  0  0  0  0  0  0  0
  142.0720   76.7200  220.4960 C   0  0  1  0  0  0  0  0  0  0  0  0
  141.7990   78.1860  220.1840 C   0  0  0  0  0  0  0  0  0  0  0  0
  141.4860   78.8790  221.4590 C   0  0  0  0  0  0  0  0  0  0  0  0
  142.5170   79.4100  222.2040 C   0  0  0  0  0  0  0  0  0  0  0  0
  142.3030   80.0640  223.3980 C   0  0  0  0  0  0  0  0  0  0  0  0
  141.0030   80.2010  223.8810 C   0  0  0  0  0  0  0  0  0  0  0  0
  139.9510   79.6820  223.1610 C   0  0  0  0  0  0  0  0  0  0  0  0
  140.2130   79.0270  221.9570 C   0  0  0  0  0  0  0  0  0  0  0  0
  139.9360   71.2520  223.6280 C   0  0  0  0  0  0  0  0  0  0  0  0
  139.5480   69.9160  223.7320 C   0  0  0  0  0  0  0  0  0  0  0  0
  139.6320   69.2760  224.9240 N   0  0  0  0  0  0  0  0  0  0  0  0
  140.0870   69.9080  226.0210 C   0  0  0  0  0  0  0  0  0  0  0  0
  140.1780   69.2700  227.2420 C   0  0  0  0  0  0  0  0  0  0  0  0
  140.6480   69.9180  228.3810 C   0  0  0  0  0  0  0  0  0  0  0  0
  141.0330   71.2550  228.2650 C   0  0  0  0  0  0  0  0  0  0  0  0
  140.9410   71.8930  227.0420 C   0  0  0  0  0  0  0  0  0  0  0  0
  140.4740   71.2450  225.9130 C   0  0  0  0  0  0  0  0  0  0  0  0
  140.3910   71.8860  224.7280 N   0  0  0  0  0  0  0  0  0  0  0  0
  139.5650   73.8270  223.1970 H   0  0  0  0  0  0  0  0  0  0  0  0
  140.1306   73.4290  220.2462 H   0  0  0  0  0  0  0  0  0  0  0  0
  138.5016   74.0105  220.6342 H   0  0  0  0  0  0  0  0  0  0  0  0
  139.7217   74.9612  218.7214 H   0  0  0  0  0  0  0  0  0  0  0  0
  140.1967   76.6594  218.3301 H   0  0  0  0  0  0  0  0  0  0  0  0
  141.8840   74.1411  218.2168 H   0  0  0  0  0  0  0  0  0  0  0  0
  141.4786   75.3181  216.8968 H   0  0  0  0  0  0  0  0  0  0  0  0
  143.8208   75.4400  217.8248 H   0  0  0  0  0  0  0  0  0  0  0  0
  142.8283   76.9794  217.8219 H   0  0  0  0  0  0  0  0  0  0  0  0
  143.5152   75.2105  220.1486 H   0  0  0  0  0  0  0  0  0  0  0  0
  144.0292   76.9359  219.7834 H   0  0  0  0  0  0  0  0  0  0  0  0
  142.3074   76.6563  221.5686 H   0  0  0  0  0  0  0  0  0  0  0  0
  142.6875   78.6403  219.7212 H   0  0  0  0  0  0  0  0  0  0  0  0
  140.9547   78.2757  219.4846 H   0  0  0  0  0  0  0  0  0  0  0  0
  143.5473   79.3081  221.8322 H   0  0  0  0  0  0  0  0  0  0  0  0
  143.1514   80.4745  223.9652 H   0  0  0  0  0  0  0  0  0  0  0  0
  140.8186   80.7211  224.8326 H   0  0  0  0  0  0  0  0  0  0  0  0
  138.9193   79.7820  223.5291 H   0  0  0  0  0  0  0  0  0  0  0  0
  139.3694   78.6136  221.3848 H   0  0  0  0  0  0  0  0  0  0  0  0
  139.1737   69.3817  222.8463 H   0  0  0  0  0  0  0  0  0  0  0  0
  139.8695   68.2168  227.3172 H   0  0  0  0  0  0  0  0  0  0  0  0
  140.7141   69.3917  229.3447 H   0  0  0  0  0  0  0  0  0  0  0  0
  141.4085   71.7992  229.1442 H   0  0  0  0  0  0  0  0  0  0  0  0
  141.2481   72.9464  226.9647 H   0  0  0  0  0  0  0  0  0  0  0  0
  1  2  2  0
  2  3  1  0
  3  4  1  0
  4  5  1  0
  5  6  2  0
  5  7  1  0
  7  8  1  0
  8  9  1  0
  9 10  1  0
 10 11  1  0
 11 12  1  0
 12 13  1  0
 13 14  1  0
 14 15  2  0
 15 16  1  0
 16 17  2  0
 17 18  1  0
 18 19  2  0
  2 20  1  0
 20 21  2  0
 21 22  1  0
 22 23  2  0
 23 24  1  0
 24 25  2  0
 25 26  1  0
 26 27  2  0
 27 28  1  0
 28 29  2  0
 12  7  1  0
 19 14  1  0
 29 20  1  0
 28 23  1  0
  3 30  1  0
  4 31  1  0
  4 32  1  0
  8 33  1  0
  8 34  1  0
  9 35  1  0
  9 36  1  0
 10 37  1  0
 10 38  1  0
 11 39  1  0
 11 40  1  0
 12 41  1  1
 13 42  1  0
 13 43  1  0
 15 44  1  0
 16 45  1  0
 17 46  1  0
 18 47  1  0
 19 48  1  0
 21 49  1  0
 24 50  1  0
 25 51  1  0
 26 52  1  0
 27 53  1  0
M  END
>  <smiles>  (92) 
O=C(NCC(=O)N1CCCCC1Cc1ccccc1)c1cnc2ccccc2n1

>  <score_type>  (92) 
oracle

>  <origin>  (92) 
autodockgpu

>  <m_score__min__energy>  (92) 
-9.3399999999999999

>  <m_primary>  (92) 
energy

>  <rmsd>  (92) 
1.5922727364882399

>  <m_score__min__rmsd>  (92) 
1.5922727364882399

>  <meeko>  (92) 
{"free_energy": -8.27, "intermolecular_energy": -10.06, "internal_energy": -1.86, "cluster_size": 18, "cluster_id": 2, "rank_in_cluster": 18}

>  <energy>  (92) 
-8.4

>  <cluster_rmsd>  (92) 
0.42

>  <cluster>  (92) 
4

$$$$

     RDKit          3D

 53 56  0  0  0  0  0  0  0  0999 V2000
  137.3630   76.1100  222.3410 O   0  0  0  0  0  0  0  0  0  0  0  0
  138.6130   76.2490  222.4190 C   0  0  0  0  0  0  0  0  0  0  0  0
  139.4530   75.1230  222.2350 N   0  0  0  0  0  0  0  0  0  0  0  0
  138.8310   73.8300  221.9580 C   0  0  0  0  0  0  0  0  0  0  0  0
  139.9030   72.8110  222.1210 C   0  0  0  0  0  0  0  0  0  0  0  0
  141.1250   73.0720  221.9560 O   0  0  0  0  0  0  0  0  0  0  0  0
  139.5630   71.4760  222.4770 N   0  0  0  0  0  0  0  0  0  0  0  0
  139.5880   70.4540  221.4300 C   0  0  0  0  0  0  0  0  0  0  0  0
  138.2930   69.6720  221.4110 C   0  0  0  0  0  0  0  0  0  0  0  0
  137.8570   69.2740  222.7990 C   0  0  0  0  0  0  0  0  0  0  0  0
  137.9050   70.3850  223.7950 C   0  0  0  0  0  0  0  0  0  0  0  0
  139.2030   71.1330  223.8390 C   0  0  1  0  0  0  0  0  0  0  0  0
  140.3210   70.3110  224.4680 C   0  0  0  0  0  0  0  0  0  0  0  0
  140.4960   70.7660  225.8700 C   0  0  0  0  0  0  0  0  0  0  0  0
  141.2460   71.8950  226.1200 C   0  0  0  0  0  0  0  0  0  0  0  0
  141.4520   72.3740  227.3960 C   0  0  0  0  0  0  0  0  0  0  0  0
  140.8890   71.7040  228.4800 C   0  0  0  0  0  0  0  0  0  0  0  0
  140.1350   70.5730  228.2640 C   0  0  0  0  0  0  0  0  0  0  0  0
  139.9510   70.1220  226.9560 C   0  0  0  0  0  0  0  0  0  0  0  0
  139.2140   77.5520  222.6980 C   0  0  0  0  0  0  0  0  0  0  0  0
  138.3840   78.6540  222.9080 C   0  0  0  0  0  0  0  0  0  0  0  0
  138.9240   79.8700  223.1670 N   0  0  0  0  0  0  0  0  0  0  0  0
  140.2580   80.0390  223.2270 C   0  0  0  0  0  0  0  0  0  0  0  0
  140.8240   81.2710  223.4900 C   0  0  0  0  0  0  0  0  0  0  0  0
  142.2020   81.4530  223.5530 C   0  0  0  0  0  0  0  0  0  0  0  0
  143.0220   80.3430  223.3420 C   0  0  0  0  0  0  0  0  0  0  0  0
  142.4550   79.1100  223.0790 C   0  0  0  0  0  0  0  0  0  0  0  0
  141.0850   78.9330  223.0170 C   0  0  0  0  0  0  0  0  0  0  0  0
  140.5500   77.7210  222.7580 N   0  0  0  0  0  0  0  0  0  0  0  0
  140.4720   75.2680  222.3050 H   0  0  0  0  0  0  0  0  0  0  0  0
  138.0130   73.6402  222.6686 H   0  0  0  0  0  0  0  0  0  0  0  0
  138.4001   73.8007  220.9463 H   0  0  0  0  0  0  0  0  0  0  0  0
  139.7294   70.9412  220.4539 H   0  0  0  0  0  0  0  0  0  0  0  0
  140.4161   69.7596  221.6351 H   0  0  0  0  0  0  0  0  0  0  0  0
  137.5082   70.2943  220.9563 H   0  0  0  0  0  0  0  0  0  0  0  0
  138.4574   68.7536  220.8284 H   0  0  0  0  0  0  0  0  0  0  0  0
  136.8225   68.9044  222.7434 H   0  0  0  0  0  0  0  0  0  0  0  0
  138.5644   68.5063  223.1458 H   0  0  0  0  0  0  0  0  0  0  0  0
  137.1060   71.1000  223.5491 H   0  0  0  0  0  0  0  0  0  0  0  0
  137.7815   69.9201  224.7842 H   0  0  0  0  0  0  0  0  0  0  0  0
  139.0731   72.0308  224.4612 H   0  0  0  0  0  0  0  0  0  0  0  0
  140.0530   69.2442  224.4530 H   0  0  0  0  0  0  0  0  0  0  0  0
  141.2560   70.4456  223.9044 H   0  0  0  0  0  0  0  0  0  0  0  0
  141.6957   72.4323  225.2720 H   0  0  0  0  0  0  0  0  0  0  0  0
  142.0565   73.2787  227.5572 H   0  0  0  0  0  0  0  0  0  0  0  0
  141.0462   72.0768  229.5029 H   0  0  0  0  0  0  0  0  0  0  0  0
  139.6842   70.0327  229.1095 H   0  0  0  0  0  0  0  0  0  0  0  0
  139.3476   69.2178  226.7876 H   0  0  0  0  0  0  0  0  0  0  0  0
  137.2913   78.5358  222.8633 H   0  0  0  0  0  0  0  0  0  0  0  0
  140.1645   82.1358  223.6549 H   0  0  0  0  0  0  0  0  0  0  0  0
  142.6329   82.4430  223.7630 H   0  0  0  0  0  0  0  0  0  0  0  0
  144.1160   80.4492  223.3849 H   0  0  0  0  0  0  0  0  0  0  0  0
  143.1131   78.2441  222.9142 H   0  0  0  0  0  0  0  0  0  0  0  0
  1  2  2  0
  2  3  1  0
  3  4  1  0
  4  5  1  0
  5  6  2  0
  5  7  1  0
  7  8  1  0
  8  9  1  0
  9 10  1  0
 10 11  1  0
 11 12  1  0
 12 13  1  0
 13 14  1  0
 14 15  2  0
 15 16  1  0
 16 17  2  0
 17 18  1  0
 18 19  2  0
  2 20  1  0
 20 21  2  0
 21 22  1  0
 22 23  2  0
 23 24  1  0
 24 25  2  0
 25 26  1  0
 26 27  2  0
 27 28  1  0
 28 29  2  0
 12  7  1  0
 19 14  1  0
 29 20  1  0
 28 23  1  0
  3 30  1  0
  4 31  1  0
  4 32  1  0
  8 33  1  0
  8 34  1  0
  9 35  1  0
  9 36  1  0
 10 37  1  0
 10 38  1  0
 11 39  1  0
 11 40  1  0
 12 41  1  1
 13 42  1  0
 13 43  1  0
 15 44  1  0
 16 45  1  0
 17 46  1  0
 18 47  1  0
 19 48  1  0
 21 49  1  0
 24 50  1  0
 25 51  1  0
 26 52  1  0
 27 53  1  0
M  END
>  <smiles>  (93) 
O=C(NCC(=O)N1CCCCC1Cc1ccccc1)c1cnc2ccccc2n1

>  <score_type>  (93) 
oracle

>  <origin>  (93) 
autodockgpu

>  <m_score__min__energy>  (93) 
-9.3399999999999999

>  <m_primary>  (93) 
energy

>  <rmsd>  (93) 
8.022815946590658

>  <m_score__min__rmsd>  (93) 
8.022815946590658

>  <meeko>  (93) 
{"free_energy": -8.57, "intermolecular_energy": -10.36, "internal_energy": -2.0, "cluster_size": 21, "cluster_id": 1, "rank_in_cluster": 16}

>  <energy>  (93) 
-8.39

>  <cluster_rmsd>  (93) 
0.2

>  <cluster>  (93) 
4

$$$$

     RDKit          3D

 53 56  0  0  0  0  0  0  0  0999 V2000
  137.4800   75.9800  222.3390 O   0  0  0  0  0  0  0  0  0  0  0  0
  138.7260   76.1680  222.3230 C   0  0  0  0  0  0  0  0  0  0  0  0
  139.5890   75.0970  221.9850 N   0  0  0  0  0  0  0  0  0  0  0  0
  138.9950   73.8000  221.6650 C   0  0  0  0  0  0  0  0  0  0  0  0
  139.8700   72.7760  222.2970 C   0  0  0  0  0  0  0  0  0  0  0  0
  141.0750   72.9940  222.5920 O   0  0  0  0  0  0  0  0  0  0  0  0
  139.3500   71.4850  222.5930 N   0  0  0  0  0  0  0  0  0  0  0  0
  139.2450   70.5150  221.5020 C   0  0  0  0  0  0  0  0  0  0  0  0
  137.8560   69.9170  221.4460 C   0  0  0  0  0  0  0  0  0  0  0  0
  137.3590   69.5220  222.8130 C   0  0  0  0  0  0  0  0  0  0  0  0
  137.5480   70.5720  223.8580 C   0  0  0  0  0  0  0  0  0  0  0  0
  138.9350   71.1350  223.9370 C   0  0  1  0  0  0  0  0  0  0  0  0
  139.9260   70.1420  224.5320 C   0  0  0  0  0  0  0  0  0  0  0  0
  140.3570   70.6570  225.8560 C   0  0  0  0  0  0  0  0  0  0  0  0
  140.0220   69.9520  226.9910 C   0  0  0  0  0  0  0  0  0  0  0  0
  140.3850   70.3700  228.2530 C   0  0  0  0  0  0  0  0  0  0  0  0
  141.1180   71.5470  228.4010 C   0  0  0  0  0  0  0  0  0  0  0  0
  141.4680   72.2750  227.2870 C   0  0  0  0  0  0  0  0  0  0  0  0
  141.0790   71.8150  226.0280 C   0  0  0  0  0  0  0  0  0  0  0  0
  139.2990   77.4730  222.6470 C   0  0  0  0  0  0  0  0  0  0  0  0
  138.4460   78.5500  222.8940 C   0  0  0  0  0  0  0  0  0  0  0  0
  138.9600   79.7670  223.1950 N   0  0  0  0  0  0  0  0  0  0  0  0
  140.2890   79.9620  223.2630 C   0  0  0  0  0  0  0  0  0  0  0  0
  140.8290   81.1960  223.5680 C   0  0  0  0  0  0  0  0  0  0  0  0
  142.2030   81.4050  223.6400 C   0  0  0  0  0  0  0  0  0  0  0  0
  143.0460   80.3210  223.3910 C   0  0  0  0  0  0  0  0  0  0  0  0
  142.5060   79.0860  223.0850 C   0  0  0  0  0  0  0  0  0  0  0  0
  141.1400   78.8820  223.0150 C   0  0  0  0  0  0  0  0  0  0  0  0
  140.6310   77.6690  222.7140 N   0  0  0  0  0  0  0  0  0  0  0  0
  140.6040   75.2810  221.9810 H   0  0  0  0  0  0  0  0  0  0  0  0
  137.9759   73.7359  222.0741 H   0  0  0  0  0  0  0  0  0  0  0  0
  138.9222   73.6495  220.5778 H   0  0  0  0  0  0  0  0  0  0  0  0
  139.4588   71.0202  220.5485 H   0  0  0  0  0  0  0  0  0  0  0  0
  139.9699   69.7066  221.6781 H   0  0  0  0  0  0  0  0  0  0  0  0
  137.1663   70.6591  221.0175 H   0  0  0  0  0  0  0  0  0  0  0  0
  137.8997   69.0108  220.8240 H   0  0  0  0  0  0  0  0  0  0  0  0
  136.2845   69.2984  222.7385 H   0  0  0  0  0  0  0  0  0  0  0  0
  137.9536   68.6515  223.1271 H   0  0  0  0  0  0  0  0  0  0  0  0
  136.8546   71.3983  223.6427 H   0  0  0  0  0  0  0  0  0  0  0  0
  137.3547   70.0856  224.8255 H   0  0  0  0  0  0  0  0  0  0  0  0
  138.9223   72.0149  224.5970 H   0  0  0  0  0  0  0  0  0  0  0  0
  139.4436   69.1608  224.6527 H   0  0  0  0  0  0  0  0  0  0  0  0
  140.7947   70.0261  223.8672 H   0  0  0  0  0  0  0  0  0  0  0  0
  139.4440   69.0220  226.8863 H   0  0  0  0  0  0  0  0  0  0  0  0
  140.0989   69.7801  229.1363 H   0  0  0  0  0  0  0  0  0  0  0  0
  141.4147   71.8915  229.4026 H   0  0  0  0  0  0  0  0  0  0  0  0
  142.0458   73.2057  227.3872 H   0  0  0  0  0  0  0  0  0  0  0  0
  141.3603   72.4004  225.1402 H   0  0  0  0  0  0  0  0  0  0  0  0
  137.3560   78.4106  222.8442 H   0  0  0  0  0  0  0  0  0  0  0  0
  140.1513   82.0408  223.7602 H   0  0  0  0  0  0  0  0  0  0  0  0
  142.6127   82.3958  223.8860 H   0  0  0  0  0  0  0  0  0  0  0  0
  144.1375   80.4491  223.4382 H   0  0  0  0  0  0  0  0  0  0  0  0
  143.1826   78.2406  222.8915 H   0  0  0  0  0  0  0  0  0  0  0  0
  1  2  2  0
  2  3  1  0
  3  4  1  0
  4  5  1  0
  5  6  2  0
  5  7  1  0
  7  8  1  0
  8  9  1  0
  9 10  1  0
 10 11  1  0
 11 12  1  0
 12 13  1  0
 13 14  1  0
 14 15  2  0
 15 16  1  0
 16 17  2  0
 17 18  1  0
 18 19  2  0
  2 20  1  0
 20 21  2  0
 21 22  1  0
 22 23  2  0
 23 24  1  0
 24 25  2  0
 25 26  1  0
 26 27  2  0
 27 28  1  0
 28 29  2  0
 12  7  1  0
 19 14  1  0
 29 20  1  0
 28 23  1  0
  3 30  1  0
  4 31  1  0
  4 32  1  0
  8 33  1  0
  8 34  1  0
  9 35  1  0
  9 36  1  0
 10 37  1  0
 10 38  1  0
 11 39  1  0
 11 40  1  0
 12 41  1  1
 13 42  1  0
 13 43  1  0
 15 44  1  0
 16 45  1  0
 17 46  1  0
 18 47  1  0
 19 48  1  0
 21 49  1  0
 24 50  1  0
 25 51  1  0
 26 52  1  0
 27 53  1  0
M  END
>  <smiles>  (94) 
O=C(NCC(=O)N1CCCCC1Cc1ccccc1)c1cnc2ccccc2n1

>  <score_type>  (94) 
oracle

>  <origin>  (94) 
autodockgpu

>  <m_score__min__energy>  (94) 
-9.3399999999999999

>  <m_primary>  (94) 
energy

>  <rmsd>  (94) 
8.017223010380102

>  <m_score__min__rmsd>  (94) 
8.017223010380102

>  <meeko>  (94) 
{"free_energy": -8.73, "intermolecular_energy": -10.52, "internal_energy": -1.93, "cluster_size": 21, "cluster_id": 1, "rank_in_cluster": 7}

>  <energy>  (94) 
-8.38

>  <cluster_rmsd>  (94) 
0.21

>  <cluster>  (94) 
4

$$$$

     RDKit          3D

 53 56  0  0  0  0  0  0  0  0999 V2000
  141.2680   71.6500  221.4410 O   0  0  0  0  0  0  0  0  0  0  0  0
  140.6370   72.1800  222.3950 C   0  0  0  0  0  0  0  0  0  0  0  0
  140.2000   73.5220  222.2810 N   0  0  0  0  0  0  0  0  0  0  0  0
  140.5000   74.2490  221.0490 C   0  0  0  0  0  0  0  0  0  0  0  0
  140.6130   75.6820  221.4300 C   0  0  0  0  0  0  0  0  0  0  0  0
  140.0280   76.1700  222.4340 O   0  0  0  0  0  0  0  0  0  0  0  0
  141.4070   76.5640  220.6450 N   0  0  0  0  0  0  0  0  0  0  0  0
  141.5170   77.9600  221.0700 C   0  0  0  0  0  0  0  0  0  0  0  0
  141.2030   78.8970  219.9250 C   0  0  0  0  0  0  0  0  0  0  0  0
  141.8890   78.4750  218.6500 C   0  0  0  0  0  0  0  0  0  0  0  0
  141.7430   77.0240  218.3310 C   0  0  0  0  0  0  0  0  0  0  0  0
  142.0910   76.0960  219.4550 C   0  0  1  0  0  0  0  0  0  0  0  0
  143.5920   76.0480  219.7190 C   0  0  0  0  0  0  0  0  0  0  0  0
  143.9850   74.6270  219.8860 C   0  0  0  0  0  0  0  0  0  0  0  0
  145.1360   74.3270  220.5820 C   0  0  0  0  0  0  0  0  0  0  0  0
  145.5650   73.0320  220.7750 C   0  0  0  0  0  0  0  0  0  0  0  0
  144.8180   71.9780  220.2520 C   0  0  0  0  0  0  0  0  0  0  0  0
  143.6650   72.2430  219.5510 C   0  0  0  0  0  0  0  0  0  0  0  0
  143.2670   73.5690  219.3790 C   0  0  0  0  0  0  0  0  0  0  0  0
  140.3480   71.4340  223.6180 C   0  0  0  0  0  0  0  0  0  0  0  0
  139.6480   70.2300  223.5340 C   0  0  0  0  0  0  0  0  0  0  0  0
  139.3710   69.5260  224.6590 N   0  0  0  0  0  0  0  0  0  0  0  0
  139.7600   69.9680  225.8680 C   0  0  0  0  0  0  0  0  0  0  0  0
  139.4850   69.2630  227.0230 C   0  0  0  0  0  0  0  0  0  0  0  0
  139.8850   69.7150  228.2780 C   0  0  0  0  0  0  0  0  0  0  0  0
  140.5840   70.9210  228.3500 C   0  0  0  0  0  0  0  0  0  0  0  0
  140.8580   71.6270  227.1930 C   0  0  0  0  0  0  0  0  0  0  0  0
  140.4600   71.1740  225.9480 C   0  0  0  0  0  0  0  0  0  0  0  0
  140.7380   71.8780  224.8310 N   0  0  0  0  0  0  0  0  0  0  0  0
  139.6860   73.9290  223.0780 H   0  0  0  0  0  0  0  0  0  0  0  0
  141.4472   73.8933  220.6174 H   0  0  0  0  0  0  0  0  0  0  0  0
  139.7164   74.0960  220.2923 H   0  0  0  0  0  0  0  0  0  0  0  0
  140.8083   78.1438  221.8910 H   0  0  0  0  0  0  0  0  0  0  0  0
  142.5481   78.1461  221.4049 H   0  0  0  0  0  0  0  0  0  0  0  0
  140.1157   78.9037  219.7586 H   0  0  0  0  0  0  0  0  0  0  0  0
  141.5687   79.8990  220.1938 H   0  0  0  0  0  0  0  0  0  0  0  0
  141.4620   79.0560  217.8193 H   0  0  0  0  0  0  0  0  0  0  0  0
  142.9637   78.6623  218.7910 H   0  0  0  0  0  0  0  0  0  0  0  0
  140.6966   76.8397  218.0464 H   0  0  0  0  0  0  0  0  0  0  0  0
  142.4565   76.8113  217.5213 H   0  0  0  0  0  0  0  0  0  0  0  0
  141.7772   75.0775  219.1824 H   0  0  0  0  0  0  0  0  0  0  0  0
  144.1344   76.4875  218.8689 H   0  0  0  0  0  0  0  0  0  0  0  0
  143.8382   76.6207  220.6253 H   0  0  0  0  0  0  0  0  0  0  0  0
  145.7338   75.1512  220.9985 H   0  0  0  0  0  0  0  0  0  0  0  0
  146.4891   72.8317  221.3370 H   0  0  0  0  0  0  0  0  0  0  0  0
  145.1490   70.9394  220.3992 H   0  0  0  0  0  0  0  0  0  0  0  0
  143.0653   71.4215  219.1320 H   0  0  0  0  0  0  0  0  0  0  0  0
  142.3444   73.7762  218.8169 H   0  0  0  0  0  0  0  0  0  0  0  0
  139.3206   69.8517  222.5543 H   0  0  0  0  0  0  0  0  0  0  0  0
  138.9326   68.3146  226.9495 H   0  0  0  0  0  0  0  0  0  0  0  0
  139.6567   69.1382  229.1864 H   0  0  0  0  0  0  0  0  0  0  0  0
  140.9160   71.3087  229.3244 H   0  0  0  0  0  0  0  0  0  0  0  0
  141.4086   72.5766  227.2647 H   0  0  0  0  0  0  0  0  0  0  0  0
  1  2  2  0
  2  3  1  0
  3  4  1  0
  4  5  1  0
  5  6  2  0
  5  7  1  0
  7  8  1  0
  8  9  1  0
  9 10  1  0
 10 11  1  0
 11 12  1  0
 12 13  1  0
 13 14  1  0
 14 15  2  0
 15 16  1  0
 16 17  2  0
 17 18  1  0
 18 19  2  0
  2 20  1  0
 20 21  2  0
 21 22  1  0
 22 23  2  0
 23 24  1  0
 24 25  2  0
 25 26  1  0
 26 27  2  0
 27 28  1  0
 28 29  2  0
 12  7  1  0
 19 14  1  0
 29 20  1  0
 28 23  1  0
  3 30  1  0
  4 31  1  0
  4 32  1  0
  8 33  1  0
  8 34  1  0
  9 35  1  0
  9 36  1  0
 10 37  1  0
 10 38  1  0
 11 39  1  0
 11 40  1  0
 12 41  1  6
 13 42  1  0
 13 43  1  0
 15 44  1  0
 16 45  1  0
 17 46  1  0
 18 47  1  0
 19 48  1  0
 21 49  1  0
 24 50  1  0
 25 51  1  0
 26 52  1  0
 27 53  1  0
M  END
>  <smiles>  (95) 
O=C(NCC(=O)N1CCCCC1Cc1ccccc1)c1cnc2ccccc2n1

>  <score_type>  (95) 
oracle

>  <origin>  (95) 
autodockgpu

>  <m_score__min__energy>  (95) 
-9.3399999999999999

>  <m_primary>  (95) 
energy

>  <rmsd>  (95) 
2.64559514254506

>  <m_score__min__rmsd>  (95) 
2.64559514254506

>  <meeko>  (95) 
{"free_energy": -8.36, "intermolecular_energy": -10.14, "internal_energy": -2.11, "cluster_size": 8, "cluster_id": 4, "rank_in_cluster": 5}

>  <energy>  (95) 
-8.36

>  <cluster_rmsd>  (95) 
0.2

>  <cluster>  (95) 
4

$$$$

     RDKit          3D

 53 56  0  0  0  0  0  0  0  0999 V2000
  140.9710   71.4510  221.3520 O   0  0  0  0  0  0  0  0  0  0  0  0
  140.4560   72.0190  222.3510 C   0  0  0  0  0  0  0  0  0  0  0  0
  140.1030   73.3890  222.2700 N   0  0  0  0  0  0  0  0  0  0  0  0
  140.3530   74.0980  221.0170 C   0  0  0  0  0  0  0  0  0  0  0  0
  140.5990   75.5180  221.3850 C   0  0  0  0  0  0  0  0  0  0  0  0
  140.0780   76.0610  222.3960 O   0  0  0  0  0  0  0  0  0  0  0  0
  141.4540   76.3220  220.5800 N   0  0  0  0  0  0  0  0  0  0  0  0
  141.4130   77.7730  220.7630 C   0  0  0  0  0  0  0  0  0  0  0  0
  141.2290   78.4760  219.4360 C   0  0  0  0  0  0  0  0  0  0  0  0
  142.1300   77.9080  218.3690 C   0  0  0  0  0  0  0  0  0  0  0  0
  142.1220   76.4170  218.2950 C   0  0  0  0  0  0  0  0  0  0  0  0
  142.3430   75.7220  219.6040 C   0  0  1  0  0  0  0  0  0  0  0  0
  143.7830   75.8470  220.0870 C   0  0  0  0  0  0  0  0  0  0  0  0
  144.3970   74.4960  220.0610 C   0  0  0  0  0  0  0  0  0  0  0  0
  145.4890   74.2400  220.8630 C   0  0  0  0  0  0  0  0  0  0  0  0
  146.1110   73.0110  220.8890 C   0  0  0  0  0  0  0  0  0  0  0  0
  145.6310   71.9810  220.0820 C   0  0  0  0  0  0  0  0  0  0  0  0
  144.5430   72.2040  219.2700 C   0  0  0  0  0  0  0  0  0  0  0  0
  143.9430   73.4640  219.2740 C   0  0  0  0  0  0  0  0  0  0  0  0
  140.2150   71.2910  223.5950 C   0  0  0  0  0  0  0  0  0  0  0  0
  139.5610   70.0590  223.5490 C   0  0  0  0  0  0  0  0  0  0  0  0
  139.3290   69.3710  224.6930 N   0  0  0  0  0  0  0  0  0  0  0  0
  139.7200   69.8550  225.8860 C   0  0  0  0  0  0  0  0  0  0  0  0
  139.4910   69.1650  227.0610 C   0  0  0  0  0  0  0  0  0  0  0  0
  139.8930   69.6600  228.2980 C   0  0  0  0  0  0  0  0  0  0  0  0
  140.5470   70.8930  228.3320 C   0  0  0  0  0  0  0  0  0  0  0  0
  140.7750   71.5820  227.1560 C   0  0  0  0  0  0  0  0  0  0  0  0
  140.3750   71.0880  225.9280 C   0  0  0  0  0  0  0  0  0  0  0  0
  140.6070   71.7760  224.7910 N   0  0  0  0  0  0  0  0  0  0  0  0
  139.6830   73.8270  223.1040 H   0  0  0  0  0  0  0  0  0  0  0  0
  141.2340   73.6774  220.5102 H   0  0  0  0  0  0  0  0  0  0  0  0
  139.5013   74.0047  220.3271 H   0  0  0  0  0  0  0  0  0  0  0  0
  140.5739   78.0294  221.4265 H   0  0  0  0  0  0  0  0  0  0  0  0
  142.3651   78.0999  221.2066 H   0  0  0  0  0  0  0  0  0  0  0  0
  140.1829   78.3625  219.1155 H   0  0  0  0  0  0  0  0  0  0  0  0
  141.4891   79.5360  219.5729 H   0  0  0  0  0  0  0  0  0  0  0  0
  141.8049   78.3040  217.3956 H   0  0  0  0  0  0  0  0  0  0  0  0
  143.1563   78.2073  218.6280 H   0  0  0  0  0  0  0  0  0  0  0  0
  141.1461   76.0992  217.8992 H   0  0  0  0  0  0  0  0  0  0  0  0
  142.9654   76.1344  217.6479 H   0  0  0  0  0  0  0  0  0  0  0  0
  142.1369   74.6493  219.4739 H   0  0  0  0  0  0  0  0  0  0  0  0
  144.3416   76.5232  219.4231 H   0  0  0  0  0  0  0  0  0  0  0  0
  143.8085   76.2576  221.1072 H   0  0  0  0  0  0  0  0  0  0  0  0
  145.8770   75.0450  221.5044 H   0  0  0  0  0  0  0  0  0  0  0  0
  146.9803   72.8438  221.5420 H   0  0  0  0  0  0  0  0  0  0  0  0
  146.1193   70.9954  220.0942 H   0  0  0  0  0  0  0  0  0  0  0  0
  144.1520   71.4014  218.6274 H   0  0  0  0  0  0  0  0  0  0  0  0
  143.0738   73.6381  218.6228 H   0  0  0  0  0  0  0  0  0  0  0  0
  139.2337   69.6462  222.5834 H   0  0  0  0  0  0  0  0  0  0  0  0
  138.9750   68.1945  227.0174 H   0  0  0  0  0  0  0  0  0  0  0  0
  139.7009   69.0959  229.2226 H   0  0  0  0  0  0  0  0  0  0  0  0
  140.8798   71.3147  229.2919 H   0  0  0  0  0  0  0  0  0  0  0  0
  141.2903   72.5529  227.1981 H   0  0  0  0  0  0  0  0  0  0  0  0
  1  2  2  0
  2  3  1  0
  3  4  1  0
  4  5  1  0
  5  6  2  0
  5  7  1  0
  7  8  1  0
  8  9  1  0
  9 10  1  0
 10 11  1  0
 11 12  1  0
 12 13  1  0
 13 14  1  0
 14 15  2  0
 15 16  1  0
 16 17  2  0
 17 18  1  0
 18 19  2  0
  2 20  1  0
 20 21  2  0
 21 22  1  0
 22 23  2  0
 23 24  1  0
 24 25  2  0
 25 26  1  0
 26 27  2  0
 27 28  1  0
 28 29  2  0
 12  7  1  0
 19 14  1  0
 29 20  1  0
 28 23  1  0
  3 30  1  0
  4 31  1  0
  4 32  1  0
  8 33  1  0
  8 34  1  0
  9 35  1  0
  9 36  1  0
 10 37  1  0
 10 38  1  0
 11 39  1  0
 11 40  1  0
 12 41  1  6
 13 42  1  0
 13 43  1  0
 15 44  1  0
 16 45  1  0
 17 46  1  0
 18 47  1  0
 19 48  1  0
 21 49  1  0
 24 50  1  0
 25 51  1  0
 26 52  1  0
 27 53  1  0
M  END
>  <smiles>  (96) 
O=C(NCC(=O)N1CCCCC1Cc1ccccc1)c1cnc2ccccc2n1

>  <score_type>  (96) 
oracle

>  <origin>  (96) 
autodockgpu

>  <m_score__min__energy>  (96) 
-9.3399999999999999

>  <m_primary>  (96) 
energy

>  <rmsd>  (96) 
2.519786381281391

>  <m_score__min__rmsd>  (96) 
2.519786381281391

>  <meeko>  (96) 
{"free_energy": -8.4, "intermolecular_energy": -10.19, "internal_energy": -1.94, "cluster_size": 8, "cluster_id": 4, "rank_in_cluster": 2}

>  <energy>  (96) 
-8.31

>  <cluster_rmsd>  (96) 
0.23

>  <cluster>  (96) 
4

$$$$

     RDKit          3D

 53 56  0  0  0  0  0  0  0  0999 V2000
  141.4230   71.9670  221.5270 O   0  0  0  0  0  0  0  0  0  0  0  0
  140.5920   72.3460  222.3940 C   0  0  0  0  0  0  0  0  0  0  0  0
  139.9130   73.5770  222.2190 N   0  0  0  0  0  0  0  0  0  0  0  0
  140.2050   74.3690  221.0260 C   0  0  0  0  0  0  0  0  0  0  0  0
  140.6170   75.7130  221.5110 C   0  0  0  0  0  0  0  0  0  0  0  0
  140.2960   76.1590  222.6450 O   0  0  0  0  0  0  0  0  0  0  0  0
  141.4070   76.5560  220.6790 N   0  0  0  0  0  0  0  0  0  0  0  0
  141.4740   77.9810  221.0030 C   0  0  0  0  0  0  0  0  0  0  0  0
  141.1630   78.8240  219.7860 C   0  0  0  0  0  0  0  0  0  0  0  0
  141.8850   78.3280  218.5590 C   0  0  0  0  0  0  0  0  0  0  0  0
  141.7810   76.8540  218.3450 C   0  0  0  0  0  0  0  0  0  0  0  0
  142.1270   76.0200  219.5410 C   0  0  1  0  0  0  0  0  0  0  0  0
  143.6220   76.0290  219.8360 C   0  0  0  0  0  0  0  0  0  0  0  0
  144.0810   74.6210  219.9350 C   0  0  0  0  0  0  0  0  0  0  0  0
  143.3040   73.6220  219.3900 C   0  0  0  0  0  0  0  0  0  0  0  0
  143.6660   72.2930  219.4450 C   0  0  0  0  0  0  0  0  0  0  0  0
  144.8560   71.9330  220.0730 C   0  0  0  0  0  0  0  0  0  0  0  0
  145.6550   72.9060  220.6290 C   0  0  0  0  0  0  0  0  0  0  0  0
  145.2510   74.2390  220.5500 C   0  0  0  0  0  0  0  0  0  0  0  0
  140.3150   71.5390  223.5810 C   0  0  0  0  0  0  0  0  0  0  0  0
  139.5640   70.3700  223.4510 C   0  0  0  0  0  0  0  0  0  0  0  0
  139.2970   69.6100  224.5410 N   0  0  0  0  0  0  0  0  0  0  0  0
  139.7460   69.9620  225.7590 C   0  0  0  0  0  0  0  0  0  0  0  0
  139.4830   69.1980  226.8800 C   0  0  0  0  0  0  0  0  0  0  0  0
  139.9450   69.5560  228.1430 C   0  0  0  0  0  0  0  0  0  0  0  0
  140.6950   70.7270  228.2610 C   0  0  0  0  0  0  0  0  0  0  0  0
  140.9580   71.4910  227.1400 C   0  0  0  0  0  0  0  0  0  0  0  0
  140.4980   71.1320  225.8860 C   0  0  0  0  0  0  0  0  0  0  0  0
  140.7650   71.8920  224.8030 N   0  0  0  0  0  0  0  0  0  0  0  0
  139.2380   73.8610  222.9470 H   0  0  0  0  0  0  0  0  0  0  0  0
  141.0195   73.9052  220.4503 H   0  0  0  0  0  0  0  0  0  0  0  0
  139.3295   74.4330  220.3631 H   0  0  0  0  0  0  0  0  0  0  0  0
  140.7431   78.2058  221.7937 H   0  0  0  0  0  0  0  0  0  0  0  0
  142.4926   78.2173  221.3446 H   0  0  0  0  0  0  0  0  0  0  0  0
  140.0796   78.7917  219.5985 H   0  0  0  0  0  0  0  0  0  0  0  0
  141.5001   79.8514  219.9878 H   0  0  0  0  0  0  0  0  0  0  0  0
  141.4611   78.8355  217.6799 H   0  0  0  0  0  0  0  0  0  0  0  0
  142.9517   78.5529  218.7059 H   0  0  0  0  0  0  0  0  0  0  0  0
  140.7457   76.6225  218.0542 H   0  0  0  0  0  0  0  0  0  0  0  0
  142.5168   76.6010  217.5674 H   0  0  0  0  0  0  0  0  0  0  0  0
  141.8434   74.9766  219.3388 H   0  0  0  0  0  0  0  0  0  0  0  0
  144.1593   76.5400  219.0235 H   0  0  0  0  0  0  0  0  0  0  0  0
  143.8214   76.5619  220.7774 H   0  0  0  0  0  0  0  0  0  0  0  0
  142.3612   73.8947  218.8933 H   0  0  0  0  0  0  0  0  0  0  0  0
  143.0205   71.5233  218.9967 H   0  0  0  0  0  0  0  0  0  0  0  0
  145.1558   70.8759  220.1243 H   0  0  0  0  0  0  0  0  0  0  0  0
  146.5976   72.6368  221.1280 H   0  0  0  0  0  0  0  0  0  0  0  0
  145.8919   75.0137  220.9962 H   0  0  0  0  0  0  0  0  0  0  0  0
  139.1884   70.0651  222.4631 H   0  0  0  0  0  0  0  0  0  0  0  0
  138.8899   68.2781  226.7707 H   0  0  0  0  0  0  0  0  0  0  0  0
  139.7253   68.9338  229.0231 H   0  0  0  0  0  0  0  0  0  0  0  0
  141.0759   71.0411  229.2440 H   0  0  0  0  0  0  0  0  0  0  0  0
  141.5504   72.4115  227.2481 H   0  0  0  0  0  0  0  0  0  0  0  0
  1  2  2  0
  2  3  1  0
  3  4  1  0
  4  5  1  0
  5  6  2  0
  5  7  1  0
  7  8  1  0
  8  9  1  0
  9 10  1  0
 10 11  1  0
 11 12  1  0
 12 13  1  0
 13 14  1  0
 14 15  2  0
 15 16  1  0
 16 17  2  0
 17 18  1  0
 18 19  2  0
  2 20  1  0
 20 21  2  0
 21 22  1  0
 22 23  2  0
 23 24  1  0
 24 25  2  0
 25 26  1  0
 26 27  2  0
 27 28  1  0
 28 29  2  0
 12  7  1  0
 19 14  1  0
 29 20  1  0
 28 23  1  0
  3 30  1  0
  4 31  1  0
  4 32  1  0
  8 33  1  0
  8 34  1  0
  9 35  1  0
  9 36  1  0
 10 37  1  0
 10 38  1  0
 11 39  1  0
 11 40  1  0
 12 41  1  6
 13 42  1  0
 13 43  1  0
 15 44  1  0
 16 45  1  0
 17 46  1  0
 18 47  1  0
 19 48  1  0
 21 49  1  0
 24 50  1  0
 25 51  1  0
 26 52  1  0
 27 53  1  0
M  END
>  <smiles>  (97) 
O=C(NCC(=O)N1CCCCC1Cc1ccccc1)c1cnc2ccccc2n1

>  <score_type>  (97) 
oracle

>  <origin>  (97) 
autodockgpu

>  <m_score__min__energy>  (97) 
-9.3399999999999999

>  <m_primary>  (97) 
energy

>  <rmsd>  (97) 
2.5965682678609743

>  <m_score__min__rmsd>  (97) 
2.5965682678609743

>  <meeko>  (97) 
{"free_energy": -8.42, "intermolecular_energy": -10.21, "internal_energy": -1.91, "cluster_size": 8, "cluster_id": 4, "rank_in_cluster": 1}

>  <energy>  (97) 
-8.27

>  <cluster_rmsd>  (97) 
0.41

>  <cluster>  (97) 
4

$$$$

     RDKit          3D

 53 56  0  0  0  0  0  0  0  0999 V2000
  137.5160   75.9670  222.4400 O   0  0  0  0  0  0  0  0  0  0  0  0
  138.7510   76.1920  222.3280 C   0  0  0  0  0  0  0  0  0  0  0  0
  139.6030   75.1750  221.8340 N   0  0  0  0  0  0  0  0  0  0  0  0
  139.0130   73.8890  221.4700 C   0  0  0  0  0  0  0  0  0  0  0  0
  139.8540   72.8470  222.1180 C   0  0  0  0  0  0  0  0  0  0  0  0
  141.0750   73.0180  222.3760 O   0  0  0  0  0  0  0  0  0  0  0  0
  139.2820   71.5930  222.4720 N   0  0  0  0  0  0  0  0  0  0  0  0
  139.0390   70.6190  221.4080 C   0  0  0  0  0  0  0  0  0  0  0  0
  137.6160   70.1050  221.4640 C   0  0  0  0  0  0  0  0  0  0  0  0
  137.2000   69.7560  222.8710 C   0  0  0  0  0  0  0  0  0  0  0  0
  137.5300   70.8050  223.8810 C   0  0  0  0  0  0  0  0  0  0  0  0
  138.9490   71.2840  223.8490 C   0  0  1  0  0  0  0  0  0  0  0  0
  139.9220   70.2400  224.3840 C   0  0  0  0  0  0  0  0  0  0  0  0
  140.2980   70.6270  225.7670 C   0  0  0  0  0  0  0  0  0  0  0  0
  141.0220   71.7820  225.9670 C   0  0  0  0  0  0  0  0  0  0  0  0
  141.4080   72.2020  227.2220 C   0  0  0  0  0  0  0  0  0  0  0  0
  141.0610   71.4400  228.3360 C   0  0  0  0  0  0  0  0  0  0  0  0
  140.3390   70.2810  228.1710 C   0  0  0  0  0  0  0  0  0  0  0  0
  139.9690   69.8930  226.8830 C   0  0  0  0  0  0  0  0  0  0  0  0
  139.3210   77.4860  222.6990 C   0  0  0  0  0  0  0  0  0  0  0  0
  138.4670   78.5340  223.0450 C   0  0  0  0  0  0  0  0  0  0  0  0
  138.9780   79.7400  223.3910 N   0  0  0  0  0  0  0  0  0  0  0  0
  140.3070   79.9520  223.4090 C   0  0  0  0  0  0  0  0  0  0  0  0
  140.8440   81.1750  223.7590 C   0  0  0  0  0  0  0  0  0  0  0  0
  142.2170   81.4010  223.7790 C   0  0  0  0  0  0  0  0  0  0  0  0
  143.0620   80.3450  223.4320 C   0  0  0  0  0  0  0  0  0  0  0  0
  142.5240   79.1210  223.0820 C   0  0  0  0  0  0  0  0  0  0  0  0
  141.1580   78.9010  223.0620 C   0  0  0  0  0  0  0  0  0  0  0  0
  140.6530   77.6980  222.7170 N   0  0  0  0  0  0  0  0  0  0  0  0
  140.6100   75.3890  221.7540 H   0  0  0  0  0  0  0  0  0  0  0  0
  137.9782   73.8267  221.8378 H   0  0  0  0  0  0  0  0  0  0  0  0
  138.9825   73.7571  220.3784 H   0  0  0  0  0  0  0  0  0  0  0  0
  139.2108   71.0992  220.4334 H   0  0  0  0  0  0  0  0  0  0  0  0
  139.7258   69.7705  221.5433 H   0  0  0  0  0  0  0  0  0  0  0  0
  136.9414   70.8824  221.0760 H   0  0  0  0  0  0  0  0  0  0  0  0
  137.5591   69.1910  220.8546 H   0  0  0  0  0  0  0  0  0  0  0  0
  136.1115   69.5974  222.8804 H   0  0  0  0  0  0  0  0  0  0  0  0
  137.7626   68.8541  223.1542 H   0  0  0  0  0  0  0  0  0  0  0  0
  136.8731   71.6693  223.7037 H   0  0  0  0  0  0  0  0  0  0  0  0
  137.3818   70.3421  224.8678 H   0  0  0  0  0  0  0  0  0  0  0  0
  139.0376   72.1699  224.4950 H   0  0  0  0  0  0  0  0  0  0  0  0
  139.4409   69.2508  224.3912 H   0  0  0  0  0  0  0  0  0  0  0  0
  140.8163   70.1895  223.7456 H   0  0  0  0  0  0  0  0  0  0  0  0
  141.3019   72.3905  225.0944 H   0  0  0  0  0  0  0  0  0  0  0  0
  141.9850   73.1307  227.3431 H   0  0  0  0  0  0  0  0  0  0  0  0
  141.3632   71.7640  229.3428 H   0  0  0  0  0  0  0  0  0  0  0  0
  140.0577   69.6695  229.0410 H   0  0  0  0  0  0  0  0  0  0  0  0
  139.3924   68.9650  226.7550 H   0  0  0  0  0  0  0  0  0  0  0  0
  137.3778   78.3807  223.0368 H   0  0  0  0  0  0  0  0  0  0  0  0
  140.1650   81.9967  224.0306 H   0  0  0  0  0  0  0  0  0  0  0  0
  142.6248   82.3832  224.0601 H   0  0  0  0  0  0  0  0  0  0  0  0
  144.1528   80.4869  223.4372 H   0  0  0  0  0  0  0  0  0  0  0  0
  143.2015   78.2977  222.8114 H   0  0  0  0  0  0  0  0  0  0  0  0
  1  2  2  0
  2  3  1  0
  3  4  1  0
  4  5  1  0
  5  6  2  0
  5  7  1  0
  7  8  1  0
  8  9  1  0
  9 10  1  0
 10 11  1  0
 11 12  1  0
 12 13  1  0
 13 14  1  0
 14 15  2  0
 15 16  1  0
 16 17  2  0
 17 18  1  0
 18 19  2  0
  2 20  1  0
 20 21  2  0
 21 22  1  0
 22 23  2  0
 23 24  1  0
 24 25  2  0
 25 26  1  0
 26 27  2  0
 27 28  1  0
 28 29  2  0
 12  7  1  0
 19 14  1  0
 29 20  1  0
 28 23  1  0
  3 30  1  0
  4 31  1  0
  4 32  1  0
  8 33  1  0
  8 34  1  0
  9 35  1  0
  9 36  1  0
 10 37  1  0
 10 38  1  0
 11 39  1  0
 11 40  1  0
 12 41  1  1
 13 42  1  0
 13 43  1  0
 15 44  1  0
 16 45  1  0
 17 46  1  0
 18 47  1  0
 19 48  1  0
 21 49  1  0
 24 50  1  0
 25 51  1  0
 26 52  1  0
 27 53  1  0
M  END
>  <smiles>  (98) 
O=C(NCC(=O)N1CCCCC1Cc1ccccc1)c1cnc2ccccc2n1

>  <score_type>  (98) 
oracle

>  <origin>  (98) 
autodockgpu

>  <m_score__min__energy>  (98) 
-9.3399999999999999

>  <m_primary>  (98) 
energy

>  <rmsd>  (98) 
7.961669985009546

>  <m_score__min__rmsd>  (98) 
7.961669985009546

>  <meeko>  (98) 
{"free_energy": -8.76, "intermolecular_energy": -10.55, "internal_energy": -1.86, "cluster_size": 21, "cluster_id": 1, "rank_in_cluster": 5}

>  <energy>  (98) 
-8.15

>  <cluster_rmsd>  (98) 
0.47

>  <cluster>  (98) 
4

$$$$

     RDKit          3D

 53 56  0  0  0  0  0  0  0  0999 V2000
  141.1090   71.9010  221.2640 O   0  0  0  0  0  0  0  0  0  0  0  0
  140.5120   72.3670  222.2710 C   0  0  0  0  0  0  0  0  0  0  0  0
  140.0570   73.7080  222.2530 N   0  0  0  0  0  0  0  0  0  0  0  0
  140.3000   74.5090  221.0560 C   0  0  0  0  0  0  0  0  0  0  0  0
  140.7500   75.8440  221.5330 C   0  0  0  0  0  0  0  0  0  0  0  0
  140.4800   76.2850  222.6820 O   0  0  0  0  0  0  0  0  0  0  0  0
  141.5200   76.6810  220.6780 N   0  0  0  0  0  0  0  0  0  0  0  0
  141.6530   78.0940  221.0300 C   0  0  0  0  0  0  0  0  0  0  0  0
  141.3020   78.9770  219.8520 C   0  0  0  0  0  0  0  0  0  0  0  0
  141.9380   78.4890  218.5750 C   0  0  0  0  0  0  0  0  0  0  0  0
  141.7720   77.0250  218.3330 C   0  0  0  0  0  0  0  0  0  0  0  0
  142.1570   76.1500  219.4880 C   0  0  1  0  0  0  0  0  0  0  0  0
  143.6660   76.1040  219.6980 C   0  0  0  0  0  0  0  0  0  0  0  0
  144.0700   74.6820  219.8270 C   0  0  0  0  0  0  0  0  0  0  0  0
  145.0110   74.3360  220.7720 C   0  0  0  0  0  0  0  0  0  0  0  0
  145.4370   73.0360  220.9470 C   0  0  0  0  0  0  0  0  0  0  0  0
  144.9060   72.0280  220.1450 C   0  0  0  0  0  0  0  0  0  0  0  0
  143.9650   72.3400  219.1920 C   0  0  0  0  0  0  0  0  0  0  0  0
  143.5620   73.6690  219.0490 C   0  0  0  0  0  0  0  0  0  0  0  0
  140.2800   71.5480  223.4590 C   0  0  0  0  0  0  0  0  0  0  0  0
  139.6030   70.3350  223.3300 C   0  0  0  0  0  0  0  0  0  0  0  0
  139.3780   69.5630  224.4210 N   0  0  0  0  0  0  0  0  0  0  0  0
  139.7990   69.9460  225.6400 C   0  0  0  0  0  0  0  0  0  0  0  0
  139.5780   69.1710  226.7620 C   0  0  0  0  0  0  0  0  0  0  0  0
  140.0100   69.5610  228.0270 C   0  0  0  0  0  0  0  0  0  0  0  0
  140.6860   70.7770  228.1440 C   0  0  0  0  0  0  0  0  0  0  0  0
  140.9060   71.5520  227.0210 C   0  0  0  0  0  0  0  0  0  0  0  0
  140.4760   71.1610  225.7660 C   0  0  0  0  0  0  0  0  0  0  0  0
  140.7010   71.9320  224.6820 N   0  0  0  0  0  0  0  0  0  0  0  0
  139.5710   74.0610  223.0930 H   0  0  0  0  0  0  0  0  0  0  0  0
  141.0806   74.0424  220.4371 H   0  0  0  0  0  0  0  0  0  0  0  0
  139.3941   74.5894  220.4373 H   0  0  0  0  0  0  0  0  0  0  0  0
  140.9760   78.3225  221.8663 H   0  0  0  0  0  0  0  0  0  0  0  0
  142.6966   78.2888  221.3178 H   0  0  0  0  0  0  0  0  0  0  0  0
  140.2093   78.9834  219.7254 H   0  0  0  0  0  0  0  0  0  0  0  0
  141.6830   79.9881  220.0581 H   0  0  0  0  0  0  0  0  0  0  0  0
  141.4838   79.0321  217.7332 H   0  0  0  0  0  0  0  0  0  0  0  0
  143.0182   78.6752  218.6669 H   0  0  0  0  0  0  0  0  0  0  0  0
  140.7146   76.8348  218.0969 H   0  0  0  0  0  0  0  0  0  0  0  0
  142.4534   76.7678  217.5086 H   0  0  0  0  0  0  0  0  0  0  0  0
  141.8281   75.1216  219.2779 H   0  0  0  0  0  0  0  0  0  0  0  0
  144.1764   76.5600  218.8369 H   0  0  0  0  0  0  0  0  0  0  0  0
  143.9419   76.6625  220.6046 H   0  0  0  0  0  0  0  0  0  0  0  0
  145.4376   75.1245  221.4094 H   0  0  0  0  0  0  0  0  0  0  0  0
  146.1894   72.7971  221.7130 H   0  0  0  0  0  0  0  0  0  0  0  0
  145.2380   70.9872  220.2736 H   0  0  0  0  0  0  0  0  0  0  0  0
  143.5364   71.5545  218.5522 H   0  0  0  0  0  0  0  0  0  0  0  0
  142.8097   73.9147  218.2850 H   0  0  0  0  0  0  0  0  0  0  0  0
  139.2513   70.0047  222.3415 H   0  0  0  0  0  0  0  0  0  0  0  0
  139.0439   68.2156  226.6526 H   0  0  0  0  0  0  0  0  0  0  0  0
  139.8241   68.9295  228.9083 H   0  0  0  0  0  0  0  0  0  0  0  0
  141.0426   71.1173  229.1274 H   0  0  0  0  0  0  0  0  0  0  0  0
  141.4390   72.5082  227.1286 H   0  0  0  0  0  0  0  0  0  0  0  0
  1  2  2  0
  2  3  1  0
  3  4  1  0
  4  5  1  0
  5  6  2  0
  5  7  1  0
  7  8  1  0
  8  9  1  0
  9 10  1  0
 10 11  1  0
 11 12  1  0
 12 13  1  0
 13 14  1  0
 14 15  2  0
 15 16  1  0
 16 17  2  0
 17 18  1  0
 18 19  2  0
  2 20  1  0
 20 21  2  0
 21 22  1  0
 22 23  2  0
 23 24  1  0
 24 25  2  0
 25 26  1  0
 26 27  2  0
 27 28  1  0
 28 29  2  0
 12  7  1  0
 19 14  1  0
 29 20  1  0
 28 23  1  0
  3 30  1  0
  4 31  1  0
  4 32  1  0
  8 33  1  0
  8 34  1  0
  9 35  1  0
  9 36  1  0
 10 37  1  0
 10 38  1  0
 11 39  1  0
 11 40  1  0
 12 41  1  6
 13 42  1  0
 13 43  1  0
 15 44  1  0
 16 45  1  0
 17 46  1  0
 18 47  1  0
 19 48  1  0
 21 49  1  0
 24 50  1  0
 25 51  1  0
 26 52  1  0
 27 53  1  0
M  END
>  <smiles>  (99) 
O=C(NCC(=O)N1CCCCC1Cc1ccccc1)c1cnc2ccccc2n1

>  <score_type>  (99) 
oracle

>  <origin>  (99) 
autodockgpu

>  <m_score__min__energy>  (99) 
-9.3399999999999999

>  <m_primary>  (99) 
energy

>  <rmsd>  (99) 
2.648753700847651

>  <m_score__min__rmsd>  (99) 
2.648753700847651

>  <meeko>  (99) 
{"free_energy": -8.31, "intermolecular_energy": -10.1, "internal_energy": -2.04, "cluster_size": 8, "cluster_id": 4, "rank_in_cluster": 6}

>  <energy>  (99) 
-8.21

>  <cluster_rmsd>  (99) 
0.0

>  <cluster>  (99) 
5

$$$$

     RDKit          3D

 53 56  0  0  0  0  0  0  0  0999 V2000
  140.1190   70.8900  221.2510 O   0  0  0  0  0  0  0  0  0  0  0  0
  140.0040   71.5400  222.3240 C   0  0  0  0  0  0  0  0  0  0  0  0
  139.9480   72.9550  222.2800 N   0  0  0  0  0  0  0  0  0  0  0  0
  140.0270   73.6130  220.9780 C   0  0  0  0  0  0  0  0  0  0  0  0
  140.1470   75.0700  221.2560 C   0  0  0  0  0  0  0  0  0  0  0  0
  139.7980   75.5870  222.3510 O   0  0  0  0  0  0  0  0  0  0  0  0
  140.6730   75.9410  220.2620 N   0  0  0  0  0  0  0  0  0  0  0  0
  140.1350   75.8460  218.9050 C   0  0  0  0  0  0  0  0  0  0  0  0
  141.2510   75.7110  217.8920 C   0  0  0  0  0  0  0  0  0  0  0  0
  142.3710   76.6840  218.1570 C   0  0  0  0  0  0  0  0  0  0  0  0
  142.8180   76.7260  219.5820 C   0  0  0  0  0  0  0  0  0  0  0  0
  141.7140   76.8980  220.5810 C   0  0  1  0  0  0  0  0  0  0  0  0
  141.1320   78.3060  220.5590 C   0  0  0  0  0  0  0  0  0  0  0  0
  141.6010   79.0190  221.7730 C   0  0  0  0  0  0  0  0  0  0  0  0
  141.4240   78.4290  223.0060 C   0  0  0  0  0  0  0  0  0  0  0  0
  141.8330   79.0320  224.1770 C   0  0  0  0  0  0  0  0  0  0  0  0
  142.4470   80.2820  224.1260 C   0  0  0  0  0  0  0  0  0  0  0  0
  142.6370   80.8980  222.9100 C   0  0  0  0  0  0  0  0  0  0  0  0
  142.2090   80.2520  221.7500 C   0  0  0  0  0  0  0  0  0  0  0  0
  139.9280   70.8610  223.6160 C   0  0  0  0  0  0  0  0  0  0  0  0
  139.3960   69.5720  223.6790 C   0  0  0  0  0  0  0  0  0  0  0  0
  139.3170   68.9280  224.8690 N   0  0  0  0  0  0  0  0  0  0  0  0
  139.7460   69.5100  226.0040 C   0  0  0  0  0  0  0  0  0  0  0  0
  139.6720   68.8670  227.2240 C   0  0  0  0  0  0  0  0  0  0  0  0
  140.1130   69.4640  228.4010 C   0  0  0  0  0  0  0  0  0  0  0  0
  140.6430   70.7530  228.3260 C   0  0  0  0  0  0  0  0  0  0  0  0
  140.7160   71.3960  227.1050 C   0  0  0  0  0  0  0  0  0  0  0  0
  140.2770   70.8000  225.9370 C   0  0  0  0  0  0  0  0  0  0  0  0
  140.3570   71.4450  224.7540 N   0  0  0  0  0  0  0  0  0  0  0  0
  139.8540   73.4600  223.1750 H   0  0  0  0  0  0  0  0  0  0  0  0
  140.9077   73.2568  220.4235 H   0  0  0  0  0  0  0  0  0  0  0  0
  139.1414   73.3937  220.3636 H   0  0  0  0  0  0  0  0  0  0  0  0
  139.4790   74.9656  218.8381 H   0  0  0  0  0  0  0  0  0  0  0  0
  139.5690   76.7633  218.6854 H   0  0  0  0  0  0  0  0  0  0  0  0
  141.6509   74.6873  217.9377 H   0  0  0  0  0  0  0  0  0  0  0  0
  140.8367   75.9307  216.8970 H   0  0  0  0  0  0  0  0  0  0  0  0
  143.2311   76.3989  217.5334 H   0  0  0  0  0  0  0  0  0  0  0  0
  141.9850   77.6854  217.9159 H   0  0  0  0  0  0  0  0  0  0  0  0
  143.3383   75.7830  219.8056 H   0  0  0  0  0  0  0  0  0  0  0  0
  143.4642   77.6109  219.6784 H   0  0  0  0  0  0  0  0  0  0  0  0
  142.1208   76.7311  221.5893 H   0  0  0  0  0  0  0  0  0  0  0  0
  141.4753   78.8371  219.6590 H   0  0  0  0  0  0  0  0  0  0  0  0
  140.0329   78.2633  220.5435 H   0  0  0  0  0  0  0  0  0  0  0  0
  140.9396   77.4428  223.0579 H   0  0  0  0  0  0  0  0  0  0  0  0
  141.6758   78.5304  225.1433 H   0  0  0  0  0  0  0  0  0  0  0  0
  142.7780   80.7737  225.0527 H   0  0  0  0  0  0  0  0  0  0  0  0
  143.1192   81.8851  222.8536 H   0  0  0  0  0  0  0  0  0  0  0  0
  142.3638   80.7478  220.7803 H   0  0  0  0  0  0  0  0  0  0  0  0
  139.0407   69.0786  222.7623 H   0  0  0  0  0  0  0  0  0  0  0  0
  139.2514   67.8515  227.2666 H   0  0  0  0  0  0  0  0  0  0  0  0
  140.0458   68.9351  229.3632 H   0  0  0  0  0  0  0  0  0  0  0  0
  141.0016   71.2557  229.2363 H   0  0  0  0  0  0  0  0  0  0  0  0
  141.1357   72.4118  227.0609 H   0  0  0  0  0  0  0  0  0  0  0  0
  1  2  2  0
  2  3  1  0
  3  4  1  0
  4  5  1  0
  5  6  2  0
  5  7  1  0
  7  8  1  0
  8  9  1  0
  9 10  1  0
 10 11  1  0
 11 12  1  0
 12 13  1  0
 13 14  1  0
 14 15  2  0
 15 16  1  0
 16 17  2  0
 17 18  1  0
 18 19  2  0
  2 20  1  0
 20 21  2  0
 21 22  1  0
 22 23  2  0
 23 24  1  0
 24 25  2  0
 25 26  1  0
 26 27  2  0
 27 28  1  0
 28 29  2  0
 12  7  1  0
 19 14  1  0
 29 20  1  0
 28 23  1  0
  3 30  1  0
  4 31  1  0
  4 32  1  0
  8 33  1  0
  8 34  1  0
  9 35  1  0
  9 36  1  0
 10 37  1  0
 10 38  1  0
 11 39  1  0
 11 40  1  0
 12 41  1  1
 13 42  1  0
 13 43  1  0
 15 44  1  0
 16 45  1  0
 17 46  1  0
 18 47  1  0
 19 48  1  0
 21 49  1  0
 24 50  1  0
 25 51  1  0
 26 52  1  0
 27 53  1  0
M  END
>  <smiles>  (100) 
O=C(NCC(=O)N1CCCCC1Cc1ccccc1)c1cnc2ccccc2n1

>  <score_type>  (100) 
oracle

>  <origin>  (100) 
autodockgpu

>  <m_score__min__energy>  (100) 
-9.3399999999999999

>  <m_primary>  (100) 
energy

>  <rmsd>  (100) 
1.5285997174606596

>  <m_score__min__rmsd>  (100) 
1.5285997174606596

>  <meeko>  (100) 
{"free_energy": -8.71, "intermolecular_energy": -10.5, "internal_energy": -1.95, "cluster_size": 18, "cluster_id": 2, "rank_in_cluster": 12}

>  <energy>  (100) 
-6.73

>  <cluster_rmsd>  (100) 
0.0

>  <cluster>  (100) 
6

$$$$
