
     RDKit          3D

 49 52  0  0  0  0  0  0  0  0999 V2000
  136.6170   79.7360  221.5280 O   0  0  0  0  0  0  0  0  0  0  0  0
  137.4190   79.9240  222.5000 C   0  0  0  0  0  0  0  0  0  0  0  0
  136.9220   80.5450  223.6250 C   0  0  0  0  0  0  0  0  0  0  0  0
  135.5970   80.9410  223.6710 C   0  0  0  0  0  0  0  0  0  0  0  0
  135.1270   81.5660  224.8220 C   0  0  0  0  0  0  0  0  0  0  0  0
  135.9750   81.7820  225.8930 C   0  0  0  0  0  0  0  0  0  0  0  0
  135.3570   82.5730  227.3330 Cl  0  0  0  0  0  0  0  0  0  0  0  0
  137.3150   81.3860  225.8570 C   0  0  0  0  0  0  0  0  0  0  0  0
  137.7530   80.7690  224.7040 C   0  0  0  0  0  0  0  0  0  0  0  0
  139.0270   80.3560  224.5810 N   0  0  0  0  0  0  0  0  0  0  0  0
  139.5050   79.7500  223.4810 C   0  0  0  0  0  0  0  0  0  0  0  0
  140.9120   79.3310  223.4680 C   0  0  0  0  0  0  0  0  0  0  0  0
  141.8230   80.1220  222.9540 C   0  0  0  0  0  0  0  0  0  0  0  0
  141.6580   80.8910  221.7310 C   0  0  0  0  0  0  0  0  0  0  0  0
  141.9870   80.4260  220.4830 C   0  0  0  0  0  0  0  0  0  0  0  0
  141.8070   81.2090  219.3470 C   0  0  0  0  0  0  0  0  0  0  0  0
  141.2900   82.4780  219.4500 C   0  0  0  0  0  0  0  0  0  0  0  0
  140.9520   82.9680  220.6870 C   0  0  0  0  0  0  0  0  0  0  0  0
  140.2960   84.5650  220.8670 Cl  0  0  0  0  0  0  0  0  0  0  0  0
  141.1380   82.1780  221.7930 C   0  0  0  0  0  0  0  0  0  0  0  0
  138.7200   79.5170  222.4110 N   0  0  0  0  0  0  0  0  0  0  0  0
  139.1630   78.8940  221.1980 C   0  0  0  0  0  0  0  0  0  0  0  0
  139.2000   77.4050  221.2040 C   0  0  0  0  0  0  0  0  0  0  0  0
  138.0950   76.9460  222.1450 C   0  0  0  0  0  0  0  0  0  0  0  0
  138.0250   75.4680  222.2940 C   0  0  0  0  0  0  0  0  0  0  0  0
  139.3190   74.8510  222.4970 N   0  0  0  0  0  0  0  0  0  0  0  0
  140.2980   75.2740  221.5450 C   0  0  0  0  0  0  0  0  0  0  0  0
  140.4850   76.7910  221.6860 C   0  0  0  0  0  0  0  0  0  0  0  0
  134.9288   80.7653  222.8151 H   0  0  0  0  0  0  0  0  0  0  0  0
  134.0772   81.8894  224.8803 H   0  0  0  0  0  0  0  0  0  0  0  0
  137.9891   81.5585  226.7090 H   0  0  0  0  0  0  0  0  0  0  0  0
  141.2012   78.3564  223.8882 H   0  0  0  0  0  0  0  0  0  0  0  0
  142.7814   80.2101  223.4866 H   0  0  0  0  0  0  0  0  0  0  0  0
  142.4019   79.4127  220.3782 H   0  0  0  0  0  0  0  0  0  0  0  0
  142.0805   80.8093  218.3594 H   0  0  0  0  0  0  0  0  0  0  0  0
  141.1484   83.0949  218.5504 H   0  0  0  0  0  0  0  0  0  0  0  0
  140.8618   82.5835  222.7776 H   0  0  0  0  0  0  0  0  0  0  0  0
  138.4863   79.2105  220.3906 H   0  0  0  0  0  0  0  0  0  0  0  0
  140.2062   79.2158  221.0634 H   0  0  0  0  0  0  0  0  0  0  0  0
  139.0838   77.0811  220.1592 H   0  0  0  0  0  0  0  0  0  0  0  0
  138.2741   77.3886  223.1360 H   0  0  0  0  0  0  0  0  0  0  0  0
  137.1396   77.2751  221.7104 H   0  0  0  0  0  0  0  0  0  0  0  0
  137.3871   75.2341  223.1591 H   0  0  0  0  0  0  0  0  0  0  0  0
  137.6154   75.0650  221.3560 H   0  0  0  0  0  0  0  0  0  0  0  0
  139.2700   73.8510  222.6990 H   0  0  0  0  0  0  0  0  0  0  0  0
  141.2519   74.7621  221.7402 H   0  0  0  0  0  0  0  0  0  0  0  0
  139.9665   75.0266  220.5257 H   0  0  0  0  0  0  0  0  0  0  0  0
  140.6677   77.0590  222.7371 H   0  0  0  0  0  0  0  0  0  0  0  0
  141.3489   77.1495  221.1071 H   0  0  0  0  0  0  0  0  0  0  0  0
  1  2  2  0
  2  3  1  0
  3  4  2  0
  4  5  1  0
  5  6  2  0
  6  7  1  0
  6  8  1  0
  8  9  2  0
  9 10  1  0
 10 11  2  0
 11 12  1  0
 12 13  2  0
 13 14  1  0
 14 15  2  0
 15 16  1  0
 16 17  2  0
 17 18  1  0
 18 19  1  0
 18 20  2  0
 11 21  1  0
 21 22  1  0
 22 23  1  0
 23 24  1  0
 24 25  1  0
 25 26  1  0
 26 27  1  0
 27 28  1  0
 21  2  1  0
 28 23  1  0
  9  3  1  0
 20 14  1  0
  4 29  1  0
  5 30  1  0
  8 31  1  0
 12 32  1  0
 13 33  1  0
 15 34  1  0
 16 35  1  0
 17 36  1  0
 20 37  1  0
 22 38  1  0
 22 39  1  0
 23 40  1  0
 24 41  1  0
 24 42  1  0
 25 43  1  0
 25 44  1  0
 26 45  1  0
 27 46  1  0
 27 47  1  0
 28 48  1  0
 28 49  1  0
M  END
>  <smiles>  (1) 
O=c1c2ccc(Cl)cc2nc(/C=C/c2cccc(Cl)c2)n1CC1CCNCC1

>  <score_type>  (1) 
oracle

>  <origin>  (1) 
autodockgpu

>  <m_score__min__energy>  (1) 
-8.5299999999999994

>  <m_primary>  (1) 
energy

>  <rmsd>  (1) 
5.223202023882421

>  <m_score__min__rmsd>  (1) 
5.223202023882421

>  <meeko>  (1) 
{"free_energy": -6.73, "intermolecular_energy": -8.23, "internal_energy": -1.74, "cluster_size": 2, "cluster_id": 9, "rank_in_cluster": 2}

>  <energy>  (1) 
-8.53

>  <cluster_rmsd>  (1) 
0.0

>  <cluster>  (1) 
1

$$$$

     RDKit          3D

 49 52  0  0  0  0  0  0  0  0999 V2000
  136.1470   74.9050  222.3320 O   0  0  0  0  0  0  0  0  0  0  0  0
  137.3770   74.5830  222.2440 C   0  0  0  0  0  0  0  0  0  0  0  0
  138.3090   75.5910  222.3640 C   0  0  0  0  0  0  0  0  0  0  0  0
  137.8980   76.8950  222.5710 C   0  0  0  0  0  0  0  0  0  0  0  0
  138.8640   77.8890  222.6870 C   0  0  0  0  0  0  0  0  0  0  0  0
  140.2070   77.5690  222.5960 C   0  0  0  0  0  0  0  0  0  0  0  0
  141.4070   78.8410  222.7450 Cl  0  0  0  0  0  0  0  0  0  0  0  0
  140.6330   76.2540  222.3870 C   0  0  0  0  0  0  0  0  0  0  0  0
  139.6530   75.2910  222.2760 C   0  0  0  0  0  0  0  0  0  0  0  0
  139.9710   73.9990  222.0740 N   0  0  0  0  0  0  0  0  0  0  0  0
  139.0560   73.0210  221.9590 C   0  0  0  0  0  0  0  0  0  0  0  0
  139.5260   71.6460  221.7510 C   0  0  0  0  0  0  0  0  0  0  0  0
  140.4940   71.1680  222.4950 C   0  0  0  0  0  0  0  0  0  0  0  0
  140.3830   70.8880  223.9180 C   0  0  0  0  0  0  0  0  0  0  0  0
  140.6860   71.7930  224.9030 C   0  0  0  0  0  0  0  0  0  0  0  0
  140.5610   71.4680  226.2500 C   0  0  0  0  0  0  0  0  0  0  0  0
  140.1290   70.2200  226.6290 C   0  0  0  0  0  0  0  0  0  0  0  0
  139.8190   69.2950  225.6630 C   0  0  0  0  0  0  0  0  0  0  0  0
  139.2680   67.7050  226.0930 Cl  0  0  0  0  0  0  0  0  0  0  0  0
  139.9490   69.6370  224.3410 C   0  0  0  0  0  0  0  0  0  0  0  0
  137.7370   73.2820  222.0400 N   0  0  0  0  0  0  0  0  0  0  0  0
  136.7050   72.2960  221.9080 C   0  0  0  0  0  0  0  0  0  0  0  0
  136.7360   71.1810  222.8960 C   0  0  0  0  0  0  0  0  0  0  0  0
  136.3290   69.9220  222.1440 C   0  0  0  0  0  0  0  0  0  0  0  0
  136.2700   68.7130  223.0080 C   0  0  0  0  0  0  0  0  0  0  0  0
  135.5880   68.9410  224.2650 N   0  0  0  0  0  0  0  0  0  0  0  0
  136.0560   70.1030  224.9550 C   0  0  0  0  0  0  0  0  0  0  0  0
  135.8020   71.3280  224.0650 C   0  0  0  0  0  0  0  0  0  0  0  0
  136.8283   77.1413  222.6425 H   0  0  0  0  0  0  0  0  0  0  0  0
  138.5592   78.9330  222.8516 H   0  0  0  0  0  0  0  0  0  0  0  0
  141.7007   75.9996  222.3145 H   0  0  0  0  0  0  0  0  0  0  0  0
  139.0672   71.0182  220.9729 H   0  0  0  0  0  0  0  0  0  0  0  0
  141.4591   70.9641  222.0082 H   0  0  0  0  0  0  0  0  0  0  0  0
  141.0354   72.7975  224.6219 H   0  0  0  0  0  0  0  0  0  0  0  0
  140.8099   72.2158  227.0173 H   0  0  0  0  0  0  0  0  0  0  0  0
  140.0326   69.9648  227.6946 H   0  0  0  0  0  0  0  0  0  0  0  0
  139.6977   68.8849  223.5787 H   0  0  0  0  0  0  0  0  0  0  0  0
  135.7363   72.8074  222.0081 H   0  0  0  0  0  0  0  0  0  0  0  0
  136.8673   71.8268  220.9264 H   0  0  0  0  0  0  0  0  0  0  0  0
  137.7509   71.1600  223.3197 H   0  0  0  0  0  0  0  0  0  0  0  0
  135.3344   70.0849  221.7033 H   0  0  0  0  0  0  0  0  0  0  0  0
  137.0969   69.7377  221.3783 H   0  0  0  0  0  0  0  0  0  0  0  0
  135.7397   67.9189  222.4619 H   0  0  0  0  0  0  0  0  0  0  0  0
  137.3064   68.4310  223.2456 H   0  0  0  0  0  0  0  0  0  0  0  0
  135.4560   68.0940  224.8210 H   0  0  0  0  0  0  0  0  0  0  0  0
  135.5134   70.2149  225.9053 H   0  0  0  0  0  0  0  0  0  0  0  0
  137.1304   70.0081  225.1710 H   0  0  0  0  0  0  0  0  0  0  0  0
  134.7570   71.3429  223.7217 H   0  0  0  0  0  0  0  0  0  0  0  0
  135.9761   72.2684  224.6085 H   0  0  0  0  0  0  0  0  0  0  0  0
  1  2  2  0
  2  3  1  0
  3  4  2  0
  4  5  1  0
  5  6  2  0
  6  7  1  0
  6  8  1  0
  8  9  2  0
  9 10  1  0
 10 11  2  0
 11 12  1  0
 12 13  2  0
 13 14  1  0
 14 15  2  0
 15 16  1  0
 16 17  2  0
 17 18  1  0
 18 19  1  0
 18 20  2  0
 11 21  1  0
 21 22  1  0
 22 23  1  0
 23 24  1  0
 24 25  1  0
 25 26  1  0
 26 27  1  0
 27 28  1  0
 21  2  1  0
 28 23  1  0
  9  3  1  0
 20 14  1  0
  4 29  1  0
  5 30  1  0
  8 31  1  0
 12 32  1  0
 13 33  1  0
 15 34  1  0
 16 35  1  0
 17 36  1  0
 20 37  1  0
 22 38  1  0
 22 39  1  0
 23 40  1  0
 24 41  1  0
 24 42  1  0
 25 43  1  0
 25 44  1  0
 26 45  1  0
 27 46  1  0
 27 47  1  0
 28 48  1  0
 28 49  1  0
M  END
>  <smiles>  (2) 
O=c1c2ccc(Cl)cc2nc(/C=C/c2cccc(Cl)c2)n1CC1CCNCC1

>  <score_type>  (2) 
oracle

>  <origin>  (2) 
autodockgpu

>  <m_score__min__energy>  (2) 
-8.5299999999999994

>  <m_primary>  (2) 
energy

>  <rmsd>  (2) 
7.415232377702202

>  <m_score__min__rmsd>  (2) 
7.415232377702202

>  <meeko>  (2) 
{"free_energy": -6.79, "intermolecular_energy": -8.28, "internal_energy": -1.97, "cluster_size": 10, "cluster_id": 4, "rank_in_cluster": 10}

>  <energy>  (2) 
-8.5

>  <cluster_rmsd>  (2) 
0.69

>  <cluster>  (2) 
1

$$$$

     RDKit          3D

 49 52  0  0  0  0  0  0  0  0999 V2000
  142.9020   76.7250  219.0530 O   0  0  0  0  0  0  0  0  0  0  0  0
  142.1460   76.2490  219.9620 C   0  0  0  0  0  0  0  0  0  0  0  0
  141.5610   77.1400  220.8350 C   0  0  0  0  0  0  0  0  0  0  0  0
  141.8020   78.4960  220.7080 C   0  0  0  0  0  0  0  0  0  0  0  0
  141.1970   79.3690  221.6060 C   0  0  0  0  0  0  0  0  0  0  0  0
  140.3700   78.8810  222.6030 C   0  0  0  0  0  0  0  0  0  0  0  0
  139.6190   80.0020  223.7230 Cl  0  0  0  0  0  0  0  0  0  0  0  0
  140.1200   77.5120  222.7400 C   0  0  0  0  0  0  0  0  0  0  0  0
  140.7340   76.6720  221.8350 C   0  0  0  0  0  0  0  0  0  0  0  0
  140.5490   75.3410  221.8920 N   0  0  0  0  0  0  0  0  0  0  0  0
  141.1230   74.4770  221.0360 C   0  0  0  0  0  0  0  0  0  0  0  0
  140.8370   73.0460  221.1910 C   0  0  0  0  0  0  0  0  0  0  0  0
  139.7390   72.6610  221.7960 C   0  0  0  0  0  0  0  0  0  0  0  0
  139.7000   71.8810  223.0230 C   0  0  0  0  0  0  0  0  0  0  0  0
  140.7030   71.8740  223.9590 C   0  0  0  0  0  0  0  0  0  0  0  0
  140.6090   71.1060  225.1150 C   0  0  0  0  0  0  0  0  0  0  0  0
  139.5010   70.3290  225.3490 C   0  0  0  0  0  0  0  0  0  0  0  0
  138.4820   70.3170  224.4270 C   0  0  0  0  0  0  0  0  0  0  0  0
  137.0610   69.3510  224.6780 Cl  0  0  0  0  0  0  0  0  0  0  0  0
  138.5950   71.0820  223.2950 C   0  0  0  0  0  0  0  0  0  0  0  0
  141.9350   74.9030  220.0500 N   0  0  0  0  0  0  0  0  0  0  0  0
  142.5960   74.0410  219.1140 C   0  0  0  0  0  0  0  0  0  0  0  0
  143.5790   73.0810  219.6890 C   0  0  0  0  0  0  0  0  0  0  0  0
  144.6470   73.9150  220.3830 C   0  0  0  0  0  0  0  0  0  0  0  0
  145.7360   73.0980  220.9810 C   0  0  0  0  0  0  0  0  0  0  0  0
  146.2250   72.0610  220.0970 N   0  0  0  0  0  0  0  0  0  0  0  0
  145.1800   71.2710  219.5240 C   0  0  0  0  0  0  0  0  0  0  0  0
  144.2760   72.1950  218.6950 C   0  0  0  0  0  0  0  0  0  0  0  0
  142.4593   78.8766  219.9123 H   0  0  0  0  0  0  0  0  0  0  0  0
  141.3764   80.4511  221.5236 H   0  0  0  0  0  0  0  0  0  0  0  0
  139.4640   77.1232  223.5328 H   0  0  0  0  0  0  0  0  0  0  0  0
  141.5423   72.2977  220.8004 H   0  0  0  0  0  0  0  0  0  0  0  0
  138.7787   72.9486  221.3431 H   0  0  0  0  0  0  0  0  0  0  0  0
  141.6000   72.4884  223.7919 H   0  0  0  0  0  0  0  0  0  0  0  0
  141.4291   71.1212  225.8480 H   0  0  0  0  0  0  0  0  0  0  0  0
  139.4300   69.7230  226.2643 H   0  0  0  0  0  0  0  0  0  0  0  0
  137.7712   71.0628  222.5663 H   0  0  0  0  0  0  0  0  0  0  0  0
  141.8238   73.4583  218.5904 H   0  0  0  0  0  0  0  0  0  0  0  0
  143.1798   74.7062  218.4608 H   0  0  0  0  0  0  0  0  0  0  0  0
  143.0142   72.4073  220.3502 H   0  0  0  0  0  0  0  0  0  0  0  0
  145.0897   74.5997  219.6446 H   0  0  0  0  0  0  0  0  0  0  0  0
  144.1551   74.4541  221.2061 H   0  0  0  0  0  0  0  0  0  0  0  0
  146.5736   73.7645  221.2344 H   0  0  0  0  0  0  0  0  0  0  0  0
  145.3196   72.5998  221.8689 H   0  0  0  0  0  0  0  0  0  0  0  0
  147.0380   71.5610  220.4600 H   0  0  0  0  0  0  0  0  0  0  0  0
  145.6132   70.4951  218.8757 H   0  0  0  0  0  0  0  0  0  0  0  0
  144.5960   70.7820  220.3177 H   0  0  0  0  0  0  0  0  0  0  0  0
  144.8785   72.7982  217.9999 H   0  0  0  0  0  0  0  0  0  0  0  0
  143.5587   71.6232  218.0879 H   0  0  0  0  0  0  0  0  0  0  0  0
  1  2  2  0
  2  3  1  0
  3  4  2  0
  4  5  1  0
  5  6  2  0
  6  7  1  0
  6  8  1  0
  8  9  2  0
  9 10  1  0
 10 11  2  0
 11 12  1  0
 12 13  2  0
 13 14  1  0
 14 15  2  0
 15 16  1  0
 16 17  2  0
 17 18  1  0
 18 19  1  0
 18 20  2  0
 11 21  1  0
 21 22  1  0
 22 23  1  0
 23 24  1  0
 24 25  1  0
 25 26  1  0
 26 27  1  0
 27 28  1  0
 21  2  1  0
 28 23  1  0
  9  3  1  0
 20 14  1  0
  4 29  1  0
  5 30  1  0
  8 31  1  0
 12 32  1  0
 13 33  1  0
 15 34  1  0
 16 35  1  0
 17 36  1  0
 20 37  1  0
 22 38  1  0
 22 39  1  0
 23 40  1  0
 24 41  1  0
 24 42  1  0
 25 43  1  0
 25 44  1  0
 26 45  1  0
 27 46  1  0
 27 47  1  0
 28 48  1  0
 28 49  1  0
M  END
>  <smiles>  (3) 
O=c1c2ccc(Cl)cc2nc(/C=C/c2cccc(Cl)c2)n1CC1CCNCC1

>  <score_type>  (3) 
oracle

>  <origin>  (3) 
autodockgpu

>  <m_score__min__energy>  (3) 
-8.5299999999999994

>  <m_primary>  (3) 
energy

>  <rmsd>  (3) 
4.906514271194683

>  <m_score__min__rmsd>  (3) 
4.906514271194683

>  <meeko>  (3) 
{"free_energy": -7.86, "intermolecular_energy": -9.35, "internal_energy": -1.14, "cluster_size": 29, "cluster_id": 1, "rank_in_cluster": 28}

>  <energy>  (3) 
-8.5

>  <cluster_rmsd>  (3) 
0.88

>  <cluster>  (3) 
1

$$$$

     RDKit          3D

 49 52  0  0  0  0  0  0  0  0999 V2000
  136.5170   75.8020  222.3810 O   0  0  0  0  0  0  0  0  0  0  0  0
  137.7300   75.4200  222.2810 C   0  0  0  0  0  0  0  0  0  0  0  0
  138.7110   76.3810  222.3960 C   0  0  0  0  0  0  0  0  0  0  0  0
  138.3650   77.7030  222.6100 C   0  0  0  0  0  0  0  0  0  0  0  0
  139.3800   78.6490  222.7200 C   0  0  0  0  0  0  0  0  0  0  0  0
  140.7050   78.2640  222.6160 C   0  0  0  0  0  0  0  0  0  0  0  0
  141.9660   79.4750  222.7590 Cl  0  0  0  0  0  0  0  0  0  0  0  0
  141.0640   76.9300  222.4000 C   0  0  0  0  0  0  0  0  0  0  0  0
  140.0370   76.0160  222.2950 C   0  0  0  0  0  0  0  0  0  0  0  0
  140.2900   74.7120  222.0860 N   0  0  0  0  0  0  0  0  0  0  0  0
  139.3280   73.7800  221.9760 C   0  0  0  0  0  0  0  0  0  0  0  0
  139.7280   72.3840  221.7610 C   0  0  0  0  0  0  0  0  0  0  0  0
  140.5950   71.8210  222.5680 C   0  0  0  0  0  0  0  0  0  0  0  0
  140.2560   71.1670  223.8210 C   0  0  0  0  0  0  0  0  0  0  0  0
  139.5010   70.0250  223.9110 C   0  0  0  0  0  0  0  0  0  0  0  0
  139.2080   69.4440  225.1400 C   0  0  0  0  0  0  0  0  0  0  0  0
  139.6730   70.0050  226.3050 C   0  0  0  0  0  0  0  0  0  0  0  0
  140.4310   71.1480  226.2440 C   0  0  0  0  0  0  0  0  0  0  0  0
  141.0410   71.8940  227.6890 Cl  0  0  0  0  0  0  0  0  0  0  0  0
  140.7080   71.7040  225.0210 C   0  0  0  0  0  0  0  0  0  0  0  0
  138.0240   74.1040  222.0700 N   0  0  0  0  0  0  0  0  0  0  0  0
  136.9440   73.1700  221.9440 C   0  0  0  0  0  0  0  0  0  0  0  0
  136.4150   72.6070  223.2180 C   0  0  0  0  0  0  0  0  0  0  0  0
  136.4160   71.0930  223.0580 C   0  0  0  0  0  0  0  0  0  0  0  0
  135.8710   70.3760  224.2420 C   0  0  0  0  0  0  0  0  0  0  0  0
  134.6430   70.9530  224.7460 N   0  0  0  0  0  0  0  0  0  0  0  0
  134.7230   72.3680  224.9350 C   0  0  0  0  0  0  0  0  0  0  0  0
  135.0140   73.0210  223.5760 C   0  0  0  0  0  0  0  0  0  0  0  0
  137.3092   78.0006  222.6916 H   0  0  0  0  0  0  0  0  0  0  0  0
  139.1280   79.7061  222.8902 H   0  0  0  0  0  0  0  0  0  0  0  0
  142.1173   76.6238  222.3176 H   0  0  0  0  0  0  0  0  0  0  0  0
  139.3013   71.8112  220.9245 H   0  0  0  0  0  0  0  0  0  0  0  0
  141.6551   71.8455  222.2755 H   0  0  0  0  0  0  0  0  0  0  0  0
  139.1191   69.5587  222.9908 H   0  0  0  0  0  0  0  0  0  0  0  0
  138.5994   68.5285  225.1798 H   0  0  0  0  0  0  0  0  0  0  0  0
  139.4404   69.5433  227.2759 H   0  0  0  0  0  0  0  0  0  0  0  0
  141.3173   72.6192  224.9882 H   0  0  0  0  0  0  0  0  0  0  0  0
  136.1152   73.6810  221.4322 H   0  0  0  0  0  0  0  0  0  0  0  0
  137.3558   72.3136  221.3899 H   0  0  0  0  0  0  0  0  0  0  0  0
  137.0582   72.9883  224.0248 H   0  0  0  0  0  0  0  0  0  0  0  0
  135.8045   70.8342  222.1811 H   0  0  0  0  0  0  0  0  0  0  0  0
  137.4635   70.7784  222.9402 H   0  0  0  0  0  0  0  0  0  0  0  0
  135.6751   69.3315  223.9579 H   0  0  0  0  0  0  0  0  0  0  0  0
  136.6204   70.4542  225.0434 H   0  0  0  0  0  0  0  0  0  0  0  0
  134.2100   70.4100  225.4950 H   0  0  0  0  0  0  0  0  0  0  0  0
  133.7687   72.7447  225.3318 H   0  0  0  0  0  0  0  0  0  0  0  0
  135.5228   72.6099  225.6504 H   0  0  0  0  0  0  0  0  0  0  0  0
  134.3024   72.6623  222.8178 H   0  0  0  0  0  0  0  0  0  0  0  0
  134.9127   74.1154  223.6211 H   0  0  0  0  0  0  0  0  0  0  0  0
  1  2  2  0
  2  3  1  0
  3  4  2  0
  4  5  1  0
  5  6  2  0
  6  7  1  0
  6  8  1  0
  8  9  2  0
  9 10  1  0
 10 11  2  0
 11 12  1  0
 12 13  2  0
 13 14  1  0
 14 15  2  0
 15 16  1  0
 16 17  2  0
 17 18  1  0
 18 19  1  0
 18 20  2  0
 11 21  1  0
 21 22  1  0
 22 23  1  0
 23 24  1  0
 24 25  1  0
 25 26  1  0
 26 27  1  0
 27 28  1  0
 21  2  1  0
 28 23  1  0
  9  3  1  0
 20 14  1  0
  4 29  1  0
  5 30  1  0
  8 31  1  0
 12 32  1  0
 13 33  1  0
 15 34  1  0
 16 35  1  0
 17 36  1  0
 20 37  1  0
 22 38  1  0
 22 39  1  0
 23 40  1  0
 24 41  1  0
 24 42  1  0
 25 43  1  0
 25 44  1  0
 26 45  1  0
 27 46  1  0
 27 47  1  0
 28 48  1  0
 28 49  1  0
M  END
>  <smiles>  (4) 
O=c1c2ccc(Cl)cc2nc(/C=C/c2cccc(Cl)c2)n1CC1CCNCC1

>  <score_type>  (4) 
oracle

>  <origin>  (4) 
autodockgpu

>  <m_score__min__energy>  (4) 
-8.5299999999999994

>  <m_primary>  (4) 
energy

>  <rmsd>  (4) 
6.91639749317614

>  <m_score__min__rmsd>  (4) 
6.91639749317614

>  <meeko>  (4) 
{"free_energy": -7.6, "intermolecular_energy": -9.09, "internal_energy": -1.75, "cluster_size": 10, "cluster_id": 4, "rank_in_cluster": 1}

>  <energy>  (4) 
-8.49

>  <cluster_rmsd>  (4) 
0.68

>  <cluster>  (4) 
1

$$$$

     RDKit          3D

 49 52  0  0  0  0  0  0  0  0999 V2000
  142.0830   74.9140  218.7130 O   0  0  0  0  0  0  0  0  0  0  0  0
  141.6240   74.6870  219.8800 C   0  0  0  0  0  0  0  0  0  0  0  0
  141.2270   75.7720  220.6300 C   0  0  0  0  0  0  0  0  0  0  0  0
  141.3330   77.0500  220.1130 C   0  0  0  0  0  0  0  0  0  0  0  0
  140.9240   78.1240  220.8970 C   0  0  0  0  0  0  0  0  0  0  0  0
  140.4210   77.9070  222.1670 C   0  0  0  0  0  0  0  0  0  0  0  0
  139.9120   79.2790  223.1360 Cl  0  0  0  0  0  0  0  0  0  0  0  0
  140.3090   76.6200  222.6990 C   0  0  0  0  0  0  0  0  0  0  0  0
  140.7220   75.5750  221.8990 C   0  0  0  0  0  0  0  0  0  0  0  0
  140.6500   74.3030  222.3300 N   0  0  0  0  0  0  0  0  0  0  0  0
  141.0390   73.2490  221.5920 C   0  0  0  0  0  0  0  0  0  0  0  0
  140.9020   71.9050  222.1660 C   0  0  0  0  0  0  0  0  0  0  0  0
  139.8300   71.5960  222.8550 C   0  0  0  0  0  0  0  0  0  0  0  0
  139.8390   70.8940  224.1290 C   0  0  0  0  0  0  0  0  0  0  0  0
  139.3530   69.6240  224.3080 C   0  0  0  0  0  0  0  0  0  0  0  0
  139.3880   69.0030  225.5520 C   0  0  0  0  0  0  0  0  0  0  0  0
  139.9140   69.6540  226.6420 C   0  0  0  0  0  0  0  0  0  0  0  0
  140.4060   70.9270  226.4910 C   0  0  0  0  0  0  0  0  0  0  0  0
  141.0800   71.7910  227.8380 Cl  0  0  0  0  0  0  0  0  0  0  0  0
  140.3620   71.5200  225.2550 C   0  0  0  0  0  0  0  0  0  0  0  0
  141.5360   73.4080  220.3500 N   0  0  0  0  0  0  0  0  0  0  0  0
  141.9880   72.3350  219.5130 C   0  0  0  0  0  0  0  0  0  0  0  0
  143.4590   72.2500  219.2980 C   0  0  0  0  0  0  0  0  0  0  0  0
  144.1120   72.9880  220.4570 C   0  0  0  0  0  0  0  0  0  0  0  0
  145.5960   73.0300  220.3670 C   0  0  0  0  0  0  0  0  0  0  0  0
  146.0800   73.3790  219.0480 N   0  0  0  0  0  0  0  0  0  0  0  0
  145.4760   72.6090  218.0060 C   0  0  0  0  0  0  0  0  0  0  0  0
  143.9640   72.8730  218.0260 C   0  0  0  0  0  0  0  0  0  0  0  0
  141.7329   77.2143  219.1015 H   0  0  0  0  0  0  0  0  0  0  0  0
  141.0009   79.1491  220.5056 H   0  0  0  0  0  0  0  0  0  0  0  0
  139.9098   76.4480  223.7095 H   0  0  0  0  0  0  0  0  0  0  0  0
  141.6967   71.1589  222.0185 H   0  0  0  0  0  0  0  0  0  0  0  0
  138.8542   71.8885  222.4399 H   0  0  0  0  0  0  0  0  0  0  0  0
  138.9264   69.0850  223.4492 H   0  0  0  0  0  0  0  0  0  0  0  0
  138.9917   67.9830  225.6643 H   0  0  0  0  0  0  0  0  0  0  0  0
  139.9406   69.1606  227.6248 H   0  0  0  0  0  0  0  0  0  0  0  0
  140.7597   72.5401  225.1495 H   0  0  0  0  0  0  0  0  0  0  0  0
  141.6596   71.3901  219.9704 H   0  0  0  0  0  0  0  0  0  0  0  0
  141.5541   72.5297  218.5211 H   0  0  0  0  0  0  0  0  0  0  0  0
  143.7081   71.1807  219.2306 H   0  0  0  0  0  0  0  0  0  0  0  0
  143.7338   74.0208  220.4706 H   0  0  0  0  0  0  0  0  0  0  0  0
  143.8569   72.4408  221.3765 H   0  0  0  0  0  0  0  0  0  0  0  0
  145.9683   73.7762  221.0843 H   0  0  0  0  0  0  0  0  0  0  0  0
  145.9648   72.0185  220.5923 H   0  0  0  0  0  0  0  0  0  0  0  0
  147.0930   73.5070  219.0020 H   0  0  0  0  0  0  0  0  0  0  0  0
  145.8929   72.9081  217.0330 H   0  0  0  0  0  0  0  0  0  0  0  0
  145.6759   71.5385  218.1613 H   0  0  0  0  0  0  0  0  0  0  0  0
  143.7634   73.9546  218.0227 H   0  0  0  0  0  0  0  0  0  0  0  0
  143.4662   72.4497  217.1411 H   0  0  0  0  0  0  0  0  0  0  0  0
  1  2  2  0
  2  3  1  0
  3  4  2  0
  4  5  1  0
  5  6  2  0
  6  7  1  0
  6  8  1  0
  8  9  2  0
  9 10  1  0
 10 11  2  0
 11 12  1  0
 12 13  2  0
 13 14  1  0
 14 15  2  0
 15 16  1  0
 16 17  2  0
 17 18  1  0
 18 19  1  0
 18 20  2  0
 11 21  1  0
 21 22  1  0
 22 23  1  0
 23 24  1  0
 24 25  1  0
 25 26  1  0
 26 27  1  0
 27 28  1  0
 21  2  1  0
 28 23  1  0
  9  3  1  0
 20 14  1  0
  4 29  1  0
  5 30  1  0
  8 31  1  0
 12 32  1  0
 13 33  1  0
 15 34  1  0
 16 35  1  0
 17 36  1  0
 20 37  1  0
 22 38  1  0
 22 39  1  0
 23 40  1  0
 24 41  1  0
 24 42  1  0
 25 43  1  0
 25 44  1  0
 26 45  1  0
 27 46  1  0
 27 47  1  0
 28 48  1  0
 28 49  1  0
M  END
>  <smiles>  (5) 
O=c1c2ccc(Cl)cc2nc(/C=C/c2cccc(Cl)c2)n1CC1CCNCC1

>  <score_type>  (5) 
oracle

>  <origin>  (5) 
autodockgpu

>  <m_score__min__energy>  (5) 
-8.5299999999999994

>  <m_primary>  (5) 
energy

>  <rmsd>  (5) 
5.574157381463362

>  <m_score__min__rmsd>  (5) 
5.574157381463362

>  <meeko>  (5) 
{"free_energy": -8.35, "intermolecular_energy": -9.85, "internal_energy": -1.08, "cluster_size": 29, "cluster_id": 1, "rank_in_cluster": 14}

>  <energy>  (5) 
-8.49

>  <cluster_rmsd>  (5) 
0.19

>  <cluster>  (5) 
1

$$$$

     RDKit          3D

 49 52  0  0  0  0  0  0  0  0999 V2000
  142.7100   76.2750  219.0170 O   0  0  0  0  0  0  0  0  0  0  0  0
  141.9370   75.9380  219.9730 C   0  0  0  0  0  0  0  0  0  0  0  0
  141.4650   76.9390  220.7930 C   0  0  0  0  0  0  0  0  0  0  0  0
  141.8320   78.2530  220.5660 C   0  0  0  0  0  0  0  0  0  0  0  0
  141.3380   79.2400  221.4130 C   0  0  0  0  0  0  0  0  0  0  0  0
  140.4960   78.9030  222.4580 C   0  0  0  0  0  0  0  0  0  0  0  0
  139.8870   80.1670  223.5120 Cl  0  0  0  0  0  0  0  0  0  0  0  0
  140.1190   77.5790  222.6960 C   0  0  0  0  0  0  0  0  0  0  0  0
  140.6240   76.6230  221.8400 C   0  0  0  0  0  0  0  0  0  0  0  0
  140.3150   75.3230  221.9940 N   0  0  0  0  0  0  0  0  0  0  0  0
  140.7790   74.3510  221.1900 C   0  0  0  0  0  0  0  0  0  0  0  0
  140.3610   72.9680  221.4500 C   0  0  0  0  0  0  0  0  0  0  0  0
  140.9840   72.2590  222.3600 C   0  0  0  0  0  0  0  0  0  0  0  0
  140.3250   71.4930  223.4070 C   0  0  0  0  0  0  0  0  0  0  0  0
  139.2980   70.6130  223.1820 C   0  0  0  0  0  0  0  0  0  0  0  0
  138.7060   69.9080  224.2260 C   0  0  0  0  0  0  0  0  0  0  0  0
  139.1400   70.0800  225.5180 C   0  0  0  0  0  0  0  0  0  0  0  0
  140.1670   70.9560  225.7710 C   0  0  0  0  0  0  0  0  0  0  0  0
  140.7500   71.2070  227.3870 Cl  0  0  0  0  0  0  0  0  0  0  0  0
  140.7360   71.6400  224.7270 C   0  0  0  0  0  0  0  0  0  0  0  0
  141.6010   74.6270  220.1590 N   0  0  0  0  0  0  0  0  0  0  0  0
  142.1500   73.6440  219.2720 C   0  0  0  0  0  0  0  0  0  0  0  0
  143.2310   72.7880  219.8340 C   0  0  0  0  0  0  0  0  0  0  0  0
  144.2950   73.7310  220.3780 C   0  0  0  0  0  0  0  0  0  0  0  0
  145.4750   73.0240  220.9430 C   0  0  0  0  0  0  0  0  0  0  0  0
  145.9580   71.9510  220.0990 N   0  0  0  0  0  0  0  0  0  0  0  0
  144.9230   71.0630  219.6720 C   0  0  0  0  0  0  0  0  0  0  0  0
  143.9040   71.8680  218.8540 C   0  0  0  0  0  0  0  0  0  0  0  0
  142.5011   78.5125  219.7324 H   0  0  0  0  0  0  0  0  0  0  0  0
  141.6177   80.2915  221.2514 H   0  0  0  0  0  0  0  0  0  0  0  0
  139.4504   77.3115  223.5275 H   0  0  0  0  0  0  0  0  0  0  0  0
  139.5275   72.5278  220.8830 H   0  0  0  0  0  0  0  0  0  0  0  0
  142.0834   72.2420  222.3298 H   0  0  0  0  0  0  0  0  0  0  0  0
  138.9343   70.4609  222.1551 H   0  0  0  0  0  0  0  0  0  0  0  0
  137.8843   69.2078  224.0149 H   0  0  0  0  0  0  0  0  0  0  0  0
  138.6699   69.5220  226.3412 H   0  0  0  0  0  0  0  0  0  0  0  0
  141.5572   72.3387  224.9447 H   0  0  0  0  0  0  0  0  0  0  0  0
  141.3301   72.9840  218.9524 H   0  0  0  0  0  0  0  0  0  0  0  0
  142.6168   74.2114  218.4533 H   0  0  0  0  0  0  0  0  0  0  0  0
  142.7606   72.1368  220.5854 H   0  0  0  0  0  0  0  0  0  0  0  0
  144.6367   74.3812  219.5592 H   0  0  0  0  0  0  0  0  0  0  0  0
  143.8350   74.3029  221.1974 H   0  0  0  0  0  0  0  0  0  0  0  0
  146.2869   73.7535  221.0792 H   0  0  0  0  0  0  0  0  0  0  0  0
  145.1593   72.5727  221.8952 H   0  0  0  0  0  0  0  0  0  0  0  0
  146.8260   71.5260  220.4310 H   0  0  0  0  0  0  0  0  0  0  0  0
  145.3519   70.2641  219.0493 H   0  0  0  0  0  0  0  0  0  0  0  0
  144.4325   70.6058  220.5440 H   0  0  0  0  0  0  0  0  0  0  0  0
  144.4137   72.4484  218.0708 H   0  0  0  0  0  0  0  0  0  0  0  0
  143.1793   71.2119  218.3496 H   0  0  0  0  0  0  0  0  0  0  0  0
  1  2  2  0
  2  3  1  0
  3  4  2  0
  4  5  1  0
  5  6  2  0
  6  7  1  0
  6  8  1  0
  8  9  2  0
  9 10  1  0
 10 11  2  0
 11 12  1  0
 12 13  2  0
 13 14  1  0
 14 15  2  0
 15 16  1  0
 16 17  2  0
 17 18  1  0
 18 19  1  0
 18 20  2  0
 11 21  1  0
 21 22  1  0
 22 23  1  0
 23 24  1  0
 24 25  1  0
 25 26  1  0
 26 27  1  0
 27 28  1  0
 21  2  1  0
 28 23  1  0
  9  3  1  0
 20 14  1  0
  4 29  1  0
  5 30  1  0
  8 31  1  0
 12 32  1  0
 13 33  1  0
 15 34  1  0
 16 35  1  0
 17 36  1  0
 20 37  1  0
 22 38  1  0
 22 39  1  0
 23 40  1  0
 24 41  1  0
 24 42  1  0
 25 43  1  0
 25 44  1  0
 26 45  1  0
 27 46  1  0
 27 47  1  0
 28 48  1  0
 28 49  1  0
M  END
>  <smiles>  (6) 
O=c1c2ccc(Cl)cc2nc(/C=C/c2cccc(Cl)c2)n1CC1CCNCC1

>  <score_type>  (6) 
oracle

>  <origin>  (6) 
autodockgpu

>  <m_score__min__energy>  (6) 
-8.5299999999999994

>  <m_primary>  (6) 
energy

>  <rmsd>  (6) 
4.877511324132441

>  <m_score__min__rmsd>  (6) 
4.877511324132441

>  <meeko>  (6) 
{"free_energy": -8.32, "intermolecular_energy": -9.81, "internal_energy": -1.21, "cluster_size": 29, "cluster_id": 1, "rank_in_cluster": 17}

>  <energy>  (6) 
-8.45

>  <cluster_rmsd>  (6) 
1.05

>  <cluster>  (6) 
1

$$$$

     RDKit          3D

 49 52  0  0  0  0  0  0  0  0999 V2000
  136.1970   74.9170  222.4260 O   0  0  0  0  0  0  0  0  0  0  0  0
  137.4330   74.6270  222.3160 C   0  0  0  0  0  0  0  0  0  0  0  0
  138.3410   75.6590  222.4090 C   0  0  0  0  0  0  0  0  0  0  0  0
  137.9000   76.9550  222.6130 C   0  0  0  0  0  0  0  0  0  0  0  0
  138.8420   77.9750  222.7020 C   0  0  0  0  0  0  0  0  0  0  0  0
  140.1910   77.6880  222.5870 C   0  0  0  0  0  0  0  0  0  0  0  0
  141.3590   78.9920  222.7020 Cl  0  0  0  0  0  0  0  0  0  0  0  0
  140.6470   76.3830  222.3800 C   0  0  0  0  0  0  0  0  0  0  0  0
  139.6900   75.3940  222.2970 C   0  0  0  0  0  0  0  0  0  0  0  0
  140.0380   74.1100  222.0990 N   0  0  0  0  0  0  0  0  0  0  0  0
  139.1470   73.1070  222.0100 C   0  0  0  0  0  0  0  0  0  0  0  0
  139.6480   71.7430  221.8050 C   0  0  0  0  0  0  0  0  0  0  0  0
  140.5950   71.2720  222.5810 C   0  0  0  0  0  0  0  0  0  0  0  0
  140.4350   70.9740  223.9950 C   0  0  0  0  0  0  0  0  0  0  0  0
  140.6930   71.8700  225.0010 C   0  0  0  0  0  0  0  0  0  0  0  0
  140.5220   71.5280  226.3380 C   0  0  0  0  0  0  0  0  0  0  0  0
  140.0870   70.2720  226.6870 C   0  0  0  0  0  0  0  0  0  0  0  0
  139.8220   69.3550  225.6990 C   0  0  0  0  0  0  0  0  0  0  0  0
  139.2710   67.7550  226.0900 Cl  0  0  0  0  0  0  0  0  0  0  0  0
  139.9970   69.7140  224.3870 C   0  0  0  0  0  0  0  0  0  0  0  0
  137.8240   73.3340  222.1150 N   0  0  0  0  0  0  0  0  0  0  0  0
  136.8150   72.3200  222.0120 C   0  0  0  0  0  0  0  0  0  0  0  0
  136.7400   71.3550  223.1440 C   0  0  0  0  0  0  0  0  0  0  0  0
  136.9910   69.9740  222.5560 C   0  0  0  0  0  0  0  0  0  0  0  0
  136.9070   68.8820  223.5620 C   0  0  0  0  0  0  0  0  0  0  0  0
  135.7570   68.9930  224.4350 N   0  0  0  0  0  0  0  0  0  0  0  0
  135.6100   70.2960  225.0060 C   0  0  0  0  0  0  0  0  0  0  0  0
  135.4210   71.3050  223.8650 C   0  0  0  0  0  0  0  0  0  0  0  0
  136.8258   77.1742  222.7030 H   0  0  0  0  0  0  0  0  0  0  0  0
  138.5137   79.0123  222.8642 H   0  0  0  0  0  0  0  0  0  0  0  0
  141.7193   76.1557  222.2876 H   0  0  0  0  0  0  0  0  0  0  0  0
  139.2305   71.1170  221.0026 H   0  0  0  0  0  0  0  0  0  0  0  0
  141.5812   71.0894  222.1293 H   0  0  0  0  0  0  0  0  0  0  0  0
  141.0427   72.8809  224.7446 H   0  0  0  0  0  0  0  0  0  0  0  0
  140.7366   72.2687  227.1224 H   0  0  0  0  0  0  0  0  0  0  0  0
  139.9525   70.0040  227.7453 H   0  0  0  0  0  0  0  0  0  0  0  0
  139.7804   68.9691  223.6071 H   0  0  0  0  0  0  0  0  0  0  0  0
  135.8397   72.8227  221.9333 H   0  0  0  0  0  0  0  0  0  0  0  0
  137.0858   71.7213  221.1299 H   0  0  0  0  0  0  0  0  0  0  0  0
  137.4796   71.6823  223.8896 H   0  0  0  0  0  0  0  0  0  0  0  0
  136.2411   69.7862  221.7735 H   0  0  0  0  0  0  0  0  0  0  0  0
  138.0161   69.9712  222.1571 H   0  0  0  0  0  0  0  0  0  0  0  0
  136.8496   67.9210  223.0298 H   0  0  0  0  0  0  0  0  0  0  0  0
  137.8039   68.9532  224.1949 H   0  0  0  0  0  0  0  0  0  0  0  0
  135.6380   68.1960  225.0620 H   0  0  0  0  0  0  0  0  0  0  0  0
  134.7318   70.3148  225.6681 H   0  0  0  0  0  0  0  0  0  0  0  0
  136.5023   70.5538  225.5953 H   0  0  0  0  0  0  0  0  0  0  0  0
  134.6243   70.9699  223.1846 H   0  0  0  0  0  0  0  0  0  0  0  0
  135.1269   72.2953  224.2430 H   0  0  0  0  0  0  0  0  0  0  0  0
  1  2  2  0
  2  3  1  0
  3  4  2  0
  4  5  1  0
  5  6  2  0
  6  7  1  0
  6  8  1  0
  8  9  2  0
  9 10  1  0
 10 11  2  0
 11 12  1  0
 12 13  2  0
 13 14  1  0
 14 15  2  0
 15 16  1  0
 16 17  2  0
 17 18  1  0
 18 19  1  0
 18 20  2  0
 11 21  1  0
 21 22  1  0
 22 23  1  0
 23 24  1  0
 24 25  1  0
 25 26  1  0
 26 27  1  0
 27 28  1  0
 21  2  1  0
 28 23  1  0
  9  3  1  0
 20 14  1  0
  4 29  1  0
  5 30  1  0
  8 31  1  0
 12 32  1  0
 13 33  1  0
 15 34  1  0
 16 35  1  0
 17 36  1  0
 20 37  1  0
 22 38  1  0
 22 39  1  0
 23 40  1  0
 24 41  1  0
 24 42  1  0
 25 43  1  0
 25 44  1  0
 26 45  1  0
 27 46  1  0
 27 47  1  0
 28 48  1  0
 28 49  1  0
M  END
>  <smiles>  (7) 
O=c1c2ccc(Cl)cc2nc(/C=C/c2cccc(Cl)c2)n1CC1CCNCC1

>  <score_type>  (7) 
oracle

>  <origin>  (7) 
autodockgpu

>  <m_score__min__energy>  (7) 
-8.5299999999999994

>  <m_primary>  (7) 
energy

>  <rmsd>  (7) 
7.3376018350391226

>  <m_score__min__rmsd>  (7) 
7.3376018350391226

>  <meeko>  (7) 
{"free_energy": -6.95, "intermolecular_energy": -8.44, "internal_energy": -2.01, "cluster_size": 10, "cluster_id": 4, "rank_in_cluster": 9}

>  <energy>  (7) 
-8.45

>  <cluster_rmsd>  (7) 
0.65

>  <cluster>  (7) 
1

$$$$

     RDKit          3D

 49 52  0  0  0  0  0  0  0  0999 V2000
  136.9730   79.2990  221.2200 O   0  0  0  0  0  0  0  0  0  0  0  0
  137.7800   79.5500  222.1750 C   0  0  0  0  0  0  0  0  0  0  0  0
  137.2810   80.2160  223.2720 C   0  0  0  0  0  0  0  0  0  0  0  0
  135.9490   80.5890  223.3110 C   0  0  0  0  0  0  0  0  0  0  0  0
  135.4770   81.2610  224.4340 C   0  0  0  0  0  0  0  0  0  0  0  0
  136.3300   81.5460  225.4860 C   0  0  0  0  0  0  0  0  0  0  0  0
  135.7090   82.3950  226.8900 Cl  0  0  0  0  0  0  0  0  0  0  0  0
  137.6770   81.1740  225.4560 C   0  0  0  0  0  0  0  0  0  0  0  0
  138.1160   80.5090  224.3310 C   0  0  0  0  0  0  0  0  0  0  0  0
  139.3970   80.1130  224.2170 N   0  0  0  0  0  0  0  0  0  0  0  0
  139.8770   79.4630  223.1430 C   0  0  0  0  0  0  0  0  0  0  0  0
  141.2920   79.0700  223.1380 C   0  0  0  0  0  0  0  0  0  0  0  0
  142.1780   79.8320  222.5430 C   0  0  0  0  0  0  0  0  0  0  0  0
  141.8700   80.8080  221.5100 C   0  0  0  0  0  0  0  0  0  0  0  0
  141.3630   82.0570  221.7620 C   0  0  0  0  0  0  0  0  0  0  0  0
  141.0880   82.9490  220.7310 C   0  0  0  0  0  0  0  0  0  0  0  0
  141.3190   82.5960  219.4230 C   0  0  0  0  0  0  0  0  0  0  0  0
  141.8260   81.3510  219.1430 C   0  0  0  0  0  0  0  0  0  0  0  0
  142.1350   80.8600  217.5060 Cl  0  0  0  0  0  0  0  0  0  0  0  0
  142.0910   80.4880  220.1750 C   0  0  0  0  0  0  0  0  0  0  0  0
  139.0880   79.1630  222.0940 N   0  0  0  0  0  0  0  0  0  0  0  0
  139.5320   78.4890  220.9090 C   0  0  0  0  0  0  0  0  0  0  0  0
  139.5490   77.0010  220.9700 C   0  0  0  0  0  0  0  0  0  0  0  0
  138.3340   76.5850  221.7870 C   0  0  0  0  0  0  0  0  0  0  0  0
  138.2280   75.1140  221.9780 C   0  0  0  0  0  0  0  0  0  0  0  0
  139.4810   74.4940  222.3560 N   0  0  0  0  0  0  0  0  0  0  0  0
  140.5730   74.8740  221.5150 C   0  0  0  0  0  0  0  0  0  0  0  0
  140.7600   76.3940  221.6250 C   0  0  0  0  0  0  0  0  0  0  0  0
  135.2770   80.3588  222.4711 H   0  0  0  0  0  0  0  0  0  0  0  0
  134.4217   81.5670  224.4860 H   0  0  0  0  0  0  0  0  0  0  0  0
  138.3555   81.4014  226.2915 H   0  0  0  0  0  0  0  0  0  0  0  0
  141.6078   78.1392  223.6319 H   0  0  0  0  0  0  0  0  0  0  0  0
  143.2297   79.7252  222.8472 H   0  0  0  0  0  0  0  0  0  0  0  0
  141.1697   82.3598  222.8017 H   0  0  0  0  0  0  0  0  0  0  0  0
  140.6825   83.9446  220.9642 H   0  0  0  0  0  0  0  0  0  0  0  0
  141.1001   83.3031  218.6093 H   0  0  0  0  0  0  0  0  0  0  0  0
  142.4981   79.4946  219.9353 H   0  0  0  0  0  0  0  0  0  0  0  0
  138.8660   78.7842  220.0848 H   0  0  0  0  0  0  0  0  0  0  0  0
  140.5807   78.7915  220.7719 H   0  0  0  0  0  0  0  0  0  0  0  0
  139.5544   76.6411  219.9306 H   0  0  0  0  0  0  0  0  0  0  0  0
  138.3989   77.0616  222.7763 H   0  0  0  0  0  0  0  0  0  0  0  0
  137.4417   76.9059  221.2295 H   0  0  0  0  0  0  0  0  0  0  0  0
  137.4885   74.9168  222.7681 H   0  0  0  0  0  0  0  0  0  0  0  0
  137.9282   74.6807  221.0124 H   0  0  0  0  0  0  0  0  0  0  0  0
  139.3960   73.5030  222.5860 H   0  0  0  0  0  0  0  0  0  0  0  0
  141.4900   74.3618  221.8419 H   0  0  0  0  0  0  0  0  0  0  0  0
  140.3642   74.5923  220.4724 H   0  0  0  0  0  0  0  0  0  0  0  0
  140.8181   76.6980  222.6806 H   0  0  0  0  0  0  0  0  0  0  0  0
  141.6915   76.7247  221.1424 H   0  0  0  0  0  0  0  0  0  0  0  0
  1  2  2  0
  2  3  1  0
  3  4  2  0
  4  5  1  0
  5  6  2  0
  6  7  1  0
  6  8  1  0
  8  9  2  0
  9 10  1  0
 10 11  2  0
 11 12  1  0
 12 13  2  0
 13 14  1  0
 14 15  2  0
 15 16  1  0
 16 17  2  0
 17 18  1  0
 18 19  1  0
 18 20  2  0
 11 21  1  0
 21 22  1  0
 22 23  1  0
 23 24  1  0
 24 25  1  0
 25 26  1  0
 26 27  1  0
 27 28  1  0
 21  2  1  0
 28 23  1  0
  9  3  1  0
 20 14  1  0
  4 29  1  0
  5 30  1  0
  8 31  1  0
 12 32  1  0
 13 33  1  0
 15 34  1  0
 16 35  1  0
 17 36  1  0
 20 37  1  0
 22 38  1  0
 22 39  1  0
 23 40  1  0
 24 41  1  0
 24 42  1  0
 25 43  1  0
 25 44  1  0
 26 45  1  0
 27 46  1  0
 27 47  1  0
 28 48  1  0
 28 49  1  0
M  END
>  <smiles>  (8) 
O=c1c2ccc(Cl)cc2nc(/C=C/c2cccc(Cl)c2)n1CC1CCNCC1

>  <score_type>  (8) 
oracle

>  <origin>  (8) 
autodockgpu

>  <m_score__min__energy>  (8) 
-8.5299999999999994

>  <m_primary>  (8) 
energy

>  <rmsd>  (8) 
4.818913787103041

>  <m_score__min__rmsd>  (8) 
4.818913787103041

>  <meeko>  (8) 
{"free_energy": -6.87, "intermolecular_energy": -8.36, "internal_energy": -1.72, "cluster_size": 2, "cluster_id": 9, "rank_in_cluster": 1}

>  <energy>  (8) 
-8.43

>  <cluster_rmsd>  (8) 
1.05

>  <cluster>  (8) 
1

$$$$

     RDKit          3D

 49 52  0  0  0  0  0  0  0  0999 V2000
  142.5790   75.8250  219.0750 O   0  0  0  0  0  0  0  0  0  0  0  0
  141.8110   75.6170  220.0710 C   0  0  0  0  0  0  0  0  0  0  0  0
  141.4540   76.7050  220.8380 C   0  0  0  0  0  0  0  0  0  0  0  0
  141.9260   77.9650  220.5170 C   0  0  0  0  0  0  0  0  0  0  0  0
  141.5470   79.0420  221.3120 C   0  0  0  0  0  0  0  0  0  0  0  0
  140.7150   78.8460  222.3990 C   0  0  0  0  0  0  0  0  0  0  0  0
  140.2520   80.2210  223.3860 Cl  0  0  0  0  0  0  0  0  0  0  0  0
  140.2330   77.5770  222.7330 C   0  0  0  0  0  0  0  0  0  0  0  0
  140.6250   76.5290  221.9260 C   0  0  0  0  0  0  0  0  0  0  0  0
  140.2100   75.2740  222.1730 N   0  0  0  0  0  0  0  0  0  0  0  0
  140.5620   74.2170  221.4200 C   0  0  0  0  0  0  0  0  0  0  0  0
  140.0350   72.8950  221.7810 C   0  0  0  0  0  0  0  0  0  0  0  0
  140.7770   72.0630  222.4710 C   0  0  0  0  0  0  0  0  0  0  0  0
  140.3350   71.3510  223.6600 C   0  0  0  0  0  0  0  0  0  0  0  0
  139.5470   70.2290  223.6330 C   0  0  0  0  0  0  0  0  0  0  0  0
  139.1550   69.5910  224.8060 C   0  0  0  0  0  0  0  0  0  0  0  0
  139.5520   70.0740  226.0290 C   0  0  0  0  0  0  0  0  0  0  0  0
  140.3420   71.1960  226.0840 C   0  0  0  0  0  0  0  0  0  0  0  0
  140.8690   71.8440  227.6060 Cl  0  0  0  0  0  0  0  0  0  0  0  0
  140.7160   71.8090  224.9160 C   0  0  0  0  0  0  0  0  0  0  0  0
  141.3700   74.3550  220.3510 N   0  0  0  0  0  0  0  0  0  0  0  0
  141.8020   73.2750  219.5150 C   0  0  0  0  0  0  0  0  0  0  0  0
  142.9790   72.5020  220.0010 C   0  0  0  0  0  0  0  0  0  0  0  0
  143.9990   73.5230  220.4870 C   0  0  0  0  0  0  0  0  0  0  0  0
  145.2630   72.9070  220.9710 C   0  0  0  0  0  0  0  0  0  0  0  0
  145.7740   71.8790  220.0890 N   0  0  0  0  0  0  0  0  0  0  0  0
  144.7860   70.9150  219.7180 C   0  0  0  0  0  0  0  0  0  0  0  0
  143.6590   71.6420  218.9720 C   0  0  0  0  0  0  0  0  0  0  0  0
  142.5876   78.1125  219.6507 H   0  0  0  0  0  0  0  0  0  0  0  0
  141.9104   80.0528  221.0751 H   0  0  0  0  0  0  0  0  0  0  0  0
  139.5723   77.4214  223.5986 H   0  0  0  0  0  0  0  0  0  0  0  0
  139.0200   72.6033  221.4733 H   0  0  0  0  0  0  0  0  0  0  0  0
  141.8073   71.8911  222.1262 H   0  0  0  0  0  0  0  0  0  0  0  0
  139.2180   69.8250  222.6642 H   0  0  0  0  0  0  0  0  0  0  0  0
  138.5222   68.6928  224.7533 H   0  0  0  0  0  0  0  0  0  0  0  0
  139.2405   69.5675  226.9545 H   0  0  0  0  0  0  0  0  0  0  0  0
  141.3484   72.7070  224.9757 H   0  0  0  0  0  0  0  0  0  0  0  0
  140.9604   72.5747  219.4085 H   0  0  0  0  0  0  0  0  0  0  0  0
  142.1229   73.7409  218.5716 H   0  0  0  0  0  0  0  0  0  0  0  0
  142.6082   71.8122  220.7735 H   0  0  0  0  0  0  0  0  0  0  0  0
  144.2376   74.2016  219.6548 H   0  0  0  0  0  0  0  0  0  0  0  0
  143.5483   74.0539  221.3385 H   0  0  0  0  0  0  0  0  0  0  0  0
  146.0230   73.6968  221.0637 H   0  0  0  0  0  0  0  0  0  0  0  0
  145.0429   72.4278  221.9364 H   0  0  0  0  0  0  0  0  0  0  0  0
  146.6910   71.5210  220.3630 H   0  0  0  0  0  0  0  0  0  0  0  0
  145.2359   70.1548  219.0625 H   0  0  0  0  0  0  0  0  0  0  0  0
  144.3874   70.4170  220.6142 H   0  0  0  0  0  0  0  0  0  0  0  0
  144.0725   72.2643  218.1647 H   0  0  0  0  0  0  0  0  0  0  0  0
  142.9574   70.9341  218.5066 H   0  0  0  0  0  0  0  0  0  0  0  0
  1  2  2  0
  2  3  1  0
  3  4  2  0
  4  5  1  0
  5  6  2  0
  6  7  1  0
  6  8  1  0
  8  9  2  0
  9 10  1  0
 10 11  2  0
 11 12  1  0
 12 13  2  0
 13 14  1  0
 14 15  2  0
 15 16  1  0
 16 17  2  0
 17 18  1  0
 18 19  1  0
 18 20  2  0
 11 21  1  0
 21 22  1  0
 22 23  1  0
 23 24  1  0
 24 25  1  0
 25 26  1  0
 26 27  1  0
 27 28  1  0
 21  2  1  0
 28 23  1  0
  9  3  1  0
 20 14  1  0
  4 29  1  0
  5 30  1  0
  8 31  1  0
 12 32  1  0
 13 33  1  0
 15 34  1  0
 16 35  1  0
 17 36  1  0
 20 37  1  0
 22 38  1  0
 22 39  1  0
 23 40  1  0
 24 41  1  0
 24 42  1  0
 25 43  1  0
 25 44  1  0
 26 45  1  0
 27 46  1  0
 27 47  1  0
 28 48  1  0
 28 49  1  0
M  END
>  <smiles>  (9) 
O=c1c2ccc(Cl)cc2nc(/C=C/c2cccc(Cl)c2)n1CC1CCNCC1

>  <score_type>  (9) 
oracle

>  <origin>  (9) 
autodockgpu

>  <m_score__min__energy>  (9) 
-8.5299999999999994

>  <m_primary>  (9) 
energy

>  <rmsd>  (9) 
4.948743362349664

>  <m_score__min__rmsd>  (9) 
4.948743362349664

>  <meeko>  (9) 
{"free_energy": -8.43, "intermolecular_energy": -9.92, "internal_energy": -1.17, "cluster_size": 29, "cluster_id": 1, "rank_in_cluster": 8}

>  <energy>  (9) 
-8.42

>  <cluster_rmsd>  (9) 
1.05

>  <cluster>  (9) 
1

$$$$

     RDKit          3D

 49 52  0  0  0  0  0  0  0  0999 V2000
  136.5130   75.7630  222.3860 O   0  0  0  0  0  0  0  0  0  0  0  0
  137.7290   75.3920  222.2870 C   0  0  0  0  0  0  0  0  0  0  0  0
  138.7020   76.3610  222.4050 C   0  0  0  0  0  0  0  0  0  0  0  0
  138.3450   77.6800  222.6200 C   0  0  0  0  0  0  0  0  0  0  0  0
  139.3510   78.6340  222.7330 C   0  0  0  0  0  0  0  0  0  0  0  0
  140.6800   78.2600  222.6320 C   0  0  0  0  0  0  0  0  0  0  0  0
  141.9300   79.4820  222.7780 Cl  0  0  0  0  0  0  0  0  0  0  0  0
  141.0510   76.9300  222.4140 C   0  0  0  0  0  0  0  0  0  0  0  0
  140.0320   76.0070  222.3060 C   0  0  0  0  0  0  0  0  0  0  0  0
  140.2960   74.7050  222.0970 N   0  0  0  0  0  0  0  0  0  0  0  0
  139.3430   73.7650  221.9840 C   0  0  0  0  0  0  0  0  0  0  0  0
  139.7550   72.3730  221.7680 C   0  0  0  0  0  0  0  0  0  0  0  0
  140.6120   71.8120  222.5860 C   0  0  0  0  0  0  0  0  0  0  0  0
  140.2570   71.1600  223.8370 C   0  0  0  0  0  0  0  0  0  0  0  0
  139.4900   70.0260  223.9200 C   0  0  0  0  0  0  0  0  0  0  0  0
  139.1820   69.4470  225.1470 C   0  0  0  0  0  0  0  0  0  0  0  0
  139.6420   70.0030  226.3150 C   0  0  0  0  0  0  0  0  0  0  0  0
  140.4120   71.1390  226.2610 C   0  0  0  0  0  0  0  0  0  0  0  0
  141.0180   71.8780  227.7110 Cl  0  0  0  0  0  0  0  0  0  0  0  0
  140.7040   71.6920  225.0410 C   0  0  0  0  0  0  0  0  0  0  0  0
  138.0360   74.0780  222.0750 N   0  0  0  0  0  0  0  0  0  0  0  0
  136.9640   73.1350  221.9460 C   0  0  0  0  0  0  0  0  0  0  0  0
  136.4190   72.5870  223.2200 C   0  0  0  0  0  0  0  0  0  0  0  0
  136.4050   71.0720  223.0700 C   0  0  0  0  0  0  0  0  0  0  0  0
  135.8440   70.3680  224.2540 C   0  0  0  0  0  0  0  0  0  0  0  0
  134.6190   70.9620  224.7460 N   0  0  0  0  0  0  0  0  0  0  0  0
  134.7120   72.3770  224.9250 C   0  0  0  0  0  0  0  0  0  0  0  0
  135.0200   73.0170  223.5640 C   0  0  0  0  0  0  0  0  0  0  0  0
  137.2866   77.9687  222.7000 H   0  0  0  0  0  0  0  0  0  0  0  0
  139.0897   79.6889  222.9031 H   0  0  0  0  0  0  0  0  0  0  0  0
  142.1071   76.6333  222.3324 H   0  0  0  0  0  0  0  0  0  0  0  0
  139.3456   71.8019  220.9217 H   0  0  0  0  0  0  0  0  0  0  0  0
  141.6756   71.8360  222.3065 H   0  0  0  0  0  0  0  0  0  0  0  0
  139.1102   69.5644  222.9966 H   0  0  0  0  0  0  0  0  0  0  0  0
  138.5653   68.5368  225.1816 H   0  0  0  0  0  0  0  0  0  0  0  0
  139.3964   69.5435  227.2838 H   0  0  0  0  0  0  0  0  0  0  0  0
  141.3223   72.6013  225.0135 H   0  0  0  0  0  0  0  0  0  0  0  0
  136.1399   73.6330  221.4141 H   0  0  0  0  0  0  0  0  0  0  0  0
  137.3898   72.2735  221.4108 H   0  0  0  0  0  0  0  0  0  0  0  0
  137.0597   72.9680  224.0289 H   0  0  0  0  0  0  0  0  0  0  0  0
  135.7972   70.8140  222.1902 H   0  0  0  0  0  0  0  0  0  0  0  0
  137.4500   70.7459  222.9624 H   0  0  0  0  0  0  0  0  0  0  0  0
  135.6382   69.3242  223.9744 H   0  0  0  0  0  0  0  0  0  0  0  0
  136.5887   70.4420  225.0602 H   0  0  0  0  0  0  0  0  0  0  0  0
  134.1740   70.4280  225.4950 H   0  0  0  0  0  0  0  0  0  0  0  0
  133.7586   72.7663  225.3116 H   0  0  0  0  0  0  0  0  0  0  0  0
  135.5089   72.6159  225.6446 H   0  0  0  0  0  0  0  0  0  0  0  0
  134.3108   72.6598  222.8028 H   0  0  0  0  0  0  0  0  0  0  0  0
  134.9292   74.1126  223.6005 H   0  0  0  0  0  0  0  0  0  0  0  0
  1  2  2  0
  2  3  1  0
  3  4  2  0
  4  5  1  0
  5  6  2  0
  6  7  1  0
  6  8  1  0
  8  9  2  0
  9 10  1  0
 10 11  2  0
 11 12  1  0
 12 13  2  0
 13 14  1  0
 14 15  2  0
 15 16  1  0
 16 17  2  0
 17 18  1  0
 18 19  1  0
 18 20  2  0
 11 21  1  0
 21 22  1  0
 22 23  1  0
 23 24  1  0
 24 25  1  0
 25 26  1  0
 26 27  1  0
 27 28  1  0
 21  2  1  0
 28 23  1  0
  9  3  1  0
 20 14  1  0
  4 29  1  0
  5 30  1  0
  8 31  1  0
 12 32  1  0
 13 33  1  0
 15 34  1  0
 16 35  1  0
 17 36  1  0
 20 37  1  0
 22 38  1  0
 22 39  1  0
 23 40  1  0
 24 41  1  0
 24 42  1  0
 25 43  1  0
 25 44  1  0
 26 45  1  0
 27 46  1  0
 27 47  1  0
 28 48  1  0
 28 49  1  0
M  END
>  <smiles>  (10) 
O=c1c2ccc(Cl)cc2nc(/C=C/c2cccc(Cl)c2)n1CC1CCNCC1

>  <score_type>  (10) 
oracle

>  <origin>  (10) 
autodockgpu

>  <m_score__min__energy>  (10) 
-8.5299999999999994

>  <m_primary>  (10) 
energy

>  <rmsd>  (10) 
6.935193824072117

>  <m_score__min__rmsd>  (10) 
6.935193824072117

>  <meeko>  (10) 
{"free_energy": -7.59, "intermolecular_energy": -9.08, "internal_energy": -1.75, "cluster_size": 10, "cluster_id": 4, "rank_in_cluster": 3}

>  <energy>  (10) 
-8.41

>  <cluster_rmsd>  (10) 
0.64

>  <cluster>  (10) 
1

$$$$

     RDKit          3D

 49 52  0  0  0  0  0  0  0  0999 V2000
  142.5600   75.7710  219.0850 O   0  0  0  0  0  0  0  0  0  0  0  0
  141.7950   75.5870  220.0880 C   0  0  0  0  0  0  0  0  0  0  0  0
  141.4590   76.6900  220.8430 C   0  0  0  0  0  0  0  0  0  0  0  0
  141.9470   77.9390  220.5030 C   0  0  0  0  0  0  0  0  0  0  0  0
  141.5890   79.0320  221.2860 C   0  0  0  0  0  0  0  0  0  0  0  0
  140.7600   78.8620  222.3800 C   0  0  0  0  0  0  0  0  0  0  0  0
  140.3230   80.2570  223.3510 Cl  0  0  0  0  0  0  0  0  0  0  0  0
  140.2600   77.6050  222.7320 C   0  0  0  0  0  0  0  0  0  0  0  0
  140.6330   76.5410  221.9370 C   0  0  0  0  0  0  0  0  0  0  0  0
  140.1990   75.2950  222.2020 N   0  0  0  0  0  0  0  0  0  0  0  0
  140.5310   74.2240  221.4610 C   0  0  0  0  0  0  0  0  0  0  0  0
  139.9860   72.9150  221.8410 C   0  0  0  0  0  0  0  0  0  0  0  0
  140.7310   72.0660  222.5070 C   0  0  0  0  0  0  0  0  0  0  0  0
  140.3120   71.3620  223.7080 C   0  0  0  0  0  0  0  0  0  0  0  0
  139.5260   70.2370  223.7030 C   0  0  0  0  0  0  0  0  0  0  0  0
  139.1560   69.6060  224.8860 C   0  0  0  0  0  0  0  0  0  0  0  0
  139.5720   70.0990  226.0990 C   0  0  0  0  0  0  0  0  0  0  0  0
  140.3590   71.2230  226.1330 C   0  0  0  0  0  0  0  0  0  0  0  0
  140.9110   71.8830  227.6420 Cl  0  0  0  0  0  0  0  0  0  0  0  0
  140.7130   71.8290  224.9550 C   0  0  0  0  0  0  0  0  0  0  0  0
  141.3360   74.3360  220.3870 N   0  0  0  0  0  0  0  0  0  0  0  0
  141.7470   73.2380  219.5620 C   0  0  0  0  0  0  0  0  0  0  0  0
  142.9440   72.4840  220.0280 C   0  0  0  0  0  0  0  0  0  0  0  0
  143.9570   73.5200  220.4940 C   0  0  0  0  0  0  0  0  0  0  0  0
  145.2390   72.9240  220.9560 C   0  0  0  0  0  0  0  0  0  0  0  0
  145.7500   71.9030  220.0660 N   0  0  0  0  0  0  0  0  0  0  0  0
  144.7690   70.9230  219.7130 C   0  0  0  0  0  0  0  0  0  0  0  0
  143.6180   71.6330  218.9870 C   0  0  0  0  0  0  0  0  0  0  0  0
  142.6052   78.0655  219.6308 H   0  0  0  0  0  0  0  0  0  0  0  0
  141.9663   80.0341  221.0342 H   0  0  0  0  0  0  0  0  0  0  0  0
  139.6002   77.4705  223.6018 H   0  0  0  0  0  0  0  0  0  0  0  0
  138.9548   72.6469  221.5676 H   0  0  0  0  0  0  0  0  0  0  0  0
  141.7461   71.8725  222.1299 H   0  0  0  0  0  0  0  0  0  0  0  0
  139.1813   69.8255  222.7429 H   0  0  0  0  0  0  0  0  0  0  0  0
  138.5255   68.7054  224.8501 H   0  0  0  0  0  0  0  0  0  0  0  0
  139.2775   69.5982  227.0331 H   0  0  0  0  0  0  0  0  0  0  0  0
  141.3449   72.7283  224.9985 H   0  0  0  0  0  0  0  0  0  0  0  0
  140.9068   72.5307  219.4998 H   0  0  0  0  0  0  0  0  0  0  0  0
  142.0332   73.6825  218.5974 H   0  0  0  0  0  0  0  0  0  0  0  0
  142.5978   71.7904  220.8084 H   0  0  0  0  0  0  0  0  0  0  0  0
  144.1703   74.2008  219.6567 H   0  0  0  0  0  0  0  0  0  0  0  0
  143.5139   74.0450  221.3531 H   0  0  0  0  0  0  0  0  0  0  0  0
  145.9883   73.7255  221.0344 H   0  0  0  0  0  0  0  0  0  0  0  0
  145.0435   72.4426  221.9255 H   0  0  0  0  0  0  0  0  0  0  0  0
  146.6760   71.5590  220.3230 H   0  0  0  0  0  0  0  0  0  0  0  0
  145.2183   70.1691  219.0498 H   0  0  0  0  0  0  0  0  0  0  0  0
  144.3941   70.4196  220.6163 H   0  0  0  0  0  0  0  0  0  0  0  0
  144.0077   72.2606  218.1720 H   0  0  0  0  0  0  0  0  0  0  0  0
  142.9185   70.9146  218.5347 H   0  0  0  0  0  0  0  0  0  0  0  0
  1  2  2  0
  2  3  1  0
  3  4  2  0
  4  5  1  0
  5  6  2  0
  6  7  1  0
  6  8  1  0
  8  9  2  0
  9 10  1  0
 10 11  2  0
 11 12  1  0
 12 13  2  0
 13 14  1  0
 14 15  2  0
 15 16  1  0
 16 17  2  0
 17 18  1  0
 18 19  1  0
 18 20  2  0
 11 21  1  0
 21 22  1  0
 22 23  1  0
 23 24  1  0
 24 25  1  0
 25 26  1  0
 26 27  1  0
 27 28  1  0
 21  2  1  0
 28 23  1  0
  9  3  1  0
 20 14  1  0
  4 29  1  0
  5 30  1  0
  8 31  1  0
 12 32  1  0
 13 33  1  0
 15 34  1  0
 16 35  1  0
 17 36  1  0
 20 37  1  0
 22 38  1  0
 22 39  1  0
 23 40  1  0
 24 41  1  0
 24 42  1  0
 25 43  1  0
 25 44  1  0
 26 45  1  0
 27 46  1  0
 27 47  1  0
 28 48  1  0
 28 49  1  0
M  END
>  <smiles>  (11) 
O=c1c2ccc(Cl)cc2nc(/C=C/c2cccc(Cl)c2)n1CC1CCNCC1

>  <score_type>  (11) 
oracle

>  <origin>  (11) 
autodockgpu

>  <m_score__min__energy>  (11) 
-8.5299999999999994

>  <m_primary>  (11) 
energy

>  <rmsd>  (11) 
4.941444474493744

>  <m_score__min__rmsd>  (11) 
4.941444474493744

>  <meeko>  (11) 
{"free_energy": -8.45, "intermolecular_energy": -9.95, "internal_energy": -1.14, "cluster_size": 29, "cluster_id": 1, "rank_in_cluster": 6}

>  <energy>  (11) 
-8.41

>  <cluster_rmsd>  (11) 
1.12

>  <cluster>  (11) 
1

$$$$

     RDKit          3D

 49 52  0  0  0  0  0  0  0  0999 V2000
  143.0350   74.9390  220.7060 O   0  0  0  0  0  0  0  0  0  0  0  0
  141.9290   74.5450  221.2030 C   0  0  0  0  0  0  0  0  0  0  0  0
  140.9870   75.5040  221.5010 C   0  0  0  0  0  0  0  0  0  0  0  0
  141.2560   76.8400  221.2610 C   0  0  0  0  0  0  0  0  0  0  0  0
  140.2830   77.7840  221.5750 C   0  0  0  0  0  0  0  0  0  0  0  0
  139.0730   77.3850  222.1140 C   0  0  0  0  0  0  0  0  0  0  0  0
  137.8630   78.5950  222.5000 Cl  0  0  0  0  0  0  0  0  0  0  0  0
  138.7910   76.0380  222.3600 C   0  0  0  0  0  0  0  0  0  0  0  0
  139.7740   75.1250  222.0400 C   0  0  0  0  0  0  0  0  0  0  0  0
  139.5890   73.8090  222.2430 N   0  0  0  0  0  0  0  0  0  0  0  0
  140.5130   72.8780  221.9490 C   0  0  0  0  0  0  0  0  0  0  0  0
  140.1910   71.4680  222.2040 C   0  0  0  0  0  0  0  0  0  0  0  0
  139.4710   71.1420  223.2500 C   0  0  0  0  0  0  0  0  0  0  0  0
  140.0000   70.9420  224.5900 C   0  0  0  0  0  0  0  0  0  0  0  0
  140.7060   71.8900  225.2850 C   0  0  0  0  0  0  0  0  0  0  0  0
  141.1890   71.6400  226.5660 C   0  0  0  0  0  0  0  0  0  0  0  0
  140.9690   70.4260  227.1690 C   0  0  0  0  0  0  0  0  0  0  0  0
  140.2660   69.4580  226.4950 C   0  0  0  0  0  0  0  0  0  0  0  0
  139.9620   67.9080  227.2170 Cl  0  0  0  0  0  0  0  0  0  0  0  0
  139.7980   69.7270  225.2340 C   0  0  0  0  0  0  0  0  0  0  0  0
  141.7060   73.2150  221.4230 N   0  0  0  0  0  0  0  0  0  0  0  0
  142.7450   72.2820  221.1020 C   0  0  0  0  0  0  0  0  0  0  0  0
  143.5130   72.5620  219.8560 C   0  0  0  0  0  0  0  0  0  0  0  0
  143.5220   71.2700  219.0510 C   0  0  0  0  0  0  0  0  0  0  0  0
  144.2930   71.3710  217.7840 C   0  0  0  0  0  0  0  0  0  0  0  0
  145.5770   72.0190  217.9440 N   0  0  0  0  0  0  0  0  0  0  0  0
  145.4970   73.2580  218.6530 C   0  0  0  0  0  0  0  0  0  0  0  0
  144.9450   72.9750  220.0580 C   0  0  0  0  0  0  0  0  0  0  0  0
  142.2198   77.1496  220.8306 H   0  0  0  0  0  0  0  0  0  0  0  0
  140.4767   78.8516  221.3939 H   0  0  0  0  0  0  0  0  0  0  0  0
  137.8291   75.7208  222.7892 H   0  0  0  0  0  0  0  0  0  0  0  0
  140.5531   70.6872  221.5189 H   0  0  0  0  0  0  0  0  0  0  0  0
  138.3888   71.0102  223.1036 H   0  0  0  0  0  0  0  0  0  0  0  0
  140.8946   72.8689  224.8201 H   0  0  0  0  0  0  0  0  0  0  0  0
  141.7512   72.4206  227.0995 H   0  0  0  0  0  0  0  0  0  0  0  0
  141.3520   70.2310  228.1816 H   0  0  0  0  0  0  0  0  0  0  0  0
  139.2353   68.9427  224.7066 H   0  0  0  0  0  0  0  0  0  0  0  0
  143.4569   72.2696  221.9405 H   0  0  0  0  0  0  0  0  0  0  0  0
  142.2375   71.3217  220.9278 H   0  0  0  0  0  0  0  0  0  0  0  0
  143.0190   73.4123  219.3632 H   0  0  0  0  0  0  0  0  0  0  0  0
  143.9684   70.4769  219.6689 H   0  0  0  0  0  0  0  0  0  0  0  0
  142.4792   71.0478  218.7805 H   0  0  0  0  0  0  0  0  0  0  0  0
  144.4606   70.3556  217.3957 H   0  0  0  0  0  0  0  0  0  0  0  0
  143.7014   71.9879  217.0916 H   0  0  0  0  0  0  0  0  0  0  0  0
  146.1540   72.0040  217.1010 H   0  0  0  0  0  0  0  0  0  0  0  0
  146.4979   73.7076  218.7302 H   0  0  0  0  0  0  0  0  0  0  0  0
  144.8362   73.9576  218.1201 H   0  0  0  0  0  0  0  0  0  0  0  0
  145.5139   72.1650  220.5378 H   0  0  0  0  0  0  0  0  0  0  0  0
  145.0255   73.8563  220.7114 H   0  0  0  0  0  0  0  0  0  0  0  0
  1  2  2  0
  2  3  1  0
  3  4  2  0
  4  5  1  0
  5  6  2  0
  6  7  1  0
  6  8  1  0
  8  9  2  0
  9 10  1  0
 10 11  2  0
 11 12  1  0
 12 13  2  0
 13 14  1  0
 14 15  2  0
 15 16  1  0
 16 17  2  0
 17 18  1  0
 18 19  1  0
 18 20  2  0
 11 21  1  0
 21 22  1  0
 22 23  1  0
 23 24  1  0
 24 25  1  0
 25 26  1  0
 26 27  1  0
 27 28  1  0
 21  2  1  0
 28 23  1  0
  9  3  1  0
 20 14  1  0
  4 29  1  0
  5 30  1  0
  8 31  1  0
 12 32  1  0
 13 33  1  0
 15 34  1  0
 16 35  1  0
 17 36  1  0
 20 37  1  0
 22 38  1  0
 22 39  1  0
 23 40  1  0
 24 41  1  0
 24 42  1  0
 25 43  1  0
 25 44  1  0
 26 45  1  0
 27 46  1  0
 27 47  1  0
 28 48  1  0
 28 49  1  0
M  END
>  <smiles>  (12) 
O=c1c2ccc(Cl)cc2nc(/C=C/c2cccc(Cl)c2)n1CC1CCNCC1

>  <score_type>  (12) 
oracle

>  <origin>  (12) 
autodockgpu

>  <m_score__min__energy>  (12) 
-8.5299999999999994

>  <m_primary>  (12) 
energy

>  <rmsd>  (12) 
5.745467625171516

>  <m_score__min__rmsd>  (12) 
5.745467625171516

>  <meeko>  (12) 
{"free_energy": -8.03, "intermolecular_energy": -9.53, "internal_energy": -0.84, "cluster_size": 29, "cluster_id": 1, "rank_in_cluster": 24}

>  <energy>  (12) 
-8.39

>  <cluster_rmsd>  (12) 
1.07

>  <cluster>  (12) 
1

$$$$

     RDKit          3D

 49 52  0  0  0  0  0  0  0  0999 V2000
  142.2720   75.0860  218.7560 O   0  0  0  0  0  0  0  0  0  0  0  0
  141.7530   74.8530  219.8970 C   0  0  0  0  0  0  0  0  0  0  0  0
  141.3810   75.9380  220.6600 C   0  0  0  0  0  0  0  0  0  0  0  0
  141.5770   77.2220  220.1840 C   0  0  0  0  0  0  0  0  0  0  0  0
  141.1910   78.2960  220.9800 C   0  0  0  0  0  0  0  0  0  0  0  0
  140.6250   78.0730  222.2230 C   0  0  0  0  0  0  0  0  0  0  0  0
  140.1480   79.4440  223.2080 Cl  0  0  0  0  0  0  0  0  0  0  0  0
  140.4230   76.7800  222.7140 C   0  0  0  0  0  0  0  0  0  0  0  0
  140.8150   75.7360  221.9020 C   0  0  0  0  0  0  0  0  0  0  0  0
  140.6590   74.4590  222.2940 N   0  0  0  0  0  0  0  0  0  0  0  0
  141.0230   73.4050  221.5430 C   0  0  0  0  0  0  0  0  0  0  0  0
  140.7910   72.0560  222.0730 C   0  0  0  0  0  0  0  0  0  0  0  0
  139.8090   71.8450  222.9160 C   0  0  0  0  0  0  0  0  0  0  0  0
  139.9180   71.0590  224.1340 C   0  0  0  0  0  0  0  0  0  0  0  0
  139.5890   69.7300  224.2210 C   0  0  0  0  0  0  0  0  0  0  0  0
  139.7140   69.0290  225.4160 C   0  0  0  0  0  0  0  0  0  0  0  0
  140.1730   69.6570  226.5480 C   0  0  0  0  0  0  0  0  0  0  0  0
  140.5090   70.9870  226.4890 C   0  0  0  0  0  0  0  0  0  0  0  0
  141.0940   71.8240  227.8940 Cl  0  0  0  0  0  0  0  0  0  0  0  0
  140.3780   71.6590  225.3000 C   0  0  0  0  0  0  0  0  0  0  0  0
  141.5780   73.5690  220.3270 N   0  0  0  0  0  0  0  0  0  0  0  0
  142.0080   72.4960  219.4790 C   0  0  0  0  0  0  0  0  0  0  0  0
  143.4800   72.3580  219.2940 C   0  0  0  0  0  0  0  0  0  0  0  0
  144.1350   73.0740  220.4680 C   0  0  0  0  0  0  0  0  0  0  0  0
  145.6200   73.0630  220.4080 C   0  0  0  0  0  0  0  0  0  0  0  0
  146.1440   73.3940  219.1000 N   0  0  0  0  0  0  0  0  0  0  0  0
  145.5350   72.6460  218.0450 C   0  0  0  0  0  0  0  0  0  0  0  0
  144.0330   72.9630  218.0330 C   0  0  0  0  0  0  0  0  0  0  0  0
  142.0292   77.3907  219.1955 H   0  0  0  0  0  0  0  0  0  0  0  0
  141.3361   79.3253  220.6202 H   0  0  0  0  0  0  0  0  0  0  0  0
  139.9725   76.6032  223.7018 H   0  0  0  0  0  0  0  0  0  0  0  0
  141.4399   71.2234  221.7635 H   0  0  0  0  0  0  0  0  0  0  0  0
  138.8323   72.2952  222.6848 H   0  0  0  0  0  0  0  0  0  0  0  0
  139.2185   69.2076  223.3267 H   0  0  0  0  0  0  0  0  0  0  0  0
  139.4432   67.9636  225.4547 H   0  0  0  0  0  0  0  0  0  0  0  0
  140.2704   69.1004  227.4918 H   0  0  0  0  0  0  0  0  0  0  0  0
  140.6503   72.7243  225.2682 H   0  0  0  0  0  0  0  0  0  0  0  0
  141.6336   71.5558  219.9102 H   0  0  0  0  0  0  0  0  0  0  0  0
  141.6046   72.7267  218.4820 H   0  0  0  0  0  0  0  0  0  0  0  0
  143.6924   71.2805  219.2309 H   0  0  0  0  0  0  0  0  0  0  0  0
  143.7934   74.1196  220.4740 H   0  0  0  0  0  0  0  0  0  0  0  0
  143.8416   72.5372  221.3822 H   0  0  0  0  0  0  0  0  0  0  0  0
  146.0039   73.7956  221.1332 H   0  0  0  0  0  0  0  0  0  0  0  0
  145.9472   72.0387  220.6397 H   0  0  0  0  0  0  0  0  0  0  0  0
  147.1610   73.4870  219.0750 H   0  0  0  0  0  0  0  0  0  0  0  0
  145.9827   72.9303  217.0813 H   0  0  0  0  0  0  0  0  0  0  0  0
  145.6935   71.5691  218.2040 H   0  0  0  0  0  0  0  0  0  0  0  0
  143.8705   74.0509  218.0261 H   0  0  0  0  0  0  0  0  0  0  0  0
  143.5394   72.5576  217.1375 H   0  0  0  0  0  0  0  0  0  0  0  0
  1  2  2  0
  2  3  1  0
  3  4  2  0
  4  5  1  0
  5  6  2  0
  6  7  1  0
  6  8  1  0
  8  9  2  0
  9 10  1  0
 10 11  2  0
 11 12  1  0
 12 13  2  0
 13 14  1  0
 14 15  2  0
 15 16  1  0
 16 17  2  0
 17 18  1  0
 18 19  1  0
 18 20  2  0
 11 21  1  0
 21 22  1  0
 22 23  1  0
 23 24  1  0
 24 25  1  0
 25 26  1  0
 26 27  1  0
 27 28  1  0
 21  2  1  0
 28 23  1  0
  9  3  1  0
 20 14  1  0
  4 29  1  0
  5 30  1  0
  8 31  1  0
 12 32  1  0
 13 33  1  0
 15 34  1  0
 16 35  1  0
 17 36  1  0
 20 37  1  0
 22 38  1  0
 22 39  1  0
 23 40  1  0
 24 41  1  0
 24 42  1  0
 25 43  1  0
 25 44  1  0
 26 45  1  0
 27 46  1  0
 27 47  1  0
 28 48  1  0
 28 49  1  0
M  END
>  <smiles>  (13) 
O=c1c2ccc(Cl)cc2nc(/C=C/c2cccc(Cl)c2)n1CC1CCNCC1

>  <score_type>  (13) 
oracle

>  <origin>  (13) 
autodockgpu

>  <m_score__min__energy>  (13) 
-8.5299999999999994

>  <m_primary>  (13) 
energy

>  <rmsd>  (13) 
5.491033491034432

>  <m_score__min__rmsd>  (13) 
5.491033491034432

>  <meeko>  (13) 
{"free_energy": -8.49, "intermolecular_energy": -9.98, "internal_energy": -1.05, "cluster_size": 29, "cluster_id": 1, "rank_in_cluster": 5}

>  <energy>  (13) 
-8.38

>  <cluster_rmsd>  (13) 
1.13

>  <cluster>  (13) 
1

$$$$

     RDKit          3D

 49 52  0  0  0  0  0  0  0  0999 V2000
  136.5220   75.7350  222.4650 O   0  0  0  0  0  0  0  0  0  0  0  0
  137.7350   75.3670  222.3350 C   0  0  0  0  0  0  0  0  0  0  0  0
  138.7090   76.3350  222.4470 C   0  0  0  0  0  0  0  0  0  0  0  0
  138.3560   77.6500  222.6890 C   0  0  0  0  0  0  0  0  0  0  0  0
  139.3640   78.6040  222.7950 C   0  0  0  0  0  0  0  0  0  0  0  0
  140.6900   78.2330  222.6590 C   0  0  0  0  0  0  0  0  0  0  0  0
  141.9420   79.4540  222.7970 Cl  0  0  0  0  0  0  0  0  0  0  0  0
  141.0580   76.9070  222.4140 C   0  0  0  0  0  0  0  0  0  0  0  0
  140.0370   75.9850  222.3140 C   0  0  0  0  0  0  0  0  0  0  0  0
  140.2990   74.6860  222.0790 N   0  0  0  0  0  0  0  0  0  0  0  0
  139.3430   73.7470  221.9730 C   0  0  0  0  0  0  0  0  0  0  0  0
  139.7520   72.3590  221.7270 C   0  0  0  0  0  0  0  0  0  0  0  0
  140.6060   71.7770  222.5340 C   0  0  0  0  0  0  0  0  0  0  0  0
  140.2520   71.1350  223.7910 C   0  0  0  0  0  0  0  0  0  0  0  0
  139.4820   70.0040  223.8840 C   0  0  0  0  0  0  0  0  0  0  0  0
  139.1760   69.4350  225.1150 C   0  0  0  0  0  0  0  0  0  0  0  0
  139.6410   69.9980  226.2790 C   0  0  0  0  0  0  0  0  0  0  0  0
  140.4140   71.1310  226.2150 C   0  0  0  0  0  0  0  0  0  0  0  0
  141.0260   71.8790  227.6570 Cl  0  0  0  0  0  0  0  0  0  0  0  0
  140.7050   71.6750  224.9890 C   0  0  0  0  0  0  0  0  0  0  0  0
  138.0380   74.0570  222.0970 N   0  0  0  0  0  0  0  0  0  0  0  0
  136.9650   73.1140  221.9770 C   0  0  0  0  0  0  0  0  0  0  0  0
  136.4120   72.5870  223.2560 C   0  0  0  0  0  0  0  0  0  0  0  0
  136.3840   71.0710  223.1260 C   0  0  0  0  0  0  0  0  0  0  0  0
  135.8130   70.3880  224.3170 C   0  0  0  0  0  0  0  0  0  0  0  0
  134.5920   70.9990  224.7970 N   0  0  0  0  0  0  0  0  0  0  0  0
  134.6980   72.4160  224.9590 C   0  0  0  0  0  0  0  0  0  0  0  0
  135.0160   73.0360  223.5910 C   0  0  0  0  0  0  0  0  0  0  0  0
  137.2993   77.9365  222.7956 H   0  0  0  0  0  0  0  0  0  0  0  0
  139.1057   79.6558  222.9874 H   0  0  0  0  0  0  0  0  0  0  0  0
  142.1123   76.6126  222.3060 H   0  0  0  0  0  0  0  0  0  0  0  0
  139.3429   71.8081  220.8673 H   0  0  0  0  0  0  0  0  0  0  0  0
  141.6659   71.7738  222.2397 H   0  0  0  0  0  0  0  0  0  0  0  0
  139.0983   69.5370  222.9649 H   0  0  0  0  0  0  0  0  0  0  0  0
  138.5567   68.5269  225.1575 H   0  0  0  0  0  0  0  0  0  0  0  0
  139.3966   69.5459  227.2516 H   0  0  0  0  0  0  0  0  0  0  0  0
  141.3265   72.5819  224.9527 H   0  0  0  0  0  0  0  0  0  0  0  0
  136.1448   73.6051  221.4328 H   0  0  0  0  0  0  0  0  0  0  0  0
  137.3923   72.2434  221.4579 H   0  0  0  0  0  0  0  0  0  0  0  0
  137.0547   72.9712  224.0618 H   0  0  0  0  0  0  0  0  0  0  0  0
  135.7764   70.8072  222.2478 H   0  0  0  0  0  0  0  0  0  0  0  0
  137.4262   70.7337  223.0261 H   0  0  0  0  0  0  0  0  0  0  0  0
  135.5989   69.3425  224.0506 H   0  0  0  0  0  0  0  0  0  0  0  0
  136.5557   70.4663  225.1246 H   0  0  0  0  0  0  0  0  0  0  0  0
  134.1410   70.4790  225.5520 H   0  0  0  0  0  0  0  0  0  0  0  0
  133.7472   72.8191  225.3379 H   0  0  0  0  0  0  0  0  0  0  0  0
  135.4950   72.6563  225.6781 H   0  0  0  0  0  0  0  0  0  0  0  0
  134.3050   72.6768  222.8324 H   0  0  0  0  0  0  0  0  0  0  0  0
  134.9365   74.1329  223.6137 H   0  0  0  0  0  0  0  0  0  0  0  0
  1  2  2  0
  2  3  1  0
  3  4  2  0
  4  5  1  0
  5  6  2  0
  6  7  1  0
  6  8  1  0
  8  9  2  0
  9 10  1  0
 10 11  2  0
 11 12  1  0
 12 13  2  0
 13 14  1  0
 14 15  2  0
 15 16  1  0
 16 17  2  0
 17 18  1  0
 18 19  1  0
 18 20  2  0
 11 21  1  0
 21 22  1  0
 22 23  1  0
 23 24  1  0
 24 25  1  0
 25 26  1  0
 26 27  1  0
 27 28  1  0
 21  2  1  0
 28 23  1  0
  9  3  1  0
 20 14  1  0
  4 29  1  0
  5 30  1  0
  8 31  1  0
 12 32  1  0
 13 33  1  0
 15 34  1  0
 16 35  1  0
 17 36  1  0
 20 37  1  0
 22 38  1  0
 22 39  1  0
 23 40  1  0
 24 41  1  0
 24 42  1  0
 25 43  1  0
 25 44  1  0
 26 45  1  0
 27 46  1  0
 27 47  1  0
 28 48  1  0
 28 49  1  0
M  END
>  <smiles>  (14) 
O=c1c2ccc(Cl)cc2nc(/C=C/c2cccc(Cl)c2)n1CC1CCNCC1

>  <score_type>  (14) 
oracle

>  <origin>  (14) 
autodockgpu

>  <m_score__min__energy>  (14) 
-8.5299999999999994

>  <m_primary>  (14) 
energy

>  <rmsd>  (14) 
6.971347143231941

>  <m_score__min__rmsd>  (14) 
6.971347143231941

>  <meeko>  (14) 
{"free_energy": -7.59, "intermolecular_energy": -9.08, "internal_energy": -1.76, "cluster_size": 10, "cluster_id": 4, "rank_in_cluster": 5}

>  <energy>  (14) 
-8.35

>  <cluster_rmsd>  (14) 
0.12

>  <cluster>  (14) 
1

$$$$

     RDKit          3D

 49 52  0  0  0  0  0  0  0  0999 V2000
  142.8230   76.8630  218.8910 O   0  0  0  0  0  0  0  0  0  0  0  0
  142.1230   76.3440  219.8210 C   0  0  0  0  0  0  0  0  0  0  0  0
  141.5550   77.1960  220.7430 C   0  0  0  0  0  0  0  0  0  0  0  0
  141.7530   78.5620  220.6390 C   0  0  0  0  0  0  0  0  0  0  0  0
  141.1660   79.3950  221.5860 C   0  0  0  0  0  0  0  0  0  0  0  0
  140.4000   78.8590  222.6070 C   0  0  0  0  0  0  0  0  0  0  0  0
  139.6710   79.9310  223.7880 Cl  0  0  0  0  0  0  0  0  0  0  0  0
  140.1940   77.4810  222.7200 C   0  0  0  0  0  0  0  0  0  0  0  0
  140.7880   76.6810  221.7670 C   0  0  0  0  0  0  0  0  0  0  0  0
  140.6430   75.3440  221.7980 N   0  0  0  0  0  0  0  0  0  0  0  0
  141.2000   74.5180  220.8960 C   0  0  0  0  0  0  0  0  0  0  0  0
  140.9600   73.0760  221.0260 C   0  0  0  0  0  0  0  0  0  0  0  0
  139.8270   72.6450  221.5260 C   0  0  0  0  0  0  0  0  0  0  0  0
  139.6990   71.9130  222.7770 C   0  0  0  0  0  0  0  0  0  0  0  0
  140.6720   71.8700  223.7430 C   0  0  0  0  0  0  0  0  0  0  0  0
  140.4930   71.1510  224.9200 C   0  0  0  0  0  0  0  0  0  0  0  0
  139.3270   70.4600  225.1450 C   0  0  0  0  0  0  0  0  0  0  0  0
  138.3370   70.4860  224.1940 C   0  0  0  0  0  0  0  0  0  0  0  0
  136.8460   69.6290  224.4330 Cl  0  0  0  0  0  0  0  0  0  0  0  0
  138.5350   71.2010  223.0410 C   0  0  0  0  0  0  0  0  0  0  0  0
  141.9540   74.9900  219.8840 N   0  0  0  0  0  0  0  0  0  0  0  0
  142.5940   74.1710  218.8970 C   0  0  0  0  0  0  0  0  0  0  0  0
  143.9890   73.7490  219.2030 C   0  0  0  0  0  0  0  0  0  0  0  0
  143.9680   72.2320  219.3230 C   0  0  0  0  0  0  0  0  0  0  0  0
  145.2920   71.6510  219.6710 C   0  0  0  0  0  0  0  0  0  0  0  0
  145.9640   72.3560  220.7420 N   0  0  0  0  0  0  0  0  0  0  0  0
  146.0070   73.7720  220.5420 C   0  0  0  0  0  0  0  0  0  0  0  0
  144.5650   74.2940  220.4810 C   0  0  0  0  0  0  0  0  0  0  0  0
  142.3621   78.9803  219.8242 H   0  0  0  0  0  0  0  0  0  0  0  0
  141.3110   80.4836  221.5233 H   0  0  0  0  0  0  0  0  0  0  0  0
  139.5862   77.0546  223.5316 H   0  0  0  0  0  0  0  0  0  0  0  0
  141.7291   72.3582  220.7046 H   0  0  0  0  0  0  0  0  0  0  0  0
  138.9073   72.8517  220.9590 H   0  0  0  0  0  0  0  0  0  0  0  0
  141.6137   72.4157  223.5834 H   0  0  0  0  0  0  0  0  0  0  0  0
  141.2912   71.1354  225.6767 H   0  0  0  0  0  0  0  0  0  0  0  0
  139.1881   69.8922  226.0768 H   0  0  0  0  0  0  0  0  0  0  0  0
  137.7332   71.2116  222.2880 H   0  0  0  0  0  0  0  0  0  0  0  0
  141.9878   73.2620  218.7696 H   0  0  0  0  0  0  0  0  0  0  0  0
  142.6646   74.7955  217.9942 H   0  0  0  0  0  0  0  0  0  0  0  0
  144.6235   74.1415  218.3947 H   0  0  0  0  0  0  0  0  0  0  0  0
  143.2478   71.9537  220.1065 H   0  0  0  0  0  0  0  0  0  0  0  0
  143.6850   71.8312  218.3385 H   0  0  0  0  0  0  0  0  0  0  0  0
  145.1440   70.6058  219.9802 H   0  0  0  0  0  0  0  0  0  0  0  0
  145.9285   71.7333  218.7776 H   0  0  0  0  0  0  0  0  0  0  0  0
  146.8270   71.9060  221.0530 H   0  0  0  0  0  0  0  0  0  0  0  0
  146.5405   74.2496  221.3771 H   0  0  0  0  0  0  0  0  0  0  0  0
  146.5350   74.0067  219.6060 H   0  0  0  0  0  0  0  0  0  0  0  0
  143.9894   73.9327  221.3459 H   0  0  0  0  0  0  0  0  0  0  0  0
  144.5295   75.3931  220.5062 H   0  0  0  0  0  0  0  0  0  0  0  0
  1  2  2  0
  2  3  1  0
  3  4  2  0
  4  5  1  0
  5  6  2  0
  6  7  1  0
  6  8  1  0
  8  9  2  0
  9 10  1  0
 10 11  2  0
 11 12  1  0
 12 13  2  0
 13 14  1  0
 14 15  2  0
 15 16  1  0
 16 17  2  0
 17 18  1  0
 18 19  1  0
 18 20  2  0
 11 21  1  0
 21 22  1  0
 22 23  1  0
 23 24  1  0
 24 25  1  0
 25 26  1  0
 26 27  1  0
 27 28  1  0
 21  2  1  0
 28 23  1  0
  9  3  1  0
 20 14  1  0
  4 29  1  0
  5 30  1  0
  8 31  1  0
 12 32  1  0
 13 33  1  0
 15 34  1  0
 16 35  1  0
 17 36  1  0
 20 37  1  0
 22 38  1  0
 22 39  1  0
 23 40  1  0
 24 41  1  0
 24 42  1  0
 25 43  1  0
 25 44  1  0
 26 45  1  0
 27 46  1  0
 27 47  1  0
 28 48  1  0
 28 49  1  0
M  END
>  <smiles>  (15) 
O=c1c2ccc(Cl)cc2nc(/C=C/c2cccc(Cl)c2)n1CC1CCNCC1

>  <score_type>  (15) 
oracle

>  <origin>  (15) 
autodockgpu

>  <m_score__min__energy>  (15) 
-8.5299999999999994

>  <m_primary>  (15) 
energy

>  <rmsd>  (15) 
5.013403676687085

>  <m_score__min__rmsd>  (15) 
5.013403676687085

>  <meeko>  (15) 
{"free_energy": -7.54, "intermolecular_energy": -9.03, "internal_energy": -1.25, "cluster_size": 29, "cluster_id": 1, "rank_in_cluster": 29}

>  <energy>  (15) 
-8.34

>  <cluster_rmsd>  (15) 
1.02

>  <cluster>  (15) 
1

$$$$

     RDKit          3D

 49 52  0  0  0  0  0  0  0  0999 V2000
  142.6980   76.7190  218.9160 O   0  0  0  0  0  0  0  0  0  0  0  0
  141.9810   76.2950  219.8810 C   0  0  0  0  0  0  0  0  0  0  0  0
  141.5040   77.2270  220.7770 C   0  0  0  0  0  0  0  0  0  0  0  0
  141.8080   78.5670  220.6120 C   0  0  0  0  0  0  0  0  0  0  0  0
  141.3110   79.4830  221.5340 C   0  0  0  0  0  0  0  0  0  0  0  0
  140.5300   79.0520  222.5910 C   0  0  0  0  0  0  0  0  0  0  0  0
  139.9150   80.2260  223.7410 Cl  0  0  0  0  0  0  0  0  0  0  0  0
  140.2170   77.7010  222.7670 C   0  0  0  0  0  0  0  0  0  0  0  0
  140.7240   76.8170  221.8370 C   0  0  0  0  0  0  0  0  0  0  0  0
  140.4740   75.4980  221.9280 N   0  0  0  0  0  0  0  0  0  0  0  0
  140.9420   74.5940  221.0510 C   0  0  0  0  0  0  0  0  0  0  0  0
  140.5920   73.1830  221.2470 C   0  0  0  0  0  0  0  0  0  0  0  0
  141.0710   72.5290  222.2780 C   0  0  0  0  0  0  0  0  0  0  0  0
  140.2790   71.7010  223.1740 C   0  0  0  0  0  0  0  0  0  0  0  0
  139.1120   71.0790  222.8120 C   0  0  0  0  0  0  0  0  0  0  0  0
  138.3960   70.2980  223.7140 C   0  0  0  0  0  0  0  0  0  0  0  0
  138.8460   70.1310  225.0010 C   0  0  0  0  0  0  0  0  0  0  0  0
  140.0120   70.7430  225.3900 C   0  0  0  0  0  0  0  0  0  0  0  0
  140.6210   70.5610  227.0060 Cl  0  0  0  0  0  0  0  0  0  0  0  0
  140.7010   71.5080  224.4840 C   0  0  0  0  0  0  0  0  0  0  0  0
  141.7070   74.9630  220.0050 N   0  0  0  0  0  0  0  0  0  0  0  0
  142.2560   74.0560  219.0410 C   0  0  0  0  0  0  0  0  0  0  0  0
  143.6820   73.6730  219.2420 C   0  0  0  0  0  0  0  0  0  0  0  0
  143.7140   72.1550  219.3430 C   0  0  0  0  0  0  0  0  0  0  0  0
  145.0760   71.6110  219.5890 C   0  0  0  0  0  0  0  0  0  0  0  0
  145.8010   72.3240  220.6190 N   0  0  0  0  0  0  0  0  0  0  0  0
  145.7880   73.7420  220.4360 C   0  0  0  0  0  0  0  0  0  0  0  0
  144.3300   74.2210  220.4830 C   0  0  0  0  0  0  0  0  0  0  0  0
  142.4302   78.9013  219.7687 H   0  0  0  0  0  0  0  0  0  0  0  0
  141.5399   80.5531  221.4219 H   0  0  0  0  0  0  0  0  0  0  0  0
  139.5955   77.3587  223.6076 H   0  0  0  0  0  0  0  0  0  0  0  0
  139.9294   72.6747  220.5310 H   0  0  0  0  0  0  0  0  0  0  0  0
  142.1491   72.6127  222.4796 H   0  0  0  0  0  0  0  0  0  0  0  0
  138.7335   71.2000  221.7863 H   0  0  0  0  0  0  0  0  0  0  0  0
  137.4630   69.8109  223.3941 H   0  0  0  0  0  0  0  0  0  0  0  0
  138.2782   69.5135  225.7126 H   0  0  0  0  0  0  0  0  0  0  0  0
  141.6332   71.9925  224.8101 H   0  0  0  0  0  0  0  0  0  0  0  0
  141.6540   73.1357  219.0639 H   0  0  0  0  0  0  0  0  0  0  0  0
  142.2252   74.5904  218.0800 H   0  0  0  0  0  0  0  0  0  0  0  0
  144.2461   74.0932  218.3963 H   0  0  0  0  0  0  0  0  0  0  0  0
  143.0597   71.8462  220.1716 H   0  0  0  0  0  0  0  0  0  0  0  0
  143.3736   71.7566  218.3758 H   0  0  0  0  0  0  0  0  0  0  0  0
  144.9815   70.5583  219.8939 H   0  0  0  0  0  0  0  0  0  0  0  0
  145.6447   71.7229  218.6541 H   0  0  0  0  0  0  0  0  0  0  0  0
  146.6960   71.8970  220.8630 H   0  0  0  0  0  0  0  0  0  0  0  0
  146.3645   74.2258  221.2382 H   0  0  0  0  0  0  0  0  0  0  0  0
  146.2417   74.0034  219.4686 H   0  0  0  0  0  0  0  0  0  0  0  0
  143.8276   73.8331  221.3814 H   0  0  0  0  0  0  0  0  0  0  0  0
  144.2641   75.3182  220.5250 H   0  0  0  0  0  0  0  0  0  0  0  0
  1  2  2  0
  2  3  1  0
  3  4  2  0
  4  5  1  0
  5  6  2  0
  6  7  1  0
  6  8  1  0
  8  9  2  0
  9 10  1  0
 10 11  2  0
 11 12  1  0
 12 13  2  0
 13 14  1  0
 14 15  2  0
 15 16  1  0
 16 17  2  0
 17 18  1  0
 18 19  1  0
 18 20  2  0
 11 21  1  0
 21 22  1  0
 22 23  1  0
 23 24  1  0
 24 25  1  0
 25 26  1  0
 26 27  1  0
 27 28  1  0
 21  2  1  0
 28 23  1  0
  9  3  1  0
 20 14  1  0
  4 29  1  0
  5 30  1  0
  8 31  1  0
 12 32  1  0
 13 33  1  0
 15 34  1  0
 16 35  1  0
 17 36  1  0
 20 37  1  0
 22 38  1  0
 22 39  1  0
 23 40  1  0
 24 41  1  0
 24 42  1  0
 25 43  1  0
 25 44  1  0
 26 45  1  0
 27 46  1  0
 27 47  1  0
 28 48  1  0
 28 49  1  0
M  END
>  <smiles>  (16) 
O=c1c2ccc(Cl)cc2nc(/C=C/c2cccc(Cl)c2)n1CC1CCNCC1

>  <score_type>  (16) 
oracle

>  <origin>  (16) 
autodockgpu

>  <m_score__min__energy>  (16) 
-8.5299999999999994

>  <m_primary>  (16) 
energy

>  <rmsd>  (16) 
4.918755456267638

>  <m_score__min__rmsd>  (16) 
4.918755456267638

>  <meeko>  (16) 
{"free_energy": -8.02, "intermolecular_energy": -9.51, "internal_energy": -1.25, "cluster_size": 29, "cluster_id": 1, "rank_in_cluster": 25}

>  <energy>  (16) 
-8.34

>  <cluster_rmsd>  (16) 
0.15

>  <cluster>  (16) 
1

$$$$

     RDKit          3D

 49 52  0  0  0  0  0  0  0  0999 V2000
  142.4970   75.2860  218.9680 O   0  0  0  0  0  0  0  0  0  0  0  0
  141.8200   75.1590  220.0400 C   0  0  0  0  0  0  0  0  0  0  0  0
  141.5700   76.2980  220.7740 C   0  0  0  0  0  0  0  0  0  0  0  0
  142.0480   77.5220  220.3400 C   0  0  0  0  0  0  0  0  0  0  0  0
  141.7790   78.6530  221.1040 C   0  0  0  0  0  0  0  0  0  0  0  0
  141.0460   78.5460  222.2720 C   0  0  0  0  0  0  0  0  0  0  0  0
  140.7200   79.9870  223.2180 Cl  0  0  0  0  0  0  0  0  0  0  0  0
  140.5580   77.3140  222.7190 C   0  0  0  0  0  0  0  0  0  0  0  0
  140.8410   76.2110  221.9410 C   0  0  0  0  0  0  0  0  0  0  0  0
  140.4120   74.9870  222.2950 N   0  0  0  0  0  0  0  0  0  0  0  0
  140.6580   73.8790  221.5750 C   0  0  0  0  0  0  0  0  0  0  0  0
  140.1270   72.5990  222.0560 C   0  0  0  0  0  0  0  0  0  0  0  0
  140.8730   71.8220  222.8030 C   0  0  0  0  0  0  0  0  0  0  0  0
  140.4180   71.1470  224.0090 C   0  0  0  0  0  0  0  0  0  0  0  0
  139.5710   70.0680  224.0110 C   0  0  0  0  0  0  0  0  0  0  0  0
  139.1690   69.4640  225.1980 C   0  0  0  0  0  0  0  0  0  0  0  0
  139.6140   69.9390  226.4080 C   0  0  0  0  0  0  0  0  0  0  0  0
  140.4620   71.0190  226.4340 C   0  0  0  0  0  0  0  0  0  0  0  0
  141.0520   71.6550  227.9390 Cl  0  0  0  0  0  0  0  0  0  0  0  0
  140.8460   71.5990  225.2520 C   0  0  0  0  0  0  0  0  0  0  0  0
  141.3670   73.9310  220.4310 N   0  0  0  0  0  0  0  0  0  0  0  0
  141.6860   72.7920  219.6200 C   0  0  0  0  0  0  0  0  0  0  0  0
  143.1260   72.4150  219.5600 C   0  0  0  0  0  0  0  0  0  0  0  0
  143.8160   73.1510  220.7010 C   0  0  0  0  0  0  0  0  0  0  0  0
  145.2830   72.9110  220.7530 C   0  0  0  0  0  0  0  0  0  0  0  0
  145.9270   73.0110  219.4610 N   0  0  0  0  0  0  0  0  0  0  0  0
  145.2700   72.2500  218.4450 C   0  0  0  0  0  0  0  0  0  0  0  0
  143.8390   72.7860  218.2890 C   0  0  0  0  0  0  0  0  0  0  0  0
  142.6292   77.5991  219.4093 H   0  0  0  0  0  0  0  0  0  0  0  0
  142.1505   79.6357  220.7781 H   0  0  0  0  0  0  0  0  0  0  0  0
  139.9754   77.2287  223.6481 H   0  0  0  0  0  0  0  0  0  0  0  0
  139.1047   72.2918  221.7904 H   0  0  0  0  0  0  0  0  0  0  0  0
  141.9182   71.6693  222.4960 H   0  0  0  0  0  0  0  0  0  0  0  0
  139.2017   69.6718  223.0536 H   0  0  0  0  0  0  0  0  0  0  0  0
  138.4896   68.5994  225.1676 H   0  0  0  0  0  0  0  0  0  0  0  0
  139.2947   69.4598  227.3452 H   0  0  0  0  0  0  0  0  0  0  0  0
  141.5253   72.4634  225.2893 H   0  0  0  0  0  0  0  0  0  0  0  0
  141.1289   71.9302  220.0162 H   0  0  0  0  0  0  0  0  0  0  0  0
  141.4103   73.0731  218.5929 H   0  0  0  0  0  0  0  0  0  0  0  0
  143.1700   71.3176  219.6222 H   0  0  0  0  0  0  0  0  0  0  0  0
  143.6428   74.2301  220.5759 H   0  0  0  0  0  0  0  0  0  0  0  0
  143.3896   72.7693  221.6404 H   0  0  0  0  0  0  0  0  0  0  0  0
  145.7345   73.6545  221.4263 H   0  0  0  0  0  0  0  0  0  0  0  0
  145.4316   71.8817  221.1115 H   0  0  0  0  0  0  0  0  0  0  0  0
  146.9460   72.9470  219.5020 H   0  0  0  0  0  0  0  0  0  0  0  0
  145.8119   72.3543  217.4934 H   0  0  0  0  0  0  0  0  0  0  0  0
  145.2475   71.1862  218.7238 H   0  0  0  0  0  0  0  0  0  0  0  0
  143.8503   73.8784  218.1602 H   0  0  0  0  0  0  0  0  0  0  0  0
  143.3404   72.3624  217.4047 H   0  0  0  0  0  0  0  0  0  0  0  0
  1  2  2  0
  2  3  1  0
  3  4  2  0
  4  5  1  0
  5  6  2  0
  6  7  1  0
  6  8  1  0
  8  9  2  0
  9 10  1  0
 10 11  2  0
 11 12  1  0
 12 13  2  0
 13 14  1  0
 14 15  2  0
 15 16  1  0
 16 17  2  0
 17 18  1  0
 18 19  1  0
 18 20  2  0
 11 21  1  0
 21 22  1  0
 22 23  1  0
 23 24  1  0
 24 25  1  0
 25 26  1  0
 26 27  1  0
 27 28  1  0
 21  2  1  0
 28 23  1  0
  9  3  1  0
 20 14  1  0
  4 29  1  0
  5 30  1  0
  8 31  1  0
 12 32  1  0
 13 33  1  0
 15 34  1  0
 16 35  1  0
 17 36  1  0
 20 37  1  0
 22 38  1  0
 22 39  1  0
 23 40  1  0
 24 41  1  0
 24 42  1  0
 25 43  1  0
 25 44  1  0
 26 45  1  0
 27 46  1  0
 27 47  1  0
 28 48  1  0
 28 49  1  0
M  END
>  <smiles>  (17) 
O=c1c2ccc(Cl)cc2nc(/C=C/c2cccc(Cl)c2)n1CC1CCNCC1

>  <score_type>  (17) 
oracle

>  <origin>  (17) 
autodockgpu

>  <m_score__min__energy>  (17) 
-8.5299999999999994

>  <m_primary>  (17) 
energy

>  <rmsd>  (17) 
5.2559697069817055

>  <m_score__min__rmsd>  (17) 
5.2559697069817055

>  <meeko>  (17) 
{"free_energy": -8.45, "intermolecular_energy": -9.94, "internal_energy": -1.03, "cluster_size": 29, "cluster_id": 1, "rank_in_cluster": 7}

>  <energy>  (17) 
-8.32

>  <cluster_rmsd>  (17) 
1.16

>  <cluster>  (17) 
1

$$$$

     RDKit          3D

 49 52  0  0  0  0  0  0  0  0999 V2000
  135.9620   73.2320  222.5100 O   0  0  0  0  0  0  0  0  0  0  0  0
  136.9040   72.4290  222.8150 C   0  0  0  0  0  0  0  0  0  0  0  0
  138.1650   72.7170  222.3400 C   0  0  0  0  0  0  0  0  0  0  0  0
  138.3740   73.8420  221.5630 C   0  0  0  0  0  0  0  0  0  0  0  0
  139.6590   74.1040  221.0990 C   0  0  0  0  0  0  0  0  0  0  0  0
  140.7010   73.2500  221.4150 C   0  0  0  0  0  0  0  0  0  0  0  0
  142.3120   73.6020  220.8170 Cl  0  0  0  0  0  0  0  0  0  0  0  0
  140.5000   72.1100  222.1990 C   0  0  0  0  0  0  0  0  0  0  0  0
  139.2160   71.8770  222.6440 C   0  0  0  0  0  0  0  0  0  0  0  0
  138.9320   70.8050  223.4050 N   0  0  0  0  0  0  0  0  0  0  0  0
  137.6990   70.5300  223.8650 C   0  0  0  0  0  0  0  0  0  0  0  0
  137.5130   69.3350  224.6970 C   0  0  0  0  0  0  0  0  0  0  0  0
  138.5530   68.6210  225.0550 C   0  0  0  0  0  0  0  0  0  0  0  0
  139.4070   68.9160  226.1940 C   0  0  0  0  0  0  0  0  0  0  0  0
  139.8100   67.9800  227.1130 C   0  0  0  0  0  0  0  0  0  0  0  0
  140.6290   68.3220  228.1840 C   0  0  0  0  0  0  0  0  0  0  0  0
  141.0560   69.6170  228.3510 C   0  0  0  0  0  0  0  0  0  0  0  0
  140.6670   70.5740  227.4460 C   0  0  0  0  0  0  0  0  0  0  0  0
  141.1810   72.2240  227.6130 Cl  0  0  0  0  0  0  0  0  0  0  0  0
  139.8600   70.2140  226.3960 C   0  0  0  0  0  0  0  0  0  0  0  0
  136.6520   71.3300  223.5850 N   0  0  0  0  0  0  0  0  0  0  0  0
  135.3080   71.0920  224.0240 C   0  0  0  0  0  0  0  0  0  0  0  0
  134.8590   71.8750  225.2080 C   0  0  0  0  0  0  0  0  0  0  0  0
  134.3320   70.8680  226.2220 C   0  0  0  0  0  0  0  0  0  0  0  0
  133.8010   71.5010  227.4580 C   0  0  0  0  0  0  0  0  0  0  0  0
  132.9430   72.6370  227.1980 N   0  0  0  0  0  0  0  0  0  0  0  0
  133.5170   73.5780  226.2880 C   0  0  0  0  0  0  0  0  0  0  0  0
  133.7600   72.8680  224.9490 C   0  0  0  0  0  0  0  0  0  0  0  0
  137.5405   74.5163  221.3168 H   0  0  0  0  0  0  0  0  0  0  0  0
  139.8474   74.9928  220.4789 H   0  0  0  0  0  0  0  0  0  0  0  0
  141.3280   71.4304  222.4493 H   0  0  0  0  0  0  0  0  0  0  0  0
  136.5037   69.0392  225.0194 H   0  0  0  0  0  0  0  0  0  0  0  0
  138.7968   67.7352  224.4500 H   0  0  0  0  0  0  0  0  0  0  0  0
  139.4784   66.9373  227.0003 H   0  0  0  0  0  0  0  0  0  0  0  0
  140.9374   67.5490  228.9033 H   0  0  0  0  0  0  0  0  0  0  0  0
  141.7022   69.8844  229.2000 H   0  0  0  0  0  0  0  0  0  0  0  0
  139.5569   70.9912  225.6790 H   0  0  0  0  0  0  0  0  0  0  0  0
  134.6339   71.3300  223.1880 H   0  0  0  0  0  0  0  0  0  0  0  0
  135.2813   70.0382  224.3383 H   0  0  0  0  0  0  0  0  0  0  0  0
  135.7251   72.4634  225.5451 H   0  0  0  0  0  0  0  0  0  0  0  0
  133.5238   70.2890  225.7514 H   0  0  0  0  0  0  0  0  0  0  0  0
  135.1786   70.2318  226.5196 H   0  0  0  0  0  0  0  0  0  0  0  0
  133.2239   70.7483  228.0152 H   0  0  0  0  0  0  0  0  0  0  0  0
  134.6644   71.8701  228.0309 H   0  0  0  0  0  0  0  0  0  0  0  0
  132.4950   73.0150  228.0350 H   0  0  0  0  0  0  0  0  0  0  0  0
  132.8270   74.4220  226.1415 H   0  0  0  0  0  0  0  0  0  0  0  0
  134.4657   73.9633  226.6900 H   0  0  0  0  0  0  0  0  0  0  0  0
  132.8470   72.3517  224.6175 H   0  0  0  0  0  0  0  0  0  0  0  0
  134.0345   73.5796  224.1563 H   0  0  0  0  0  0  0  0  0  0  0  0
  1  2  2  0
  2  3  1  0
  3  4  2  0
  4  5  1  0
  5  6  2  0
  6  7  1  0
  6  8  1  0
  8  9  2  0
  9 10  1  0
 10 11  2  0
 11 12  1  0
 12 13  2  0
 13 14  1  0
 14 15  2  0
 15 16  1  0
 16 17  2  0
 17 18  1  0
 18 19  1  0
 18 20  2  0
 11 21  1  0
 21 22  1  0
 22 23  1  0
 23 24  1  0
 24 25  1  0
 25 26  1  0
 26 27  1  0
 27 28  1  0
 21  2  1  0
 28 23  1  0
  9  3  1  0
 20 14  1  0
  4 29  1  0
  5 30  1  0
  8 31  1  0
 12 32  1  0
 13 33  1  0
 15 34  1  0
 16 35  1  0
 17 36  1  0
 20 37  1  0
 22 38  1  0
 22 39  1  0
 23 40  1  0
 24 41  1  0
 24 42  1  0
 25 43  1  0
 25 44  1  0
 26 45  1  0
 27 46  1  0
 27 47  1  0
 28 48  1  0
 28 49  1  0
M  END
>  <smiles>  (18) 
O=c1c2ccc(Cl)cc2nc(/C=C/c2cccc(Cl)c2)n1CC1CCNCC1

>  <score_type>  (18) 
oracle

>  <origin>  (18) 
autodockgpu

>  <m_score__min__energy>  (18) 
-8.5299999999999994

>  <m_primary>  (18) 
energy

>  <rmsd>  (18) 
10.140127822666496

>  <m_score__min__rmsd>  (18) 
10.140127822666496

>  <meeko>  (18) 
{"free_energy": -8.09, "intermolecular_energy": -9.58, "internal_energy": -1.4, "cluster_size": 1, "cluster_id": 2, "rank_in_cluster": 1}

>  <energy>  (18) 
-8.19

>  <cluster_rmsd>  (18) 
1.28

>  <cluster>  (18) 
1

$$$$

     RDKit          3D

 49 52  0  0  0  0  0  0  0  0999 V2000
  142.4490   76.0350  217.0770 O   0  0  0  0  0  0  0  0  0  0  0  0
  142.1390   76.6750  218.1350 C   0  0  0  0  0  0  0  0  0  0  0  0
  142.1610   78.0510  218.0760 C   0  0  0  0  0  0  0  0  0  0  0  0
  142.5120   78.6900  216.9000 C   0  0  0  0  0  0  0  0  0  0  0  0
  142.5260   80.0810  216.8740 C   0  0  0  0  0  0  0  0  0  0  0  0
  142.1930   80.8020  218.0080 C   0  0  0  0  0  0  0  0  0  0  0  0
  142.2170   82.5550  217.9490 Cl  0  0  0  0  0  0  0  0  0  0  0  0
  141.8360   80.1660  219.2000 C   0  0  0  0  0  0  0  0  0  0  0  0
  141.8320   78.7870  219.1950 C   0  0  0  0  0  0  0  0  0  0  0  0
  141.5020   78.0920  220.2990 N   0  0  0  0  0  0  0  0  0  0  0  0
  141.4810   76.7490  220.3490 C   0  0  0  0  0  0  0  0  0  0  0  0
  141.0930   76.1020  221.6080 C   0  0  0  0  0  0  0  0  0  0  0  0
  140.1360   76.6200  222.3400 C   0  0  0  0  0  0  0  0  0  0  0  0
  140.1200   77.9870  222.8350 C   0  0  0  0  0  0  0  0  0  0  0  0
  138.9740   78.7020  223.0760 C   0  0  0  0  0  0  0  0  0  0  0  0
  139.0220   80.0090  223.5510 C   0  0  0  0  0  0  0  0  0  0  0  0
  140.2290   80.6200  223.7900 C   0  0  0  0  0  0  0  0  0  0  0  0
  141.3910   79.9270  223.5570 C   0  0  0  0  0  0  0  0  0  0  0  0
  142.9400   80.6570  223.8450 Cl  0  0  0  0  0  0  0  0  0  0  0  0
  141.3210   78.6400  223.0900 C   0  0  0  0  0  0  0  0  0  0  0  0
  141.7980   76.0030  219.2730 N   0  0  0  0  0  0  0  0  0  0  0  0
  141.8170   74.5690  219.2570 C   0  0  0  0  0  0  0  0  0  0  0  0
  143.1370   73.9300  219.5170 C   0  0  0  0  0  0  0  0  0  0  0  0
  142.8530   72.6390  220.2720 C   0  0  0  0  0  0  0  0  0  0  0  0
  144.0850   71.8940  220.6470 C   0  0  0  0  0  0  0  0  0  0  0  0
  145.1150   72.7390  221.2120 N   0  0  0  0  0  0  0  0  0  0  0  0
  145.3810   73.9030  220.4270 C   0  0  0  0  0  0  0  0  0  0  0  0
  144.0940   74.7370  220.3490 C   0  0  0  0  0  0  0  0  0  0  0  0
  142.7748   78.1097  216.0033 H   0  0  0  0  0  0  0  0  0  0  0  0
  142.8025   80.6094  215.9497 H   0  0  0  0  0  0  0  0  0  0  0  0
  141.5704   80.7389  220.1007 H   0  0  0  0  0  0  0  0  0  0  0  0
  141.6036   75.1849  221.9368 H   0  0  0  0  0  0  0  0  0  0  0  0
  139.2841   75.9737  222.5980 H   0  0  0  0  0  0  0  0  0  0  0  0
  137.9969   78.2322  222.8898 H   0  0  0  0  0  0  0  0  0  0  0  0
  138.0865   80.5571  223.7365 H   0  0  0  0  0  0  0  0  0  0  0  0
  140.2641   81.6538  224.1642 H   0  0  0  0  0  0  0  0  0  0  0  0
  142.2605   78.0975  222.9081 H   0  0  0  0  0  0  0  0  0  0  0  0
  141.1145   74.2146  220.0257 H   0  0  0  0  0  0  0  0  0  0  0  0
  141.5452   74.2805  218.2309 H   0  0  0  0  0  0  0  0  0  0  0  0
  143.6242   73.7983  218.5396 H   0  0  0  0  0  0  0  0  0  0  0  0
  142.3009   72.8860  221.1908 H   0  0  0  0  0  0  0  0  0  0  0  0
  142.2711   71.9901  219.6009 H   0  0  0  0  0  0  0  0  0  0  0  0
  143.8171   71.1268  221.3884 H   0  0  0  0  0  0  0  0  0  0  0  0
  144.4934   71.4545  219.7250 H   0  0  0  0  0  0  0  0  0  0  0  0
  145.9240   72.2220  221.5630 H   0  0  0  0  0  0  0  0  0  0  0  0
  146.1796   74.4948  220.8982 H   0  0  0  0  0  0  0  0  0  0  0  0
  145.7060   73.6126  219.4170 H   0  0  0  0  0  0  0  0  0  0  0  0
  143.6822   74.9021  221.3556 H   0  0  0  0  0  0  0  0  0  0  0  0
  144.2783   75.7284  219.9094 H   0  0  0  0  0  0  0  0  0  0  0  0
  1  2  2  0
  2  3  1  0
  3  4  2  0
  4  5  1  0
  5  6  2  0
  6  7  1  0
  6  8  1  0
  8  9  2  0
  9 10  1  0
 10 11  2  0
 11 12  1  0
 12 13  2  0
 13 14  1  0
 14 15  2  0
 15 16  1  0
 16 17  2  0
 17 18  1  0
 18 19  1  0
 18 20  2  0
 11 21  1  0
 21 22  1  0
 22 23  1  0
 23 24  1  0
 24 25  1  0
 25 26  1  0
 26 27  1  0
 27 28  1  0
 21  2  1  0
 28 23  1  0
  9  3  1  0
 20 14  1  0
  4 29  1  0
  5 30  1  0
  8 31  1  0
 12 32  1  0
 13 33  1  0
 15 34  1  0
 16 35  1  0
 17 36  1  0
 20 37  1  0
 22 38  1  0
 22 39  1  0
 23 40  1  0
 24 41  1  0
 24 42  1  0
 25 43  1  0
 25 44  1  0
 26 45  1  0
 27 46  1  0
 27 47  1  0
 28 48  1  0
 28 49  1  0
M  END
>  <smiles>  (19) 
O=c1c2ccc(Cl)cc2nc(/C=C/c2cccc(Cl)c2)n1CC1CCNCC1

>  <score_type>  (19) 
oracle

>  <origin>  (19) 
autodockgpu

>  <m_score__min__energy>  (19) 
-8.5299999999999994

>  <m_primary>  (19) 
energy

>  <rmsd>  (19) 
4.987597442361771

>  <m_score__min__rmsd>  (19) 
4.987597442361771

>  <meeko>  (19) 
{"free_energy": -7.31, "intermolecular_energy": -8.81, "internal_energy": -1.47, "cluster_size": 2, "cluster_id": 5, "rank_in_cluster": 1}

>  <energy>  (19) 
-8.16

>  <cluster_rmsd>  (19) 
1.32

>  <cluster>  (19) 
1

$$$$

     RDKit          3D

 49 52  0  0  0  0  0  0  0  0999 V2000
  142.5910   75.0080  219.3400 O   0  0  0  0  0  0  0  0  0  0  0  0
  141.7760   74.8690  220.3100 C   0  0  0  0  0  0  0  0  0  0  0  0
  141.3540   76.0110  220.9560 C   0  0  0  0  0  0  0  0  0  0  0  0
  141.8140   77.2500  220.5480 C   0  0  0  0  0  0  0  0  0  0  0  0
  141.3690   78.3830  221.2220 C   0  0  0  0  0  0  0  0  0  0  0  0
  140.4830   78.2620  222.2770 C   0  0  0  0  0  0  0  0  0  0  0  0
  139.9370   79.7060  223.1110 Cl  0  0  0  0  0  0  0  0  0  0  0  0
  140.0120   77.0150  222.6980 C   0  0  0  0  0  0  0  0  0  0  0  0
  140.4700   75.9100  222.0110 C   0  0  0  0  0  0  0  0  0  0  0  0
  140.0700   74.6710  222.3470 N   0  0  0  0  0  0  0  0  0  0  0  0
  140.4850   73.5620  221.7120 C   0  0  0  0  0  0  0  0  0  0  0  0
  139.9680   72.2640  222.1620 C   0  0  0  0  0  0  0  0  0  0  0  0
  140.7520   71.4390  222.8130 C   0  0  0  0  0  0  0  0  0  0  0  0
  140.5800   71.0600  224.2070 C   0  0  0  0  0  0  0  0  0  0  0  0
  140.8740   71.8810  225.2660 C   0  0  0  0  0  0  0  0  0  0  0  0
  140.6890   71.4620  226.5800 C   0  0  0  0  0  0  0  0  0  0  0  0
  140.2040   70.2060  226.8500 C   0  0  0  0  0  0  0  0  0  0  0  0
  139.9020   69.3640  225.8080 C   0  0  0  0  0  0  0  0  0  0  0  0
  139.2850   67.7670  226.0990 Cl  0  0  0  0  0  0  0  0  0  0  0  0
  140.0910   69.7970  224.5210 C   0  0  0  0  0  0  0  0  0  0  0  0
  141.3470   73.6260  220.6790 N   0  0  0  0  0  0  0  0  0  0  0  0
  141.8480   72.4870  219.9670 C   0  0  0  0  0  0  0  0  0  0  0  0
  143.2970   72.5150  219.6260 C   0  0  0  0  0  0  0  0  0  0  0  0
  143.6390   71.1420  219.0660 C   0  0  0  0  0  0  0  0  0  0  0  0
  145.0760   70.9910  218.7120 C   0  0  0  0  0  0  0  0  0  0  0  0
  145.9730   71.4950  219.7310 N   0  0  0  0  0  0  0  0  0  0  0  0
  145.6380   72.8130  220.1720 C   0  0  0  0  0  0  0  0  0  0  0  0
  144.2280   72.7760  220.7780 C   0  0  0  0  0  0  0  0  0  0  0  0
  142.5178   77.3379  219.7072 H   0  0  0  0  0  0  0  0  0  0  0  0
  141.7230   79.3781  220.9147 H   0  0  0  0  0  0  0  0  0  0  0  0
  139.3086   76.9193  223.5383 H   0  0  0  0  0  0  0  0  0  0  0  0
  138.9249   71.9840  221.9535 H   0  0  0  0  0  0  0  0  0  0  0  0
  141.6005   71.0022  222.2660 H   0  0  0  0  0  0  0  0  0  0  0  0
  141.2639   72.8912  225.0725 H   0  0  0  0  0  0  0  0  0  0  0  0
  140.9332   72.1424  227.4091 H   0  0  0  0  0  0  0  0  0  0  0  0
  140.0589   69.8778  227.8898 H   0  0  0  0  0  0  0  0  0  0  0  0
  139.8437   69.1118  223.6967 H   0  0  0  0  0  0  0  0  0  0  0  0
  141.6653   71.5963  220.5860 H   0  0  0  0  0  0  0  0  0  0  0  0
  141.3171   72.4829  219.0036 H   0  0  0  0  0  0  0  0  0  0  0  0
  143.4417   73.3505  218.9253 H   0  0  0  0  0  0  0  0  0  0  0  0
  143.3841   70.3838  219.8211 H   0  0  0  0  0  0  0  0  0  0  0  0
  143.0606   71.0154  218.1390 H   0  0  0  0  0  0  0  0  0  0  0  0
  145.2873   69.9225  218.5584 H   0  0  0  0  0  0  0  0  0  0  0  0
  145.2513   71.5833  217.8018 H   0  0  0  0  0  0  0  0  0  0  0  0
  146.9580   71.3060  219.5410 H   0  0  0  0  0  0  0  0  0  0  0  0
  146.3605   73.1457  220.9318 H   0  0  0  0  0  0  0  0  0  0  0  0
  145.6677   73.5144  219.3252 H   0  0  0  0  0  0  0  0  0  0  0  0
  144.1517   71.9703  221.5230 H   0  0  0  0  0  0  0  0  0  0  0  0
  143.9827   73.7163  221.2934 H   0  0  0  0  0  0  0  0  0  0  0  0
  1  2  2  0
  2  3  1  0
  3  4  2  0
  4  5  1  0
  5  6  2  0
  6  7  1  0
  6  8  1  0
  8  9  2  0
  9 10  1  0
 10 11  2  0
 11 12  1  0
 12 13  2  0
 13 14  1  0
 14 15  2  0
 15 16  1  0
 16 17  2  0
 17 18  1  0
 18 19  1  0
 18 20  2  0
 11 21  1  0
 21 22  1  0
 22 23  1  0
 23 24  1  0
 24 25  1  0
 25 26  1  0
 26 27  1  0
 27 28  1  0
 21  2  1  0
 28 23  1  0
  9  3  1  0
 20 14  1  0
  4 29  1  0
  5 30  1  0
  8 31  1  0
 12 32  1  0
 13 33  1  0
 15 34  1  0
 16 35  1  0
 17 36  1  0
 20 37  1  0
 22 38  1  0
 22 39  1  0
 23 40  1  0
 24 41  1  0
 24 42  1  0
 25 43  1  0
 25 44  1  0
 26 45  1  0
 27 46  1  0
 27 47  1  0
 28 48  1  0
 28 49  1  0
M  END
>  <smiles>  (20) 
O=c1c2ccc(Cl)cc2nc(/C=C/c2cccc(Cl)c2)n1CC1CCNCC1

>  <score_type>  (20) 
oracle

>  <origin>  (20) 
autodockgpu

>  <m_score__min__energy>  (20) 
-8.5299999999999994

>  <m_primary>  (20) 
energy

>  <rmsd>  (20) 
5.612454693732684

>  <m_score__min__rmsd>  (20) 
5.612454693732684

>  <meeko>  (20) 
{"free_energy": -7.96, "intermolecular_energy": -9.45, "internal_energy": -0.94, "cluster_size": 29, "cluster_id": 1, "rank_in_cluster": 26}

>  <energy>  (20) 
-8.16

>  <cluster_rmsd>  (20) 
1.33

>  <cluster>  (20) 
1

$$$$

     RDKit          3D

 49 52  0  0  0  0  0  0  0  0999 V2000
  142.8830   76.5630  219.0590 O   0  0  0  0  0  0  0  0  0  0  0  0
  142.1250   76.1250  219.9850 C   0  0  0  0  0  0  0  0  0  0  0  0
  141.5620   77.0490  220.8370 C   0  0  0  0  0  0  0  0  0  0  0  0
  141.8270   78.3970  220.6730 C   0  0  0  0  0  0  0  0  0  0  0  0
  141.2440   79.3050  221.5510 C   0  0  0  0  0  0  0  0  0  0  0  0
  140.4150   78.8580  222.5650 C   0  0  0  0  0  0  0  0  0  0  0  0
  139.6920   80.0230  223.6600 Cl  0  0  0  0  0  0  0  0  0  0  0  0
  140.1410   77.4980  222.7400 C   0  0  0  0  0  0  0  0  0  0  0  0
  140.7330   76.6230  221.8540 C   0  0  0  0  0  0  0  0  0  0  0  0
  140.5250   75.2970  221.9480 N   0  0  0  0  0  0  0  0  0  0  0  0
  141.0770   74.4010  221.1130 C   0  0  0  0  0  0  0  0  0  0  0  0
  140.7650   72.9800  221.3070 C   0  0  0  0  0  0  0  0  0  0  0  0
  139.7630   72.6300  222.0760 C   0  0  0  0  0  0  0  0  0  0  0  0
  139.8240   71.5970  223.0980 C   0  0  0  0  0  0  0  0  0  0  0  0
  139.4080   70.3040  222.9060 C   0  0  0  0  0  0  0  0  0  0  0  0
  139.4910   69.3580  223.9230 C   0  0  0  0  0  0  0  0  0  0  0  0
  139.9950   69.6990  225.1540 C   0  0  0  0  0  0  0  0  0  0  0  0
  140.4180   70.9870  225.3730 C   0  0  0  0  0  0  0  0  0  0  0  0
  141.0630   71.4670  226.9120 Cl  0  0  0  0  0  0  0  0  0  0  0  0
  140.3280   71.9040  224.3560 C   0  0  0  0  0  0  0  0  0  0  0  0
  141.8900   74.7850  220.1100 N   0  0  0  0  0  0  0  0  0  0  0  0
  142.5290   73.8870  219.1930 C   0  0  0  0  0  0  0  0  0  0  0  0
  143.9710   73.6120  219.4450 C   0  0  0  0  0  0  0  0  0  0  0  0
  144.1460   72.1020  219.3670 C   0  0  0  0  0  0  0  0  0  0  0  0
  145.5380   71.6560  219.6400 C   0  0  0  0  0  0  0  0  0  0  0  0
  146.1290   72.2970  220.7950 N   0  0  0  0  0  0  0  0  0  0  0  0
  145.9880   73.7200  220.7810 C   0  0  0  0  0  0  0  0  0  0  0  0
  144.4900   74.0560  220.7840 C   0  0  0  0  0  0  0  0  0  0  0  0
  142.4862   78.7442  219.8637 H   0  0  0  0  0  0  0  0  0  0  0  0
  141.4425   80.3811  221.4390 H   0  0  0  0  0  0  0  0  0  0  0  0
  139.4836   77.1427  223.5472 H   0  0  0  0  0  0  0  0  0  0  0  0
  141.3713   72.2098  220.8077 H   0  0  0  0  0  0  0  0  0  0  0  0
  138.8066   73.1556  221.9385 H   0  0  0  0  0  0  0  0  0  0  0  0
  139.0004   70.0089  221.9278 H   0  0  0  0  0  0  0  0  0  0  0  0
  139.1500   68.3284  223.7394 H   0  0  0  0  0  0  0  0  0  0  0  0
  140.0592   68.9487  225.9559 H   0  0  0  0  0  0  0  0  0  0  0  0
  140.6714   72.9316  224.5458 H   0  0  0  0  0  0  0  0  0  0  0  0
  141.9918   72.9279  219.2320 H   0  0  0  0  0  0  0  0  0  0  0  0
  142.4894   74.3861  218.2136 H   0  0  0  0  0  0  0  0  0  0  0  0
  144.5384   74.1840  218.6961 H   0  0  0  0  0  0  0  0  0  0  0  0
  143.4784   71.6346  220.1059 H   0  0  0  0  0  0  0  0  0  0  0  0
  143.9028   71.7987  218.3380 H   0  0  0  0  0  0  0  0  0  0  0  0
  145.5292   70.5693  219.8103 H   0  0  0  0  0  0  0  0  0  0  0  0
  146.1461   71.9342  218.7666 H   0  0  0  0  0  0  0  0  0  0  0  0
  147.0460   71.9250  221.0480 H   0  0  0  0  0  0  0  0  0  0  0  0
  146.4674   74.1501  221.6727 H   0  0  0  0  0  0  0  0  0  0  0  0
  146.4688   74.1397  219.8851 H   0  0  0  0  0  0  0  0  0  0  0  0
  143.9772   73.5149  221.5928 H   0  0  0  0  0  0  0  0  0  0  0  0
  144.3149   75.1289  220.9519 H   0  0  0  0  0  0  0  0  0  0  0  0
  1  2  2  0
  2  3  1  0
  3  4  2  0
  4  5  1  0
  5  6  2  0
  6  7  1  0
  6  8  1  0
  8  9  2  0
  9 10  1  0
 10 11  2  0
 11 12  1  0
 12 13  2  0
 13 14  1  0
 14 15  2  0
 15 16  1  0
 16 17  2  0
 17 18  1  0
 18 19  1  0
 18 20  2  0
 11 21  1  0
 21 22  1  0
 22 23  1  0
 23 24  1  0
 24 25  1  0
 25 26  1  0
 26 27  1  0
 27 28  1  0
 21  2  1  0
 28 23  1  0
  9  3  1  0
 20 14  1  0
  4 29  1  0
  5 30  1  0
  8 31  1  0
 12 32  1  0
 13 33  1  0
 15 34  1  0
 16 35  1  0
 17 36  1  0
 20 37  1  0
 22 38  1  0
 22 39  1  0
 23 40  1  0
 24 41  1  0
 24 42  1  0
 25 43  1  0
 25 44  1  0
 26 45  1  0
 27 46  1  0
 27 47  1  0
 28 48  1  0
 28 49  1  0
M  END
>  <smiles>  (21) 
O=c1c2ccc(Cl)cc2nc(/C=C/c2cccc(Cl)c2)n1CC1CCNCC1

>  <score_type>  (21) 
oracle

>  <origin>  (21) 
autodockgpu

>  <m_score__min__energy>  (21) 
-8.5299999999999994

>  <m_primary>  (21) 
energy

>  <rmsd>  (21) 
5.109670357951213

>  <m_score__min__rmsd>  (21) 
5.109670357951213

>  <meeko>  (21) 
{"free_energy": -8.19, "intermolecular_energy": -9.69, "internal_energy": -1.2, "cluster_size": 29, "cluster_id": 1, "rank_in_cluster": 18}

>  <energy>  (21) 
-8.14

>  <cluster_rmsd>  (21) 
0.66

>  <cluster>  (21) 
1

$$$$

     RDKit          3D

 49 52  0  0  0  0  0  0  0  0999 V2000
  142.6430   76.2080  218.7200 O   0  0  0  0  0  0  0  0  0  0  0  0
  142.0440   75.8280  219.7790 C   0  0  0  0  0  0  0  0  0  0  0  0
  141.5990   76.8050  220.6430 C   0  0  0  0  0  0  0  0  0  0  0  0
  141.8090   78.1400  220.3490 C   0  0  0  0  0  0  0  0  0  0  0  0
  141.3480   79.1020  221.2430 C   0  0  0  0  0  0  0  0  0  0  0  0
  140.6940   78.7190  222.4010 C   0  0  0  0  0  0  0  0  0  0  0  0
  140.1220   79.9500  223.5120 Cl  0  0  0  0  0  0  0  0  0  0  0  0
  140.4770   77.3730  222.7080 C   0  0  0  0  0  0  0  0  0  0  0  0
  140.9450   76.4430  221.8030 C   0  0  0  0  0  0  0  0  0  0  0  0
  140.7810   75.1250  222.0170 N   0  0  0  0  0  0  0  0  0  0  0  0
  141.2170   74.1780  221.1690 C   0  0  0  0  0  0  0  0  0  0  0  0
  140.9680   72.7710  221.5050 C   0  0  0  0  0  0  0  0  0  0  0  0
  139.8320   72.4230  222.0600 C   0  0  0  0  0  0  0  0  0  0  0  0
  139.7100   71.5600  223.2250 C   0  0  0  0  0  0  0  0  0  0  0  0
  139.0020   70.3850  223.2370 C   0  0  0  0  0  0  0  0  0  0  0  0
  138.9210   69.6000  224.3830 C   0  0  0  0  0  0  0  0  0  0  0  0
  139.5520   69.9870  225.5400 C   0  0  0  0  0  0  0  0  0  0  0  0
  140.2670   71.1600  225.5550 C   0  0  0  0  0  0  0  0  0  0  0  0
  141.0820   71.6910  226.9930 Cl  0  0  0  0  0  0  0  0  0  0  0  0
  140.3350   71.9180  224.4140 C   0  0  0  0  0  0  0  0  0  0  0  0
  141.8590   74.4990  220.0290 N   0  0  0  0  0  0  0  0  0  0  0  0
  142.3680   73.5450  219.0880 C   0  0  0  0  0  0  0  0  0  0  0  0
  143.8310   73.2730  219.1600 C   0  0  0  0  0  0  0  0  0  0  0  0
  144.0050   71.7760  218.9450 C   0  0  0  0  0  0  0  0  0  0  0  0
  145.4220   71.3300  219.0300 C   0  0  0  0  0  0  0  0  0  0  0  0
  146.1320   71.8890  220.1610 N   0  0  0  0  0  0  0  0  0  0  0  0
  145.9810   73.3070  220.2740 C   0  0  0  0  0  0  0  0  0  0  0  0
  144.4900   73.6200  220.4660 C   0  0  0  0  0  0  0  0  0  0  0  0
  142.3302   78.4357  219.4266 H   0  0  0  0  0  0  0  0  0  0  0  0
  141.5039   80.1696  221.0286 H   0  0  0  0  0  0  0  0  0  0  0  0
  139.9571   77.0692  223.6286 H   0  0  0  0  0  0  0  0  0  0  0  0
  141.7330   72.0099  221.2916 H   0  0  0  0  0  0  0  0  0  0  0  0
  138.9051   72.8113  221.6128 H   0  0  0  0  0  0  0  0  0  0  0  0
  138.4877   70.0567  222.3217 H   0  0  0  0  0  0  0  0  0  0  0  0
  138.3470   68.6619  224.3622 H   0  0  0  0  0  0  0  0  0  0  0  0
  139.4856   69.3646  226.4446 H   0  0  0  0  0  0  0  0  0  0  0  0
  140.9118   72.8542  224.4410 H   0  0  0  0  0  0  0  0  0  0  0  0
  141.8404   72.5942  219.2540 H   0  0  0  0  0  0  0  0  0  0  0  0
  142.1972   73.9874  218.0955 H   0  0  0  0  0  0  0  0  0  0  0  0
  144.3104   73.9095  218.4017 H   0  0  0  0  0  0  0  0  0  0  0  0
  143.4246   71.2432  219.7127 H   0  0  0  0  0  0  0  0  0  0  0  0
  143.6527   71.5498  217.9278 H   0  0  0  0  0  0  0  0  0  0  0  0
  145.4382   70.2334  219.1150 H   0  0  0  0  0  0  0  0  0  0  0  0
  145.9295   71.6831  218.1202 H   0  0  0  0  0  0  0  0  0  0  0  0
  147.0730   71.5120  220.2830 H   0  0  0  0  0  0  0  0  0  0  0  0
  146.5524   73.6740  221.1393 H   0  0  0  0  0  0  0  0  0  0  0  0
  146.3580   73.8015  219.3666 H   0  0  0  0  0  0  0  0  0  0  0  0
  144.0718   73.0106  221.2807 H   0  0  0  0  0  0  0  0  0  0  0  0
  144.3275   74.6739  220.7358 H   0  0  0  0  0  0  0  0  0  0  0  0
  1  2  2  0
  2  3  1  0
  3  4  2  0
  4  5  1  0
  5  6  2  0
  6  7  1  0
  6  8  1  0
  8  9  2  0
  9 10  1  0
 10 11  2  0
 11 12  1  0
 12 13  2  0
 13 14  1  0
 14 15  2  0
 15 16  1  0
 16 17  2  0
 17 18  1  0
 18 19  1  0
 18 20  2  0
 11 21  1  0
 21 22  1  0
 22 23  1  0
 23 24  1  0
 24 25  1  0
 25 26  1  0
 26 27  1  0
 27 28  1  0
 21  2  1  0
 28 23  1  0
  9  3  1  0
 20 14  1  0
  4 29  1  0
  5 30  1  0
  8 31  1  0
 12 32  1  0
 13 33  1  0
 15 34  1  0
 16 35  1  0
 17 36  1  0
 20 37  1  0
 22 38  1  0
 22 39  1  0
 23 40  1  0
 24 41  1  0
 24 42  1  0
 25 43  1  0
 25 44  1  0
 26 45  1  0
 27 46  1  0
 27 47  1  0
 28 48  1  0
 28 49  1  0
M  END
>  <smiles>  (22) 
O=c1c2ccc(Cl)cc2nc(/C=C/c2cccc(Cl)c2)n1CC1CCNCC1

>  <score_type>  (22) 
oracle

>  <origin>  (22) 
autodockgpu

>  <m_score__min__energy>  (22) 
-8.5299999999999994

>  <m_primary>  (22) 
energy

>  <rmsd>  (22) 
5.261990493723887

>  <m_score__min__rmsd>  (22) 
5.261990493723887

>  <meeko>  (22) 
{"free_energy": -8.11, "intermolecular_energy": -9.6, "internal_energy": -1.18, "cluster_size": 29, "cluster_id": 1, "rank_in_cluster": 22}

>  <energy>  (22) 
-8.11

>  <cluster_rmsd>  (22) 
1.13

>  <cluster>  (22) 
1

$$$$

     RDKit          3D

 49 52  0  0  0  0  0  0  0  0999 V2000
  142.5470   75.9270  219.0520 O   0  0  0  0  0  0  0  0  0  0  0  0
  141.7910   75.7090  220.0550 C   0  0  0  0  0  0  0  0  0  0  0  0
  141.4290   76.7920  220.8260 C   0  0  0  0  0  0  0  0  0  0  0  0
  141.8830   78.0580  220.5020 C   0  0  0  0  0  0  0  0  0  0  0  0
  141.5000   79.1300  221.3010 C   0  0  0  0  0  0  0  0  0  0  0  0
  140.6790   78.9240  222.3960 C   0  0  0  0  0  0  0  0  0  0  0  0
  140.2100   80.2930  223.3880 Cl  0  0  0  0  0  0  0  0  0  0  0  0
  140.2150   77.6490  222.7320 C   0  0  0  0  0  0  0  0  0  0  0  0
  140.6120   76.6070  221.9210 C   0  0  0  0  0  0  0  0  0  0  0  0
  140.2120   75.3460  222.1700 N   0  0  0  0  0  0  0  0  0  0  0  0
  140.5690   74.2940  221.4130 C   0  0  0  0  0  0  0  0  0  0  0  0
  140.0600   72.9670  221.7770 C   0  0  0  0  0  0  0  0  0  0  0  0
  140.7940   72.1640  222.5100 C   0  0  0  0  0  0  0  0  0  0  0  0
  140.3100   71.4200  223.6610 C   0  0  0  0  0  0  0  0  0  0  0  0
  139.4650   70.3420  223.5780 C   0  0  0  0  0  0  0  0  0  0  0  0
  139.0350   69.6690  224.7160 C   0  0  0  0  0  0  0  0  0  0  0  0
  139.4490   70.0710  225.9630 C   0  0  0  0  0  0  0  0  0  0  0  0
  140.2950   71.1470  226.0750 C   0  0  0  0  0  0  0  0  0  0  0  0
  140.8460   71.6930  227.6290 Cl  0  0  0  0  0  0  0  0  0  0  0  0
  140.7070   71.7960  224.9390 C   0  0  0  0  0  0  0  0  0  0  0  0
  141.3660   74.4430  220.3380 N   0  0  0  0  0  0  0  0  0  0  0  0
  141.8030   73.3680  219.4960 C   0  0  0  0  0  0  0  0  0  0  0  0
  142.9690   72.5830  219.9900 C   0  0  0  0  0  0  0  0  0  0  0  0
  143.9980   73.5940  220.4760 C   0  0  0  0  0  0  0  0  0  0  0  0
  145.2530   72.9650  220.9680 C   0  0  0  0  0  0  0  0  0  0  0  0
  145.7560   71.9280  220.0920 N   0  0  0  0  0  0  0  0  0  0  0  0
  144.7590   70.9740  219.7200 C   0  0  0  0  0  0  0  0  0  0  0  0
  143.6430   71.7110  218.9670 C   0  0  0  0  0  0  0  0  0  0  0  0
  142.5343   78.2137  219.6293 H   0  0  0  0  0  0  0  0  0  0  0  0
  141.8507   80.1448  221.0619 H   0  0  0  0  0  0  0  0  0  0  0  0
  139.5634   77.4846  223.6029 H   0  0  0  0  0  0  0  0  0  0  0  0
  139.0647   72.6460  221.4359 H   0  0  0  0  0  0  0  0  0  0  0  0
  141.8521   72.0452  222.2336 H   0  0  0  0  0  0  0  0  0  0  0  0
  139.1204   70.0031  222.5899 H   0  0  0  0  0  0  0  0  0  0  0  0
  138.3579   68.8077  224.6173 H   0  0  0  0  0  0  0  0  0  0  0  0
  139.1066   69.5369  226.8616 H   0  0  0  0  0  0  0  0  0  0  0  0
  141.3847   72.6560  225.0445 H   0  0  0  0  0  0  0  0  0  0  0  0
  140.9588   72.6739  219.3712 H   0  0  0  0  0  0  0  0  0  0  0  0
  142.1391   73.8414  218.5617 H   0  0  0  0  0  0  0  0  0  0  0  0
  142.5874   71.9004  220.7636 H   0  0  0  0  0  0  0  0  0  0  0  0
  144.2479   74.2664  219.6421 H   0  0  0  0  0  0  0  0  0  0  0  0
  143.5499   74.1339  221.3232 H   0  0  0  0  0  0  0  0  0  0  0  0
  146.0217   73.7463  221.0613 H   0  0  0  0  0  0  0  0  0  0  0  0
  145.0230   72.4919  221.9341 H   0  0  0  0  0  0  0  0  0  0  0  0
  146.6680   71.5610  220.3710 H   0  0  0  0  0  0  0  0  0  0  0  0
  145.2031   70.2068  219.0688 H   0  0  0  0  0  0  0  0  0  0  0  0
  144.3512   70.4834  220.6161 H   0  0  0  0  0  0  0  0  0  0  0  0
  144.0666   72.3252  218.1587 H   0  0  0  0  0  0  0  0  0  0  0  0
  142.9350   71.0092  218.5019 H   0  0  0  0  0  0  0  0  0  0  0  0
  1  2  2  0
  2  3  1  0
  3  4  2  0
  4  5  1  0
  5  6  2  0
  6  7  1  0
  6  8  1  0
  8  9  2  0
  9 10  1  0
 10 11  2  0
 11 12  1  0
 12 13  2  0
 13 14  1  0
 14 15  2  0
 15 16  1  0
 16 17  2  0
 17 18  1  0
 18 19  1  0
 18 20  2  0
 11 21  1  0
 21 22  1  0
 22 23  1  0
 23 24  1  0
 24 25  1  0
 25 26  1  0
 26 27  1  0
 27 28  1  0
 21  2  1  0
 28 23  1  0
  9  3  1  0
 20 14  1  0
  4 29  1  0
  5 30  1  0
  8 31  1  0
 12 32  1  0
 13 33  1  0
 15 34  1  0
 16 35  1  0
 17 36  1  0
 20 37  1  0
 22 38  1  0
 22 39  1  0
 23 40  1  0
 24 41  1  0
 24 42  1  0
 25 43  1  0
 25 44  1  0
 26 45  1  0
 27 46  1  0
 27 47  1  0
 28 48  1  0
 28 49  1  0
M  END
>  <smiles>  (23) 
O=c1c2ccc(Cl)cc2nc(/C=C/c2cccc(Cl)c2)n1CC1CCNCC1

>  <score_type>  (23) 
oracle

>  <origin>  (23) 
autodockgpu

>  <m_score__min__energy>  (23) 
-8.5299999999999994

>  <m_primary>  (23) 
energy

>  <rmsd>  (23) 
4.883404705346583

>  <m_score__min__rmsd>  (23) 
4.883404705346583

>  <meeko>  (23) 
{"free_energy": -8.39, "intermolecular_energy": -9.89, "internal_energy": -1.18, "cluster_size": 29, "cluster_id": 1, "rank_in_cluster": 12}

>  <energy>  (23) 
-8.1

>  <cluster_rmsd>  (23) 
1.33

>  <cluster>  (23) 
1

$$$$

     RDKit          3D

 49 52  0  0  0  0  0  0  0  0999 V2000
  143.6780   75.1780  219.0490 O   0  0  0  0  0  0  0  0  0  0  0  0
  143.3050   76.2040  218.3900 C   0  0  0  0  0  0  0  0  0  0  0  0
  143.7000   76.2930  217.0730 C   0  0  0  0  0  0  0  0  0  0  0  0
  144.4740   75.2940  216.5120 C   0  0  0  0  0  0  0  0  0  0  0  0
  144.8570   75.4150  215.1790 C   0  0  0  0  0  0  0  0  0  0  0  0
  144.4650   76.5170  214.4400 C   0  0  0  0  0  0  0  0  0  0  0  0
  144.9610   76.6460  212.7620 Cl  0  0  0  0  0  0  0  0  0  0  0  0
  143.6830   77.5320  214.9980 C   0  0  0  0  0  0  0  0  0  0  0  0
  143.3190   77.3840  216.3200 C   0  0  0  0  0  0  0  0  0  0  0  0
  142.5670   78.3120  216.9380 N   0  0  0  0  0  0  0  0  0  0  0  0
  142.1850   78.2180  218.2230 C   0  0  0  0  0  0  0  0  0  0  0  0
  141.3540   79.2900  218.7860 C   0  0  0  0  0  0  0  0  0  0  0  0
  141.8710   80.1340  219.6450 C   0  0  0  0  0  0  0  0  0  0  0  0
  141.6680   80.0790  221.0840 C   0  0  0  0  0  0  0  0  0  0  0  0
  142.6840   80.1320  222.0050 C   0  0  0  0  0  0  0  0  0  0  0  0
  142.4280   80.0740  223.3710 C   0  0  0  0  0  0  0  0  0  0  0  0
  141.1400   79.9610  223.8350 C   0  0  0  0  0  0  0  0  0  0  0  0
  140.1040   79.9070  222.9350 C   0  0  0  0  0  0  0  0  0  0  0  0
  138.4590   79.7650  223.4740 Cl  0  0  0  0  0  0  0  0  0  0  0  0
  140.3790   79.9650  221.5930 C   0  0  0  0  0  0  0  0  0  0  0  0
  142.5400   77.1660  218.9850 N   0  0  0  0  0  0  0  0  0  0  0  0
  142.1870   77.0070  220.3650 C   0  0  0  0  0  0  0  0  0  0  0  0
  141.0760   76.0550  220.6500 C   0  0  0  0  0  0  0  0  0  0  0  0
  140.3670   76.5740  221.8930 C   0  0  0  0  0  0  0  0  0  0  0  0
  139.2470   75.7030  222.3380 C   0  0  0  0  0  0  0  0  0  0  0  0
  139.5850   74.2950  222.3490 N   0  0  0  0  0  0  0  0  0  0  0  0
  140.1900   73.8530  221.1320 C   0  0  0  0  0  0  0  0  0  0  0  0
  141.4940   74.6380  220.9290 C   0  0  0  0  0  0  0  0  0  0  0  0
  144.7810   74.4212  217.1069 H   0  0  0  0  0  0  0  0  0  0  0  0
  145.4729   74.6323  214.7121 H   0  0  0  0  0  0  0  0  0  0  0  0
  143.3722   78.4082  214.4101 H   0  0  0  0  0  0  0  0  0  0  0  0
  140.2996   79.3844  218.4872 H   0  0  0  0  0  0  0  0  0  0  0  0
  142.5039   80.9420  219.2492 H   0  0  0  0  0  0  0  0  0  0  0  0
  143.7231   80.2223  221.6555 H   0  0  0  0  0  0  0  0  0  0  0  0
  143.2634   80.1190  224.0852 H   0  0  0  0  0  0  0  0  0  0  0  0
  140.9405   79.9143  224.9158 H   0  0  0  0  0  0  0  0  0  0  0  0
  139.5389   79.9191  220.8844 H   0  0  0  0  0  0  0  0  0  0  0  0
  143.0794   76.6532  220.9020 H   0  0  0  0  0  0  0  0  0  0  0  0
  141.8248   77.9923  220.6938 H   0  0  0  0  0  0  0  0  0  0  0  0
  140.4532   76.0135  219.7442 H   0  0  0  0  0  0  0  0  0  0  0  0
  141.1005   76.6441  222.7097 H   0  0  0  0  0  0  0  0  0  0  0  0
  139.9364   77.5534  221.6375 H   0  0  0  0  0  0  0  0  0  0  0  0
  138.9571   76.0003  223.3566 H   0  0  0  0  0  0  0  0  0  0  0  0
  138.4261   75.8350  221.6178 H   0  0  0  0  0  0  0  0  0  0  0  0
  138.8560   73.7000  222.7460 H   0  0  0  0  0  0  0  0  0  0  0  0
  140.4096   72.7770  221.1952 H   0  0  0  0  0  0  0  0  0  0  0  0
  139.5085   74.0248  220.2858 H   0  0  0  0  0  0  0  0  0  0  0  0
  142.1143   74.5926  221.8363 H   0  0  0  0  0  0  0  0  0  0  0  0
  142.0946   74.2222  220.1065 H   0  0  0  0  0  0  0  0  0  0  0  0
  1  2  2  0
  2  3  1  0
  3  4  2  0
  4  5  1  0
  5  6  2  0
  6  7  1  0
  6  8  1  0
  8  9  2  0
  9 10  1  0
 10 11  2  0
 11 12  1  0
 12 13  2  0
 13 14  1  0
 14 15  2  0
 15 16  1  0
 16 17  2  0
 17 18  1  0
 18 19  1  0
 18 20  2  0
 11 21  1  0
 21 22  1  0
 22 23  1  0
 23 24  1  0
 24 25  1  0
 25 26  1  0
 26 27  1  0
 27 28  1  0
 21  2  1  0
 28 23  1  0
  9  3  1  0
 20 14  1  0
  4 29  1  0
  5 30  1  0
  8 31  1  0
 12 32  1  0
 13 33  1  0
 15 34  1  0
 16 35  1  0
 17 36  1  0
 20 37  1  0
 22 38  1  0
 22 39  1  0
 23 40  1  0
 24 41  1  0
 24 42  1  0
 25 43  1  0
 25 44  1  0
 26 45  1  0
 27 46  1  0
 27 47  1  0
 28 48  1  0
 28 49  1  0
M  END
>  <smiles>  (24) 
O=c1c2ccc(Cl)cc2nc(/C=C/c2cccc(Cl)c2)n1CC1CCNCC1

>  <score_type>  (24) 
oracle

>  <origin>  (24) 
autodockgpu

>  <m_score__min__energy>  (24) 
-8.5299999999999994

>  <m_primary>  (24) 
energy

>  <rmsd>  (24) 
6.960536384765157

>  <m_score__min__rmsd>  (24) 
6.960536384765157

>  <meeko>  (24) 
{"free_energy": -7.03, "intermolecular_energy": -8.52, "internal_energy": -1.66, "cluster_size": 1, "cluster_id": 8, "rank_in_cluster": 1}

>  <energy>  (24) 
-8.03

>  <cluster_rmsd>  (24) 
1.45

>  <cluster>  (24) 
1

$$$$

     RDKit          3D

 49 52  0  0  0  0  0  0  0  0999 V2000
  135.7580   75.4030  222.5490 O   0  0  0  0  0  0  0  0  0  0  0  0
  135.9250   74.2100  222.9650 C   0  0  0  0  0  0  0  0  0  0  0  0
  135.0970   73.7660  223.9730 C   0  0  0  0  0  0  0  0  0  0  0  0
  134.1300   74.6040  224.4980 C   0  0  0  0  0  0  0  0  0  0  0  0
  133.3110   74.1250  225.5160 C   0  0  0  0  0  0  0  0  0  0  0  0
  133.4690   72.8340  225.9870 C   0  0  0  0  0  0  0  0  0  0  0  0
  132.4240   72.2530  227.2710 Cl  0  0  0  0  0  0  0  0  0  0  0  0
  134.4440   71.9790  225.4640 C   0  0  0  0  0  0  0  0  0  0  0  0
  135.2400   72.4810  224.4560 C   0  0  0  0  0  0  0  0  0  0  0  0
  136.2030   71.7290  223.8950 N   0  0  0  0  0  0  0  0  0  0  0  0
  137.0060   72.1680  222.9110 C   0  0  0  0  0  0  0  0  0  0  0  0
  138.0140   71.2500  222.3680 C   0  0  0  0  0  0  0  0  0  0  0  0
  139.1930   71.1640  222.9360 C   0  0  0  0  0  0  0  0  0  0  0  0
  139.4410   70.5790  224.2450 C   0  0  0  0  0  0  0  0  0  0  0  0
  139.1090   69.2920  224.5840 C   0  0  0  0  0  0  0  0  0  0  0  0
  139.3710   68.7870  225.8540 C   0  0  0  0  0  0  0  0  0  0  0  0
  139.9720   69.5730  226.8070 C   0  0  0  0  0  0  0  0  0  0  0  0
  140.3140   70.8660  226.4930 C   0  0  0  0  0  0  0  0  0  0  0  0
  141.0760   71.8980  227.6640 Cl  0  0  0  0  0  0  0  0  0  0  0  0
  140.0470   71.3430  225.2350 C   0  0  0  0  0  0  0  0  0  0  0  0
  136.8920   73.4170  222.4180 N   0  0  0  0  0  0  0  0  0  0  0  0
  137.7240   73.9610  221.3850 C   0  0  0  0  0  0  0  0  0  0  0  0
  139.0450   74.4930  221.8210 C   0  0  0  0  0  0  0  0  0  0  0  0
  138.8840   76.0010  221.9540 C   0  0  0  0  0  0  0  0  0  0  0  0
  140.1400   76.6940  222.3460 C   0  0  0  0  0  0  0  0  0  0  0  0
  141.2980   76.2490  221.5990 N   0  0  0  0  0  0  0  0  0  0  0  0
  141.4300   74.8260  221.5630 C   0  0  0  0  0  0  0  0  0  0  0  0
  140.1870   74.2430  220.8750 C   0  0  0  0  0  0  0  0  0  0  0  0
  134.0106   75.6294  224.1181 H   0  0  0  0  0  0  0  0  0  0  0  0
  132.5356   74.7750  225.9475 H   0  0  0  0  0  0  0  0  0  0  0  0
  134.5703   70.9528  225.8395 H   0  0  0  0  0  0  0  0  0  0  0  0
  137.7811   70.6351  221.4861 H   0  0  0  0  0  0  0  0  0  0  0  0
  140.0563   71.5627  222.3832 H   0  0  0  0  0  0  0  0  0  0  0  0
  138.6257   68.6457  223.8365 H   0  0  0  0  0  0  0  0  0  0  0  0
  139.0947   67.7503  226.0967 H   0  0  0  0  0  0  0  0  0  0  0  0
  140.1771   69.1715  227.8104 H   0  0  0  0  0  0  0  0  0  0  0  0
  140.3260   72.3804  224.9984 H   0  0  0  0  0  0  0  0  0  0  0  0
  137.9085   73.1655  220.6480 H   0  0  0  0  0  0  0  0  0  0  0  0
  137.1736   74.8260  220.9866 H   0  0  0  0  0  0  0  0  0  0  0  0
  139.3057   73.9710  222.7535 H   0  0  0  0  0  0  0  0  0  0  0  0
  138.5507   76.4033  220.9860 H   0  0  0  0  0  0  0  0  0  0  0  0
  138.1494   76.1812  222.7527 H   0  0  0  0  0  0  0  0  0  0  0  0
  140.0101   77.7733  222.1780 H   0  0  0  0  0  0  0  0  0  0  0  0
  140.3251   76.4580  223.4043 H   0  0  0  0  0  0  0  0  0  0  0  0
  142.1440   76.7880  221.7920 H   0  0  0  0  0  0  0  0  0  0  0  0
  142.3320   74.5504  220.9969 H   0  0  0  0  0  0  0  0  0  0  0  0
  141.5191   74.4280  222.5846 H   0  0  0  0  0  0  0  0  0  0  0  0
  140.0074   74.7484  219.9146 H   0  0  0  0  0  0  0  0  0  0  0  0
  140.3077   73.1715  220.6576 H   0  0  0  0  0  0  0  0  0  0  0  0
  1  2  2  0
  2  3  1  0
  3  4  2  0
  4  5  1  0
  5  6  2  0
  6  7  1  0
  6  8  1  0
  8  9  2  0
  9 10  1  0
 10 11  2  0
 11 12  1  0
 12 13  2  0
 13 14  1  0
 14 15  2  0
 15 16  1  0
 16 17  2  0
 17 18  1  0
 18 19  1  0
 18 20  2  0
 11 21  1  0
 21 22  1  0
 22 23  1  0
 23 24  1  0
 24 25  1  0
 25 26  1  0
 26 27  1  0
 27 28  1  0
 21  2  1  0
 28 23  1  0
  9  3  1  0
 20 14  1  0
  4 29  1  0
  5 30  1  0
  8 31  1  0
 12 32  1  0
 13 33  1  0
 15 34  1  0
 16 35  1  0
 17 36  1  0
 20 37  1  0
 22 38  1  0
 22 39  1  0
 23 40  1  0
 24 41  1  0
 24 42  1  0
 25 43  1  0
 25 44  1  0
 26 45  1  0
 27 46  1  0
 27 47  1  0
 28 48  1  0
 28 49  1  0
M  END
>  <smiles>  (25) 
O=c1c2ccc(Cl)cc2nc(/C=C/c2cccc(Cl)c2)n1CC1CCNCC1

>  <score_type>  (25) 
oracle

>  <origin>  (25) 
autodockgpu

>  <m_score__min__energy>  (25) 
-8.5299999999999994

>  <m_primary>  (25) 
energy

>  <rmsd>  (25) 
8.67938657493363

>  <m_score__min__rmsd>  (25) 
8.67938657493363

>  <meeko>  (25) 
{"free_energy": -7.2, "intermolecular_energy": -8.69, "internal_energy": -1.51, "cluster_size": 1, "cluster_id": 7, "rank_in_cluster": 1}

>  <energy>  (25) 
-8.02

>  <cluster_rmsd>  (25) 
1.35

>  <cluster>  (25) 
1

$$$$

     RDKit          3D

 49 52  0  0  0  0  0  0  0  0999 V2000
  141.7920   75.0360  218.7520 O   0  0  0  0  0  0  0  0  0  0  0  0
  141.3180   74.7860  219.9090 C   0  0  0  0  0  0  0  0  0  0  0  0
  140.8360   75.8480  220.6430 C   0  0  0  0  0  0  0  0  0  0  0  0
  140.8760   77.1280  220.1200 C   0  0  0  0  0  0  0  0  0  0  0  0
  140.3810   78.1790  220.8870 C   0  0  0  0  0  0  0  0  0  0  0  0
  139.8610   77.9360  222.1460 C   0  0  0  0  0  0  0  0  0  0  0  0
  139.2430   79.2780  223.0930 Cl  0  0  0  0  0  0  0  0  0  0  0  0
  139.8160   76.6470  222.6840 C   0  0  0  0  0  0  0  0  0  0  0  0
  140.3130   75.6260  221.9000 C   0  0  0  0  0  0  0  0  0  0  0  0
  140.3100   74.3540  222.3370 N   0  0  0  0  0  0  0  0  0  0  0  0
  140.7820   73.3230  221.6160 C   0  0  0  0  0  0  0  0  0  0  0  0
  140.7130   71.9760  222.1940 C   0  0  0  0  0  0  0  0  0  0  0  0
  139.6770   71.6280  222.9190 C   0  0  0  0  0  0  0  0  0  0  0  0
  139.7540   70.9270  224.1910 C   0  0  0  0  0  0  0  0  0  0  0  0
  139.3290   69.6370  224.3820 C   0  0  0  0  0  0  0  0  0  0  0  0
  139.4270   69.0180  225.6240 C   0  0  0  0  0  0  0  0  0  0  0  0
  139.9560   69.6910  226.6990 C   0  0  0  0  0  0  0  0  0  0  0  0
  140.3890   70.9840  226.5350 C   0  0  0  0  0  0  0  0  0  0  0  0
  141.0660   71.8750  227.8630 Cl  0  0  0  0  0  0  0  0  0  0  0  0
  140.2830   71.5740  225.3010 C   0  0  0  0  0  0  0  0  0  0  0  0
  141.2980   73.5060  220.3860 N   0  0  0  0  0  0  0  0  0  0  0  0
  141.8360   72.4600  219.5670 C   0  0  0  0  0  0  0  0  0  0  0  0
  143.2280   72.0330  219.8820 C   0  0  0  0  0  0  0  0  0  0  0  0
  143.9410   73.2560  220.4430 C   0  0  0  0  0  0  0  0  0  0  0  0
  145.3690   73.0040  220.7730 C   0  0  0  0  0  0  0  0  0  0  0  0
  146.0790   72.2840  219.7370 N   0  0  0  0  0  0  0  0  0  0  0  0
  145.3900   71.1120  219.2950 C   0  0  0  0  0  0  0  0  0  0  0  0
  144.0350   71.5390  218.7130 C   0  0  0  0  0  0  0  0  0  0  0  0
  141.2908   77.3117  219.1179 H   0  0  0  0  0  0  0  0  0  0  0  0
  140.4033   79.2051  220.4912 H   0  0  0  0  0  0  0  0  0  0  0  0
  139.4037   76.4553  223.6856 H   0  0  0  0  0  0  0  0  0  0  0  0
  141.5290   71.2592  222.0195 H   0  0  0  0  0  0  0  0  0  0  0  0
  138.6777   71.8848  222.5375 H   0  0  0  0  0  0  0  0  0  0  0  0
  138.9016   69.0801  223.5352 H   0  0  0  0  0  0  0  0  0  0  0  0
  139.0784   67.9819  225.7465 H   0  0  0  0  0  0  0  0  0  0  0  0
  140.0318   69.1995  227.6802 H   0  0  0  0  0  0  0  0  0  0  0  0
  140.6340   72.6100  225.1846 H   0  0  0  0  0  0  0  0  0  0  0  0
  141.1828   71.5812  219.6717 H   0  0  0  0  0  0  0  0  0  0  0  0
  141.8764   72.8728  218.5482 H   0  0  0  0  0  0  0  0  0  0  0  0
  143.1493   71.1824  220.5751 H   0  0  0  0  0  0  0  0  0  0  0  0
  143.8922   74.0619  219.6960 H   0  0  0  0  0  0  0  0  0  0  0  0
  143.4330   73.5283  221.3799 H   0  0  0  0  0  0  0  0  0  0  0  0
  145.8672   73.9722  220.9290 H   0  0  0  0  0  0  0  0  0  0  0  0
  145.3882   72.3768  221.6765 H   0  0  0  0  0  0  0  0  0  0  0  0
  147.0810   72.1940  219.9110 H   0  0  0  0  0  0  0  0  0  0  0  0
  145.9827   70.6018  218.5215 H   0  0  0  0  0  0  0  0  0  0  0  0
  145.2394   70.4210  220.1375 H   0  0  0  0  0  0  0  0  0  0  0  0
  144.1709   72.3423  217.9739 H   0  0  0  0  0  0  0  0  0  0  0  0
  143.5344   70.7068  218.1965 H   0  0  0  0  0  0  0  0  0  0  0  0
  1  2  2  0
  2  3  1  0
  3  4  2  0
  4  5  1  0
  5  6  2  0
  6  7  1  0
  6  8  1  0
  8  9  2  0
  9 10  1  0
 10 11  2  0
 11 12  1  0
 12 13  2  0
 13 14  1  0
 14 15  2  0
 15 16  1  0
 16 17  2  0
 17 18  1  0
 18 19  1  0
 18 20  2  0
 11 21  1  0
 21 22  1  0
 22 23  1  0
 23 24  1  0
 24 25  1  0
 25 26  1  0
 26 27  1  0
 27 28  1  0
 21  2  1  0
 28 23  1  0
  9  3  1  0
 20 14  1  0
  4 29  1  0
  5 30  1  0
  8 31  1  0
 12 32  1  0
 13 33  1  0
 15 34  1  0
 16 35  1  0
 17 36  1  0
 20 37  1  0
 22 38  1  0
 22 39  1  0
 23 40  1  0
 24 41  1  0
 24 42  1  0
 25 43  1  0
 25 44  1  0
 26 45  1  0
 27 46  1  0
 27 47  1  0
 28 48  1  0
 28 49  1  0
M  END
>  <smiles>  (26) 
O=c1c2ccc(Cl)cc2nc(/C=C/c2cccc(Cl)c2)n1CC1CCNCC1

>  <score_type>  (26) 
oracle

>  <origin>  (26) 
autodockgpu

>  <m_score__min__energy>  (26) 
-8.5299999999999994

>  <m_primary>  (26) 
energy

>  <rmsd>  (26) 
5.394969927675486

>  <m_score__min__rmsd>  (26) 
5.394969927675486

>  <meeko>  (26) 
{"free_energy": -8.14, "intermolecular_energy": -9.63, "internal_energy": -1.09, "cluster_size": 29, "cluster_id": 1, "rank_in_cluster": 21}

>  <energy>  (26) 
-7.96

>  <cluster_rmsd>  (26) 
1.23

>  <cluster>  (26) 
1

$$$$

     RDKit          3D

 49 52  0  0  0  0  0  0  0  0999 V2000
  142.6720   76.6670  218.7290 O   0  0  0  0  0  0  0  0  0  0  0  0
  142.0650   76.2650  219.7760 C   0  0  0  0  0  0  0  0  0  0  0  0
  141.6000   77.2230  220.6500 C   0  0  0  0  0  0  0  0  0  0  0  0
  141.7990   78.5650  220.3790 C   0  0  0  0  0  0  0  0  0  0  0  0
  141.3180   79.5070  221.2820 C   0  0  0  0  0  0  0  0  0  0  0  0
  140.6550   79.0990  222.4260 C   0  0  0  0  0  0  0  0  0  0  0  0
  140.0580   80.3070  223.5500 Cl  0  0  0  0  0  0  0  0  0  0  0  0
  140.4490   77.7460  222.7100 C   0  0  0  0  0  0  0  0  0  0  0  0
  140.9370   76.8360  221.7960 C   0  0  0  0  0  0  0  0  0  0  0  0
  140.7840   75.5130  221.9880 N   0  0  0  0  0  0  0  0  0  0  0  0
  141.2390   74.5840  221.1300 C   0  0  0  0  0  0  0  0  0  0  0  0
  141.0020   73.1690  221.4410 C   0  0  0  0  0  0  0  0  0  0  0  0
  139.9310   72.8190  222.1120 C   0  0  0  0  0  0  0  0  0  0  0  0
  139.8700   71.7150  223.0570 C   0  0  0  0  0  0  0  0  0  0  0  0
  139.3280   70.4890  222.7680 C   0  0  0  0  0  0  0  0  0  0  0  0
  139.2970   69.4690  223.7150 C   0  0  0  0  0  0  0  0  0  0  0  0
  139.8130   69.6690  224.9720 C   0  0  0  0  0  0  0  0  0  0  0  0
  140.3620   70.8880  225.2870 C   0  0  0  0  0  0  0  0  0  0  0  0
  141.0270   71.1880  226.8630 Cl  0  0  0  0  0  0  0  0  0  0  0  0
  140.3820   71.8780  224.3390 C   0  0  0  0  0  0  0  0  0  0  0  0
  141.8910   74.9290  220.0030 N   0  0  0  0  0  0  0  0  0  0  0  0
  142.4210   73.9960  219.0530 C   0  0  0  0  0  0  0  0  0  0  0  0
  143.8430   73.6000  219.2480 C   0  0  0  0  0  0  0  0  0  0  0  0
  143.8570   72.0850  219.3970 C   0  0  0  0  0  0  0  0  0  0  0  0
  145.2140   71.5300  219.6430 C   0  0  0  0  0  0  0  0  0  0  0  0
  145.9610   72.2650  220.6420 N   0  0  0  0  0  0  0  0  0  0  0  0
  145.9650   73.6770  220.4140 C   0  0  0  0  0  0  0  0  0  0  0  0
  144.5140   74.1770  220.4640 C   0  0  0  0  0  0  0  0  0  0  0  0
  142.3273   78.8807  219.4673 H   0  0  0  0  0  0  0  0  0  0  0  0
  141.4650   80.5794  221.0863 H   0  0  0  0  0  0  0  0  0  0  0  0
  139.9224   77.4223  223.6199 H   0  0  0  0  0  0  0  0  0  0  0  0
  141.7210   72.4042  221.1120 H   0  0  0  0  0  0  0  0  0  0  0  0
  139.0128   73.4023  221.9484 H   0  0  0  0  0  0  0  0  0  0  0  0
  138.9090   70.3077  221.7672 H   0  0  0  0  0  0  0  0  0  0  0  0
  138.8559   68.4956  223.4545 H   0  0  0  0  0  0  0  0  0  0  0  0
  139.7869   68.8615  225.7185 H   0  0  0  0  0  0  0  0  0  0  0  0
  140.8249   72.8489  224.6059 H   0  0  0  0  0  0  0  0  0  0  0  0
  141.8084   73.0836  219.1001 H   0  0  0  0  0  0  0  0  0  0  0  0
  142.3881   74.5118  218.0820 H   0  0  0  0  0  0  0  0  0  0  0  0
  144.4010   73.9858  218.3821 H   0  0  0  0  0  0  0  0  0  0  0  0
  143.2095   71.8116  220.2431 H   0  0  0  0  0  0  0  0  0  0  0  0
  143.4994   71.6613  218.4470 H   0  0  0  0  0  0  0  0  0  0  0  0
  145.1092   70.4887  219.9816 H   0  0  0  0  0  0  0  0  0  0  0  0
  145.7726   71.6046  218.6983 H   0  0  0  0  0  0  0  0  0  0  0  0
  146.8540   71.8340  220.8880 H   0  0  0  0  0  0  0  0  0  0  0  0
  146.5582   74.1780  221.1932 H   0  0  0  0  0  0  0  0  0  0  0  0
  146.4099   73.9015  219.4334 H   0  0  0  0  0  0  0  0  0  0  0  0
  144.0178   73.8236  221.3799 H   0  0  0  0  0  0  0  0  0  0  0  0
  144.4631   75.2758  220.4730 H   0  0  0  0  0  0  0  0  0  0  0  0
  1  2  2  0
  2  3  1  0
  3  4  2  0
  4  5  1  0
  5  6  2  0
  6  7  1  0
  6  8  1  0
  8  9  2  0
  9 10  1  0
 10 11  2  0
 11 12  1  0
 12 13  2  0
 13 14  1  0
 14 15  2  0
 15 16  1  0
 16 17  2  0
 17 18  1  0
 18 19  1  0
 18 20  2  0
 11 21  1  0
 21 22  1  0
 22 23  1  0
 23 24  1  0
 24 25  1  0
 25 26  1  0
 26 27  1  0
 27 28  1  0
 21  2  1  0
 28 23  1  0
  9  3  1  0
 20 14  1  0
  4 29  1  0
  5 30  1  0
  8 31  1  0
 12 32  1  0
 13 33  1  0
 15 34  1  0
 16 35  1  0
 17 36  1  0
 20 37  1  0
 22 38  1  0
 22 39  1  0
 23 40  1  0
 24 41  1  0
 24 42  1  0
 25 43  1  0
 25 44  1  0
 26 45  1  0
 27 46  1  0
 27 47  1  0
 28 48  1  0
 28 49  1  0
M  END
>  <smiles>  (27) 
O=c1c2ccc(Cl)cc2nc(/C=C/c2cccc(Cl)c2)n1CC1CCNCC1

>  <score_type>  (27) 
oracle

>  <origin>  (27) 
autodockgpu

>  <m_score__min__energy>  (27) 
-8.5299999999999994

>  <m_primary>  (27) 
energy

>  <rmsd>  (27) 
4.99323628362357

>  <m_score__min__rmsd>  (27) 
4.99323628362357

>  <meeko>  (27) 
{"free_energy": -8.16, "intermolecular_energy": -9.65, "internal_energy": -1.2, "cluster_size": 29, "cluster_id": 1, "rank_in_cluster": 20}

>  <energy>  (27) 
-7.95

>  <cluster_rmsd>  (27) 
1.44

>  <cluster>  (27) 
1

$$$$

     RDKit          3D

 49 52  0  0  0  0  0  0  0  0999 V2000
  137.1570   78.6060  223.0410 O   0  0  0  0  0  0  0  0  0  0  0  0
  138.2560   77.9790  222.8790 C   0  0  0  0  0  0  0  0  0  0  0  0
  139.4240   78.6730  223.1040 C   0  0  0  0  0  0  0  0  0  0  0  0
  139.3790   80.0010  223.4900 C   0  0  0  0  0  0  0  0  0  0  0  0
  140.5780   80.6730  223.7090 C   0  0  0  0  0  0  0  0  0  0  0  0
  141.7850   80.0180  223.5410 C   0  0  0  0  0  0  0  0  0  0  0  0
  143.2820   80.8880  223.8230 Cl  0  0  0  0  0  0  0  0  0  0  0  0
  141.8410   78.6770  223.1510 C   0  0  0  0  0  0  0  0  0  0  0  0
  140.6370   78.0370  222.9420 C   0  0  0  0  0  0  0  0  0  0  0  0
  140.5960   76.7460  222.5640 N   0  0  0  0  0  0  0  0  0  0  0  0
  139.4530   76.0750  222.3470 C   0  0  0  0  0  0  0  0  0  0  0  0
  139.5340   74.6640  221.9500 C   0  0  0  0  0  0  0  0  0  0  0  0
  140.1630   74.3310  220.8480 C   0  0  0  0  0  0  0  0  0  0  0  0
  141.4790   74.8180  220.4670 C   0  0  0  0  0  0  0  0  0  0  0  0
  141.6990   76.0080  219.8200 C   0  0  0  0  0  0  0  0  0  0  0  0
  142.9820   76.4220  219.4800 C   0  0  0  0  0  0  0  0  0  0  0  0
  144.0710   75.6410  219.7860 C   0  0  0  0  0  0  0  0  0  0  0  0
  143.8790   74.4460  220.4340 C   0  0  0  0  0  0  0  0  0  0  0  0
  145.2240   73.4250  220.8420 Cl  0  0  0  0  0  0  0  0  0  0  0  0
  142.6050   74.0580  220.7600 C   0  0  0  0  0  0  0  0  0  0  0  0
  138.2520   76.6680  222.4970 N   0  0  0  0  0  0  0  0  0  0  0  0
  136.9930   76.0230  222.2650 C   0  0  0  0  0  0  0  0  0  0  0  0
  136.2940   75.5020  223.4730 C   0  0  0  0  0  0  0  0  0  0  0  0
  135.8110   74.1010  223.1250 C   0  0  0  0  0  0  0  0  0  0  0  0
  135.0480   73.4520  224.2250 C   0  0  0  0  0  0  0  0  0  0  0  0
  134.0630   74.3230  224.8310 N   0  0  0  0  0  0  0  0  0  0  0  0
  134.5910   75.6020  225.1920 C   0  0  0  0  0  0  0  0  0  0  0  0
  135.0950   76.2940  223.9180 C   0  0  0  0  0  0  0  0  0  0  0  0
  138.4154   80.5151  223.6211 H   0  0  0  0  0  0  0  0  0  0  0  0
  140.5659   81.7290  224.0168 H   0  0  0  0  0  0  0  0  0  0  0  0
  142.8006   78.1562  223.0170 H   0  0  0  0  0  0  0  0  0  0  0  0
  139.0684   73.8878  222.5751 H   0  0  0  0  0  0  0  0  0  0  0  0
  139.6587   73.6334  220.1631 H   0  0  0  0  0  0  0  0  0  0  0  0
  140.8417   76.6483  219.5649 H   0  0  0  0  0  0  0  0  0  0  0  0
  143.1267   77.3817  218.9622 H   0  0  0  0  0  0  0  0  0  0  0  0
  145.0850   75.9698  219.5147 H   0  0  0  0  0  0  0  0  0  0  0  0
  142.4674   73.0979  221.2790 H   0  0  0  0  0  0  0  0  0  0  0  0
  136.3268   76.7504  221.7782 H   0  0  0  0  0  0  0  0  0  0  0  0
  137.2210   75.1398  221.6502 H   0  0  0  0  0  0  0  0  0  0  0  0
  137.0141   75.5513  224.3031 H   0  0  0  0  0  0  0  0  0  0  0  0
  135.1611   74.1655  222.2399 H   0  0  0  0  0  0  0  0  0  0  0  0
  136.7034   73.4851  222.9397 H   0  0  0  0  0  0  0  0  0  0  0  0
  134.5311   72.5703  223.8183 H   0  0  0  0  0  0  0  0  0  0  0  0
  135.7716   73.1838  225.0089 H   0  0  0  0  0  0  0  0  0  0  0  0
  133.4680   73.8560  225.5170 H   0  0  0  0  0  0  0  0  0  0  0  0
  133.8030   76.2111  225.6589 H   0  0  0  0  0  0  0  0  0  0  0  0
  135.4164   75.4819  225.9092 H   0  0  0  0  0  0  0  0  0  0  0  0
  134.3167   76.2812  223.1408 H   0  0  0  0  0  0  0  0  0  0  0  0
  135.3496   77.3482  224.1017 H   0  0  0  0  0  0  0  0  0  0  0  0
  1  2  2  0
  2  3  1  0
  3  4  2  0
  4  5  1  0
  5  6  2  0
  6  7  1  0
  6  8  1  0
  8  9  2  0
  9 10  1  0
 10 11  2  0
 11 12  1  0
 12 13  2  0
 13 14  1  0
 14 15  2  0
 15 16  1  0
 16 17  2  0
 17 18  1  0
 18 19  1  0
 18 20  2  0
 11 21  1  0
 21 22  1  0
 22 23  1  0
 23 24  1  0
 24 25  1  0
 25 26  1  0
 26 27  1  0
 27 28  1  0
 21  2  1  0
 28 23  1  0
  9  3  1  0
 20 14  1  0
  4 29  1  0
  5 30  1  0
  8 31  1  0
 12 32  1  0
 13 33  1  0
 15 34  1  0
 16 35  1  0
 17 36  1  0
 20 37  1  0
 22 38  1  0
 22 39  1  0
 23 40  1  0
 24 41  1  0
 24 42  1  0
 25 43  1  0
 25 44  1  0
 26 45  1  0
 27 46  1  0
 27 47  1  0
 28 48  1  0
 28 49  1  0
M  END
>  <smiles>  (28) 
O=c1c2ccc(Cl)cc2nc(/C=C/c2cccc(Cl)c2)n1CC1CCNCC1

>  <score_type>  (28) 
oracle

>  <origin>  (28) 
autodockgpu

>  <m_score__min__energy>  (28) 
-8.5299999999999994

>  <m_primary>  (28) 
energy

>  <rmsd>  (28) 
5.847766916875866

>  <m_score__min__rmsd>  (28) 
5.847766916875866

>  <meeko>  (28) 
{"free_energy": -7.26, "intermolecular_energy": -8.75, "internal_energy": -1.4, "cluster_size": 1, "cluster_id": 6, "rank_in_cluster": 1}

>  <energy>  (28) 
-7.86

>  <cluster_rmsd>  (28) 
1.69

>  <cluster>  (28) 
1

$$$$

     RDKit          3D

 49 52  0  0  0  0  0  0  0  0999 V2000
  142.7870   76.6550  218.8340 O   0  0  0  0  0  0  0  0  0  0  0  0
  142.1440   76.1740  219.8230 C   0  0  0  0  0  0  0  0  0  0  0  0
  141.5870   77.0640  220.7150 C   0  0  0  0  0  0  0  0  0  0  0  0
  141.7370   78.4260  220.5210 C   0  0  0  0  0  0  0  0  0  0  0  0
  141.1640   79.2990  221.4410 C   0  0  0  0  0  0  0  0  0  0  0  0
  140.4590   78.8040  222.5240 C   0  0  0  0  0  0  0  0  0  0  0  0
  139.7450   79.9250  223.6690 Cl  0  0  0  0  0  0  0  0  0  0  0  0
  140.3010   77.4300  222.7290 C   0  0  0  0  0  0  0  0  0  0  0  0
  140.8810   76.5900  221.8010 C   0  0  0  0  0  0  0  0  0  0  0  0
  140.7800   75.2540  221.9190 N   0  0  0  0  0  0  0  0  0  0  0  0
  141.3250   74.3910  221.0450 C   0  0  0  0  0  0  0  0  0  0  0  0
  141.1370   72.9530  221.2720 C   0  0  0  0  0  0  0  0  0  0  0  0
  139.9660   72.4990  221.6490 C   0  0  0  0  0  0  0  0  0  0  0  0
  139.7450   71.6230  222.7890 C   0  0  0  0  0  0  0  0  0  0  0  0
  138.9280   70.5220  222.7630 C   0  0  0  0  0  0  0  0  0  0  0  0
  138.7550   69.7200  223.8870 C   0  0  0  0  0  0  0  0  0  0  0  0
  139.4040   70.0170  225.0610 C   0  0  0  0  0  0  0  0  0  0  0  0
  140.2280   71.1140  225.1150 C   0  0  0  0  0  0  0  0  0  0  0  0
  141.0700   71.5290  226.5760 Cl  0  0  0  0  0  0  0  0  0  0  0  0
  140.3840   71.8900  223.9950 C   0  0  0  0  0  0  0  0  0  0  0  0
  142.0200   74.8220  219.9750 N   0  0  0  0  0  0  0  0  0  0  0  0
  142.6450   73.9630  219.0120 C   0  0  0  0  0  0  0  0  0  0  0  0
  144.0660   73.6060  219.2790 C   0  0  0  0  0  0  0  0  0  0  0  0
  144.1180   72.0890  219.3980 C   0  0  0  0  0  0  0  0  0  0  0  0
  145.4760   71.5690  219.7090 C   0  0  0  0  0  0  0  0  0  0  0  0
  146.1440   72.3050  220.7620 N   0  0  0  0  0  0  0  0  0  0  0  0
  146.1160   73.7210  220.5640 C   0  0  0  0  0  0  0  0  0  0  0  0
  144.6500   74.1760  220.5420 C   0  0  0  0  0  0  0  0  0  0  0  0
  142.2980   78.8110  219.6567 H   0  0  0  0  0  0  0  0  0  0  0  0
  141.2718   80.3855  221.3069 H   0  0  0  0  0  0  0  0  0  0  0  0
  139.7404   77.0371  223.5900 H   0  0  0  0  0  0  0  0  0  0  0  0
  141.9768   72.2576  221.1262 H   0  0  0  0  0  0  0  0  0  0  0  0
  139.0875   72.8025  221.0607 H   0  0  0  0  0  0  0  0  0  0  0  0
  138.3978   70.2672  221.8335 H   0  0  0  0  0  0  0  0  0  0  0  0
  138.0941   68.8422  223.8352 H   0  0  0  0  0  0  0  0  0  0  0  0
  139.2649   69.3824  225.9487 H   0  0  0  0  0  0  0  0  0  0  0  0
  141.0467   72.7660  224.0534 H   0  0  0  0  0  0  0  0  0  0  0  0
  142.0659   73.0288  218.9687 H   0  0  0  0  0  0  0  0  0  0  0  0
  142.6545   74.5314  218.0703 H   0  0  0  0  0  0  0  0  0  0  0  0
  144.6594   74.0275  218.4543 H   0  0  0  0  0  0  0  0  0  0  0  0
  143.4330   71.7782  220.2006 H   0  0  0  0  0  0  0  0  0  0  0  0
  143.8270   71.6757  218.4210 H   0  0  0  0  0  0  0  0  0  0  0  0
  145.3844   70.5183  220.0214 H   0  0  0  0  0  0  0  0  0  0  0  0
  146.0834   71.6793  218.7986 H   0  0  0  0  0  0  0  0  0  0  0  0
  147.0340   71.8950  221.0500 H   0  0  0  0  0  0  0  0  0  0  0  0
  146.6486   74.2220  221.3857 H   0  0  0  0  0  0  0  0  0  0  0  0
  146.6076   73.9806  219.6148 H   0  0  0  0  0  0  0  0  0  0  0  0
  144.1148   73.7880  221.4212 H   0  0  0  0  0  0  0  0  0  0  0  0
  144.5647   75.2723  220.5701 H   0  0  0  0  0  0  0  0  0  0  0  0
  1  2  2  0
  2  3  1  0
  3  4  2  0
  4  5  1  0
  5  6  2  0
  6  7  1  0
  6  8  1  0
  8  9  2  0
  9 10  1  0
 10 11  2  0
 11 12  1  0
 12 13  2  0
 13 14  1  0
 14 15  2  0
 15 16  1  0
 16 17  2  0
 17 18  1  0
 18 19  1  0
 18 20  2  0
 11 21  1  0
 21 22  1  0
 22 23  1  0
 23 24  1  0
 24 25  1  0
 25 26  1  0
 26 27  1  0
 27 28  1  0
 21  2  1  0
 28 23  1  0
  9  3  1  0
 20 14  1  0
  4 29  1  0
  5 30  1  0
  8 31  1  0
 12 32  1  0
 13 33  1  0
 15 34  1  0
 16 35  1  0
 17 36  1  0
 20 37  1  0
 22 38  1  0
 22 39  1  0
 23 40  1  0
 24 41  1  0
 24 42  1  0
 25 43  1  0
 25 44  1  0
 26 45  1  0
 27 46  1  0
 27 47  1  0
 28 48  1  0
 28 49  1  0
M  END
>  <smiles>  (29) 
O=c1c2ccc(Cl)cc2nc(/C=C/c2cccc(Cl)c2)n1CC1CCNCC1

>  <score_type>  (29) 
oracle

>  <origin>  (29) 
autodockgpu

>  <m_score__min__energy>  (29) 
-8.5299999999999994

>  <m_primary>  (29) 
energy

>  <rmsd>  (29) 
5.1456807796388855

>  <m_score__min__rmsd>  (29) 
5.1456807796388855

>  <meeko>  (29) 
{"free_energy": -8.1, "intermolecular_energy": -9.59, "internal_energy": -1.23, "cluster_size": 29, "cluster_id": 1, "rank_in_cluster": 23}

>  <energy>  (29) 
-7.54

>  <cluster_rmsd>  (29) 
1.77

>  <cluster>  (29) 
1

$$$$

     RDKit          3D

 49 52  0  0  0  0  0  0  0  0999 V2000
  136.1200   75.0310  222.4320 O   0  0  0  0  0  0  0  0  0  0  0  0
  137.3470   74.7120  222.2910 C   0  0  0  0  0  0  0  0  0  0  0  0
  138.2820   75.7180  222.4020 C   0  0  0  0  0  0  0  0  0  0  0  0
  137.8790   77.0160  222.6560 C   0  0  0  0  0  0  0  0  0  0  0  0
  138.8480   78.0080  222.7610 C   0  0  0  0  0  0  0  0  0  0  0  0
  140.1870   77.6920  222.6130 C   0  0  0  0  0  0  0  0  0  0  0  0
  141.3910   78.9610  222.7500 Cl  0  0  0  0  0  0  0  0  0  0  0  0
  140.6050   76.3830  222.3560 C   0  0  0  0  0  0  0  0  0  0  0  0
  139.6220   75.4220  222.2570 C   0  0  0  0  0  0  0  0  0  0  0  0
  139.9330   74.1360  222.0120 N   0  0  0  0  0  0  0  0  0  0  0  0
  139.0150   73.1600  221.9060 C   0  0  0  0  0  0  0  0  0  0  0  0
  139.4770   71.7910  221.6480 C   0  0  0  0  0  0  0  0  0  0  0  0
  140.3820   71.2500  222.4260 C   0  0  0  0  0  0  0  0  0  0  0  0
  140.1350   70.7810  223.7810 C   0  0  0  0  0  0  0  0  0  0  0  0
  139.4480   69.6330  224.0820 C   0  0  0  0  0  0  0  0  0  0  0  0
  139.2430   69.2360  225.4000 C   0  0  0  0  0  0  0  0  0  0  0  0
  139.7270   69.9920  226.4400 C   0  0  0  0  0  0  0  0  0  0  0  0
  140.4190   71.1460  226.1660 C   0  0  0  0  0  0  0  0  0  0  0  0
  141.0510   72.1340  227.4470 Cl  0  0  0  0  0  0  0  0  0  0  0  0
  140.6100   71.5180  224.8600 C   0  0  0  0  0  0  0  0  0  0  0  0
  137.7000   73.4170  222.0410 N   0  0  0  0  0  0  0  0  0  0  0  0
  136.6640   72.4330  221.9230 C   0  0  0  0  0  0  0  0  0  0  0  0
  136.6730   71.3480  222.9430 C   0  0  0  0  0  0  0  0  0  0  0  0
  136.5200   70.0370  222.1850 C   0  0  0  0  0  0  0  0  0  0  0  0
  136.4690   68.8460  223.0730 C   0  0  0  0  0  0  0  0  0  0  0  0
  135.5920   69.0170  224.2120 N   0  0  0  0  0  0  0  0  0  0  0  0
  135.8250   70.2370  224.9210 C   0  0  0  0  0  0  0  0  0  0  0  0
  135.5690   71.4090  223.9630 C   0  0  0  0  0  0  0  0  0  0  0  0
  136.8126   77.2593  222.7728 H   0  0  0  0  0  0  0  0  0  0  0  0
  138.5490   79.0473  222.9624 H   0  0  0  0  0  0  0  0  0  0  0  0
  141.6694   76.1316  222.2382 H   0  0  0  0  0  0  0  0  0  0  0  0
  139.0643   71.2202  220.8031 H   0  0  0  0  0  0  0  0  0  0  0  0
  141.4011   71.1428  222.0262 H   0  0  0  0  0  0  0  0  0  0  0  0
  139.0507   69.0131  223.2648 H   0  0  0  0  0  0  0  0  0  0  0  0
  138.6889   68.3094  225.6108 H   0  0  0  0  0  0  0  0  0  0  0  0
  139.5620   69.6764  227.4808 H   0  0  0  0  0  0  0  0  0  0  0  0
  141.1662   72.4448  224.6561 H   0  0  0  0  0  0  0  0  0  0  0  0
  135.6971   72.9527  221.9934 H   0  0  0  0  0  0  0  0  0  0  0  0
  136.8385   71.9338  220.9585 H   0  0  0  0  0  0  0  0  0  0  0  0
  137.6118   71.4510  223.5069 H   0  0  0  0  0  0  0  0  0  0  0  0
  135.5882   70.0777  221.6019 H   0  0  0  0  0  0  0  0  0  0  0  0
  137.4066   69.9267  221.5432 H   0  0  0  0  0  0  0  0  0  0  0  0
  136.1136   67.9871  222.4848 H   0  0  0  0  0  0  0  0  0  0  0  0
  137.4846   68.6887  223.4651 H   0  0  0  0  0  0  0  0  0  0  0  0
  135.4750   68.1710  224.7720 H   0  0  0  0  0  0  0  0  0  0  0  0
  135.1420   70.3036  225.7807 H   0  0  0  0  0  0  0  0  0  0  0  0
  136.8609   70.2687  225.2896 H   0  0  0  0  0  0  0  0  0  0  0  0
  134.5893   71.2989  223.4751 H   0  0  0  0  0  0  0  0  0  0  0  0
  135.5584   72.3726  224.4933 H   0  0  0  0  0  0  0  0  0  0  0  0
  1  2  2  0
  2  3  1  0
  3  4  2  0
  4  5  1  0
  5  6  2  0
  6  7  1  0
  6  8  1  0
  8  9  2  0
  9 10  1  0
 10 11  2  0
 11 12  1  0
 12 13  2  0
 13 14  1  0
 14 15  2  0
 15 16  1  0
 16 17  2  0
 17 18  1  0
 18 19  1  0
 18 20  2  0
 11 21  1  0
 21 22  1  0
 22 23  1  0
 23 24  1  0
 24 25  1  0
 25 26  1  0
 26 27  1  0
 27 28  1  0
 21  2  1  0
 28 23  1  0
  9  3  1  0
 20 14  1  0
  4 29  1  0
  5 30  1  0
  8 31  1  0
 12 32  1  0
 13 33  1  0
 15 34  1  0
 16 35  1  0
 17 36  1  0
 20 37  1  0
 22 38  1  0
 22 39  1  0
 23 40  1  0
 24 41  1  0
 24 42  1  0
 25 43  1  0
 25 44  1  0
 26 45  1  0
 27 46  1  0
 27 47  1  0
 28 48  1  0
 28 49  1  0
M  END
>  <smiles>  (30) 
O=c1c2ccc(Cl)cc2nc(/C=C/c2cccc(Cl)c2)n1CC1CCNCC1

>  <score_type>  (30) 
oracle

>  <origin>  (30) 
autodockgpu

>  <m_score__min__energy>  (30) 
-8.5299999999999994

>  <m_primary>  (30) 
energy

>  <rmsd>  (30) 
7.307742394331397

>  <m_score__min__rmsd>  (30) 
7.307742394331397

>  <meeko>  (30) 
{"free_energy": -7.27, "intermolecular_energy": -8.77, "internal_energy": -1.93, "cluster_size": 10, "cluster_id": 4, "rank_in_cluster": 7}

>  <energy>  (30) 
-8.09

>  <cluster_rmsd>  (30) 
0.0

>  <cluster>  (30) 
2

$$$$

     RDKit          3D

 49 52  0  0  0  0  0  0  0  0999 V2000
  142.6570   76.1890  219.0260 O   0  0  0  0  0  0  0  0  0  0  0  0
  141.8830   75.8920  219.9950 C   0  0  0  0  0  0  0  0  0  0  0  0
  141.4500   76.9210  220.8020 C   0  0  0  0  0  0  0  0  0  0  0  0
  141.8560   78.2200  220.5490 C   0  0  0  0  0  0  0  0  0  0  0  0
  141.4010   79.2360  221.3830 C   0  0  0  0  0  0  0  0  0  0  0  0
  140.5590   78.9440  222.4420 C   0  0  0  0  0  0  0  0  0  0  0  0
  140.0000   80.2430  223.4800 Cl  0  0  0  0  0  0  0  0  0  0  0  0
  140.1440   77.6360  222.7060 C   0  0  0  0  0  0  0  0  0  0  0  0
  140.6100   76.6500  221.8630 C   0  0  0  0  0  0  0  0  0  0  0  0
  140.2610   75.3630  222.0420 N   0  0  0  0  0  0  0  0  0  0  0  0
  140.6870   74.3640  221.2510 C   0  0  0  0  0  0  0  0  0  0  0  0
  140.2290   73.0000  221.5390 C   0  0  0  0  0  0  0  0  0  0  0  0
  140.9230   72.2340  222.3460 C   0  0  0  0  0  0  0  0  0  0  0  0
  140.3620   71.4700  223.4490 C   0  0  0  0  0  0  0  0  0  0  0  0
  139.4820   70.4300  223.2900 C   0  0  0  0  0  0  0  0  0  0  0  0
  138.9770   69.7340  224.3840 C   0  0  0  0  0  0  0  0  0  0  0  0
  139.3510   70.0770  225.6610 C   0  0  0  0  0  0  0  0  0  0  0  0
  140.2310   71.1140  225.8480 C   0  0  0  0  0  0  0  0  0  0  0  0
  140.7340   71.5840  227.4430 Cl  0  0  0  0  0  0  0  0  0  0  0  0
  140.7160   71.7860  224.7550 C   0  0  0  0  0  0  0  0  0  0  0  0
  141.5070   74.5960  220.2080 N   0  0  0  0  0  0  0  0  0  0  0  0
  142.0160   73.5810  219.3330 C   0  0  0  0  0  0  0  0  0  0  0  0
  143.1180   72.7400  219.8790 C   0  0  0  0  0  0  0  0  0  0  0  0
  144.1780   73.6980  220.4040 C   0  0  0  0  0  0  0  0  0  0  0  0
  145.3760   73.0080  220.9510 C   0  0  0  0  0  0  0  0  0  0  0  0
  145.8600   71.9400  220.1010 N   0  0  0  0  0  0  0  0  0  0  0  0
  144.8300   71.0370  219.6910 C   0  0  0  0  0  0  0  0  0  0  0  0
  143.7870   71.8270  218.8890 C   0  0  0  0  0  0  0  0  0  0  0  0
  142.5251   78.4443  219.7052 H   0  0  0  0  0  0  0  0  0  0  0  0
  141.7115   80.2753  221.2002 H   0  0  0  0  0  0  0  0  0  0  0  0
  139.4757   77.4038  223.5483 H   0  0  0  0  0  0  0  0  0  0  0  0
  139.3048   72.6206  221.0786 H   0  0  0  0  0  0  0  0  0  0  0  0
  142.0076   72.1643  222.1764 H   0  0  0  0  0  0  0  0  0  0  0  0
  139.1688   70.1400  222.2762 H   0  0  0  0  0  0  0  0  0  0  0  0
  138.2735   68.9034  224.2255 H   0  0  0  0  0  0  0  0  0  0  0  0
  138.9494   69.5264  226.5245 H   0  0  0  0  0  0  0  0  0  0  0  0
  141.4194   72.6154  224.9204 H   0  0  0  0  0  0  0  0  0  0  0  0
  141.1818   72.9137  219.0706 H   0  0  0  0  0  0  0  0  0  0  0  0
  142.4496   74.1182  218.4766 H   0  0  0  0  0  0  0  0  0  0  0  0
  142.6689   72.0840  220.6393 H   0  0  0  0  0  0  0  0  0  0  0  0
  144.4978   74.3510  219.5786 H   0  0  0  0  0  0  0  0  0  0  0  0
  143.7238   74.2654  221.2297 H   0  0  0  0  0  0  0  0  0  0  0  0
  146.1801   73.7486  221.0731 H   0  0  0  0  0  0  0  0  0  0  0  0
  145.0816   72.5541  221.9087 H   0  0  0  0  0  0  0  0  0  0  0  0
  146.7390   71.5270  220.4190 H   0  0  0  0  0  0  0  0  0  0  0  0
  145.2598   70.2435  219.0620 H   0  0  0  0  0  0  0  0  0  0  0  0
  144.3599   70.5739  220.5711 H   0  0  0  0  0  0  0  0  0  0  0  0
  144.2758   72.4128  218.0966 H   0  0  0  0  0  0  0  0  0  0  0  0
  143.0628   71.1605  218.3978 H   0  0  0  0  0  0  0  0  0  0  0  0
  1  2  2  0
  2  3  1  0
  3  4  2  0
  4  5  1  0
  5  6  2  0
  6  7  1  0
  6  8  1  0
  8  9  2  0
  9 10  1  0
 10 11  2  0
 11 12  1  0
 12 13  2  0
 13 14  1  0
 14 15  2  0
 15 16  1  0
 16 17  2  0
 17 18  1  0
 18 19  1  0
 18 20  2  0
 11 21  1  0
 21 22  1  0
 22 23  1  0
 23 24  1  0
 24 25  1  0
 25 26  1  0
 26 27  1  0
 27 28  1  0
 21  2  1  0
 28 23  1  0
  9  3  1  0
 20 14  1  0
  4 29  1  0
  5 30  1  0
  8 31  1  0
 12 32  1  0
 13 33  1  0
 15 34  1  0
 16 35  1  0
 17 36  1  0
 20 37  1  0
 22 38  1  0
 22 39  1  0
 23 40  1  0
 24 41  1  0
 24 42  1  0
 25 43  1  0
 25 44  1  0
 26 45  1  0
 27 46  1  0
 27 47  1  0
 28 48  1  0
 28 49  1  0
M  END
>  <smiles>  (31) 
O=c1c2ccc(Cl)cc2nc(/C=C/c2cccc(Cl)c2)n1CC1CCNCC1

>  <score_type>  (31) 
oracle

>  <origin>  (31) 
autodockgpu

>  <m_score__min__energy>  (31) 
-8.5299999999999994

>  <m_primary>  (31) 
energy

>  <rmsd>  (31) 
4.853295599643497

>  <m_score__min__rmsd>  (31) 
4.853295599643497

>  <meeko>  (31) 
{"free_energy": -8.38, "intermolecular_energy": -9.87, "internal_energy": -1.21, "cluster_size": 29, "cluster_id": 1, "rank_in_cluster": 13}

>  <energy>  (31) 
-7.76

>  <cluster_rmsd>  (31) 
0.0

>  <cluster>  (31) 
3

$$$$

     RDKit          3D

 49 52  0  0  0  0  0  0  0  0999 V2000
  139.6000   74.9030  220.2400 O   0  0  0  0  0  0  0  0  0  0  0  0
  140.6190   75.6040  219.9330 C   0  0  0  0  0  0  0  0  0  0  0  0
  141.8620   75.0430  220.1310 C   0  0  0  0  0  0  0  0  0  0  0  0
  141.9710   73.7640  220.6470 C   0  0  0  0  0  0  0  0  0  0  0  0
  143.2400   73.2260  220.8360 C   0  0  0  0  0  0  0  0  0  0  0  0
  144.3640   73.9640  220.5110 C   0  0  0  0  0  0  0  0  0  0  0  0
  145.9540   73.2640  220.7580 Cl  0  0  0  0  0  0  0  0  0  0  0  0
  144.2650   75.2570  219.9900 C   0  0  0  0  0  0  0  0  0  0  0  0
  142.9940   75.7630  219.8140 C   0  0  0  0  0  0  0  0  0  0  0  0
  142.8040   76.9990  219.3180 N   0  0  0  0  0  0  0  0  0  0  0  0
  141.5890   77.5410  219.1260 C   0  0  0  0  0  0  0  0  0  0  0  0
  141.5070   78.8950  218.5670 C   0  0  0  0  0  0  0  0  0  0  0  0
  142.1730   79.8750  219.1290 C   0  0  0  0  0  0  0  0  0  0  0  0
  141.8750   80.4340  220.4380 C   0  0  0  0  0  0  0  0  0  0  0  0
  141.5070   81.7390  220.6490 C   0  0  0  0  0  0  0  0  0  0  0  0
  141.2340   82.2170  221.9260 C   0  0  0  0  0  0  0  0  0  0  0  0
  141.3280   81.3880  223.0170 C   0  0  0  0  0  0  0  0  0  0  0  0
  141.6950   80.0770  222.8340 C   0  0  0  0  0  0  0  0  0  0  0  0
  141.8280   78.9900  224.1820 Cl  0  0  0  0  0  0  0  0  0  0  0  0
  141.9590   79.6260  221.5660 C   0  0  0  0  0  0  0  0  0  0  0  0
  140.4640   76.8630  219.4270 N   0  0  0  0  0  0  0  0  0  0  0  0
  139.1370   77.3810  219.2680 C   0  0  0  0  0  0  0  0  0  0  0  0
  138.5220   77.9850  220.4820 C   0  0  0  0  0  0  0  0  0  0  0  0
  138.5560   79.4940  220.2820 C   0  0  0  0  0  0  0  0  0  0  0  0
  138.0090   80.2540  221.4380 C   0  0  0  0  0  0  0  0  0  0  0  0
  138.4940   79.7790  222.7170 N   0  0  0  0  0  0  0  0  0  0  0  0
  138.3780   78.3620  222.8700 C   0  0  0  0  0  0  0  0  0  0  0  0
  139.2220   77.6870  221.7790 C   0  0  0  0  0  0  0  0  0  0  0  0
  141.0721   73.1839  220.9028 H   0  0  0  0  0  0  0  0  0  0  0  0
  143.3499   72.2108  221.2451 H   0  0  0  0  0  0  0  0  0  0  0  0
  145.1590   75.8438  219.7323 H   0  0  0  0  0  0  0  0  0  0  0  0
  140.8881   79.0878  217.6783 H   0  0  0  0  0  0  0  0  0  0  0  0
  143.0174   80.3049  218.5703 H   0  0  0  0  0  0  0  0  0  0  0  0
  141.4263   82.4213  219.7900 H   0  0  0  0  0  0  0  0  0  0  0  0
  140.9402   83.2681  222.0635 H   0  0  0  0  0  0  0  0  0  0  0  0
  141.1119   81.7695  224.0258 H   0  0  0  0  0  0  0  0  0  0  0  0
  142.2514   78.5737  221.4352 H   0  0  0  0  0  0  0  0  0  0  0  0
  139.1691   78.1546  218.4867 H   0  0  0  0  0  0  0  0  0  0  0  0
  138.5083   76.5138  219.0174 H   0  0  0  0  0  0  0  0  0  0  0  0
  137.5151   77.5522  220.5761 H   0  0  0  0  0  0  0  0  0  0  0  0
  139.6003   79.8018  220.1247 H   0  0  0  0  0  0  0  0  0  0  0  0
  137.9210   79.7216  219.4131 H   0  0  0  0  0  0  0  0  0  0  0  0
  138.2937   81.3107  221.3273 H   0  0  0  0  0  0  0  0  0  0  0  0
  136.9177   80.1158  221.4317 H   0  0  0  0  0  0  0  0  0  0  0  0
  138.2020   80.3560  223.5070 H   0  0  0  0  0  0  0  0  0  0  0  0
  138.7465   78.0639  223.8627 H   0  0  0  0  0  0  0  0  0  0  0  0
  137.3254   78.0563  222.7774 H   0  0  0  0  0  0  0  0  0  0  0  0
  140.2405   78.1025  221.7697 H   0  0  0  0  0  0  0  0  0  0  0  0
  139.3171   76.6046  221.9502 H   0  0  0  0  0  0  0  0  0  0  0  0
  1  2  2  0
  2  3  1  0
  3  4  2  0
  4  5  1  0
  5  6  2  0
  6  7  1  0
  6  8  1  0
  8  9  2  0
  9 10  1  0
 10 11  2  0
 11 12  1  0
 12 13  2  0
 13 14  1  0
 14 15  2  0
 15 16  1  0
 16 17  2  0
 17 18  1  0
 18 19  1  0
 18 20  2  0
 11 21  1  0
 21 22  1  0
 22 23  1  0
 23 24  1  0
 24 25  1  0
 25 26  1  0
 26 27  1  0
 27 28  1  0
 21  2  1  0
 28 23  1  0
  9  3  1  0
 20 14  1  0
  4 29  1  0
  5 30  1  0
  8 31  1  0
 12 32  1  0
 13 33  1  0
 15 34  1  0
 16 35  1  0
 17 36  1  0
 20 37  1  0
 22 38  1  0
 22 39  1  0
 23 40  1  0
 24 41  1  0
 24 42  1  0
 25 43  1  0
 25 44  1  0
 26 45  1  0
 27 46  1  0
 27 47  1  0
 28 48  1  0
 28 49  1  0
M  END
>  <smiles>  (32) 
O=c1c2ccc(Cl)cc2nc(/C=C/c2cccc(Cl)c2)n1CC1CCNCC1

>  <score_type>  (32) 
oracle

>  <origin>  (32) 
autodockgpu

>  <m_score__min__energy>  (32) 
-8.5299999999999994

>  <m_primary>  (32) 
energy

>  <rmsd>  (32) 
6.9325035484710495

>  <m_score__min__rmsd>  (32) 
6.9325035484710495

>  <meeko>  (32) 
{"free_energy": -6.04, "intermolecular_energy": -7.53, "internal_energy": -2.49, "cluster_size": 1, "cluster_id": 11, "rank_in_cluster": 1}

>  <energy>  (32) 
-7.6

>  <cluster_rmsd>  (32) 
0.0

>  <cluster>  (32) 
4

$$$$

     RDKit          3D

 49 52  0  0  0  0  0  0  0  0999 V2000
  136.1200   75.0240  222.4250 O   0  0  0  0  0  0  0  0  0  0  0  0
  137.3470   74.7060  222.2890 C   0  0  0  0  0  0  0  0  0  0  0  0
  138.2810   75.7140  222.3970 C   0  0  0  0  0  0  0  0  0  0  0  0
  137.8750   77.0130  222.6440 C   0  0  0  0  0  0  0  0  0  0  0  0
  138.8430   78.0070  222.7460 C   0  0  0  0  0  0  0  0  0  0  0  0
  140.1830   77.6910  222.6040 C   0  0  0  0  0  0  0  0  0  0  0  0
  141.3840   78.9630  222.7380 Cl  0  0  0  0  0  0  0  0  0  0  0  0
  140.6030   76.3820  222.3550 C   0  0  0  0  0  0  0  0  0  0  0  0
  139.6210   75.4180  222.2580 C   0  0  0  0  0  0  0  0  0  0  0  0
  139.9350   74.1320  222.0200 N   0  0  0  0  0  0  0  0  0  0  0  0
  139.0180   73.1540  221.9160 C   0  0  0  0  0  0  0  0  0  0  0  0
  139.4830   71.7850  221.6660 C   0  0  0  0  0  0  0  0  0  0  0  0
  140.3890   71.2500  222.4490 C   0  0  0  0  0  0  0  0  0  0  0  0
  140.1430   70.7880  223.8060 C   0  0  0  0  0  0  0  0  0  0  0  0
  139.4490   69.6460  224.1130 C   0  0  0  0  0  0  0  0  0  0  0  0
  139.2440   69.2550  225.4330 C   0  0  0  0  0  0  0  0  0  0  0  0
  139.7360   70.0110  226.4680 C   0  0  0  0  0  0  0  0  0  0  0  0
  140.4340   71.1600  226.1890 C   0  0  0  0  0  0  0  0  0  0  0  0
  141.0760   72.1490  227.4640 Cl  0  0  0  0  0  0  0  0  0  0  0  0
  140.6250   71.5260  224.8810 C   0  0  0  0  0  0  0  0  0  0  0  0
  137.7020   73.4100  222.0470 N   0  0  0  0  0  0  0  0  0  0  0  0
  136.6680   72.4250  221.9300 C   0  0  0  0  0  0  0  0  0  0  0  0
  136.6810   71.3400  222.9510 C   0  0  0  0  0  0  0  0  0  0  0  0
  136.5300   70.0280  222.1930 C   0  0  0  0  0  0  0  0  0  0  0  0
  136.4820   68.8370  223.0820 C   0  0  0  0  0  0  0  0  0  0  0  0
  135.6070   69.0070  224.2230 N   0  0  0  0  0  0  0  0  0  0  0  0
  135.8390   70.2280  224.9310 C   0  0  0  0  0  0  0  0  0  0  0  0
  135.5790   71.3990  223.9730 C   0  0  0  0  0  0  0  0  0  0  0  0
  136.8080   77.2553  222.7575 H   0  0  0  0  0  0  0  0  0  0  0  0
  138.5425   79.0472  222.9401 H   0  0  0  0  0  0  0  0  0  0  0  0
  141.6681   76.1315  222.2415 H   0  0  0  0  0  0  0  0  0  0  0  0
  139.0726   71.2087  220.8237 H   0  0  0  0  0  0  0  0  0  0  0  0
  141.4087   71.1430  222.0506 H   0  0  0  0  0  0  0  0  0  0  0  0
  139.0458   69.0258  223.2989 H   0  0  0  0  0  0  0  0  0  0  0  0
  138.6836   68.3333  225.6485 H   0  0  0  0  0  0  0  0  0  0  0  0
  139.5726   69.6994  227.5102 H   0  0  0  0  0  0  0  0  0  0  0  0
  141.1869   72.4484  224.6725 H   0  0  0  0  0  0  0  0  0  0  0  0
  135.7002   72.9429  222.0016 H   0  0  0  0  0  0  0  0  0  0  0  0
  136.8414   71.9262  220.9650 H   0  0  0  0  0  0  0  0  0  0  0  0
  137.6203   71.4452  223.5138 H   0  0  0  0  0  0  0  0  0  0  0  0
  135.5977   70.0667  221.6105 H   0  0  0  0  0  0  0  0  0  0  0  0
  137.4161   69.9193  221.5504 H   0  0  0  0  0  0  0  0  0  0  0  0
  136.1265   67.9775  222.4948 H   0  0  0  0  0  0  0  0  0  0  0  0
  137.4986   68.6814  223.4723 H   0  0  0  0  0  0  0  0  0  0  0  0
  135.4920   68.1610  224.7830 H   0  0  0  0  0  0  0  0  0  0  0  0
  135.1575   70.2937  225.7920 H   0  0  0  0  0  0  0  0  0  0  0  0
  136.8756   70.2619  225.2975 H   0  0  0  0  0  0  0  0  0  0  0  0
  134.5986   71.2867  223.4870 H   0  0  0  0  0  0  0  0  0  0  0  0
  135.5675   72.3628  224.5031 H   0  0  0  0  0  0  0  0  0  0  0  0
  1  2  2  0
  2  3  1  0
  3  4  2  0
  4  5  1  0
  5  6  2  0
  6  7  1  0
  6  8  1  0
  8  9  2  0
  9 10  1  0
 10 11  2  0
 11 12  1  0
 12 13  2  0
 13 14  1  0
 14 15  2  0
 15 16  1  0
 16 17  2  0
 17 18  1  0
 18 19  1  0
 18 20  2  0
 11 21  1  0
 21 22  1  0
 22 23  1  0
 23 24  1  0
 24 25  1  0
 25 26  1  0
 26 27  1  0
 27 28  1  0
 21  2  1  0
 28 23  1  0
  9  3  1  0
 20 14  1  0
  4 29  1  0
  5 30  1  0
  8 31  1  0
 12 32  1  0
 13 33  1  0
 15 34  1  0
 16 35  1  0
 17 36  1  0
 20 37  1  0
 22 38  1  0
 22 39  1  0
 23 40  1  0
 24 41  1  0
 24 42  1  0
 25 43  1  0
 25 44  1  0
 26 45  1  0
 27 46  1  0
 27 47  1  0
 28 48  1  0
 28 49  1  0
M  END
>  <smiles>  (33) 
O=c1c2ccc(Cl)cc2nc(/C=C/c2cccc(Cl)c2)n1CC1CCNCC1

>  <score_type>  (33) 
oracle

>  <origin>  (33) 
autodockgpu

>  <m_score__min__energy>  (33) 
-8.5299999999999994

>  <m_primary>  (33) 
energy

>  <rmsd>  (33) 
7.310397485126962

>  <m_score__min__rmsd>  (33) 
7.310397485126962

>  <meeko>  (33) 
{"free_energy": -7.3, "intermolecular_energy": -8.79, "internal_energy": -1.92, "cluster_size": 10, "cluster_id": 4, "rank_in_cluster": 6}

>  <energy>  (33) 
-7.6

>  <cluster_rmsd>  (33) 
0.05

>  <cluster>  (33) 
4

$$$$

     RDKit          3D

 49 52  0  0  0  0  0  0  0  0999 V2000
  142.0810   76.0040  216.8640 O   0  0  0  0  0  0  0  0  0  0  0  0
  141.9390   76.6280  217.9670 C   0  0  0  0  0  0  0  0  0  0  0  0
  141.9880   78.0050  217.9300 C   0  0  0  0  0  0  0  0  0  0  0  0
  142.1870   78.6600  216.7290 C   0  0  0  0  0  0  0  0  0  0  0  0
  142.2320   80.0510  216.7260 C   0  0  0  0  0  0  0  0  0  0  0  0
  142.0810   80.7550  217.9080 C   0  0  0  0  0  0  0  0  0  0  0  0
  142.1420   82.5080  217.8790 Cl  0  0  0  0  0  0  0  0  0  0  0  0
  141.8800   80.1010  219.1280 C   0  0  0  0  0  0  0  0  0  0  0  0
  141.8390   78.7230  219.0980 C   0  0  0  0  0  0  0  0  0  0  0  0
  141.6500   78.0120  220.2240 N   0  0  0  0  0  0  0  0  0  0  0  0
  141.6030   76.6700  220.2530 C   0  0  0  0  0  0  0  0  0  0  0  0
  141.3790   76.0050  221.5420 C   0  0  0  0  0  0  0  0  0  0  0  0
  140.4410   76.4420  222.3480 C   0  0  0  0  0  0  0  0  0  0  0  0
  140.3200   77.8160  222.8090 C   0  0  0  0  0  0  0  0  0  0  0  0
  139.1230   78.4590  222.9950 C   0  0  0  0  0  0  0  0  0  0  0  0
  139.0700   79.7770  223.4380 C   0  0  0  0  0  0  0  0  0  0  0  0
  140.2260   80.4710  223.7010 C   0  0  0  0  0  0  0  0  0  0  0  0
  141.4380   79.8510  223.5230 C   0  0  0  0  0  0  0  0  0  0  0  0
  142.9260   80.6870  223.8420 Cl  0  0  0  0  0  0  0  0  0  0  0  0
  141.4670   78.5510  223.0860 C   0  0  0  0  0  0  0  0  0  0  0  0
  141.7450   75.9390  219.1300 N   0  0  0  0  0  0  0  0  0  0  0  0
  141.7240   74.5070  219.0840 C   0  0  0  0  0  0  0  0  0  0  0  0
  143.0090   73.8240  219.4040 C   0  0  0  0  0  0  0  0  0  0  0  0
  142.6690   72.6720  220.3400 C   0  0  0  0  0  0  0  0  0  0  0  0
  143.8620   71.9080  220.7900 C   0  0  0  0  0  0  0  0  0  0  0  0
  144.9600   72.7530  221.2090 N   0  0  0  0  0  0  0  0  0  0  0  0
  145.2740   73.7770  220.2610 C   0  0  0  0  0  0  0  0  0  0  0  0
  144.0400   74.6750  220.0940 C   0  0  0  0  0  0  0  0  0  0  0  0
  142.3074   78.0930  215.7941 H   0  0  0  0  0  0  0  0  0  0  0  0
  142.3880   80.5925  215.7813 H   0  0  0  0  0  0  0  0  0  0  0  0
  141.7602   80.6600  220.0678 H   0  0  0  0  0  0  0  0  0  0  0  0
  141.9964   75.1419  221.8316 H   0  0  0  0  0  0  0  0  0  0  0  0
  139.6922   75.7173  222.7005 H   0  0  0  0  0  0  0  0  0  0  0  0
  138.1854   77.9217  222.7897 H   0  0  0  0  0  0  0  0  0  0  0  0
  138.0952   80.2669  223.5787 H   0  0  0  0  0  0  0  0  0  0  0  0
  140.1811   81.5130  224.0507 H   0  0  0  0  0  0  0  0  0  0  0  0
  142.4450   78.0668  222.9481 H   0  0  0  0  0  0  0  0  0  0  0  0
  140.9691   74.1582  219.8041 H   0  0  0  0  0  0  0  0  0  0  0  0
  141.5027   74.2472  218.0383 H   0  0  0  0  0  0  0  0  0  0  0  0
  143.4564   73.5250  218.4446 H   0  0  0  0  0  0  0  0  0  0  0  0
  142.1613   73.0805  221.2262 H   0  0  0  0  0  0  0  0  0  0  0  0
  142.0284   71.9752  219.7795 H   0  0  0  0  0  0  0  0  0  0  0  0
  143.5690   71.2708  221.6375 H   0  0  0  0  0  0  0  0  0  0  0  0
  144.2144   71.3192  219.9303 H   0  0  0  0  0  0  0  0  0  0  0  0
  145.7450   72.2390  221.6120 H   0  0  0  0  0  0  0  0  0  0  0  0
  146.1221   74.3747  220.6265 H   0  0  0  0  0  0  0  0  0  0  0  0
  145.5489   73.3277  219.2953 H   0  0  0  0  0  0  0  0  0  0  0  0
  143.6701   75.0054  221.0759 H   0  0  0  0  0  0  0  0  0  0  0  0
  144.2722   75.5813  219.5155 H   0  0  0  0  0  0  0  0  0  0  0  0
  1  2  2  0
  2  3  1  0
  3  4  2  0
  4  5  1  0
  5  6  2  0
  6  7  1  0
  6  8  1  0
  8  9  2  0
  9 10  1  0
 10 11  2  0
 11 12  1  0
 12 13  2  0
 13 14  1  0
 14 15  2  0
 15 16  1  0
 16 17  2  0
 17 18  1  0
 18 19  1  0
 18 20  2  0
 11 21  1  0
 21 22  1  0
 22 23  1  0
 23 24  1  0
 24 25  1  0
 25 26  1  0
 26 27  1  0
 27 28  1  0
 21  2  1  0
 28 23  1  0
  9  3  1  0
 20 14  1  0
  4 29  1  0
  5 30  1  0
  8 31  1  0
 12 32  1  0
 13 33  1  0
 15 34  1  0
 16 35  1  0
 17 36  1  0
 20 37  1  0
 22 38  1  0
 22 39  1  0
 23 40  1  0
 24 41  1  0
 24 42  1  0
 25 43  1  0
 25 44  1  0
 26 45  1  0
 27 46  1  0
 27 47  1  0
 28 48  1  0
 28 49  1  0
M  END
>  <smiles>  (34) 
O=c1c2ccc(Cl)cc2nc(/C=C/c2cccc(Cl)c2)n1CC1CCNCC1

>  <score_type>  (34) 
oracle

>  <origin>  (34) 
autodockgpu

>  <m_score__min__energy>  (34) 
-8.5299999999999994

>  <m_primary>  (34) 
energy

>  <rmsd>  (34) 
5.014772544605612

>  <m_score__min__rmsd>  (34) 
5.014772544605612

>  <meeko>  (34) 
{"free_energy": -7.23, "intermolecular_energy": -8.72, "internal_energy": -1.49, "cluster_size": 2, "cluster_id": 5, "rank_in_cluster": 2}

>  <energy>  (34) 
-7.59

>  <cluster_rmsd>  (34) 
0.03

>  <cluster>  (34) 
4

$$$$

     RDKit          3D

 49 52  0  0  0  0  0  0  0  0999 V2000
  136.5130   75.7590  222.3040 O   0  0  0  0  0  0  0  0  0  0  0  0
  137.7280   75.3780  222.2430 C   0  0  0  0  0  0  0  0  0  0  0  0
  138.7050   76.3440  222.3560 C   0  0  0  0  0  0  0  0  0  0  0  0
  138.3520   77.6700  222.5280 C   0  0  0  0  0  0  0  0  0  0  0  0
  139.3620   78.6210  222.6380 C   0  0  0  0  0  0  0  0  0  0  0  0
  140.6900   78.2360  222.5760 C   0  0  0  0  0  0  0  0  0  0  0  0
  141.9450   79.4540  222.7170 Cl  0  0  0  0  0  0  0  0  0  0  0  0
  141.0570   76.8990  222.4030 C   0  0  0  0  0  0  0  0  0  0  0  0
  140.0340   75.9800  222.2970 C   0  0  0  0  0  0  0  0  0  0  0  0
  140.2940   74.6710  222.1280 N   0  0  0  0  0  0  0  0  0  0  0  0
  139.3370   73.7340  222.0190 C   0  0  0  0  0  0  0  0  0  0  0  0
  139.7440   72.3340  221.8500 C   0  0  0  0  0  0  0  0  0  0  0  0
  140.6100   71.8010  222.6780 C   0  0  0  0  0  0  0  0  0  0  0  0
  140.2640   71.1540  223.9340 C   0  0  0  0  0  0  0  0  0  0  0  0
  139.5000   70.0180  224.0260 C   0  0  0  0  0  0  0  0  0  0  0  0
  139.2010   69.4440  225.2570 C   0  0  0  0  0  0  0  0  0  0  0  0
  139.6670   70.0060  226.4210 C   0  0  0  0  0  0  0  0  0  0  0  0
  140.4340   71.1430  226.3570 C   0  0  0  0  0  0  0  0  0  0  0  0
  141.0460   71.8900  227.8000 Cl  0  0  0  0  0  0  0  0  0  0  0  0
  140.7170   71.6920  225.1320 C   0  0  0  0  0  0  0  0  0  0  0  0
  138.0300   74.0570  222.0730 N   0  0  0  0  0  0  0  0  0  0  0  0
  136.9550   73.1180  221.9460 C   0  0  0  0  0  0  0  0  0  0  0  0
  136.4220   72.5580  223.2190 C   0  0  0  0  0  0  0  0  0  0  0  0
  136.4220   71.0440  223.0630 C   0  0  0  0  0  0  0  0  0  0  0  0
  135.8730   70.3300  224.2460 C   0  0  0  0  0  0  0  0  0  0  0  0
  134.6440   70.9100  224.7460 N   0  0  0  0  0  0  0  0  0  0  0  0
  134.7250   72.3250  224.9320 C   0  0  0  0  0  0  0  0  0  0  0  0
  135.0210   72.9740  223.5720 C   0  0  0  0  0  0  0  0  0  0  0  0
  137.2940   77.9671  222.5769 H   0  0  0  0  0  0  0  0  0  0  0  0
  139.1042   79.6816  222.7746 H   0  0  0  0  0  0  0  0  0  0  0  0
  142.1126   76.5936  222.3536 H   0  0  0  0  0  0  0  0  0  0  0  0
  139.3234   71.7330  221.0303 H   0  0  0  0  0  0  0  0  0  0  0  0
  141.6741   71.8464  222.4031 H   0  0  0  0  0  0  0  0  0  0  0  0
  139.1159   69.5515  223.1068 H   0  0  0  0  0  0  0  0  0  0  0  0
  138.5864   68.5327  225.2991 H   0  0  0  0  0  0  0  0  0  0  0  0
  139.4283   69.5501  227.3932 H   0  0  0  0  0  0  0  0  0  0  0  0
  141.3328   72.6028  225.0967 H   0  0  0  0  0  0  0  0  0  0  0  0
  136.1266   73.6232  221.4279 H   0  0  0  0  0  0  0  0  0  0  0  0
  137.3737   72.2610  221.3980 H   0  0  0  0  0  0  0  0  0  0  0  0
  137.0636   72.9404  224.0266 H   0  0  0  0  0  0  0  0  0  0  0  0
  135.8131   70.7837  222.1847 H   0  0  0  0  0  0  0  0  0  0  0  0
  137.4697   70.7285  222.9498 H   0  0  0  0  0  0  0  0  0  0  0  0
  135.6762   69.2854  223.9629 H   0  0  0  0  0  0  0  0  0  0  0  0
  136.6204   70.4082  225.0493 H   0  0  0  0  0  0  0  0  0  0  0  0
  134.2080   70.3680  225.4950 H   0  0  0  0  0  0  0  0  0  0  0  0
  133.7699   72.7038  225.3249 H   0  0  0  0  0  0  0  0  0  0  0  0
  135.5227   72.5679  225.6494 H   0  0  0  0  0  0  0  0  0  0  0  0
  134.3112   72.6140  222.8127 H   0  0  0  0  0  0  0  0  0  0  0  0
  134.9210   74.0686  223.6142 H   0  0  0  0  0  0  0  0  0  0  0  0
  1  2  2  0
  2  3  1  0
  3  4  2  0
  4  5  1  0
  5  6  2  0
  6  7  1  0
  6  8  1  0
  8  9  2  0
  9 10  1  0
 10 11  2  0
 11 12  1  0
 12 13  2  0
 13 14  1  0
 14 15  2  0
 15 16  1  0
 16 17  2  0
 17 18  1  0
 18 19  1  0
 18 20  2  0
 11 21  1  0
 21 22  1  0
 22 23  1  0
 23 24  1  0
 24 25  1  0
 25 26  1  0
 26 27  1  0
 27 28  1  0
 21  2  1  0
 28 23  1  0
  9  3  1  0
 20 14  1  0
  4 29  1  0
  5 30  1  0
  8 31  1  0
 12 32  1  0
 13 33  1  0
 15 34  1  0
 16 35  1  0
 17 36  1  0
 20 37  1  0
 22 38  1  0
 22 39  1  0
 23 40  1  0
 24 41  1  0
 24 42  1  0
 25 43  1  0
 25 44  1  0
 26 45  1  0
 27 46  1  0
 27 47  1  0
 28 48  1  0
 28 49  1  0
M  END
>  <smiles>  (35) 
O=c1c2ccc(Cl)cc2nc(/C=C/c2cccc(Cl)c2)n1CC1CCNCC1

>  <score_type>  (35) 
oracle

>  <origin>  (35) 
autodockgpu

>  <m_score__min__energy>  (35) 
-8.5299999999999994

>  <m_primary>  (35) 
energy

>  <rmsd>  (35) 
6.9357203509546705

>  <m_score__min__rmsd>  (35) 
6.9357203509546705

>  <meeko>  (35) 
{"free_energy": -7.59, "intermolecular_energy": -9.08, "internal_energy": -1.73, "cluster_size": 10, "cluster_id": 4, "rank_in_cluster": 4}

>  <energy>  (35) 
-7.59

>  <cluster_rmsd>  (35) 
0.08

>  <cluster>  (35) 
4

$$$$

     RDKit          3D

 49 52  0  0  0  0  0  0  0  0999 V2000
  142.1760   74.9180  218.7050 O   0  0  0  0  0  0  0  0  0  0  0  0
  141.6900   74.6860  219.8610 C   0  0  0  0  0  0  0  0  0  0  0  0
  141.2850   75.7690  220.6090 C   0  0  0  0  0  0  0  0  0  0  0  0
  141.4120   77.0500  220.1030 C   0  0  0  0  0  0  0  0  0  0  0  0
  140.9940   78.1220  220.8840 C   0  0  0  0  0  0  0  0  0  0  0  0
  140.4620   77.9010  222.1420 C   0  0  0  0  0  0  0  0  0  0  0  0
  139.9410   79.2700  223.1090 Cl  0  0  0  0  0  0  0  0  0  0  0  0
  140.3290   76.6110  222.6640 C   0  0  0  0  0  0  0  0  0  0  0  0
  140.7520   75.5680  221.8660 C   0  0  0  0  0  0  0  0  0  0  0  0
  140.6610   74.2940  222.2870 N   0  0  0  0  0  0  0  0  0  0  0  0
  141.0580   73.2420  221.5510 C   0  0  0  0  0  0  0  0  0  0  0  0
  140.8990   71.8950  222.1120 C   0  0  0  0  0  0  0  0  0  0  0  0
  139.8100   71.5900  222.7770 C   0  0  0  0  0  0  0  0  0  0  0  0
  139.7880   70.9070  224.0610 C   0  0  0  0  0  0  0  0  0  0  0  0
  139.2370   69.6670  224.2600 C   0  0  0  0  0  0  0  0  0  0  0  0
  139.2460   69.0630  225.5130 C   0  0  0  0  0  0  0  0  0  0  0  0
  139.8100   69.7000  226.5910 C   0  0  0  0  0  0  0  0  0  0  0  0
  140.3690   70.9430  226.4190 C   0  0  0  0  0  0  0  0  0  0  0  0
  141.0950   71.7880  227.7510 Cl  0  0  0  0  0  0  0  0  0  0  0  0
  140.3500   71.5200  225.1750 C   0  0  0  0  0  0  0  0  0  0  0  0
  141.5830   73.4050  220.3210 N   0  0  0  0  0  0  0  0  0  0  0  0
  142.0450   72.3340  219.4860 C   0  0  0  0  0  0  0  0  0  0  0  0
  143.5180   72.2530  219.2840 C   0  0  0  0  0  0  0  0  0  0  0  0
  144.1600   72.9770  220.4590 C   0  0  0  0  0  0  0  0  0  0  0  0
  145.6440   73.0220  220.3830 C   0  0  0  0  0  0  0  0  0  0  0  0
  146.1410   73.3880  219.0730 N   0  0  0  0  0  0  0  0  0  0  0  0
  145.5470   72.6310  218.0160 C   0  0  0  0  0  0  0  0  0  0  0  0
  144.0350   72.8930  218.0240 C   0  0  0  0  0  0  0  0  0  0  0  0
  141.8356   77.2176  219.1018 H   0  0  0  0  0  0  0  0  0  0  0  0
  141.0866   79.1488  220.5005 H   0  0  0  0  0  0  0  0  0  0  0  0
  139.9067   76.4356  223.6645 H   0  0  0  0  0  0  0  0  0  0  0  0
  141.6906   71.1435  221.9753 H   0  0  0  0  0  0  0  0  0  0  0  0
  138.8443   71.8709  222.3316 H   0  0  0  0  0  0  0  0  0  0  0  0
  138.7783   69.1390  223.4110 H   0  0  0  0  0  0  0  0  0  0  0  0
  138.7976   68.0668  225.6415 H   0  0  0  0  0  0  0  0  0  0  0  0
  139.8141   69.2204  227.5809 H   0  0  0  0  0  0  0  0  0  0  0  0
  140.8012   72.5157  225.0528 H   0  0  0  0  0  0  0  0  0  0  0  0
  141.7148   71.3875  219.9390 H   0  0  0  0  0  0  0  0  0  0  0  0
  141.6193   72.5291  218.4906 H   0  0  0  0  0  0  0  0  0  0  0  0
  143.7684   71.1848  219.2054 H   0  0  0  0  0  0  0  0  0  0  0  0
  143.7803   74.0091  220.4827 H   0  0  0  0  0  0  0  0  0  0  0  0
  143.8975   72.4174  221.3689 H   0  0  0  0  0  0  0  0  0  0  0  0
  146.0085   73.7597  221.1130 H   0  0  0  0  0  0  0  0  0  0  0  0
  146.0115   72.0079  220.5985 H   0  0  0  0  0  0  0  0  0  0  0  0
  147.1530   73.5180  219.0390 H   0  0  0  0  0  0  0  0  0  0  0  0
  145.9730   72.9425  217.0509 H   0  0  0  0  0  0  0  0  0  0  0  0
  145.7458   71.5588  218.1606 H   0  0  0  0  0  0  0  0  0  0  0  0
  143.8331   73.9743  218.0322 H   0  0  0  0  0  0  0  0  0  0  0  0
  143.5465   72.4805  217.1289 H   0  0  0  0  0  0  0  0  0  0  0  0
  1  2  2  0
  2  3  1  0
  3  4  2  0
  4  5  1  0
  5  6  2  0
  6  7  1  0
  6  8  1  0
  8  9  2  0
  9 10  1  0
 10 11  2  0
 11 12  1  0
 12 13  2  0
 13 14  1  0
 14 15  2  0
 15 16  1  0
 16 17  2  0
 17 18  1  0
 18 19  1  0
 18 20  2  0
 11 21  1  0
 21 22  1  0
 22 23  1  0
 23 24  1  0
 24 25  1  0
 25 26  1  0
 26 27  1  0
 27 28  1  0
 21  2  1  0
 28 23  1  0
  9  3  1  0
 20 14  1  0
  4 29  1  0
  5 30  1  0
  8 31  1  0
 12 32  1  0
 13 33  1  0
 15 34  1  0
 16 35  1  0
 17 36  1  0
 20 37  1  0
 22 38  1  0
 22 39  1  0
 23 40  1  0
 24 41  1  0
 24 42  1  0
 25 43  1  0
 25 44  1  0
 26 45  1  0
 27 46  1  0
 27 47  1  0
 28 48  1  0
 28 49  1  0
M  END
>  <smiles>  (36) 
O=c1c2ccc(Cl)cc2nc(/C=C/c2cccc(Cl)c2)n1CC1CCNCC1

>  <score_type>  (36) 
oracle

>  <origin>  (36) 
autodockgpu

>  <m_score__min__energy>  (36) 
-8.5299999999999994

>  <m_primary>  (36) 
energy

>  <rmsd>  (36) 
5.596072820395357

>  <m_score__min__rmsd>  (36) 
5.596072820395357

>  <meeko>  (36) 
{"free_energy": -8.34, "intermolecular_energy": -9.83, "internal_energy": -1.07, "cluster_size": 29, "cluster_id": 1, "rank_in_cluster": 16}

>  <energy>  (36) 
-7.59

>  <cluster_rmsd>  (36) 
0.06

>  <cluster>  (36) 
4

$$$$

     RDKit          3D

 49 52  0  0  0  0  0  0  0  0999 V2000
  142.5110   75.2960  218.9240 O   0  0  0  0  0  0  0  0  0  0  0  0
  141.8430   75.1520  220.0010 C   0  0  0  0  0  0  0  0  0  0  0  0
  141.5980   76.2800  220.7530 C   0  0  0  0  0  0  0  0  0  0  0  0
  142.0710   77.5100  220.3330 C   0  0  0  0  0  0  0  0  0  0  0  0
  141.8070   78.6300  221.1160 C   0  0  0  0  0  0  0  0  0  0  0  0
  141.0840   78.5040  222.2890 C   0  0  0  0  0  0  0  0  0  0  0  0
  140.7650   79.9310  223.2590 Cl  0  0  0  0  0  0  0  0  0  0  0  0
  140.6020   77.2660  222.7220 C   0  0  0  0  0  0  0  0  0  0  0  0
  140.8790   76.1750  221.9260 C   0  0  0  0  0  0  0  0  0  0  0  0
  140.4550   74.9440  222.2650 N   0  0  0  0  0  0  0  0  0  0  0  0
  140.6970   73.8480  221.5260 C   0  0  0  0  0  0  0  0  0  0  0  0
  140.1710   72.5600  221.9930 C   0  0  0  0  0  0  0  0  0  0  0  0
  140.9020   71.8000  222.7720 C   0  0  0  0  0  0  0  0  0  0  0  0
  140.4210   71.1470  223.9790 C   0  0  0  0  0  0  0  0  0  0  0  0
  139.5690   70.0720  223.9820 C   0  0  0  0  0  0  0  0  0  0  0  0
  139.1420   69.4890  225.1710 C   0  0  0  0  0  0  0  0  0  0  0  0
  139.5670   69.9810  226.3810 C   0  0  0  0  0  0  0  0  0  0  0  0
  140.4200   71.0560  226.4070 C   0  0  0  0  0  0  0  0  0  0  0  0
  140.9850   71.7130  227.9120 Cl  0  0  0  0  0  0  0  0  0  0  0  0
  140.8290   71.6160  225.2230 C   0  0  0  0  0  0  0  0  0  0  0  0
  141.3960   73.9180  220.3760 N   0  0  0  0  0  0  0  0  0  0  0  0
  141.7090   72.7920  219.5470 C   0  0  0  0  0  0  0  0  0  0  0  0
  143.1470   72.4080  219.4810 C   0  0  0  0  0  0  0  0  0  0  0  0
  143.8350   73.1010  220.6490 C   0  0  0  0  0  0  0  0  0  0  0  0
  145.3000   72.8500  220.7010 C   0  0  0  0  0  0  0  0  0  0  0  0
  145.9520   72.9880  219.4150 N   0  0  0  0  0  0  0  0  0  0  0  0
  145.2950   72.2650  218.3720 C   0  0  0  0  0  0  0  0  0  0  0  0
  143.8690   72.8150  218.2270 C   0  0  0  0  0  0  0  0  0  0  0  0
  142.6444   77.6012  219.3987 H   0  0  0  0  0  0  0  0  0  0  0  0
  142.1742   79.6181  220.8014 H   0  0  0  0  0  0  0  0  0  0  0  0
  140.0280   77.1665  223.6551 H   0  0  0  0  0  0  0  0  0  0  0  0
  139.1654   72.2329  221.6900 H   0  0  0  0  0  0  0  0  0  0  0  0
  141.9546   71.6452  222.4926 H   0  0  0  0  0  0  0  0  0  0  0  0
  139.2159   69.6622  223.0242 H   0  0  0  0  0  0  0  0  0  0  0  0
  138.4588   68.6274  225.1418 H   0  0  0  0  0  0  0  0  0  0  0  0
  139.2273   69.5183  227.3193 H   0  0  0  0  0  0  0  0  0  0  0  0
  141.5124   72.4772  225.2596 H   0  0  0  0  0  0  0  0  0  0  0  0
  141.1470   71.9268  219.9286 H   0  0  0  0  0  0  0  0  0  0  0  0
  141.4354   73.0918  218.5246 H   0  0  0  0  0  0  0  0  0  0  0  0
  143.1838   71.3089  219.5064 H   0  0  0  0  0  0  0  0  0  0  0  0
  143.6693   74.1847  220.5589 H   0  0  0  0  0  0  0  0  0  0  0  0
  143.4010   72.6911  221.5729 H   0  0  0  0  0  0  0  0  0  0  0  0
  145.7525   73.5683  221.4005 H   0  0  0  0  0  0  0  0  0  0  0  0
  145.4403   71.8088  221.0268 H   0  0  0  0  0  0  0  0  0  0  0  0
  146.9700   72.9160  219.4600 H   0  0  0  0  0  0  0  0  0  0  0  0
  145.8421   72.3966  217.4268 H   0  0  0  0  0  0  0  0  0  0  0  0
  145.2642   71.1928  218.6160 H   0  0  0  0  0  0  0  0  0  0  0  0
  143.8882   73.9109  218.1339 H   0  0  0  0  0  0  0  0  0  0  0  0
  143.3722   72.4234  217.3271 H   0  0  0  0  0  0  0  0  0  0  0  0
  1  2  2  0
  2  3  1  0
  3  4  2  0
  4  5  1  0
  5  6  2  0
  6  7  1  0
  6  8  1  0
  8  9  2  0
  9 10  1  0
 10 11  2  0
 11 12  1  0
 12 13  2  0
 13 14  1  0
 14 15  2  0
 15 16  1  0
 16 17  2  0
 17 18  1  0
 18 19  1  0
 18 20  2  0
 11 21  1  0
 21 22  1  0
 22 23  1  0
 23 24  1  0
 24 25  1  0
 25 26  1  0
 26 27  1  0
 27 28  1  0
 21  2  1  0
 28 23  1  0
  9  3  1  0
 20 14  1  0
  4 29  1  0
  5 30  1  0
  8 31  1  0
 12 32  1  0
 13 33  1  0
 15 34  1  0
 16 35  1  0
 17 36  1  0
 20 37  1  0
 22 38  1  0
 22 39  1  0
 23 40  1  0
 24 41  1  0
 24 42  1  0
 25 43  1  0
 25 44  1  0
 26 45  1  0
 27 46  1  0
 27 47  1  0
 28 48  1  0
 28 49  1  0
M  END
>  <smiles>  (37) 
O=c1c2ccc(Cl)cc2nc(/C=C/c2cccc(Cl)c2)n1CC1CCNCC1

>  <score_type>  (37) 
oracle

>  <origin>  (37) 
autodockgpu

>  <m_score__min__energy>  (37) 
-8.5299999999999994

>  <m_primary>  (37) 
energy

>  <rmsd>  (37) 
5.288377836452672

>  <m_score__min__rmsd>  (37) 
5.288377836452672

>  <meeko>  (37) 
{"free_energy": -8.41, "intermolecular_energy": -9.9, "internal_energy": -1.06, "cluster_size": 29, "cluster_id": 1, "rank_in_cluster": 10}

>  <energy>  (37) 
-7.3

>  <cluster_rmsd>  (37) 
1.0

>  <cluster>  (37) 
4

$$$$

     RDKit          3D

 49 52  0  0  0  0  0  0  0  0999 V2000
  141.8360   71.9090  219.3520 O   0  0  0  0  0  0  0  0  0  0  0  0
  141.2970   72.5600  220.3070 C   0  0  0  0  0  0  0  0  0  0  0  0
  140.5320   71.8520  221.2070 C   0  0  0  0  0  0  0  0  0  0  0  0
  140.3700   70.4870  221.0590 C   0  0  0  0  0  0  0  0  0  0  0  0
  139.5900   69.8020  221.9850 C   0  0  0  0  0  0  0  0  0  0  0  0
  138.9930   70.4820  223.0320 C   0  0  0  0  0  0  0  0  0  0  0  0
  138.0150   69.5950  224.1870 Cl  0  0  0  0  0  0  0  0  0  0  0  0
  139.1500   71.8620  223.1910 C   0  0  0  0  0  0  0  0  0  0  0  0
  139.9290   72.5140  222.2570 C   0  0  0  0  0  0  0  0  0  0  0  0
  140.1340   73.8410  222.3330 N   0  0  0  0  0  0  0  0  0  0  0  0
  140.8820   74.5250  221.4510 C   0  0  0  0  0  0  0  0  0  0  0  0
  141.0440   75.9710  221.6440 C   0  0  0  0  0  0  0  0  0  0  0  0
  140.0260   76.6940  222.0440 C   0  0  0  0  0  0  0  0  0  0  0  0
  140.1340   78.0110  222.6520 C   0  0  0  0  0  0  0  0  0  0  0  0
  139.0620   78.7340  223.1100 C   0  0  0  0  0  0  0  0  0  0  0  0
  139.2270   79.9910  223.6820 C   0  0  0  0  0  0  0  0  0  0  0  0
  140.4790   80.5440  223.8020 C   0  0  0  0  0  0  0  0  0  0  0  0
  141.5700   79.8410  223.3510 C   0  0  0  0  0  0  0  0  0  0  0  0
  143.1720   80.4980  223.4820 Cl  0  0  0  0  0  0  0  0  0  0  0  0
  141.3840   78.6030  222.7910 C   0  0  0  0  0  0  0  0  0  0  0  0
  141.4840   73.9090  220.4150 N   0  0  0  0  0  0  0  0  0  0  0  0
  142.2800   74.5730  219.4250 C   0  0  0  0  0  0  0  0  0  0  0  0
  143.7520   74.3680  219.5240 C   0  0  0  0  0  0  0  0  0  0  0  0
  144.1320   73.4010  218.4110 C   0  0  0  0  0  0  0  0  0  0  0  0
  145.5780   73.0560  218.4000 C   0  0  0  0  0  0  0  0  0  0  0  0
  146.1030   72.7410  219.7110 N   0  0  0  0  0  0  0  0  0  0  0  0
  145.7670   73.7170  220.7010 C   0  0  0  0  0  0  0  0  0  0  0  0
  144.2370   73.7760  220.8190 C   0  0  0  0  0  0  0  0  0  0  0  0
  140.8487   69.9529  220.2250 H   0  0  0  0  0  0  0  0  0  0  0  0
  139.4472   68.7159  221.8846 H   0  0  0  0  0  0  0  0  0  0  0  0
  138.6745   72.4032  224.0223 H   0  0  0  0  0  0  0  0  0  0  0  0
  142.0172   76.4470  221.4535 H   0  0  0  0  0  0  0  0  0  0  0  0
  139.0180   76.2745  221.9102 H   0  0  0  0  0  0  0  0  0  0  0  0
  138.0504   78.3107  223.0230 H   0  0  0  0  0  0  0  0  0  0  0  0
  138.3483   80.5467  224.0411 H   0  0  0  0  0  0  0  0  0  0  0  0
  140.6065   81.5386  224.2542 H   0  0  0  0  0  0  0  0  0  0  0  0
  142.2667   78.0518  222.4346 H   0  0  0  0  0  0  0  0  0  0  0  0
  141.9562   74.2141  218.4369 H   0  0  0  0  0  0  0  0  0  0  0  0
  142.1193   75.6488  219.5887 H   0  0  0  0  0  0  0  0  0  0  0  0
  144.2166   75.3625  219.4532 H   0  0  0  0  0  0  0  0  0  0  0  0
  143.5530   72.4747  218.5405 H   0  0  0  0  0  0  0  0  0  0  0  0
  143.9087   73.8993  217.4561 H   0  0  0  0  0  0  0  0  0  0  0  0
  145.7233   72.1828  217.7470 H   0  0  0  0  0  0  0  0  0  0  0  0
  146.1206   73.9412  218.0367 H   0  0  0  0  0  0  0  0  0  0  0  0
  147.0690   72.4070  219.6990 H   0  0  0  0  0  0  0  0  0  0  0  0
  146.2041   73.4308  221.6690 H   0  0  0  0  0  0  0  0  0  0  0  0
  146.1635   74.7017  220.4127 H   0  0  0  0  0  0  0  0  0  0  0  0
  143.8237   72.7661  220.9577 H   0  0  0  0  0  0  0  0  0  0  0  0
  143.9191   74.3762  221.6843 H   0  0  0  0  0  0  0  0  0  0  0  0
  1  2  2  0
  2  3  1  0
  3  4  2  0
  4  5  1  0
  5  6  2  0
  6  7  1  0
  6  8  1  0
  8  9  2  0
  9 10  1  0
 10 11  2  0
 11 12  1  0
 12 13  2  0
 13 14  1  0
 14 15  2  0
 15 16  1  0
 16 17  2  0
 17 18  1  0
 18 19  1  0
 18 20  2  0
 11 21  1  0
 21 22  1  0
 22 23  1  0
 23 24  1  0
 24 25  1  0
 25 26  1  0
 26 27  1  0
 27 28  1  0
 21  2  1  0
 28 23  1  0
  9  3  1  0
 20 14  1  0
  4 29  1  0
  5 30  1  0
  8 31  1  0
 12 32  1  0
 13 33  1  0
 15 34  1  0
 16 35  1  0
 17 36  1  0
 20 37  1  0
 22 38  1  0
 22 39  1  0
 23 40  1  0
 24 41  1  0
 24 42  1  0
 25 43  1  0
 25 44  1  0
 26 45  1  0
 27 46  1  0
 27 47  1  0
 28 48  1  0
 28 49  1  0
M  END
>  <smiles>  (38) 
O=c1c2ccc(Cl)cc2nc(/C=C/c2cccc(Cl)c2)n1CC1CCNCC1

>  <score_type>  (38) 
oracle

>  <origin>  (38) 
autodockgpu

>  <m_score__min__energy>  (38) 
-8.5299999999999994

>  <m_primary>  (38) 
energy

>  <rmsd>  (38) 
8.628120808829237

>  <m_score__min__rmsd>  (38) 
8.628120808829237

>  <meeko>  (38) 
{"free_energy": -7.76, "intermolecular_energy": -9.25, "internal_energy": -1.1, "cluster_size": 1, "cluster_id": 3, "rank_in_cluster": 1}

>  <energy>  (38) 
-7.27

>  <cluster_rmsd>  (38) 
0.99

>  <cluster>  (38) 
4

$$$$

     RDKit          3D

 49 52  0  0  0  0  0  0  0  0999 V2000
  142.6920   76.6560  218.7670 O   0  0  0  0  0  0  0  0  0  0  0  0
  142.0760   76.2740  219.8160 C   0  0  0  0  0  0  0  0  0  0  0  0
  141.6180   77.2480  220.6750 C   0  0  0  0  0  0  0  0  0  0  0  0
  141.8320   78.5840  220.3870 C   0  0  0  0  0  0  0  0  0  0  0  0
  141.3580   79.5440  221.2770 C   0  0  0  0  0  0  0  0  0  0  0  0
  140.6850   79.1580  222.4230 C   0  0  0  0  0  0  0  0  0  0  0  0
  140.0960   80.3870  223.5280 Cl  0  0  0  0  0  0  0  0  0  0  0  0
  140.4630   77.8110  222.7230 C   0  0  0  0  0  0  0  0  0  0  0  0
  140.9450   76.8840  221.8230 C   0  0  0  0  0  0  0  0  0  0  0  0
  140.7770   75.5650  222.0310 N   0  0  0  0  0  0  0  0  0  0  0  0
  141.2260   74.6200  221.1880 C   0  0  0  0  0  0  0  0  0  0  0  0
  140.9710   73.2120  221.5160 C   0  0  0  0  0  0  0  0  0  0  0  0
  139.9570   72.8940  222.2830 C   0  0  0  0  0  0  0  0  0  0  0  0
  139.9260   71.7530  223.1850 C   0  0  0  0  0  0  0  0  0  0  0  0
  139.4490   70.5140  222.8380 C   0  0  0  0  0  0  0  0  0  0  0  0
  139.4450   69.4590  223.7450 C   0  0  0  0  0  0  0  0  0  0  0  0
  139.9220   69.6350  225.0210 C   0  0  0  0  0  0  0  0  0  0  0  0
  140.4050   70.8650  225.3940 C   0  0  0  0  0  0  0  0  0  0  0  0
  141.0190   71.1350  226.9960 Cl  0  0  0  0  0  0  0  0  0  0  0  0
  140.4000   71.8910  224.4840 C   0  0  0  0  0  0  0  0  0  0  0  0
  141.8860   74.9440  220.0600 N   0  0  0  0  0  0  0  0  0  0  0  0
  142.4100   73.9920  219.1240 C   0  0  0  0  0  0  0  0  0  0  0  0
  143.8420   73.6210  219.3020 C   0  0  0  0  0  0  0  0  0  0  0  0
  143.8840   72.1050  219.4390 C   0  0  0  0  0  0  0  0  0  0  0  0
  145.2540   71.5730  219.6670 C   0  0  0  0  0  0  0  0  0  0  0  0
  145.9980   72.3140  220.6630 N   0  0  0  0  0  0  0  0  0  0  0  0
  145.9740   73.7270  220.4460 C   0  0  0  0  0  0  0  0  0  0  0  0
  144.5150   74.2010  220.5150 C   0  0  0  0  0  0  0  0  0  0  0  0
  142.3662   78.8820  219.4728 H   0  0  0  0  0  0  0  0  0  0  0  0
  141.5188   80.6121  221.0687 H   0  0  0  0  0  0  0  0  0  0  0  0
  139.9287   77.5047  223.6345 H   0  0  0  0  0  0  0  0  0  0  0  0
  141.6296   72.4255  221.1189 H   0  0  0  0  0  0  0  0  0  0  0  0
  139.0649   73.5362  222.2418 H   0  0  0  0  0  0  0  0  0  0  0  0
  139.0617   70.3515  221.8214 H   0  0  0  0  0  0  0  0  0  0  0  0
  139.0570   68.4766  223.4379 H   0  0  0  0  0  0  0  0  0  0  0  0
  139.9171   68.7995  225.7364 H   0  0  0  0  0  0  0  0  0  0  0  0
  140.7901   72.8706  224.7975 H   0  0  0  0  0  0  0  0  0  0  0  0
  141.8113   73.0730  219.2079 H   0  0  0  0  0  0  0  0  0  0  0  0
  142.3503   74.4799  218.1400 H   0  0  0  0  0  0  0  0  0  0  0  0
  144.3846   74.0239  218.4341 H   0  0  0  0  0  0  0  0  0  0  0  0
  143.2502   71.8135  220.2895 H   0  0  0  0  0  0  0  0  0  0  0  0
  143.5238   71.6818  218.4897 H   0  0  0  0  0  0  0  0  0  0  0  0
  145.1717   70.5276  219.9991 H   0  0  0  0  0  0  0  0  0  0  0  0
  145.8011   71.6646  218.7171 H   0  0  0  0  0  0  0  0  0  0  0  0
  146.9000   71.8970  220.8970 H   0  0  0  0  0  0  0  0  0  0  0  0
  146.5664   74.2327  221.2227 H   0  0  0  0  0  0  0  0  0  0  0  0
  146.4041   73.9666  219.4623 H   0  0  0  0  0  0  0  0  0  0  0  0
  144.0348   73.8322  221.4334 H   0  0  0  0  0  0  0  0  0  0  0  0
  144.4447   75.2986  220.5329 H   0  0  0  0  0  0  0  0  0  0  0  0
  1  2  2  0
  2  3  1  0
  3  4  2  0
  4  5  1  0
  5  6  2  0
  6  7  1  0
  6  8  1  0
  8  9  2  0
  9 10  1  0
 10 11  2  0
 11 12  1  0
 12 13  2  0
 13 14  1  0
 14 15  2  0
 15 16  1  0
 16 17  2  0
 17 18  1  0
 18 19  1  0
 18 20  2  0
 11 21  1  0
 21 22  1  0
 22 23  1  0
 23 24  1  0
 24 25  1  0
 25 26  1  0
 26 27  1  0
 27 28  1  0
 21  2  1  0
 28 23  1  0
  9  3  1  0
 20 14  1  0
  4 29  1  0
  5 30  1  0
  8 31  1  0
 12 32  1  0
 13 33  1  0
 15 34  1  0
 16 35  1  0
 17 36  1  0
 20 37  1  0
 22 38  1  0
 22 39  1  0
 23 40  1  0
 24 41  1  0
 24 42  1  0
 25 43  1  0
 25 44  1  0
 26 45  1  0
 27 46  1  0
 27 47  1  0
 28 48  1  0
 28 49  1  0
M  END
>  <smiles>  (39) 
O=c1c2ccc(Cl)cc2nc(/C=C/c2cccc(Cl)c2)n1CC1CCNCC1

>  <score_type>  (39) 
oracle

>  <origin>  (39) 
autodockgpu

>  <m_score__min__energy>  (39) 
-8.5299999999999994

>  <m_primary>  (39) 
energy

>  <rmsd>  (39) 
4.977394776918371

>  <m_score__min__rmsd>  (39) 
4.977394776918371

>  <meeko>  (39) 
{"free_energy": -8.16, "intermolecular_energy": -9.66, "internal_energy": -1.19, "cluster_size": 29, "cluster_id": 1, "rank_in_cluster": 19}

>  <energy>  (39) 
-6.98

>  <cluster_rmsd>  (39) 
1.11

>  <cluster>  (39) 
4

$$$$

     RDKit          3D

 49 52  0  0  0  0  0  0  0  0999 V2000
  142.2640   74.8780  218.8260 O   0  0  0  0  0  0  0  0  0  0  0  0
  141.7210   74.6500  219.9570 C   0  0  0  0  0  0  0  0  0  0  0  0
  141.3100   75.7370  220.6970 C   0  0  0  0  0  0  0  0  0  0  0  0
  141.4930   77.0190  220.2080 C   0  0  0  0  0  0  0  0  0  0  0  0
  141.0670   78.0950  220.9810 C   0  0  0  0  0  0  0  0  0  0  0  0
  140.4740   77.8770  222.2120 C   0  0  0  0  0  0  0  0  0  0  0  0
  139.9470   79.2510  223.1670 Cl  0  0  0  0  0  0  0  0  0  0  0  0
  140.2850   76.5870  222.7150 C   0  0  0  0  0  0  0  0  0  0  0  0
  140.7170   75.5400  221.9270 C   0  0  0  0  0  0  0  0  0  0  0  0
  140.5750   74.2650  222.3320 N   0  0  0  0  0  0  0  0  0  0  0  0
  140.9780   73.2090  221.6040 C   0  0  0  0  0  0  0  0  0  0  0  0
  140.7590   71.8630  222.1460 C   0  0  0  0  0  0  0  0  0  0  0  0
  139.7500   71.6400  222.9530 C   0  0  0  0  0  0  0  0  0  0  0  0
  139.8390   70.9120  224.2090 C   0  0  0  0  0  0  0  0  0  0  0  0
  139.4690   69.6010  224.3630 C   0  0  0  0  0  0  0  0  0  0  0  0
  139.5770   68.9570  225.5920 C   0  0  0  0  0  0  0  0  0  0  0  0
  140.0610   69.6260  226.6900 C   0  0  0  0  0  0  0  0  0  0  0  0
  140.4390   70.9400  226.5630 C   0  0  0  0  0  0  0  0  0  0  0  0
  141.0570   71.8280  227.9210 Cl  0  0  0  0  0  0  0  0  0  0  0  0
  140.3240   71.5550  225.3420 C   0  0  0  0  0  0  0  0  0  0  0  0
  141.5600   73.3680  220.4000 N   0  0  0  0  0  0  0  0  0  0  0  0
  142.0320   72.2930  219.5770 C   0  0  0  0  0  0  0  0  0  0  0  0
  143.5060   72.2220  219.3760 C   0  0  0  0  0  0  0  0  0  0  0  0
  144.1390   72.9990  220.5220 C   0  0  0  0  0  0  0  0  0  0  0  0
  145.6230   73.0590  220.4430 C   0  0  0  0  0  0  0  0  0  0  0  0
  146.1140   73.3790  219.1200 N   0  0  0  0  0  0  0  0  0  0  0  0
  145.5290   72.5730  218.0930 C   0  0  0  0  0  0  0  0  0  0  0  0
  144.0140   72.8180  218.0930 C   0  0  0  0  0  0  0  0  0  0  0  0
  141.9655   77.1839  219.2284 H   0  0  0  0  0  0  0  0  0  0  0  0
  141.2022   79.1224  220.6121 H   0  0  0  0  0  0  0  0  0  0  0  0
  139.8137   76.4143  223.6938 H   0  0  0  0  0  0  0  0  0  0  0  0
  141.4401   71.0426  221.8757 H   0  0  0  0  0  0  0  0  0  0  0  0
  138.7651   72.0318  222.6589 H   0  0  0  0  0  0  0  0  0  0  0  0
  139.0785   69.0464  223.4970 H   0  0  0  0  0  0  0  0  0  0  0  0
  139.2724   67.9041  225.6850 H   0  0  0  0  0  0  0  0  0  0  0  0
  140.1448   69.1146  227.6603 H   0  0  0  0  0  0  0  0  0  0  0  0
  140.6304   72.6079  225.2554 H   0  0  0  0  0  0  0  0  0  0  0  0
  141.7098   71.3486  220.0398 H   0  0  0  0  0  0  0  0  0  0  0  0
  141.6055   72.4746  218.5794 H   0  0  0  0  0  0  0  0  0  0  0  0
  143.7698   71.1548  219.3378 H   0  0  0  0  0  0  0  0  0  0  0  0
  143.7467   74.0265  220.5059 H   0  0  0  0  0  0  0  0  0  0  0  0
  143.8833   72.4723  221.4532 H   0  0  0  0  0  0  0  0  0  0  0  0
  145.9789   73.8292  221.1431 H   0  0  0  0  0  0  0  0  0  0  0  0
  146.0032   72.0588  220.6981 H   0  0  0  0  0  0  0  0  0  0  0  0
  147.1250   73.5190  219.0790 H   0  0  0  0  0  0  0  0  0  0  0  0
  145.9509   72.8514  217.1160 H   0  0  0  0  0  0  0  0  0  0  0  0
  145.7411   71.5097  218.2785 H   0  0  0  0  0  0  0  0  0  0  0  0
  143.7998   73.8964  218.0598 H   0  0  0  0  0  0  0  0  0  0  0  0
  143.5294   72.3657  217.2152 H   0  0  0  0  0  0  0  0  0  0  0  0
  1  2  2  0
  2  3  1  0
  3  4  2  0
  4  5  1  0
  5  6  2  0
  6  7  1  0
  6  8  1  0
  8  9  2  0
  9 10  1  0
 10 11  2  0
 11 12  1  0
 12 13  2  0
 13 14  1  0
 14 15  2  0
 15 16  1  0
 16 17  2  0
 17 18  1  0
 18 19  1  0
 18 20  2  0
 11 21  1  0
 21 22  1  0
 22 23  1  0
 23 24  1  0
 24 25  1  0
 25 26  1  0
 26 27  1  0
 27 28  1  0
 21  2  1  0
 28 23  1  0
  9  3  1  0
 20 14  1  0
  4 29  1  0
  5 30  1  0
  8 31  1  0
 12 32  1  0
 13 33  1  0
 15 34  1  0
 16 35  1  0
 17 36  1  0
 20 37  1  0
 22 38  1  0
 22 39  1  0
 23 40  1  0
 24 41  1  0
 24 42  1  0
 25 43  1  0
 25 44  1  0
 26 45  1  0
 27 46  1  0
 27 47  1  0
 28 48  1  0
 28 49  1  0
M  END
>  <smiles>  (40) 
O=c1c2ccc(Cl)cc2nc(/C=C/c2cccc(Cl)c2)n1CC1CCNCC1

>  <score_type>  (40) 
oracle

>  <origin>  (40) 
autodockgpu

>  <m_score__min__energy>  (40) 
-8.5299999999999994

>  <m_primary>  (40) 
energy

>  <rmsd>  (40) 
5.605516985473201

>  <m_score__min__rmsd>  (40) 
5.605516985473201

>  <meeko>  (40) 
{"free_energy": -8.53, "intermolecular_energy": -10.02, "internal_energy": -0.99, "cluster_size": 29, "cluster_id": 1, "rank_in_cluster": 1}

>  <energy>  (40) 
-6.95

>  <cluster_rmsd>  (40) 
1.35

>  <cluster>  (40) 
4

$$$$

     RDKit          3D

 49 52  0  0  0  0  0  0  0  0999 V2000
  142.4970   75.5400  219.0230 O   0  0  0  0  0  0  0  0  0  0  0  0
  141.7870   75.3470  220.0640 C   0  0  0  0  0  0  0  0  0  0  0  0
  141.4540   76.4490  220.8210 C   0  0  0  0  0  0  0  0  0  0  0  0
  141.8870   77.7070  220.4430 C   0  0  0  0  0  0  0  0  0  0  0  0
  141.5340   78.7990  221.2300 C   0  0  0  0  0  0  0  0  0  0  0  0
  140.7630   78.6190  222.3650 C   0  0  0  0  0  0  0  0  0  0  0  0
  140.3310   80.0120  223.3400 Cl  0  0  0  0  0  0  0  0  0  0  0  0
  140.3200   77.3520  222.7550 C   0  0  0  0  0  0  0  0  0  0  0  0
  140.6860   76.2890  221.9560 C   0  0  0  0  0  0  0  0  0  0  0  0
  140.3040   75.0350  222.2550 N   0  0  0  0  0  0  0  0  0  0  0  0
  140.6320   73.9640  221.5120 C   0  0  0  0  0  0  0  0  0  0  0  0
  140.1470   72.6450  221.9330 C   0  0  0  0  0  0  0  0  0  0  0  0
  140.8870   71.8950  222.7140 C   0  0  0  0  0  0  0  0  0  0  0  0
  140.4030   71.1980  223.8950 C   0  0  0  0  0  0  0  0  0  0  0  0
  139.5430   70.1300  223.8560 C   0  0  0  0  0  0  0  0  0  0  0  0
  139.1140   69.5030  225.0220 C   0  0  0  0  0  0  0  0  0  0  0  0
  139.5440   69.9440  226.2500 C   0  0  0  0  0  0  0  0  0  0  0  0
  140.4040   71.0120  226.3170 C   0  0  0  0  0  0  0  0  0  0  0  0
  140.9760   71.6050  227.8460 Cl  0  0  0  0  0  0  0  0  0  0  0  0
  140.8160   71.6140  225.1560 C   0  0  0  0  0  0  0  0  0  0  0  0
  141.3810   74.0860  220.3990 N   0  0  0  0  0  0  0  0  0  0  0  0
  141.7860   72.9910  219.5680 C   0  0  0  0  0  0  0  0  0  0  0  0
  143.0980   72.3690  219.9000 C   0  0  0  0  0  0  0  0  0  0  0  0
  143.9600   73.4680  220.5050 C   0  0  0  0  0  0  0  0  0  0  0  0
  145.3320   73.0140  220.8560 C   0  0  0  0  0  0  0  0  0  0  0  0
  145.9580   72.2250  219.8170 N   0  0  0  0  0  0  0  0  0  0  0  0
  145.1240   71.1700  219.3320 C   0  0  0  0  0  0  0  0  0  0  0  0
  143.8550   71.7930  218.7350 C   0  0  0  0  0  0  0  0  0  0  0  0
  142.4982   77.8416  219.5384 H   0  0  0  0  0  0  0  0  0  0  0  0
  141.8688   79.8084  220.9490 H   0  0  0  0  0  0  0  0  0  0  0  0
  139.7077   77.2092  223.6576 H   0  0  0  0  0  0  0  0  0  0  0  0
  139.1642   72.2856  221.5941 H   0  0  0  0  0  0  0  0  0  0  0  0
  141.9509   71.7852  222.4571 H   0  0  0  0  0  0  0  0  0  0  0  0
  139.1852   69.7617  222.8832 H   0  0  0  0  0  0  0  0  0  0  0  0
  138.4252   68.6476  224.9599 H   0  0  0  0  0  0  0  0  0  0  0  0
  139.2028   69.4466  227.1699 H   0  0  0  0  0  0  0  0  0  0  0  0
  141.5066   72.4673  225.2255 H   0  0  0  0  0  0  0  0  0  0  0  0
  141.0151   72.2098  219.6415 H   0  0  0  0  0  0  0  0  0  0  0  0
  141.9050   73.4129  218.5591 H   0  0  0  0  0  0  0  0  0  0  0  0
  142.8870   71.5231  220.5708 H   0  0  0  0  0  0  0  0  0  0  0  0
  144.0395   74.2894  219.7777 H   0  0  0  0  0  0  0  0  0  0  0  0
  143.4736   73.7864  221.4388 H   0  0  0  0  0  0  0  0  0  0  0  0
  145.9554   73.9005  221.0445 H   0  0  0  0  0  0  0  0  0  0  0  0
  145.2448   72.3715  221.7446 H   0  0  0  0  0  0  0  0  0  0  0  0
  146.9350   71.9940  220.0080 H   0  0  0  0  0  0  0  0  0  0  0  0
  145.6581   70.6001  218.5574 H   0  0  0  0  0  0  0  0  0  0  0  0
  144.8602   70.4879  220.1537 H   0  0  0  0  0  0  0  0  0  0  0  0
  144.1172   72.5853  218.0184 H   0  0  0  0  0  0  0  0  0  0  0  0
  143.2558   71.0496  218.1889 H   0  0  0  0  0  0  0  0  0  0  0  0
  1  2  2  0
  2  3  1  0
  3  4  2  0
  4  5  1  0
  5  6  2  0
  6  7  1  0
  6  8  1  0
  8  9  2  0
  9 10  1  0
 10 11  2  0
 11 12  1  0
 12 13  2  0
 13 14  1  0
 14 15  2  0
 15 16  1  0
 16 17  2  0
 17 18  1  0
 18 19  1  0
 18 20  2  0
 11 21  1  0
 21 22  1  0
 22 23  1  0
 23 24  1  0
 24 25  1  0
 25 26  1  0
 26 27  1  0
 27 28  1  0
 21  2  1  0
 28 23  1  0
  9  3  1  0
 20 14  1  0
  4 29  1  0
  5 30  1  0
  8 31  1  0
 12 32  1  0
 13 33  1  0
 15 34  1  0
 16 35  1  0
 17 36  1  0
 20 37  1  0
 22 38  1  0
 22 39  1  0
 23 40  1  0
 24 41  1  0
 24 42  1  0
 25 43  1  0
 25 44  1  0
 26 45  1  0
 27 46  1  0
 27 47  1  0
 28 48  1  0
 28 49  1  0
M  END
>  <smiles>  (41) 
O=c1c2ccc(Cl)cc2nc(/C=C/c2cccc(Cl)c2)n1CC1CCNCC1

>  <score_type>  (41) 
oracle

>  <origin>  (41) 
autodockgpu

>  <m_score__min__energy>  (41) 
-8.5299999999999994

>  <m_primary>  (41) 
energy

>  <rmsd>  (41) 
5.086925022386427

>  <m_score__min__rmsd>  (41) 
5.086925022386427

>  <meeko>  (41) 
{"free_energy": -8.5, "intermolecular_energy": -9.99, "internal_energy": -1.02, "cluster_size": 29, "cluster_id": 1, "rank_in_cluster": 3}

>  <energy>  (41) 
-6.79

>  <cluster_rmsd>  (41) 
1.39

>  <cluster>  (41) 
4

$$$$

     RDKit          3D

 49 52  0  0  0  0  0  0  0  0999 V2000
  142.5550   75.8680  219.0680 O   0  0  0  0  0  0  0  0  0  0  0  0
  141.8020   75.6590  220.0750 C   0  0  0  0  0  0  0  0  0  0  0  0
  141.4480   76.7470  220.8420 C   0  0  0  0  0  0  0  0  0  0  0  0
  141.9080   78.0090  220.5110 C   0  0  0  0  0  0  0  0  0  0  0  0
  141.5330   79.0860  221.3080 C   0  0  0  0  0  0  0  0  0  0  0  0
  140.7150   78.8890  222.4060 C   0  0  0  0  0  0  0  0  0  0  0  0
  140.2560   80.2640  223.3940 Cl  0  0  0  0  0  0  0  0  0  0  0  0
  140.2450   77.6180  222.7490 C   0  0  0  0  0  0  0  0  0  0  0  0
  140.6330   76.5700  221.9420 C   0  0  0  0  0  0  0  0  0  0  0  0
  140.2280   75.3130  222.1970 N   0  0  0  0  0  0  0  0  0  0  0  0
  140.5770   74.2560  221.4430 C   0  0  0  0  0  0  0  0  0  0  0  0
  140.0620   72.9320  221.8150 C   0  0  0  0  0  0  0  0  0  0  0  0
  140.8010   72.1230  222.5360 C   0  0  0  0  0  0  0  0  0  0  0  0
  140.3260   71.3770  223.6900 C   0  0  0  0  0  0  0  0  0  0  0  0
  139.5030   70.2830  223.6090 C   0  0  0  0  0  0  0  0  0  0  0  0
  139.0800   69.6080  224.7500 C   0  0  0  0  0  0  0  0  0  0  0  0
  139.4800   70.0260  225.9960 C   0  0  0  0  0  0  0  0  0  0  0  0
  140.3050   71.1190  226.1050 C   0  0  0  0  0  0  0  0  0  0  0  0
  140.8380   71.6840  227.6580 Cl  0  0  0  0  0  0  0  0  0  0  0  0
  140.7100   71.7680  224.9670 C   0  0  0  0  0  0  0  0  0  0  0  0
  141.3710   74.3950  220.3640 N   0  0  0  0  0  0  0  0  0  0  0  0
  141.7990   73.3150  219.5260 C   0  0  0  0  0  0  0  0  0  0  0  0
  142.9810   72.5450  220.0040 C   0  0  0  0  0  0  0  0  0  0  0  0
  144.0010   73.5680  220.4850 C   0  0  0  0  0  0  0  0  0  0  0  0
  145.2700   72.9560  220.9610 C   0  0  0  0  0  0  0  0  0  0  0  0
  145.7790   71.9300  220.0750 N   0  0  0  0  0  0  0  0  0  0  0  0
  144.7920   70.9630  219.7090 C   0  0  0  0  0  0  0  0  0  0  0  0
  143.6570   71.6870  218.9700 C   0  0  0  0  0  0  0  0  0  0  0  0
  142.5571   78.1579  219.6355 H   0  0  0  0  0  0  0  0  0  0  0  0
  141.8884   80.0980  221.0641 H   0  0  0  0  0  0  0  0  0  0  0  0
  139.5954   77.4613  223.6227 H   0  0  0  0  0  0  0  0  0  0  0  0
  139.0588   72.6194  221.4897 H   0  0  0  0  0  0  0  0  0  0  0  0
  141.8552   72.0002  222.2470 H   0  0  0  0  0  0  0  0  0  0  0  0
  139.1702   69.9316  222.6212 H   0  0  0  0  0  0  0  0  0  0  0  0
  138.4203   68.7331  224.6535 H   0  0  0  0  0  0  0  0  0  0  0  0
  139.1434   69.4914  226.8965 H   0  0  0  0  0  0  0  0  0  0  0  0
  141.3713   72.6410  225.0700 H   0  0  0  0  0  0  0  0  0  0  0  0
  140.9581   72.6129  219.4265 H   0  0  0  0  0  0  0  0  0  0  0  0
  142.1119   73.7806  218.5798 H   0  0  0  0  0  0  0  0  0  0  0  0
  142.6168   71.8536  220.7782 H   0  0  0  0  0  0  0  0  0  0  0  0
  144.2325   74.2481  219.6520 H   0  0  0  0  0  0  0  0  0  0  0  0
  143.5538   74.0961  221.3400 H   0  0  0  0  0  0  0  0  0  0  0  0
  146.0280   73.7483  221.0495 H   0  0  0  0  0  0  0  0  0  0  0  0
  145.0575   72.4756  221.9275 H   0  0  0  0  0  0  0  0  0  0  0  0
  146.6990   71.5750  220.3420 H   0  0  0  0  0  0  0  0  0  0  0  0
  145.2406   70.2050  219.0501 H   0  0  0  0  0  0  0  0  0  0  0  0
  144.4005   70.4630  220.6072 H   0  0  0  0  0  0  0  0  0  0  0  0
  144.0631   72.3107  218.1600 H   0  0  0  0  0  0  0  0  0  0  0  0
  142.9546   70.9770  218.5091 H   0  0  0  0  0  0  0  0  0  0  0  0
  1  2  2  0
  2  3  1  0
  3  4  2  0
  4  5  1  0
  5  6  2  0
  6  7  1  0
  6  8  1  0
  8  9  2  0
  9 10  1  0
 10 11  2  0
 11 12  1  0
 12 13  2  0
 13 14  1  0
 14 15  2  0
 15 16  1  0
 16 17  2  0
 17 18  1  0
 18 19  1  0
 18 20  2  0
 11 21  1  0
 21 22  1  0
 22 23  1  0
 23 24  1  0
 24 25  1  0
 25 26  1  0
 26 27  1  0
 27 28  1  0
 21  2  1  0
 28 23  1  0
  9  3  1  0
 20 14  1  0
  4 29  1  0
  5 30  1  0
  8 31  1  0
 12 32  1  0
 13 33  1  0
 15 34  1  0
 16 35  1  0
 17 36  1  0
 20 37  1  0
 22 38  1  0
 22 39  1  0
 23 40  1  0
 24 41  1  0
 24 42  1  0
 25 43  1  0
 25 44  1  0
 26 45  1  0
 27 46  1  0
 27 47  1  0
 28 48  1  0
 28 49  1  0
M  END
>  <smiles>  (42) 
O=c1c2ccc(Cl)cc2nc(/C=C/c2cccc(Cl)c2)n1CC1CCNCC1

>  <score_type>  (42) 
oracle

>  <origin>  (42) 
autodockgpu

>  <m_score__min__energy>  (42) 
-8.5299999999999994

>  <m_primary>  (42) 
energy

>  <rmsd>  (42) 
4.915866597739568

>  <m_score__min__rmsd>  (42) 
4.915866597739568

>  <meeko>  (42) 
{"free_energy": -8.42, "intermolecular_energy": -9.91, "internal_energy": -1.16, "cluster_size": 29, "cluster_id": 1, "rank_in_cluster": 9}

>  <energy>  (42) 
-7.31

>  <cluster_rmsd>  (42) 
0.0

>  <cluster>  (42) 
5

$$$$

     RDKit          3D

 49 52  0  0  0  0  0  0  0  0999 V2000
  142.5270   75.2890  219.0320 O   0  0  0  0  0  0  0  0  0  0  0  0
  141.8240   75.1820  220.0900 C   0  0  0  0  0  0  0  0  0  0  0  0
  141.5720   76.3310  220.8070 C   0  0  0  0  0  0  0  0  0  0  0  0
  142.0770   77.5440  220.3730 C   0  0  0  0  0  0  0  0  0  0  0  0
  141.8050   78.6850  221.1210 C   0  0  0  0  0  0  0  0  0  0  0  0
  141.0440   78.5980  222.2730 C   0  0  0  0  0  0  0  0  0  0  0  0
  140.7150   80.0530  223.1980 Cl  0  0  0  0  0  0  0  0  0  0  0  0
  140.5300   77.3780  222.7200 C   0  0  0  0  0  0  0  0  0  0  0  0
  140.8160   76.2640  221.9580 C   0  0  0  0  0  0  0  0  0  0  0  0
  140.3620   75.0480  222.3130 N   0  0  0  0  0  0  0  0  0  0  0  0
  140.6110   73.9310  221.6080 C   0  0  0  0  0  0  0  0  0  0  0  0
  140.0510   72.6620  222.0880 C   0  0  0  0  0  0  0  0  0  0  0  0
  140.8020   71.8360  222.7770 C   0  0  0  0  0  0  0  0  0  0  0  0
  140.3890   71.1660  223.9990 C   0  0  0  0  0  0  0  0  0  0  0  0
  139.5860   70.0540  224.0300 C   0  0  0  0  0  0  0  0  0  0  0  0
  139.2240   69.4550  225.2330 C   0  0  0  0  0  0  0  0  0  0  0  0
  139.6650   69.9680  226.4280 C   0  0  0  0  0  0  0  0  0  0  0  0
  140.4700   71.0810  226.4260 C   0  0  0  0  0  0  0  0  0  0  0  0
  141.0530   71.7660  227.9110 Cl  0  0  0  0  0  0  0  0  0  0  0  0
  140.8150   71.6550  225.2290 C   0  0  0  0  0  0  0  0  0  0  0  0
  141.3460   73.9630  220.4800 N   0  0  0  0  0  0  0  0  0  0  0  0
  141.6680   72.8130  219.6880 C   0  0  0  0  0  0  0  0  0  0  0  0
  143.1080   72.4350  219.6390 C   0  0  0  0  0  0  0  0  0  0  0  0
  143.7940   73.1900  220.7690 C   0  0  0  0  0  0  0  0  0  0  0  0
  145.2610   72.9510  220.8310 C   0  0  0  0  0  0  0  0  0  0  0  0
  145.9100   73.0290  219.5400 N   0  0  0  0  0  0  0  0  0  0  0  0
  145.2560   72.2500  218.5340 C   0  0  0  0  0  0  0  0  0  0  0  0
  143.8260   72.7840  218.3650 C   0  0  0  0  0  0  0  0  0  0  0  0
  142.6809   77.6048  219.4556 H   0  0  0  0  0  0  0  0  0  0  0  0
  142.1965   79.6600  220.7952 H   0  0  0  0  0  0  0  0  0  0  0  0
  139.9256   77.3090  223.6365 H   0  0  0  0  0  0  0  0  0  0  0  0
  139.0040   72.4042  221.8705 H   0  0  0  0  0  0  0  0  0  0  0  0
  141.8170   71.6361  222.4031 H   0  0  0  0  0  0  0  0  0  0  0  0
  139.2207   69.6270  223.0844 H   0  0  0  0  0  0  0  0  0  0  0  0
  138.5795   68.5636  225.2265 H   0  0  0  0  0  0  0  0  0  0  0  0
  139.3766   69.4925  227.3771 H   0  0  0  0  0  0  0  0  0  0  0  0
  141.4603   72.5458  225.2427 H   0  0  0  0  0  0  0  0  0  0  0  0
  141.1093   71.9573  220.0949 H   0  0  0  0  0  0  0  0  0  0  0  0
  141.3964   73.0789  218.6558 H   0  0  0  0  0  0  0  0  0  0  0  0
  143.1510   71.3388  219.7196 H   0  0  0  0  0  0  0  0  0  0  0  0
  143.6215   74.2668  220.6246 H   0  0  0  0  0  0  0  0  0  0  0  0
  143.3642   72.8242  221.7132 H   0  0  0  0  0  0  0  0  0  0  0  0
  145.7098   73.7059  221.4933 H   0  0  0  0  0  0  0  0  0  0  0  0
  145.4082   71.9280  221.2077 H   0  0  0  0  0  0  0  0  0  0  0  0
  146.9280   72.9650  219.5860 H   0  0  0  0  0  0  0  0  0  0  0  0
  145.8009   72.3381  217.5825 H   0  0  0  0  0  0  0  0  0  0  0  0
  145.2327   71.1909  218.8301 H   0  0  0  0  0  0  0  0  0  0  0  0
  143.8386   73.8741  218.2181 H   0  0  0  0  0  0  0  0  0  0  0  0
  143.3302   72.3456  217.4864 H   0  0  0  0  0  0  0  0  0  0  0  0
  1  2  2  0
  2  3  1  0
  3  4  2  0
  4  5  1  0
  5  6  2  0
  6  7  1  0
  6  8  1  0
  8  9  2  0
  9 10  1  0
 10 11  2  0
 11 12  1  0
 12 13  2  0
 13 14  1  0
 14 15  2  0
 15 16  1  0
 16 17  2  0
 17 18  1  0
 18 19  1  0
 18 20  2  0
 11 21  1  0
 21 22  1  0
 22 23  1  0
 23 24  1  0
 24 25  1  0
 25 26  1  0
 26 27  1  0
 27 28  1  0
 21  2  1  0
 28 23  1  0
  9  3  1  0
 20 14  1  0
  4 29  1  0
  5 30  1  0
  8 31  1  0
 12 32  1  0
 13 33  1  0
 15 34  1  0
 16 35  1  0
 17 36  1  0
 20 37  1  0
 22 38  1  0
 22 39  1  0
 23 40  1  0
 24 41  1  0
 24 42  1  0
 25 43  1  0
 25 44  1  0
 26 45  1  0
 27 46  1  0
 27 47  1  0
 28 48  1  0
 28 49  1  0
M  END
>  <smiles>  (43) 
O=c1c2ccc(Cl)cc2nc(/C=C/c2cccc(Cl)c2)n1CC1CCNCC1

>  <score_type>  (43) 
oracle

>  <origin>  (43) 
autodockgpu

>  <m_score__min__energy>  (43) 
-8.5299999999999994

>  <m_primary>  (43) 
energy

>  <rmsd>  (43) 
5.228238926310666

>  <m_score__min__rmsd>  (43) 
5.228238926310666

>  <meeko>  (43) 
{"free_energy": -8.49, "intermolecular_energy": -9.98, "internal_energy": -0.98, "cluster_size": 29, "cluster_id": 1, "rank_in_cluster": 4}

>  <energy>  (43) 
-7.23

>  <cluster_rmsd>  (43) 
0.23

>  <cluster>  (43) 
5

$$$$

     RDKit          3D

 49 52  0  0  0  0  0  0  0  0999 V2000
  136.9520   84.3100  223.7110 O   0  0  0  0  0  0  0  0  0  0  0  0
  136.8520   83.0980  224.0940 C   0  0  0  0  0  0  0  0  0  0  0  0
  136.4930   82.8720  225.4050 C   0  0  0  0  0  0  0  0  0  0  0  0
  136.2560   83.9390  226.2530 C   0  0  0  0  0  0  0  0  0  0  0  0
  135.8960   83.6760  227.5720 C   0  0  0  0  0  0  0  0  0  0  0  0
  135.7800   82.3710  228.0150 C   0  0  0  0  0  0  0  0  0  0  0  0
  135.3240   82.0660  229.6820 Cl  0  0  0  0  0  0  0  0  0  0  0  0
  136.0170   81.2860  227.1660 C   0  0  0  0  0  0  0  0  0  0  0  0
  136.3720   81.5770  225.8650 C   0  0  0  0  0  0  0  0  0  0  0  0
  136.6190   80.5960  224.9790 N   0  0  0  0  0  0  0  0  0  0  0  0
  136.9680   80.8230  223.7010 C   0  0  0  0  0  0  0  0  0  0  0  0
  137.2000   79.6700  222.8240 C   0  0  0  0  0  0  0  0  0  0  0  0
  138.1280   78.7950  223.1280 C   0  0  0  0  0  0  0  0  0  0  0  0
  139.5510   78.9830  222.8980 C   0  0  0  0  0  0  0  0  0  0  0  0
  140.3090   78.1810  222.0830 C   0  0  0  0  0  0  0  0  0  0  0  0
  141.6690   78.4100  221.9020 C   0  0  0  0  0  0  0  0  0  0  0  0
  142.2910   79.4550  222.5400 C   0  0  0  0  0  0  0  0  0  0  0  0
  141.5560   80.2750  223.3620 C   0  0  0  0  0  0  0  0  0  0  0  0
  142.2980   81.6090  224.1900 Cl  0  0  0  0  0  0  0  0  0  0  0  0
  140.2170   80.0300  223.5260 C   0  0  0  0  0  0  0  0  0  0  0  0
  137.0950   82.0760  223.2220 N   0  0  0  0  0  0  0  0  0  0  0  0
  137.4810   82.3960  221.8790 C   0  0  0  0  0  0  0  0  0  0  0  0
  138.8830   82.0600  221.5040 C   0  0  0  0  0  0  0  0  0  0  0  0
  139.6610   83.3680  221.5130 C   0  0  0  0  0  0  0  0  0  0  0  0
  141.0850   83.2080  221.1150 C   0  0  0  0  0  0  0  0  0  0  0  0
  141.2630   82.3800  219.9410 N   0  0  0  0  0  0  0  0  0  0  0  0
  140.5580   81.1380  220.0180 C   0  0  0  0  0  0  0  0  0  0  0  0
  139.0590   81.4410  220.1450 C   0  0  0  0  0  0  0  0  0  0  0  0
  136.3500   84.9740  225.8926 H   0  0  0  0  0  0  0  0  0  0  0  0
  135.7032   84.5090  228.2641 H   0  0  0  0  0  0  0  0  0  0  0  0
  135.9247   80.2483  227.5189 H   0  0  0  0  0  0  0  0  0  0  0  0
  136.5967   79.5398  221.9134 H   0  0  0  0  0  0  0  0  0  0  0  0
  137.8065   77.8502  223.5906 H   0  0  0  0  0  0  0  0  0  0  0  0
  139.8310   77.3387  221.5614 H   0  0  0  0  0  0  0  0  0  0  0  0
  142.2508   77.7490  221.2428 H   0  0  0  0  0  0  0  0  0  0  0  0
  143.3666   79.6338  222.3945 H   0  0  0  0  0  0  0  0  0  0  0  0
  139.6410   80.6944  224.1870 H   0  0  0  0  0  0  0  0  0  0  0  0
  136.8108   81.8515  221.1976 H   0  0  0  0  0  0  0  0  0  0  0  0
  137.4084   83.4910  221.8029 H   0  0  0  0  0  0  0  0  0  0  0  0
  139.2327   81.3075  222.2261 H   0  0  0  0  0  0  0  0  0  0  0  0
  139.1790   84.0658  220.8125 H   0  0  0  0  0  0  0  0  0  0  0  0
  139.6518   83.7455  222.5461 H   0  0  0  0  0  0  0  0  0  0  0  0
  141.5030   84.2039  220.9063 H   0  0  0  0  0  0  0  0  0  0  0  0
  141.6011   82.7074  221.9474 H   0  0  0  0  0  0  0  0  0  0  0  0
  142.2260   82.3460  219.6030 H   0  0  0  0  0  0  0  0  0  0  0  0
  140.7424   80.5487  219.1076 H   0  0  0  0  0  0  0  0  0  0  0  0
  140.9026   80.5603  220.8883 H   0  0  0  0  0  0  0  0  0  0  0  0
  138.7417   82.1429  219.3598 H   0  0  0  0  0  0  0  0  0  0  0  0
  138.4499   80.5322  220.0307 H   0  0  0  0  0  0  0  0  0  0  0  0
  1  2  2  0
  2  3  1  0
  3  4  2  0
  4  5  1  0
  5  6  2  0
  6  7  1  0
  6  8  1  0
  8  9  2  0
  9 10  1  0
 10 11  2  0
 11 12  1  0
 12 13  2  0
 13 14  1  0
 14 15  2  0
 15 16  1  0
 16 17  2  0
 17 18  1  0
 18 19  1  0
 18 20  2  0
 11 21  1  0
 21 22  1  0
 22 23  1  0
 23 24  1  0
 24 25  1  0
 25 26  1  0
 26 27  1  0
 27 28  1  0
 21  2  1  0
 28 23  1  0
  9  3  1  0
 20 14  1  0
  4 29  1  0
  5 30  1  0
  8 31  1  0
 12 32  1  0
 13 33  1  0
 15 34  1  0
 16 35  1  0
 17 36  1  0
 20 37  1  0
 22 38  1  0
 22 39  1  0
 23 40  1  0
 24 41  1  0
 24 42  1  0
 25 43  1  0
 25 44  1  0
 26 45  1  0
 27 46  1  0
 27 47  1  0
 28 48  1  0
 28 49  1  0
M  END
>  <smiles>  (44) 
O=c1c2ccc(Cl)cc2nc(/C=C/c2cccc(Cl)c2)n1CC1CCNCC1

>  <score_type>  (44) 
oracle

>  <origin>  (44) 
autodockgpu

>  <m_score__min__energy>  (44) 
-8.5299999999999994

>  <m_primary>  (44) 
energy

>  <rmsd>  (44) 
7.315721617112198

>  <m_score__min__rmsd>  (44) 
7.315721617112198

>  <meeko>  (44) 
{"free_energy": -6.35, "intermolecular_energy": -7.84, "internal_energy": -2.25, "cluster_size": 1, "cluster_id": 10, "rank_in_cluster": 1}

>  <energy>  (44) 
-7.26

>  <cluster_rmsd>  (44) 
0.0

>  <cluster>  (44) 
6

$$$$

     RDKit          3D

 49 52  0  0  0  0  0  0  0  0999 V2000
  136.5030   75.8120  222.4460 O   0  0  0  0  0  0  0  0  0  0  0  0
  137.7110   75.4220  222.3240 C   0  0  0  0  0  0  0  0  0  0  0  0
  138.7010   76.3730  222.4360 C   0  0  0  0  0  0  0  0  0  0  0  0
  138.3700   77.6960  222.6720 C   0  0  0  0  0  0  0  0  0  0  0  0
  139.3940   78.6320  222.7800 C   0  0  0  0  0  0  0  0  0  0  0  0
  140.7140   78.2370  222.6520 C   0  0  0  0  0  0  0  0  0  0  0  0
  141.9870   79.4370  222.7920 Cl  0  0  0  0  0  0  0  0  0  0  0  0
  141.0590   76.9040  222.4140 C   0  0  0  0  0  0  0  0  0  0  0  0
  140.0230   75.9990  222.3120 C   0  0  0  0  0  0  0  0  0  0  0  0
  140.2630   74.6960  222.0840 N   0  0  0  0  0  0  0  0  0  0  0  0
  139.2920   73.7730  221.9760 C   0  0  0  0  0  0  0  0  0  0  0  0
  139.6770   72.3770  221.7380 C   0  0  0  0  0  0  0  0  0  0  0  0
  140.5500   71.7970  222.5260 C   0  0  0  0  0  0  0  0  0  0  0  0
  140.2250   71.1430  223.7830 C   0  0  0  0  0  0  0  0  0  0  0  0
  139.4810   69.9940  223.8800 C   0  0  0  0  0  0  0  0  0  0  0  0
  139.2010   69.4140  225.1130 C   0  0  0  0  0  0  0  0  0  0  0  0
  139.6650   69.9840  226.2740 C   0  0  0  0  0  0  0  0  0  0  0  0
  140.4120   71.1340  226.2050 C   0  0  0  0  0  0  0  0  0  0  0  0
  141.0210   71.8910  227.6440 Cl  0  0  0  0  0  0  0  0  0  0  0  0
  140.6760   71.6890  224.9790 C   0  0  0  0  0  0  0  0  0  0  0  0
  137.9920   74.1060  222.0920 N   0  0  0  0  0  0  0  0  0  0  0  0
  136.9020   73.1820  221.9700 C   0  0  0  0  0  0  0  0  0  0  0  0
  136.3850   72.6100  223.2450 C   0  0  0  0  0  0  0  0  0  0  0  0
  136.3960   71.0970  223.0780 C   0  0  0  0  0  0  0  0  0  0  0  0
  135.8630   70.3710  224.2610 C   0  0  0  0  0  0  0  0  0  0  0  0
  134.6340   70.9370  224.7760 N   0  0  0  0  0  0  0  0  0  0  0  0
  134.7060   72.3520  224.9710 C   0  0  0  0  0  0  0  0  0  0  0  0
  134.9840   73.0120  223.6130 C   0  0  0  0  0  0  0  0  0  0  0  0
  137.3181   78.0016  222.7722 H   0  0  0  0  0  0  0  0  0  0  0  0
  139.1535   79.6889  222.9677 H   0  0  0  0  0  0  0  0  0  0  0  0
  142.1086   76.5907  222.3126 H   0  0  0  0  0  0  0  0  0  0  0  0
  139.2341   71.8183  220.9003 H   0  0  0  0  0  0  0  0  0  0  0  0
  141.6046   71.8060  222.2133 H   0  0  0  0  0  0  0  0  0  0  0  0
  139.0979   69.5217  222.9634 H   0  0  0  0  0  0  0  0  0  0  0  0
  138.6034   68.4917  225.1590 H   0  0  0  0  0  0  0  0  0  0  0  0
  139.4405   69.5242  227.2477 H   0  0  0  0  0  0  0  0  0  0  0  0
  141.2740   72.6115  224.9403 H   0  0  0  0  0  0  0  0  0  0  0  0
  136.0710   73.7053  221.4745 H   0  0  0  0  0  0  0  0  0  0  0  0
  137.2991   72.3282  221.4014 H   0  0  0  0  0  0  0  0  0  0  0  0
  137.0301   72.9926  224.0496 H   0  0  0  0  0  0  0  0  0  0  0  0
  135.7815   70.8378  222.2032 H   0  0  0  0  0  0  0  0  0  0  0  0
  137.4450   70.7906  222.9530 H   0  0  0  0  0  0  0  0  0  0  0  0
  135.6723   69.3267  223.9727 H   0  0  0  0  0  0  0  0  0  0  0  0
  136.6168   70.4506  225.0582 H   0  0  0  0  0  0  0  0  0  0  0  0
  134.2090   70.3870  225.5240 H   0  0  0  0  0  0  0  0  0  0  0  0
  133.7518   72.7208  225.3754 H   0  0  0  0  0  0  0  0  0  0  0  0
  135.5085   72.5963  225.6826 H   0  0  0  0  0  0  0  0  0  0  0  0
  134.2704   72.6509  222.8578 H   0  0  0  0  0  0  0  0  0  0  0  0
  134.8751   74.1055  223.6630 H   0  0  0  0  0  0  0  0  0  0  0  0
  1  2  2  0
  2  3  1  0
  3  4  2  0
  4  5  1  0
  5  6  2  0
  6  7  1  0
  6  8  1  0
  8  9  2  0
  9 10  1  0
 10 11  2  0
 11 12  1  0
 12 13  2  0
 13 14  1  0
 14 15  2  0
 15 16  1  0
 16 17  2  0
 17 18  1  0
 18 19  1  0
 18 20  2  0
 11 21  1  0
 21 22  1  0
 22 23  1  0
 23 24  1  0
 24 25  1  0
 25 26  1  0
 26 27  1  0
 27 28  1  0
 21  2  1  0
 28 23  1  0
  9  3  1  0
 20 14  1  0
  4 29  1  0
  5 30  1  0
  8 31  1  0
 12 32  1  0
 13 33  1  0
 15 34  1  0
 16 35  1  0
 17 36  1  0
 20 37  1  0
 22 38  1  0
 22 39  1  0
 23 40  1  0
 24 41  1  0
 24 42  1  0
 25 43  1  0
 25 44  1  0
 26 45  1  0
 27 46  1  0
 27 47  1  0
 28 48  1  0
 28 49  1  0
M  END
>  <smiles>  (45) 
O=c1c2ccc(Cl)cc2nc(/C=C/c2cccc(Cl)c2)n1CC1CCNCC1

>  <score_type>  (45) 
oracle

>  <origin>  (45) 
autodockgpu

>  <m_score__min__energy>  (45) 
-8.5299999999999994

>  <m_primary>  (45) 
energy

>  <rmsd>  (45) 
6.938751540869314

>  <m_score__min__rmsd>  (45) 
6.938751540869314

>  <meeko>  (45) 
{"free_energy": -7.6, "intermolecular_energy": -9.09, "internal_energy": -1.76, "cluster_size": 10, "cluster_id": 4, "rank_in_cluster": 2}

>  <energy>  (45) 
-7.2

>  <cluster_rmsd>  (45) 
0.0

>  <cluster>  (45) 
7

$$$$

     RDKit          3D

 49 52  0  0  0  0  0  0  0  0999 V2000
  142.5460   76.0980  219.3100 O   0  0  0  0  0  0  0  0  0  0  0  0
  141.7460   75.9000  220.2830 C   0  0  0  0  0  0  0  0  0  0  0  0
  141.3560   76.9960  221.0210 C   0  0  0  0  0  0  0  0  0  0  0  0
  141.8320   78.2540  220.6990 C   0  0  0  0  0  0  0  0  0  0  0  0
  141.4200   79.3400  221.4650 C   0  0  0  0  0  0  0  0  0  0  0  0
  140.5510   79.1540  222.5250 C   0  0  0  0  0  0  0  0  0  0  0  0
  140.0460   80.5400  223.4760 Cl  0  0  0  0  0  0  0  0  0  0  0  0
  140.0650   77.8870  222.8590 C   0  0  0  0  0  0  0  0  0  0  0  0
  140.4910   76.8300  222.0820 C   0  0  0  0  0  0  0  0  0  0  0  0
  140.0740   75.5760  222.3310 N   0  0  0  0  0  0  0  0  0  0  0  0
  140.4570   74.5110  221.6060 C   0  0  0  0  0  0  0  0  0  0  0  0
  139.9260   73.1910  221.9670 C   0  0  0  0  0  0  0  0  0  0  0  0
  140.6960   72.3200  222.5730 C   0  0  0  0  0  0  0  0  0  0  0  0
  140.2900   71.5030  223.7050 C   0  0  0  0  0  0  0  0  0  0  0  0
  139.5130   70.3780  223.6000 C   0  0  0  0  0  0  0  0  0  0  0  0
  139.1560   69.6360  224.7210 C   0  0  0  0  0  0  0  0  0  0  0  0
  139.5760   70.0160  225.9720 C   0  0  0  0  0  0  0  0  0  0  0  0
  140.3550   71.1390  226.1060 C   0  0  0  0  0  0  0  0  0  0  0  0
  140.9120   71.6590  227.6670 Cl  0  0  0  0  0  0  0  0  0  0  0  0
  140.6960   71.8550  224.9870 C   0  0  0  0  0  0  0  0  0  0  0  0
  141.3010   74.6390  220.5650 N   0  0  0  0  0  0  0  0  0  0  0  0
  141.7690   73.5500  219.7590 C   0  0  0  0  0  0  0  0  0  0  0  0
  143.2470   73.3860  219.6750 C   0  0  0  0  0  0  0  0  0  0  0  0
  143.5150   71.8900  219.5910 C   0  0  0  0  0  0  0  0  0  0  0  0
  144.9620   71.5530  219.5430 C   0  0  0  0  0  0  0  0  0  0  0  0
  145.7520   72.2780  220.5150 N   0  0  0  0  0  0  0  0  0  0  0  0
  145.5030   73.6860  220.5040 C   0  0  0  0  0  0  0  0  0  0  0  0
  144.0250   73.9170  220.8470 C   0  0  0  0  0  0  0  0  0  0  0  0
  142.5226   78.3932  219.8542 H   0  0  0  0  0  0  0  0  0  0  0  0
  141.7864   80.3495  221.2269 H   0  0  0  0  0  0  0  0  0  0  0  0
  139.3746   77.7395  223.7026 H   0  0  0  0  0  0  0  0  0  0  0  0
  138.8834   72.9330  221.7294 H   0  0  0  0  0  0  0  0  0  0  0  0
  141.7230   72.1986  222.1981 H   0  0  0  0  0  0  0  0  0  0  0  0
  139.1645   70.0554  222.6078 H   0  0  0  0  0  0  0  0  0  0  0  0
  138.5322   68.7375  224.6045 H   0  0  0  0  0  0  0  0  0  0  0  0
  139.2917   69.4275  226.8568 H   0  0  0  0  0  0  0  0  0  0  0  0
  141.3213   72.7516  225.1100 H   0  0  0  0  0  0  0  0  0  0  0  0
  141.3506   72.6209  220.1734 H   0  0  0  0  0  0  0  0  0  0  0  0
  141.4377   73.7763  218.7348 H   0  0  0  0  0  0  0  0  0  0  0  0
  143.5810   73.9667  218.8025 H   0  0  0  0  0  0  0  0  0  0  0  0
  143.0731   71.4061  220.4745 H   0  0  0  0  0  0  0  0  0  0  0  0
  143.0659   71.5310  218.6532 H   0  0  0  0  0  0  0  0  0  0  0  0
  145.0760   70.4758  219.7343 H   0  0  0  0  0  0  0  0  0  0  0  0
  145.3298   71.8387  218.5464 H   0  0  0  0  0  0  0  0  0  0  0  0
  146.7290   71.9810  220.5560 H   0  0  0  0  0  0  0  0  0  0  0  0
  146.1401   74.1822  221.2510 H   0  0  0  0  0  0  0  0  0  0  0  0
  145.7315   74.1034  219.5123 H   0  0  0  0  0  0  0  0  0  0  0  0
  143.7548   73.3736  221.7645 H   0  0  0  0  0  0  0  0  0  0  0  0
  143.8117   74.9810  221.0271 H   0  0  0  0  0  0  0  0  0  0  0  0
  1  2  2  0
  2  3  1  0
  3  4  2  0
  4  5  1  0
  5  6  2  0
  6  7  1  0
  6  8  1  0
  8  9  2  0
  9 10  1  0
 10 11  2  0
 11 12  1  0
 12 13  2  0
 13 14  1  0
 14 15  2  0
 15 16  1  0
 16 17  2  0
 17 18  1  0
 18 19  1  0
 18 20  2  0
 11 21  1  0
 21 22  1  0
 22 23  1  0
 23 24  1  0
 24 25  1  0
 25 26  1  0
 26 27  1  0
 27 28  1  0
 21  2  1  0
 28 23  1  0
  9  3  1  0
 20 14  1  0
  4 29  1  0
  5 30  1  0
  8 31  1  0
 12 32  1  0
 13 33  1  0
 15 34  1  0
 16 35  1  0
 17 36  1  0
 20 37  1  0
 22 38  1  0
 22 39  1  0
 23 40  1  0
 24 41  1  0
 24 42  1  0
 25 43  1  0
 25 44  1  0
 26 45  1  0
 27 46  1  0
 27 47  1  0
 28 48  1  0
 28 49  1  0
M  END
>  <smiles>  (46) 
O=c1c2ccc(Cl)cc2nc(/C=C/c2cccc(Cl)c2)n1CC1CCNCC1

>  <score_type>  (46) 
oracle

>  <origin>  (46) 
autodockgpu

>  <m_score__min__energy>  (46) 
-8.5299999999999994

>  <m_primary>  (46) 
energy

>  <rmsd>  (46) 
4.95354252779257

>  <m_score__min__rmsd>  (46) 
4.95354252779257

>  <meeko>  (46) 
{"free_energy": -8.41, "intermolecular_energy": -9.9, "internal_energy": -1.09, "cluster_size": 29, "cluster_id": 1, "rank_in_cluster": 11}

>  <energy>  (46) 
-7.03

>  <cluster_rmsd>  (46) 
0.0

>  <cluster>  (46) 
8

$$$$

     RDKit          3D

 49 52  0  0  0  0  0  0  0  0999 V2000
  142.6410   75.9320  218.7890 O   0  0  0  0  0  0  0  0  0  0  0  0
  142.0040   75.5800  219.8360 C   0  0  0  0  0  0  0  0  0  0  0  0
  141.5560   76.5770  220.6750 C   0  0  0  0  0  0  0  0  0  0  0  0
  141.8020   77.9040  220.3690 C   0  0  0  0  0  0  0  0  0  0  0  0
  141.3370   78.8860  221.2370 C   0  0  0  0  0  0  0  0  0  0  0  0
  140.6420   78.5330  222.3810 C   0  0  0  0  0  0  0  0  0  0  0  0
  140.0660   79.7910  223.4590 Cl  0  0  0  0  0  0  0  0  0  0  0  0
  140.3880   77.1960  222.6980 C   0  0  0  0  0  0  0  0  0  0  0  0
  140.8610   76.2450  221.8190 C   0  0  0  0  0  0  0  0  0  0  0  0
  140.6620   74.9340  222.0450 N   0  0  0  0  0  0  0  0  0  0  0  0
  141.1010   73.9660  221.2220 C   0  0  0  0  0  0  0  0  0  0  0  0
  140.8130   72.5690  221.5690 C   0  0  0  0  0  0  0  0  0  0  0  0
  139.7530   72.2790  222.2840 C   0  0  0  0  0  0  0  0  0  0  0  0
  139.7550   71.4170  223.4550 C   0  0  0  0  0  0  0  0  0  0  0  0
  139.2290   70.1500  223.4740 C   0  0  0  0  0  0  0  0  0  0  0  0
  139.2600   69.3700  224.6260 C   0  0  0  0  0  0  0  0  0  0  0  0
  139.8210   69.8550  225.7820 C   0  0  0  0  0  0  0  0  0  0  0  0
  140.3540   71.1210  225.7900 C   0  0  0  0  0  0  0  0  0  0  0  0
  141.0740   71.7780  227.2270 Cl  0  0  0  0  0  0  0  0  0  0  0  0
  140.3140   71.8720  224.6440 C   0  0  0  0  0  0  0  0  0  0  0  0
  141.7830   74.2580  220.0980 N   0  0  0  0  0  0  0  0  0  0  0  0
  142.2980   73.2810  219.1840 C   0  0  0  0  0  0  0  0  0  0  0  0
  143.4440   72.4670  219.6750 C   0  0  0  0  0  0  0  0  0  0  0  0
  144.3670   73.4200  220.4220 C   0  0  0  0  0  0  0  0  0  0  0  0
  145.5940   72.7620  220.9450 C   0  0  0  0  0  0  0  0  0  0  0  0
  146.2350   71.8960  219.9790 N   0  0  0  0  0  0  0  0  0  0  0  0
  145.3300   70.9810  219.3560 C   0  0  0  0  0  0  0  0  0  0  0  0
  144.2630   71.7920  218.6090 C   0  0  0  0  0  0  0  0  0  0  0  0
  142.3542   78.1766  219.4575 H   0  0  0  0  0  0  0  0  0  0  0  0
  141.5221   79.9471  221.0137 H   0  0  0  0  0  0  0  0  0  0  0  0
  139.8360   76.9152  223.6071 H   0  0  0  0  0  0  0  0  0  0  0  0
  141.4852   71.7671  221.2298 H   0  0  0  0  0  0  0  0  0  0  0  0
  138.7933   72.7194  221.9759 H   0  0  0  0  0  0  0  0  0  0  0  0
  138.7733   69.7423  222.5596 H   0  0  0  0  0  0  0  0  0  0  0  0
  138.8318   68.3569  224.6107 H   0  0  0  0  0  0  0  0  0  0  0  0
  139.8433   69.2365  226.6914 H   0  0  0  0  0  0  0  0  0  0  0  0
  140.7451   72.8838  224.6661 H   0  0  0  0  0  0  0  0  0  0  0  0
  141.4789   72.5913  218.9321 H   0  0  0  0  0  0  0  0  0  0  0  0
  142.6857   73.8520  218.3275 H   0  0  0  0  0  0  0  0  0  0  0  0
  143.0183   71.6582  220.2871 H   0  0  0  0  0  0  0  0  0  0  0  0
  144.6682   74.2245  219.7350 H   0  0  0  0  0  0  0  0  0  0  0  0
  143.8079   73.8025  221.2887 H   0  0  0  0  0  0  0  0  0  0  0  0
  146.3092   73.5430  221.2425 H   0  0  0  0  0  0  0  0  0  0  0  0
  145.2896   72.1333  221.7948 H   0  0  0  0  0  0  0  0  0  0  0  0
  147.1310   71.5190  220.2960 H   0  0  0  0  0  0  0  0  0  0  0  0
  145.8765   70.3426  218.6463 H   0  0  0  0  0  0  0  0  0  0  0  0
  144.8568   70.3403  220.1147 H   0  0  0  0  0  0  0  0  0  0  0  0
  144.7369   72.5411  217.9576 H   0  0  0  0  0  0  0  0  0  0  0  0
  143.6426   71.1509  217.9655 H   0  0  0  0  0  0  0  0  0  0  0  0
  1  2  2  0
  2  3  1  0
  3  4  2  0
  4  5  1  0
  5  6  2  0
  6  7  1  0
  6  8  1  0
  8  9  2  0
  9 10  1  0
 10 11  2  0
 11 12  1  0
 12 13  2  0
 13 14  1  0
 14 15  2  0
 15 16  1  0
 16 17  2  0
 17 18  1  0
 18 19  1  0
 18 20  2  0
 11 21  1  0
 21 22  1  0
 22 23  1  0
 23 24  1  0
 24 25  1  0
 25 26  1  0
 26 27  1  0
 27 28  1  0
 21  2  1  0
 28 23  1  0
  9  3  1  0
 20 14  1  0
  4 29  1  0
  5 30  1  0
  8 31  1  0
 12 32  1  0
 13 33  1  0
 15 34  1  0
 16 35  1  0
 17 36  1  0
 20 37  1  0
 22 38  1  0
 22 39  1  0
 23 40  1  0
 24 41  1  0
 24 42  1  0
 25 43  1  0
 25 44  1  0
 26 45  1  0
 27 46  1  0
 27 47  1  0
 28 48  1  0
 28 49  1  0
M  END
>  <smiles>  (47) 
O=c1c2ccc(Cl)cc2nc(/C=C/c2cccc(Cl)c2)n1CC1CCNCC1

>  <score_type>  (47) 
oracle

>  <origin>  (47) 
autodockgpu

>  <m_score__min__energy>  (47) 
-8.5299999999999994

>  <m_primary>  (47) 
energy

>  <rmsd>  (47) 
5.194237784089624

>  <m_score__min__rmsd>  (47) 
5.194237784089624

>  <meeko>  (47) 
{"free_energy": -8.34, "intermolecular_energy": -9.83, "internal_energy": -1.15, "cluster_size": 29, "cluster_id": 1, "rank_in_cluster": 15}

>  <energy>  (47) 
-6.87

>  <cluster_rmsd>  (47) 
0.0

>  <cluster>  (47) 
9

$$$$

     RDKit          3D

 49 52  0  0  0  0  0  0  0  0999 V2000
  142.5310   75.2810  219.0480 O   0  0  0  0  0  0  0  0  0  0  0  0
  141.8110   75.1780  220.0950 C   0  0  0  0  0  0  0  0  0  0  0  0
  141.5620   76.3280  220.8120 C   0  0  0  0  0  0  0  0  0  0  0  0
  142.0850   77.5370  220.3880 C   0  0  0  0  0  0  0  0  0  0  0  0
  141.8150   78.6800  221.1350 C   0  0  0  0  0  0  0  0  0  0  0  0
  141.0370   78.5980  222.2760 C   0  0  0  0  0  0  0  0  0  0  0  0
  140.7100   80.0540  223.2000 Cl  0  0  0  0  0  0  0  0  0  0  0  0
  140.5030   77.3820  222.7120 C   0  0  0  0  0  0  0  0  0  0  0  0
  140.7880   76.2670  221.9520 C   0  0  0  0  0  0  0  0  0  0  0  0
  140.3160   75.0550  222.2970 N   0  0  0  0  0  0  0  0  0  0  0  0
  140.5630   73.9370  221.5930 C   0  0  0  0  0  0  0  0  0  0  0  0
  139.9830   72.6730  222.0620 C   0  0  0  0  0  0  0  0  0  0  0  0
  140.7320   71.8110  222.7070 C   0  0  0  0  0  0  0  0  0  0  0  0
  140.3550   71.1530  223.9480 C   0  0  0  0  0  0  0  0  0  0  0  0
  139.5920   70.0160  224.0120 C   0  0  0  0  0  0  0  0  0  0  0  0
  139.2620   69.4310  225.2300 C   0  0  0  0  0  0  0  0  0  0  0  0
  139.6970   69.9850  226.4100 C   0  0  0  0  0  0  0  0  0  0  0  0
  140.4630   71.1240  226.3750 C   0  0  0  0  0  0  0  0  0  0  0  0
  141.0370   71.8610  227.8390 Cl  0  0  0  0  0  0  0  0  0  0  0  0
  140.7760   71.6830  225.1620 C   0  0  0  0  0  0  0  0  0  0  0  0
  141.3150   73.9640  220.4760 N   0  0  0  0  0  0  0  0  0  0  0  0
  141.6360   72.8130  219.6850 C   0  0  0  0  0  0  0  0  0  0  0  0
  143.0750   72.4280  219.6440 C   0  0  0  0  0  0  0  0  0  0  0  0
  143.7580   73.1800  220.7780 C   0  0  0  0  0  0  0  0  0  0  0  0
  145.2230   72.9350  220.8480 C   0  0  0  0  0  0  0  0  0  0  0  0
  145.8790   73.0090  219.5600 N   0  0  0  0  0  0  0  0  0  0  0  0
  145.2270   72.2330  218.5510 C   0  0  0  0  0  0  0  0  0  0  0  0
  143.8010   72.7730  218.3740 C   0  0  0  0  0  0  0  0  0  0  0  0
  142.7017   77.5936  219.4789 H   0  0  0  0  0  0  0  0  0  0  0  0
  142.2215   79.6515  220.8171 H   0  0  0  0  0  0  0  0  0  0  0  0
  139.8842   77.3174  223.6192 H   0  0  0  0  0  0  0  0  0  0  0  0
  138.9227   72.4492  221.8730 H   0  0  0  0  0  0  0  0  0  0  0  0
  141.7157   71.5683  222.2787 H   0  0  0  0  0  0  0  0  0  0  0  0
  139.2328   69.5561  223.0795 H   0  0  0  0  0  0  0  0  0  0  0  0
  138.6483   68.5183  225.2489 H   0  0  0  0  0  0  0  0  0  0  0  0
  139.4344   69.5210  227.3721 H   0  0  0  0  0  0  0  0  0  0  0  0
  141.3903   72.5954  225.1495 H   0  0  0  0  0  0  0  0  0  0  0  0
  141.0709   71.9597  220.0880 H   0  0  0  0  0  0  0  0  0  0  0  0
  141.3716   73.0809  218.6514 H   0  0  0  0  0  0  0  0  0  0  0  0
  143.1130   71.3317  219.7251 H   0  0  0  0  0  0  0  0  0  0  0  0
  143.5908   74.2575  220.6329 H   0  0  0  0  0  0  0  0  0  0  0  0
  143.3215   72.8158  221.7197 H   0  0  0  0  0  0  0  0  0  0  0  0
  145.6715   73.6887  221.5119 H   0  0  0  0  0  0  0  0  0  0  0  0
  145.3640   71.9119  221.2267 H   0  0  0  0  0  0  0  0  0  0  0  0
  146.8970   72.9400  219.6120 H   0  0  0  0  0  0  0  0  0  0  0  0
  145.7775   72.3183  217.6025 H   0  0  0  0  0  0  0  0  0  0  0  0
  145.1972   71.1741  218.8474 H   0  0  0  0  0  0  0  0  0  0  0  0
  143.8191   73.8629  218.2265 H   0  0  0  0  0  0  0  0  0  0  0  0
  143.3079   72.3363  217.4930 H   0  0  0  0  0  0  0  0  0  0  0  0
  1  2  2  0
  2  3  1  0
  3  4  2  0
  4  5  1  0
  5  6  2  0
  6  7  1  0
  6  8  1  0
  8  9  2  0
  9 10  1  0
 10 11  2  0
 11 12  1  0
 12 13  2  0
 13 14  1  0
 14 15  2  0
 15 16  1  0
 16 17  2  0
 17 18  1  0
 18 19  1  0
 18 20  2  0
 11 21  1  0
 21 22  1  0
 22 23  1  0
 23 24  1  0
 24 25  1  0
 25 26  1  0
 26 27  1  0
 27 28  1  0
 21  2  1  0
 28 23  1  0
  9  3  1  0
 20 14  1  0
  4 29  1  0
  5 30  1  0
  8 31  1  0
 12 32  1  0
 13 33  1  0
 15 34  1  0
 16 35  1  0
 17 36  1  0
 20 37  1  0
 22 38  1  0
 22 39  1  0
 23 40  1  0
 24 41  1  0
 24 42  1  0
 25 43  1  0
 25 44  1  0
 26 45  1  0
 27 46  1  0
 27 47  1  0
 28 48  1  0
 28 49  1  0
M  END
>  <smiles>  (48) 
O=c1c2ccc(Cl)cc2nc(/C=C/c2cccc(Cl)c2)n1CC1CCNCC1

>  <score_type>  (48) 
oracle

>  <origin>  (48) 
autodockgpu

>  <m_score__min__energy>  (48) 
-8.5299999999999994

>  <m_primary>  (48) 
energy

>  <rmsd>  (48) 
5.22327378070697

>  <m_score__min__rmsd>  (48) 
5.22327378070697

>  <meeko>  (48) 
{"free_energy": -8.5, "intermolecular_energy": -9.99, "internal_energy": -0.97, "cluster_size": 29, "cluster_id": 1, "rank_in_cluster": 2}

>  <energy>  (48) 
-6.73

>  <cluster_rmsd>  (48) 
1.11

>  <cluster>  (48) 
9

$$$$

     RDKit          3D

 49 52  0  0  0  0  0  0  0  0999 V2000
  142.9240   76.9190  218.8220 O   0  0  0  0  0  0  0  0  0  0  0  0
  142.3020   76.3720  219.7910 C   0  0  0  0  0  0  0  0  0  0  0  0
  141.6920   77.2020  220.7060 C   0  0  0  0  0  0  0  0  0  0  0  0
  141.7690   78.5750  220.5560 C   0  0  0  0  0  0  0  0  0  0  0  0
  141.1440   79.3860  221.4990 C   0  0  0  0  0  0  0  0  0  0  0  0
  140.4600   78.8190  222.5600 C   0  0  0  0  0  0  0  0  0  0  0  0
  139.6800   79.8630  223.7350 Cl  0  0  0  0  0  0  0  0  0  0  0  0
  140.3770   77.4330  222.7200 C   0  0  0  0  0  0  0  0  0  0  0  0
  141.0060   76.6560  221.7710 C   0  0  0  0  0  0  0  0  0  0  0  0
  140.9770   75.3130  221.8460 N   0  0  0  0  0  0  0  0  0  0  0  0
  141.5730   74.5090  220.9490 C   0  0  0  0  0  0  0  0  0  0  0  0
  141.4630   73.0570  221.1290 C   0  0  0  0  0  0  0  0  0  0  0  0
  140.2870   72.5110  221.3230 C   0  0  0  0  0  0  0  0  0  0  0  0
  139.9310   71.7000  222.4770 C   0  0  0  0  0  0  0  0  0  0  0  0
  138.9840   70.7080  222.4540 C   0  0  0  0  0  0  0  0  0  0  0  0
  138.6850   69.9640  223.5920 C   0  0  0  0  0  0  0  0  0  0  0  0
  139.3370   70.2090  224.7760 C   0  0  0  0  0  0  0  0  0  0  0  0
  140.2900   71.1970  224.8270 C   0  0  0  0  0  0  0  0  0  0  0  0
  141.1410   71.5440  226.3000 Cl  0  0  0  0  0  0  0  0  0  0  0  0
  140.5680   71.9170  223.6930 C   0  0  0  0  0  0  0  0  0  0  0  0
  142.2510   75.0110  219.8980 N   0  0  0  0  0  0  0  0  0  0  0  0
  142.9270   74.2190  218.9140 C   0  0  0  0  0  0  0  0  0  0  0  0
  144.3100   73.7880  219.2580 C   0  0  0  0  0  0  0  0  0  0  0  0
  144.2880   72.2670  219.3290 C   0  0  0  0  0  0  0  0  0  0  0  0
  145.5990   71.6760  219.7080 C   0  0  0  0  0  0  0  0  0  0  0  0
  146.2280   72.3470  220.8260 N   0  0  0  0  0  0  0  0  0  0  0  0
  146.2760   73.7680  220.6740 C   0  0  0  0  0  0  0  0  0  0  0  0
  144.8360   74.2910  220.5740 C   0  0  0  0  0  0  0  0  0  0  0  0
  142.3133   79.0171  219.7084 H   0  0  0  0  0  0  0  0  0  0  0  0
  141.1939   80.4805  221.4006 H   0  0  0  0  0  0  0  0  0  0  0  0
  139.8346   76.9829  223.5645 H   0  0  0  0  0  0  0  0  0  0  0  0
  142.3650   72.4281  221.1012 H   0  0  0  0  0  0  0  0  0  0  0  0
  139.5141   72.6781  220.5584 H   0  0  0  0  0  0  0  0  0  0  0  0
  138.4494   70.4958  221.5163 H   0  0  0  0  0  0  0  0  0  0  0  0
  137.9210   69.1741  223.5427 H   0  0  0  0  0  0  0  0  0  0  0  0
  139.0985   69.6201  225.6740 H   0  0  0  0  0  0  0  0  0  0  0  0
  141.3331   72.7053  223.7489 H   0  0  0  0  0  0  0  0  0  0  0  0
  142.3263   73.3140  218.7403 H   0  0  0  0  0  0  0  0  0  0  0  0
  143.0304   74.8682  218.0320 H   0  0  0  0  0  0  0  0  0  0  0  0
  144.9730   74.2067  218.4865 H   0  0  0  0  0  0  0  0  0  0  0  0
  143.5394   71.9633  220.0755 H   0  0  0  0  0  0  0  0  0  0  0  0
  144.0434   71.8977  218.3221 H   0  0  0  0  0  0  0  0  0  0  0  0
  145.4416   70.6212  219.9775 H   0  0  0  0  0  0  0  0  0  0  0  0
  146.2688   71.7872  218.8426 H   0  0  0  0  0  0  0  0  0  0  0  0
  147.0790   71.8870  221.1550 H   0  0  0  0  0  0  0  0  0  0  0  0
  146.7758   74.2185  221.5442 H   0  0  0  0  0  0  0  0  0  0  0  0
  146.8394   74.0334  219.7673 H   0  0  0  0  0  0  0  0  0  0  0  0
  144.2281   73.9015  221.4040 H   0  0  0  0  0  0  0  0  0  0  0  0
  144.7981   75.3888  220.6332 H   0  0  0  0  0  0  0  0  0  0  0  0
  1  2  2  0
  2  3  1  0
  3  4  2  0
  4  5  1  0
  5  6  2  0
  6  7  1  0
  6  8  1  0
  8  9  2  0
  9 10  1  0
 10 11  2  0
 11 12  1  0
 12 13  2  0
 13 14  1  0
 14 15  2  0
 15 16  1  0
 16 17  2  0
 17 18  1  0
 18 19  1  0
 18 20  2  0
 11 21  1  0
 21 22  1  0
 22 23  1  0
 23 24  1  0
 24 25  1  0
 25 26  1  0
 26 27  1  0
 27 28  1  0
 21  2  1  0
 28 23  1  0
  9  3  1  0
 20 14  1  0
  4 29  1  0
  5 30  1  0
  8 31  1  0
 12 32  1  0
 13 33  1  0
 15 34  1  0
 16 35  1  0
 17 36  1  0
 20 37  1  0
 22 38  1  0
 22 39  1  0
 23 40  1  0
 24 41  1  0
 24 42  1  0
 25 43  1  0
 25 44  1  0
 26 45  1  0
 27 46  1  0
 27 47  1  0
 28 48  1  0
 28 49  1  0
M  END
>  <smiles>  (49) 
O=c1c2ccc(Cl)cc2nc(/C=C/c2cccc(Cl)c2)n1CC1CCNCC1

>  <score_type>  (49) 
oracle

>  <origin>  (49) 
autodockgpu

>  <m_score__min__energy>  (49) 
-8.5299999999999994

>  <m_primary>  (49) 
energy

>  <rmsd>  (49) 
5.1139183619064905

>  <m_score__min__rmsd>  (49) 
5.1139183619064905

>  <meeko>  (49) 
{"free_energy": -7.95, "intermolecular_energy": -9.45, "internal_energy": -1.27, "cluster_size": 29, "cluster_id": 1, "rank_in_cluster": 27}

>  <energy>  (49) 
-6.35

>  <cluster_rmsd>  (49) 
0.0

>  <cluster>  (49) 
10

$$$$

     RDKit          3D

 49 52  0  0  0  0  0  0  0  0999 V2000
  136.2930   75.2640  222.5200 O   0  0  0  0  0  0  0  0  0  0  0  0
  137.4970   74.8790  222.3500 C   0  0  0  0  0  0  0  0  0  0  0  0
  138.4840   75.8390  222.3860 C   0  0  0  0  0  0  0  0  0  0  0  0
  138.1550   77.1660  222.6000 C   0  0  0  0  0  0  0  0  0  0  0  0
  139.1750   78.1110  222.6290 C   0  0  0  0  0  0  0  0  0  0  0  0
  140.4910   77.7210  222.4490 C   0  0  0  0  0  0  0  0  0  0  0  0
  141.7590   78.9320  222.4910 Cl  0  0  0  0  0  0  0  0  0  0  0  0
  140.8340   76.3840  222.2320 C   0  0  0  0  0  0  0  0  0  0  0  0
  139.8010   75.4700  222.2080 C   0  0  0  0  0  0  0  0  0  0  0  0
  140.0390   74.1620  222.0060 N   0  0  0  0  0  0  0  0  0  0  0  0
  139.0710   73.2300  221.9730 C   0  0  0  0  0  0  0  0  0  0  0  0
  139.4550   71.8300  221.7560 C   0  0  0  0  0  0  0  0  0  0  0  0
  140.4260   71.3020  222.4630 C   0  0  0  0  0  0  0  0  0  0  0  0
  140.3440   70.9940  223.8820 C   0  0  0  0  0  0  0  0  0  0  0  0
  140.6770   71.8760  224.8780 C   0  0  0  0  0  0  0  0  0  0  0  0
  140.5780   71.5230  226.2210 C   0  0  0  0  0  0  0  0  0  0  0  0
  140.1420   70.2720  226.5830 C   0  0  0  0  0  0  0  0  0  0  0  0
  139.8020   69.3700  225.6050 C   0  0  0  0  0  0  0  0  0  0  0  0
  139.2450   67.7770  226.0130 Cl  0  0  0  0  0  0  0  0  0  0  0  0
  139.9070   69.7390  224.2880 C   0  0  0  0  0  0  0  0  0  0  0  0
  137.7760   73.5580  222.1430 N   0  0  0  0  0  0  0  0  0  0  0  0
  136.6890   72.6250  222.1020 C   0  0  0  0  0  0  0  0  0  0  0  0
  136.2980   72.0190  223.4050 C   0  0  0  0  0  0  0  0  0  0  0  0
  136.7480   70.5660  223.3630 C   0  0  0  0  0  0  0  0  0  0  0  0
  136.3900   69.8030  224.5880 C   0  0  0  0  0  0  0  0  0  0  0  0
  135.0280   70.0250  225.0240 N   0  0  0  0  0  0  0  0  0  0  0  0
  134.6830   71.4100  225.1050 C   0  0  0  0  0  0  0  0  0  0  0  0
  134.8240   72.0250  223.7050 C   0  0  0  0  0  0  0  0  0  0  0  0
  137.1070   77.4676  222.7444 H   0  0  0  0  0  0  0  0  0  0  0  0
  138.9353   79.1716  222.7955 H   0  0  0  0  0  0  0  0  0  0  0  0
  141.8796   76.0745  222.0870 H   0  0  0  0  0  0  0  0  0  0  0  0
  138.9299   71.2249  221.0023 H   0  0  0  0  0  0  0  0  0  0  0  0
  141.3699   71.0761  221.9453 H   0  0  0  0  0  0  0  0  0  0  0  0
  141.0295   72.8830  224.6102 H   0  0  0  0  0  0  0  0  0  0  0  0
  140.8511   72.2518  226.9983 H   0  0  0  0  0  0  0  0  0  0  0  0
  140.0660   69.9955  227.6450 H   0  0  0  0  0  0  0  0  0  0  0  0
  139.6318   69.0057  223.5156 H   0  0  0  0  0  0  0  0  0  0  0  0
  135.8106   73.1495  221.6979 H   0  0  0  0  0  0  0  0  0  0  0  0
  137.0401   71.7885  221.4799 H   0  0  0  0  0  0  0  0  0  0  0  0
  136.7694   72.6272  224.1911 H   0  0  0  0  0  0  0  0  0  0  0  0
  136.2747   70.0789  222.4977 H   0  0  0  0  0  0  0  0  0  0  0  0
  137.8455   70.5672  223.2894 H   0  0  0  0  0  0  0  0  0  0  0  0
  136.5199   68.7304  224.3815 H   0  0  0  0  0  0  0  0  0  0  0  0
  137.0511   70.1533  225.3944 H   0  0  0  0  0  0  0  0  0  0  0  0
  134.7440   69.4310  225.8050 H   0  0  0  0  0  0  0  0  0  0  0  0
  133.6453   71.5150  225.4545 H   0  0  0  0  0  0  0  0  0  0  0  0
  135.3479   71.9252  225.8139 H   0  0  0  0  0  0  0  0  0  0  0  0
  134.2793   71.4213  222.9642 H   0  0  0  0  0  0  0  0  0  0  0  0
  134.4052   73.0413  223.6637 H   0  0  0  0  0  0  0  0  0  0  0  0
  1  2  2  0
  2  3  1  0
  3  4  2  0
  4  5  1  0
  5  6  2  0
  6  7  1  0
  6  8  1  0
  8  9  2  0
  9 10  1  0
 10 11  2  0
 11 12  1  0
 12 13  2  0
 13 14  1  0
 14 15  2  0
 15 16  1  0
 16 17  2  0
 17 18  1  0
 18 19  1  0
 18 20  2  0
 11 21  1  0
 21 22  1  0
 22 23  1  0
 23 24  1  0
 24 25  1  0
 25 26  1  0
 26 27  1  0
 27 28  1  0
 21  2  1  0
 28 23  1  0
  9  3  1  0
 20 14  1  0
  4 29  1  0
  5 30  1  0
  8 31  1  0
 12 32  1  0
 13 33  1  0
 15 34  1  0
 16 35  1  0
 17 36  1  0
 20 37  1  0
 22 38  1  0
 22 39  1  0
 23 40  1  0
 24 41  1  0
 24 42  1  0
 25 43  1  0
 25 44  1  0
 26 45  1  0
 27 46  1  0
 27 47  1  0
 28 48  1  0
 28 49  1  0
M  END
>  <smiles>  (50) 
O=c1c2ccc(Cl)cc2nc(/C=C/c2cccc(Cl)c2)n1CC1CCNCC1

>  <score_type>  (50) 
oracle

>  <origin>  (50) 
autodockgpu

>  <m_score__min__energy>  (50) 
-8.5299999999999994

>  <m_primary>  (50) 
energy

>  <rmsd>  (50) 
7.333486579305122

>  <m_score__min__rmsd>  (50) 
7.333486579305122

>  <meeko>  (50) 
{"free_energy": -6.98, "intermolecular_energy": -8.47, "internal_energy": -1.89, "cluster_size": 10, "cluster_id": 4, "rank_in_cluster": 8}

>  <energy>  (50) 
-6.04

>  <cluster_rmsd>  (50) 
0.0

>  <cluster>  (50) 
11

$$$$
