
     RDKit          3D

 64 69  0  0  0  0  0  0  0  0999 V2000
  140.4720   80.0160  223.5660 C   0  0  0  0  0  0  0  0  0  0  0  0
  141.6450   79.8820  222.8340 C   0  0  0  0  0  0  0  0  0  0  0  0
  141.8090   78.7610  222.0690 C   0  0  0  0  0  0  0  0  0  0  0  0
  140.8360   77.7620  222.0090 C   0  0  0  0  0  0  0  0  0  0  0  0
  139.6680   77.8830  222.7310 C   0  0  0  0  0  0  0  0  0  0  0  0
  139.5310   79.0300  223.4950 C   0  0  0  0  0  0  0  0  0  0  0  0
  138.6020   76.8430  222.6980 C   0  0  0  0  0  0  0  0  0  0  0  0
  138.7020   76.1320  221.3630 C   0  0  0  0  0  0  0  0  0  0  0  0
  140.0580   75.6520  221.2590 N   0  0  0  0  0  0  0  0  0  0  0  0
  140.3530   74.2630  221.2710 C   0  0  0  0  0  0  0  0  0  0  0  0
  140.8830   73.6710  220.1750 N   0  0  0  0  0  0  0  0  0  0  0  0
  141.1620   72.3570  220.1840 C   0  0  0  0  0  0  0  0  0  0  0  0
  141.7290   71.7190  219.0170 N   0  0  0  0  0  0  0  0  0  0  0  0
  143.1090   71.8830  218.6900 C   0  0  0  0  0  0  0  0  0  0  0  0
  144.0690   71.4480  219.7550 C   0  0  2  0  0  0  0  0  0  0  0  0
  144.2680   72.6810  220.6440 C   0  0  0  0  0  0  0  0  0  0  0  0
  145.4490   73.3150  219.9370 C   0  0  0  0  0  0  0  0  0  0  0  0
  146.3350   72.1590  219.8470 N   0  0  0  0  0  0  0  0  0  0  0  0
  145.4430   71.1260  219.3090 C   0  0  0  0  0  0  0  0  0  0  0  0
  140.9150   71.6360  221.2780 N   0  0  0  0  0  0  0  0  0  0  0  0
  140.3900   72.1920  222.3830 C   0  0  0  0  0  0  0  0  0  0  0  0
  140.1160   71.4320  223.5720 N   0  0  0  0  0  0  0  0  0  0  0  0
  138.9260   70.6190  223.6380 C   0  0  0  0  0  0  0  0  0  0  0  0
  139.0510   69.5150  224.6660 C   0  0  0  0  0  0  0  0  0  0  0  0
  139.6010   70.0040  225.9480 C   0  0  0  0  0  0  0  0  0  0  0  0
  139.1300   69.4800  227.1500 C   0  0  0  0  0  0  0  0  0  0  0  0
  139.6480   69.9420  228.3430 C   0  0  0  0  0  0  0  0  0  0  0  0
  140.6250   70.9170  228.3100 C   0  0  0  0  0  0  0  0  0  0  0  0
  141.0790   71.4250  227.0960 C   0  0  0  0  0  0  0  0  0  0  0  0
  140.5660   70.9670  225.9150 C   0  0  0  0  0  0  0  0  0  0  0  0
  141.0790   71.5360  224.6550 C   0  0  0  0  0  0  0  0  0  0  0  0
  140.1150   73.5140  222.3550 N   0  0  0  0  0  0  0  0  0  0  0  0
  141.1460   76.6000  221.1390 C   0  0  0  0  0  0  0  0  0  0  0  0
  140.3040   80.9037  224.1936 H   0  0  0  0  0  0  0  0  0  0  0  0
  142.4229   80.6590  222.8691 H   0  0  0  0  0  0  0  0  0  0  0  0
  142.7334   78.6430  221.4845 H   0  0  0  0  0  0  0  0  0  0  0  0
  138.6078   79.1538  224.0801 H   0  0  0  0  0  0  0  0  0  0  0  0
  138.7516   76.1253  223.5181 H   0  0  0  0  0  0  0  0  0  0  0  0
  137.6094   77.3009  222.8202 H   0  0  0  0  0  0  0  0  0  0  0  0
  137.9961   75.2892  221.3268 H   0  0  0  0  0  0  0  0  0  0  0  0
  138.4527   76.8074  220.5313 H   0  0  0  0  0  0  0  0  0  0  0  0
  141.1090   71.1310  218.4140 H   0  0  0  0  0  0  0  0  0  0  0  0
  143.3167   71.2961  217.7832 H   0  0  0  0  0  0  0  0  0  0  0  0
  143.2668   72.9635  218.5572 H   0  0  0  0  0  0  0  0  0  0  0  0
  143.6371   70.5406  220.2022 H   0  0  0  0  0  0  0  0  0  0  0  0
  143.3856   73.3377  220.6374 H   0  0  0  0  0  0  0  0  0  0  0  0
  144.4229   72.4668  221.7118 H   0  0  0  0  0  0  0  0  0  0  0  0
  145.1735   73.6975  218.9431 H   0  0  0  0  0  0  0  0  0  0  0  0
  145.8785   74.1918  220.4437 H   0  0  0  0  0  0  0  0  0  0  0  0
  146.4920   71.8780  220.8580 H   0  0  0  0  0  0  0  0  0  0  0  0
  145.4903   71.1242  218.2100 H   0  0  0  0  0  0  0  0  0  0  0  0
  145.7431   70.1302  219.6673 H   0  0  0  0  0  0  0  0  0  0  0  0
  138.0727   71.2593  223.9062 H   0  0  0  0  0  0  0  0  0  0  0  0
  138.7782   70.1517  222.6532 H   0  0  0  0  0  0  0  0  0  0  0  0
  138.0544   69.0868  224.8487 H   0  0  0  0  0  0  0  0  0  0  0  0
  139.7447   68.7601  224.2675 H   0  0  0  0  0  0  0  0  0  0  0  0
  138.3508   68.7036  227.1482 H   0  0  0  0  0  0  0  0  0  0  0  0
  139.2891   69.5408  229.3023 H   0  0  0  0  0  0  0  0  0  0  0  0
  141.0486   71.2959  229.2518 H   0  0  0  0  0  0  0  0  0  0  0  0
  141.8576   72.2020  227.0872 H   0  0  0  0  0  0  0  0  0  0  0  0
  141.3163   72.5978  224.8169 H   0  0  0  0  0  0  0  0  0  0  0  0
  141.9735   70.9645  224.3666 H   0  0  0  0  0  0  0  0  0  0  0  0
  142.0873   76.1316  221.4622 H   0  0  0  0  0  0  0  0  0  0  0  0
  141.2594   76.9232  220.0937 H   0  0  0  0  0  0  0  0  0  0  0  0
  1  2  2  0
  2  3  1  0
  3  4  2  0
  4  5  1  0
  5  6  2  0
  5  7  1  0
  7  8  1  0
  8  9  1  0
  9 10  1  0
 10 11  2  0
 11 12  1  0
 12 13  1  0
 13 14  1  0
 14 15  1  0
 15 16  1  0
 16 17  1  0
 17 18  1  0
 18 19  1  0
 12 20  2  0
 20 21  1  0
 21 22  1  0
 22 23  1  0
 23 24  1  0
 24 25  1  0
 25 26  2  0
 26 27  1  0
 27 28  2  0
 28 29  1  0
 29 30  2  0
 30 31  1  0
 21 32  2  0
  9 33  1  0
  6  1  1  0
 32 10  1  0
 33  4  1  0
 19 15  1  0
 31 22  1  0
 30 25  1  0
  1 34  1  0
  2 35  1  0
  3 36  1  0
  6 37  1  0
  7 38  1  0
  7 39  1  0
  8 40  1  0
  8 41  1  0
 13 42  1  0
 14 43  1  0
 14 44  1  0
 15 45  1  1
 16 46  1  0
 16 47  1  0
 17 48  1  0
 17 49  1  0
 18 50  1  0
 19 51  1  0
 19 52  1  0
 23 53  1  0
 23 54  1  0
 24 55  1  0
 24 56  1  0
 26 57  1  0
 27 58  1  0
 28 59  1  0
 29 60  1  0
 31 61  1  0
 31 62  1  0
 33 63  1  0
 33 64  1  0
M  END
>  <smiles>  (1) 
c1ccc2c(c1)CCN(c1nc(NCC3CCNC3)nc(N3CCc4ccccc4C3)n1)C2

>  <score_type>  (1) 
oracle

>  <origin>  (1) 
autodockgpu

>  <m_score__min__energy>  (1) 
-10.4

>  <m_primary>  (1) 
energy

>  <rmsd>  (1) 
5.0033958585262726

>  <m_score__min__rmsd>  (1) 
5.0033958585262726

>  <meeko>  (1) 
{"free_energy": -10.23, "intermolecular_energy": -11.73, "internal_energy": -1.08, "cluster_size": 50, "cluster_id": 1, "rank_in_cluster": 18}

>  <energy>  (1) 
-10.4

>  <cluster_rmsd>  (1) 
0.0

>  <cluster>  (1) 
1

$$$$

     RDKit          3D

 64 69  0  0  0  0  0  0  0  0999 V2000
  140.0630   80.0660  223.5780 C   0  0  0  0  0  0  0  0  0  0  0  0
  141.2640   80.0260  222.8820 C   0  0  0  0  0  0  0  0  0  0  0  0
  141.5470   78.9150  222.1360 C   0  0  0  0  0  0  0  0  0  0  0  0
  140.6650   77.8360  222.0600 C   0  0  0  0  0  0  0  0  0  0  0  0
  139.4700   77.8630  222.7470 C   0  0  0  0  0  0  0  0  0  0  0  0
  139.2130   79.0020  223.4920 C   0  0  0  0  0  0  0  0  0  0  0  0
  138.4980   76.7350  222.6950 C   0  0  0  0  0  0  0  0  0  0  0  0
  138.6980   76.0230  221.3730 C   0  0  0  0  0  0  0  0  0  0  0  0
  140.0930   75.6600  221.3140 N   0  0  0  0  0  0  0  0  0  0  0  0
  140.5040   74.3010  221.3510 C   0  0  0  0  0  0  0  0  0  0  0  0
  141.2250   73.7820  220.3300 N   0  0  0  0  0  0  0  0  0  0  0  0
  141.6160   72.4960  220.3630 C   0  0  0  0  0  0  0  0  0  0  0  0
  142.3860   71.9340  219.2770 N   0  0  0  0  0  0  0  0  0  0  0  0
  143.7570   71.5800  219.4580 C   0  0  0  0  0  0  0  0  0  0  0  0
  144.7400   72.6570  219.1140 C   0  0  2  0  0  0  0  0  0  0  0  0
  146.0210   72.2870  219.8710 C   0  0  0  0  0  0  0  0  0  0  0  0
  145.7700   73.0280  221.1700 C   0  0  0  0  0  0  0  0  0  0  0  0
  145.4240   74.3440  220.6430 N   0  0  0  0  0  0  0  0  0  0  0  0
  144.4290   74.0140  219.6160 C   0  0  0  0  0  0  0  0  0  0  0  0
  141.2900   71.7330  221.4070 N   0  0  0  0  0  0  0  0  0  0  0  0
  140.5760   72.2180  222.4370 C   0  0  0  0  0  0  0  0  0  0  0  0
  140.2160   71.4120  223.5710 N   0  0  0  0  0  0  0  0  0  0  0  0
  139.0420   70.5750  223.5050 C   0  0  0  0  0  0  0  0  0  0  0  0
  139.1000   69.4380  224.5030 C   0  0  0  0  0  0  0  0  0  0  0  0
  139.5250   69.8910  225.8440 C   0  0  0  0  0  0  0  0  0  0  0  0
  138.9610   69.3170  226.9810 C   0  0  0  0  0  0  0  0  0  0  0  0
  139.3630   69.7460  228.2300 C   0  0  0  0  0  0  0  0  0  0  0  0
  140.3180   70.7390  228.3160 C   0  0  0  0  0  0  0  0  0  0  0  0
  140.8660   71.2980  227.1650 C   0  0  0  0  0  0  0  0  0  0  0  0
  140.4680   70.8720  225.9280 C   0  0  0  0  0  0  0  0  0  0  0  0
  141.0780   71.4950  224.7380 C   0  0  0  0  0  0  0  0  0  0  0  0
  140.1930   73.5110  222.3860 N   0  0  0  0  0  0  0  0  0  0  0  0
  141.0990   76.6970  221.2130 C   0  0  0  0  0  0  0  0  0  0  0  0
  139.8009   80.9421  224.1894 H   0  0  0  0  0  0  0  0  0  0  0  0
  141.9708   80.8676  222.9295 H   0  0  0  0  0  0  0  0  0  0  0  0
  142.4956   78.8707  221.5808 H   0  0  0  0  0  0  0  0  0  0  0  0
  138.2655   79.0519  224.0485 H   0  0  0  0  0  0  0  0  0  0  0  0
  138.6836   76.0405  223.5276 H   0  0  0  0  0  0  0  0  0  0  0  0
  137.4667   77.1075  222.7826 H   0  0  0  0  0  0  0  0  0  0  0  0
  138.0681   75.1224  221.3266 H   0  0  0  0  0  0  0  0  0  0  0  0
  138.4168   76.6666  220.5264 H   0  0  0  0  0  0  0  0  0  0  0  0
  141.9210   71.7900  218.3510 H   0  0  0  0  0  0  0  0  0  0  0  0
  143.9030   71.3095  220.5142 H   0  0  0  0  0  0  0  0  0  0  0  0
  143.9545   70.7504  218.7632 H   0  0  0  0  0  0  0  0  0  0  0  0
  144.7719   72.7017  218.0154 H   0  0  0  0  0  0  0  0  0  0  0  0
  146.1054   71.2015  220.0280 H   0  0  0  0  0  0  0  0  0  0  0  0
  146.9586   72.5475  219.3581 H   0  0  0  0  0  0  0  0  0  0  0  0
  144.9403   72.5846  221.7400 H   0  0  0  0  0  0  0  0  0  0  0  0
  146.6093   73.0177  221.8809 H   0  0  0  0  0  0  0  0  0  0  0  0
  146.2850   74.6360  220.0980 H   0  0  0  0  0  0  0  0  0  0  0  0
  143.4194   74.0306  220.0523 H   0  0  0  0  0  0  0  0  0  0  0  0
  144.4611   74.7468  218.7962 H   0  0  0  0  0  0  0  0  0  0  0  0
  138.1550   71.1897  223.7180 H   0  0  0  0  0  0  0  0  0  0  0  0
  138.9911   70.1396  222.4961 H   0  0  0  0  0  0  0  0  0  0  0  0
  138.1005   68.9856  224.5826 H   0  0  0  0  0  0  0  0  0  0  0  0
  139.8422   68.7106  224.1423 H   0  0  0  0  0  0  0  0  0  0  0  0
  138.2009   68.5277  226.8843 H   0  0  0  0  0  0  0  0  0  0  0  0
  138.9303   69.3047  229.1399 H   0  0  0  0  0  0  0  0  0  0  0  0
  140.6492   71.0920  229.3038 H   0  0  0  0  0  0  0  0  0  0  0  0
  141.6255   72.0890  227.2512 H   0  0  0  0  0  0  0  0  0  0  0  0
  141.2776   72.5545  224.9561 H   0  0  0  0  0  0  0  0  0  0  0  0
  142.0065   70.9507  224.5109 H   0  0  0  0  0  0  0  0  0  0  0  0
  142.0673   76.3145  221.5681 H   0  0  0  0  0  0  0  0  0  0  0  0
  141.2149   77.0186  220.1675 H   0  0  0  0  0  0  0  0  0  0  0  0
  1  2  2  0
  2  3  1  0
  3  4  2  0
  4  5  1  0
  5  6  2  0
  5  7  1  0
  7  8  1  0
  8  9  1  0
  9 10  1  0
 10 11  2  0
 11 12  1  0
 12 13  1  0
 13 14  1  0
 14 15  1  0
 15 16  1  0
 16 17  1  0
 17 18  1  0
 18 19  1  0
 12 20  2  0
 20 21  1  0
 21 22  1  0
 22 23  1  0
 23 24  1  0
 24 25  1  0
 25 26  2  0
 26 27  1  0
 27 28  2  0
 28 29  1  0
 29 30  2  0
 30 31  1  0
 21 32  2  0
  9 33  1  0
  6  1  1  0
 32 10  1  0
 33  4  1  0
 19 15  1  0
 31 22  1  0
 30 25  1  0
  1 34  1  0
  2 35  1  0
  3 36  1  0
  6 37  1  0
  7 38  1  0
  7 39  1  0
  8 40  1  0
  8 41  1  0
 13 42  1  0
 14 43  1  0
 14 44  1  0
 15 45  1  6
 16 46  1  0
 16 47  1  0
 17 48  1  0
 17 49  1  0
 18 50  1  0
 19 51  1  0
 19 52  1  0
 23 53  1  0
 23 54  1  0
 24 55  1  0
 24 56  1  0
 26 57  1  0
 27 58  1  0
 28 59  1  0
 29 60  1  0
 31 61  1  0
 31 62  1  0
 33 63  1  0
 33 64  1  0
M  END
>  <smiles>  (2) 
c1ccc2c(c1)CCN(c1nc(NCC3CCNC3)nc(N3CCc4ccccc4C3)n1)C2

>  <score_type>  (2) 
oracle

>  <origin>  (2) 
autodockgpu

>  <m_score__min__energy>  (2) 
-10.4

>  <m_primary>  (2) 
energy

>  <rmsd>  (2) 
4.965417151161733

>  <m_score__min__rmsd>  (2) 
4.965417151161733

>  <meeko>  (2) 
{"free_energy": -9.88, "intermolecular_energy": -11.37, "internal_energy": -1.09, "cluster_size": 50, "cluster_id": 1, "rank_in_cluster": 46}

>  <energy>  (2) 
-10.4

>  <cluster_rmsd>  (2) 
0.08

>  <cluster>  (2) 
1

$$$$

     RDKit          3D

 64 69  0  0  0  0  0  0  0  0999 V2000
  140.4780   79.9300  223.5640 C   0  0  0  0  0  0  0  0  0  0  0  0
  141.6520   79.7990  222.8340 C   0  0  0  0  0  0  0  0  0  0  0  0
  141.8200   78.6780  222.0680 C   0  0  0  0  0  0  0  0  0  0  0  0
  140.8490   77.6780  222.0050 C   0  0  0  0  0  0  0  0  0  0  0  0
  139.6790   77.7960  222.7250 C   0  0  0  0  0  0  0  0  0  0  0  0
  139.5390   78.9430  223.4900 C   0  0  0  0  0  0  0  0  0  0  0  0
  138.6150   76.7540  222.6890 C   0  0  0  0  0  0  0  0  0  0  0  0
  138.7180   76.0460  221.3530 C   0  0  0  0  0  0  0  0  0  0  0  0
  140.0760   75.5680  221.2510 N   0  0  0  0  0  0  0  0  0  0  0  0
  140.3720   74.1790  221.2620 C   0  0  0  0  0  0  0  0  0  0  0  0
  140.8930   73.5870  220.1620 N   0  0  0  0  0  0  0  0  0  0  0  0
  141.1750   72.2730  220.1700 C   0  0  0  0  0  0  0  0  0  0  0  0
  141.7310   71.6340  218.9990 N   0  0  0  0  0  0  0  0  0  0  0  0
  143.1030   71.8160  218.6470 C   0  0  0  0  0  0  0  0  0  0  0  0
  144.0860   71.4160  219.7060 C   0  0  2  0  0  0  0  0  0  0  0  0
  144.2390   72.6540  220.5980 C   0  0  0  0  0  0  0  0  0  0  0  0
  145.3890   73.3380  219.8870 C   0  0  0  0  0  0  0  0  0  0  0  0
  146.3210   72.2200  219.7880 N   0  0  0  0  0  0  0  0  0  0  0  0
  145.4700   71.1540  219.2510 C   0  0  0  0  0  0  0  0  0  0  0  0
  140.9390   71.5530  221.2670 N   0  0  0  0  0  0  0  0  0  0  0  0
  140.4240   72.1100  222.3760 C   0  0  0  0  0  0  0  0  0  0  0  0
  140.1630   71.3510  223.5690 N   0  0  0  0  0  0  0  0  0  0  0  0
  139.0450   70.4390  223.6010 C   0  0  0  0  0  0  0  0  0  0  0  0
  139.2170   69.3690  224.6580 C   0  0  0  0  0  0  0  0  0  0  0  0
  139.6650   69.9270  225.9520 C   0  0  0  0  0  0  0  0  0  0  0  0
  139.1870   69.3860  227.1430 C   0  0  0  0  0  0  0  0  0  0  0  0
  139.6090   69.9140  228.3470 C   0  0  0  0  0  0  0  0  0  0  0  0
  140.5000   70.9680  228.3350 C   0  0  0  0  0  0  0  0  0  0  0  0
  140.9630   71.4920  227.1310 C   0  0  0  0  0  0  0  0  0  0  0  0
  140.5440   70.9690  225.9390 C   0  0  0  0  0  0  0  0  0  0  0  0
  141.0630   71.5580  224.6900 C   0  0  0  0  0  0  0  0  0  0  0  0
  140.1470   73.4310  222.3490 N   0  0  0  0  0  0  0  0  0  0  0  0
  141.1630   76.5180  221.1340 C   0  0  0  0  0  0  0  0  0  0  0  0
  140.3076   80.8165  224.1926 H   0  0  0  0  0  0  0  0  0  0  0  0
  142.4281   80.5777  222.8708 H   0  0  0  0  0  0  0  0  0  0  0  0
  142.7460   78.5618  221.4858 H   0  0  0  0  0  0  0  0  0  0  0  0
  138.6143   79.0651  224.0732 H   0  0  0  0  0  0  0  0  0  0  0  0
  138.7651   76.0351  223.5079 H   0  0  0  0  0  0  0  0  0  0  0  0
  137.6213   77.2097  222.8111 H   0  0  0  0  0  0  0  0  0  0  0  0
  138.0134   75.2022  221.3139 H   0  0  0  0  0  0  0  0  0  0  0  0
  138.4690   76.7224  220.5220 H   0  0  0  0  0  0  0  0  0  0  0  0
  141.1100   71.0330  218.4090 H   0  0  0  0  0  0  0  0  0  0  0  0
  143.3072   71.2165  217.7476 H   0  0  0  0  0  0  0  0  0  0  0  0
  143.2404   72.8963  218.4915 H   0  0  0  0  0  0  0  0  0  0  0  0
  143.6946   70.4898  220.1521 H   0  0  0  0  0  0  0  0  0  0  0  0
  143.3303   73.2739  220.5980 H   0  0  0  0  0  0  0  0  0  0  0  0
  144.4083   72.4433  221.6643 H   0  0  0  0  0  0  0  0  0  0  0  0
  145.0925   73.7122  218.8960 H   0  0  0  0  0  0  0  0  0  0  0  0
  145.7850   74.2299  220.3947 H   0  0  0  0  0  0  0  0  0  0  0  0
  146.4950   71.9420  220.7970 H   0  0  0  0  0  0  0  0  0  0  0  0
  145.5110   71.1589  218.1518 H   0  0  0  0  0  0  0  0  0  0  0  0
  145.8134   70.1702  219.6035 H   0  0  0  0  0  0  0  0  0  0  0  0
  138.1286   71.0078  223.8171 H   0  0  0  0  0  0  0  0  0  0  0  0
  138.9830   69.9425  222.6214 H   0  0  0  0  0  0  0  0  0  0  0  0
  138.2532   68.8601  224.8066 H   0  0  0  0  0  0  0  0  0  0  0  0
  139.9899   68.6695  224.3069 H   0  0  0  0  0  0  0  0  0  0  0  0
  138.4787   68.5446  227.1246 H   0  0  0  0  0  0  0  0  0  0  0  0
  139.2417   69.5021  229.2985 H   0  0  0  0  0  0  0  0  0  0  0  0
  140.8477   71.3982  229.2858 H   0  0  0  0  0  0  0  0  0  0  0  0
  141.6715   72.3334  227.1387 H   0  0  0  0  0  0  0  0  0  0  0  0
  141.2003   72.6392  224.8388 H   0  0  0  0  0  0  0  0  0  0  0  0
  142.0157   71.0616  224.4536 H   0  0  0  0  0  0  0  0  0  0  0  0
  142.1045   76.0508  221.4584 H   0  0  0  0  0  0  0  0  0  0  0  0
  141.2782   76.8426  220.0893 H   0  0  0  0  0  0  0  0  0  0  0  0
  1  2  2  0
  2  3  1  0
  3  4  2  0
  4  5  1  0
  5  6  2  0
  5  7  1  0
  7  8  1  0
  8  9  1  0
  9 10  1  0
 10 11  2  0
 11 12  1  0
 12 13  1  0
 13 14  1  0
 14 15  1  0
 15 16  1  0
 16 17  1  0
 17 18  1  0
 18 19  1  0
 12 20  2  0
 20 21  1  0
 21 22  1  0
 22 23  1  0
 23 24  1  0
 24 25  1  0
 25 26  2  0
 26 27  1  0
 27 28  2  0
 28 29  1  0
 29 30  2  0
 30 31  1  0
 21 32  2  0
  9 33  1  0
  6  1  1  0
 32 10  1  0
 33  4  1  0
 19 15  1  0
 31 22  1  0
 30 25  1  0
  1 34  1  0
  2 35  1  0
  3 36  1  0
  6 37  1  0
  7 38  1  0
  7 39  1  0
  8 40  1  0
  8 41  1  0
 13 42  1  0
 14 43  1  0
 14 44  1  0
 15 45  1  1
 16 46  1  0
 16 47  1  0
 17 48  1  0
 17 49  1  0
 18 50  1  0
 19 51  1  0
 19 52  1  0
 23 53  1  0
 23 54  1  0
 24 55  1  0
 24 56  1  0
 26 57  1  0
 27 58  1  0
 28 59  1  0
 29 60  1  0
 31 61  1  0
 31 62  1  0
 33 63  1  0
 33 64  1  0
M  END
>  <smiles>  (3) 
c1ccc2c(c1)CCN(c1nc(NCC3CCNC3)nc(N3CCc4ccccc4C3)n1)C2

>  <score_type>  (3) 
oracle

>  <origin>  (3) 
autodockgpu

>  <m_score__min__energy>  (3) 
-10.4

>  <m_primary>  (3) 
energy

>  <rmsd>  (3) 
5.002941410384373

>  <m_score__min__rmsd>  (3) 
5.002941410384373

>  <meeko>  (3) 
{"free_energy": -10.23, "intermolecular_energy": -11.72, "internal_energy": -1.08, "cluster_size": 50, "cluster_id": 1, "rank_in_cluster": 19}

>  <energy>  (3) 
-10.4

>  <cluster_rmsd>  (3) 
0.04

>  <cluster>  (3) 
1

$$$$

     RDKit          3D

 64 69  0  0  0  0  0  0  0  0999 V2000
  140.0960   68.1030  226.5440 C   0  0  0  0  0  0  0  0  0  0  0  0
  140.9410   69.0640  227.0850 C   0  0  0  0  0  0  0  0  0  0  0  0
  141.0520   70.2670  226.4440 C   0  0  0  0  0  0  0  0  0  0  0  0
  140.3440   70.5450  225.2740 C   0  0  0  0  0  0  0  0  0  0  0  0
  139.5020   69.6010  224.7270 C   0  0  0  0  0  0  0  0  0  0  0  0
  139.4100   68.3930  225.4000 C   0  0  0  0  0  0  0  0  0  0  0  0
  138.7260   69.8540  223.4810 C   0  0  0  0  0  0  0  0  0  0  0  0
  138.4950   71.3480  223.3850 C   0  0  0  0  0  0  0  0  0  0  0  0
  139.7980   71.9650  223.4560 N   0  0  0  0  0  0  0  0  0  0  0  0
  140.3530   72.6480  222.3410 C   0  0  0  0  0  0  0  0  0  0  0  0
  140.7630   71.9530  221.2550 N   0  0  0  0  0  0  0  0  0  0  0  0
  141.2890   72.5970  220.1990 C   0  0  0  0  0  0  0  0  0  0  0  0
  141.7290   71.8610  219.0350 N   0  0  0  0  0  0  0  0  0  0  0  0
  143.1090   71.8310  218.6670 C   0  0  0  0  0  0  0  0  0  0  0  0
  144.0510   71.4570  219.7700 C   0  0  2  0  0  0  0  0  0  0  0  0
  144.2950   72.7560  220.5470 C   0  0  0  0  0  0  0  0  0  0  0  0
  145.5000   73.2800  219.7900 C   0  0  0  0  0  0  0  0  0  0  0  0
  146.3420   72.0890  219.8080 N   0  0  0  0  0  0  0  0  0  0  0  0
  145.4130   71.0470  219.3600 C   0  0  0  0  0  0  0  0  0  0  0  0
  141.4050   73.9260  220.2250 N   0  0  0  0  0  0  0  0  0  0  0  0
  141.0070   74.6450  221.2870 C   0  0  0  0  0  0  0  0  0  0  0  0
  141.1230   76.0770  221.3350 N   0  0  0  0  0  0  0  0  0  0  0  0
  141.4160   76.8070  220.1250 C   0  0  0  0  0  0  0  0  0  0  0  0
  140.9840   78.2550  220.2180 C   0  0  0  0  0  0  0  0  0  0  0  0
  141.3930   78.8800  221.4940 C   0  0  0  0  0  0  0  0  0  0  0  0
  141.7990   80.2120  221.5160 C   0  0  0  0  0  0  0  0  0  0  0  0
  142.1800   80.7880  222.7110 C   0  0  0  0  0  0  0  0  0  0  0  0
  142.1470   80.0210  223.8590 C   0  0  0  0  0  0  0  0  0  0  0  0
  141.7370   78.6920  223.8120 C   0  0  0  0  0  0  0  0  0  0  0  0
  141.3600   78.1220  222.6270 C   0  0  0  0  0  0  0  0  0  0  0  0
  140.9340   76.7100  222.6290 C   0  0  0  0  0  0  0  0  0  0  0  0
  140.4820   73.9800  222.3390 N   0  0  0  0  0  0  0  0  0  0  0  0
  140.5590   71.8910  224.6850 C   0  0  0  0  0  0  0  0  0  0  0  0
  139.9814   67.1230  227.0303 H   0  0  0  0  0  0  0  0  0  0  0  0
  141.5069   68.8622  228.0064 H   0  0  0  0  0  0  0  0  0  0  0  0
  141.7176   71.0365  226.8621 H   0  0  0  0  0  0  0  0  0  0  0  0
  138.7438   67.6211  224.9873 H   0  0  0  0  0  0  0  0  0  0  0  0
  139.2949   69.5048  222.6067 H   0  0  0  0  0  0  0  0  0  0  0  0
  137.7679   69.3142  223.5045 H   0  0  0  0  0  0  0  0  0  0  0  0
  138.0070   71.5974  222.4312 H   0  0  0  0  0  0  0  0  0  0  0  0
  137.8396   71.7039  224.1936 H   0  0  0  0  0  0  0  0  0  0  0  0
  141.0190   71.3480  218.4640 H   0  0  0  0  0  0  0  0  0  0  0  0
  143.2293   71.1006  217.8534 H   0  0  0  0  0  0  0  0  0  0  0  0
  143.3712   72.8584  218.3744 H   0  0  0  0  0  0  0  0  0  0  0  0
  143.5853   70.6092  220.2938 H   0  0  0  0  0  0  0  0  0  0  0  0
  143.4377   73.4419  220.4786 H   0  0  0  0  0  0  0  0  0  0  0  0
  144.4409   72.6324  221.6303 H   0  0  0  0  0  0  0  0  0  0  0  0
  145.2396   73.5813  218.7646 H   0  0  0  0  0  0  0  0  0  0  0  0
  145.9615   74.1824  220.2174 H   0  0  0  0  0  0  0  0  0  0  0  0
  146.4870   71.8940  220.8400 H   0  0  0  0  0  0  0  0  0  0  0  0
  145.4612   70.9464  218.2657 H   0  0  0  0  0  0  0  0  0  0  0  0
  145.6757   70.0766  219.8064 H   0  0  0  0  0  0  0  0  0  0  0  0
  142.5001   76.7708  219.9420 H   0  0  0  0  0  0  0  0  0  0  0  0
  140.8578   76.3379  219.3014 H   0  0  0  0  0  0  0  0  0  0  0  0
  141.4396   78.8144  219.3877 H   0  0  0  0  0  0  0  0  0  0  0  0
  139.8856   78.2833  220.1654 H   0  0  0  0  0  0  0  0  0  0  0  0
  141.8159   80.8011  220.5872 H   0  0  0  0  0  0  0  0  0  0  0  0
  142.5039   81.8386  222.7483 H   0  0  0  0  0  0  0  0  0  0  0  0
  142.4476   80.4648  224.8196 H   0  0  0  0  0  0  0  0  0  0  0  0
  141.7159   78.0948  224.7355 H   0  0  0  0  0  0  0  0  0  0  0  0
  141.5233   76.1634  223.3800 H   0  0  0  0  0  0  0  0  0  0  0  0
  139.8599   76.6821  222.8645 H   0  0  0  0  0  0  0  0  0  0  0  0
  141.6280   72.0396  224.4723 H   0  0  0  0  0  0  0  0  0  0  0  0
  140.2320   72.6730  225.3861 H   0  0  0  0  0  0  0  0  0  0  0  0
  1  2  2  0
  2  3  1  0
  3  4  2  0
  4  5  1  0
  5  6  2  0
  5  7  1  0
  7  8  1  0
  8  9  1  0
  9 10  1  0
 10 11  2  0
 11 12  1  0
 12 13  1  0
 13 14  1  0
 14 15  1  0
 15 16  1  0
 16 17  1  0
 17 18  1  0
 18 19  1  0
 12 20  2  0
 20 21  1  0
 21 22  1  0
 22 23  1  0
 23 24  1  0
 24 25  1  0
 25 26  2  0
 26 27  1  0
 27 28  2  0
 28 29  1  0
 29 30  2  0
 30 31  1  0
 21 32  2  0
  9 33  1  0
  6  1  1  0
 32 10  1  0
 33  4  1  0
 19 15  1  0
 31 22  1  0
 30 25  1  0
  1 34  1  0
  2 35  1  0
  3 36  1  0
  6 37  1  0
  7 38  1  0
  7 39  1  0
  8 40  1  0
  8 41  1  0
 13 42  1  0
 14 43  1  0
 14 44  1  0
 15 45  1  1
 16 46  1  0
 16 47  1  0
 17 48  1  0
 17 49  1  0
 18 50  1  0
 19 51  1  0
 19 52  1  0
 23 53  1  0
 23 54  1  0
 24 55  1  0
 24 56  1  0
 26 57  1  0
 27 58  1  0
 28 59  1  0
 29 60  1  0
 31 61  1  0
 31 62  1  0
 33 63  1  0
 33 64  1  0
M  END
>  <smiles>  (4) 
c1ccc2c(c1)CCN(c1nc(NCC3CCNC3)nc(N3CCc4ccccc4C3)n1)C2

>  <score_type>  (4) 
oracle

>  <origin>  (4) 
autodockgpu

>  <m_score__min__energy>  (4) 
-10.4

>  <m_primary>  (4) 
energy

>  <rmsd>  (4) 
10.695638438440481

>  <m_score__min__rmsd>  (4) 
10.695638438440481

>  <meeko>  (4) 
{"free_energy": -10.28, "intermolecular_energy": -11.77, "internal_energy": -1.03, "cluster_size": 50, "cluster_id": 1, "rank_in_cluster": 15}

>  <energy>  (4) 
-10.4

>  <cluster_rmsd>  (4) 
0.03

>  <cluster>  (4) 
1

$$$$

     RDKit          3D

 64 69  0  0  0  0  0  0  0  0999 V2000
  140.1570   68.2180  226.8890 C   0  0  0  0  0  0  0  0  0  0  0  0
  140.9770   69.2270  227.3770 C   0  0  0  0  0  0  0  0  0  0  0  0
  141.0750   70.3880  226.6600 C   0  0  0  0  0  0  0  0  0  0  0  0
  140.3780   70.5760  225.4660 C   0  0  0  0  0  0  0  0  0  0  0  0
  139.5610   69.5830  224.9720 C   0  0  0  0  0  0  0  0  0  0  0  0
  139.4820   68.4190  225.7210 C   0  0  0  0  0  0  0  0  0  0  0  0
  138.7970   69.7390  223.7020 C   0  0  0  0  0  0  0  0  0  0  0  0
  138.5410   71.2200  223.5060 C   0  0  0  0  0  0  0  0  0  0  0  0
  139.8310   71.8650  223.5530 N   0  0  0  0  0  0  0  0  0  0  0  0
  140.3890   72.4840  222.4030 C   0  0  0  0  0  0  0  0  0  0  0  0
  140.7740   71.7320  221.3460 N   0  0  0  0  0  0  0  0  0  0  0  0
  141.3020   72.3150  220.2560 C   0  0  0  0  0  0  0  0  0  0  0  0
  141.7150   71.5180  219.1240 N   0  0  0  0  0  0  0  0  0  0  0  0
  143.0700   71.5320  218.6740 C   0  0  0  0  0  0  0  0  0  0  0  0
  144.0810   71.1110  219.6960 C   0  0  2  0  0  0  0  0  0  0  0  0
  144.2750   72.3370  220.5960 C   0  0  0  0  0  0  0  0  0  0  0  0
  145.4100   73.0170  219.8560 C   0  0  0  0  0  0  0  0  0  0  0  0
  146.3260   71.8910  219.7170 N   0  0  0  0  0  0  0  0  0  0  0  0
  145.4470   70.8390  219.1950 C   0  0  0  0  0  0  0  0  0  0  0  0
  141.4460   73.6410  220.2200 N   0  0  0  0  0  0  0  0  0  0  0  0
  141.0740   74.4170  221.2530 C   0  0  0  0  0  0  0  0  0  0  0  0
  141.2200   75.8460  221.2330 N   0  0  0  0  0  0  0  0  0  0  0  0
  141.8630   76.4800  220.1080 C   0  0  0  0  0  0  0  0  0  0  0  0
  141.4710   77.9360  219.9770 C   0  0  0  0  0  0  0  0  0  0  0  0
  141.5290   78.6490  221.2710 C   0  0  0  0  0  0  0  0  0  0  0  0
  141.9580   79.9740  221.3150 C   0  0  0  0  0  0  0  0  0  0  0  0
  142.0090   80.6320  222.5270 C   0  0  0  0  0  0  0  0  0  0  0  0
  141.6310   79.9540  223.6690 C   0  0  0  0  0  0  0  0  0  0  0  0
  141.2060   78.6300  223.5990 C   0  0  0  0  0  0  0  0  0  0  0  0
  141.1550   77.9790  222.3980 C   0  0  0  0  0  0  0  0  0  0  0  0
  140.6980   76.5770  222.3760 C   0  0  0  0  0  0  0  0  0  0  0  0
  140.5460   73.8120  222.3390 N   0  0  0  0  0  0  0  0  0  0  0  0
  140.5770   71.8850  224.7940 C   0  0  0  0  0  0  0  0  0  0  0  0
  140.0533   67.2698  227.4369 H   0  0  0  0  0  0  0  0  0  0  0  0
  141.5338   69.0960  228.3166 H   0  0  0  0  0  0  0  0  0  0  0  0
  141.7210   71.1954  227.0351 H   0  0  0  0  0  0  0  0  0  0  0  0
  138.8362   67.6090  225.3511 H   0  0  0  0  0  0  0  0  0  0  0  0
  139.3836   69.3441  222.8594 H   0  0  0  0  0  0  0  0  0  0  0  0
  137.8486   69.1838  223.7486 H   0  0  0  0  0  0  0  0  0  0  0  0
  138.0618   71.3978  222.5320 H   0  0  0  0  0  0  0  0  0  0  0  0
  137.8686   71.6150  224.2818 H   0  0  0  0  0  0  0  0  0  0  0  0
  141.0030   70.9280  218.6360 H   0  0  0  0  0  0  0  0  0  0  0  0
  143.1508   70.8514  217.8136 H   0  0  0  0  0  0  0  0  0  0  0  0
  143.3008   72.5786  218.4263 H   0  0  0  0  0  0  0  0  0  0  0  0
  143.6940   70.1840  220.1443 H   0  0  0  0  0  0  0  0  0  0  0  0
  143.3735   72.9663  220.6313 H   0  0  0  0  0  0  0  0  0  0  0  0
  144.4752   72.1128  221.6541 H   0  0  0  0  0  0  0  0  0  0  0  0
  145.0869   73.4045  218.8785 H   0  0  0  0  0  0  0  0  0  0  0  0
  145.8310   73.8996  220.3599 H   0  0  0  0  0  0  0  0  0  0  0  0
  146.5290   71.6010  220.7160 H   0  0  0  0  0  0  0  0  0  0  0  0
  145.4538   70.8554  218.0952 H   0  0  0  0  0  0  0  0  0  0  0  0
  145.7906   69.8477  219.5257 H   0  0  0  0  0  0  0  0  0  0  0  0
  142.9532   76.4163  220.2399 H   0  0  0  0  0  0  0  0  0  0  0  0
  141.5414   75.9582  219.1946 H   0  0  0  0  0  0  0  0  0  0  0  0
  142.1584   78.4258  219.2716 H   0  0  0  0  0  0  0  0  0  0  0  0
  140.4325   77.9748  219.6165 H   0  0  0  0  0  0  0  0  0  0  0  0
  142.2538   80.4916  220.3906 H   0  0  0  0  0  0  0  0  0  0  0  0
  142.3448   81.6780  222.5823 H   0  0  0  0  0  0  0  0  0  0  0  0
  141.6660   80.4645  224.6427 H   0  0  0  0  0  0  0  0  0  0  0  0
  140.9087   78.1033  224.5178 H   0  0  0  0  0  0  0  0  0  0  0  0
  141.0350   76.0803  223.2978 H   0  0  0  0  0  0  0  0  0  0  0  0
  139.6006   76.5812  222.3010 H   0  0  0  0  0  0  0  0  0  0  0  0
  141.6459   72.0395  224.5853 H   0  0  0  0  0  0  0  0  0  0  0  0
  140.2269   72.7045  225.4389 H   0  0  0  0  0  0  0  0  0  0  0  0
  1  2  2  0
  2  3  1  0
  3  4  2  0
  4  5  1  0
  5  6  2  0
  5  7  1  0
  7  8  1  0
  8  9  1  0
  9 10  1  0
 10 11  2  0
 11 12  1  0
 12 13  1  0
 13 14  1  0
 14 15  1  0
 15 16  1  0
 16 17  1  0
 17 18  1  0
 18 19  1  0
 12 20  2  0
 20 21  1  0
 21 22  1  0
 22 23  1  0
 23 24  1  0
 24 25  1  0
 25 26  2  0
 26 27  1  0
 27 28  2  0
 28 29  1  0
 29 30  2  0
 30 31  1  0
 21 32  2  0
  9 33  1  0
  6  1  1  0
 32 10  1  0
 33  4  1  0
 19 15  1  0
 31 22  1  0
 30 25  1  0
  1 34  1  0
  2 35  1  0
  3 36  1  0
  6 37  1  0
  7 38  1  0
  7 39  1  0
  8 40  1  0
  8 41  1  0
 13 42  1  0
 14 43  1  0
 14 44  1  0
 15 45  1  1
 16 46  1  0
 16 47  1  0
 17 48  1  0
 17 49  1  0
 18 50  1  0
 19 51  1  0
 19 52  1  0
 23 53  1  0
 23 54  1  0
 24 55  1  0
 24 56  1  0
 26 57  1  0
 27 58  1  0
 28 59  1  0
 29 60  1  0
 31 61  1  0
 31 62  1  0
 33 63  1  0
 33 64  1  0
M  END
>  <smiles>  (5) 
c1ccc2c(c1)CCN(c1nc(NCC3CCNC3)nc(N3CCc4ccccc4C3)n1)C2

>  <score_type>  (5) 
oracle

>  <origin>  (5) 
autodockgpu

>  <m_score__min__energy>  (5) 
-10.4

>  <m_primary>  (5) 
energy

>  <rmsd>  (5) 
10.792504397482126

>  <m_score__min__rmsd>  (5) 
10.792504397482126

>  <meeko>  (5) 
{"free_energy": -10.34, "intermolecular_energy": -11.83, "internal_energy": -1.01, "cluster_size": 50, "cluster_id": 1, "rank_in_cluster": 12}

>  <energy>  (5) 
-10.39

>  <cluster_rmsd>  (5) 
0.06

>  <cluster>  (5) 
1

$$$$

     RDKit          3D

 64 69  0  0  0  0  0  0  0  0999 V2000
  139.7270   79.9440  223.4140 C   0  0  0  0  0  0  0  0  0  0  0  0
  140.9410   79.9070  222.7400 C   0  0  0  0  0  0  0  0  0  0  0  0
  141.2790   78.7620  222.0740 C   0  0  0  0  0  0  0  0  0  0  0  0
  140.4420   77.6450  222.0580 C   0  0  0  0  0  0  0  0  0  0  0  0
  139.2360   77.6690  222.7240 C   0  0  0  0  0  0  0  0  0  0  0  0
  138.9210   78.8440  223.3880 C   0  0  0  0  0  0  0  0  0  0  0  0
  138.3100   76.5020  222.7350 C   0  0  0  0  0  0  0  0  0  0  0  0
  138.5600   75.7120  221.4660 C   0  0  0  0  0  0  0  0  0  0  0  0
  139.9690   75.4030  221.4510 N   0  0  0  0  0  0  0  0  0  0  0  0
  140.4340   74.0670  221.5850 C   0  0  0  0  0  0  0  0  0  0  0  0
  141.0870   73.4690  220.5620 N   0  0  0  0  0  0  0  0  0  0  0  0
  141.5270   72.2060  220.6870 C   0  0  0  0  0  0  0  0  0  0  0  0
  142.2260   71.5610  219.5980 N   0  0  0  0  0  0  0  0  0  0  0  0
  143.5870   71.1530  219.7410 C   0  0  0  0  0  0  0  0  0  0  0  0
  144.5320   72.2370  220.1640 C   0  0  2  0  0  0  0  0  0  0  0  0
  144.0700   73.4880  219.4090 C   0  0  0  0  0  0  0  0  0  0  0  0
  144.9060   73.3480  218.1520 C   0  0  0  0  0  0  0  0  0  0  0  0
  146.2190   73.1310  218.7490 N   0  0  0  0  0  0  0  0  0  0  0  0
  145.9410   72.0830  219.7370 C   0  0  0  0  0  0  0  0  0  0  0  0
  141.3180   71.5420  221.8240 N   0  0  0  0  0  0  0  0  0  0  0  0
  140.6730   72.1060  222.8590 C   0  0  0  0  0  0  0  0  0  0  0  0
  140.4380   71.4080  224.0930 N   0  0  0  0  0  0  0  0  0  0  0  0
  141.0750   71.8670  225.3040 C   0  0  0  0  0  0  0  0  0  0  0  0
  140.3410   71.4020  226.5430 C   0  0  0  0  0  0  0  0  0  0  0  0
  139.9840   69.9690  226.4760 C   0  0  0  0  0  0  0  0  0  0  0  0
  140.0340   69.1870  227.6280 C   0  0  0  0  0  0  0  0  0  0  0  0
  139.6990   67.8500  227.5570 C   0  0  0  0  0  0  0  0  0  0  0  0
  139.3220   67.3220  226.3380 C   0  0  0  0  0  0  0  0  0  0  0  0
  139.2810   68.1240  225.2010 C   0  0  0  0  0  0  0  0  0  0  0  0
  139.6120   69.4490  225.2720 C   0  0  0  0  0  0  0  0  0  0  0  0
  139.5530   70.2570  224.0390 C   0  0  0  0  0  0  0  0  0  0  0  0
  140.2380   73.3760  222.7150 N   0  0  0  0  0  0  0  0  0  0  0  0
  140.9350   76.4700  221.2960 C   0  0  0  0  0  0  0  0  0  0  0  0
  139.4200   80.8476  223.9610 H   0  0  0  0  0  0  0  0  0  0  0  0
  141.6137   80.7774  222.7421 H   0  0  0  0  0  0  0  0  0  0  0  0
  142.2373   78.7197  221.5357 H   0  0  0  0  0  0  0  0  0  0  0  0
  137.9631   78.8924  223.9266 H   0  0  0  0  0  0  0  0  0  0  0  0
  138.5090   75.8726  223.6149 H   0  0  0  0  0  0  0  0  0  0  0  0
  137.2635   76.8375  222.7834 H   0  0  0  0  0  0  0  0  0  0  0  0
  137.9671   74.7855  221.4714 H   0  0  0  0  0  0  0  0  0  0  0  0
  138.2675   76.2858  220.5743 H   0  0  0  0  0  0  0  0  0  0  0  0
  141.7170   71.3950  218.7000 H   0  0  0  0  0  0  0  0  0  0  0  0
  143.6260   70.3529  220.4948 H   0  0  0  0  0  0  0  0  0  0  0  0
  143.9174   70.8291  218.7430 H   0  0  0  0  0  0  0  0  0  0  0  0
  144.5114   72.2482  221.2638 H   0  0  0  0  0  0  0  0  0  0  0  0
  142.9924   73.4599  219.1898 H   0  0  0  0  0  0  0  0  0  0  0  0
  144.1986   74.4357  219.9524 H   0  0  0  0  0  0  0  0  0  0  0  0
  144.5871   72.4898  217.5423 H   0  0  0  0  0  0  0  0  0  0  0  0
  144.8462   74.1983  217.4567 H   0  0  0  0  0  0  0  0  0  0  0  0
  146.3860   74.0050  219.3250 H   0  0  0  0  0  0  0  0  0  0  0  0
  146.0902   71.0914  219.2849 H   0  0  0  0  0  0  0  0  0  0  0  0
  146.6191   72.1728  220.5985 H   0  0  0  0  0  0  0  0  0  0  0  0
  142.1034   71.4778  225.3336 H   0  0  0  0  0  0  0  0  0  0  0  0
  141.0654   72.9669  225.2966 H   0  0  0  0  0  0  0  0  0  0  0  0
  140.9857   71.5658  227.4191 H   0  0  0  0  0  0  0  0  0  0  0  0
  139.4077   71.9792  226.6191 H   0  0  0  0  0  0  0  0  0  0  0  0
  140.3382   69.6319  228.5869 H   0  0  0  0  0  0  0  0  0  0  0  0
  139.7317   67.2162  228.4555 H   0  0  0  0  0  0  0  0  0  0  0  0
  139.0517   66.2582  226.2648 H   0  0  0  0  0  0  0  0  0  0  0  0
  138.9797   67.6882  224.2370 H   0  0  0  0  0  0  0  0  0  0  0  0
  139.8454   69.6252  223.1873 H   0  0  0  0  0  0  0  0  0  0  0  0
  138.5235   70.6281  223.9280 H   0  0  0  0  0  0  0  0  0  0  0  0
  141.9109   76.1511  221.6907 H   0  0  0  0  0  0  0  0  0  0  0  0
  141.0567   76.7258  220.2331 H   0  0  0  0  0  0  0  0  0  0  0  0
  1  2  2  0
  2  3  1  0
  3  4  2  0
  4  5  1  0
  5  6  2  0
  5  7  1  0
  7  8  1  0
  8  9  1  0
  9 10  1  0
 10 11  2  0
 11 12  1  0
 12 13  1  0
 13 14  1  0
 14 15  1  0
 15 16  1  0
 16 17  1  0
 17 18  1  0
 18 19  1  0
 12 20  2  0
 20 21  1  0
 21 22  1  0
 22 23  1  0
 23 24  1  0
 24 25  1  0
 25 26  2  0
 26 27  1  0
 27 28  2  0
 28 29  1  0
 29 30  2  0
 30 31  1  0
 21 32  2  0
  9 33  1  0
  6  1  1  0
 32 10  1  0
 33  4  1  0
 19 15  1  0
 31 22  1  0
 30 25  1  0
  1 34  1  0
  2 35  1  0
  3 36  1  0
  6 37  1  0
  7 38  1  0
  7 39  1  0
  8 40  1  0
  8 41  1  0
 13 42  1  0
 14 43  1  0
 14 44  1  0
 15 45  1  1
 16 46  1  0
 16 47  1  0
 17 48  1  0
 17 49  1  0
 18 50  1  0
 19 51  1  0
 19 52  1  0
 23 53  1  0
 23 54  1  0
 24 55  1  0
 24 56  1  0
 26 57  1  0
 27 58  1  0
 28 59  1  0
 29 60  1  0
 31 61  1  0
 31 62  1  0
 33 63  1  0
 33 64  1  0
M  END
>  <smiles>  (6) 
c1ccc2c(c1)CCN(c1nc(NCC3CCNC3)nc(N3CCc4ccccc4C3)n1)C2

>  <score_type>  (6) 
oracle

>  <origin>  (6) 
autodockgpu

>  <m_score__min__energy>  (6) 
-10.4

>  <m_primary>  (6) 
energy

>  <rmsd>  (6) 
4.941673981679096

>  <m_score__min__rmsd>  (6) 
4.941673981679096

>  <meeko>  (6) 
{"free_energy": -9.88, "intermolecular_energy": -11.38, "internal_energy": -1.01, "cluster_size": 50, "cluster_id": 1, "rank_in_cluster": 44}

>  <energy>  (6) 
-10.37

>  <cluster_rmsd>  (6) 
0.12

>  <cluster>  (6) 
1

$$$$

     RDKit          3D

 64 69  0  0  0  0  0  0  0  0999 V2000
  139.8650   67.9390  226.7580 C   0  0  0  0  0  0  0  0  0  0  0  0
  140.6870   68.9130  227.3090 C   0  0  0  0  0  0  0  0  0  0  0  0
  140.8330   70.0970  226.6390 C   0  0  0  0  0  0  0  0  0  0  0  0
  140.1800   70.3420  225.4290 C   0  0  0  0  0  0  0  0  0  0  0  0
  139.3620   69.3830  224.8720 C   0  0  0  0  0  0  0  0  0  0  0  0
  139.2350   68.1960  225.5760 C   0  0  0  0  0  0  0  0  0  0  0  0
  138.6460   69.6010  223.5840 C   0  0  0  0  0  0  0  0  0  0  0  0
  138.4260   71.0920  223.4330 C   0  0  0  0  0  0  0  0  0  0  0  0
  139.7250   71.7080  223.5460 N   0  0  0  0  0  0  0  0  0  0  0  0
  140.3350   72.3560  222.4390 C   0  0  0  0  0  0  0  0  0  0  0  0
  140.9180   71.6250  221.4610 N   0  0  0  0  0  0  0  0  0  0  0  0
  141.4950   72.2360  220.4130 C   0  0  0  0  0  0  0  0  0  0  0  0
  142.1200   71.4620  219.3650 N   0  0  0  0  0  0  0  0  0  0  0  0
  143.5350   71.2610  219.3460 C   0  0  0  0  0  0  0  0  0  0  0  0
  144.3430   72.4060  219.8760 C   0  0  2  0  0  0  0  0  0  0  0  0
  144.0720   73.5680  218.9130 C   0  0  0  0  0  0  0  0  0  0  0  0
  145.1870   73.3340  217.9140 C   0  0  0  0  0  0  0  0  0  0  0  0
  146.3180   73.2110  218.8270 N   0  0  0  0  0  0  0  0  0  0  0  0
  145.8140   72.2540  219.8170 C   0  0  0  0  0  0  0  0  0  0  0  0
  141.4910   73.5680  220.3380 N   0  0  0  0  0  0  0  0  0  0  0  0
  140.9190   74.3230  221.2920 C   0  0  0  0  0  0  0  0  0  0  0  0
  140.9030   75.7590  221.2300 N   0  0  0  0  0  0  0  0  0  0  0  0
  140.9940   76.4170  219.9490 C   0  0  0  0  0  0  0  0  0  0  0  0
  140.4390   77.8240  219.9940 C   0  0  0  0  0  0  0  0  0  0  0  0
  140.9210   78.5780  221.1700 C   0  0  0  0  0  0  0  0  0  0  0  0
  141.2000   79.9390  221.0560 C   0  0  0  0  0  0  0  0  0  0  0  0
  141.6500   80.6350  222.1590 C   0  0  0  0  0  0  0  0  0  0  0  0
  141.8130   79.9600  223.3520 C   0  0  0  0  0  0  0  0  0  0  0  0
  141.5280   78.5990  223.4410 C   0  0  0  0  0  0  0  0  0  0  0  0
  141.0820   77.9100  222.3480 C   0  0  0  0  0  0  0  0  0  0  0  0
  140.7950   76.4710  222.4920 C   0  0  0  0  0  0  0  0  0  0  0  0
  140.3450   73.6910  222.3380 N   0  0  0  0  0  0  0  0  0  0  0  0
  140.4280   71.6690  224.8120 C   0  0  0  0  0  0  0  0  0  0  0  0
  139.7240   66.9743  227.2673 H   0  0  0  0  0  0  0  0  0  0  0  0
  141.2084   68.7369  228.2615 H   0  0  0  0  0  0  0  0  0  0  0  0
  141.4819   70.8766  227.0647 H   0  0  0  0  0  0  0  0  0  0  0  0
  138.5864   67.4133  225.1557 H   0  0  0  0  0  0  0  0  0  0  0  0
  139.2536   69.2243  222.7480 H   0  0  0  0  0  0  0  0  0  0  0  0
  137.6855   69.0648  223.5787 H   0  0  0  0  0  0  0  0  0  0  0  0
  137.9838   71.3139  222.4505 H   0  0  0  0  0  0  0  0  0  0  0  0
  137.7355   71.4732  224.1997 H   0  0  0  0  0  0  0  0  0  0  0  0
  141.5190   71.0470  218.6170 H   0  0  0  0  0  0  0  0  0  0  0  0
  143.7619   70.3727  219.9537 H   0  0  0  0  0  0  0  0  0  0  0  0
  143.8161   71.1491  218.2884 H   0  0  0  0  0  0  0  0  0  0  0  0
  144.0558   72.5187  220.9319 H   0  0  0  0  0  0  0  0  0  0  0  0
  143.0795   73.4897  218.4452 H   0  0  0  0  0  0  0  0  0  0  0  0
  144.0616   74.5657  219.3761 H   0  0  0  0  0  0  0  0  0  0  0  0
  145.0287   72.4136  217.3327 H   0  0  0  0  0  0  0  0  0  0  0  0
  145.2931   74.1132  217.1448 H   0  0  0  0  0  0  0  0  0  0  0  0
  146.3370   74.1410  219.3380 H   0  0  0  0  0  0  0  0  0  0  0  0
  146.0735   71.2289  219.5141 H   0  0  0  0  0  0  0  0  0  0  0  0
  146.2625   72.4452  220.8031 H   0  0  0  0  0  0  0  0  0  0  0  0
  142.0508   76.4615  219.6469 H   0  0  0  0  0  0  0  0  0  0  0  0
  140.3979   75.8394  219.2272 H   0  0  0  0  0  0  0  0  0  0  0  0
  140.7475   78.3556  219.0818 H   0  0  0  0  0  0  0  0  0  0  0  0
  139.3436   77.7523  220.0652 H   0  0  0  0  0  0  0  0  0  0  0  0
  141.0624   80.4542  220.0939 H   0  0  0  0  0  0  0  0  0  0  0  0
  141.8750   81.7095  222.0889 H   0  0  0  0  0  0  0  0  0  0  0  0
  142.1710   80.5013  224.2402 H   0  0  0  0  0  0  0  0  0  0  0  0
  141.6630   78.0748  224.3986 H   0  0  0  0  0  0  0  0  0  0  0  0
  141.5109   76.0370  223.2056 H   0  0  0  0  0  0  0  0  0  0  0  0
  139.7598   76.3681  222.8494 H   0  0  0  0  0  0  0  0  0  0  0  0
  141.5063   71.8084  224.6455 H   0  0  0  0  0  0  0  0  0  0  0  0
  140.0721   72.4725  225.4736 H   0  0  0  0  0  0  0  0  0  0  0  0
  1  2  2  0
  2  3  1  0
  3  4  2  0
  4  5  1  0
  5  6  2  0
  5  7  1  0
  7  8  1  0
  8  9  1  0
  9 10  1  0
 10 11  2  0
 11 12  1  0
 12 13  1  0
 13 14  1  0
 14 15  1  0
 15 16  1  0
 16 17  1  0
 17 18  1  0
 18 19  1  0
 12 20  2  0
 20 21  1  0
 21 22  1  0
 22 23  1  0
 23 24  1  0
 24 25  1  0
 25 26  2  0
 26 27  1  0
 27 28  2  0
 28 29  1  0
 29 30  2  0
 30 31  1  0
 21 32  2  0
  9 33  1  0
  6  1  1  0
 32 10  1  0
 33  4  1  0
 19 15  1  0
 31 22  1  0
 30 25  1  0
  1 34  1  0
  2 35  1  0
  3 36  1  0
  6 37  1  0
  7 38  1  0
  7 39  1  0
  8 40  1  0
  8 41  1  0
 13 42  1  0
 14 43  1  0
 14 44  1  0
 15 45  1  1
 16 46  1  0
 16 47  1  0
 17 48  1  0
 17 49  1  0
 18 50  1  0
 19 51  1  0
 19 52  1  0
 23 53  1  0
 23 54  1  0
 24 55  1  0
 24 56  1  0
 26 57  1  0
 27 58  1  0
 28 59  1  0
 29 60  1  0
 31 61  1  0
 31 62  1  0
 33 63  1  0
 33 64  1  0
M  END
>  <smiles>  (7) 
c1ccc2c(c1)CCN(c1nc(NCC3CCNC3)nc(N3CCc4ccccc4C3)n1)C2

>  <score_type>  (7) 
oracle

>  <origin>  (7) 
autodockgpu

>  <m_score__min__energy>  (7) 
-10.4

>  <m_primary>  (7) 
energy

>  <rmsd>  (7) 
10.94578944333399

>  <m_score__min__rmsd>  (7) 
10.94578944333399

>  <meeko>  (7) 
{"free_energy": -10.2, "intermolecular_energy": -11.69, "internal_energy": -1.02, "cluster_size": 50, "cluster_id": 1, "rank_in_cluster": 22}

>  <energy>  (7) 
-10.37

>  <cluster_rmsd>  (7) 
0.14

>  <cluster>  (7) 
1

$$$$

     RDKit          3D

 64 69  0  0  0  0  0  0  0  0999 V2000
  140.4670   79.9680  223.5450 C   0  0  0  0  0  0  0  0  0  0  0  0
  141.6390   79.8310  222.8110 C   0  0  0  0  0  0  0  0  0  0  0  0
  141.8000   78.7070  222.0490 C   0  0  0  0  0  0  0  0  0  0  0  0
  140.8260   77.7090  221.9940 C   0  0  0  0  0  0  0  0  0  0  0  0
  139.6600   77.8330  222.7180 C   0  0  0  0  0  0  0  0  0  0  0  0
  139.5260   78.9830  223.4790 C   0  0  0  0  0  0  0  0  0  0  0  0
  138.5920   76.7940  222.6900 C   0  0  0  0  0  0  0  0  0  0  0  0
  138.6880   76.0800  221.3570 C   0  0  0  0  0  0  0  0  0  0  0  0
  140.0440   75.5980  221.2510 N   0  0  0  0  0  0  0  0  0  0  0  0
  140.3360   74.2080  221.2660 C   0  0  0  0  0  0  0  0  0  0  0  0
  140.8610   73.6130  220.1700 N   0  0  0  0  0  0  0  0  0  0  0  0
  141.1390   72.2980  220.1820 C   0  0  0  0  0  0  0  0  0  0  0  0
  141.7000   71.6550  219.0150 N   0  0  0  0  0  0  0  0  0  0  0  0
  143.0710   71.8450  218.6620 C   0  0  0  0  0  0  0  0  0  0  0  0
  144.0590   71.3870  219.6900 C   0  0  2  0  0  0  0  0  0  0  0  0
  144.1860   72.5570  220.6730 C   0  0  0  0  0  0  0  0  0  0  0  0
  145.3240   73.3150  220.0190 C   0  0  0  0  0  0  0  0  0  0  0  0
  146.2780   72.2250  219.8400 N   0  0  0  0  0  0  0  0  0  0  0  0
  145.4490   71.1860  219.2220 C   0  0  0  0  0  0  0  0  0  0  0  0
  140.8960   71.5800  221.2800 N   0  0  0  0  0  0  0  0  0  0  0  0
  140.3760   72.1410  222.3850 C   0  0  0  0  0  0  0  0  0  0  0  0
  140.1070   71.3850  223.5770 N   0  0  0  0  0  0  0  0  0  0  0  0
  138.9800   70.4840  223.6090 C   0  0  0  0  0  0  0  0  0  0  0  0
  139.1410   69.4130  224.6660 C   0  0  0  0  0  0  0  0  0  0  0  0
  139.5930   69.9670  225.9600 C   0  0  0  0  0  0  0  0  0  0  0  0
  139.1080   69.4320  227.1520 C   0  0  0  0  0  0  0  0  0  0  0  0
  139.5350   69.9550  228.3550 C   0  0  0  0  0  0  0  0  0  0  0  0
  140.4350   71.0020  228.3440 C   0  0  0  0  0  0  0  0  0  0  0  0
  140.9050   71.5200  227.1400 C   0  0  0  0  0  0  0  0  0  0  0  0
  140.4820   71.0010  225.9480 C   0  0  0  0  0  0  0  0  0  0  0  0
  141.0080   71.5840  224.7000 C   0  0  0  0  0  0  0  0  0  0  0  0
  140.1030   73.4630  222.3530 N   0  0  0  0  0  0  0  0  0  0  0  0
  141.1330   76.5440  221.1260 C   0  0  0  0  0  0  0  0  0  0  0  0
  140.3007   80.8578  224.1700 H   0  0  0  0  0  0  0  0  0  0  0  0
  142.4177   80.6073  222.8422 H   0  0  0  0  0  0  0  0  0  0  0  0
  142.7230   78.5861  221.4630 H   0  0  0  0  0  0  0  0  0  0  0  0
  138.6043   79.1093  224.0659 H   0  0  0  0  0  0  0  0  0  0  0  0
  138.7425   76.0781  223.5115 H   0  0  0  0  0  0  0  0  0  0  0  0
  137.6002   77.2536  222.8135 H   0  0  0  0  0  0  0  0  0  0  0  0
  137.9811   75.2379  221.3245 H   0  0  0  0  0  0  0  0  0  0  0  0
  138.4375   76.7537  220.5243 H   0  0  0  0  0  0  0  0  0  0  0  0
  141.0840   71.0450  218.4300 H   0  0  0  0  0  0  0  0  0  0  0  0
  143.2640   71.2898  217.7322 H   0  0  0  0  0  0  0  0  0  0  0  0
  143.2144   72.9309  218.5604 H   0  0  0  0  0  0  0  0  0  0  0  0
  143.6848   70.4225  220.0637 H   0  0  0  0  0  0  0  0  0  0  0  0
  143.2653   73.1574  220.7166 H   0  0  0  0  0  0  0  0  0  0  0  0
  144.3575   72.2700  221.7210 H   0  0  0  0  0  0  0  0  0  0  0  0
  145.0223   73.7566  219.0578 H   0  0  0  0  0  0  0  0  0  0  0  0
  145.7014   74.1741  220.5931 H   0  0  0  0  0  0  0  0  0  0  0  0
  146.4550   71.8760  220.8260 H   0  0  0  0  0  0  0  0  0  0  0  0
  145.4925   71.2735  218.1263 H   0  0  0  0  0  0  0  0  0  0  0  0
  145.8105   70.1854  219.5017 H   0  0  0  0  0  0  0  0  0  0  0  0
  138.0692   71.0619  223.8246 H   0  0  0  0  0  0  0  0  0  0  0  0
  138.9134   69.9878  222.6295 H   0  0  0  0  0  0  0  0  0  0  0  0
  138.1723   68.9132  224.8139 H   0  0  0  0  0  0  0  0  0  0  0  0
  139.9077   68.7062  224.3157 H   0  0  0  0  0  0  0  0  0  0  0  0
  138.3900   68.5988  227.1337 H   0  0  0  0  0  0  0  0  0  0  0  0
  139.1649   69.5451  229.3063 H   0  0  0  0  0  0  0  0  0  0  0  0
  140.7839   71.4308  229.2950 H   0  0  0  0  0  0  0  0  0  0  0  0
  141.6226   72.3537  227.1480 H   0  0  0  0  0  0  0  0  0  0  0  0
  141.1555   72.6639  224.8484 H   0  0  0  0  0  0  0  0  0  0  0  0
  141.9562   71.0782  224.4651 H   0  0  0  0  0  0  0  0  0  0  0  0
  142.0744   76.0752  221.4485 H   0  0  0  0  0  0  0  0  0  0  0  0
  141.2448   76.8642  220.0796 H   0  0  0  0  0  0  0  0  0  0  0  0
  1  2  2  0
  2  3  1  0
  3  4  2  0
  4  5  1  0
  5  6  2  0
  5  7  1  0
  7  8  1  0
  8  9  1  0
  9 10  1  0
 10 11  2  0
 11 12  1  0
 12 13  1  0
 13 14  1  0
 14 15  1  0
 15 16  1  0
 16 17  1  0
 17 18  1  0
 18 19  1  0
 12 20  2  0
 20 21  1  0
 21 22  1  0
 22 23  1  0
 23 24  1  0
 24 25  1  0
 25 26  2  0
 26 27  1  0
 27 28  2  0
 28 29  1  0
 29 30  2  0
 30 31  1  0
 21 32  2  0
  9 33  1  0
  6  1  1  0
 32 10  1  0
 33  4  1  0
 19 15  1  0
 31 22  1  0
 30 25  1  0
  1 34  1  0
  2 35  1  0
  3 36  1  0
  6 37  1  0
  7 38  1  0
  7 39  1  0
  8 40  1  0
  8 41  1  0
 13 42  1  0
 14 43  1  0
 14 44  1  0
 15 45  1  1
 16 46  1  0
 16 47  1  0
 17 48  1  0
 17 49  1  0
 18 50  1  0
 19 51  1  0
 19 52  1  0
 23 53  1  0
 23 54  1  0
 24 55  1  0
 24 56  1  0
 26 57  1  0
 27 58  1  0
 28 59  1  0
 29 60  1  0
 31 61  1  0
 31 62  1  0
 33 63  1  0
 33 64  1  0
M  END
>  <smiles>  (8) 
c1ccc2c(c1)CCN(c1nc(NCC3CCNC3)nc(N3CCc4ccccc4C3)n1)C2

>  <score_type>  (8) 
oracle

>  <origin>  (8) 
autodockgpu

>  <m_score__min__energy>  (8) 
-10.4

>  <m_primary>  (8) 
energy

>  <rmsd>  (8) 
4.998582927711089

>  <m_score__min__rmsd>  (8) 
4.998582927711089

>  <meeko>  (8) 
{"free_energy": -10.22, "intermolecular_energy": -11.71, "internal_energy": -1.07, "cluster_size": 50, "cluster_id": 1, "rank_in_cluster": 20}

>  <energy>  (8) 
-10.35

>  <cluster_rmsd>  (8) 
0.2

>  <cluster>  (8) 
1

$$$$

     RDKit          3D

 64 69  0  0  0  0  0  0  0  0999 V2000
  139.8990   68.1100  226.9610 C   0  0  0  0  0  0  0  0  0  0  0  0
  140.7310   69.0980  227.4710 C   0  0  0  0  0  0  0  0  0  0  0  0
  140.8920   70.2480  226.7500 C   0  0  0  0  0  0  0  0  0  0  0  0
  140.2460   70.4480  225.5290 C   0  0  0  0  0  0  0  0  0  0  0  0
  139.4180   69.4750  225.0120 C   0  0  0  0  0  0  0  0  0  0  0  0
  139.2750   68.3220  225.7660 C   0  0  0  0  0  0  0  0  0  0  0  0
  138.7080   69.6440  223.7130 C   0  0  0  0  0  0  0  0  0  0  0  0
  138.5050   71.1300  223.4960 C   0  0  0  0  0  0  0  0  0  0  0  0
  139.8120   71.7350  223.5860 N   0  0  0  0  0  0  0  0  0  0  0  0
  140.4320   72.3270  222.4530 C   0  0  0  0  0  0  0  0  0  0  0  0
  140.9180   71.5470  221.4610 N   0  0  0  0  0  0  0  0  0  0  0  0
  141.5050   72.1040  220.3880 C   0  0  0  0  0  0  0  0  0  0  0  0
  142.0260   71.2770  219.3230 N   0  0  0  0  0  0  0  0  0  0  0  0
  143.4190   71.2820  219.0070 C   0  0  0  0  0  0  0  0  0  0  0  0
  144.1850   72.4550  219.5400 C   0  0  2  0  0  0  0  0  0  0  0  0
  144.0790   73.5300  218.4520 C   0  0  0  0  0  0  0  0  0  0  0  0
  145.3100   73.1870  217.6370 C   0  0  0  0  0  0  0  0  0  0  0  0
  146.3050   73.1260  218.7010 N   0  0  0  0  0  0  0  0  0  0  0  0
  145.6460   72.2700  219.6930 C   0  0  0  0  0  0  0  0  0  0  0  0
  141.6060   73.4310  220.3040 N   0  0  0  0  0  0  0  0  0  0  0  0
  141.1330   74.2340  221.2720 C   0  0  0  0  0  0  0  0  0  0  0  0
  141.2320   75.6670  221.2010 N   0  0  0  0  0  0  0  0  0  0  0  0
  141.8400   76.2810  220.0460 C   0  0  0  0  0  0  0  0  0  0  0  0
  141.3990   77.7180  219.8700 C   0  0  0  0  0  0  0  0  0  0  0  0
  141.4490   78.4780  221.1380 C   0  0  0  0  0  0  0  0  0  0  0  0
  141.8350   79.8160  221.1300 C   0  0  0  0  0  0  0  0  0  0  0  0
  141.8800   80.5180  222.3170 C   0  0  0  0  0  0  0  0  0  0  0  0
  141.5390   79.8690  223.4870 C   0  0  0  0  0  0  0  0  0  0  0  0
  141.1570   78.5300  223.4690 C   0  0  0  0  0  0  0  0  0  0  0  0
  141.1130   77.8350  222.2920 C   0  0  0  0  0  0  0  0  0  0  0  0
  140.7020   76.4200  222.3250 C   0  0  0  0  0  0  0  0  0  0  0  0
  140.5480   73.6560  222.3430 N   0  0  0  0  0  0  0  0  0  0  0  0
  140.5110   71.7430  224.8540 C   0  0  0  0  0  0  0  0  0  0  0  0
  139.7452   67.1705  227.5121 H   0  0  0  0  0  0  0  0  0  0  0  0
  141.2479   68.9585  228.4319 H   0  0  0  0  0  0  0  0  0  0  0  0
  141.5490   71.0379  227.1430 H   0  0  0  0  0  0  0  0  0  0  0  0
  138.6186   67.5291  225.3781 H   0  0  0  0  0  0  0  0  0  0  0  0
  139.3137   69.2243  222.8963 H   0  0  0  0  0  0  0  0  0  0  0  0
  137.7417   69.1186  223.7279 H   0  0  0  0  0  0  0  0  0  0  0  0
  138.0678   71.3137  222.5035 H   0  0  0  0  0  0  0  0  0  0  0  0
  137.8167   71.5526  224.2427 H   0  0  0  0  0  0  0  0  0  0  0  0
  141.3650   70.6700  218.7860 H   0  0  0  0  0  0  0  0  0  0  0  0
  143.8661   70.3660  219.4206 H   0  0  0  0  0  0  0  0  0  0  0  0
  143.4855   71.3437  217.9107 H   0  0  0  0  0  0  0  0  0  0  0  0
  143.7648   72.6682  220.5340 H   0  0  0  0  0  0  0  0  0  0  0  0
  143.1557   73.4274  217.8629 H   0  0  0  0  0  0  0  0  0  0  0  0
  144.0364   74.5654  218.8208 H   0  0  0  0  0  0  0  0  0  0  0  0
  145.2030   72.2212  217.1215 H   0  0  0  0  0  0  0  0  0  0  0  0
  145.5408   73.8921  216.8249 H   0  0  0  0  0  0  0  0  0  0  0  0
  146.2840   74.0970  219.1270 H   0  0  0  0  0  0  0  0  0  0  0  0
  145.9118   71.2173  219.5165 H   0  0  0  0  0  0  0  0  0  0  0  0
  145.9661   72.5388  220.7105 H   0  0  0  0  0  0  0  0  0  0  0  0
  142.9333   76.2570  220.1652 H   0  0  0  0  0  0  0  0  0  0  0  0
  141.5245   75.7172  219.1557 H   0  0  0  0  0  0  0  0  0  0  0  0
  142.0615   78.2047  219.1391 H   0  0  0  0  0  0  0  0  0  0  0  0
  140.3555   77.7104  219.5222 H   0  0  0  0  0  0  0  0  0  0  0  0
  142.1022   80.3098  220.1840 H   0  0  0  0  0  0  0  0  0  0  0  0
  142.1821   81.5756  222.3309 H   0  0  0  0  0  0  0  0  0  0  0  0
  141.5693   80.4145  224.4418 H   0  0  0  0  0  0  0  0  0  0  0  0
  140.8883   78.0270  224.4096 H   0  0  0  0  0  0  0  0  0  0  0  0
  141.0673   75.9669  223.2584 H   0  0  0  0  0  0  0  0  0  0  0  0
  139.6041   76.3863  222.2658 H   0  0  0  0  0  0  0  0  0  0  0  0
  141.5913   71.8620  224.6845 H   0  0  0  0  0  0  0  0  0  0  0  0
  140.1627   72.5790  225.4784 H   0  0  0  0  0  0  0  0  0  0  0  0
  1  2  2  0
  2  3  1  0
  3  4  2  0
  4  5  1  0
  5  6  2  0
  5  7  1  0
  7  8  1  0
  8  9  1  0
  9 10  1  0
 10 11  2  0
 11 12  1  0
 12 13  1  0
 13 14  1  0
 14 15  1  0
 15 16  1  0
 16 17  1  0
 17 18  1  0
 18 19  1  0
 12 20  2  0
 20 21  1  0
 21 22  1  0
 22 23  1  0
 23 24  1  0
 24 25  1  0
 25 26  2  0
 26 27  1  0
 27 28  2  0
 28 29  1  0
 29 30  2  0
 30 31  1  0
 21 32  2  0
  9 33  1  0
  6  1  1  0
 32 10  1  0
 33  4  1  0
 19 15  1  0
 31 22  1  0
 30 25  1  0
  1 34  1  0
  2 35  1  0
  3 36  1  0
  6 37  1  0
  7 38  1  0
  7 39  1  0
  8 40  1  0
  8 41  1  0
 13 42  1  0
 14 43  1  0
 14 44  1  0
 15 45  1  1
 16 46  1  0
 16 47  1  0
 17 48  1  0
 17 49  1  0
 18 50  1  0
 19 51  1  0
 19 52  1  0
 23 53  1  0
 23 54  1  0
 24 55  1  0
 24 56  1  0
 26 57  1  0
 27 58  1  0
 28 59  1  0
 29 60  1  0
 31 61  1  0
 31 62  1  0
 33 63  1  0
 33 64  1  0
M  END
>  <smiles>  (9) 
c1ccc2c(c1)CCN(c1nc(NCC3CCNC3)nc(N3CCc4ccccc4C3)n1)C2

>  <score_type>  (9) 
oracle

>  <origin>  (9) 
autodockgpu

>  <m_score__min__energy>  (9) 
-10.4

>  <m_primary>  (9) 
energy

>  <rmsd>  (9) 
10.92572729331998

>  <m_score__min__rmsd>  (9) 
10.92572729331998

>  <meeko>  (9) 
{"free_energy": -10.4, "intermolecular_energy": -11.89, "internal_energy": -1.03, "cluster_size": 50, "cluster_id": 1, "rank_in_cluster": 3}

>  <energy>  (9) 
-10.34

>  <cluster_rmsd>  (9) 
0.73

>  <cluster>  (9) 
1

$$$$

     RDKit          3D

 64 69  0  0  0  0  0  0  0  0999 V2000
  140.3480   68.1770  227.6410 C   0  0  0  0  0  0  0  0  0  0  0  0
  141.0010   69.3200  228.0830 C   0  0  0  0  0  0  0  0  0  0  0  0
  141.0050   70.4210  227.2720 C   0  0  0  0  0  0  0  0  0  0  0  0
  140.3760   70.4200  226.0260 C   0  0  0  0  0  0  0  0  0  0  0  0
  139.7250   69.2910  225.5760 C   0  0  0  0  0  0  0  0  0  0  0  0
  139.7370   68.1930  226.4210 C   0  0  0  0  0  0  0  0  0  0  0  0
  139.0390   69.2430  224.2550 C   0  0  0  0  0  0  0  0  0  0  0  0
  138.6170   70.6580  223.9110 C   0  0  0  0  0  0  0  0  0  0  0  0
  139.8110   71.4650  223.9750 N   0  0  0  0  0  0  0  0  0  0  0  0
  140.3680   72.0550  222.8090 C   0  0  0  0  0  0  0  0  0  0  0  0
  140.9120   71.2740  221.8470 N   0  0  0  0  0  0  0  0  0  0  0  0
  141.4390   71.8290  220.7430 C   0  0  0  0  0  0  0  0  0  0  0  0
  142.0220   71.0020  219.7120 N   0  0  0  0  0  0  0  0  0  0  0  0
  143.3960   71.1460  219.3460 C   0  0  0  0  0  0  0  0  0  0  0  0
  144.0360   72.4280  219.7830 C   0  0  2  0  0  0  0  0  0  0  0  0
  143.9440   73.3570  218.5660 C   0  0  0  0  0  0  0  0  0  0  0  0
  145.2550   73.0150  217.8870 C   0  0  0  0  0  0  0  0  0  0  0  0
  146.1650   73.1560  219.0180 N   0  0  0  0  0  0  0  0  0  0  0  0
  145.4890   72.3750  220.0590 C   0  0  0  0  0  0  0  0  0  0  0  0
  141.4240   73.1550  220.5980 N   0  0  0  0  0  0  0  0  0  0  0  0
  140.8910   73.9590  221.5340 C   0  0  0  0  0  0  0  0  0  0  0  0
  140.8650   75.3890  221.3960 N   0  0  0  0  0  0  0  0  0  0  0  0
  141.8930   76.0480  220.6280 C   0  0  0  0  0  0  0  0  0  0  0  0
  141.4490   77.4100  220.1380 C   0  0  0  0  0  0  0  0  0  0  0  0
  140.7960   78.2020  221.2020 C   0  0  0  0  0  0  0  0  0  0  0  0
  140.9970   79.5790  221.2660 C   0  0  0  0  0  0  0  0  0  0  0  0
  140.3840   80.3100  222.2630 C   0  0  0  0  0  0  0  0  0  0  0  0
  139.5840   79.6520  223.1750 C   0  0  0  0  0  0  0  0  0  0  0  0
  139.3990   78.2740  223.0910 C   0  0  0  0  0  0  0  0  0  0  0  0
  140.0060   77.5500  222.1030 C   0  0  0  0  0  0  0  0  0  0  0  0
  139.7790   76.0940  222.0560 C   0  0  0  0  0  0  0  0  0  0  0  0
  140.3670   73.3820  222.6370 N   0  0  0  0  0  0  0  0  0  0  0  0
  140.4590   71.6830  225.2520 C   0  0  0  0  0  0  0  0  0  0  0  0
  140.3236   67.2717  228.2654 H   0  0  0  0  0  0  0  0  0  0  0  0
  141.5029   69.3393  229.0617 H   0  0  0  0  0  0  0  0  0  0  0  0
  141.5183   71.3329  227.6111 H   0  0  0  0  0  0  0  0  0  0  0  0
  139.2230   67.2791  226.0883 H   0  0  0  0  0  0  0  0  0  0  0  0
  139.7274   68.8590  223.4877 H   0  0  0  0  0  0  0  0  0  0  0  0
  138.1650   68.5763  224.2955 H   0  0  0  0  0  0  0  0  0  0  0  0
  138.1886   70.6919  222.8984 H   0  0  0  0  0  0  0  0  0  0  0  0
  137.8488   71.0258  224.6071 H   0  0  0  0  0  0  0  0  0  0  0  0
  141.4210   70.2910  219.2350 H   0  0  0  0  0  0  0  0  0  0  0  0
  143.9579   70.3136  219.7949 H   0  0  0  0  0  0  0  0  0  0  0  0
  143.4229   71.1479  218.2463 H   0  0  0  0  0  0  0  0  0  0  0  0
  143.5251   72.7234  220.7113 H   0  0  0  0  0  0  0  0  0  0  0  0
  143.0786   73.1163  217.9311 H   0  0  0  0  0  0  0  0  0  0  0  0
  143.8037   74.4224  218.8011 H   0  0  0  0  0  0  0  0  0  0  0  0
  145.2539   71.9898  217.4883 H   0  0  0  0  0  0  0  0  0  0  0  0
  145.5011   73.6345  217.0120 H   0  0  0  0  0  0  0  0  0  0  0  0
  146.0450   74.1650  219.3190 H   0  0  0  0  0  0  0  0  0  0  0  0
  145.8384   71.3323  220.0325 H   0  0  0  0  0  0  0  0  0  0  0  0
  145.7090   72.7858  221.0554 H   0  0  0  0  0  0  0  0  0  0  0  0
  142.7847   76.1712  221.2602 H   0  0  0  0  0  0  0  0  0  0  0  0
  142.1122   75.4250  219.7483 H   0  0  0  0  0  0  0  0  0  0  0  0
  142.3300   77.9608  219.7768 H   0  0  0  0  0  0  0  0  0  0  0  0
  140.7148   77.2560  219.3335 H   0  0  0  0  0  0  0  0  0  0  0  0
  141.6397   80.0800  220.5271 H   0  0  0  0  0  0  0  0  0  0  0  0
  140.5304   81.3982  222.3297 H   0  0  0  0  0  0  0  0  0  0  0  0
  139.0881   80.2208  223.9753 H   0  0  0  0  0  0  0  0  0  0  0  0
  138.7590   77.7640  223.8260 H   0  0  0  0  0  0  0  0  0  0  0  0
  139.6858   75.7168  223.0851 H   0  0  0  0  0  0  0  0  0  0  0  0
  138.8602   75.9145  221.4784 H   0  0  0  0  0  0  0  0  0  0  0  0
  141.5128   71.9566  225.0947 H   0  0  0  0  0  0  0  0  0  0  0  0
  139.9654   72.5005  225.7979 H   0  0  0  0  0  0  0  0  0  0  0  0
  1  2  2  0
  2  3  1  0
  3  4  2  0
  4  5  1  0
  5  6  2  0
  5  7  1  0
  7  8  1  0
  8  9  1  0
  9 10  1  0
 10 11  2  0
 11 12  1  0
 12 13  1  0
 13 14  1  0
 14 15  1  0
 15 16  1  0
 16 17  1  0
 17 18  1  0
 18 19  1  0
 12 20  2  0
 20 21  1  0
 21 22  1  0
 22 23  1  0
 23 24  1  0
 24 25  1  0
 25 26  2  0
 26 27  1  0
 27 28  2  0
 28 29  1  0
 29 30  2  0
 30 31  1  0
 21 32  2  0
  9 33  1  0
  6  1  1  0
 32 10  1  0
 33  4  1  0
 19 15  1  0
 31 22  1  0
 30 25  1  0
  1 34  1  0
  2 35  1  0
  3 36  1  0
  6 37  1  0
  7 38  1  0
  7 39  1  0
  8 40  1  0
  8 41  1  0
 13 42  1  0
 14 43  1  0
 14 44  1  0
 15 45  1  1
 16 46  1  0
 16 47  1  0
 17 48  1  0
 17 49  1  0
 18 50  1  0
 19 51  1  0
 19 52  1  0
 23 53  1  0
 23 54  1  0
 24 55  1  0
 24 56  1  0
 26 57  1  0
 27 58  1  0
 28 59  1  0
 29 60  1  0
 31 61  1  0
 31 62  1  0
 33 63  1  0
 33 64  1  0
M  END
>  <smiles>  (10) 
c1ccc2c(c1)CCN(c1nc(NCC3CCNC3)nc(N3CCc4ccccc4C3)n1)C2

>  <score_type>  (10) 
oracle

>  <origin>  (10) 
autodockgpu

>  <m_score__min__energy>  (10) 
-10.4

>  <m_primary>  (10) 
energy

>  <rmsd>  (10) 
11.23929372341215

>  <m_score__min__rmsd>  (10) 
11.23929372341215

>  <meeko>  (10) 
{"free_energy": -9.85, "intermolecular_energy": -11.35, "internal_energy": -1.03, "cluster_size": 50, "cluster_id": 1, "rank_in_cluster": 47}

>  <energy>  (10) 
-10.34

>  <cluster_rmsd>  (10) 
0.73

>  <cluster>  (10) 
1

$$$$

     RDKit          3D

 64 69  0  0  0  0  0  0  0  0999 V2000
  140.5850   79.9270  223.5370 C   0  0  0  0  0  0  0  0  0  0  0  0
  141.7480   79.7800  222.7910 C   0  0  0  0  0  0  0  0  0  0  0  0
  141.8930   78.6540  222.0280 C   0  0  0  0  0  0  0  0  0  0  0  0
  140.9100   77.6640  221.9840 C   0  0  0  0  0  0  0  0  0  0  0  0
  139.7520   77.7980  222.7190 C   0  0  0  0  0  0  0  0  0  0  0  0
  139.6350   78.9500  223.4810 C   0  0  0  0  0  0  0  0  0  0  0  0
  138.6760   76.7680  222.7030 C   0  0  0  0  0  0  0  0  0  0  0  0
  138.7530   76.0520  221.3690 C   0  0  0  0  0  0  0  0  0  0  0  0
  140.1040   75.5590  221.2510 N   0  0  0  0  0  0  0  0  0  0  0  0
  140.3860   74.1670  221.2640 C   0  0  0  0  0  0  0  0  0  0  0  0
  140.8950   73.5670  220.1630 N   0  0  0  0  0  0  0  0  0  0  0  0
  141.1620   72.2500  220.1730 C   0  0  0  0  0  0  0  0  0  0  0  0
  141.7060   71.6020  219.0010 N   0  0  0  0  0  0  0  0  0  0  0  0
  143.0980   71.6890  218.6960 C   0  0  0  0  0  0  0  0  0  0  0  0
  143.8190   72.8300  219.3470 C   0  0  2  0  0  0  0  0  0  0  0  0
  144.1780   73.7840  218.2020 C   0  0  0  0  0  0  0  0  0  0  0  0
  145.5390   73.2290  217.8280 C   0  0  0  0  0  0  0  0  0  0  0  0
  146.1610   73.1850  219.1470 N   0  0  0  0  0  0  0  0  0  0  0  0
  145.1340   72.5160  219.9510 C   0  0  0  0  0  0  0  0  0  0  0  0
  140.9240   71.5350  221.2740 N   0  0  0  0  0  0  0  0  0  0  0  0
  140.4200   72.1000  222.3840 C   0  0  0  0  0  0  0  0  0  0  0  0
  140.1560   71.3480  223.5800 N   0  0  0  0  0  0  0  0  0  0  0  0
  139.0270   70.4500  223.6210 C   0  0  0  0  0  0  0  0  0  0  0  0
  139.1920   69.3800  224.6790 C   0  0  0  0  0  0  0  0  0  0  0  0
  139.6540   69.9360  225.9690 C   0  0  0  0  0  0  0  0  0  0  0  0
  139.1760   69.4040  227.1650 C   0  0  0  0  0  0  0  0  0  0  0  0
  139.6120   69.9290  228.3640 C   0  0  0  0  0  0  0  0  0  0  0  0
  140.5160   70.9720  228.3450 C   0  0  0  0  0  0  0  0  0  0  0  0
  140.9790   71.4870  227.1370 C   0  0  0  0  0  0  0  0  0  0  0  0
  140.5460   70.9670  225.9480 C   0  0  0  0  0  0  0  0  0  0  0  0
  141.0660   71.5460  224.6960 C   0  0  0  0  0  0  0  0  0  0  0  0
  140.1570   73.4250  222.3540 N   0  0  0  0  0  0  0  0  0  0  0  0
  141.1990   76.4970  221.1140 C   0  0  0  0  0  0  0  0  0  0  0  0
  140.4328   80.8182  224.1635 H   0  0  0  0  0  0  0  0  0  0  0  0
  142.5329   80.5503  222.8135 H   0  0  0  0  0  0  0  0  0  0  0  0
  142.8091   78.5252  221.4329 H   0  0  0  0  0  0  0  0  0  0  0  0
  138.7202   79.0844  224.0769 H   0  0  0  0  0  0  0  0  0  0  0  0
  138.8292   76.0516  223.5235 H   0  0  0  0  0  0  0  0  0  0  0  0
  137.6892   77.2354  222.8363 H   0  0  0  0  0  0  0  0  0  0  0  0
  138.0389   75.2157  221.3439 H   0  0  0  0  0  0  0  0  0  0  0  0
  138.4998   76.7268  220.5380 H   0  0  0  0  0  0  0  0  0  0  0  0
  141.0610   71.0640  218.3780 H   0  0  0  0  0  0  0  0  0  0  0  0
  143.5774   70.7533  219.0196 H   0  0  0  0  0  0  0  0  0  0  0  0
  143.1649   71.8618  217.6117 H   0  0  0  0  0  0  0  0  0  0  0  0
  143.1563   73.1930  220.1465 H   0  0  0  0  0  0  0  0  0  0  0  0
  143.4630   73.7122  217.3691 H   0  0  0  0  0  0  0  0  0  0  0  0
  144.1646   74.8526  218.4625 H   0  0  0  0  0  0  0  0  0  0  0  0
  145.4629   72.2281  217.3781 H   0  0  0  0  0  0  0  0  0  0  0  0
  146.0880   73.8125  217.0742 H   0  0  0  0  0  0  0  0  0  0  0  0
  146.1420   74.1940  219.4720 H   0  0  0  0  0  0  0  0  0  0  0  0
  145.3005   71.4287  219.9432 H   0  0  0  0  0  0  0  0  0  0  0  0
  145.1730   72.8625  220.9943 H   0  0  0  0  0  0  0  0  0  0  0  0
  138.1191   71.0306  223.8416 H   0  0  0  0  0  0  0  0  0  0  0  0
  138.9529   69.9523  222.6429 H   0  0  0  0  0  0  0  0  0  0  0  0
  138.2230   68.8830  224.8342 H   0  0  0  0  0  0  0  0  0  0  0  0
  139.9541   68.6701  224.3251 H   0  0  0  0  0  0  0  0  0  0  0  0
  138.4566   68.5719  227.1532 H   0  0  0  0  0  0  0  0  0  0  0  0
  139.2456   69.5235  229.3186 H   0  0  0  0  0  0  0  0  0  0  0  0
  140.8739   71.4002  229.2929 H   0  0  0  0  0  0  0  0  0  0  0  0
  141.6988   72.3188  227.1387 H   0  0  0  0  0  0  0  0  0  0  0  0
  141.2185   72.6256  224.8415 H   0  0  0  0  0  0  0  0  0  0  0  0
  142.0110   71.0370  224.4555 H   0  0  0  0  0  0  0  0  0  0  0  0
  142.1402   76.0213  221.4268 H   0  0  0  0  0  0  0  0  0  0  0  0
  141.3023   76.8158  220.0663 H   0  0  0  0  0  0  0  0  0  0  0  0
  1  2  2  0
  2  3  1  0
  3  4  2  0
  4  5  1  0
  5  6  2  0
  5  7  1  0
  7  8  1  0
  8  9  1  0
  9 10  1  0
 10 11  2  0
 11 12  1  0
 12 13  1  0
 13 14  1  0
 14 15  1  0
 15 16  1  0
 16 17  1  0
 17 18  1  0
 18 19  1  0
 12 20  2  0
 20 21  1  0
 21 22  1  0
 22 23  1  0
 23 24  1  0
 24 25  1  0
 25 26  2  0
 26 27  1  0
 27 28  2  0
 28 29  1  0
 29 30  2  0
 30 31  1  0
 21 32  2  0
  9 33  1  0
  6  1  1  0
 32 10  1  0
 33  4  1  0
 19 15  1  0
 31 22  1  0
 30 25  1  0
  1 34  1  0
  2 35  1  0
  3 36  1  0
  6 37  1  0
  7 38  1  0
  7 39  1  0
  8 40  1  0
  8 41  1  0
 13 42  1  0
 14 43  1  0
 14 44  1  0
 15 45  1  1
 16 46  1  0
 16 47  1  0
 17 48  1  0
 17 49  1  0
 18 50  1  0
 19 51  1  0
 19 52  1  0
 23 53  1  0
 23 54  1  0
 24 55  1  0
 24 56  1  0
 26 57  1  0
 27 58  1  0
 28 59  1  0
 29 60  1  0
 31 61  1  0
 31 62  1  0
 33 63  1  0
 33 64  1  0
M  END
>  <smiles>  (11) 
c1ccc2c(c1)CCN(c1nc(NCC3CCNC3)nc(N3CCc4ccccc4C3)n1)C2

>  <score_type>  (11) 
oracle

>  <origin>  (11) 
autodockgpu

>  <m_score__min__energy>  (11) 
-10.4

>  <m_primary>  (11) 
energy

>  <rmsd>  (11) 
5.002912332876

>  <m_score__min__rmsd>  (11) 
5.002912332876

>  <meeko>  (11) 
{"free_energy": -10.07, "intermolecular_energy": -11.56, "internal_energy": -1.07, "cluster_size": 50, "cluster_id": 1, "rank_in_cluster": 32}

>  <energy>  (11) 
-10.34

>  <cluster_rmsd>  (11) 
0.73

>  <cluster>  (11) 
1

$$$$

     RDKit          3D

 64 69  0  0  0  0  0  0  0  0999 V2000
  140.0920   68.2410  227.0620 C   0  0  0  0  0  0  0  0  0  0  0  0
  140.7280   69.3490  227.6070 C   0  0  0  0  0  0  0  0  0  0  0  0
  140.8280   70.4800  226.8450 C   0  0  0  0  0  0  0  0  0  0  0  0
  140.3120   70.5440  225.5500 C   0  0  0  0  0  0  0  0  0  0  0  0
  139.6790   69.4510  224.9980 C   0  0  0  0  0  0  0  0  0  0  0  0
  139.5930   68.3200  225.7950 C   0  0  0  0  0  0  0  0  0  0  0  0
  139.1120   69.4720  223.6200 C   0  0  0  0  0  0  0  0  0  0  0  0
  138.7530   70.9090  223.3000 C   0  0  0  0  0  0  0  0  0  0  0  0
  139.9540   71.6830  223.5020 N   0  0  0  0  0  0  0  0  0  0  0  0
  140.6240   72.3040  222.4150 C   0  0  0  0  0  0  0  0  0  0  0  0
  141.2100   71.5480  221.4580 N   0  0  0  0  0  0  0  0  0  0  0  0
  141.8450   72.1330  220.4280 C   0  0  0  0  0  0  0  0  0  0  0  0
  142.4730   71.3310  219.4020 N   0  0  0  0  0  0  0  0  0  0  0  0
  143.8510   70.9690  219.4970 C   0  0  0  0  0  0  0  0  0  0  0  0
  144.8130   71.9920  218.9750 C   0  0  2  0  0  0  0  0  0  0  0  0
  145.7860   72.2540  220.1310 C   0  0  0  0  0  0  0  0  0  0  0  0
  145.0580   73.3910  220.8220 C   0  0  0  0  0  0  0  0  0  0  0  0
  144.8170   74.2630  219.6770 N   0  0  0  0  0  0  0  0  0  0  0  0
  144.2540   73.3340  218.6930 C   0  0  0  0  0  0  0  0  0  0  0  0
  141.8970   73.4630  220.3520 N   0  0  0  0  0  0  0  0  0  0  0  0
  141.3250   74.2430  221.2860 C   0  0  0  0  0  0  0  0  0  0  0  0
  141.3690   75.6780  221.2220 N   0  0  0  0  0  0  0  0  0  0  0  0
  141.9920   76.3210  220.0910 C   0  0  0  0  0  0  0  0  0  0  0  0
  141.5000   77.7400  219.9040 C   0  0  0  0  0  0  0  0  0  0  0  0
  141.4740   78.4960  221.1740 C   0  0  0  0  0  0  0  0  0  0  0  0
  141.8050   79.8490  221.1840 C   0  0  0  0  0  0  0  0  0  0  0  0
  141.7790   80.5470  222.3740 C   0  0  0  0  0  0  0  0  0  0  0  0
  141.4220   79.8800  223.5290 C   0  0  0  0  0  0  0  0  0  0  0  0
  141.0950   78.5270  223.4930 C   0  0  0  0  0  0  0  0  0  0  0  0
  141.1220   77.8360  222.3140 C   0  0  0  0  0  0  0  0  0  0  0  0
  140.7670   76.4040  222.3280 C   0  0  0  0  0  0  0  0  0  0  0  0
  140.6920   73.6360  222.3130 N   0  0  0  0  0  0  0  0  0  0  0  0
  140.4910   71.8340  224.8390 C   0  0  0  0  0  0  0  0  0  0  0  0
  139.9921   67.3129  227.6439 H   0  0  0  0  0  0  0  0  0  0  0  0
  141.1409   69.3175  228.6261 H   0  0  0  0  0  0  0  0  0  0  0  0
  141.3294   71.3645  227.2647 H   0  0  0  0  0  0  0  0  0  0  0  0
  139.0921   67.4327  225.3806 H   0  0  0  0  0  0  0  0  0  0  0  0
  139.8575   69.1016  222.9009 H   0  0  0  0  0  0  0  0  0  0  0  0
  138.2240   68.8260  223.5553 H   0  0  0  0  0  0  0  0  0  0  0  0
  138.4167   70.9938  222.2561 H   0  0  0  0  0  0  0  0  0  0  0  0
  137.9344   71.2680  223.9411 H   0  0  0  0  0  0  0  0  0  0  0  0
  141.9000   71.0190  218.5850 H   0  0  0  0  0  0  0  0  0  0  0  0
  144.0845   70.7909  220.5571 H   0  0  0  0  0  0  0  0  0  0  0  0
  143.9784   70.0775  218.8653 H   0  0  0  0  0  0  0  0  0  0  0  0
  145.2106   71.5850  218.0336 H   0  0  0  0  0  0  0  0  0  0  0  0
  145.8905   71.3763  220.7857 H   0  0  0  0  0  0  0  0  0  0  0  0
  146.8203   72.4763  219.8297 H   0  0  0  0  0  0  0  0  0  0  0  0
  144.1186   73.0541  221.2847 H   0  0  0  0  0  0  0  0  0  0  0  0
  145.6057   73.8566  221.6546 H   0  0  0  0  0  0  0  0  0  0  0  0
  145.7890   74.4840  219.3140 H   0  0  0  0  0  0  0  0  0  0  0  0
  143.1580   73.3106  218.7832 H   0  0  0  0  0  0  0  0  0  0  0  0
  144.5082   73.6520  217.6711 H   0  0  0  0  0  0  0  0  0  0  0  0
  143.0805   76.3403  220.2486 H   0  0  0  0  0  0  0  0  0  0  0  0
  141.7309   75.7490  219.1884 H   0  0  0  0  0  0  0  0  0  0  0  0
  142.1679   78.2560  219.1986 H   0  0  0  0  0  0  0  0  0  0  0  0
  140.4704   77.6916  219.5197 H   0  0  0  0  0  0  0  0  0  0  0  0
  142.0852   80.3575  220.2497 H   0  0  0  0  0  0  0  0  0  0  0  0
  142.0381   81.6157  222.4020 H   0  0  0  0  0  0  0  0  0  0  0  0
  141.3957   80.4221  224.4858 H   0  0  0  0  0  0  0  0  0  0  0  0
  140.8124   78.0096  224.4217 H   0  0  0  0  0  0  0  0  0  0  0  0
  141.1152   75.9620  223.2732 H   0  0  0  0  0  0  0  0  0  0  0  0
  139.6743   76.3261  222.2281 H   0  0  0  0  0  0  0  0  0  0  0  0
  141.5603   72.0865  224.7861 H   0  0  0  0  0  0  0  0  0  0  0  0
  139.9690   72.6418  225.3729 H   0  0  0  0  0  0  0  0  0  0  0  0
  1  2  2  0
  2  3  1  0
  3  4  2  0
  4  5  1  0
  5  6  2  0
  5  7  1  0
  7  8  1  0
  8  9  1  0
  9 10  1  0
 10 11  2  0
 11 12  1  0
 12 13  1  0
 13 14  1  0
 14 15  1  0
 15 16  1  0
 16 17  1  0
 17 18  1  0
 18 19  1  0
 12 20  2  0
 20 21  1  0
 21 22  1  0
 22 23  1  0
 23 24  1  0
 24 25  1  0
 25 26  2  0
 26 27  1  0
 27 28  2  0
 28 29  1  0
 29 30  2  0
 30 31  1  0
 21 32  2  0
  9 33  1  0
  6  1  1  0
 32 10  1  0
 33  4  1  0
 19 15  1  0
 31 22  1  0
 30 25  1  0
  1 34  1  0
  2 35  1  0
  3 36  1  0
  6 37  1  0
  7 38  1  0
  7 39  1  0
  8 40  1  0
  8 41  1  0
 13 42  1  0
 14 43  1  0
 14 44  1  0
 15 45  1  6
 16 46  1  0
 16 47  1  0
 17 48  1  0
 17 49  1  0
 18 50  1  0
 19 51  1  0
 19 52  1  0
 23 53  1  0
 23 54  1  0
 24 55  1  0
 24 56  1  0
 26 57  1  0
 27 58  1  0
 28 59  1  0
 29 60  1  0
 31 61  1  0
 31 62  1  0
 33 63  1  0
 33 64  1  0
M  END
>  <smiles>  (12) 
c1ccc2c(c1)CCN(c1nc(NCC3CCNC3)nc(N3CCc4ccccc4C3)n1)C2

>  <score_type>  (12) 
oracle

>  <origin>  (12) 
autodockgpu

>  <m_score__min__energy>  (12) 
-10.4

>  <m_primary>  (12) 
energy

>  <rmsd>  (12) 
10.858125376333826

>  <m_score__min__rmsd>  (12) 
10.858125376333826

>  <meeko>  (12) 
{"free_energy": -9.92, "intermolecular_energy": -11.41, "internal_energy": -1.21, "cluster_size": 50, "cluster_id": 1, "rank_in_cluster": 41}

>  <energy>  (12) 
-10.34

>  <cluster_rmsd>  (12) 
0.71

>  <cluster>  (12) 
1

$$$$

     RDKit          3D

 64 69  0  0  0  0  0  0  0  0999 V2000
  140.1260   67.5670  226.6010 C   0  0  0  0  0  0  0  0  0  0  0  0
  140.7720   68.5910  227.2810 C   0  0  0  0  0  0  0  0  0  0  0  0
  140.7730   69.8410  226.7260 C   0  0  0  0  0  0  0  0  0  0  0  0
  140.1460   70.1050  225.5060 C   0  0  0  0  0  0  0  0  0  0  0  0
  139.5020   69.0970  224.8220 C   0  0  0  0  0  0  0  0  0  0  0  0
  139.5180   67.8430  225.4110 C   0  0  0  0  0  0  0  0  0  0  0  0
  138.8190   69.3320  223.5190 C   0  0  0  0  0  0  0  0  0  0  0  0
  138.3910   70.7850  223.4860 C   0  0  0  0  0  0  0  0  0  0  0  0
  139.5800   71.5650  223.7270 N   0  0  0  0  0  0  0  0  0  0  0  0
  140.1370   72.3940  222.7170 C   0  0  0  0  0  0  0  0  0  0  0  0
  140.8930   71.8530  221.7340 N   0  0  0  0  0  0  0  0  0  0  0  0
  141.4210   72.6360  220.7780 C   0  0  0  0  0  0  0  0  0  0  0  0
  142.2300   72.0640  219.7250 N   0  0  0  0  0  0  0  0  0  0  0  0
  143.5360   71.5540  220.0000 C   0  0  0  0  0  0  0  0  0  0  0  0
  144.5750   72.5950  220.2850 C   0  0  2  0  0  0  0  0  0  0  0  0
  144.1850   73.7990  219.4200 C   0  0  0  0  0  0  0  0  0  0  0  0
  144.9630   73.4680  218.1610 C   0  0  0  0  0  0  0  0  0  0  0  0
  146.2750   73.2070  218.7410 N   0  0  0  0  0  0  0  0  0  0  0  0
  145.9520   72.2880  219.8380 C   0  0  0  0  0  0  0  0  0  0  0  0
  141.1960   73.9500  220.8000 N   0  0  0  0  0  0  0  0  0  0  0  0
  140.4490   74.5190  221.7610 C   0  0  0  0  0  0  0  0  0  0  0  0
  140.1950   75.9330  221.8030 N   0  0  0  0  0  0  0  0  0  0  0  0
  139.1660   76.4960  220.9620 C   0  0  0  0  0  0  0  0  0  0  0  0
  138.6670   77.8240  221.4890 C   0  0  0  0  0  0  0  0  0  0  0  0
  139.7730   78.7200  221.8850 C   0  0  0  0  0  0  0  0  0  0  0  0
  139.6700   80.0920  221.6610 C   0  0  0  0  0  0  0  0  0  0  0  0
  140.7080   80.9210  222.0330 C   0  0  0  0  0  0  0  0  0  0  0  0
  141.8270   80.3650  222.6200 C   0  0  0  0  0  0  0  0  0  0  0  0
  141.9070   78.9920  222.8330 C   0  0  0  0  0  0  0  0  0  0  0  0
  140.8780   78.1700  222.4640 C   0  0  0  0  0  0  0  0  0  0  0  0
  141.0100   76.7220  222.7100 C   0  0  0  0  0  0  0  0  0  0  0  0
  139.9280   73.7160  222.7140 N   0  0  0  0  0  0  0  0  0  0  0  0
  140.2250   71.5060  225.0220 C   0  0  0  0  0  0  0  0  0  0  0  0
  140.1047   66.5483  227.0155 H   0  0  0  0  0  0  0  0  0  0  0  0
  141.2709   68.4014  228.2429 H   0  0  0  0  0  0  0  0  0  0  0  0
  141.2814   70.6608  227.2547 H   0  0  0  0  0  0  0  0  0  0  0  0
  139.0097   67.0199  224.8875 H   0  0  0  0  0  0  0  0  0  0  0  0
  139.5110   69.1252  222.6893 H   0  0  0  0  0  0  0  0  0  0  0  0
  137.9481   68.6686  223.4123 H   0  0  0  0  0  0  0  0  0  0  0  0
  137.9654   71.0340  222.5027 H   0  0  0  0  0  0  0  0  0  0  0  0
  137.6189   70.9907  224.2420 H   0  0  0  0  0  0  0  0  0  0  0  0
  141.8430   72.0290  218.7540 H   0  0  0  0  0  0  0  0  0  0  0  0
  143.4665   70.8924  220.8760 H   0  0  0  0  0  0  0  0  0  0  0  0
  143.8624   71.0358  219.0862 H   0  0  0  0  0  0  0  0  0  0  0  0
  144.5931   72.7159  221.3782 H   0  0  0  0  0  0  0  0  0  0  0  0
  143.1014   73.8366  219.2344 H   0  0  0  0  0  0  0  0  0  0  0  0
  144.4058   74.7823  219.8609 H   0  0  0  0  0  0  0  0  0  0  0  0
  144.5577   72.5817  217.6508 H   0  0  0  0  0  0  0  0  0  0  0  0
  144.9443   74.2468  217.3844 H   0  0  0  0  0  0  0  0  0  0  0  0
  146.5300   74.1180  219.2210 H   0  0  0  0  0  0  0  0  0  0  0  0
  146.0092   71.2476  219.4854 H   0  0  0  0  0  0  0  0  0  0  0  0
  146.6645   72.4092  220.6673 H   0  0  0  0  0  0  0  0  0  0  0  0
  139.5752   76.6458  219.9520 H   0  0  0  0  0  0  0  0  0  0  0  0
  138.3178   75.7957  220.9477 H   0  0  0  0  0  0  0  0  0  0  0  0
  138.0760   78.3171  220.7032 H   0  0  0  0  0  0  0  0  0  0  0  0
  138.0582   77.6245  222.3832 H   0  0  0  0  0  0  0  0  0  0  0  0
  138.7678   80.5105  221.1911 H   0  0  0  0  0  0  0  0  0  0  0  0
  140.6451   82.0062  221.8648 H   0  0  0  0  0  0  0  0  0  0  0  0
  142.6629   81.0130  222.9221 H   0  0  0  0  0  0  0  0  0  0  0  0
  142.8054   78.5643  223.3021 H   0  0  0  0  0  0  0  0  0  0  0  0
  142.0639   76.4354  222.5790 H   0  0  0  0  0  0  0  0  0  0  0  0
  140.6639   76.5215  223.7347 H   0  0  0  0  0  0  0  0  0  0  0  0
  141.2778   71.8110  224.9297 H   0  0  0  0  0  0  0  0  0  0  0  0
  139.7275   72.1852  225.7299 H   0  0  0  0  0  0  0  0  0  0  0  0
  1  2  2  0
  2  3  1  0
  3  4  2  0
  4  5  1  0
  5  6  2  0
  5  7  1  0
  7  8  1  0
  8  9  1  0
  9 10  1  0
 10 11  2  0
 11 12  1  0
 12 13  1  0
 13 14  1  0
 14 15  1  0
 15 16  1  0
 16 17  1  0
 17 18  1  0
 18 19  1  0
 12 20  2  0
 20 21  1  0
 21 22  1  0
 22 23  1  0
 23 24  1  0
 24 25  1  0
 25 26  2  0
 26 27  1  0
 27 28  2  0
 28 29  1  0
 29 30  2  0
 30 31  1  0
 21 32  2  0
  9 33  1  0
  6  1  1  0
 32 10  1  0
 33  4  1  0
 19 15  1  0
 31 22  1  0
 30 25  1  0
  1 34  1  0
  2 35  1  0
  3 36  1  0
  6 37  1  0
  7 38  1  0
  7 39  1  0
  8 40  1  0
  8 41  1  0
 13 42  1  0
 14 43  1  0
 14 44  1  0
 15 45  1  1
 16 46  1  0
 16 47  1  0
 17 48  1  0
 17 49  1  0
 18 50  1  0
 19 51  1  0
 19 52  1  0
 23 53  1  0
 23 54  1  0
 24 55  1  0
 24 56  1  0
 26 57  1  0
 27 58  1  0
 28 59  1  0
 29 60  1  0
 31 61  1  0
 31 62  1  0
 33 63  1  0
 33 64  1  0
M  END
>  <smiles>  (13) 
c1ccc2c(c1)CCN(c1nc(NCC3CCNC3)nc(N3CCc4ccccc4C3)n1)C2

>  <score_type>  (13) 
oracle

>  <origin>  (13) 
autodockgpu

>  <m_score__min__energy>  (13) 
-10.4

>  <m_primary>  (13) 
energy

>  <rmsd>  (13) 
11.128780175418015

>  <m_score__min__rmsd>  (13) 
11.128780175418015

>  <meeko>  (13) 
{"free_energy": -10.0, "intermolecular_energy": -11.49, "internal_energy": -0.99, "cluster_size": 50, "cluster_id": 1, "rank_in_cluster": 35}

>  <energy>  (13) 
-10.33

>  <cluster_rmsd>  (13) 
0.73

>  <cluster>  (13) 
1

$$$$

     RDKit          3D

 64 69  0  0  0  0  0  0  0  0999 V2000
  140.5020   79.9680  223.5540 C   0  0  0  0  0  0  0  0  0  0  0  0
  141.6650   79.8330  222.8070 C   0  0  0  0  0  0  0  0  0  0  0  0
  141.8190   78.7100  222.0430 C   0  0  0  0  0  0  0  0  0  0  0  0
  140.8460   77.7100  221.9990 C   0  0  0  0  0  0  0  0  0  0  0  0
  139.6880   77.8320  222.7370 C   0  0  0  0  0  0  0  0  0  0  0  0
  139.5610   78.9820  223.5000 C   0  0  0  0  0  0  0  0  0  0  0  0
  138.6220   76.7910  222.7220 C   0  0  0  0  0  0  0  0  0  0  0  0
  138.7040   76.0770  221.3870 C   0  0  0  0  0  0  0  0  0  0  0  0
  140.0590   75.5970  221.2660 N   0  0  0  0  0  0  0  0  0  0  0  0
  140.3550   74.2080  221.2780 C   0  0  0  0  0  0  0  0  0  0  0  0
  140.8740   73.6150  220.1780 N   0  0  0  0  0  0  0  0  0  0  0  0
  141.1540   72.3010  220.1870 C   0  0  0  0  0  0  0  0  0  0  0  0
  141.7090   71.6600  219.0160 N   0  0  0  0  0  0  0  0  0  0  0  0
  143.0910   71.8090  218.6850 C   0  0  0  0  0  0  0  0  0  0  0  0
  144.0480   71.4020  219.7640 C   0  0  2  0  0  0  0  0  0  0  0  0
  144.2300   72.6540  220.6300 C   0  0  0  0  0  0  0  0  0  0  0  0
  145.4110   73.2850  219.9180 C   0  0  0  0  0  0  0  0  0  0  0  0
  146.3070   72.1350  219.8560 N   0  0  0  0  0  0  0  0  0  0  0  0
  145.4280   71.0850  219.3320 C   0  0  0  0  0  0  0  0  0  0  0  0
  140.9190   71.5820  221.2850 N   0  0  0  0  0  0  0  0  0  0  0  0
  140.4040   72.1400  222.3940 C   0  0  0  0  0  0  0  0  0  0  0  0
  140.1440   71.3830  223.5870 N   0  0  0  0  0  0  0  0  0  0  0  0
  139.0030   70.5000  223.6350 C   0  0  0  0  0  0  0  0  0  0  0  0
  139.1650   69.4200  224.6830 C   0  0  0  0  0  0  0  0  0  0  0  0
  139.6480   69.9600  225.9720 C   0  0  0  0  0  0  0  0  0  0  0  0
  139.1760   69.4270  227.1690 C   0  0  0  0  0  0  0  0  0  0  0  0
  139.6320   69.9370  228.3670 C   0  0  0  0  0  0  0  0  0  0  0  0
  140.5500   70.9680  228.3450 C   0  0  0  0  0  0  0  0  0  0  0  0
  141.0070   71.4850  227.1360 C   0  0  0  0  0  0  0  0  0  0  0  0
  140.5540   70.9790  225.9490 C   0  0  0  0  0  0  0  0  0  0  0  0
  141.0680   71.5600  224.6940 C   0  0  0  0  0  0  0  0  0  0  0  0
  140.1290   73.4620  222.3650 N   0  0  0  0  0  0  0  0  0  0  0  0
  141.1450   76.5460  221.1280 C   0  0  0  0  0  0  0  0  0  0  0  0
  140.3419   80.8578  224.1806 H   0  0  0  0  0  0  0  0  0  0  0  0
  142.4429   80.6104  222.8296 H   0  0  0  0  0  0  0  0  0  0  0  0
  142.7353   78.5910  221.4462 H   0  0  0  0  0  0  0  0  0  0  0  0
  138.6463   79.1071  224.0980 H   0  0  0  0  0  0  0  0  0  0  0  0
  138.7838   76.0754  223.5416 H   0  0  0  0  0  0  0  0  0  0  0  0
  137.6308   77.2483  222.8576 H   0  0  0  0  0  0  0  0  0  0  0  0
  137.9978   75.2340  221.3621 H   0  0  0  0  0  0  0  0  0  0  0  0
  138.4433   76.7504  220.5572 H   0  0  0  0  0  0  0  0  0  0  0  0
  141.0810   71.0830  218.4120 H   0  0  0  0  0  0  0  0  0  0  0  0
  143.2972   71.1944  217.7963 H   0  0  0  0  0  0  0  0  0  0  0  0
  143.2534   72.8843  218.5196 H   0  0  0  0  0  0  0  0  0  0  0  0
  143.6221   70.4990  220.2258 H   0  0  0  0  0  0  0  0  0  0  0  0
  143.3419   73.3025  220.6046 H   0  0  0  0  0  0  0  0  0  0  0  0
  144.3795   72.4622  221.7028 H   0  0  0  0  0  0  0  0  0  0  0  0
  145.1388   73.6461  218.9152 H   0  0  0  0  0  0  0  0  0  0  0  0
  145.8297   74.1751  220.4104 H   0  0  0  0  0  0  0  0  0  0  0  0
  146.4600   71.8750  220.8720 H   0  0  0  0  0  0  0  0  0  0  0  0
  145.4820   71.0638  218.2335 H   0  0  0  0  0  0  0  0  0  0  0  0
  145.7350   70.0988  219.7102 H   0  0  0  0  0  0  0  0  0  0  0  0
  138.1059   71.0915  223.8704 H   0  0  0  0  0  0  0  0  0  0  0  0
  138.9110   70.0104  222.6543 H   0  0  0  0  0  0  0  0  0  0  0  0
  138.1912   68.9347  224.8449 H   0  0  0  0  0  0  0  0  0  0  0  0
  139.9138   68.7028  224.3157 H   0  0  0  0  0  0  0  0  0  0  0  0
  138.4448   68.6052  227.1593 H   0  0  0  0  0  0  0  0  0  0  0  0
  139.2707   69.5295  229.3227 H   0  0  0  0  0  0  0  0  0  0  0  0
  140.9238   71.3849  229.2918 H   0  0  0  0  0  0  0  0  0  0  0  0
  141.7381   72.3069  227.1354 H   0  0  0  0  0  0  0  0  0  0  0  0
  141.2370   72.6363  224.8454 H   0  0  0  0  0  0  0  0  0  0  0  0
  142.0028   71.0391  224.4394 H   0  0  0  0  0  0  0  0  0  0  0  0
  142.0912   76.0793  221.4394 H   0  0  0  0  0  0  0  0  0  0  0  0
  141.2437   76.8663  220.0803 H   0  0  0  0  0  0  0  0  0  0  0  0
  1  2  2  0
  2  3  1  0
  3  4  2  0
  4  5  1  0
  5  6  2  0
  5  7  1  0
  7  8  1  0
  8  9  1  0
  9 10  1  0
 10 11  2  0
 11 12  1  0
 12 13  1  0
 13 14  1  0
 14 15  1  0
 15 16  1  0
 16 17  1  0
 17 18  1  0
 18 19  1  0
 12 20  2  0
 20 21  1  0
 21 22  1  0
 22 23  1  0
 23 24  1  0
 24 25  1  0
 25 26  2  0
 26 27  1  0
 27 28  2  0
 28 29  1  0
 29 30  2  0
 30 31  1  0
 21 32  2  0
  9 33  1  0
  6  1  1  0
 32 10  1  0
 33  4  1  0
 19 15  1  0
 31 22  1  0
 30 25  1  0
  1 34  1  0
  2 35  1  0
  3 36  1  0
  6 37  1  0
  7 38  1  0
  7 39  1  0
  8 40  1  0
  8 41  1  0
 13 42  1  0
 14 43  1  0
 14 44  1  0
 15 45  1  1
 16 46  1  0
 16 47  1  0
 17 48  1  0
 17 49  1  0
 18 50  1  0
 19 51  1  0
 19 52  1  0
 23 53  1  0
 23 54  1  0
 24 55  1  0
 24 56  1  0
 26 57  1  0
 27 58  1  0
 28 59  1  0
 29 60  1  0
 31 61  1  0
 31 62  1  0
 33 63  1  0
 33 64  1  0
M  END
>  <smiles>  (14) 
c1ccc2c(c1)CCN(c1nc(NCC3CCNC3)nc(N3CCc4ccccc4C3)n1)C2

>  <score_type>  (14) 
oracle

>  <origin>  (14) 
autodockgpu

>  <m_score__min__energy>  (14) 
-10.4

>  <m_primary>  (14) 
energy

>  <rmsd>  (14) 
5.004818278183015

>  <m_score__min__rmsd>  (14) 
5.004818278183015

>  <meeko>  (14) 
{"free_energy": -10.24, "intermolecular_energy": -11.73, "internal_energy": -1.08, "cluster_size": 50, "cluster_id": 1, "rank_in_cluster": 16}

>  <energy>  (14) 
-10.29

>  <cluster_rmsd>  (14) 
0.71

>  <cluster>  (14) 
1

$$$$

     RDKit          3D

 64 69  0  0  0  0  0  0  0  0999 V2000
  140.3190   80.0780  223.4960 C   0  0  0  0  0  0  0  0  0  0  0  0
  141.5110   80.0040  222.7880 C   0  0  0  0  0  0  0  0  0  0  0  0
  141.7610   78.8790  222.0520 C   0  0  0  0  0  0  0  0  0  0  0  0
  140.8560   77.8170  221.9990 C   0  0  0  0  0  0  0  0  0  0  0  0
  139.6700   77.8780  222.6980 C   0  0  0  0  0  0  0  0  0  0  0  0
  139.4450   79.0320  223.4330 C   0  0  0  0  0  0  0  0  0  0  0  0
  138.6730   76.7710  222.6710 C   0  0  0  0  0  0  0  0  0  0  0  0
  138.8430   76.0390  221.3550 C   0  0  0  0  0  0  0  0  0  0  0  0
  140.2290   75.6460  221.2850 N   0  0  0  0  0  0  0  0  0  0  0  0
  140.6120   74.2790  221.3350 C   0  0  0  0  0  0  0  0  0  0  0  0
  141.3240   73.7360  220.3200 N   0  0  0  0  0  0  0  0  0  0  0  0
  141.6880   72.4430  220.3640 C   0  0  0  0  0  0  0  0  0  0  0  0
  142.4480   71.8570  219.2840 N   0  0  0  0  0  0  0  0  0  0  0  0
  143.8190   71.4980  219.4640 C   0  0  0  0  0  0  0  0  0  0  0  0
  144.8050   72.5720  219.1210 C   0  0  2  0  0  0  0  0  0  0  0  0
  145.9960   72.3390  220.0590 C   0  0  0  0  0  0  0  0  0  0  0  0
  145.5680   73.2020  221.2290 C   0  0  0  0  0  0  0  0  0  0  0  0
  145.2510   74.4390  220.5230 N   0  0  0  0  0  0  0  0  0  0  0  0
  144.3980   73.9610  219.4310 C   0  0  0  0  0  0  0  0  0  0  0  0
  141.3440   71.6950  221.4140 N   0  0  0  0  0  0  0  0  0  0  0  0
  140.6370   72.2030  222.4380 C   0  0  0  0  0  0  0  0  0  0  0  0
  140.2570   71.4140  223.5770 N   0  0  0  0  0  0  0  0  0  0  0  0
  139.0840   70.5770  223.5030 C   0  0  0  0  0  0  0  0  0  0  0  0
  139.1240   69.4540  224.5180 C   0  0  0  0  0  0  0  0  0  0  0  0
  139.5270   69.9270  225.8590 C   0  0  0  0  0  0  0  0  0  0  0  0
  138.9440   69.3700  226.9960 C   0  0  0  0  0  0  0  0  0  0  0  0
  139.3250   69.8170  228.2440 C   0  0  0  0  0  0  0  0  0  0  0  0
  140.2790   70.8110  228.3320 C   0  0  0  0  0  0  0  0  0  0  0  0
  140.8470   71.3530  227.1820 C   0  0  0  0  0  0  0  0  0  0  0  0
  140.4690   70.9090  225.9450 C   0  0  0  0  0  0  0  0  0  0  0  0
  141.0990   71.5140  224.7570 C   0  0  0  0  0  0  0  0  0  0  0  0
  140.2810   73.5040  222.3750 N   0  0  0  0  0  0  0  0  0  0  0  0
  141.2560   76.6590  221.1610 C   0  0  0  0  0  0  0  0  0  0  0  0
  140.0826   80.9671  224.0991 H   0  0  0  0  0  0  0  0  0  0  0  0
  142.2366   80.8302  222.8184 H   0  0  0  0  0  0  0  0  0  0  0  0
  142.7015   78.8087  221.4858 H   0  0  0  0  0  0  0  0  0  0  0  0
  138.5052   79.1089  223.9995 H   0  0  0  0  0  0  0  0  0  0  0  0
  138.8529   76.0826  223.5099 H   0  0  0  0  0  0  0  0  0  0  0  0
  137.6510   77.1667  222.7658 H   0  0  0  0  0  0  0  0  0  0  0  0
  138.1938   75.1515  221.3265 H   0  0  0  0  0  0  0  0  0  0  0  0
  138.5658   76.6783  220.5038 H   0  0  0  0  0  0  0  0  0  0  0  0
  141.9780   71.6980  218.3640 H   0  0  0  0  0  0  0  0  0  0  0  0
  143.9646   71.2257  220.5198 H   0  0  0  0  0  0  0  0  0  0  0  0
  144.0135   70.6686  218.7681 H   0  0  0  0  0  0  0  0  0  0  0  0
  144.9671   72.5002  218.0354 H   0  0  0  0  0  0  0  0  0  0  0  0
  146.0928   71.2809  220.3437 H   0  0  0  0  0  0  0  0  0  0  0  0
  146.9807   72.5830  219.6337 H   0  0  0  0  0  0  0  0  0  0  0  0
  144.6882   72.7873  221.7428 H   0  0  0  0  0  0  0  0  0  0  0  0
  146.3146   73.3022  222.0306 H   0  0  0  0  0  0  0  0  0  0  0  0
  146.1630   74.7070  220.0540 H   0  0  0  0  0  0  0  0  0  0  0  0
  143.3431   73.9823  219.7421 H   0  0  0  0  0  0  0  0  0  0  0  0
  144.5085   74.6031  218.5447 H   0  0  0  0  0  0  0  0  0  0  0  0
  138.1940   71.1952  223.6921 H   0  0  0  0  0  0  0  0  0  0  0  0
  139.0500   70.1273  222.4997 H   0  0  0  0  0  0  0  0  0  0  0  0
  138.1229   69.0035  224.5874 H   0  0  0  0  0  0  0  0  0  0  0  0
  139.8708   68.7204  224.1804 H   0  0  0  0  0  0  0  0  0  0  0  0
  138.1853   68.5794  226.8987 H   0  0  0  0  0  0  0  0  0  0  0  0
  138.8767   69.3892  229.1529 H   0  0  0  0  0  0  0  0  0  0  0  0
  140.5934   71.1783  229.3200 H   0  0  0  0  0  0  0  0  0  0  0  0
  141.6058   72.1446  227.2692 H   0  0  0  0  0  0  0  0  0  0  0  0
  141.2953   72.5766  224.9628 H   0  0  0  0  0  0  0  0  0  0  0  0
  142.0309   70.9662  224.5537 H   0  0  0  0  0  0  0  0  0  0  0  0
  142.2195   76.2595  221.5104 H   0  0  0  0  0  0  0  0  0  0  0  0
  141.3677   76.9658  220.1106 H   0  0  0  0  0  0  0  0  0  0  0  0
  1  2  2  0
  2  3  1  0
  3  4  2  0
  4  5  1  0
  5  6  2  0
  5  7  1  0
  7  8  1  0
  8  9  1  0
  9 10  1  0
 10 11  2  0
 11 12  1  0
 12 13  1  0
 13 14  1  0
 14 15  1  0
 15 16  1  0
 16 17  1  0
 17 18  1  0
 18 19  1  0
 12 20  2  0
 20 21  1  0
 21 22  1  0
 22 23  1  0
 23 24  1  0
 24 25  1  0
 25 26  2  0
 26 27  1  0
 27 28  2  0
 28 29  1  0
 29 30  2  0
 30 31  1  0
 21 32  2  0
  9 33  1  0
  6  1  1  0
 32 10  1  0
 33  4  1  0
 19 15  1  0
 31 22  1  0
 30 25  1  0
  1 34  1  0
  2 35  1  0
  3 36  1  0
  6 37  1  0
  7 38  1  0
  7 39  1  0
  8 40  1  0
  8 41  1  0
 13 42  1  0
 14 43  1  0
 14 44  1  0
 15 45  1  6
 16 46  1  0
 16 47  1  0
 17 48  1  0
 17 49  1  0
 18 50  1  0
 19 51  1  0
 19 52  1  0
 23 53  1  0
 23 54  1  0
 24 55  1  0
 24 56  1  0
 26 57  1  0
 27 58  1  0
 28 59  1  0
 29 60  1  0
 31 61  1  0
 31 62  1  0
 33 63  1  0
 33 64  1  0
M  END
>  <smiles>  (15) 
c1ccc2c(c1)CCN(c1nc(NCC3CCNC3)nc(N3CCc4ccccc4C3)n1)C2

>  <score_type>  (15) 
oracle

>  <origin>  (15) 
autodockgpu

>  <m_score__min__energy>  (15) 
-10.4

>  <m_primary>  (15) 
energy

>  <rmsd>  (15) 
4.93936740528593

>  <m_score__min__rmsd>  (15) 
4.93936740528593

>  <meeko>  (15) 
{"free_energy": -9.88, "intermolecular_energy": -11.37, "internal_energy": -1.14, "cluster_size": 50, "cluster_id": 1, "rank_in_cluster": 45}

>  <energy>  (15) 
-10.28

>  <cluster_rmsd>  (15) 
0.8

>  <cluster>  (15) 
1

$$$$

     RDKit          3D

 64 69  0  0  0  0  0  0  0  0999 V2000
  140.0570   67.6230  226.7410 C   0  0  0  0  0  0  0  0  0  0  0  0
  140.7390   68.6430  227.3920 C   0  0  0  0  0  0  0  0  0  0  0  0
  140.7670   69.8810  226.8110 C   0  0  0  0  0  0  0  0  0  0  0  0
  140.1320   70.1360  225.5940 C   0  0  0  0  0  0  0  0  0  0  0  0
  139.4520   69.1330  224.9390 C   0  0  0  0  0  0  0  0  0  0  0  0
  139.4420   67.8910  225.5530 C   0  0  0  0  0  0  0  0  0  0  0  0
  138.7600   69.3590  223.6390 C   0  0  0  0  0  0  0  0  0  0  0  0
  138.3700   70.8230  223.5810 C   0  0  0  0  0  0  0  0  0  0  0  0
  139.5840   71.5740  223.7910 N   0  0  0  0  0  0  0  0  0  0  0  0
  140.1500   72.3670  222.7580 C   0  0  0  0  0  0  0  0  0  0  0  0
  140.9110   71.7910  221.8000 N   0  0  0  0  0  0  0  0  0  0  0  0
  141.4480   72.5390  220.8210 C   0  0  0  0  0  0  0  0  0  0  0  0
  142.2630   71.9300  219.7940 N   0  0  0  0  0  0  0  0  0  0  0  0
  143.5780   71.4550  220.0880 C   0  0  0  0  0  0  0  0  0  0  0  0
  144.5810   72.5230  220.4010 C   0  0  2  0  0  0  0  0  0  0  0  0
  144.1580   73.7300  219.5560 C   0  0  0  0  0  0  0  0  0  0  0  0
  144.9550   73.4490  218.2970 C   0  0  0  0  0  0  0  0  0  0  0  0
  146.2710   73.2190  218.8820 N   0  0  0  0  0  0  0  0  0  0  0  0
  145.9710   72.2690  219.9580 C   0  0  0  0  0  0  0  0  0  0  0  0
  141.2270   73.8540  220.7960 N   0  0  0  0  0  0  0  0  0  0  0  0
  140.4750   74.4570  221.7320 C   0  0  0  0  0  0  0  0  0  0  0  0
  140.2240   75.8720  221.7230 N   0  0  0  0  0  0  0  0  0  0  0  0
  139.3060   76.4260  220.7570 C   0  0  0  0  0  0  0  0  0  0  0  0
  138.7540   77.7640  221.2020 C   0  0  0  0  0  0  0  0  0  0  0  0
  139.8090   78.6620  221.7160 C   0  0  0  0  0  0  0  0  0  0  0  0
  139.7400   80.0300  221.4620 C   0  0  0  0  0  0  0  0  0  0  0  0
  140.7290   80.8620  221.9450 C   0  0  0  0  0  0  0  0  0  0  0  0
  141.7670   80.3110  222.6700 C   0  0  0  0  0  0  0  0  0  0  0  0
  141.8140   78.9400  222.9100 C   0  0  0  0  0  0  0  0  0  0  0  0
  140.8340   78.1160  222.4310 C   0  0  0  0  0  0  0  0  0  0  0  0
  140.9280   76.6720  222.7120 C   0  0  0  0  0  0  0  0  0  0  0  0
  139.9450   73.6890  222.7080 N   0  0  0  0  0  0  0  0  0  0  0  0
  140.2430   71.5240  225.0800 C   0  0  0  0  0  0  0  0  0  0  0  0
  140.0134   66.6140  227.1769 H   0  0  0  0  0  0  0  0  0  0  0  0
  141.2444   68.4596  228.3517 H   0  0  0  0  0  0  0  0  0  0  0  0
  141.3041   70.6974  227.3160 H   0  0  0  0  0  0  0  0  0  0  0  0
  138.9057   67.0714  225.0523 H   0  0  0  0  0  0  0  0  0  0  0  0
  139.4364   69.1169  222.8060 H   0  0  0  0  0  0  0  0  0  0  0  0
  137.8708   68.7168  223.5557 H   0  0  0  0  0  0  0  0  0  0  0  0
  137.9385   71.0636  222.5982 H   0  0  0  0  0  0  0  0  0  0  0  0
  137.6131   71.0656  224.3414 H   0  0  0  0  0  0  0  0  0  0  0  0
  141.8730   71.8400  218.8280 H   0  0  0  0  0  0  0  0  0  0  0  0
  143.5121   70.7834  220.9567 H   0  0  0  0  0  0  0  0  0  0  0  0
  143.9356   70.9548  219.1759 H   0  0  0  0  0  0  0  0  0  0  0  0
  144.5880   72.6233  221.4964 H   0  0  0  0  0  0  0  0  0  0  0  0
  143.0751   73.7359  219.3629 H   0  0  0  0  0  0  0  0  0  0  0  0
  144.3435   74.7113  220.0172 H   0  0  0  0  0  0  0  0  0  0  0  0
  144.5821   72.5603  217.7667 H   0  0  0  0  0  0  0  0  0  0  0  0
  144.9166   74.2419  217.5355 H   0  0  0  0  0  0  0  0  0  0  0  0
  146.4930   74.1280  219.3800 H   0  0  0  0  0  0  0  0  0  0  0  0
  146.0641   71.2381  219.5857 H   0  0  0  0  0  0  0  0  0  0  0  0
  146.6738   72.3964  220.7946 H   0  0  0  0  0  0  0  0  0  0  0  0
  139.8339   76.5597  219.8013 H   0  0  0  0  0  0  0  0  0  0  0  0
  138.4621   75.7284  220.6510 H   0  0  0  0  0  0  0  0  0  0  0  0
  138.2644   78.2479  220.3440 H   0  0  0  0  0  0  0  0  0  0  0  0
  138.0411   77.5794  222.0191 H   0  0  0  0  0  0  0  0  0  0  0  0
  138.9030   80.4439  220.8805 H   0  0  0  0  0  0  0  0  0  0  0  0
  140.6913   81.9450  221.7559 H   0  0  0  0  0  0  0  0  0  0  0  0
  142.5637   80.9606  223.0614 H   0  0  0  0  0  0  0  0  0  0  0  0
  142.6471   78.5164  223.4901 H   0  0  0  0  0  0  0  0  0  0  0  0
  141.9885   76.3800  222.7138 H   0  0  0  0  0  0  0  0  0  0  0  0
  140.4598   76.4876  223.6901 H   0  0  0  0  0  0  0  0  0  0  0  0
  141.3025   71.7982  224.9693 H   0  0  0  0  0  0  0  0  0  0  0  0
  139.7725   72.2309  225.7792 H   0  0  0  0  0  0  0  0  0  0  0  0
  1  2  2  0
  2  3  1  0
  3  4  2  0
  4  5  1  0
  5  6  2  0
  5  7  1  0
  7  8  1  0
  8  9  1  0
  9 10  1  0
 10 11  2  0
 11 12  1  0
 12 13  1  0
 13 14  1  0
 14 15  1  0
 15 16  1  0
 16 17  1  0
 17 18  1  0
 18 19  1  0
 12 20  2  0
 20 21  1  0
 21 22  1  0
 22 23  1  0
 23 24  1  0
 24 25  1  0
 25 26  2  0
 26 27  1  0
 27 28  2  0
 28 29  1  0
 29 30  2  0
 30 31  1  0
 21 32  2  0
  9 33  1  0
  6  1  1  0
 32 10  1  0
 33  4  1  0
 19 15  1  0
 31 22  1  0
 30 25  1  0
  1 34  1  0
  2 35  1  0
  3 36  1  0
  6 37  1  0
  7 38  1  0
  7 39  1  0
  8 40  1  0
  8 41  1  0
 13 42  1  0
 14 43  1  0
 14 44  1  0
 15 45  1  1
 16 46  1  0
 16 47  1  0
 17 48  1  0
 17 49  1  0
 18 50  1  0
 19 51  1  0
 19 52  1  0
 23 53  1  0
 23 54  1  0
 24 55  1  0
 24 56  1  0
 26 57  1  0
 27 58  1  0
 28 59  1  0
 29 60  1  0
 31 61  1  0
 31 62  1  0
 33 63  1  0
 33 64  1  0
M  END
>  <smiles>  (16) 
c1ccc2c(c1)CCN(c1nc(NCC3CCNC3)nc(N3CCc4ccccc4C3)n1)C2

>  <score_type>  (16) 
oracle

>  <origin>  (16) 
autodockgpu

>  <m_score__min__energy>  (16) 
-10.4

>  <m_primary>  (16) 
energy

>  <rmsd>  (16) 
11.159364202094705

>  <m_score__min__rmsd>  (16) 
11.159364202094705

>  <meeko>  (16) 
{"free_energy": -10.0, "intermolecular_energy": -11.49, "internal_energy": -0.99, "cluster_size": 50, "cluster_id": 1, "rank_in_cluster": 34}

>  <energy>  (16) 
-10.24

>  <cluster_rmsd>  (16) 
1.22

>  <cluster>  (16) 
1

$$$$

     RDKit          3D

 64 69  0  0  0  0  0  0  0  0999 V2000
  139.9510   67.6490  226.8550 C   0  0  0  0  0  0  0  0  0  0  0  0
  140.6770   68.6570  227.4770 C   0  0  0  0  0  0  0  0  0  0  0  0
  140.7340   69.8840  226.8750 C   0  0  0  0  0  0  0  0  0  0  0  0
  140.0870   70.1400  225.6650 C   0  0  0  0  0  0  0  0  0  0  0  0
  139.3640   69.1480  225.0380 C   0  0  0  0  0  0  0  0  0  0  0  0
  139.3250   67.9170  225.6730 C   0  0  0  0  0  0  0  0  0  0  0  0
  138.6570   69.3750  223.7460 C   0  0  0  0  0  0  0  0  0  0  0  0
  138.3140   70.8490  223.6700 C   0  0  0  0  0  0  0  0  0  0  0  0
  139.5540   71.5650  223.8470 N   0  0  0  0  0  0  0  0  0  0  0  0
  140.1270   72.3220  222.7910 C   0  0  0  0  0  0  0  0  0  0  0  0
  140.8750   71.7100  221.8450 N   0  0  0  0  0  0  0  0  0  0  0  0
  141.4190   72.4240  220.8450 C   0  0  0  0  0  0  0  0  0  0  0  0
  142.2190   71.7760  219.8300 N   0  0  0  0  0  0  0  0  0  0  0  0
  143.6100   71.5300  220.0420 C   0  0  0  0  0  0  0  0  0  0  0  0
  144.4310   72.7480  220.3360 C   0  0  2  0  0  0  0  0  0  0  0  0
  144.0890   73.7410  219.2190 C   0  0  0  0  0  0  0  0  0  0  0  0
  145.1490   73.3570  218.2060 C   0  0  0  0  0  0  0  0  0  0  0  0
  146.3320   73.3860  219.0590 N   0  0  0  0  0  0  0  0  0  0  0  0
  145.8990   72.5950  220.2150 C   0  0  0  0  0  0  0  0  0  0  0  0
  141.2170   73.7410  220.7870 N   0  0  0  0  0  0  0  0  0  0  0  0
  140.4790   74.3800  221.7100 C   0  0  0  0  0  0  0  0  0  0  0  0
  140.2500   75.7980  221.6660 N   0  0  0  0  0  0  0  0  0  0  0  0
  139.4480   76.3570  220.6040 C   0  0  0  0  0  0  0  0  0  0  0  0
  138.8700   77.7040  220.9790 C   0  0  0  0  0  0  0  0  0  0  0  0
  139.8760   78.5930  221.5970 C   0  0  0  0  0  0  0  0  0  0  0  0
  139.8530   79.9600  221.3300 C   0  0  0  0  0  0  0  0  0  0  0  0
  140.7970   80.7820  221.9110 C   0  0  0  0  0  0  0  0  0  0  0  0
  141.7430   80.2230  222.7460 C   0  0  0  0  0  0  0  0  0  0  0  0
  141.7460   78.8540  222.9980 C   0  0  0  0  0  0  0  0  0  0  0  0
  140.8110   78.0390  222.4220 C   0  0  0  0  0  0  0  0  0  0  0  0
  140.8550   76.5960  222.7190 C   0  0  0  0  0  0  0  0  0  0  0  0
  139.9420   73.6450  222.7080 N   0  0  0  0  0  0  0  0  0  0  0  0
  140.2330   71.5150  225.1250 C   0  0  0  0  0  0  0  0  0  0  0  0
  139.8820   66.6494  227.3090 H   0  0  0  0  0  0  0  0  0  0  0  0
  141.1935   68.4729  228.4306 H   0  0  0  0  0  0  0  0  0  0  0  0
  141.3052   70.6908  227.3576 H   0  0  0  0  0  0  0  0  0  0  0  0
  138.7547   67.1069  225.1950 H   0  0  0  0  0  0  0  0  0  0  0  0
  139.3105   69.0973  222.9059 H   0  0  0  0  0  0  0  0  0  0  0  0
  137.7462   68.7608  223.6885 H   0  0  0  0  0  0  0  0  0  0  0  0
  137.8735   71.0872  222.6906 H   0  0  0  0  0  0  0  0  0  0  0  0
  137.5790   71.1278  224.4395 H   0  0  0  0  0  0  0  0  0  0  0  0
  141.7620   71.4880  218.9350 H   0  0  0  0  0  0  0  0  0  0  0  0
  143.7086   70.8388  220.8920 H   0  0  0  0  0  0  0  0  0  0  0  0
  143.9968   71.1193  219.0977 H   0  0  0  0  0  0  0  0  0  0  0  0
  144.2036   73.0256  221.3758 H   0  0  0  0  0  0  0  0  0  0  0  0
  143.0727   73.5844  218.8283 H   0  0  0  0  0  0  0  0  0  0  0  0
  144.0905   74.7995  219.5183 H   0  0  0  0  0  0  0  0  0  0  0  0
  144.9710   72.3553  217.7878 H   0  0  0  0  0  0  0  0  0  0  0  0
  145.2000   74.0050  217.3186 H   0  0  0  0  0  0  0  0  0  0  0  0
  146.3660   74.3850  219.4150 H   0  0  0  0  0  0  0  0  0  0  0  0
  146.1547   71.5361  220.0622 H   0  0  0  0  0  0  0  0  0  0  0  0
  146.4008   72.9412  221.1306 H   0  0  0  0  0  0  0  0  0  0  0  0
  140.0769   76.4770  219.7096 H   0  0  0  0  0  0  0  0  0  0  0  0
  138.6109   75.6695  220.4126 H   0  0  0  0  0  0  0  0  0  0  0  0
  138.4810   78.1874  220.0707 H   0  0  0  0  0  0  0  0  0  0  0  0
  138.0719   77.5344  221.7168 H   0  0  0  0  0  0  0  0  0  0  0  0
  139.0880   80.3811  220.6610 H   0  0  0  0  0  0  0  0  0  0  0  0
  140.7955   81.8639  221.7120 H   0  0  0  0  0  0  0  0  0  0  0  0
  142.5018   80.8653  223.2168 H   0  0  0  0  0  0  0  0  0  0  0  0
  142.5068   78.4241  223.6661 H   0  0  0  0  0  0  0  0  0  0  0  0
  141.9053   76.2906  222.8353 H   0  0  0  0  0  0  0  0  0  0  0  0
  140.2824   76.4247  223.6425 H   0  0  0  0  0  0  0  0  0  0  0  0
  141.2986   71.7531  224.9918 H   0  0  0  0  0  0  0  0  0  0  0  0
  139.7971   72.2481  225.8197 H   0  0  0  0  0  0  0  0  0  0  0  0
  1  2  2  0
  2  3  1  0
  3  4  2  0
  4  5  1  0
  5  6  2  0
  5  7  1  0
  7  8  1  0
  8  9  1  0
  9 10  1  0
 10 11  2  0
 11 12  1  0
 12 13  1  0
 13 14  1  0
 14 15  1  0
 15 16  1  0
 16 17  1  0
 17 18  1  0
 18 19  1  0
 12 20  2  0
 20 21  1  0
 21 22  1  0
 22 23  1  0
 23 24  1  0
 24 25  1  0
 25 26  2  0
 26 27  1  0
 27 28  2  0
 28 29  1  0
 29 30  2  0
 30 31  1  0
 21 32  2  0
  9 33  1  0
  6  1  1  0
 32 10  1  0
 33  4  1  0
 19 15  1  0
 31 22  1  0
 30 25  1  0
  1 34  1  0
  2 35  1  0
  3 36  1  0
  6 37  1  0
  7 38  1  0
  7 39  1  0
  8 40  1  0
  8 41  1  0
 13 42  1  0
 14 43  1  0
 14 44  1  0
 15 45  1  1
 16 46  1  0
 16 47  1  0
 17 48  1  0
 17 49  1  0
 18 50  1  0
 19 51  1  0
 19 52  1  0
 23 53  1  0
 23 54  1  0
 24 55  1  0
 24 56  1  0
 26 57  1  0
 27 58  1  0
 28 59  1  0
 29 60  1  0
 31 61  1  0
 31 62  1  0
 33 63  1  0
 33 64  1  0
M  END
>  <smiles>  (17) 
c1ccc2c(c1)CCN(c1nc(NCC3CCNC3)nc(N3CCc4ccccc4C3)n1)C2

>  <score_type>  (17) 
oracle

>  <origin>  (17) 
autodockgpu

>  <m_score__min__energy>  (17) 
-10.4

>  <m_primary>  (17) 
energy

>  <rmsd>  (17) 
11.205321834027826

>  <m_score__min__rmsd>  (17) 
11.205321834027826

>  <meeko>  (17) 
{"free_energy": -10.02, "intermolecular_energy": -11.51, "internal_energy": -1.01, "cluster_size": 50, "cluster_id": 1, "rank_in_cluster": 33}

>  <energy>  (17) 
-10.24

>  <cluster_rmsd>  (17) 
1.2

>  <cluster>  (17) 
1

$$$$

     RDKit          3D

 64 69  0  0  0  0  0  0  0  0999 V2000
  140.0900   68.1500  226.6920 C   0  0  0  0  0  0  0  0  0  0  0  0
  140.9280   69.1290  227.2110 C   0  0  0  0  0  0  0  0  0  0  0  0
  141.0410   70.3130  226.5340 C   0  0  0  0  0  0  0  0  0  0  0  0
  140.3410   70.5530  225.3500 C   0  0  0  0  0  0  0  0  0  0  0  0
  139.5080   69.5890  224.8260 C   0  0  0  0  0  0  0  0  0  0  0  0
  139.4140   68.4020  225.5350 C   0  0  0  0  0  0  0  0  0  0  0  0
  138.7420   69.8010  223.5660 C   0  0  0  0  0  0  0  0  0  0  0  0
  138.5070   71.2910  223.4220 C   0  0  0  0  0  0  0  0  0  0  0  0
  139.8070   71.9140  223.4850 N   0  0  0  0  0  0  0  0  0  0  0  0
  140.3700   72.5640  222.3550 C   0  0  0  0  0  0  0  0  0  0  0  0
  140.7510   71.8420  221.2760 N   0  0  0  0  0  0  0  0  0  0  0  0
  141.2840   72.4550  220.2050 C   0  0  0  0  0  0  0  0  0  0  0  0
  141.6940   71.6900  219.0490 N   0  0  0  0  0  0  0  0  0  0  0  0
  143.0650   71.6400  218.6520 C   0  0  0  0  0  0  0  0  0  0  0  0
  144.0300   71.3040  219.7480 C   0  0  2  0  0  0  0  0  0  0  0  0
  144.2780   72.6250  220.4850 C   0  0  0  0  0  0  0  0  0  0  0  0
  145.4640   73.1380  219.6920 C   0  0  0  0  0  0  0  0  0  0  0  0
  146.3160   71.9540  219.7260 N   0  0  0  0  0  0  0  0  0  0  0  0
  145.3880   70.8930  219.3240 C   0  0  0  0  0  0  0  0  0  0  0  0
  141.4350   73.7800  220.2090 N   0  0  0  0  0  0  0  0  0  0  0  0
  141.0660   74.5270  221.2630 C   0  0  0  0  0  0  0  0  0  0  0  0
  141.2200   75.9550  221.2860 N   0  0  0  0  0  0  0  0  0  0  0  0
  141.7730   76.6300  220.1370 C   0  0  0  0  0  0  0  0  0  0  0  0
  141.3820   78.0920  220.0950 C   0  0  0  0  0  0  0  0  0  0  0  0
  141.5500   78.7540  221.4060 C   0  0  0  0  0  0  0  0  0  0  0  0
  141.9910   80.0740  221.4650 C   0  0  0  0  0  0  0  0  0  0  0  0
  142.1460   80.6840  222.6930 C   0  0  0  0  0  0  0  0  0  0  0  0
  141.8590   79.9640  223.8350 C   0  0  0  0  0  0  0  0  0  0  0  0
  141.4200   78.6460  223.7500 C   0  0  0  0  0  0  0  0  0  0  0  0
  141.2670   78.0410  222.5340 C   0  0  0  0  0  0  0  0  0  0  0  0
  140.8000   76.6430  222.4960 C   0  0  0  0  0  0  0  0  0  0  0  0
  140.5330   73.8930  222.3300 N   0  0  0  0  0  0  0  0  0  0  0  0
  140.5580   71.8800  224.7230 C   0  0  0  0  0  0  0  0  0  0  0  0
  139.9735   67.1851  227.2072 H   0  0  0  0  0  0  0  0  0  0  0  0
  141.4867   68.9568  228.1428 H   0  0  0  0  0  0  0  0  0  0  0  0
  141.7013   71.0969  226.9335 H   0  0  0  0  0  0  0  0  0  0  0  0
  138.7540   67.6154  225.1404 H   0  0  0  0  0  0  0  0  0  0  0  0
  139.3196   69.4271  222.7077 H   0  0  0  0  0  0  0  0  0  0  0  0
  137.7854   69.2589  223.5979 H   0  0  0  0  0  0  0  0  0  0  0  0
  138.0264   71.5093  222.4569 H   0  0  0  0  0  0  0  0  0  0  0  0
  137.8435   71.6694  224.2136 H   0  0  0  0  0  0  0  0  0  0  0  0
  140.9680   71.1690  218.5060 H   0  0  0  0  0  0  0  0  0  0  0  0
  143.1646   70.8786  217.8644 H   0  0  0  0  0  0  0  0  0  0  0  0
  143.3244   72.6543  218.3144 H   0  0  0  0  0  0  0  0  0  0  0  0
  143.5802   70.4678  220.3034 H   0  0  0  0  0  0  0  0  0  0  0  0
  143.4140   73.3022  220.4146 H   0  0  0  0  0  0  0  0  0  0  0  0
  144.4454   72.5315  221.5682 H   0  0  0  0  0  0  0  0  0  0  0  0
  145.1821   73.4098  218.6641 H   0  0  0  0  0  0  0  0  0  0  0  0
  145.9259   74.0552  220.0863 H   0  0  0  0  0  0  0  0  0  0  0  0
  146.4820   71.7880  220.7610 H   0  0  0  0  0  0  0  0  0  0  0  0
  145.4170   70.7627  218.2321 H   0  0  0  0  0  0  0  0  0  0  0  0
  145.6668   69.9372  219.7917 H   0  0  0  0  0  0  0  0  0  0  0  0
  142.8699   76.5568  220.1760 H   0  0  0  0  0  0  0  0  0  0  0  0
  141.3736   76.1456  219.2338 H   0  0  0  0  0  0  0  0  0  0  0  0
  142.0132   78.6062  219.3553 H   0  0  0  0  0  0  0  0  0  0  0  0
  140.3178   78.1487  219.8225 H   0  0  0  0  0  0  0  0  0  0  0  0
  142.2139   80.6258  220.5399 H   0  0  0  0  0  0  0  0  0  0  0  0
  142.4922   81.7259  222.7606 H   0  0  0  0  0  0  0  0  0  0  0  0
  141.9783   80.4361  224.8213 H   0  0  0  0  0  0  0  0  0  0  0  0
  141.1942   78.0863  224.6696 H   0  0  0  0  0  0  0  0  0  0  0  0
  141.2089   76.1094  223.3667 H   0  0  0  0  0  0  0  0  0  0  0  0
  139.7002   76.6544  222.5128 H   0  0  0  0  0  0  0  0  0  0  0  0
  141.6284   72.0249  224.5152 H   0  0  0  0  0  0  0  0  0  0  0  0
  140.2233   72.6823  225.3971 H   0  0  0  0  0  0  0  0  0  0  0  0
  1  2  2  0
  2  3  1  0
  3  4  2  0
  4  5  1  0
  5  6  2  0
  5  7  1  0
  7  8  1  0
  8  9  1  0
  9 10  1  0
 10 11  2  0
 11 12  1  0
 12 13  1  0
 13 14  1  0
 14 15  1  0
 15 16  1  0
 16 17  1  0
 17 18  1  0
 18 19  1  0
 12 20  2  0
 20 21  1  0
 21 22  1  0
 22 23  1  0
 23 24  1  0
 24 25  1  0
 25 26  2  0
 26 27  1  0
 27 28  2  0
 28 29  1  0
 29 30  2  0
 30 31  1  0
 21 32  2  0
  9 33  1  0
  6  1  1  0
 32 10  1  0
 33  4  1  0
 19 15  1  0
 31 22  1  0
 30 25  1  0
  1 34  1  0
  2 35  1  0
  3 36  1  0
  6 37  1  0
  7 38  1  0
  7 39  1  0
  8 40  1  0
  8 41  1  0
 13 42  1  0
 14 43  1  0
 14 44  1  0
 15 45  1  1
 16 46  1  0
 16 47  1  0
 17 48  1  0
 17 49  1  0
 18 50  1  0
 19 51  1  0
 19 52  1  0
 23 53  1  0
 23 54  1  0
 24 55  1  0
 24 56  1  0
 26 57  1  0
 27 58  1  0
 28 59  1  0
 29 60  1  0
 31 61  1  0
 31 62  1  0
 33 63  1  0
 33 64  1  0
M  END
>  <smiles>  (18) 
c1ccc2c(c1)CCN(c1nc(NCC3CCNC3)nc(N3CCc4ccccc4C3)n1)C2

>  <score_type>  (18) 
oracle

>  <origin>  (18) 
autodockgpu

>  <m_score__min__energy>  (18) 
-10.4

>  <m_primary>  (18) 
energy

>  <rmsd>  (18) 
10.739616419447401

>  <m_score__min__rmsd>  (18) 
10.739616419447401

>  <meeko>  (18) 
{"free_energy": -10.33, "intermolecular_energy": -11.82, "internal_energy": -1.02, "cluster_size": 50, "cluster_id": 1, "rank_in_cluster": 13}

>  <energy>  (18) 
-10.23

>  <cluster_rmsd>  (18) 
1.21

>  <cluster>  (18) 
1

$$$$

     RDKit          3D

 64 69  0  0  0  0  0  0  0  0999 V2000
  139.9900   68.3160  227.1710 C   0  0  0  0  0  0  0  0  0  0  0  0
  140.6000   69.4430  227.7060 C   0  0  0  0  0  0  0  0  0  0  0  0
  140.7040   70.5600  226.9240 C   0  0  0  0  0  0  0  0  0  0  0  0
  140.2150   70.5910  225.6170 C   0  0  0  0  0  0  0  0  0  0  0  0
  139.6080   69.4790  225.0740 C   0  0  0  0  0  0  0  0  0  0  0  0
  139.5180   68.3640  225.8920 C   0  0  0  0  0  0  0  0  0  0  0  0
  139.0720   69.4660  223.6840 C   0  0  0  0  0  0  0  0  0  0  0  0
  138.7030   70.8910  223.3260 C   0  0  0  0  0  0  0  0  0  0  0  0
  139.8890   71.6840  223.5390 N   0  0  0  0  0  0  0  0  0  0  0  0
  140.5760   72.2910  222.4550 C   0  0  0  0  0  0  0  0  0  0  0  0
  141.1810   71.5230  221.5190 N   0  0  0  0  0  0  0  0  0  0  0  0
  141.8320   72.0940  220.4910 C   0  0  0  0  0  0  0  0  0  0  0  0
  142.4800   71.2810  219.4880 N   0  0  0  0  0  0  0  0  0  0  0  0
  143.8700   70.9680  219.5850 C   0  0  0  0  0  0  0  0  0  0  0  0
  144.7940   72.0070  219.0270 C   0  0  2  0  0  0  0  0  0  0  0  0
  145.8090   72.2820  220.1420 C   0  0  0  0  0  0  0  0  0  0  0  0
  145.0930   73.4060  220.8640 C   0  0  0  0  0  0  0  0  0  0  0  0
  144.7910   74.2770  219.7330 N   0  0  0  0  0  0  0  0  0  0  0  0
  144.2030   73.3400  218.7700 C   0  0  0  0  0  0  0  0  0  0  0  0
  141.8800   73.4240  220.3970 N   0  0  0  0  0  0  0  0  0  0  0  0
  141.2900   74.2150  221.3090 C   0  0  0  0  0  0  0  0  0  0  0  0
  141.3300   75.6500  221.2250 N   0  0  0  0  0  0  0  0  0  0  0  0
  141.9560   76.2780  220.0870 C   0  0  0  0  0  0  0  0  0  0  0  0
  141.4610   77.6930  219.8770 C   0  0  0  0  0  0  0  0  0  0  0  0
  141.4280   78.4670  221.1360 C   0  0  0  0  0  0  0  0  0  0  0  0
  141.7550   79.8210  221.1270 C   0  0  0  0  0  0  0  0  0  0  0  0
  141.7230   80.5360  222.3070 C   0  0  0  0  0  0  0  0  0  0  0  0
  141.3630   79.8840  223.4700 C   0  0  0  0  0  0  0  0  0  0  0  0
  141.0400   78.5300  223.4530 C   0  0  0  0  0  0  0  0  0  0  0  0
  141.0730   77.8220  222.2840 C   0  0  0  0  0  0  0  0  0  0  0  0
  140.7230   76.3900  222.3180 C   0  0  0  0  0  0  0  0  0  0  0  0
  140.6410   73.6220  222.3340 N   0  0  0  0  0  0  0  0  0  0  0  0
  140.3950   71.8690  224.8840 C   0  0  0  0  0  0  0  0  0  0  0  0
  139.8890   67.3986  227.7694 H   0  0  0  0  0  0  0  0  0  0  0  0
  140.9903   69.4373  228.7344 H   0  0  0  0  0  0  0  0  0  0  0  0
  141.1862   71.4586  227.3362 H   0  0  0  0  0  0  0  0  0  0  0  0
  139.0365   67.4625  225.4851 H   0  0  0  0  0  0  0  0  0  0  0  0
  139.8379   69.0904  222.9895 H   0  0  0  0  0  0  0  0  0  0  0  0
  138.1931   68.8083  223.6134 H   0  0  0  0  0  0  0  0  0  0  0  0
  138.3898   70.9499  222.2732 H   0  0  0  0  0  0  0  0  0  0  0  0
  137.8655   71.2527  223.9406 H   0  0  0  0  0  0  0  0  0  0  0  0
  141.9130   70.9210  218.6870 H   0  0  0  0  0  0  0  0  0  0  0  0
  144.1150   70.8293  220.6484 H   0  0  0  0  0  0  0  0  0  0  0  0
  144.0240   70.0628  218.9793 H   0  0  0  0  0  0  0  0  0  0  0  0
  145.1596   71.6078  218.0694 H   0  0  0  0  0  0  0  0  0  0  0  0
  145.9536   71.4050  220.7901 H   0  0  0  0  0  0  0  0  0  0  0  0
  146.8266   72.5205  219.7991 H   0  0  0  0  0  0  0  0  0  0  0  0
  144.1789   73.0537  221.3642 H   0  0  0  0  0  0  0  0  0  0  0  0
  145.6680   73.8786  221.6739 H   0  0  0  0  0  0  0  0  0  0  0  0
  145.7440   74.5120  219.3300 H   0  0  0  0  0  0  0  0  0  0  0  0
  143.1120   73.2991  218.9042 H   0  0  0  0  0  0  0  0  0  0  0  0
  144.4106   73.6632  217.7393 H   0  0  0  0  0  0  0  0  0  0  0  0
  143.0438   76.3026  220.2487 H   0  0  0  0  0  0  0  0  0  0  0  0
  141.7000   75.6920  219.1920 H   0  0  0  0  0  0  0  0  0  0  0  0
  142.1305   78.2005  219.1669 H   0  0  0  0  0  0  0  0  0  0  0  0
  140.4333   77.6365  219.4889 H   0  0  0  0  0  0  0  0  0  0  0  0
  142.0367   80.3167  220.1863 H   0  0  0  0  0  0  0  0  0  0  0  0
  141.9795   81.6056  222.3209 H   0  0  0  0  0  0  0  0  0  0  0  0
  141.3312   80.4398  224.4187 H   0  0  0  0  0  0  0  0  0  0  0  0
  140.7558   78.0254  224.3882 H   0  0  0  0  0  0  0  0  0  0  0  0
  141.0701   75.9631  223.2705 H   0  0  0  0  0  0  0  0  0  0  0  0
  139.6309   76.3071  222.2161 H   0  0  0  0  0  0  0  0  0  0  0  0
  141.4623   72.1331  224.8491 H   0  0  0  0  0  0  0  0  0  0  0  0
  139.8527   72.6814  225.3899 H   0  0  0  0  0  0  0  0  0  0  0  0
  1  2  2  0
  2  3  1  0
  3  4  2  0
  4  5  1  0
  5  6  2  0
  5  7  1  0
  7  8  1  0
  8  9  1  0
  9 10  1  0
 10 11  2  0
 11 12  1  0
 12 13  1  0
 13 14  1  0
 14 15  1  0
 15 16  1  0
 16 17  1  0
 17 18  1  0
 18 19  1  0
 12 20  2  0
 20 21  1  0
 21 22  1  0
 22 23  1  0
 23 24  1  0
 24 25  1  0
 25 26  2  0
 26 27  1  0
 27 28  2  0
 28 29  1  0
 29 30  2  0
 30 31  1  0
 21 32  2  0
  9 33  1  0
  6  1  1  0
 32 10  1  0
 33  4  1  0
 19 15  1  0
 31 22  1  0
 30 25  1  0
  1 34  1  0
  2 35  1  0
  3 36  1  0
  6 37  1  0
  7 38  1  0
  7 39  1  0
  8 40  1  0
  8 41  1  0
 13 42  1  0
 14 43  1  0
 14 44  1  0
 15 45  1  6
 16 46  1  0
 16 47  1  0
 17 48  1  0
 17 49  1  0
 18 50  1  0
 19 51  1  0
 19 52  1  0
 23 53  1  0
 23 54  1  0
 24 55  1  0
 24 56  1  0
 26 57  1  0
 27 58  1  0
 28 59  1  0
 29 60  1  0
 31 61  1  0
 31 62  1  0
 33 63  1  0
 33 64  1  0
M  END
>  <smiles>  (19) 
c1ccc2c(c1)CCN(c1nc(NCC3CCNC3)nc(N3CCc4ccccc4C3)n1)C2

>  <score_type>  (19) 
oracle

>  <origin>  (19) 
autodockgpu

>  <m_score__min__energy>  (19) 
-10.4

>  <m_primary>  (19) 
energy

>  <rmsd>  (19) 
10.865520406433403

>  <m_score__min__rmsd>  (19) 
10.865520406433403

>  <meeko>  (19) 
{"free_energy": -9.94, "intermolecular_energy": -11.43, "internal_energy": -1.18, "cluster_size": 50, "cluster_id": 1, "rank_in_cluster": 38}

>  <energy>  (19) 
-10.23

>  <cluster_rmsd>  (19) 
1.2

>  <cluster>  (19) 
1

$$$$

     RDKit          3D

 64 69  0  0  0  0  0  0  0  0999 V2000
  140.4480   79.9890  223.5360 C   0  0  0  0  0  0  0  0  0  0  0  0
  141.6270   79.8790  222.8100 C   0  0  0  0  0  0  0  0  0  0  0  0
  141.8250   78.7550  222.0560 C   0  0  0  0  0  0  0  0  0  0  0  0
  140.8790   77.7300  222.0030 C   0  0  0  0  0  0  0  0  0  0  0  0
  139.7060   77.8260  222.7190 C   0  0  0  0  0  0  0  0  0  0  0  0
  139.5350   78.9770  223.4720 C   0  0  0  0  0  0  0  0  0  0  0  0
  138.6680   76.7580  222.6920 C   0  0  0  0  0  0  0  0  0  0  0  0
  138.7920   76.0380  221.3640 C   0  0  0  0  0  0  0  0  0  0  0  0
  140.1610   75.5930  221.2690 N   0  0  0  0  0  0  0  0  0  0  0  0
  140.4920   74.2130  221.2960 C   0  0  0  0  0  0  0  0  0  0  0  0
  141.1050   73.6410  220.2330 N   0  0  0  0  0  0  0  0  0  0  0  0
  141.4200   72.3350  220.2560 C   0  0  0  0  0  0  0  0  0  0  0  0
  142.0740   71.7170  219.1240 N   0  0  0  0  0  0  0  0  0  0  0  0
  143.3880   71.1700  219.2470 C   0  0  0  0  0  0  0  0  0  0  0  0
  144.5020   72.1190  218.9280 C   0  0  2  0  0  0  0  0  0  0  0  0
  145.2610   72.3030  220.2480 C   0  0  0  0  0  0  0  0  0  0  0  0
  144.5050   73.4900  220.8110 C   0  0  0  0  0  0  0  0  0  0  0  0
  144.5450   74.3810  219.6570 N   0  0  0  0  0  0  0  0  0  0  0  0
  144.1060   73.5000  218.5700 C   0  0  0  0  0  0  0  0  0  0  0  0
  141.1260   71.6020  221.3310 N   0  0  0  0  0  0  0  0  0  0  0  0
  140.5180   72.1390  222.4020 C   0  0  0  0  0  0  0  0  0  0  0  0
  140.1930   71.3660  223.5700 N   0  0  0  0  0  0  0  0  0  0  0  0
  139.0310   70.5110  223.5560 C   0  0  0  0  0  0  0  0  0  0  0  0
  139.1260   69.4090  224.5900 C   0  0  0  0  0  0  0  0  0  0  0  0
  139.5720   69.9140  225.9060 C   0  0  0  0  0  0  0  0  0  0  0  0
  139.0410   69.3700  227.0740 C   0  0  0  0  0  0  0  0  0  0  0  0
  139.4610   69.8470  228.2980 C   0  0  0  0  0  0  0  0  0  0  0  0
  140.4030   70.8560  228.3320 C   0  0  0  0  0  0  0  0  0  0  0  0
  140.9190   71.3840  227.1510 C   0  0  0  0  0  0  0  0  0  0  0  0
  140.5020   70.9110  225.9380 C   0  0  0  0  0  0  0  0  0  0  0  0
  141.0770   71.5010  224.7150 C   0  0  0  0  0  0  0  0  0  0  0  0
  140.2090   73.4530  222.3610 N   0  0  0  0  0  0  0  0  0  0  0  0
  141.2240   76.5690  221.1440 C   0  0  0  0  0  0  0  0  0  0  0  0
  140.2533   80.8785  224.1532 H   0  0  0  0  0  0  0  0  0  0  0  0
  142.3836   80.6769  222.8407 H   0  0  0  0  0  0  0  0  0  0  0  0
  142.7544   78.6563  221.4760 H   0  0  0  0  0  0  0  0  0  0  0  0
  138.6069   79.0809  224.0533 H   0  0  0  0  0  0  0  0  0  0  0  0
  138.8335   76.0520  223.5192 H   0  0  0  0  0  0  0  0  0  0  0  0
  137.6631   77.1904  222.8067 H   0  0  0  0  0  0  0  0  0  0  0  0
  138.1088   75.1765  221.3329 H   0  0  0  0  0  0  0  0  0  0  0  0
  138.5282   76.6992  220.5254 H   0  0  0  0  0  0  0  0  0  0  0  0
  141.5690   71.6770  218.2100 H   0  0  0  0  0  0  0  0  0  0  0  0
  143.5188   70.8266  220.2838 H   0  0  0  0  0  0  0  0  0  0  0  0
  143.4537   70.3593  218.5064 H   0  0  0  0  0  0  0  0  0  0  0  0
  145.0353   71.6861  218.0688 H   0  0  0  0  0  0  0  0  0  0  0  0
  145.1765   71.4183  220.8962 H   0  0  0  0  0  0  0  0  0  0  0  0
  146.3469   72.4462  220.1465 H   0  0  0  0  0  0  0  0  0  0  0  0
  143.4738   73.2245  221.0871 H   0  0  0  0  0  0  0  0  0  0  0  0
  144.9230   73.9104  221.7376 H   0  0  0  0  0  0  0  0  0  0  0  0
  145.5800   74.5280  219.4820 H   0  0  0  0  0  0  0  0  0  0  0  0
  143.0135   73.5598  218.4563 H   0  0  0  0  0  0  0  0  0  0  0  0
  144.5675   73.8005  217.6178 H   0  0  0  0  0  0  0  0  0  0  0  0
  138.1394   71.1198  223.7666 H   0  0  0  0  0  0  0  0  0  0  0  0
  138.9663   70.0413  222.5634 H   0  0  0  0  0  0  0  0  0  0  0  0
  138.1351   68.9457  224.7058 H   0  0  0  0  0  0  0  0  0  0  0  0
  139.8707   68.6797  224.2384 H   0  0  0  0  0  0  0  0  0  0  0  0
  138.2923   68.5660  227.0201 H   0  0  0  0  0  0  0  0  0  0  0  0
  139.0527   69.4309  229.2308 H   0  0  0  0  0  0  0  0  0  0  0  0
  140.7490   71.2463  229.3005 H   0  0  0  0  0  0  0  0  0  0  0  0
  141.6682   72.1882  227.1946 H   0  0  0  0  0  0  0  0  0  0  0  0
  141.2652   72.5701  224.8926 H   0  0  0  0  0  0  0  0  0  0  0  0
  142.0083   70.9619  224.4868 H   0  0  0  0  0  0  0  0  0  0  0  0
  142.1764   76.1291  221.4746 H   0  0  0  0  0  0  0  0  0  0  0  0
  141.3329   76.8858  220.0962 H   0  0  0  0  0  0  0  0  0  0  0  0
  1  2  2  0
  2  3  1  0
  3  4  2  0
  4  5  1  0
  5  6  2  0
  5  7  1  0
  7  8  1  0
  8  9  1  0
  9 10  1  0
 10 11  2  0
 11 12  1  0
 12 13  1  0
 13 14  1  0
 14 15  1  0
 15 16  1  0
 16 17  1  0
 17 18  1  0
 18 19  1  0
 12 20  2  0
 20 21  1  0
 21 22  1  0
 22 23  1  0
 23 24  1  0
 24 25  1  0
 25 26  2  0
 26 27  1  0
 27 28  2  0
 28 29  1  0
 29 30  2  0
 30 31  1  0
 21 32  2  0
  9 33  1  0
  6  1  1  0
 32 10  1  0
 33  4  1  0
 19 15  1  0
 31 22  1  0
 30 25  1  0
  1 34  1  0
  2 35  1  0
  3 36  1  0
  6 37  1  0
  7 38  1  0
  7 39  1  0
  8 40  1  0
  8 41  1  0
 13 42  1  0
 14 43  1  0
 14 44  1  0
 15 45  1  6
 16 46  1  0
 16 47  1  0
 17 48  1  0
 17 49  1  0
 18 50  1  0
 19 51  1  0
 19 52  1  0
 23 53  1  0
 23 54  1  0
 24 55  1  0
 24 56  1  0
 26 57  1  0
 27 58  1  0
 28 59  1  0
 29 60  1  0
 31 61  1  0
 31 62  1  0
 33 63  1  0
 33 64  1  0
M  END
>  <smiles>  (20) 
c1ccc2c(c1)CCN(c1nc(NCC3CCNC3)nc(N3CCc4ccccc4C3)n1)C2

>  <score_type>  (20) 
oracle

>  <origin>  (20) 
autodockgpu

>  <m_score__min__energy>  (20) 
-10.4

>  <m_primary>  (20) 
energy

>  <rmsd>  (20) 
4.978378715948179

>  <m_score__min__rmsd>  (20) 
4.978378715948179

>  <meeko>  (20) 
{"free_energy": -9.5, "intermolecular_energy": -10.99, "internal_energy": -1.28, "cluster_size": 50, "cluster_id": 1, "rank_in_cluster": 49}

>  <energy>  (20) 
-10.22

>  <cluster_rmsd>  (20) 
1.22

>  <cluster>  (20) 
1

$$$$

     RDKit          3D

 64 69  0  0  0  0  0  0  0  0999 V2000
  140.2320   68.2460  226.9990 C   0  0  0  0  0  0  0  0  0  0  0  0
  141.0150   69.2860  227.4840 C   0  0  0  0  0  0  0  0  0  0  0  0
  141.0980   70.4350  226.7470 C   0  0  0  0  0  0  0  0  0  0  0  0
  140.4220   70.5820  225.5340 C   0  0  0  0  0  0  0  0  0  0  0  0
  139.6430   69.5580  225.0430 C   0  0  0  0  0  0  0  0  0  0  0  0
  139.5780   68.4080  225.8130 C   0  0  0  0  0  0  0  0  0  0  0  0
  138.9030   69.6700  223.7540 C   0  0  0  0  0  0  0  0  0  0  0  0
  138.6130   71.1390  223.5240 C   0  0  0  0  0  0  0  0  0  0  0  0
  139.8840   71.8190  223.5850 N   0  0  0  0  0  0  0  0  0  0  0  0
  140.4510   72.4300  222.4350 C   0  0  0  0  0  0  0  0  0  0  0  0
  140.8790   71.6680  221.4020 N   0  0  0  0  0  0  0  0  0  0  0  0
  141.4150   72.2450  220.3130 C   0  0  0  0  0  0  0  0  0  0  0  0
  141.8750   71.4370  219.2060 N   0  0  0  0  0  0  0  0  0  0  0  0
  143.2190   71.5380  218.7340 C   0  0  0  0  0  0  0  0  0  0  0  0
  143.9860   72.7150  219.2550 C   0  0  2  0  0  0  0  0  0  0  0  0
  144.2260   73.6100  218.0330 C   0  0  0  0  0  0  0  0  0  0  0  0
  145.5510   73.0440  217.5610 C   0  0  0  0  0  0  0  0  0  0  0  0
  146.2950   73.0720  218.8150 N   0  0  0  0  0  0  0  0  0  0  0  0
  145.3550   72.4400  219.7470 C   0  0  0  0  0  0  0  0  0  0  0  0
  141.5240   73.5730  220.2530 N   0  0  0  0  0  0  0  0  0  0  0  0
  141.1090   74.3580  221.2610 C   0  0  0  0  0  0  0  0  0  0  0  0
  141.2170   75.7900  221.2170 N   0  0  0  0  0  0  0  0  0  0  0  0
  141.8290   76.4220  220.0720 C   0  0  0  0  0  0  0  0  0  0  0  0
  141.3970   77.8650  219.9230 C   0  0  0  0  0  0  0  0  0  0  0  0
  141.4520   78.6010  221.2040 C   0  0  0  0  0  0  0  0  0  0  0  0
  141.8470   79.9370  221.2200 C   0  0  0  0  0  0  0  0  0  0  0  0
  141.8960   80.6160  222.4200 C   0  0  0  0  0  0  0  0  0  0  0  0
  141.5510   79.9480  223.5780 C   0  0  0  0  0  0  0  0  0  0  0  0
  141.1600   78.6130  223.5360 C   0  0  0  0  0  0  0  0  0  0  0  0
  141.1110   77.9400  222.3470 C   0  0  0  0  0  0  0  0  0  0  0  0
  140.6910   76.5260  222.3540 C   0  0  0  0  0  0  0  0  0  0  0  0
  140.5730   73.7600  222.3480 N   0  0  0  0  0  0  0  0  0  0  0  0
  140.6020   71.8820  224.8410 C   0  0  0  0  0  0  0  0  0  0  0  0
  140.1408   67.3060  227.5629 H   0  0  0  0  0  0  0  0  0  0  0  0
  141.5549   69.1877  228.4373 H   0  0  0  0  0  0  0  0  0  0  0  0
  141.7143   71.2663  227.1200 H   0  0  0  0  0  0  0  0  0  0  0  0
  138.9613   67.5746  225.4454 H   0  0  0  0  0  0  0  0  0  0  0  0
  139.5180   69.2750  222.9319 H   0  0  0  0  0  0  0  0  0  0  0  0
  137.9685   69.0909  223.7912 H   0  0  0  0  0  0  0  0  0  0  0  0
  138.1501   71.2855  222.5370 H   0  0  0  0  0  0  0  0  0  0  0  0
  137.9144   71.5306  224.2780 H   0  0  0  0  0  0  0  0  0  0  0  0
  141.2050   70.7730  218.7540 H   0  0  0  0  0  0  0  0  0  0  0  0
  143.7543   70.6237  219.0299 H   0  0  0  0  0  0  0  0  0  0  0  0
  143.1530   71.6719  217.6442 H   0  0  0  0  0  0  0  0  0  0  0  0
  143.3980   73.1154  220.0940 H   0  0  0  0  0  0  0  0  0  0  0  0
  143.4365   73.4909  217.2763 H   0  0  0  0  0  0  0  0  0  0  0  0
  144.2263   74.6907  218.2383 H   0  0  0  0  0  0  0  0  0  0  0  0
  145.4432   72.0206  217.1723 H   0  0  0  0  0  0  0  0  0  0  0  0
  146.0203   73.5907  216.7298 H   0  0  0  0  0  0  0  0  0  0  0  0
  146.2960   74.0970  219.0890 H   0  0  0  0  0  0  0  0  0  0  0  0
  145.5312   71.3547  219.7795 H   0  0  0  0  0  0  0  0  0  0  0  0
  145.4889   72.8406  220.7627 H   0  0  0  0  0  0  0  0  0  0  0  0
  142.9221   76.3888  220.1901 H   0  0  0  0  0  0  0  0  0  0  0  0
  141.5095   75.8768  219.1716 H   0  0  0  0  0  0  0  0  0  0  0  0
  142.0624   78.3609  219.2010 H   0  0  0  0  0  0  0  0  0  0  0  0
  140.3532   77.8702  219.5758 H   0  0  0  0  0  0  0  0  0  0  0  0
  142.1176   80.4464  220.2834 H   0  0  0  0  0  0  0  0  0  0  0  0
  142.2046   81.6713  222.4536 H   0  0  0  0  0  0  0  0  0  0  0  0
  141.5855   80.4757  224.5425 H   0  0  0  0  0  0  0  0  0  0  0  0
  140.8881   78.0949  224.4674 H   0  0  0  0  0  0  0  0  0  0  0  0
  141.0528   76.0539  223.2793 H   0  0  0  0  0  0  0  0  0  0  0  0
  139.5930   76.5003  222.2933 H   0  0  0  0  0  0  0  0  0  0  0  0
  141.6709   72.0602  224.6521 H   0  0  0  0  0  0  0  0  0  0  0  0
  140.2170   72.7043  225.4621 H   0  0  0  0  0  0  0  0  0  0  0  0
  1  2  2  0
  2  3  1  0
  3  4  2  0
  4  5  1  0
  5  6  2  0
  5  7  1  0
  7  8  1  0
  8  9  1  0
  9 10  1  0
 10 11  2  0
 11 12  1  0
 12 13  1  0
 13 14  1  0
 14 15  1  0
 15 16  1  0
 16 17  1  0
 17 18  1  0
 18 19  1  0
 12 20  2  0
 20 21  1  0
 21 22  1  0
 22 23  1  0
 23 24  1  0
 24 25  1  0
 25 26  2  0
 26 27  1  0
 27 28  2  0
 28 29  1  0
 29 30  2  0
 30 31  1  0
 21 32  2  0
  9 33  1  0
  6  1  1  0
 32 10  1  0
 33  4  1  0
 19 15  1  0
 31 22  1  0
 30 25  1  0
  1 34  1  0
  2 35  1  0
  3 36  1  0
  6 37  1  0
  7 38  1  0
  7 39  1  0
  8 40  1  0
  8 41  1  0
 13 42  1  0
 14 43  1  0
 14 44  1  0
 15 45  1  1
 16 46  1  0
 16 47  1  0
 17 48  1  0
 17 49  1  0
 18 50  1  0
 19 51  1  0
 19 52  1  0
 23 53  1  0
 23 54  1  0
 24 55  1  0
 24 56  1  0
 26 57  1  0
 27 58  1  0
 28 59  1  0
 29 60  1  0
 31 61  1  0
 31 62  1  0
 33 63  1  0
 33 64  1  0
M  END
>  <smiles>  (21) 
c1ccc2c(c1)CCN(c1nc(NCC3CCNC3)nc(N3CCc4ccccc4C3)n1)C2

>  <score_type>  (21) 
oracle

>  <origin>  (21) 
autodockgpu

>  <m_score__min__energy>  (21) 
-10.4

>  <m_primary>  (21) 
energy

>  <rmsd>  (21) 
10.826148877369727

>  <m_score__min__rmsd>  (21) 
10.826148877369727

>  <meeko>  (21) 
{"free_energy": -10.35, "intermolecular_energy": -11.84, "internal_energy": -0.98, "cluster_size": 50, "cluster_id": 1, "rank_in_cluster": 8}

>  <energy>  (21) 
-10.21

>  <cluster_rmsd>  (21) 
0.71

>  <cluster>  (21) 
1

$$$$

     RDKit          3D

 64 69  0  0  0  0  0  0  0  0999 V2000
  140.1300   68.1240  226.7020 C   0  0  0  0  0  0  0  0  0  0  0  0
  140.9560   69.1110  227.2230 C   0  0  0  0  0  0  0  0  0  0  0  0
  141.0590   70.2960  226.5480 C   0  0  0  0  0  0  0  0  0  0  0  0
  140.3610   70.5300  225.3610 C   0  0  0  0  0  0  0  0  0  0  0  0
  139.5390   69.5580  224.8340 C   0  0  0  0  0  0  0  0  0  0  0  0
  139.4550   68.3700  225.5420 C   0  0  0  0  0  0  0  0  0  0  0  0
  138.7750   69.7620  223.5710 C   0  0  0  0  0  0  0  0  0  0  0  0
  138.5270   71.2500  223.4270 C   0  0  0  0  0  0  0  0  0  0  0  0
  139.8200   71.8870  223.4950 N   0  0  0  0  0  0  0  0  0  0  0  0
  140.3800   72.5430  222.3670 C   0  0  0  0  0  0  0  0  0  0  0  0
  140.7700   71.8250  221.2880 N   0  0  0  0  0  0  0  0  0  0  0  0
  141.3000   72.4440  220.2190 C   0  0  0  0  0  0  0  0  0  0  0  0
  141.7190   71.6830  219.0640 N   0  0  0  0  0  0  0  0  0  0  0  0
  143.0920   71.6450  218.6710 C   0  0  0  0  0  0  0  0  0  0  0  0
  144.0560   71.3090  219.7680 C   0  0  2  0  0  0  0  0  0  0  0  0
  144.2730   72.6240  220.5260 C   0  0  0  0  0  0  0  0  0  0  0  0
  145.4550   73.1710  219.7500 C   0  0  0  0  0  0  0  0  0  0  0  0
  146.3290   72.0030  219.7720 N   0  0  0  0  0  0  0  0  0  0  0  0
  145.4240   70.9310  219.3470 C   0  0  0  0  0  0  0  0  0  0  0  0
  141.4410   73.7700  220.2250 N   0  0  0  0  0  0  0  0  0  0  0  0
  141.0630   74.5120  221.2800 C   0  0  0  0  0  0  0  0  0  0  0  0
  141.2050   75.9420  221.3050 N   0  0  0  0  0  0  0  0  0  0  0  0
  141.7340   76.6250  220.1490 C   0  0  0  0  0  0  0  0  0  0  0  0
  141.3300   78.0840  220.1190 C   0  0  0  0  0  0  0  0  0  0  0  0
  141.5140   78.7430  221.4290 C   0  0  0  0  0  0  0  0  0  0  0  0
  141.9440   80.0670  221.4860 C   0  0  0  0  0  0  0  0  0  0  0  0
  142.1130   80.6740  222.7130 C   0  0  0  0  0  0  0  0  0  0  0  0
  141.8500   79.9480  223.8570 C   0  0  0  0  0  0  0  0  0  0  0  0
  141.4210   78.6260  223.7750 C   0  0  0  0  0  0  0  0  0  0  0  0
  141.2540   78.0240  222.5580 C   0  0  0  0  0  0  0  0  0  0  0  0
  140.7980   76.6220  222.5230 C   0  0  0  0  0  0  0  0  0  0  0  0
  140.5330   73.8720  222.3440 N   0  0  0  0  0  0  0  0  0  0  0  0
  140.5670   71.8600  224.7350 C   0  0  0  0  0  0  0  0  0  0  0  0
  140.0214   67.1580  227.2168 H   0  0  0  0  0  0  0  0  0  0  0  0
  141.5140   68.9439  228.1561 H   0  0  0  0  0  0  0  0  0  0  0  0
  141.7093   71.0864  226.9509 H   0  0  0  0  0  0  0  0  0  0  0  0
  138.8045   67.5769  225.1448 H   0  0  0  0  0  0  0  0  0  0  0  0
  139.3588   69.3935  222.7147 H   0  0  0  0  0  0  0  0  0  0  0  0
  137.8236   69.2105  223.5991 H   0  0  0  0  0  0  0  0  0  0  0  0
  138.0478   71.4640  222.4603 H   0  0  0  0  0  0  0  0  0  0  0  0
  137.8576   71.6210  224.2171 H   0  0  0  0  0  0  0  0  0  0  0  0
  140.9990   71.1580  218.5170 H   0  0  0  0  0  0  0  0  0  0  0  0
  143.1994   70.8891  217.8791 H   0  0  0  0  0  0  0  0  0  0  0  0
  143.3453   72.6631  218.3405 H   0  0  0  0  0  0  0  0  0  0  0  0
  143.6198   70.4552  220.3073 H   0  0  0  0  0  0  0  0  0  0  0  0
  143.3967   73.2855  220.4584 H   0  0  0  0  0  0  0  0  0  0  0  0
  144.4338   72.5180  221.6090 H   0  0  0  0  0  0  0  0  0  0  0  0
  145.1755   73.4534  218.7243 H   0  0  0  0  0  0  0  0  0  0  0  0
  145.8967   74.0903  220.1621 H   0  0  0  0  0  0  0  0  0  0  0  0
  146.4910   71.8240  220.8050 H   0  0  0  0  0  0  0  0  0  0  0  0
  145.4626   70.8187  218.2534 H   0  0  0  0  0  0  0  0  0  0  0  0
  145.7180   69.9734  219.8015 H   0  0  0  0  0  0  0  0  0  0  0  0
  142.8319   76.5607  220.1699 H   0  0  0  0  0  0  0  0  0  0  0  0
  141.3245   76.1402  219.2505 H   0  0  0  0  0  0  0  0  0  0  0  0
  141.9445   78.6061  219.3708 H   0  0  0  0  0  0  0  0  0  0  0  0
  140.2609   78.1324  219.8647 H   0  0  0  0  0  0  0  0  0  0  0  0
  142.1472   80.6240  220.5595 H   0  0  0  0  0  0  0  0  0  0  0  0
  142.4515   81.7186  222.7786 H   0  0  0  0  0  0  0  0  0  0  0  0
  141.9806   80.4183  224.8428 H   0  0  0  0  0  0  0  0  0  0  0  0
  141.2147   78.0611  224.6961 H   0  0  0  0  0  0  0  0  0  0  0  0
  141.2248   76.0892  223.3855 H   0  0  0  0  0  0  0  0  0  0  0  0
  139.6985   76.6238  222.5571 H   0  0  0  0  0  0  0  0  0  0  0  0
  141.6366   72.0156  224.5308 H   0  0  0  0  0  0  0  0  0  0  0  0
  140.2222   72.6587  225.4083 H   0  0  0  0  0  0  0  0  0  0  0  0
  1  2  2  0
  2  3  1  0
  3  4  2  0
  4  5  1  0
  5  6  2  0
  5  7  1  0
  7  8  1  0
  8  9  1  0
  9 10  1  0
 10 11  2  0
 11 12  1  0
 12 13  1  0
 13 14  1  0
 14 15  1  0
 15 16  1  0
 16 17  1  0
 17 18  1  0
 18 19  1  0
 12 20  2  0
 20 21  1  0
 21 22  1  0
 22 23  1  0
 23 24  1  0
 24 25  1  0
 25 26  2  0
 26 27  1  0
 27 28  2  0
 28 29  1  0
 29 30  2  0
 30 31  1  0
 21 32  2  0
  9 33  1  0
  6  1  1  0
 32 10  1  0
 33  4  1  0
 19 15  1  0
 31 22  1  0
 30 25  1  0
  1 34  1  0
  2 35  1  0
  3 36  1  0
  6 37  1  0
  7 38  1  0
  7 39  1  0
  8 40  1  0
  8 41  1  0
 13 42  1  0
 14 43  1  0
 14 44  1  0
 15 45  1  1
 16 46  1  0
 16 47  1  0
 17 48  1  0
 17 49  1  0
 18 50  1  0
 19 51  1  0
 19 52  1  0
 23 53  1  0
 23 54  1  0
 24 55  1  0
 24 56  1  0
 26 57  1  0
 27 58  1  0
 28 59  1  0
 29 60  1  0
 31 61  1  0
 31 62  1  0
 33 63  1  0
 33 64  1  0
M  END
>  <smiles>  (22) 
c1ccc2c(c1)CCN(c1nc(NCC3CCNC3)nc(N3CCc4ccccc4C3)n1)C2

>  <score_type>  (22) 
oracle

>  <origin>  (22) 
autodockgpu

>  <m_score__min__energy>  (22) 
-10.4

>  <m_primary>  (22) 
energy

>  <rmsd>  (22) 
10.762135831069589

>  <m_score__min__rmsd>  (22) 
10.762135831069589

>  <meeko>  (22) 
{"free_energy": -10.34, "intermolecular_energy": -11.83, "internal_energy": -1.01, "cluster_size": 50, "cluster_id": 1, "rank_in_cluster": 11}

>  <energy>  (22) 
-10.2

>  <cluster_rmsd>  (22) 
0.36

>  <cluster>  (22) 
1

$$$$

     RDKit          3D

 64 69  0  0  0  0  0  0  0  0999 V2000
  140.5050   79.8710  223.5140 C   0  0  0  0  0  0  0  0  0  0  0  0
  141.6730   79.7480  222.7720 C   0  0  0  0  0  0  0  0  0  0  0  0
  141.8460   78.6230  222.0140 C   0  0  0  0  0  0  0  0  0  0  0  0
  140.8870   77.6100  221.9710 C   0  0  0  0  0  0  0  0  0  0  0  0
  139.7240   77.7200  222.7030 C   0  0  0  0  0  0  0  0  0  0  0  0
  139.5780   78.8710  223.4600 C   0  0  0  0  0  0  0  0  0  0  0  0
  138.6730   76.6640  222.6880 C   0  0  0  0  0  0  0  0  0  0  0  0
  138.7700   75.9450  221.3570 C   0  0  0  0  0  0  0  0  0  0  0  0
  140.1320   75.4840  221.2440 N   0  0  0  0  0  0  0  0  0  0  0  0
  140.4460   74.0990  221.2630 C   0  0  0  0  0  0  0  0  0  0  0  0
  141.0010   73.5130  220.1770 N   0  0  0  0  0  0  0  0  0  0  0  0
  141.2990   72.2030  220.1930 C   0  0  0  0  0  0  0  0  0  0  0  0
  141.8910   71.5700  219.0360 N   0  0  0  0  0  0  0  0  0  0  0  0
  143.3090   71.4520  218.9110 C   0  0  0  0  0  0  0  0  0  0  0  0
  144.0940   72.5680  219.5310 C   0  0  2  0  0  0  0  0  0  0  0  0
  144.0860   73.6920  218.4880 C   0  0  0  0  0  0  0  0  0  0  0  0
  145.3400   73.3310  217.7170 C   0  0  0  0  0  0  0  0  0  0  0  0
  146.2790   73.1830  218.8240 N   0  0  0  0  0  0  0  0  0  0  0  0
  145.5370   72.3150  219.7440 C   0  0  0  0  0  0  0  0  0  0  0  0
  141.0460   71.4800  221.2850 N   0  0  0  0  0  0  0  0  0  0  0  0
  140.4970   72.0310  222.3810 C   0  0  0  0  0  0  0  0  0  0  0  0
  140.2180   71.2700  223.5680 N   0  0  0  0  0  0  0  0  0  0  0  0
  139.1290   70.3230  223.5660 C   0  0  0  0  0  0  0  0  0  0  0  0
  139.2970   69.2640  224.6340 C   0  0  0  0  0  0  0  0  0  0  0  0
  139.6800   69.8420  225.9390 C   0  0  0  0  0  0  0  0  0  0  0  0
  139.1770   69.2920  227.1160 C   0  0  0  0  0  0  0  0  0  0  0  0
  139.5390   69.8380  228.3310 C   0  0  0  0  0  0  0  0  0  0  0  0
  140.3950   70.9210  228.3450 C   0  0  0  0  0  0  0  0  0  0  0  0
  140.8850   71.4530  227.1550 C   0  0  0  0  0  0  0  0  0  0  0  0
  140.5260   70.9120  225.9520 C   0  0  0  0  0  0  0  0  0  0  0  0
  141.0710   71.5110  224.7190 C   0  0  0  0  0  0  0  0  0  0  0  0
  140.2040   73.3490  222.3450 N   0  0  0  0  0  0  0  0  0  0  0  0
  141.2050   76.4460  221.1060 C   0  0  0  0  0  0  0  0  0  0  0  0
  140.3300   80.7613  224.1359 H   0  0  0  0  0  0  0  0  0  0  0  0
  142.4399   80.5363  222.7937 H   0  0  0  0  0  0  0  0  0  0  0  0
  142.7665   78.5135  221.4218 H   0  0  0  0  0  0  0  0  0  0  0  0
  138.6591   78.9858  224.0536 H   0  0  0  0  0  0  0  0  0  0  0  0
  138.8415   75.9545  223.5115 H   0  0  0  0  0  0  0  0  0  0  0  0
  137.6750   77.1082  222.8171 H   0  0  0  0  0  0  0  0  0  0  0  0
  138.0760   75.0919  221.3335 H   0  0  0  0  0  0  0  0  0  0  0  0
  138.5027   76.6104  220.5228 H   0  0  0  0  0  0  0  0  0  0  0  0
  141.2620   71.1970  218.2880 H   0  0  0  0  0  0  0  0  0  0  0  0
  143.6168   70.5109  219.3902 H   0  0  0  0  0  0  0  0  0  0  0  0
  143.5266   71.4845  217.8332 H   0  0  0  0  0  0  0  0  0  0  0  0
  143.6337   72.7565  220.5121 H   0  0  0  0  0  0  0  0  0  0  0  0
  143.1891   73.6548  217.8523 H   0  0  0  0  0  0  0  0  0  0  0  0
  144.0686   74.7116  218.9004 H   0  0  0  0  0  0  0  0  0  0  0  0
  145.2189   72.3930  217.1553 H   0  0  0  0  0  0  0  0  0  0  0  0
  145.6387   74.0586  216.9480 H   0  0  0  0  0  0  0  0  0  0  0  0
  146.2760   74.1350  219.2910 H   0  0  0  0  0  0  0  0  0  0  0  0
  145.7681   71.2604  219.5335 H   0  0  0  0  0  0  0  0  0  0  0  0
  145.8170   72.5272  220.7864 H   0  0  0  0  0  0  0  0  0  0  0  0
  138.1880   70.8634  223.7465 H   0  0  0  0  0  0  0  0  0  0  0  0
  139.1176   69.8203  222.5877 H   0  0  0  0  0  0  0  0  0  0  0  0
  138.3452   68.7250  224.7511 H   0  0  0  0  0  0  0  0  0  0  0  0
  140.1038   68.5879  224.3147 H   0  0  0  0  0  0  0  0  0  0  0  0
  138.4963   68.4288  227.0774 H   0  0  0  0  0  0  0  0  0  0  0  0
  139.1524   69.4177  229.2711 H   0  0  0  0  0  0  0  0  0  0  0  0
  140.6928   71.3678  229.3050 H   0  0  0  0  0  0  0  0  0  0  0  0
  141.5667   72.3159  227.1833 H   0  0  0  0  0  0  0  0  0  0  0  0
  141.1691   72.5967  224.8660 H   0  0  0  0  0  0  0  0  0  0  0  0
  142.0468   71.0441  224.5196 H   0  0  0  0  0  0  0  0  0  0  0  0
  142.1561   75.9933  221.4230 H   0  0  0  0  0  0  0  0  0  0  0  0
  141.3035   76.7630  220.0573 H   0  0  0  0  0  0  0  0  0  0  0  0
  1  2  2  0
  2  3  1  0
  3  4  2  0
  4  5  1  0
  5  6  2  0
  5  7  1  0
  7  8  1  0
  8  9  1  0
  9 10  1  0
 10 11  2  0
 11 12  1  0
 12 13  1  0
 13 14  1  0
 14 15  1  0
 15 16  1  0
 16 17  1  0
 17 18  1  0
 18 19  1  0
 12 20  2  0
 20 21  1  0
 21 22  1  0
 22 23  1  0
 23 24  1  0
 24 25  1  0
 25 26  2  0
 26 27  1  0
 27 28  2  0
 28 29  1  0
 29 30  2  0
 30 31  1  0
 21 32  2  0
  9 33  1  0
  6  1  1  0
 32 10  1  0
 33  4  1  0
 19 15  1  0
 31 22  1  0
 30 25  1  0
  1 34  1  0
  2 35  1  0
  3 36  1  0
  6 37  1  0
  7 38  1  0
  7 39  1  0
  8 40  1  0
  8 41  1  0
 13 42  1  0
 14 43  1  0
 14 44  1  0
 15 45  1  1
 16 46  1  0
 16 47  1  0
 17 48  1  0
 17 49  1  0
 18 50  1  0
 19 51  1  0
 19 52  1  0
 23 53  1  0
 23 54  1  0
 24 55  1  0
 24 56  1  0
 26 57  1  0
 27 58  1  0
 28 59  1  0
 29 60  1  0
 31 61  1  0
 31 62  1  0
 33 63  1  0
 33 64  1  0
M  END
>  <smiles>  (23) 
c1ccc2c(c1)CCN(c1nc(NCC3CCNC3)nc(N3CCc4ccccc4C3)n1)C2

>  <score_type>  (23) 
oracle

>  <origin>  (23) 
autodockgpu

>  <m_score__min__energy>  (23) 
-10.4

>  <m_primary>  (23) 
energy

>  <rmsd>  (23) 
4.982564008995482

>  <m_score__min__rmsd>  (23) 
4.982564008995482

>  <meeko>  (23) 
{"free_energy": -10.18, "intermolecular_energy": -11.67, "internal_energy": -1.09, "cluster_size": 50, "cluster_id": 1, "rank_in_cluster": 24}

>  <energy>  (23) 
-10.19

>  <cluster_rmsd>  (23) 
1.19

>  <cluster>  (23) 
1

$$$$

     RDKit          3D

 64 69  0  0  0  0  0  0  0  0999 V2000
  140.0200   68.1780  226.9090 C   0  0  0  0  0  0  0  0  0  0  0  0
  140.7890   69.1940  227.4620 C   0  0  0  0  0  0  0  0  0  0  0  0
  140.9460   70.3510  226.7500 C   0  0  0  0  0  0  0  0  0  0  0  0
  140.3580   70.5290  225.4960 C   0  0  0  0  0  0  0  0  0  0  0  0
  139.5930   69.5280  224.9370 C   0  0  0  0  0  0  0  0  0  0  0  0
  139.4520   68.3690  225.6840 C   0  0  0  0  0  0  0  0  0  0  0  0
  138.9450   69.6730  223.6040 C   0  0  0  0  0  0  0  0  0  0  0  0
  138.7020   71.1520  223.3760 C   0  0  0  0  0  0  0  0  0  0  0  0
  139.9790   71.8030  223.5330 N   0  0  0  0  0  0  0  0  0  0  0  0
  140.6350   72.4180  222.4340 C   0  0  0  0  0  0  0  0  0  0  0  0
  141.1990   71.6570  221.4670 N   0  0  0  0  0  0  0  0  0  0  0  0
  141.8200   72.2370  220.4260 C   0  0  0  0  0  0  0  0  0  0  0  0
  142.4240   71.4300  219.3900 N   0  0  0  0  0  0  0  0  0  0  0  0
  143.7900   71.0230  219.4820 C   0  0  0  0  0  0  0  0  0  0  0  0
  144.7850   72.0250  218.9810 C   0  0  2  0  0  0  0  0  0  0  0  0
  145.7480   72.2530  220.1520 C   0  0  0  0  0  0  0  0  0  0  0  0
  145.0410   73.4040  220.8400 C   0  0  0  0  0  0  0  0  0  0  0  0
  144.8380   74.2900  219.6990 N   0  0  0  0  0  0  0  0  0  0  0  0
  144.2650   73.3820  218.7000 C   0  0  0  0  0  0  0  0  0  0  0  0
  141.8790   73.5670  220.3480 N   0  0  0  0  0  0  0  0  0  0  0  0
  141.3290   74.3510  221.2910 C   0  0  0  0  0  0  0  0  0  0  0  0
  141.3820   75.7860  221.2250 N   0  0  0  0  0  0  0  0  0  0  0  0
  141.9840   76.4240  220.0790 C   0  0  0  0  0  0  0  0  0  0  0  0
  141.4970   77.8460  219.9020 C   0  0  0  0  0  0  0  0  0  0  0  0
  141.5070   78.6030  221.1720 C   0  0  0  0  0  0  0  0  0  0  0  0
  141.8480   79.9540  221.1720 C   0  0  0  0  0  0  0  0  0  0  0  0
  141.8550   80.6520  222.3620 C   0  0  0  0  0  0  0  0  0  0  0  0
  141.5210   79.9890  223.5260 C   0  0  0  0  0  0  0  0  0  0  0  0
  141.1830   78.6380  223.4990 C   0  0  0  0  0  0  0  0  0  0  0  0
  141.1770   77.9460  222.3200 C   0  0  0  0  0  0  0  0  0  0  0  0
  140.8130   76.5170  222.3440 C   0  0  0  0  0  0  0  0  0  0  0  0
  140.7100   73.7500  222.3300 N   0  0  0  0  0  0  0  0  0  0  0  0
  140.6110   71.8340  224.8360 C   0  0  0  0  0  0  0  0  0  0  0  0
  139.8713   67.2327  227.4515 H   0  0  0  0  0  0  0  0  0  0  0  0
  141.2601   69.0710  228.4484 H   0  0  0  0  0  0  0  0  0  0  0  0
  141.5521   71.1637  227.1768 H   0  0  0  0  0  0  0  0  0  0  0  0
  138.8451   67.5538  225.2632 H   0  0  0  0  0  0  0  0  0  0  0  0
  139.6057   69.2753  222.8196 H   0  0  0  0  0  0  0  0  0  0  0  0
  137.9981   69.1142  223.5698 H   0  0  0  0  0  0  0  0  0  0  0  0
  138.3106   71.3214  222.3620 H   0  0  0  0  0  0  0  0  0  0  0  0
  137.9619   71.5488  224.0865 H   0  0  0  0  0  0  0  0  0  0  0  0
  141.8440   71.1470  218.5680 H   0  0  0  0  0  0  0  0  0  0  0  0
  144.0145   70.8185  220.5392 H   0  0  0  0  0  0  0  0  0  0  0  0
  143.8915   70.1394  218.8348 H   0  0  0  0  0  0  0  0  0  0  0  0
  145.1853   71.6149  218.0421 H   0  0  0  0  0  0  0  0  0  0  0  0
  145.8197   71.3685  220.8020 H   0  0  0  0  0  0  0  0  0  0  0  0
  146.7921   72.4493  219.8669 H   0  0  0  0  0  0  0  0  0  0  0  0
  144.0870   73.0888  221.2877 H   0  0  0  0  0  0  0  0  0  0  0  0
  145.5900   73.8497  221.6826 H   0  0  0  0  0  0  0  0  0  0  0  0
  145.8200   74.4870  219.3500 H   0  0  0  0  0  0  0  0  0  0  0  0
  143.1675   73.3864  218.7744 H   0  0  0  0  0  0  0  0  0  0  0  0
  144.5418   73.6999  217.6840 H   0  0  0  0  0  0  0  0  0  0  0  0
  143.0759   76.4363  220.2120 H   0  0  0  0  0  0  0  0  0  0  0  0
  141.6992   75.8529  219.1831 H   0  0  0  0  0  0  0  0  0  0  0  0
  142.1510   78.3570  219.1801 H   0  0  0  0  0  0  0  0  0  0  0  0
  140.4583   77.8044  219.5423 H   0  0  0  0  0  0  0  0  0  0  0  0
  142.1095   80.4599  220.2309 H   0  0  0  0  0  0  0  0  0  0  0  0
  142.1222   81.7188  222.3830 H   0  0  0  0  0  0  0  0  0  0  0  0
  141.5218   80.5321  224.4826 H   0  0  0  0  0  0  0  0  0  0  0  0
  140.9186   78.1234  224.4345 H   0  0  0  0  0  0  0  0  0  0  0  0
  141.1815   76.0735  223.2807 H   0  0  0  0  0  0  0  0  0  0  0  0
  139.7177   76.4467  222.2708 H   0  0  0  0  0  0  0  0  0  0  0  0
  141.6937   71.9920  224.7227 H   0  0  0  0  0  0  0  0  0  0  0  0
  140.2012   72.6558  225.4415 H   0  0  0  0  0  0  0  0  0  0  0  0
  1  2  2  0
  2  3  1  0
  3  4  2  0
  4  5  1  0
  5  6  2  0
  5  7  1  0
  7  8  1  0
  8  9  1  0
  9 10  1  0
 10 11  2  0
 11 12  1  0
 12 13  1  0
 13 14  1  0
 14 15  1  0
 15 16  1  0
 16 17  1  0
 17 18  1  0
 18 19  1  0
 12 20  2  0
 20 21  1  0
 21 22  1  0
 22 23  1  0
 23 24  1  0
 24 25  1  0
 25 26  2  0
 26 27  1  0
 27 28  2  0
 28 29  1  0
 29 30  2  0
 30 31  1  0
 21 32  2  0
  9 33  1  0
  6  1  1  0
 32 10  1  0
 33  4  1  0
 19 15  1  0
 31 22  1  0
 30 25  1  0
  1 34  1  0
  2 35  1  0
  3 36  1  0
  6 37  1  0
  7 38  1  0
  7 39  1  0
  8 40  1  0
  8 41  1  0
 13 42  1  0
 14 43  1  0
 14 44  1  0
 15 45  1  6
 16 46  1  0
 16 47  1  0
 17 48  1  0
 17 49  1  0
 18 50  1  0
 19 51  1  0
 19 52  1  0
 23 53  1  0
 23 54  1  0
 24 55  1  0
 24 56  1  0
 26 57  1  0
 27 58  1  0
 28 59  1  0
 29 60  1  0
 31 61  1  0
 31 62  1  0
 33 63  1  0
 33 64  1  0
M  END
>  <smiles>  (24) 
c1ccc2c(c1)CCN(c1nc(NCC3CCNC3)nc(N3CCc4ccccc4C3)n1)C2

>  <score_type>  (24) 
oracle

>  <origin>  (24) 
autodockgpu

>  <m_score__min__energy>  (24) 
-10.4

>  <m_primary>  (24) 
energy

>  <rmsd>  (24) 
10.829506339241405

>  <m_score__min__rmsd>  (24) 
10.829506339241405

>  <meeko>  (24) 
{"free_energy": -9.92, "intermolecular_energy": -11.41, "internal_energy": -1.22, "cluster_size": 50, "cluster_id": 1, "rank_in_cluster": 42}

>  <energy>  (24) 
-10.18

>  <cluster_rmsd>  (24) 
1.0

>  <cluster>  (24) 
1

$$$$

     RDKit          3D

 64 69  0  0  0  0  0  0  0  0999 V2000
  140.0290   68.1470  226.9550 C   0  0  0  0  0  0  0  0  0  0  0  0
  140.8480   69.1510  227.4560 C   0  0  0  0  0  0  0  0  0  0  0  0
  140.9810   70.3040  226.7320 C   0  0  0  0  0  0  0  0  0  0  0  0
  140.3200   70.4900  225.5170 C   0  0  0  0  0  0  0  0  0  0  0  0
  139.5040   69.5010  225.0090 C   0  0  0  0  0  0  0  0  0  0  0  0
  139.3900   68.3460  225.7660 C   0  0  0  0  0  0  0  0  0  0  0  0
  138.7790   69.6550  223.7170 C   0  0  0  0  0  0  0  0  0  0  0  0
  138.5470   71.1370  223.5000 C   0  0  0  0  0  0  0  0  0  0  0  0
  139.8440   71.7660  223.5770 N   0  0  0  0  0  0  0  0  0  0  0  0
  140.4410   72.3680  222.4380 C   0  0  0  0  0  0  0  0  0  0  0  0
  140.9060   71.5960  221.4280 N   0  0  0  0  0  0  0  0  0  0  0  0
  141.4730   72.1630  220.3490 C   0  0  0  0  0  0  0  0  0  0  0  0
  141.9720   71.3450  219.2670 N   0  0  0  0  0  0  0  0  0  0  0  0
  143.3640   71.3230  218.9470 C   0  0  0  0  0  0  0  0  0  0  0  0
  144.1570   72.4690  219.4960 C   0  0  2  0  0  0  0  0  0  0  0  0
  144.1030   73.5510  218.4100 C   0  0  0  0  0  0  0  0  0  0  0  0
  145.3350   73.1700  217.6120 C   0  0  0  0  0  0  0  0  0  0  0  0
  146.3110   73.0750  218.6920 N   0  0  0  0  0  0  0  0  0  0  0  0
  145.6090   72.2380  219.6710 C   0  0  0  0  0  0  0  0  0  0  0  0
  141.5740   73.4910  220.2760 N   0  0  0  0  0  0  0  0  0  0  0  0
  141.1220   74.2850  221.2610 C   0  0  0  0  0  0  0  0  0  0  0  0
  141.2220   75.7180  221.2010 N   0  0  0  0  0  0  0  0  0  0  0  0
  141.8150   76.3420  220.0430 C   0  0  0  0  0  0  0  0  0  0  0  0
  141.3740   77.7810  219.8860 C   0  0  0  0  0  0  0  0  0  0  0  0
  141.4410   78.5290  221.1590 C   0  0  0  0  0  0  0  0  0  0  0  0
  141.8290   79.8680  221.1580 C   0  0  0  0  0  0  0  0  0  0  0  0
  141.8900   80.5580  222.3510 C   0  0  0  0  0  0  0  0  0  0  0  0
  141.5630   79.9000  223.5190 C   0  0  0  0  0  0  0  0  0  0  0  0
  141.1800   78.5610  223.4940 C   0  0  0  0  0  0  0  0  0  0  0  0
  141.1190   77.8770  222.3120 C   0  0  0  0  0  0  0  0  0  0  0  0
  140.7070   76.4610  222.3380 C   0  0  0  0  0  0  0  0  0  0  0  0
  140.5570   73.6970  222.3370 N   0  0  0  0  0  0  0  0  0  0  0  0
  140.5540   71.7890  224.8380 C   0  0  0  0  0  0  0  0  0  0  0  0
  139.8976   67.2056  227.5086 H   0  0  0  0  0  0  0  0  0  0  0  0
  141.3768   69.0220  228.4119 H   0  0  0  0  0  0  0  0  0  0  0  0
  141.6266   71.1066  227.1180 H   0  0  0  0  0  0  0  0  0  0  0  0
  138.7450   67.5404  225.3852 H   0  0  0  0  0  0  0  0  0  0  0  0
  139.3845   69.2451  222.8952 H   0  0  0  0  0  0  0  0  0  0  0  0
  137.8226   69.1122  223.7417 H   0  0  0  0  0  0  0  0  0  0  0  0
  138.0973   71.3113  222.5114 H   0  0  0  0  0  0  0  0  0  0  0  0
  137.8581   71.5481  224.2526 H   0  0  0  0  0  0  0  0  0  0  0  0
  141.2950   70.7650  218.7190 H   0  0  0  0  0  0  0  0  0  0  0  0
  143.7911   70.3906  219.3449 H   0  0  0  0  0  0  0  0  0  0  0  0
  143.4293   71.4002  217.8517 H   0  0  0  0  0  0  0  0  0  0  0  0
  143.7273   72.6918  220.4838 H   0  0  0  0  0  0  0  0  0  0  0  0
  143.1859   73.4808  217.8067 H   0  0  0  0  0  0  0  0  0  0  0  0
  144.0889   74.5861  218.7820 H   0  0  0  0  0  0  0  0  0  0  0  0
  145.2049   72.2091  217.0925 H   0  0  0  0  0  0  0  0  0  0  0  0
  145.6008   73.8685  216.8049 H   0  0  0  0  0  0  0  0  0  0  0  0
  146.3140   74.0450  219.1210 H   0  0  0  0  0  0  0  0  0  0  0  0
  145.8442   71.1778  219.4957 H   0  0  0  0  0  0  0  0  0  0  0  0
  145.9211   72.4948  220.6941 H   0  0  0  0  0  0  0  0  0  0  0  0
  142.9098   76.3154  220.1468 H   0  0  0  0  0  0  0  0  0  0  0  0
  141.4861   75.7868  219.1522 H   0  0  0  0  0  0  0  0  0  0  0  0
  142.0279   78.2735  219.1512 H   0  0  0  0  0  0  0  0  0  0  0  0
  140.3260   77.7778  219.5517 H   0  0  0  0  0  0  0  0  0  0  0  0
  142.0845   80.3704  220.2134 H   0  0  0  0  0  0  0  0  0  0  0  0
  142.1942   81.6149  222.3709 H   0  0  0  0  0  0  0  0  0  0  0  0
  141.6052   80.4374  224.4779 H   0  0  0  0  0  0  0  0  0  0  0  0
  140.9244   78.0495  224.4337 H   0  0  0  0  0  0  0  0  0  0  0  0
  141.0838   75.9995  223.2627 H   0  0  0  0  0  0  0  0  0  0  0  0
  139.6084   76.4284  222.2927 H   0  0  0  0  0  0  0  0  0  0  0  0
  141.6303   71.9284  224.6584 H   0  0  0  0  0  0  0  0  0  0  0  0
  140.1954   72.6190  225.4646 H   0  0  0  0  0  0  0  0  0  0  0  0
  1  2  2  0
  2  3  1  0
  3  4  2  0
  4  5  1  0
  5  6  2  0
  5  7  1  0
  7  8  1  0
  8  9  1  0
  9 10  1  0
 10 11  2  0
 11 12  1  0
 12 13  1  0
 13 14  1  0
 14 15  1  0
 15 16  1  0
 16 17  1  0
 17 18  1  0
 18 19  1  0
 12 20  2  0
 20 21  1  0
 21 22  1  0
 22 23  1  0
 23 24  1  0
 24 25  1  0
 25 26  2  0
 26 27  1  0
 27 28  2  0
 28 29  1  0
 29 30  2  0
 30 31  1  0
 21 32  2  0
  9 33  1  0
  6  1  1  0
 32 10  1  0
 33  4  1  0
 19 15  1  0
 31 22  1  0
 30 25  1  0
  1 34  1  0
  2 35  1  0
  3 36  1  0
  6 37  1  0
  7 38  1  0
  7 39  1  0
  8 40  1  0
  8 41  1  0
 13 42  1  0
 14 43  1  0
 14 44  1  0
 15 45  1  1
 16 46  1  0
 16 47  1  0
 17 48  1  0
 17 49  1  0
 18 50  1  0
 19 51  1  0
 19 52  1  0
 23 53  1  0
 23 54  1  0
 24 55  1  0
 24 56  1  0
 26 57  1  0
 27 58  1  0
 28 59  1  0
 29 60  1  0
 31 61  1  0
 31 62  1  0
 33 63  1  0
 33 64  1  0
M  END
>  <smiles>  (25) 
c1ccc2c(c1)CCN(c1nc(NCC3CCNC3)nc(N3CCc4ccccc4C3)n1)C2

>  <score_type>  (25) 
oracle

>  <origin>  (25) 
autodockgpu

>  <m_score__min__energy>  (25) 
-10.4

>  <m_primary>  (25) 
energy

>  <rmsd>  (25) 
10.886593717585944

>  <m_score__min__rmsd>  (25) 
10.886593717585944

>  <meeko>  (25) 
{"free_energy": -10.39, "intermolecular_energy": -11.88, "internal_energy": -1.05, "cluster_size": 50, "cluster_id": 1, "rank_in_cluster": 5}

>  <energy>  (25) 
-10.18

>  <cluster_rmsd>  (25) 
1.03

>  <cluster>  (25) 
1

$$$$

     RDKit          3D

 64 69  0  0  0  0  0  0  0  0999 V2000
  140.4180   79.8870  223.4850 C   0  0  0  0  0  0  0  0  0  0  0  0
  141.5890   79.7990  222.7430 C   0  0  0  0  0  0  0  0  0  0  0  0
  141.8070   78.6700  222.0030 C   0  0  0  0  0  0  0  0  0  0  0  0
  140.8900   77.6170  221.9800 C   0  0  0  0  0  0  0  0  0  0  0  0
  139.7250   77.6920  222.7130 C   0  0  0  0  0  0  0  0  0  0  0  0
  139.5330   78.8500  223.4500 C   0  0  0  0  0  0  0  0  0  0  0  0
  138.7180   76.5950  222.7180 C   0  0  0  0  0  0  0  0  0  0  0  0
  138.8420   75.8570  221.4000 C   0  0  0  0  0  0  0  0  0  0  0  0
  140.2220   75.4500  221.2910 N   0  0  0  0  0  0  0  0  0  0  0  0
  140.5930   74.0800  221.3340 C   0  0  0  0  0  0  0  0  0  0  0  0
  141.2450   73.5200  220.2880 N   0  0  0  0  0  0  0  0  0  0  0  0
  141.5970   72.2230  220.3260 C   0  0  0  0  0  0  0  0  0  0  0  0
  142.2930   71.6190  219.2130 N   0  0  0  0  0  0  0  0  0  0  0  0
  143.7200   71.5700  219.1810 C   0  0  0  0  0  0  0  0  0  0  0  0
  144.3820   72.7890  218.6130 C   0  0  2  0  0  0  0  0  0  0  0  0
  145.2920   73.3090  219.7330 C   0  0  0  0  0  0  0  0  0  0  0  0
  144.3250   74.2450  220.4300 C   0  0  0  0  0  0  0  0  0  0  0  0
  143.8420   75.0050  219.2820 N   0  0  0  0  0  0  0  0  0  0  0  0
  143.5000   73.9430  218.3300 C   0  0  0  0  0  0  0  0  0  0  0  0
  141.3010   71.4890  221.4000 N   0  0  0  0  0  0  0  0  0  0  0  0
  140.6550   72.0140  222.4550 C   0  0  0  0  0  0  0  0  0  0  0  0
  140.3280   71.2400  223.6200 N   0  0  0  0  0  0  0  0  0  0  0  0
  139.3000   70.2300  223.5380 C   0  0  0  0  0  0  0  0  0  0  0  0
  139.4450   69.1840  224.6230 C   0  0  0  0  0  0  0  0  0  0  0  0
  139.6890   69.7860  225.9510 C   0  0  0  0  0  0  0  0  0  0  0  0
  139.1270   69.2090  227.0880 C   0  0  0  0  0  0  0  0  0  0  0  0
  139.3580   69.7780  228.3240 C   0  0  0  0  0  0  0  0  0  0  0  0
  140.1450   70.9100  228.3990 C   0  0  0  0  0  0  0  0  0  0  0  0
  140.6960   71.4680  227.2480 C   0  0  0  0  0  0  0  0  0  0  0  0
  140.4660   70.9040  226.0240 C   0  0  0  0  0  0  0  0  0  0  0  0
  141.0710   71.5320  224.8340 C   0  0  0  0  0  0  0  0  0  0  0  0
  140.3090   73.3180  222.3970 N   0  0  0  0  0  0  0  0  0  0  0  0
  141.2550   76.4530  221.1350 C   0  0  0  0  0  0  0  0  0  0  0  0
  140.2076   80.7800  224.0919 H   0  0  0  0  0  0  0  0  0  0  0  0
  142.3234   80.6179  222.7505 H   0  0  0  0  0  0  0  0  0  0  0  0
  142.7298   78.5890  221.4097 H   0  0  0  0  0  0  0  0  0  0  0  0
  138.6106   78.9380  224.0428 H   0  0  0  0  0  0  0  0  0  0  0  0
  138.9158   75.9074  223.5535 H   0  0  0  0  0  0  0  0  0  0  0  0
  137.7031   77.0012  222.8407 H   0  0  0  0  0  0  0  0  0  0  0  0
  138.1836   74.9759  221.3936 H   0  0  0  0  0  0  0  0  0  0  0  0
  138.5461   76.4961  220.5550 H   0  0  0  0  0  0  0  0  0  0  0  0
  141.7330   71.2140  218.4280 H   0  0  0  0  0  0  0  0  0  0  0  0
  144.0802   71.4347  220.2115 H   0  0  0  0  0  0  0  0  0  0  0  0
  143.9846   70.7366  218.5135 H   0  0  0  0  0  0  0  0  0  0  0  0
  144.8412   72.4732  217.6646 H   0  0  0  0  0  0  0  0  0  0  0  0
  145.6290   72.4991  220.3967 H   0  0  0  0  0  0  0  0  0  0  0  0
  146.2303   73.7733  219.3951 H   0  0  0  0  0  0  0  0  0  0  0  0
  143.5122   73.6963  220.9283 H   0  0  0  0  0  0  0  0  0  0  0  0
  144.7640   74.8503  221.2367 H   0  0  0  0  0  0  0  0  0  0  0  0
  144.7180   75.4510  218.8840 H   0  0  0  0  0  0  0  0  0  0  0  0
  142.4471   73.6505  218.4563 H   0  0  0  0  0  0  0  0  0  0  0  0
  143.6385   74.2913  217.2958 H   0  0  0  0  0  0  0  0  0  0  0  0
  138.3175   70.7141  223.6403 H   0  0  0  0  0  0  0  0  0  0  0  0
  139.3957   69.7259  222.5650 H   0  0  0  0  0  0  0  0  0  0  0  0
  138.5203   68.5899  224.6680 H   0  0  0  0  0  0  0  0  0  0  0  0
  140.3129   68.5562  224.3726 H   0  0  0  0  0  0  0  0  0  0  0  0
  138.5039   68.3067  227.0011 H   0  0  0  0  0  0  0  0  0  0  0  0
  138.9229   69.3375  229.2332 H   0  0  0  0  0  0  0  0  0  0  0  0
  140.3386   71.3754  229.3767 H   0  0  0  0  0  0  0  0  0  0  0  0
  141.3213   72.3698  227.3244 H   0  0  0  0  0  0  0  0  0  0  0  0
  141.0935   72.6218  224.9817 H   0  0  0  0  0  0  0  0  0  0  0  0
  142.0849   71.1223  224.7154 H   0  0  0  0  0  0  0  0  0  0  0  0
  142.2241   76.0453  221.4585 H   0  0  0  0  0  0  0  0  0  0  0  0
  141.3399   76.7557  220.0809 H   0  0  0  0  0  0  0  0  0  0  0  0
  1  2  2  0
  2  3  1  0
  3  4  2  0
  4  5  1  0
  5  6  2  0
  5  7  1  0
  7  8  1  0
  8  9  1  0
  9 10  1  0
 10 11  2  0
 11 12  1  0
 12 13  1  0
 13 14  1  0
 14 15  1  0
 15 16  1  0
 16 17  1  0
 17 18  1  0
 18 19  1  0
 12 20  2  0
 20 21  1  0
 21 22  1  0
 22 23  1  0
 23 24  1  0
 24 25  1  0
 25 26  2  0
 26 27  1  0
 27 28  2  0
 28 29  1  0
 29 30  2  0
 30 31  1  0
 21 32  2  0
  9 33  1  0
  6  1  1  0
 32 10  1  0
 33  4  1  0
 19 15  1  0
 31 22  1  0
 30 25  1  0
  1 34  1  0
  2 35  1  0
  3 36  1  0
  6 37  1  0
  7 38  1  0
  7 39  1  0
  8 40  1  0
  8 41  1  0
 13 42  1  0
 14 43  1  0
 14 44  1  0
 15 45  1  6
 16 46  1  0
 16 47  1  0
 17 48  1  0
 17 49  1  0
 18 50  1  0
 19 51  1  0
 19 52  1  0
 23 53  1  0
 23 54  1  0
 24 55  1  0
 24 56  1  0
 26 57  1  0
 27 58  1  0
 28 59  1  0
 29 60  1  0
 31 61  1  0
 31 62  1  0
 33 63  1  0
 33 64  1  0
M  END
>  <smiles>  (26) 
c1ccc2c(c1)CCN(c1nc(NCC3CCNC3)nc(N3CCc4ccccc4C3)n1)C2

>  <score_type>  (26) 
oracle

>  <origin>  (26) 
autodockgpu

>  <m_score__min__energy>  (26) 
-10.4

>  <m_primary>  (26) 
energy

>  <rmsd>  (26) 
4.956423938207759

>  <m_score__min__rmsd>  (26) 
4.956423938207759

>  <meeko>  (26) 
{"free_energy": -9.39, "intermolecular_energy": -10.88, "internal_energy": -1.3, "cluster_size": 50, "cluster_id": 1, "rank_in_cluster": 50}

>  <energy>  (26) 
-10.16

>  <cluster_rmsd>  (26) 
1.01

>  <cluster>  (26) 
1

$$$$

     RDKit          3D

 64 69  0  0  0  0  0  0  0  0999 V2000
  140.0040   68.1080  226.6750 C   0  0  0  0  0  0  0  0  0  0  0  0
  140.8380   69.0830  227.2080 C   0  0  0  0  0  0  0  0  0  0  0  0
  140.9600   70.2700  226.5390 C   0  0  0  0  0  0  0  0  0  0  0  0
  140.2750   70.5170  225.3480 C   0  0  0  0  0  0  0  0  0  0  0  0
  139.4450   69.5580  224.8100 C   0  0  0  0  0  0  0  0  0  0  0  0
  139.3410   68.3680  225.5110 C   0  0  0  0  0  0  0  0  0  0  0  0
  138.6930   69.7780  223.5430 C   0  0  0  0  0  0  0  0  0  0  0  0
  138.4630   71.2690  223.4040 C   0  0  0  0  0  0  0  0  0  0  0  0
  139.7640   71.8900  223.4840 N   0  0  0  0  0  0  0  0  0  0  0  0
  140.3400   72.5440  222.3640 C   0  0  0  0  0  0  0  0  0  0  0  0
  140.7420   71.8260  221.2900 N   0  0  0  0  0  0  0  0  0  0  0  0
  141.2870   72.4430  220.2280 C   0  0  0  0  0  0  0  0  0  0  0  0
  141.7190   71.6810  219.0780 N   0  0  0  0  0  0  0  0  0  0  0  0
  143.0910   71.6650  218.6830 C   0  0  0  0  0  0  0  0  0  0  0  0
  144.0600   71.3210  219.7730 C   0  0  2  0  0  0  0  0  0  0  0  0
  144.2650   72.6250  220.5540 C   0  0  0  0  0  0  0  0  0  0  0  0
  145.4400   73.1970  219.7860 C   0  0  0  0  0  0  0  0  0  0  0  0
  146.3260   72.0380  219.7870 N   0  0  0  0  0  0  0  0  0  0  0  0
  145.4310   70.9640  219.3450 C   0  0  0  0  0  0  0  0  0  0  0  0
  141.4320   73.7690  220.2360 N   0  0  0  0  0  0  0  0  0  0  0  0
  141.0430   74.5120  221.2860 C   0  0  0  0  0  0  0  0  0  0  0  0
  141.1890   75.9410  221.3140 N   0  0  0  0  0  0  0  0  0  0  0  0
  141.6980   76.6270  220.1500 C   0  0  0  0  0  0  0  0  0  0  0  0
  141.2970   78.0870  220.1320 C   0  0  0  0  0  0  0  0  0  0  0  0
  141.5070   78.7410  221.4410 C   0  0  0  0  0  0  0  0  0  0  0  0
  141.9420   80.0630  221.4940 C   0  0  0  0  0  0  0  0  0  0  0  0
  142.1360   80.6660  222.7200 C   0  0  0  0  0  0  0  0  0  0  0  0
  141.8930   79.9370  223.8660 C   0  0  0  0  0  0  0  0  0  0  0  0
  141.4600   78.6160  223.7880 C   0  0  0  0  0  0  0  0  0  0  0  0
  141.2670   78.0190  222.5730 C   0  0  0  0  0  0  0  0  0  0  0  0
  140.8070   76.6180  222.5410 C   0  0  0  0  0  0  0  0  0  0  0  0
  140.4970   73.8730  222.3430 N   0  0  0  0  0  0  0  0  0  0  0  0
  140.5010   71.8480  224.7300 C   0  0  0  0  0  0  0  0  0  0  0  0
  139.8800   67.1407  227.1838 H   0  0  0  0  0  0  0  0  0  0  0  0
  141.3866   68.9049  228.1447 H   0  0  0  0  0  0  0  0  0  0  0  0
  141.6158   71.0512  226.9508 H   0  0  0  0  0  0  0  0  0  0  0  0
  138.6840   67.5849  225.1047 H   0  0  0  0  0  0  0  0  0  0  0  0
  139.2788   69.4070  222.6891 H   0  0  0  0  0  0  0  0  0  0  0  0
  137.7349   69.2379  223.5619 H   0  0  0  0  0  0  0  0  0  0  0  0
  137.9932   71.4930  222.4349 H   0  0  0  0  0  0  0  0  0  0  0  0
  137.7921   71.6446  224.1907 H   0  0  0  0  0  0  0  0  0  0  0  0
  141.0070   71.1390  218.5360 H   0  0  0  0  0  0  0  0  0  0  0  0
  143.2057   70.9241  217.8781 H   0  0  0  0  0  0  0  0  0  0  0  0
  143.3326   72.6914  218.3696 H   0  0  0  0  0  0  0  0  0  0  0  0
  143.6325   70.4538  220.2977 H   0  0  0  0  0  0  0  0  0  0  0  0
  143.3821   73.2788  220.4993 H   0  0  0  0  0  0  0  0  0  0  0  0
  144.4284   72.5017  221.6348 H   0  0  0  0  0  0  0  0  0  0  0  0
  145.1561   73.4939  218.7656 H   0  0  0  0  0  0  0  0  0  0  0  0
  145.8729   74.1136  220.2131 H   0  0  0  0  0  0  0  0  0  0  0  0
  146.4910   71.8430  220.8170 H   0  0  0  0  0  0  0  0  0  0  0  0
  145.4697   70.8701  218.2497 H   0  0  0  0  0  0  0  0  0  0  0  0
  145.7350   70.0021  219.7836 H   0  0  0  0  0  0  0  0  0  0  0  0
  142.7960   76.5602  220.1501 H   0  0  0  0  0  0  0  0  0  0  0  0
  141.2704   76.1460  219.2579 H   0  0  0  0  0  0  0  0  0  0  0  0
  141.8988   78.6101  219.3743 H   0  0  0  0  0  0  0  0  0  0  0  0
  140.2236   78.1390  219.8974 H   0  0  0  0  0  0  0  0  0  0  0  0
  142.1295   80.6223  220.5655 H   0  0  0  0  0  0  0  0  0  0  0  0
  142.4783   81.7095  222.7825 H   0  0  0  0  0  0  0  0  0  0  0  0
  142.0428   80.4039  224.8507 H   0  0  0  0  0  0  0  0  0  0  0  0
  141.2717   78.0481  224.7111 H   0  0  0  0  0  0  0  0  0  0  0  0
  141.2484   76.0811  223.3936 H   0  0  0  0  0  0  0  0  0  0  0  0
  139.7083   76.6229  222.5950 H   0  0  0  0  0  0  0  0  0  0  0  0
  141.5739   71.9924  224.5349 H   0  0  0  0  0  0  0  0  0  0  0  0
  140.1599   72.6471  225.4046 H   0  0  0  0  0  0  0  0  0  0  0  0
  1  2  2  0
  2  3  1  0
  3  4  2  0
  4  5  1  0
  5  6  2  0
  5  7  1  0
  7  8  1  0
  8  9  1  0
  9 10  1  0
 10 11  2  0
 11 12  1  0
 12 13  1  0
 13 14  1  0
 14 15  1  0
 15 16  1  0
 16 17  1  0
 17 18  1  0
 18 19  1  0
 12 20  2  0
 20 21  1  0
 21 22  1  0
 22 23  1  0
 23 24  1  0
 24 25  1  0
 25 26  2  0
 26 27  1  0
 27 28  2  0
 28 29  1  0
 29 30  2  0
 30 31  1  0
 21 32  2  0
  9 33  1  0
  6  1  1  0
 32 10  1  0
 33  4  1  0
 19 15  1  0
 31 22  1  0
 30 25  1  0
  1 34  1  0
  2 35  1  0
  3 36  1  0
  6 37  1  0
  7 38  1  0
  7 39  1  0
  8 40  1  0
  8 41  1  0
 13 42  1  0
 14 43  1  0
 14 44  1  0
 15 45  1  1
 16 46  1  0
 16 47  1  0
 17 48  1  0
 17 49  1  0
 18 50  1  0
 19 51  1  0
 19 52  1  0
 23 53  1  0
 23 54  1  0
 24 55  1  0
 24 56  1  0
 26 57  1  0
 27 58  1  0
 28 59  1  0
 29 60  1  0
 31 61  1  0
 31 62  1  0
 33 63  1  0
 33 64  1  0
M  END
>  <smiles>  (27) 
c1ccc2c(c1)CCN(c1nc(NCC3CCNC3)nc(N3CCc4ccccc4C3)n1)C2

>  <score_type>  (27) 
oracle

>  <origin>  (27) 
autodockgpu

>  <m_score__min__energy>  (27) 
-10.4

>  <m_primary>  (27) 
energy

>  <rmsd>  (27) 
10.765091677127314

>  <m_score__min__rmsd>  (27) 
10.765091677127314

>  <meeko>  (27) 
{"free_energy": -10.34, "intermolecular_energy": -11.83, "internal_energy": -1.02, "cluster_size": 50, "cluster_id": 1, "rank_in_cluster": 10}

>  <energy>  (27) 
-10.14

>  <cluster_rmsd>  (27) 
1.22

>  <cluster>  (27) 
1

$$$$

     RDKit          3D

 64 69  0  0  0  0  0  0  0  0999 V2000
  140.4640   80.0090  223.6520 C   0  0  0  0  0  0  0  0  0  0  0  0
  141.6470   79.8760  222.9360 C   0  0  0  0  0  0  0  0  0  0  0  0
  141.8140   78.7650  222.1560 C   0  0  0  0  0  0  0  0  0  0  0  0
  140.8340   77.7750  222.0670 C   0  0  0  0  0  0  0  0  0  0  0  0
  139.6560   77.8950  222.7730 C   0  0  0  0  0  0  0  0  0  0  0  0
  139.5170   79.0320  223.5520 C   0  0  0  0  0  0  0  0  0  0  0  0
  138.5820   76.8650  222.7080 C   0  0  0  0  0  0  0  0  0  0  0  0
  138.6970   76.1740  221.3640 C   0  0  0  0  0  0  0  0  0  0  0  0
  140.0510   75.6840  221.2730 N   0  0  0  0  0  0  0  0  0  0  0  0
  140.3330   74.2920  221.2690 C   0  0  0  0  0  0  0  0  0  0  0  0
  140.8390   73.7050  220.1590 N   0  0  0  0  0  0  0  0  0  0  0  0
  141.1080   72.3890  220.1520 C   0  0  0  0  0  0  0  0  0  0  0  0
  141.6480   71.7550  218.9710 N   0  0  0  0  0  0  0  0  0  0  0  0
  143.0400   71.8480  218.6610 C   0  0  0  0  0  0  0  0  0  0  0  0
  143.9630   71.4640  219.7770 C   0  0  2  0  0  0  0  0  0  0  0  0
  144.2070   72.7600  220.5600 C   0  0  0  0  0  0  0  0  0  0  0  0
  145.4270   73.2760  219.8210 C   0  0  0  0  0  0  0  0  0  0  0  0
  146.2590   72.0780  219.8470 N   0  0  0  0  0  0  0  0  0  0  0  0
  145.3280   71.0440  219.3840 C   0  0  0  0  0  0  0  0  0  0  0  0
  140.8730   71.6600  221.2450 N   0  0  0  0  0  0  0  0  0  0  0  0
  140.3720   72.2120  222.3630 C   0  0  0  0  0  0  0  0  0  0  0  0
  140.1130   71.4440  223.5500 N   0  0  0  0  0  0  0  0  0  0  0  0
  138.9470   70.5950  223.6080 C   0  0  0  0  0  0  0  0  0  0  0  0
  139.0980   69.4960  224.6380 C   0  0  0  0  0  0  0  0  0  0  0  0
  139.6240   70.0010  225.9240 C   0  0  0  0  0  0  0  0  0  0  0  0
  139.1600   69.4640  227.1220 C   0  0  0  0  0  0  0  0  0  0  0  0
  139.6560   69.9420  228.3180 C   0  0  0  0  0  0  0  0  0  0  0  0
  140.6040   70.9450  228.2920 C   0  0  0  0  0  0  0  0  0  0  0  0
  141.0510   71.4660  227.0810 C   0  0  0  0  0  0  0  0  0  0  0  0
  140.5600   70.9930  225.8970 C   0  0  0  0  0  0  0  0  0  0  0  0
  141.0650   71.5770  224.6400 C   0  0  0  0  0  0  0  0  0  0  0  0
  140.1080   73.5360  222.3500 N   0  0  0  0  0  0  0  0  0  0  0  0
  141.1480   76.6240  221.1840 C   0  0  0  0  0  0  0  0  0  0  0  0
  140.2934   80.8887  224.2899 H   0  0  0  0  0  0  0  0  0  0  0  0
  142.4306   80.6457  222.9950 H   0  0  0  0  0  0  0  0  0  0  0  0
  142.7459   78.6485  221.5833 H   0  0  0  0  0  0  0  0  0  0  0  0
  138.5861   79.1546  224.1250 H   0  0  0  0  0  0  0  0  0  0  0  0
  138.7130   76.1336  223.5191 H   0  0  0  0  0  0  0  0  0  0  0  0
  137.5914   77.3293  222.8223 H   0  0  0  0  0  0  0  0  0  0  0  0
  137.9849   75.3378  221.3039 H   0  0  0  0  0  0  0  0  0  0  0  0
  138.4663   76.8644  220.5393 H   0  0  0  0  0  0  0  0  0  0  0  0
  141.0020   71.2250  218.3430 H   0  0  0  0  0  0  0  0  0  0  0  0
  143.2444   71.1868  217.8060 H   0  0  0  0  0  0  0  0  0  0  0  0
  143.2380   72.9090  218.4488 H   0  0  0  0  0  0  0  0  0  0  0  0
  143.4831   70.6193  220.2931 H   0  0  0  0  0  0  0  0  0  0  0  0
  143.3564   73.4530  220.4810 H   0  0  0  0  0  0  0  0  0  0  0  0
  144.3369   72.6330  221.6449 H   0  0  0  0  0  0  0  0  0  0  0  0
  145.1832   73.5824  218.7930 H   0  0  0  0  0  0  0  0  0  0  0  0
  145.8900   74.1733  220.2575 H   0  0  0  0  0  0  0  0  0  0  0  0
  146.3890   71.8790  220.8810 H   0  0  0  0  0  0  0  0  0  0  0  0
  145.3901   70.9455  218.2902 H   0  0  0  0  0  0  0  0  0  0  0  0
  145.5772   70.0705  219.8315 H   0  0  0  0  0  0  0  0  0  0  0  0
  138.0728   71.2093  223.8693 H   0  0  0  0  0  0  0  0  0  0  0  0
  138.8205   70.1228  222.6226 H   0  0  0  0  0  0  0  0  0  0  0  0
  138.1134   69.0382  224.8138 H   0  0  0  0  0  0  0  0  0  0  0  0
  139.8174   68.7627  224.2448 H   0  0  0  0  0  0  0  0  0  0  0  0
  138.4040   68.6650  227.1152 H   0  0  0  0  0  0  0  0  0  0  0  0
  139.3021   69.5310  229.2750 H   0  0  0  0  0  0  0  0  0  0  0  0
  141.0099   71.3361  229.2366 H   0  0  0  0  0  0  0  0  0  0  0  0
  141.8063   72.2657  227.0773 H   0  0  0  0  0  0  0  0  0  0  0  0
  141.2694   72.6455  224.8031 H   0  0  0  0  0  0  0  0  0  0  0  0
  141.9783   71.0324  224.3583 H   0  0  0  0  0  0  0  0  0  0  0  0
  142.0804   76.1428  221.5142 H   0  0  0  0  0  0  0  0  0  0  0  0
  141.2802   76.9620  220.1456 H   0  0  0  0  0  0  0  0  0  0  0  0
  1  2  2  0
  2  3  1  0
  3  4  2  0
  4  5  1  0
  5  6  2  0
  5  7  1  0
  7  8  1  0
  8  9  1  0
  9 10  1  0
 10 11  2  0
 11 12  1  0
 12 13  1  0
 13 14  1  0
 14 15  1  0
 15 16  1  0
 16 17  1  0
 17 18  1  0
 18 19  1  0
 12 20  2  0
 20 21  1  0
 21 22  1  0
 22 23  1  0
 23 24  1  0
 24 25  1  0
 25 26  2  0
 26 27  1  0
 27 28  2  0
 28 29  1  0
 29 30  2  0
 30 31  1  0
 21 32  2  0
  9 33  1  0
  6  1  1  0
 32 10  1  0
 33  4  1  0
 19 15  1  0
 31 22  1  0
 30 25  1  0
  1 34  1  0
  2 35  1  0
  3 36  1  0
  6 37  1  0
  7 38  1  0
  7 39  1  0
  8 40  1  0
  8 41  1  0
 13 42  1  0
 14 43  1  0
 14 44  1  0
 15 45  1  1
 16 46  1  0
 16 47  1  0
 17 48  1  0
 17 49  1  0
 18 50  1  0
 19 51  1  0
 19 52  1  0
 23 53  1  0
 23 54  1  0
 24 55  1  0
 24 56  1  0
 26 57  1  0
 27 58  1  0
 28 59  1  0
 29 60  1  0
 31 61  1  0
 31 62  1  0
 33 63  1  0
 33 64  1  0
M  END
>  <smiles>  (28) 
c1ccc2c(c1)CCN(c1nc(NCC3CCNC3)nc(N3CCc4ccccc4C3)n1)C2

>  <score_type>  (28) 
oracle

>  <origin>  (28) 
autodockgpu

>  <m_score__min__energy>  (28) 
-10.4

>  <m_primary>  (28) 
energy

>  <rmsd>  (28) 
5.036678297499721

>  <m_score__min__rmsd>  (28) 
5.036678297499721

>  <meeko>  (28) 
{"free_energy": -10.14, "intermolecular_energy": -11.63, "internal_energy": -1.09, "cluster_size": 50, "cluster_id": 1, "rank_in_cluster": 27}

>  <energy>  (28) 
-10.13

>  <cluster_rmsd>  (28) 
1.04

>  <cluster>  (28) 
1

$$$$

     RDKit          3D

 64 69  0  0  0  0  0  0  0  0999 V2000
  140.5000   79.8720  223.5340 C   0  0  0  0  0  0  0  0  0  0  0  0
  141.6750   79.7510  222.8030 C   0  0  0  0  0  0  0  0  0  0  0  0
  141.8540   78.6280  222.0420 C   0  0  0  0  0  0  0  0  0  0  0  0
  140.8940   77.6160  221.9870 C   0  0  0  0  0  0  0  0  0  0  0  0
  139.7250   77.7240  222.7080 C   0  0  0  0  0  0  0  0  0  0  0  0
  139.5730   78.8730  223.4680 C   0  0  0  0  0  0  0  0  0  0  0  0
  138.6730   76.6700  222.6790 C   0  0  0  0  0  0  0  0  0  0  0  0
  138.7820   75.9560  221.3470 C   0  0  0  0  0  0  0  0  0  0  0  0
  140.1450   75.4940  221.2450 N   0  0  0  0  0  0  0  0  0  0  0  0
  140.4580   74.1080  221.2620 C   0  0  0  0  0  0  0  0  0  0  0  0
  141.0070   73.5220  220.1730 N   0  0  0  0  0  0  0  0  0  0  0  0
  141.3040   72.2120  220.1870 C   0  0  0  0  0  0  0  0  0  0  0  0
  141.8900   71.5790  219.0270 N   0  0  0  0  0  0  0  0  0  0  0  0
  143.3070   71.5430  218.8500 C   0  0  0  0  0  0  0  0  0  0  0  0
  144.0550   72.6650  219.5040 C   0  0  2  0  0  0  0  0  0  0  0  0
  144.1720   73.7500  218.4270 C   0  0  0  0  0  0  0  0  0  0  0  0
  145.4850   73.3370  217.7920 C   0  0  0  0  0  0  0  0  0  0  0  0
  146.3100   73.2110  218.9880 N   0  0  0  0  0  0  0  0  0  0  0  0
  145.4650   72.3920  219.8630 C   0  0  0  0  0  0  0  0  0  0  0  0
  141.0550   71.4890  221.2800 N   0  0  0  0  0  0  0  0  0  0  0  0
  140.5120   72.0400  222.3780 C   0  0  0  0  0  0  0  0  0  0  0  0
  140.2360   71.2790  223.5660 N   0  0  0  0  0  0  0  0  0  0  0  0
  139.1750   70.3010  223.5540 C   0  0  0  0  0  0  0  0  0  0  0  0
  139.3570   69.2540  224.6320 C   0  0  0  0  0  0  0  0  0  0  0  0
  139.7050   69.8510  225.9390 C   0  0  0  0  0  0  0  0  0  0  0  0
  139.2000   69.2940  227.1120 C   0  0  0  0  0  0  0  0  0  0  0  0
  139.5290   69.8570  228.3280 C   0  0  0  0  0  0  0  0  0  0  0  0
  140.3540   70.9640  228.3480 C   0  0  0  0  0  0  0  0  0  0  0  0
  140.8460   71.5020  227.1610 C   0  0  0  0  0  0  0  0  0  0  0  0
  140.5200   70.9440  225.9570 C   0  0  0  0  0  0  0  0  0  0  0  0
  141.0650   71.5500  224.7280 C   0  0  0  0  0  0  0  0  0  0  0  0
  140.2200   73.3580  222.3450 N   0  0  0  0  0  0  0  0  0  0  0  0
  141.2200   76.4550  221.1210 C   0  0  0  0  0  0  0  0  0  0  0  0
  140.3195   80.7604  224.1571 H   0  0  0  0  0  0  0  0  0  0  0  0
  142.4425   80.5384  222.8351 H   0  0  0  0  0  0  0  0  0  0  0  0
  142.7796   78.5197  221.4576 H   0  0  0  0  0  0  0  0  0  0  0  0
  138.6488   78.9864  224.0536 H   0  0  0  0  0  0  0  0  0  0  0  0
  138.8324   75.9573  223.5016 H   0  0  0  0  0  0  0  0  0  0  0  0
  137.6744   77.1152  222.8000 H   0  0  0  0  0  0  0  0  0  0  0  0
  138.0875   75.1036  221.3139 H   0  0  0  0  0  0  0  0  0  0  0  0
  138.5232   76.6247  220.5128 H   0  0  0  0  0  0  0  0  0  0  0  0
  141.2580   71.1450  218.3160 H   0  0  0  0  0  0  0  0  0  0  0  0
  143.6792   70.5957  219.2673 H   0  0  0  0  0  0  0  0  0  0  0  0
  143.4848   71.6435  217.7691 H   0  0  0  0  0  0  0  0  0  0  0  0
  143.5080   72.8978  220.4295 H   0  0  0  0  0  0  0  0  0  0  0  0
  143.3388   73.7072  217.7101 H   0  0  0  0  0  0  0  0  0  0  0  0
  144.1391   74.7841  218.8007 H   0  0  0  0  0  0  0  0  0  0  0  0
  145.3965   72.3819  217.2536 H   0  0  0  0  0  0  0  0  0  0  0  0
  145.8720   74.0301  217.0306 H   0  0  0  0  0  0  0  0  0  0  0  0
  146.2850   74.1790  219.4200 H   0  0  0  0  0  0  0  0  0  0  0  0
  145.6910   71.3260  219.7127 H   0  0  0  0  0  0  0  0  0  0  0  0
  145.6498   72.6368  220.9194 H   0  0  0  0  0  0  0  0  0  0  0  0
  138.2162   70.8151  223.7164 H   0  0  0  0  0  0  0  0  0  0  0  0
  139.1931   69.7918  222.5791 H   0  0  0  0  0  0  0  0  0  0  0  0
  138.4190   68.6895  224.7392 H   0  0  0  0  0  0  0  0  0  0  0  0
  140.1870   68.5988  224.3289 H   0  0  0  0  0  0  0  0  0  0  0  0
  138.5440   68.4121  227.0690 H   0  0  0  0  0  0  0  0  0  0  0  0
  139.1408   69.4314  229.2651 H   0  0  0  0  0  0  0  0  0  0  0  0
  140.6250   71.4249  229.3093 H   0  0  0  0  0  0  0  0  0  0  0  0
  141.5027   72.3838  227.1932 H   0  0  0  0  0  0  0  0  0  0  0  0
  141.1309   72.6389  224.8695 H   0  0  0  0  0  0  0  0  0  0  0  0
  142.0557   71.1083  224.5454 H   0  0  0  0  0  0  0  0  0  0  0  0
  142.1675   76.0004  221.4459 H   0  0  0  0  0  0  0  0  0  0  0  0
  141.3296   76.7755  220.0745 H   0  0  0  0  0  0  0  0  0  0  0  0
  1  2  2  0
  2  3  1  0
  3  4  2  0
  4  5  1  0
  5  6  2  0
  5  7  1  0
  7  8  1  0
  8  9  1  0
  9 10  1  0
 10 11  2  0
 11 12  1  0
 12 13  1  0
 13 14  1  0
 14 15  1  0
 15 16  1  0
 16 17  1  0
 17 18  1  0
 18 19  1  0
 12 20  2  0
 20 21  1  0
 21 22  1  0
 22 23  1  0
 23 24  1  0
 24 25  1  0
 25 26  2  0
 26 27  1  0
 27 28  2  0
 28 29  1  0
 29 30  2  0
 30 31  1  0
 21 32  2  0
  9 33  1  0
  6  1  1  0
 32 10  1  0
 33  4  1  0
 19 15  1  0
 31 22  1  0
 30 25  1  0
  1 34  1  0
  2 35  1  0
  3 36  1  0
  6 37  1  0
  7 38  1  0
  7 39  1  0
  8 40  1  0
  8 41  1  0
 13 42  1  0
 14 43  1  0
 14 44  1  0
 15 45  1  1
 16 46  1  0
 16 47  1  0
 17 48  1  0
 17 49  1  0
 18 50  1  0
 19 51  1  0
 19 52  1  0
 23 53  1  0
 23 54  1  0
 24 55  1  0
 24 56  1  0
 26 57  1  0
 27 58  1  0
 28 59  1  0
 29 60  1  0
 31 61  1  0
 31 62  1  0
 33 63  1  0
 33 64  1  0
M  END
>  <smiles>  (29) 
c1ccc2c(c1)CCN(c1nc(NCC3CCNC3)nc(N3CCc4ccccc4C3)n1)C2

>  <score_type>  (29) 
oracle

>  <origin>  (29) 
autodockgpu

>  <m_score__min__energy>  (29) 
-10.4

>  <m_primary>  (29) 
energy

>  <rmsd>  (29) 
4.987604591876489

>  <m_score__min__rmsd>  (29) 
4.987604591876489

>  <meeko>  (29) 
{"free_energy": -10.16, "intermolecular_energy": -11.65, "internal_energy": -1.09, "cluster_size": 50, "cluster_id": 1, "rank_in_cluster": 26}

>  <energy>  (29) 
-10.13

>  <cluster_rmsd>  (29) 
0.78

>  <cluster>  (29) 
1

$$$$

     RDKit          3D

 64 69  0  0  0  0  0  0  0  0999 V2000
  140.5300   79.9030  223.5440 C   0  0  0  0  0  0  0  0  0  0  0  0
  141.6960   79.7650  222.8020 C   0  0  0  0  0  0  0  0  0  0  0  0
  141.8510   78.6410  222.0380 C   0  0  0  0  0  0  0  0  0  0  0  0
  140.8750   77.6440  221.9890 C   0  0  0  0  0  0  0  0  0  0  0  0
  139.7140   77.7700  222.7210 C   0  0  0  0  0  0  0  0  0  0  0  0
  139.5870   78.9190  223.4840 C   0  0  0  0  0  0  0  0  0  0  0  0
  138.6450   76.7320  222.7000 C   0  0  0  0  0  0  0  0  0  0  0  0
  138.7310   76.0190  221.3650 C   0  0  0  0  0  0  0  0  0  0  0  0
  140.0850   75.5350  221.2500 N   0  0  0  0  0  0  0  0  0  0  0  0
  140.3760   74.1450  221.2620 C   0  0  0  0  0  0  0  0  0  0  0  0
  140.8940   73.5500  220.1630 N   0  0  0  0  0  0  0  0  0  0  0  0
  141.1700   72.2350  220.1720 C   0  0  0  0  0  0  0  0  0  0  0  0
  141.7240   71.5930  219.0010 N   0  0  0  0  0  0  0  0  0  0  0  0
  143.0910   71.7880  218.6360 C   0  0  0  0  0  0  0  0  0  0  0  0
  144.0900   71.3500  219.6630 C   0  0  2  0  0  0  0  0  0  0  0  0
  144.2220   72.5360  220.6250 C   0  0  0  0  0  0  0  0  0  0  0  0
  145.3520   73.2860  219.9470 C   0  0  0  0  0  0  0  0  0  0  0  0
  146.3080   72.1970  219.7780 N   0  0  0  0  0  0  0  0  0  0  0  0
  145.4760   71.1450  219.1850 C   0  0  0  0  0  0  0  0  0  0  0  0
  140.9320   71.5160  221.2700 N   0  0  0  0  0  0  0  0  0  0  0  0
  140.4190   72.0770  222.3790 C   0  0  0  0  0  0  0  0  0  0  0  0
  140.1550   71.3200  223.5720 N   0  0  0  0  0  0  0  0  0  0  0  0
  139.0290   70.4180  223.6080 C   0  0  0  0  0  0  0  0  0  0  0  0
  139.1950   69.3470  224.6640 C   0  0  0  0  0  0  0  0  0  0  0  0
  139.6520   69.9000  225.9560 C   0  0  0  0  0  0  0  0  0  0  0  0
  139.1720   69.3640  227.1490 C   0  0  0  0  0  0  0  0  0  0  0  0
  139.6030   69.8870  228.3510 C   0  0  0  0  0  0  0  0  0  0  0  0
  140.5040   70.9340  228.3370 C   0  0  0  0  0  0  0  0  0  0  0  0
  140.9680   71.4530  227.1310 C   0  0  0  0  0  0  0  0  0  0  0  0
  140.5400   70.9340  225.9410 C   0  0  0  0  0  0  0  0  0  0  0  0
  141.0610   71.5180  224.6910 C   0  0  0  0  0  0  0  0  0  0  0  0
  140.1470   73.3990  222.3500 N   0  0  0  0  0  0  0  0  0  0  0  0
  141.1740   76.4800  221.1180 C   0  0  0  0  0  0  0  0  0  0  0  0
  140.3693   80.7926  224.1708 H   0  0  0  0  0  0  0  0  0  0  0  0
  142.4756   80.5405  222.8281 H   0  0  0  0  0  0  0  0  0  0  0  0
  142.7700   78.5193  221.4459 H   0  0  0  0  0  0  0  0  0  0  0  0
  138.6698   79.0458  224.0778 H   0  0  0  0  0  0  0  0  0  0  0  0
  138.8009   76.0152  223.5197 H   0  0  0  0  0  0  0  0  0  0  0  0
  137.6545   77.1921  222.8313 H   0  0  0  0  0  0  0  0  0  0  0  0
  138.0224   75.1781  221.3361 H   0  0  0  0  0  0  0  0  0  0  0  0
  138.4762   76.6939  220.5346 H   0  0  0  0  0  0  0  0  0  0  0  0
  141.1050   70.9780  218.4230 H   0  0  0  0  0  0  0  0  0  0  0  0
  143.2814   71.2223  217.7120 H   0  0  0  0  0  0  0  0  0  0  0  0
  143.2260   72.8735  218.5197 H   0  0  0  0  0  0  0  0  0  0  0  0
  143.7224   70.3909  220.0567 H   0  0  0  0  0  0  0  0  0  0  0  0
  143.2999   73.1344  220.6672 H   0  0  0  0  0  0  0  0  0  0  0  0
  144.4036   72.2674  221.6761 H   0  0  0  0  0  0  0  0  0  0  0  0
  145.0399   73.7097  218.9811 H   0  0  0  0  0  0  0  0  0  0  0  0
  145.7318   74.1559  220.5028 H   0  0  0  0  0  0  0  0  0  0  0  0
  146.4950   71.8640  220.7670 H   0  0  0  0  0  0  0  0  0  0  0  0
  145.5088   71.2144  218.0877 H   0  0  0  0  0  0  0  0  0  0  0  0
  145.8431   70.1502  219.4776 H   0  0  0  0  0  0  0  0  0  0  0  0
  138.1185   70.9950  223.8272 H   0  0  0  0  0  0  0  0  0  0  0  0
  138.9592   69.9220  222.6287 H   0  0  0  0  0  0  0  0  0  0  0  0
  138.2272   68.8467  224.8157 H   0  0  0  0  0  0  0  0  0  0  0  0
  139.9608   68.6410  224.3102 H   0  0  0  0  0  0  0  0  0  0  0  0
  138.4548   68.5301  227.1329 H   0  0  0  0  0  0  0  0  0  0  0  0
  139.2356   69.4774  229.3035 H   0  0  0  0  0  0  0  0  0  0  0  0
  140.8580   71.3614  229.2867 H   0  0  0  0  0  0  0  0  0  0  0  0
  141.6848   72.2874  227.1360 H   0  0  0  0  0  0  0  0  0  0  0  0
  141.2094   72.5978  224.8396 H   0  0  0  0  0  0  0  0  0  0  0  0
  142.0081   71.0124  224.4516 H   0  0  0  0  0  0  0  0  0  0  0  0
  142.1173   76.0099  221.4330 H   0  0  0  0  0  0  0  0  0  0  0  0
  141.2783   76.8012  220.0711 H   0  0  0  0  0  0  0  0  0  0  0  0
  1  2  2  0
  2  3  1  0
  3  4  2  0
  4  5  1  0
  5  6  2  0
  5  7  1  0
  7  8  1  0
  8  9  1  0
  9 10  1  0
 10 11  2  0
 11 12  1  0
 12 13  1  0
 13 14  1  0
 14 15  1  0
 15 16  1  0
 16 17  1  0
 17 18  1  0
 18 19  1  0
 12 20  2  0
 20 21  1  0
 21 22  1  0
 22 23  1  0
 23 24  1  0
 24 25  1  0
 25 26  2  0
 26 27  1  0
 27 28  2  0
 28 29  1  0
 29 30  2  0
 30 31  1  0
 21 32  2  0
  9 33  1  0
  6  1  1  0
 32 10  1  0
 33  4  1  0
 19 15  1  0
 31 22  1  0
 30 25  1  0
  1 34  1  0
  2 35  1  0
  3 36  1  0
  6 37  1  0
  7 38  1  0
  7 39  1  0
  8 40  1  0
  8 41  1  0
 13 42  1  0
 14 43  1  0
 14 44  1  0
 15 45  1  1
 16 46  1  0
 16 47  1  0
 17 48  1  0
 17 49  1  0
 18 50  1  0
 19 51  1  0
 19 52  1  0
 23 53  1  0
 23 54  1  0
 24 55  1  0
 24 56  1  0
 26 57  1  0
 27 58  1  0
 28 59  1  0
 29 60  1  0
 31 61  1  0
 31 62  1  0
 33 63  1  0
 33 64  1  0
M  END
>  <smiles>  (30) 
c1ccc2c(c1)CCN(c1nc(NCC3CCNC3)nc(N3CCc4ccccc4C3)n1)C2

>  <score_type>  (30) 
oracle

>  <origin>  (30) 
autodockgpu

>  <m_score__min__energy>  (30) 
-10.4

>  <m_primary>  (30) 
energy

>  <rmsd>  (30) 
5.002018733299129

>  <m_score__min__rmsd>  (30) 
5.002018733299129

>  <meeko>  (30) 
{"free_energy": -10.24, "intermolecular_energy": -11.73, "internal_energy": -1.07, "cluster_size": 50, "cluster_id": 1, "rank_in_cluster": 17}

>  <energy>  (30) 
-10.12

>  <cluster_rmsd>  (30) 
1.22

>  <cluster>  (30) 
1

$$$$

     RDKit          3D

 64 69  0  0  0  0  0  0  0  0999 V2000
  140.2720   68.2690  227.0000 C   0  0  0  0  0  0  0  0  0  0  0  0
  140.9980   69.3500  227.4850 C   0  0  0  0  0  0  0  0  0  0  0  0
  141.0440   70.4910  226.7330 C   0  0  0  0  0  0  0  0  0  0  0  0
  140.3860   70.5910  225.5060 C   0  0  0  0  0  0  0  0  0  0  0  0
  139.6630   69.5260  225.0150 C   0  0  0  0  0  0  0  0  0  0  0  0
  139.6350   68.3840  225.8000 C   0  0  0  0  0  0  0  0  0  0  0  0
  138.9450   69.5860  223.7110 C   0  0  0  0  0  0  0  0  0  0  0  0
  138.5930   71.0380  223.4530 C   0  0  0  0  0  0  0  0  0  0  0  0
  139.8310   71.7750  223.5290 N   0  0  0  0  0  0  0  0  0  0  0  0
  140.3920   72.3960  222.3820 C   0  0  0  0  0  0  0  0  0  0  0  0
  140.7740   71.6460  221.3220 N   0  0  0  0  0  0  0  0  0  0  0  0
  141.3050   72.2320  220.2350 C   0  0  0  0  0  0  0  0  0  0  0  0
  141.7160   71.4370  219.1000 N   0  0  0  0  0  0  0  0  0  0  0  0
  143.0760   71.4330  218.6620 C   0  0  0  0  0  0  0  0  0  0  0  0
  144.0800   71.0910  219.7200 C   0  0  2  0  0  0  0  0  0  0  0  0
  144.2770   72.3850  220.5190 C   0  0  0  0  0  0  0  0  0  0  0  0
  145.4180   72.9980  219.7320 C   0  0  0  0  0  0  0  0  0  0  0  0
  146.3290   71.8600  219.6880 N   0  0  0  0  0  0  0  0  0  0  0  0
  145.4480   70.7740  219.2490 C   0  0  0  0  0  0  0  0  0  0  0  0
  141.4540   73.5570  220.2040 N   0  0  0  0  0  0  0  0  0  0  0  0
  141.0840   74.3300  221.2380 C   0  0  0  0  0  0  0  0  0  0  0  0
  141.2360   75.7590  221.2240 N   0  0  0  0  0  0  0  0  0  0  0  0
  141.8940   76.3940  220.1070 C   0  0  0  0  0  0  0  0  0  0  0  0
  141.5080   77.8520  219.9760 C   0  0  0  0  0  0  0  0  0  0  0  0
  141.5540   78.5610  221.2720 C   0  0  0  0  0  0  0  0  0  0  0  0
  141.9870   79.8840  221.3240 C   0  0  0  0  0  0  0  0  0  0  0  0
  142.0270   80.5390  222.5380 C   0  0  0  0  0  0  0  0  0  0  0  0
  141.6340   79.8600  223.6740 C   0  0  0  0  0  0  0  0  0  0  0  0
  141.2050   78.5380  223.5960 C   0  0  0  0  0  0  0  0  0  0  0  0
  141.1660   77.8890  222.3930 C   0  0  0  0  0  0  0  0  0  0  0  0
  140.7040   76.4890  222.3630 C   0  0  0  0  0  0  0  0  0  0  0  0
  140.5530   73.7240  222.3220 N   0  0  0  0  0  0  0  0  0  0  0  0
  140.5210   71.8880  224.7980 C   0  0  0  0  0  0  0  0  0  0  0  0
  140.2121   67.3338  227.5760 H   0  0  0  0  0  0  0  0  0  0  0  0
  141.5226   69.2893  228.4499 H   0  0  0  0  0  0  0  0  0  0  0  0
  141.6154   71.3541  227.1053 H   0  0  0  0  0  0  0  0  0  0  0  0
  139.0644   67.5182  225.4327 H   0  0  0  0  0  0  0  0  0  0  0  0
  139.5936   69.2079  222.9070 H   0  0  0  0  0  0  0  0  0  0  0  0
  138.0371   68.9655  223.7389 H   0  0  0  0  0  0  0  0  0  0  0  0
  138.1442   71.1495  222.4549 H   0  0  0  0  0  0  0  0  0  0  0  0
  137.8618   71.4083  224.1866 H   0  0  0  0  0  0  0  0  0  0  0  0
  141.0000   70.8610  218.6020 H   0  0  0  0  0  0  0  0  0  0  0  0
  143.1711   70.6967  217.8503 H   0  0  0  0  0  0  0  0  0  0  0  0
  143.3006   72.4624  218.3458 H   0  0  0  0  0  0  0  0  0  0  0  0
  143.6858   70.2052  220.2395 H   0  0  0  0  0  0  0  0  0  0  0  0
  143.3785   73.0194  220.4996 H   0  0  0  0  0  0  0  0  0  0  0  0
  144.4722   72.2457  221.5925 H   0  0  0  0  0  0  0  0  0  0  0  0
  145.1008   73.3072  218.7251 H   0  0  0  0  0  0  0  0  0  0  0  0
  145.8413   73.9163  220.1651 H   0  0  0  0  0  0  0  0  0  0  0  0
  146.5260   71.6500  220.7090 H   0  0  0  0  0  0  0  0  0  0  0  0
  145.4597   70.7016  218.1514 H   0  0  0  0  0  0  0  0  0  0  0  0
  145.7856   69.8114  219.6607 H   0  0  0  0  0  0  0  0  0  0  0  0
  142.9825   76.3262  220.2506 H   0  0  0  0  0  0  0  0  0  0  0  0
  141.5810   75.8757  219.1886 H   0  0  0  0  0  0  0  0  0  0  0  0
  142.2047   78.3416  219.2796 H   0  0  0  0  0  0  0  0  0  0  0  0
  140.4736   77.8951  219.6044 H   0  0  0  0  0  0  0  0  0  0  0  0
  142.2948   80.4028  220.4042 H   0  0  0  0  0  0  0  0  0  0  0  0
  142.3660   81.5837  222.5995 H   0  0  0  0  0  0  0  0  0  0  0  0
  141.6601   80.3681  224.6493 H   0  0  0  0  0  0  0  0  0  0  0  0
  140.8946   78.0108  224.5102 H   0  0  0  0  0  0  0  0  0  0  0  0
  141.0290   75.9889  223.2873 H   0  0  0  0  0  0  0  0  0  0  0  0
  139.6074   76.4973  222.2763 H   0  0  0  0  0  0  0  0  0  0  0  0
  141.5843   72.1118  224.6269 H   0  0  0  0  0  0  0  0  0  0  0  0
  140.0875   72.7005  225.3995 H   0  0  0  0  0  0  0  0  0  0  0  0
  1  2  2  0
  2  3  1  0
  3  4  2  0
  4  5  1  0
  5  6  2  0
  5  7  1  0
  7  8  1  0
  8  9  1  0
  9 10  1  0
 10 11  2  0
 11 12  1  0
 12 13  1  0
 13 14  1  0
 14 15  1  0
 15 16  1  0
 16 17  1  0
 17 18  1  0
 18 19  1  0
 12 20  2  0
 20 21  1  0
 21 22  1  0
 22 23  1  0
 23 24  1  0
 24 25  1  0
 25 26  2  0
 26 27  1  0
 27 28  2  0
 28 29  1  0
 29 30  2  0
 30 31  1  0
 21 32  2  0
  9 33  1  0
  6  1  1  0
 32 10  1  0
 33  4  1  0
 19 15  1  0
 31 22  1  0
 30 25  1  0
  1 34  1  0
  2 35  1  0
  3 36  1  0
  6 37  1  0
  7 38  1  0
  7 39  1  0
  8 40  1  0
  8 41  1  0
 13 42  1  0
 14 43  1  0
 14 44  1  0
 15 45  1  1
 16 46  1  0
 16 47  1  0
 17 48  1  0
 17 49  1  0
 18 50  1  0
 19 51  1  0
 19 52  1  0
 23 53  1  0
 23 54  1  0
 24 55  1  0
 24 56  1  0
 26 57  1  0
 27 58  1  0
 28 59  1  0
 29 60  1  0
 31 61  1  0
 31 62  1  0
 33 63  1  0
 33 64  1  0
M  END
>  <smiles>  (31) 
c1ccc2c(c1)CCN(c1nc(NCC3CCNC3)nc(N3CCc4ccccc4C3)n1)C2

>  <score_type>  (31) 
oracle

>  <origin>  (31) 
autodockgpu

>  <m_score__min__energy>  (31) 
-10.4

>  <m_primary>  (31) 
energy

>  <rmsd>  (31) 
10.808823320793707

>  <m_score__min__rmsd>  (31) 
10.808823320793707

>  <meeko>  (31) 
{"free_energy": -10.29, "intermolecular_energy": -11.78, "internal_energy": -1.01, "cluster_size": 50, "cluster_id": 1, "rank_in_cluster": 14}

>  <energy>  (31) 
-10.11

>  <cluster_rmsd>  (31) 
1.02

>  <cluster>  (31) 
1

$$$$

     RDKit          3D

 64 69  0  0  0  0  0  0  0  0999 V2000
  140.1360   68.1840  226.9280 C   0  0  0  0  0  0  0  0  0  0  0  0
  140.9440   69.1980  227.4270 C   0  0  0  0  0  0  0  0  0  0  0  0
  141.0550   70.3540  226.7060 C   0  0  0  0  0  0  0  0  0  0  0  0
  140.3830   70.5340  225.4950 C   0  0  0  0  0  0  0  0  0  0  0  0
  139.5800   69.5360  224.9890 C   0  0  0  0  0  0  0  0  0  0  0  0
  139.4870   68.3770  225.7440 C   0  0  0  0  0  0  0  0  0  0  0  0
  138.8440   69.6830  223.7030 C   0  0  0  0  0  0  0  0  0  0  0  0
  138.5890   71.1620  223.4920 C   0  0  0  0  0  0  0  0  0  0  0  0
  139.8760   71.8100  223.5630 N   0  0  0  0  0  0  0  0  0  0  0  0
  140.4580   72.4240  222.4220 C   0  0  0  0  0  0  0  0  0  0  0  0
  140.9070   71.6630  221.3970 N   0  0  0  0  0  0  0  0  0  0  0  0
  141.4570   72.2410  220.3160 C   0  0  0  0  0  0  0  0  0  0  0  0
  141.9400   71.4350  219.2170 N   0  0  0  0  0  0  0  0  0  0  0  0
  143.3300   71.3970  218.8910 C   0  0  0  0  0  0  0  0  0  0  0  0
  144.1490   72.5050  219.4810 C   0  0  2  0  0  0  0  0  0  0  0  0
  144.1020   73.6340  218.4440 C   0  0  0  0  0  0  0  0  0  0  0  0
  145.3190   73.2680  217.6180 C   0  0  0  0  0  0  0  0  0  0  0  0
  146.3040   73.1090  218.6820 N   0  0  0  0  0  0  0  0  0  0  0  0
  145.5980   72.2420  219.6300 C   0  0  0  0  0  0  0  0  0  0  0  0
  141.5600   73.5700  220.2560 N   0  0  0  0  0  0  0  0  0  0  0  0
  141.1230   74.3540  221.2560 C   0  0  0  0  0  0  0  0  0  0  0  0
  141.2230   75.7870  221.2120 N   0  0  0  0  0  0  0  0  0  0  0  0
  141.8270   76.4220  220.0650 C   0  0  0  0  0  0  0  0  0  0  0  0
  141.3860   77.8630  219.9180 C   0  0  0  0  0  0  0  0  0  0  0  0
  141.4430   78.5980  221.1990 C   0  0  0  0  0  0  0  0  0  0  0  0
  141.8310   79.9370  221.2140 C   0  0  0  0  0  0  0  0  0  0  0  0
  141.8820   80.6160  222.4140 C   0  0  0  0  0  0  0  0  0  0  0  0
  141.5450   79.9460  223.5730 C   0  0  0  0  0  0  0  0  0  0  0  0
  141.1610   78.6080  223.5320 C   0  0  0  0  0  0  0  0  0  0  0  0
  141.1110   77.9350  222.3430 C   0  0  0  0  0  0  0  0  0  0  0  0
  140.6990   76.5190  222.3510 C   0  0  0  0  0  0  0  0  0  0  0  0
  140.5730   73.7540  222.3340 N   0  0  0  0  0  0  0  0  0  0  0  0
  140.5950   71.8390  224.8200 C   0  0  0  0  0  0  0  0  0  0  0  0
  140.0213   67.2393  227.4797 H   0  0  0  0  0  0  0  0  0  0  0  0
  141.4812   69.0737  228.3788 H   0  0  0  0  0  0  0  0  0  0  0  0
  141.6912   71.1649  227.0902 H   0  0  0  0  0  0  0  0  0  0  0  0
  138.8510   67.5634  225.3651 H   0  0  0  0  0  0  0  0  0  0  0  0
  139.4495   69.2843  222.8757 H   0  0  0  0  0  0  0  0  0  0  0  0
  137.8958   69.1262  223.7329 H   0  0  0  0  0  0  0  0  0  0  0  0
  138.1308   71.3325  222.5066 H   0  0  0  0  0  0  0  0  0  0  0  0
  137.8989   71.5604  224.2503 H   0  0  0  0  0  0  0  0  0  0  0  0
  141.2520   70.8770  218.6620 H   0  0  0  0  0  0  0  0  0  0  0  0
  143.7390   70.4414  219.2508 H   0  0  0  0  0  0  0  0  0  0  0  0
  143.3933   71.5154  217.7992 H   0  0  0  0  0  0  0  0  0  0  0  0
  143.7338   72.6918  220.4824 H   0  0  0  0  0  0  0  0  0  0  0  0
  143.1780   73.6051  217.8479 H   0  0  0  0  0  0  0  0  0  0  0  0
  144.1085   74.6521  218.8605 H   0  0  0  0  0  0  0  0  0  0  0  0
  145.1672   72.3333  217.0583 H   0  0  0  0  0  0  0  0  0  0  0  0
  145.5890   73.9971  216.8398 H   0  0  0  0  0  0  0  0  0  0  0  0
  146.3280   74.0590  219.1530 H   0  0  0  0  0  0  0  0  0  0  0  0
  145.8130   71.1868  219.4056 H   0  0  0  0  0  0  0  0  0  0  0  0
  145.9248   72.4478  220.6600 H   0  0  0  0  0  0  0  0  0  0  0  0
  142.9208   76.3950  220.1788 H   0  0  0  0  0  0  0  0  0  0  0  0
  141.5074   75.8750  219.1657 H   0  0  0  0  0  0  0  0  0  0  0  0
  142.0452   78.3630  219.1931 H   0  0  0  0  0  0  0  0  0  0  0  0
  140.3408   77.8629  219.5751 H   0  0  0  0  0  0  0  0  0  0  0  0
  142.0944   80.4482  220.2763 H   0  0  0  0  0  0  0  0  0  0  0  0
  142.1859   81.6727  222.4466 H   0  0  0  0  0  0  0  0  0  0  0  0
  141.5801   80.4737  224.5375 H   0  0  0  0  0  0  0  0  0  0  0  0
  140.8956   78.0881  224.4644 H   0  0  0  0  0  0  0  0  0  0  0  0
  141.0679   76.0483  223.2743 H   0  0  0  0  0  0  0  0  0  0  0  0
  139.6009   76.4874  222.2954 H   0  0  0  0  0  0  0  0  0  0  0  0
  141.6680   71.9938  224.6337 H   0  0  0  0  0  0  0  0  0  0  0  0
  140.2301   72.6620  225.4521 H   0  0  0  0  0  0  0  0  0  0  0  0
  1  2  2  0
  2  3  1  0
  3  4  2  0
  4  5  1  0
  5  6  2  0
  5  7  1  0
  7  8  1  0
  8  9  1  0
  9 10  1  0
 10 11  2  0
 11 12  1  0
 12 13  1  0
 13 14  1  0
 14 15  1  0
 15 16  1  0
 16 17  1  0
 17 18  1  0
 18 19  1  0
 12 20  2  0
 20 21  1  0
 21 22  1  0
 22 23  1  0
 23 24  1  0
 24 25  1  0
 25 26  2  0
 26 27  1  0
 27 28  2  0
 28 29  1  0
 29 30  2  0
 30 31  1  0
 21 32  2  0
  9 33  1  0
  6  1  1  0
 32 10  1  0
 33  4  1  0
 19 15  1  0
 31 22  1  0
 30 25  1  0
  1 34  1  0
  2 35  1  0
  3 36  1  0
  6 37  1  0
  7 38  1  0
  7 39  1  0
  8 40  1  0
  8 41  1  0
 13 42  1  0
 14 43  1  0
 14 44  1  0
 15 45  1  1
 16 46  1  0
 16 47  1  0
 17 48  1  0
 17 49  1  0
 18 50  1  0
 19 51  1  0
 19 52  1  0
 23 53  1  0
 23 54  1  0
 24 55  1  0
 24 56  1  0
 26 57  1  0
 27 58  1  0
 28 59  1  0
 29 60  1  0
 31 61  1  0
 31 62  1  0
 33 63  1  0
 33 64  1  0
M  END
>  <smiles>  (32) 
c1ccc2c(c1)CCN(c1nc(NCC3CCNC3)nc(N3CCc4ccccc4C3)n1)C2

>  <score_type>  (32) 
oracle

>  <origin>  (32) 
autodockgpu

>  <m_score__min__energy>  (32) 
-10.4

>  <m_primary>  (32) 
energy

>  <rmsd>  (32) 
10.838369102829887

>  <m_score__min__rmsd>  (32) 
10.838369102829887

>  <meeko>  (32) 
{"free_energy": -10.37, "intermolecular_energy": -11.86, "internal_energy": -1.06, "cluster_size": 50, "cluster_id": 1, "rank_in_cluster": 6}

>  <energy>  (32) 
-10.07

>  <cluster_rmsd>  (32) 
1.02

>  <cluster>  (32) 
1

$$$$

     RDKit          3D

 64 69  0  0  0  0  0  0  0  0999 V2000
  139.9920   68.1080  226.9690 C   0  0  0  0  0  0  0  0  0  0  0  0
  140.8130   69.1080  227.4730 C   0  0  0  0  0  0  0  0  0  0  0  0
  140.9540   70.2600  226.7490 C   0  0  0  0  0  0  0  0  0  0  0  0
  140.2990   70.4480  225.5300 C   0  0  0  0  0  0  0  0  0  0  0  0
  139.4830   69.4620  225.0190 C   0  0  0  0  0  0  0  0  0  0  0  0
  139.3600   68.3080  225.7760 C   0  0  0  0  0  0  0  0  0  0  0  0
  138.7640   69.6180  223.7230 C   0  0  0  0  0  0  0  0  0  0  0  0
  138.5400   71.1010  223.5040 C   0  0  0  0  0  0  0  0  0  0  0  0
  139.8380   71.7250  223.5880 N   0  0  0  0  0  0  0  0  0  0  0  0
  140.4440   72.3230  222.4510 C   0  0  0  0  0  0  0  0  0  0  0  0
  140.9210   71.5490  221.4490 N   0  0  0  0  0  0  0  0  0  0  0  0
  141.4950   72.1120  220.3730 C   0  0  0  0  0  0  0  0  0  0  0  0
  142.0070   71.2910  219.2990 N   0  0  0  0  0  0  0  0  0  0  0  0
  143.3920   71.3210  218.9510 C   0  0  0  0  0  0  0  0  0  0  0  0
  144.1640   72.4710  219.5230 C   0  0  2  0  0  0  0  0  0  0  0  0
  144.1030   73.5670  218.4510 C   0  0  0  0  0  0  0  0  0  0  0  0
  145.3480   73.2150  217.6600 C   0  0  0  0  0  0  0  0  0  0  0  0
  146.3150   73.1190  218.7480 N   0  0  0  0  0  0  0  0  0  0  0  0
  145.6170   72.2590  219.7080 C   0  0  0  0  0  0  0  0  0  0  0  0
  141.5920   73.4400  220.2940 N   0  0  0  0  0  0  0  0  0  0  0  0
  141.1270   74.2380  221.2710 C   0  0  0  0  0  0  0  0  0  0  0  0
  141.2220   75.6710  221.2050 N   0  0  0  0  0  0  0  0  0  0  0  0
  141.8240   76.2910  220.0500 C   0  0  0  0  0  0  0  0  0  0  0  0
  141.3780   77.7280  219.8820 C   0  0  0  0  0  0  0  0  0  0  0  0
  141.4310   78.4830  221.1520 C   0  0  0  0  0  0  0  0  0  0  0  0
  141.8130   79.8220  221.1480 C   0  0  0  0  0  0  0  0  0  0  0  0
  141.8600   80.5190  222.3380 C   0  0  0  0  0  0  0  0  0  0  0  0
  141.5250   79.8650  223.5060 C   0  0  0  0  0  0  0  0  0  0  0  0
  141.1470   78.5250  223.4840 C   0  0  0  0  0  0  0  0  0  0  0  0
  141.1000   77.8350  222.3050 C   0  0  0  0  0  0  0  0  0  0  0  0
  140.6930   76.4180  222.3340 C   0  0  0  0  0  0  0  0  0  0  0  0
  140.5550   73.6530  222.3450 N   0  0  0  0  0  0  0  0  0  0  0  0
  140.5420   71.7460  224.8530 C   0  0  0  0  0  0  0  0  0  0  0  0
  139.8530   67.1681  227.5233 H   0  0  0  0  0  0  0  0  0  0  0  0
  141.3372   68.9770  228.4311 H   0  0  0  0  0  0  0  0  0  0  0  0
  141.6010   71.0602  227.1376 H   0  0  0  0  0  0  0  0  0  0  0  0
  138.7140   67.5046  225.3923 H   0  0  0  0  0  0  0  0  0  0  0  0
  139.3711   69.2046  222.9042 H   0  0  0  0  0  0  0  0  0  0  0  0
  137.8051   69.0795  223.7438 H   0  0  0  0  0  0  0  0  0  0  0  0
  138.0967   71.2766  222.5127 H   0  0  0  0  0  0  0  0  0  0  0  0
  137.8489   71.5151  224.2529 H   0  0  0  0  0  0  0  0  0  0  0  0
  141.3450   70.6710  218.7790 H   0  0  0  0  0  0  0  0  0  0  0  0
  143.8538   70.3887  219.3081 H   0  0  0  0  0  0  0  0  0  0  0  0
  143.4318   71.4374  217.8579 H   0  0  0  0  0  0  0  0  0  0  0  0
  143.7230   72.6738  220.5101 H   0  0  0  0  0  0  0  0  0  0  0  0
  143.1927   73.4911  217.8382 H   0  0  0  0  0  0  0  0  0  0  0  0
  144.0693   74.5967  218.8364 H   0  0  0  0  0  0  0  0  0  0  0  0
  145.2369   72.2597  217.1261 H   0  0  0  0  0  0  0  0  0  0  0  0
  145.6113   73.9285  216.8653 H   0  0  0  0  0  0  0  0  0  0  0  0
  146.3000   74.0830  219.1900 H   0  0  0  0  0  0  0  0  0  0  0  0
  145.8694   71.2049  219.5202 H   0  0  0  0  0  0  0  0  0  0  0  0
  145.9160   72.5062  220.7373 H   0  0  0  0  0  0  0  0  0  0  0  0
  142.9178   76.2695  220.1648 H   0  0  0  0  0  0  0  0  0  0  0  0
  141.5069   75.7299  219.1586 H   0  0  0  0  0  0  0  0  0  0  0  0
  142.0360   78.2196  219.1503 H   0  0  0  0  0  0  0  0  0  0  0  0
  140.3329   77.7185  219.5390 H   0  0  0  0  0  0  0  0  0  0  0  0
  142.0754   80.3205  220.2032 H   0  0  0  0  0  0  0  0  0  0  0  0
  142.1593   81.5774  222.3552 H   0  0  0  0  0  0  0  0  0  0  0  0
  141.5568   80.4069  224.4627 H   0  0  0  0  0  0  0  0  0  0  0  0
  140.8839   78.0173  224.4237 H   0  0  0  0  0  0  0  0  0  0  0  0
  141.0625   75.9624  223.2645 H   0  0  0  0  0  0  0  0  0  0  0  0
  139.5950   76.3811  222.2783 H   0  0  0  0  0  0  0  0  0  0  0  0
  141.6197   71.8811  224.6791 H   0  0  0  0  0  0  0  0  0  0  0  0
  140.1841   72.5777  225.4777 H   0  0  0  0  0  0  0  0  0  0  0  0
  1  2  2  0
  2  3  1  0
  3  4  2  0
  4  5  1  0
  5  6  2  0
  5  7  1  0
  7  8  1  0
  8  9  1  0
  9 10  1  0
 10 11  2  0
 11 12  1  0
 12 13  1  0
 13 14  1  0
 14 15  1  0
 15 16  1  0
 16 17  1  0
 17 18  1  0
 18 19  1  0
 12 20  2  0
 20 21  1  0
 21 22  1  0
 22 23  1  0
 23 24  1  0
 24 25  1  0
 25 26  2  0
 26 27  1  0
 27 28  2  0
 28 29  1  0
 29 30  2  0
 30 31  1  0
 21 32  2  0
  9 33  1  0
  6  1  1  0
 32 10  1  0
 33  4  1  0
 19 15  1  0
 31 22  1  0
 30 25  1  0
  1 34  1  0
  2 35  1  0
  3 36  1  0
  6 37  1  0
  7 38  1  0
  7 39  1  0
  8 40  1  0
  8 41  1  0
 13 42  1  0
 14 43  1  0
 14 44  1  0
 15 45  1  1
 16 46  1  0
 16 47  1  0
 17 48  1  0
 17 49  1  0
 18 50  1  0
 19 51  1  0
 19 52  1  0
 23 53  1  0
 23 54  1  0
 24 55  1  0
 24 56  1  0
 26 57  1  0
 27 58  1  0
 28 59  1  0
 29 60  1  0
 31 61  1  0
 31 62  1  0
 33 63  1  0
 33 64  1  0
M  END
>  <smiles>  (33) 
c1ccc2c(c1)CCN(c1nc(NCC3CCNC3)nc(N3CCc4ccccc4C3)n1)C2

>  <score_type>  (33) 
oracle

>  <origin>  (33) 
autodockgpu

>  <m_score__min__energy>  (33) 
-10.4

>  <m_primary>  (33) 
energy

>  <rmsd>  (33) 
10.92646883908485

>  <m_score__min__rmsd>  (33) 
10.92646883908485

>  <meeko>  (33) 
{"free_energy": -10.4, "intermolecular_energy": -11.89, "internal_energy": -1.03, "cluster_size": 50, "cluster_id": 1, "rank_in_cluster": 1}

>  <energy>  (33) 
-10.02

>  <cluster_rmsd>  (33) 
0.94

>  <cluster>  (33) 
1

$$$$

     RDKit          3D

 64 69  0  0  0  0  0  0  0  0999 V2000
  140.1120   79.8910  223.4900 C   0  0  0  0  0  0  0  0  0  0  0  0
  141.3540   79.7820  222.8770 C   0  0  0  0  0  0  0  0  0  0  0  0
  141.6460   78.6290  222.2020 C   0  0  0  0  0  0  0  0  0  0  0  0
  140.7350   77.5750  222.1170 C   0  0  0  0  0  0  0  0  0  0  0  0
  139.5000   77.6710  222.7220 C   0  0  0  0  0  0  0  0  0  0  0  0
  139.2340   78.8520  223.3970 C   0  0  0  0  0  0  0  0  0  0  0  0
  138.4960   76.5720  222.6580 C   0  0  0  0  0  0  0  0  0  0  0  0
  138.7560   75.7930  221.3840 C   0  0  0  0  0  0  0  0  0  0  0  0
  140.1390   75.3850  221.4340 N   0  0  0  0  0  0  0  0  0  0  0  0
  140.5010   74.0170  221.5590 C   0  0  0  0  0  0  0  0  0  0  0  0
  141.0450   73.3600  220.5090 N   0  0  0  0  0  0  0  0  0  0  0  0
  141.3880   72.0650  220.6250 C   0  0  0  0  0  0  0  0  0  0  0  0
  141.9690   71.3560  219.5080 N   0  0  0  0  0  0  0  0  0  0  0  0
  143.3840   71.3180  219.3210 C   0  0  0  0  0  0  0  0  0  0  0  0
  144.1250   72.5100  219.8450 C   0  0  2  0  0  0  0  0  0  0  0  0
  144.0090   73.5700  218.7430 C   0  0  0  0  0  0  0  0  0  0  0  0
  145.2510   73.2380  217.9400 C   0  0  0  0  0  0  0  0  0  0  0  0
  146.2400   73.2080  219.0120 N   0  0  0  0  0  0  0  0  0  0  0  0
  145.5880   72.3530  220.0100 C   0  0  0  0  0  0  0  0  0  0  0  0
  141.1920   71.4300  221.7820 N   0  0  0  0  0  0  0  0  0  0  0  0
  140.6560   72.0550  222.8440 C   0  0  0  0  0  0  0  0  0  0  0  0
  140.4360   71.3880  224.0990 N   0  0  0  0  0  0  0  0  0  0  0  0
  141.0830   71.8840  225.2900 C   0  0  0  0  0  0  0  0  0  0  0  0
  140.3640   71.4480  226.5480 C   0  0  0  0  0  0  0  0  0  0  0  0
  140.0140   70.0120  226.5240 C   0  0  0  0  0  0  0  0  0  0  0  0
  140.0790   69.2610  227.6960 C   0  0  0  0  0  0  0  0  0  0  0  0
  139.7510   67.9220  227.6640 C   0  0  0  0  0  0  0  0  0  0  0  0
  139.3640   67.3590  226.4640 C   0  0  0  0  0  0  0  0  0  0  0  0
  139.3070   68.1300  225.3060 C   0  0  0  0  0  0  0  0  0  0  0  0
  139.6330   69.4580  225.3370 C   0  0  0  0  0  0  0  0  0  0  0  0
  139.5570   70.2320  224.0850 C   0  0  0  0  0  0  0  0  0  0  0  0
  140.3160   73.3550  222.7070 N   0  0  0  0  0  0  0  0  0  0  0  0
  141.1840   76.3840  221.3530 C   0  0  0  0  0  0  0  0  0  0  0  0
  139.8408   80.8027  224.0426 H   0  0  0  0  0  0  0  0  0  0  0  0
  142.0843   80.6027  222.9332 H   0  0  0  0  0  0  0  0  0  0  0  0
  142.6260   78.5295  221.7125 H   0  0  0  0  0  0  0  0  0  0  0  0
  138.2551   78.9574  223.8875 H   0  0  0  0  0  0  0  0  0  0  0  0
  138.6052   75.9119  223.5311 H   0  0  0  0  0  0  0  0  0  0  0  0
  137.4742   76.9792  222.6622 H   0  0  0  0  0  0  0  0  0  0  0  0
  138.1002   74.9111  221.3362 H   0  0  0  0  0  0  0  0  0  0  0  0
  138.5515   76.4044  220.4927 H   0  0  0  0  0  0  0  0  0  0  0  0
  141.3340   70.8690  218.8350 H   0  0  0  0  0  0  0  0  0  0  0  0
  143.7716   70.4240  219.8314 H   0  0  0  0  0  0  0  0  0  0  0  0
  143.5498   71.3070  218.2336 H   0  0  0  0  0  0  0  0  0  0  0  0
  143.6935   72.7273  220.8332 H   0  0  0  0  0  0  0  0  0  0  0  0
  143.0915   73.4450  218.1492 H   0  0  0  0  0  0  0  0  0  0  0  0
  143.9471   74.6089  219.0991 H   0  0  0  0  0  0  0  0  0  0  0  0
  145.1641   72.2639  217.4364 H   0  0  0  0  0  0  0  0  0  0  0  0
  145.4750   73.9363  217.1201 H   0  0  0  0  0  0  0  0  0  0  0  0
  146.1990   74.1830  219.4270 H   0  0  0  0  0  0  0  0  0  0  0  0
  145.8733   71.3030  219.8486 H   0  0  0  0  0  0  0  0  0  0  0  0
  145.8958   72.6407  221.0261 H   0  0  0  0  0  0  0  0  0  0  0  0
  142.1141   71.5020  225.3195 H   0  0  0  0  0  0  0  0  0  0  0  0
  141.0674   72.9833  225.2529 H   0  0  0  0  0  0  0  0  0  0  0  0
  141.0165   71.6388  227.4128 H   0  0  0  0  0  0  0  0  0  0  0  0
  139.4281   72.0218  226.6172 H   0  0  0  0  0  0  0  0  0  0  0  0
  140.3897   69.7329  228.6398 H   0  0  0  0  0  0  0  0  0  0  0  0
  139.7969   67.3128  228.5787 H   0  0  0  0  0  0  0  0  0  0  0  0
  139.0985   66.2923  226.4226 H   0  0  0  0  0  0  0  0  0  0  0  0
  138.9970   67.6669  224.3576 H   0  0  0  0  0  0  0  0  0  0  0  0
  139.8439   69.5793  223.2473 H   0  0  0  0  0  0  0  0  0  0  0  0
  138.5244   70.5950  223.9752 H   0  0  0  0  0  0  0  0  0  0  0  0
  142.1136   75.9889  221.7885 H   0  0  0  0  0  0  0  0  0  0  0  0
  141.3783   76.6519  220.3040 H   0  0  0  0  0  0  0  0  0  0  0  0
  1  2  2  0
  2  3  1  0
  3  4  2  0
  4  5  1  0
  5  6  2  0
  5  7  1  0
  7  8  1  0
  8  9  1  0
  9 10  1  0
 10 11  2  0
 11 12  1  0
 12 13  1  0
 13 14  1  0
 14 15  1  0
 15 16  1  0
 16 17  1  0
 17 18  1  0
 18 19  1  0
 12 20  2  0
 20 21  1  0
 21 22  1  0
 22 23  1  0
 23 24  1  0
 24 25  1  0
 25 26  2  0
 26 27  1  0
 27 28  2  0
 28 29  1  0
 29 30  2  0
 30 31  1  0
 21 32  2  0
  9 33  1  0
  6  1  1  0
 32 10  1  0
 33  4  1  0
 19 15  1  0
 31 22  1  0
 30 25  1  0
  1 34  1  0
  2 35  1  0
  3 36  1  0
  6 37  1  0
  7 38  1  0
  7 39  1  0
  8 40  1  0
  8 41  1  0
 13 42  1  0
 14 43  1  0
 14 44  1  0
 15 45  1  1
 16 46  1  0
 16 47  1  0
 17 48  1  0
 17 49  1  0
 18 50  1  0
 19 51  1  0
 19 52  1  0
 23 53  1  0
 23 54  1  0
 24 55  1  0
 24 56  1  0
 26 57  1  0
 27 58  1  0
 28 59  1  0
 29 60  1  0
 31 61  1  0
 31 62  1  0
 33 63  1  0
 33 64  1  0
M  END
>  <smiles>  (34) 
c1ccc2c(c1)CCN(c1nc(NCC3CCNC3)nc(N3CCc4ccccc4C3)n1)C2

>  <score_type>  (34) 
oracle

>  <origin>  (34) 
autodockgpu

>  <m_score__min__energy>  (34) 
-10.4

>  <m_primary>  (34) 
energy

>  <rmsd>  (34) 
4.97710255571253

>  <m_score__min__rmsd>  (34) 
4.97710255571253

>  <meeko>  (34) 
{"free_energy": -9.99, "intermolecular_energy": -11.48, "internal_energy": -1.08, "cluster_size": 50, "cluster_id": 1, "rank_in_cluster": 36}

>  <energy>  (34) 
-10.0

>  <cluster_rmsd>  (34) 
0.98

>  <cluster>  (34) 
1

$$$$

     RDKit          3D

 64 69  0  0  0  0  0  0  0  0999 V2000
  140.2280   68.2650  227.5400 C   0  0  0  0  0  0  0  0  0  0  0  0
  140.9650   69.3690  227.9530 C   0  0  0  0  0  0  0  0  0  0  0  0
  141.0170   70.4600  227.1300 C   0  0  0  0  0  0  0  0  0  0  0  0
  140.3560   70.4860  225.9000 C   0  0  0  0  0  0  0  0  0  0  0  0
  139.6220   69.3980  225.4800 C   0  0  0  0  0  0  0  0  0  0  0  0
  139.5880   68.3090  226.3370 C   0  0  0  0  0  0  0  0  0  0  0  0
  138.9000   69.3810  224.1780 C   0  0  0  0  0  0  0  0  0  0  0  0
  138.5590   70.8160  223.8290 C   0  0  0  0  0  0  0  0  0  0  0  0
  139.8030   71.5460  223.8540 N   0  0  0  0  0  0  0  0  0  0  0  0
  140.3650   72.0880  222.6670 C   0  0  0  0  0  0  0  0  0  0  0  0
  140.7740   71.2660  221.6730 N   0  0  0  0  0  0  0  0  0  0  0  0
  141.3060   71.7770  220.5490 C   0  0  0  0  0  0  0  0  0  0  0  0
  141.7460   70.9050  219.4830 N   0  0  0  0  0  0  0  0  0  0  0  0
  143.0120   71.1010  218.8520 C   0  0  0  0  0  0  0  0  0  0  0  0
  144.2010   70.7810  219.7040 C   0  0  2  0  0  0  0  0  0  0  0  0
  144.3150   71.9500  220.6900 C   0  0  0  0  0  0  0  0  0  0  0  0
  145.2210   72.8660  219.8920 C   0  0  0  0  0  0  0  0  0  0  0  0
  146.2780   71.9250  219.5390 N   0  0  0  0  0  0  0  0  0  0  0  0
  145.5160   70.7830  219.0240 C   0  0  0  0  0  0  0  0  0  0  0  0
  141.4290   73.0980  220.4160 N   0  0  0  0  0  0  0  0  0  0  0  0
  141.0320   73.9420  221.3840 C   0  0  0  0  0  0  0  0  0  0  0  0
  141.1550   75.3680  221.2600 N   0  0  0  0  0  0  0  0  0  0  0  0
  141.8000   75.9280  220.0960 C   0  0  0  0  0  0  0  0  0  0  0  0
  141.3850   77.3640  219.8550 C   0  0  0  0  0  0  0  0  0  0  0  0
  141.4180   78.1710  221.0930 C   0  0  0  0  0  0  0  0  0  0  0  0
  141.8250   79.5030  221.0430 C   0  0  0  0  0  0  0  0  0  0  0  0
  141.8540   80.2490  222.2030 C   0  0  0  0  0  0  0  0  0  0  0  0
  141.4750   79.6510  223.3880 C   0  0  0  0  0  0  0  0  0  0  0  0
  141.0720   78.3190  223.4130 C   0  0  0  0  0  0  0  0  0  0  0  0
  141.0440   77.5790  222.2630 C   0  0  0  0  0  0  0  0  0  0  0  0
  140.6100   76.1720  222.3410 C   0  0  0  0  0  0  0  0  0  0  0  0
  140.5010   73.4100  222.5060 N   0  0  0  0  0  0  0  0  0  0  0  0
  140.4980   71.7350  225.1100 C   0  0  0  0  0  0  0  0  0  0  0  0
  140.1622   67.3689  228.1746 H   0  0  0  0  0  0  0  0  0  0  0  0
  141.4932   69.3651  228.9179 H   0  0  0  0  0  0  0  0  0  0  0  0
  141.5952   71.3410  227.4454 H   0  0  0  0  0  0  0  0  0  0  0  0
  139.0092   67.4263  226.0275 H   0  0  0  0  0  0  0  0  0  0  0  0
  139.5424   68.9469  223.3977 H   0  0  0  0  0  0  0  0  0  0  0  0
  137.9871   68.7714  224.2485 H   0  0  0  0  0  0  0  0  0  0  0  0
  138.1075   70.8673  222.8272 H   0  0  0  0  0  0  0  0  0  0  0  0
  137.8335   71.2385  224.5397 H   0  0  0  0  0  0  0  0  0  0  0  0
  141.1200   70.1240  219.1800 H   0  0  0  0  0  0  0  0  0  0  0  0
  143.0505   70.4607  217.9584 H   0  0  0  0  0  0  0  0  0  0  0  0
  143.0781   72.1750  218.6235 H   0  0  0  0  0  0  0  0  0  0  0  0
  144.0268   69.7706  220.1024 H   0  0  0  0  0  0  0  0  0  0  0  0
  143.3379   72.4134  220.8911 H   0  0  0  0  0  0  0  0  0  0  0  0
  144.6850   71.6828  221.6908 H   0  0  0  0  0  0  0  0  0  0  0  0
  144.7154   73.2663  219.0008 H   0  0  0  0  0  0  0  0  0  0  0  0
  145.5592   73.7662  220.4262 H   0  0  0  0  0  0  0  0  0  0  0  0
  146.6530   71.5970  220.4760 H   0  0  0  0  0  0  0  0  0  0  0  0
  145.3766   70.8840  217.9376 H   0  0  0  0  0  0  0  0  0  0  0  0
  146.0522   69.8419  219.2158 H   0  0  0  0  0  0  0  0  0  0  0  0
  142.8897   75.8927  220.2420 H   0  0  0  0  0  0  0  0  0  0  0  0
  141.4972   75.3347  219.2206 H   0  0  0  0  0  0  0  0  0  0  0  0
  142.0712   77.8125  219.1216 H   0  0  0  0  0  0  0  0  0  0  0  0
  140.3495   77.3581  219.4838 H   0  0  0  0  0  0  0  0  0  0  0  0
  142.1210   79.9562  220.0854 H   0  0  0  0  0  0  0  0  0  0  0  0
  142.1734   81.3014  222.1840 H   0  0  0  0  0  0  0  0  0  0  0  0
  141.4916   80.2327  224.3215 H   0  0  0  0  0  0  0  0  0  0  0  0
  140.7735   77.8574  224.3658 H   0  0  0  0  0  0  0  0  0  0  0  0
  140.9459   75.7505  223.2999 H   0  0  0  0  0  0  0  0  0  0  0  0
  139.5134   76.1520  222.2566 H   0  0  0  0  0  0  0  0  0  0  0  0
  141.5623   71.9396  224.9216 H   0  0  0  0  0  0  0  0  0  0  0  0
  140.0728   72.5876  225.6598 H   0  0  0  0  0  0  0  0  0  0  0  0
  1  2  2  0
  2  3  1  0
  3  4  2  0
  4  5  1  0
  5  6  2  0
  5  7  1  0
  7  8  1  0
  8  9  1  0
  9 10  1  0
 10 11  2  0
 11 12  1  0
 12 13  1  0
 13 14  1  0
 14 15  1  0
 15 16  1  0
 16 17  1  0
 17 18  1  0
 18 19  1  0
 12 20  2  0
 20 21  1  0
 21 22  1  0
 22 23  1  0
 23 24  1  0
 24 25  1  0
 25 26  2  0
 26 27  1  0
 27 28  2  0
 28 29  1  0
 29 30  2  0
 30 31  1  0
 21 32  2  0
  9 33  1  0
  6  1  1  0
 32 10  1  0
 33  4  1  0
 19 15  1  0
 31 22  1  0
 30 25  1  0
  1 34  1  0
  2 35  1  0
  3 36  1  0
  6 37  1  0
  7 38  1  0
  7 39  1  0
  8 40  1  0
  8 41  1  0
 13 42  1  0
 14 43  1  0
 14 44  1  0
 15 45  1  1
 16 46  1  0
 16 47  1  0
 17 48  1  0
 17 49  1  0
 18 50  1  0
 19 51  1  0
 19 52  1  0
 23 53  1  0
 23 54  1  0
 24 55  1  0
 24 56  1  0
 26 57  1  0
 27 58  1  0
 28 59  1  0
 29 60  1  0
 31 61  1  0
 31 62  1  0
 33 63  1  0
 33 64  1  0
M  END
>  <smiles>  (35) 
c1ccc2c(c1)CCN(c1nc(NCC3CCNC3)nc(N3CCc4ccccc4C3)n1)C2

>  <score_type>  (35) 
oracle

>  <origin>  (35) 
autodockgpu

>  <m_score__min__energy>  (35) 
-10.4

>  <m_primary>  (35) 
energy

>  <rmsd>  (35) 
11.127746883355469

>  <m_score__min__rmsd>  (35) 
11.127746883355469

>  <meeko>  (35) 
{"free_energy": -10.13, "intermolecular_energy": -11.62, "internal_energy": -1.03, "cluster_size": 50, "cluster_id": 1, "rank_in_cluster": 29}

>  <energy>  (35) 
-10.0

>  <cluster_rmsd>  (35) 
1.0

>  <cluster>  (35) 
1

$$$$

     RDKit          3D

 64 69  0  0  0  0  0  0  0  0999 V2000
  140.1010   68.1350  226.6680 C   0  0  0  0  0  0  0  0  0  0  0  0
  140.9380   69.1130  227.1900 C   0  0  0  0  0  0  0  0  0  0  0  0
  141.0490   70.2990  226.5190 C   0  0  0  0  0  0  0  0  0  0  0  0
  140.3490   70.5440  225.3360 C   0  0  0  0  0  0  0  0  0  0  0  0
  139.5160   69.5820  224.8080 C   0  0  0  0  0  0  0  0  0  0  0  0
  139.4240   68.3910  225.5120 C   0  0  0  0  0  0  0  0  0  0  0  0
  138.7480   69.7980  223.5500 C   0  0  0  0  0  0  0  0  0  0  0  0
  138.5130   71.2890  223.4130 C   0  0  0  0  0  0  0  0  0  0  0  0
  139.8120   71.9130  223.4780 N   0  0  0  0  0  0  0  0  0  0  0  0
  140.3730   72.5690  222.3500 C   0  0  0  0  0  0  0  0  0  0  0  0
  140.7630   71.8510  221.2710 N   0  0  0  0  0  0  0  0  0  0  0  0
  141.2950   72.4690  220.2030 C   0  0  0  0  0  0  0  0  0  0  0  0
  141.7140   71.7080  219.0480 N   0  0  0  0  0  0  0  0  0  0  0  0
  143.0870   71.6700  218.6550 C   0  0  0  0  0  0  0  0  0  0  0  0
  144.0520   71.3490  219.7550 C   0  0  2  0  0  0  0  0  0  0  0  0
  144.2680   72.6730  220.4980 C   0  0  0  0  0  0  0  0  0  0  0  0
  145.4480   73.2120  219.7140 C   0  0  0  0  0  0  0  0  0  0  0  0
  146.3240   72.0460  219.7490 N   0  0  0  0  0  0  0  0  0  0  0  0
  145.4200   70.9680  219.3370 C   0  0  0  0  0  0  0  0  0  0  0  0
  141.4360   73.7950  220.2090 N   0  0  0  0  0  0  0  0  0  0  0  0
  141.0580   74.5380  221.2630 C   0  0  0  0  0  0  0  0  0  0  0  0
  141.2020   75.9670  221.2890 N   0  0  0  0  0  0  0  0  0  0  0  0
  141.7400   76.6490  220.1360 C   0  0  0  0  0  0  0  0  0  0  0  0
  141.3370   78.1080  220.1010 C   0  0  0  0  0  0  0  0  0  0  0  0
  141.5120   78.7680  221.4130 C   0  0  0  0  0  0  0  0  0  0  0  0
  141.9430   80.0910  221.4710 C   0  0  0  0  0  0  0  0  0  0  0  0
  142.1040   80.7000  222.6990 C   0  0  0  0  0  0  0  0  0  0  0  0
  141.8320   79.9750  223.8420 C   0  0  0  0  0  0  0  0  0  0  0  0
  141.4030   78.6530  223.7580 C   0  0  0  0  0  0  0  0  0  0  0  0
  141.2430   78.0500  222.5410 C   0  0  0  0  0  0  0  0  0  0  0  0
  140.7870   76.6490  222.5030 C   0  0  0  0  0  0  0  0  0  0  0  0
  140.5270   73.8980  222.3270 N   0  0  0  0  0  0  0  0  0  0  0  0
  140.5640   71.8740  224.7150 C   0  0  0  0  0  0  0  0  0  0  0  0
  139.9859   67.1680  227.1796 H   0  0  0  0  0  0  0  0  0  0  0  0
  141.4978   68.9375  228.1205 H   0  0  0  0  0  0  0  0  0  0  0  0
  141.7081   71.0819  226.9223 H   0  0  0  0  0  0  0  0  0  0  0  0
  138.7652   67.6051  225.1141 H   0  0  0  0  0  0  0  0  0  0  0  0
  139.3242   69.4275  222.6894 H   0  0  0  0  0  0  0  0  0  0  0  0
  137.7917   69.2552  223.5806 H   0  0  0  0  0  0  0  0  0  0  0  0
  138.0318   71.5114  222.4492 H   0  0  0  0  0  0  0  0  0  0  0  0
  137.8503   71.6632  224.2072 H   0  0  0  0  0  0  0  0  0  0  0  0
  140.9940   71.1820  218.5020 H   0  0  0  0  0  0  0  0  0  0  0  0
  143.1965   70.9059  217.8713 H   0  0  0  0  0  0  0  0  0  0  0  0
  143.3371   72.6853  218.3134 H   0  0  0  0  0  0  0  0  0  0  0  0
  143.6171   70.5014  220.3049 H   0  0  0  0  0  0  0  0  0  0  0  0
  143.3908   73.3326  220.4241 H   0  0  0  0  0  0  0  0  0  0  0  0
  144.4301   72.5799  221.5820 H   0  0  0  0  0  0  0  0  0  0  0  0
  145.1667   73.4814  218.6853 H   0  0  0  0  0  0  0  0  0  0  0  0
  145.8888   74.1368  220.1145 H   0  0  0  0  0  0  0  0  0  0  0  0
  146.4870   71.8790  220.7840 H   0  0  0  0  0  0  0  0  0  0  0  0
  145.4577   70.8433  218.2447 H   0  0  0  0  0  0  0  0  0  0  0  0
  145.7157   70.0160  219.8020 H   0  0  0  0  0  0  0  0  0  0  0  0
  142.8377   76.5844  220.1653 H   0  0  0  0  0  0  0  0  0  0  0  0
  141.3368   76.1634  219.2351 H   0  0  0  0  0  0  0  0  0  0  0  0
  141.9574   78.6290  219.3569 H   0  0  0  0  0  0  0  0  0  0  0  0
  140.2700   78.1572  219.8381 H   0  0  0  0  0  0  0  0  0  0  0  0
  142.1535   80.6464  220.5451 H   0  0  0  0  0  0  0  0  0  0  0  0
  142.4430   81.7443  222.7659 H   0  0  0  0  0  0  0  0  0  0  0  0
  141.9553   80.4462  224.8283 H   0  0  0  0  0  0  0  0  0  0  0  0
  141.1910   78.0889  224.6782 H   0  0  0  0  0  0  0  0  0  0  0  0
  141.2071   76.1166  223.3691 H   0  0  0  0  0  0  0  0  0  0  0  0
  139.6873   76.6521  222.5282 H   0  0  0  0  0  0  0  0  0  0  0  0
  141.6341   72.0210  224.5069 H   0  0  0  0  0  0  0  0  0  0  0  0
  140.2290   72.6728  225.3931 H   0  0  0  0  0  0  0  0  0  0  0  0
  1  2  2  0
  2  3  1  0
  3  4  2  0
  4  5  1  0
  5  6  2  0
  5  7  1  0
  7  8  1  0
  8  9  1  0
  9 10  1  0
 10 11  2  0
 11 12  1  0
 12 13  1  0
 13 14  1  0
 14 15  1  0
 15 16  1  0
 16 17  1  0
 17 18  1  0
 18 19  1  0
 12 20  2  0
 20 21  1  0
 21 22  1  0
 22 23  1  0
 23 24  1  0
 24 25  1  0
 25 26  2  0
 26 27  1  0
 27 28  2  0
 28 29  1  0
 29 30  2  0
 30 31  1  0
 21 32  2  0
  9 33  1  0
  6  1  1  0
 32 10  1  0
 33  4  1  0
 19 15  1  0
 31 22  1  0
 30 25  1  0
  1 34  1  0
  2 35  1  0
  3 36  1  0
  6 37  1  0
  7 38  1  0
  7 39  1  0
  8 40  1  0
  8 41  1  0
 13 42  1  0
 14 43  1  0
 14 44  1  0
 15 45  1  1
 16 46  1  0
 16 47  1  0
 17 48  1  0
 17 49  1  0
 18 50  1  0
 19 51  1  0
 19 52  1  0
 23 53  1  0
 23 54  1  0
 24 55  1  0
 24 56  1  0
 26 57  1  0
 27 58  1  0
 28 59  1  0
 29 60  1  0
 31 61  1  0
 31 62  1  0
 33 63  1  0
 33 64  1  0
M  END
>  <smiles>  (36) 
c1ccc2c(c1)CCN(c1nc(NCC3CCNC3)nc(N3CCc4ccccc4C3)n1)C2

>  <score_type>  (36) 
oracle

>  <origin>  (36) 
autodockgpu

>  <m_score__min__energy>  (36) 
-10.4

>  <m_primary>  (36) 
energy

>  <rmsd>  (36) 
10.737733611234983

>  <m_score__min__rmsd>  (36) 
10.737733611234983

>  <meeko>  (36) 
{"free_energy": -10.34, "intermolecular_energy": -11.84, "internal_energy": -1.01, "cluster_size": 50, "cluster_id": 1, "rank_in_cluster": 9}

>  <energy>  (36) 
-9.99

>  <cluster_rmsd>  (36) 
0.99

>  <cluster>  (36) 
1

$$$$

     RDKit          3D

 64 69  0  0  0  0  0  0  0  0999 V2000
  140.2290   68.2010  227.0090 C   0  0  0  0  0  0  0  0  0  0  0  0
  140.9000   69.2920  227.5470 C   0  0  0  0  0  0  0  0  0  0  0  0
  140.9920   70.4320  226.7980 C   0  0  0  0  0  0  0  0  0  0  0  0
  140.4330   70.5220  225.5220 C   0  0  0  0  0  0  0  0  0  0  0  0
  139.7650   69.4470  224.9780 C   0  0  0  0  0  0  0  0  0  0  0  0
  139.6880   68.3060  225.7610 C   0  0  0  0  0  0  0  0  0  0  0  0
  139.1520   69.4960  223.6210 C   0  0  0  0  0  0  0  0  0  0  0  0
  138.8040   70.9430  223.3320 C   0  0  0  0  0  0  0  0  0  0  0  0
  140.0230   71.6950  223.5040 N   0  0  0  0  0  0  0  0  0  0  0  0
  140.6660   72.3210  222.4030 C   0  0  0  0  0  0  0  0  0  0  0  0
  141.2260   71.5700  221.4270 N   0  0  0  0  0  0  0  0  0  0  0  0
  141.8350   72.1600  220.3840 C   0  0  0  0  0  0  0  0  0  0  0  0
  142.4350   71.3630  219.3380 N   0  0  0  0  0  0  0  0  0  0  0  0
  142.7770   69.9950  219.5630 C   0  0  0  0  0  0  0  0  0  0  0  0
  143.8760   69.4660  218.6940 C   0  0  2  0  0  0  0  0  0  0  0  0
  143.8700   67.9490  218.9180 C   0  0  0  0  0  0  0  0  0  0  0  0
  144.8400   67.8610  220.0800 C   0  0  0  0  0  0  0  0  0  0  0  0
  145.9420   68.6530  219.5440 N   0  0  0  0  0  0  0  0  0  0  0  0
  145.2540   69.8570  219.0680 C   0  0  0  0  0  0  0  0  0  0  0  0
  141.8860   73.4910  220.3140 N   0  0  0  0  0  0  0  0  0  0  0  0
  141.3400   74.2660  221.2670 C   0  0  0  0  0  0  0  0  0  0  0  0
  141.3840   75.7010  221.2100 N   0  0  0  0  0  0  0  0  0  0  0  0
  141.9730   76.3500  220.0640 C   0  0  0  0  0  0  0  0  0  0  0  0
  141.4770   77.7710  219.9000 C   0  0  0  0  0  0  0  0  0  0  0  0
  141.4920   78.5190  221.1740 C   0  0  0  0  0  0  0  0  0  0  0  0
  141.8260   79.8720  221.1810 C   0  0  0  0  0  0  0  0  0  0  0  0
  141.8380   80.5630  222.3760 C   0  0  0  0  0  0  0  0  0  0  0  0
  141.5160   79.8900  223.5370 C   0  0  0  0  0  0  0  0  0  0  0  0
  141.1870   78.5370  223.5050 C   0  0  0  0  0  0  0  0  0  0  0  0
  141.1750   77.8530  222.3210 C   0  0  0  0  0  0  0  0  0  0  0  0
  140.8190   76.4220  222.3380 C   0  0  0  0  0  0  0  0  0  0  0  0
  140.7330   73.6550  222.3070 N   0  0  0  0  0  0  0  0  0  0  0  0
  140.6080   71.8190  224.8230 C   0  0  0  0  0  0  0  0  0  0  0  0
  140.1353   67.2661  227.5810 H   0  0  0  0  0  0  0  0  0  0  0  0
  141.3463   69.2399  228.5510 H   0  0  0  0  0  0  0  0  0  0  0  0
  141.5213   71.3027  227.2124 H   0  0  0  0  0  0  0  0  0  0  0  0
  139.1590   67.4327  225.3517 H   0  0  0  0  0  0  0  0  0  0  0  0
  139.8668   69.1245  222.8720 H   0  0  0  0  0  0  0  0  0  0  0  0
  138.2523   68.8645  223.5785 H   0  0  0  0  0  0  0  0  0  0  0  0
  138.4345   71.0473  222.3012 H   0  0  0  0  0  0  0  0  0  0  0  0
  138.0124   71.3057  224.0042 H   0  0  0  0  0  0  0  0  0  0  0  0
  142.6150   71.8060  218.4070 H   0  0  0  0  0  0  0  0  0  0  0  0
  143.0909   69.8899  220.6120 H   0  0  0  0  0  0  0  0  0  0  0  0
  141.8798   69.4090  219.3147 H   0  0  0  0  0  0  0  0  0  0  0  0
  143.6766   69.8502  217.6827 H   0  0  0  0  0  0  0  0  0  0  0  0
  142.8704   67.5787  219.1895 H   0  0  0  0  0  0  0  0  0  0  0  0
  144.1389   67.3458  218.0383 H   0  0  0  0  0  0  0  0  0  0  0  0
  144.4233   68.3066  220.9954 H   0  0  0  0  0  0  0  0  0  0  0  0
  145.1075   66.8390  220.3864 H   0  0  0  0  0  0  0  0  0  0  0  0
  146.2230   68.1370  218.6610 H   0  0  0  0  0  0  0  0  0  0  0  0
  145.2258   70.6134  219.8662 H   0  0  0  0  0  0  0  0  0  0  0  0
  145.7816   70.2877  218.2042 H   0  0  0  0  0  0  0  0  0  0  0  0
  143.0658   76.3674  220.1884 H   0  0  0  0  0  0  0  0  0  0  0  0
  141.6837   75.7834  219.1666 H   0  0  0  0  0  0  0  0  0  0  0  0
  142.1231   78.2903  219.1769 H   0  0  0  0  0  0  0  0  0  0  0  0
  140.4360   77.7262  219.5475 H   0  0  0  0  0  0  0  0  0  0  0  0
  142.0782   80.3854  220.2414 H   0  0  0  0  0  0  0  0  0  0  0  0
  142.0996   81.6311  222.4024 H   0  0  0  0  0  0  0  0  0  0  0  0
  141.5192   80.4273  224.4969 H   0  0  0  0  0  0  0  0  0  0  0  0
  140.9348   78.0145  224.4396 H   0  0  0  0  0  0  0  0  0  0  0  0
  141.1965   75.9744  223.2692 H   0  0  0  0  0  0  0  0  0  0  0  0
  139.7236   76.3464  222.2719 H   0  0  0  0  0  0  0  0  0  0  0  0
  141.6787   72.0557  224.7364 H   0  0  0  0  0  0  0  0  0  0  0  0
  140.1179   72.6272  225.3856 H   0  0  0  0  0  0  0  0  0  0  0  0
  1  2  2  0
  2  3  1  0
  3  4  2  0
  4  5  1  0
  5  6  2  0
  5  7  1  0
  7  8  1  0
  8  9  1  0
  9 10  1  0
 10 11  2  0
 11 12  1  0
 12 13  1  0
 13 14  1  0
 14 15  1  0
 15 16  1  0
 16 17  1  0
 17 18  1  0
 18 19  1  0
 12 20  2  0
 20 21  1  0
 21 22  1  0
 22 23  1  0
 23 24  1  0
 24 25  1  0
 25 26  2  0
 26 27  1  0
 27 28  2  0
 28 29  1  0
 29 30  2  0
 30 31  1  0
 21 32  2  0
  9 33  1  0
  6  1  1  0
 32 10  1  0
 33  4  1  0
 19 15  1  0
 31 22  1  0
 30 25  1  0
  1 34  1  0
  2 35  1  0
  3 36  1  0
  6 37  1  0
  7 38  1  0
  7 39  1  0
  8 40  1  0
  8 41  1  0
 13 42  1  0
 14 43  1  0
 14 44  1  0
 15 45  1  6
 16 46  1  0
 16 47  1  0
 17 48  1  0
 17 49  1  0
 18 50  1  0
 19 51  1  0
 19 52  1  0
 23 53  1  0
 23 54  1  0
 24 55  1  0
 24 56  1  0
 26 57  1  0
 27 58  1  0
 28 59  1  0
 29 60  1  0
 31 61  1  0
 31 62  1  0
 33 63  1  0
 33 64  1  0
M  END
>  <smiles>  (37) 
c1ccc2c(c1)CCN(c1nc(NCC3CCNC3)nc(N3CCc4ccccc4C3)n1)C2

>  <score_type>  (37) 
oracle

>  <origin>  (37) 
autodockgpu

>  <m_score__min__energy>  (37) 
-10.4

>  <m_primary>  (37) 
energy

>  <rmsd>  (37) 
10.856548731237677

>  <m_score__min__rmsd>  (37) 
10.856548731237677

>  <meeko>  (37) 
{"free_energy": -9.6, "intermolecular_energy": -11.09, "internal_energy": -0.85, "cluster_size": 50, "cluster_id": 1, "rank_in_cluster": 48}

>  <energy>  (37) 
-9.98

>  <cluster_rmsd>  (37) 
0.57

>  <cluster>  (37) 
1

$$$$

     RDKit          3D

 64 69  0  0  0  0  0  0  0  0999 V2000
  140.4070   79.9630  223.5370 C   0  0  0  0  0  0  0  0  0  0  0  0
  141.5790   79.8530  222.7990 C   0  0  0  0  0  0  0  0  0  0  0  0
  141.7670   78.7290  222.0420 C   0  0  0  0  0  0  0  0  0  0  0  0
  140.8190   77.7050  221.9970 C   0  0  0  0  0  0  0  0  0  0  0  0
  139.6530   77.8030  222.7250 C   0  0  0  0  0  0  0  0  0  0  0  0
  139.4920   78.9540  223.4800 C   0  0  0  0  0  0  0  0  0  0  0  0
  138.6130   76.7370  222.7070 C   0  0  0  0  0  0  0  0  0  0  0  0
  138.7230   76.0180  221.3770 C   0  0  0  0  0  0  0  0  0  0  0  0
  140.0900   75.5710  221.2690 N   0  0  0  0  0  0  0  0  0  0  0  0
  140.4190   74.1890  221.2900 C   0  0  0  0  0  0  0  0  0  0  0  0
  141.0030   73.6140  220.2140 N   0  0  0  0  0  0  0  0  0  0  0  0
  141.3160   72.3070  220.2320 C   0  0  0  0  0  0  0  0  0  0  0  0
  141.9390   71.6850  219.0860 N   0  0  0  0  0  0  0  0  0  0  0  0
  143.3480   71.4490  219.0560 C   0  0  0  0  0  0  0  0  0  0  0  0
  144.1850   72.5360  219.6600 C   0  0  2  0  0  0  0  0  0  0  0  0
  144.0710   73.7160  218.6870 C   0  0  0  0  0  0  0  0  0  0  0  0
  145.2460   73.4100  217.7800 C   0  0  0  0  0  0  0  0  0  0  0  0
  146.2880   73.2090  218.7810 N   0  0  0  0  0  0  0  0  0  0  0  0
  145.6430   72.2850  219.7190 C   0  0  0  0  0  0  0  0  0  0  0  0
  141.0480   71.5780  221.3160 N   0  0  0  0  0  0  0  0  0  0  0  0
  140.4700   72.1190  222.4020 C   0  0  0  0  0  0  0  0  0  0  0  0
  140.1740   71.3500  223.5800 N   0  0  0  0  0  0  0  0  0  0  0  0
  139.0450   70.4510  223.5770 C   0  0  0  0  0  0  0  0  0  0  0  0
  139.1810   69.3680  224.6260 C   0  0  0  0  0  0  0  0  0  0  0  0
  139.6060   69.9070  225.9350 C   0  0  0  0  0  0  0  0  0  0  0  0
  139.0950   69.3590  227.1100 C   0  0  0  0  0  0  0  0  0  0  0  0
  139.4970   69.8680  228.3280 C   0  0  0  0  0  0  0  0  0  0  0  0
  140.4000   70.9120  228.3480 C   0  0  0  0  0  0  0  0  0  0  0  0
  140.8960   71.4430  227.1600 C   0  0  0  0  0  0  0  0  0  0  0  0
  140.4980   70.9380  225.9530 C   0  0  0  0  0  0  0  0  0  0  0  0
  141.0510   71.5340  224.7230 C   0  0  0  0  0  0  0  0  0  0  0  0
  140.1630   73.4330  222.3640 N   0  0  0  0  0  0  0  0  0  0  0  0
  141.1530   76.5450  221.1340 C   0  0  0  0  0  0  0  0  0  0  0  0
  140.2201   80.8513  224.1583 H   0  0  0  0  0  0  0  0  0  0  0  0
  142.3369   80.6498  222.8227 H   0  0  0  0  0  0  0  0  0  0  0  0
  142.6904   78.6293  221.4526 H   0  0  0  0  0  0  0  0  0  0  0  0
  138.5693   79.0599  224.0694 H   0  0  0  0  0  0  0  0  0  0  0  0
  138.7852   76.0299  223.5319 H   0  0  0  0  0  0  0  0  0  0  0  0
  137.6100   77.1711  222.8318 H   0  0  0  0  0  0  0  0  0  0  0  0
  138.0380   75.1577  221.3516 H   0  0  0  0  0  0  0  0  0  0  0  0
  138.4523   76.6803  220.5415 H   0  0  0  0  0  0  0  0  0  0  0  0
  141.3410   71.4080  218.2740 H   0  0  0  0  0  0  0  0  0  0  0  0
  143.5498   70.5176  219.6054 H   0  0  0  0  0  0  0  0  0  0  0  0
  143.6289   71.3988  217.9937 H   0  0  0  0  0  0  0  0  0  0  0  0
  143.8215   72.6654  220.6901 H   0  0  0  0  0  0  0  0  0  0  0  0
  143.1169   73.7053  218.1396 H   0  0  0  0  0  0  0  0  0  0  0  0
  144.0890   74.7112  219.1553 H   0  0  0  0  0  0  0  0  0  0  0  0
  145.0746   72.5038  217.1805 H   0  0  0  0  0  0  0  0  0  0  0  0
  145.4664   74.1822  217.0282 H   0  0  0  0  0  0  0  0  0  0  0  0
  146.3270   74.1340  219.2990 H   0  0  0  0  0  0  0  0  0  0  0  0
  145.8571   71.2457  219.4293 H   0  0  0  0  0  0  0  0  0  0  0  0
  146.0220   72.4421  220.7396 H   0  0  0  0  0  0  0  0  0  0  0  0
  138.1306   71.0282  223.7787 H   0  0  0  0  0  0  0  0  0  0  0  0
  138.9991   69.9657  222.5909 H   0  0  0  0  0  0  0  0  0  0  0  0
  138.2084   68.8688  224.7476 H   0  0  0  0  0  0  0  0  0  0  0  0
  139.9536   68.6632  224.2847 H   0  0  0  0  0  0  0  0  0  0  0  0
  138.3767   68.5270  227.0669 H   0  0  0  0  0  0  0  0  0  0  0  0
  139.1048   69.4492  229.2665 H   0  0  0  0  0  0  0  0  0  0  0  0
  140.7307   71.3282  229.3110 H   0  0  0  0  0  0  0  0  0  0  0  0
  141.6140   72.2757  227.1927 H   0  0  0  0  0  0  0  0  0  0  0  0
  141.1975   72.6118  224.8869 H   0  0  0  0  0  0  0  0  0  0  0  0
  142.0028   71.0288  224.5022 H   0  0  0  0  0  0  0  0  0  0  0  0
  142.1080   76.1032  221.4544 H   0  0  0  0  0  0  0  0  0  0  0  0
  141.2517   76.8625  220.0855 H   0  0  0  0  0  0  0  0  0  0  0  0
  1  2  2  0
  2  3  1  0
  3  4  2  0
  4  5  1  0
  5  6  2  0
  5  7  1  0
  7  8  1  0
  8  9  1  0
  9 10  1  0
 10 11  2  0
 11 12  1  0
 12 13  1  0
 13 14  1  0
 14 15  1  0
 15 16  1  0
 16 17  1  0
 17 18  1  0
 18 19  1  0
 12 20  2  0
 20 21  1  0
 21 22  1  0
 22 23  1  0
 23 24  1  0
 24 25  1  0
 25 26  2  0
 26 27  1  0
 27 28  2  0
 28 29  1  0
 29 30  2  0
 30 31  1  0
 21 32  2  0
  9 33  1  0
  6  1  1  0
 32 10  1  0
 33  4  1  0
 19 15  1  0
 31 22  1  0
 30 25  1  0
  1 34  1  0
  2 35  1  0
  3 36  1  0
  6 37  1  0
  7 38  1  0
  7 39  1  0
  8 40  1  0
  8 41  1  0
 13 42  1  0
 14 43  1  0
 14 44  1  0
 15 45  1  1
 16 46  1  0
 16 47  1  0
 17 48  1  0
 17 49  1  0
 18 50  1  0
 19 51  1  0
 19 52  1  0
 23 53  1  0
 23 54  1  0
 24 55  1  0
 24 56  1  0
 26 57  1  0
 27 58  1  0
 28 59  1  0
 29 60  1  0
 31 61  1  0
 31 62  1  0
 33 63  1  0
 33 64  1  0
M  END
>  <smiles>  (38) 
c1ccc2c(c1)CCN(c1nc(NCC3CCNC3)nc(N3CCc4ccccc4C3)n1)C2

>  <score_type>  (38) 
oracle

>  <origin>  (38) 
autodockgpu

>  <m_score__min__energy>  (38) 
-10.4

>  <m_primary>  (38) 
energy

>  <rmsd>  (38) 
4.983729805407551

>  <m_score__min__rmsd>  (38) 
4.983729805407551

>  <meeko>  (38) 
{"free_energy": -10.18, "intermolecular_energy": -11.67, "internal_energy": -1.08, "cluster_size": 50, "cluster_id": 1, "rank_in_cluster": 25}

>  <energy>  (38) 
-9.94

>  <cluster_rmsd>  (38) 
0.59

>  <cluster>  (38) 
1

$$$$

     RDKit          3D

 64 69  0  0  0  0  0  0  0  0999 V2000
  140.1220   68.3010  227.1750 C   0  0  0  0  0  0  0  0  0  0  0  0
  140.7930   69.4130  227.6670 C   0  0  0  0  0  0  0  0  0  0  0  0
  140.8610   70.5320  226.8830 C   0  0  0  0  0  0  0  0  0  0  0  0
  140.2780   70.5770  225.6150 C   0  0  0  0  0  0  0  0  0  0  0  0
  139.6090   69.4800  225.1160 C   0  0  0  0  0  0  0  0  0  0  0  0
  139.5570   68.3640  225.9350 C   0  0  0  0  0  0  0  0  0  0  0  0
  138.9720   69.4830  223.7690 C   0  0  0  0  0  0  0  0  0  0  0  0
  138.6060   70.9170  223.4430 C   0  0  0  0  0  0  0  0  0  0  0  0
  139.8210   71.6850  223.5700 N   0  0  0  0  0  0  0  0  0  0  0  0
  140.4380   72.2830  222.4390 C   0  0  0  0  0  0  0  0  0  0  0  0
  140.9160   71.5080  221.4380 N   0  0  0  0  0  0  0  0  0  0  0  0
  141.5000   72.0710  220.3660 C   0  0  0  0  0  0  0  0  0  0  0  0
  142.0130   71.2500  219.2930 N   0  0  0  0  0  0  0  0  0  0  0  0
  143.3950   71.2920  218.9350 C   0  0  0  0  0  0  0  0  0  0  0  0
  144.1500   72.4730  219.4630 C   0  0  2  0  0  0  0  0  0  0  0  0
  144.1020   73.5150  218.3400 C   0  0  0  0  0  0  0  0  0  0  0  0
  145.3620   73.1350  217.5870 C   0  0  0  0  0  0  0  0  0  0  0  0
  146.3110   73.0980  218.6940 N   0  0  0  0  0  0  0  0  0  0  0  0
  145.6020   72.2800  219.6830 C   0  0  0  0  0  0  0  0  0  0  0  0
  141.6080   73.3980  220.2930 N   0  0  0  0  0  0  0  0  0  0  0  0
  141.1430   74.1960  221.2690 C   0  0  0  0  0  0  0  0  0  0  0  0
  141.2480   75.6280  221.2090 N   0  0  0  0  0  0  0  0  0  0  0  0
  141.8750   76.2480  220.0660 C   0  0  0  0  0  0  0  0  0  0  0  0
  141.4410   77.6880  219.8930 C   0  0  0  0  0  0  0  0  0  0  0  0
  141.4760   78.4390  221.1660 C   0  0  0  0  0  0  0  0  0  0  0  0
  141.8670   79.7760  221.1720 C   0  0  0  0  0  0  0  0  0  0  0  0
  141.8980   80.4700  222.3640 C   0  0  0  0  0  0  0  0  0  0  0  0
  141.5380   79.8150  223.5250 C   0  0  0  0  0  0  0  0  0  0  0  0
  141.1510   78.4780  223.4930 C   0  0  0  0  0  0  0  0  0  0  0  0
  141.1210   77.7910  222.3120 C   0  0  0  0  0  0  0  0  0  0  0  0
  140.7040   76.3760  222.3300 C   0  0  0  0  0  0  0  0  0  0  0  0
  140.5590   73.6120  222.3380 N   0  0  0  0  0  0  0  0  0  0  0  0
  140.4280   71.8540  224.8740 C   0  0  0  0  0  0  0  0  0  0  0  0
  140.0472   67.3830  227.7764 H   0  0  0  0  0  0  0  0  0  0  0  0
  141.2587   69.3944  228.6634 H   0  0  0  0  0  0  0  0  0  0  0  0
  141.3889   71.4197  227.2615 H   0  0  0  0  0  0  0  0  0  0  0  0
  139.0279   67.4744  225.5627 H   0  0  0  0  0  0  0  0  0  0  0  0
  139.6771   69.0953  223.0190 H   0  0  0  0  0  0  0  0  0  0  0  0
  138.0775   68.8429  223.7614 H   0  0  0  0  0  0  0  0  0  0  0  0
  138.2171   70.9867  222.4164 H   0  0  0  0  0  0  0  0  0  0  0  0
  137.8234   71.2929  224.1185 H   0  0  0  0  0  0  0  0  0  0  0  0
  141.3540   70.6200  218.7810 H   0  0  0  0  0  0  0  0  0  0  0  0
  143.8751   70.3802  219.3199 H   0  0  0  0  0  0  0  0  0  0  0  0
  143.4262   71.3724  217.8384 H   0  0  0  0  0  0  0  0  0  0  0  0
  143.6901   72.7200  220.4312 H   0  0  0  0  0  0  0  0  0  0  0  0
  143.2027   73.4041  217.7163 H   0  0  0  0  0  0  0  0  0  0  0  0
  144.0565   74.5615  218.6758 H   0  0  0  0  0  0  0  0  0  0  0  0
  145.2661   72.1546  217.0975 H   0  0  0  0  0  0  0  0  0  0  0  0
  145.6339   73.8117  216.7635 H   0  0  0  0  0  0  0  0  0  0  0  0
  146.2830   74.0820  219.0890 H   0  0  0  0  0  0  0  0  0  0  0  0
  145.8641   71.2199  219.5507 H   0  0  0  0  0  0  0  0  0  0  0  0
  145.8818   72.5783  220.7042 H   0  0  0  0  0  0  0  0  0  0  0  0
  142.9664   76.2197  220.2007 H   0  0  0  0  0  0  0  0  0  0  0  0
  141.5705   75.6910  219.1676 H   0  0  0  0  0  0  0  0  0  0  0  0
  142.1151   78.1772  219.1745 H   0  0  0  0  0  0  0  0  0  0  0  0
  140.4024   77.6863  219.5306 H   0  0  0  0  0  0  0  0  0  0  0  0
  142.1490   80.2749  220.2331 H   0  0  0  0  0  0  0  0  0  0  0  0
  142.2040   81.5263  222.3890 H   0  0  0  0  0  0  0  0  0  0  0  0
  141.5571   80.3543  224.4836 H   0  0  0  0  0  0  0  0  0  0  0  0
  140.8669   77.9702  224.4265 H   0  0  0  0  0  0  0  0  0  0  0  0
  141.0537   75.9157  223.2659 H   0  0  0  0  0  0  0  0  0  0  0  0
  139.6070   76.3467  222.2544 H   0  0  0  0  0  0  0  0  0  0  0  0
  141.4947   72.0977  224.7611 H   0  0  0  0  0  0  0  0  0  0  0  0
  139.9400   72.6743  225.4208 H   0  0  0  0  0  0  0  0  0  0  0  0
  1  2  2  0
  2  3  1  0
  3  4  2  0
  4  5  1  0
  5  6  2  0
  5  7  1  0
  7  8  1  0
  8  9  1  0
  9 10  1  0
 10 11  2  0
 11 12  1  0
 12 13  1  0
 13 14  1  0
 14 15  1  0
 15 16  1  0
 16 17  1  0
 17 18  1  0
 18 19  1  0
 12 20  2  0
 20 21  1  0
 21 22  1  0
 22 23  1  0
 23 24  1  0
 24 25  1  0
 25 26  2  0
 26 27  1  0
 27 28  2  0
 28 29  1  0
 29 30  2  0
 30 31  1  0
 21 32  2  0
  9 33  1  0
  6  1  1  0
 32 10  1  0
 33  4  1  0
 19 15  1  0
 31 22  1  0
 30 25  1  0
  1 34  1  0
  2 35  1  0
  3 36  1  0
  6 37  1  0
  7 38  1  0
  7 39  1  0
  8 40  1  0
  8 41  1  0
 13 42  1  0
 14 43  1  0
 14 44  1  0
 15 45  1  1
 16 46  1  0
 16 47  1  0
 17 48  1  0
 17 49  1  0
 18 50  1  0
 19 51  1  0
 19 52  1  0
 23 53  1  0
 23 54  1  0
 24 55  1  0
 24 56  1  0
 26 57  1  0
 27 58  1  0
 28 59  1  0
 29 60  1  0
 31 61  1  0
 31 62  1  0
 33 63  1  0
 33 64  1  0
M  END
>  <smiles>  (39) 
c1ccc2c(c1)CCN(c1nc(NCC3CCNC3)nc(N3CCc4ccccc4C3)n1)C2

>  <score_type>  (39) 
oracle

>  <origin>  (39) 
autodockgpu

>  <m_score__min__energy>  (39) 
-10.4

>  <m_primary>  (39) 
energy

>  <rmsd>  (39) 
10.883592546978695

>  <m_score__min__rmsd>  (39) 
10.883592546978695

>  <meeko>  (39) 
{"free_energy": -10.37, "intermolecular_energy": -11.86, "internal_energy": -1.03, "cluster_size": 50, "cluster_id": 1, "rank_in_cluster": 7}

>  <energy>  (39) 
-9.94

>  <cluster_rmsd>  (39) 
0.55

>  <cluster>  (39) 
1

$$$$

     RDKit          3D

 64 69  0  0  0  0  0  0  0  0999 V2000
  140.2310   67.7610  227.1920 C   0  0  0  0  0  0  0  0  0  0  0  0
  140.8760   68.8550  227.7560 C   0  0  0  0  0  0  0  0  0  0  0  0
  140.8670   70.0380  227.0710 C   0  0  0  0  0  0  0  0  0  0  0  0
  140.2330   70.1680  225.8340 C   0  0  0  0  0  0  0  0  0  0  0  0
  139.5900   69.0900  225.2650 C   0  0  0  0  0  0  0  0  0  0  0  0
  139.6160   67.9050  225.9840 C   0  0  0  0  0  0  0  0  0  0  0  0
  138.8990   69.1810  223.9480 C   0  0  0  0  0  0  0  0  0  0  0  0
  138.4630   70.6200  223.7620 C   0  0  0  0  0  0  0  0  0  0  0  0
  139.6500   71.4270  223.9120 N   0  0  0  0  0  0  0  0  0  0  0  0
  140.1970   72.1460  222.8160 C   0  0  0  0  0  0  0  0  0  0  0  0
  140.9520   71.5070  221.8940 N   0  0  0  0  0  0  0  0  0  0  0  0
  141.4710   72.1850  220.8560 C   0  0  0  0  0  0  0  0  0  0  0  0
  142.2790   71.5090  219.8670 N   0  0  0  0  0  0  0  0  0  0  0  0
  143.6810   71.3250  220.0680 C   0  0  0  0  0  0  0  0  0  0  0  0
  144.4780   72.5900  220.1710 C   0  0  2  0  0  0  0  0  0  0  0  0
  144.0730   73.4190  218.9470 C   0  0  0  0  0  0  0  0  0  0  0  0
  145.1100   72.9290  217.9560 C   0  0  0  0  0  0  0  0  0  0  0  0
  146.3180   73.0980  218.7560 N   0  0  0  0  0  0  0  0  0  0  0  0
  145.9440   72.4560  220.0200 C   0  0  0  0  0  0  0  0  0  0  0  0
  141.2370   73.4930  220.7380 N   0  0  0  0  0  0  0  0  0  0  0  0
  140.4910   74.1580  221.6360 C   0  0  0  0  0  0  0  0  0  0  0  0
  140.2270   75.5660  221.5260 N   0  0  0  0  0  0  0  0  0  0  0  0
  139.2400   76.0340  220.5830 C   0  0  0  0  0  0  0  0  0  0  0  0
  138.7070   77.4020  220.9520 C   0  0  0  0  0  0  0  0  0  0  0  0
  139.7870   78.3440  221.3150 C   0  0  0  0  0  0  0  0  0  0  0  0
  139.6880   79.6860  220.9530 C   0  0  0  0  0  0  0  0  0  0  0  0
  140.7010   80.5580  221.2950 C   0  0  0  0  0  0  0  0  0  0  0  0
  141.7910   80.0740  221.9900 C   0  0  0  0  0  0  0  0  0  0  0  0
  141.8670   78.7280  222.3390 C   0  0  0  0  0  0  0  0  0  0  0  0
  140.8640   77.8640  222.0000 C   0  0  0  0  0  0  0  0  0  0  0  0
  140.9900   76.4480  222.3930 C   0  0  0  0  0  0  0  0  0  0  0  0
  139.9790   73.4590  222.6720 N   0  0  0  0  0  0  0  0  0  0  0  0
  140.3010   71.5090  225.2030 C   0  0  0  0  0  0  0  0  0  0  0  0
  140.2169   66.7923  227.7130 H   0  0  0  0  0  0  0  0  0  0  0  0
  141.3813   68.7712  228.7295 H   0  0  0  0  0  0  0  0  0  0  0  0
  141.3735   70.9119  227.5066 H   0  0  0  0  0  0  0  0  0  0  0  0
  139.1099   67.0282  225.5538 H   0  0  0  0  0  0  0  0  0  0  0  0
  139.5879   68.8899  223.1413 H   0  0  0  0  0  0  0  0  0  0  0  0
  138.0311   68.5058  223.9179 H   0  0  0  0  0  0  0  0  0  0  0  0
  138.0314   70.7604  222.7600 H   0  0  0  0  0  0  0  0  0  0  0  0
  137.6933   70.9019  224.4955 H   0  0  0  0  0  0  0  0  0  0  0  0
  141.8200   71.1540  218.9970 H   0  0  0  0  0  0  0  0  0  0  0  0
  143.8204   70.7571  220.9997 H   0  0  0  0  0  0  0  0  0  0  0  0
  144.0528   70.7994  219.1761 H   0  0  0  0  0  0  0  0  0  0  0  0
  144.2768   72.9970  221.1729 H   0  0  0  0  0  0  0  0  0  0  0  0
  143.0493   73.1891  218.6166 H   0  0  0  0  0  0  0  0  0  0  0  0
  144.0550   74.5075  219.1049 H   0  0  0  0  0  0  0  0  0  0  0  0
  144.9464   71.8770  217.6795 H   0  0  0  0  0  0  0  0  0  0  0  0
  145.1148   73.4547  216.9897 H   0  0  0  0  0  0  0  0  0  0  0  0
  146.3370   74.1350  218.9760 H   0  0  0  0  0  0  0  0  0  0  0  0
  146.2235   71.3923  219.9980 H   0  0  0  0  0  0  0  0  0  0  0  0
  146.4652   72.9307  220.8644 H   0  0  0  0  0  0  0  0  0  0  0  0
  139.7002   76.0894  219.5854 H   0  0  0  0  0  0  0  0  0  0  0  0
  138.3975   75.3268  220.5939 H   0  0  0  0  0  0  0  0  0  0  0  0
  138.1549   77.8105  220.0927 H   0  0  0  0  0  0  0  0  0  0  0  0
  138.0535   77.2840  221.8290 H   0  0  0  0  0  0  0  0  0  0  0  0
  138.8091   80.0473  220.3989 H   0  0  0  0  0  0  0  0  0  0  0  0
  140.6411   81.6210  221.0185 H   0  0  0  0  0  0  0  0  0  0  0  0
  142.6063   80.7571  222.2705 H   0  0  0  0  0  0  0  0  0  0  0  0
  142.7422   78.3570  222.8925 H   0  0  0  0  0  0  0  0  0  0  0  0
  142.0507   76.1605  222.3453 H   0  0  0  0  0  0  0  0  0  0  0  0
  140.5918   76.3447  223.4132 H   0  0  0  0  0  0  0  0  0  0  0  0
  141.3515   71.8083  225.0735 H   0  0  0  0  0  0  0  0  0  0  0  0
  139.8018   72.2566  225.8370 H   0  0  0  0  0  0  0  0  0  0  0  0
  1  2  2  0
  2  3  1  0
  3  4  2  0
  4  5  1  0
  5  6  2  0
  5  7  1  0
  7  8  1  0
  8  9  1  0
  9 10  1  0
 10 11  2  0
 11 12  1  0
 12 13  1  0
 13 14  1  0
 14 15  1  0
 15 16  1  0
 16 17  1  0
 17 18  1  0
 18 19  1  0
 12 20  2  0
 20 21  1  0
 21 22  1  0
 22 23  1  0
 23 24  1  0
 24 25  1  0
 25 26  2  0
 26 27  1  0
 27 28  2  0
 28 29  1  0
 29 30  2  0
 30 31  1  0
 21 32  2  0
  9 33  1  0
  6  1  1  0
 32 10  1  0
 33  4  1  0
 19 15  1  0
 31 22  1  0
 30 25  1  0
  1 34  1  0
  2 35  1  0
  3 36  1  0
  6 37  1  0
  7 38  1  0
  7 39  1  0
  8 40  1  0
  8 41  1  0
 13 42  1  0
 14 43  1  0
 14 44  1  0
 15 45  1  1
 16 46  1  0
 16 47  1  0
 17 48  1  0
 17 49  1  0
 18 50  1  0
 19 51  1  0
 19 52  1  0
 23 53  1  0
 23 54  1  0
 24 55  1  0
 24 56  1  0
 26 57  1  0
 27 58  1  0
 28 59  1  0
 29 60  1  0
 31 61  1  0
 31 62  1  0
 33 63  1  0
 33 64  1  0
M  END
>  <smiles>  (40) 
c1ccc2c(c1)CCN(c1nc(NCC3CCNC3)nc(N3CCc4ccccc4C3)n1)C2

>  <score_type>  (40) 
oracle

>  <origin>  (40) 
autodockgpu

>  <m_score__min__energy>  (40) 
-10.4

>  <m_primary>  (40) 
energy

>  <rmsd>  (40) 
11.29106250927854

>  <m_score__min__rmsd>  (40) 
11.29106250927854

>  <meeko>  (40) 
{"free_energy": -9.92, "intermolecular_energy": -11.41, "internal_energy": -1.01, "cluster_size": 50, "cluster_id": 1, "rank_in_cluster": 40}

>  <energy>  (40) 
-9.92

>  <cluster_rmsd>  (40) 
0.96

>  <cluster>  (40) 
1

$$$$

     RDKit          3D

 64 69  0  0  0  0  0  0  0  0999 V2000
  140.3100   79.9080  223.5520 C   0  0  0  0  0  0  0  0  0  0  0  0
  141.4960   79.8080  222.8370 C   0  0  0  0  0  0  0  0  0  0  0  0
  141.7090   78.6870  222.0830 C   0  0  0  0  0  0  0  0  0  0  0  0
  140.7710   77.6550  222.0190 C   0  0  0  0  0  0  0  0  0  0  0  0
  139.5900   77.7420  222.7240 C   0  0  0  0  0  0  0  0  0  0  0  0
  139.4040   78.8900  223.4770 C   0  0  0  0  0  0  0  0  0  0  0  0
  138.5600   76.6660  222.6850 C   0  0  0  0  0  0  0  0  0  0  0  0
  138.7010   75.9500  221.3570 C   0  0  0  0  0  0  0  0  0  0  0  0
  140.0750   75.5150  221.2750 N   0  0  0  0  0  0  0  0  0  0  0  0
  140.4150   74.1360  221.3010 C   0  0  0  0  0  0  0  0  0  0  0  0
  140.9910   73.5580  220.2220 N   0  0  0  0  0  0  0  0  0  0  0  0
  141.3150   72.2540  220.2450 C   0  0  0  0  0  0  0  0  0  0  0  0
  141.9300   71.6300  219.0960 N   0  0  0  0  0  0  0  0  0  0  0  0
  143.3400   71.4060  219.0510 C   0  0  0  0  0  0  0  0  0  0  0  0
  144.1740   72.4980  219.6480 C   0  0  2  0  0  0  0  0  0  0  0  0
  144.0560   73.6730  218.6690 C   0  0  0  0  0  0  0  0  0  0  0  0
  145.2320   73.3660  217.7630 C   0  0  0  0  0  0  0  0  0  0  0  0
  146.2750   73.1740  218.7650 N   0  0  0  0  0  0  0  0  0  0  0  0
  145.6330   72.2530  219.7080 C   0  0  0  0  0  0  0  0  0  0  0  0
  141.0660   71.5300  221.3370 N   0  0  0  0  0  0  0  0  0  0  0  0
  140.4960   72.0730  222.4260 C   0  0  0  0  0  0  0  0  0  0  0  0
  140.2200   71.3110  223.6120 N   0  0  0  0  0  0  0  0  0  0  0  0
  139.1200   70.3760  223.6170 C   0  0  0  0  0  0  0  0  0  0  0  0
  139.2870   69.3110  224.6790 C   0  0  0  0  0  0  0  0  0  0  0  0
  139.6890   69.8790  225.9830 C   0  0  0  0  0  0  0  0  0  0  0  0
  139.1920   69.3300  227.1630 C   0  0  0  0  0  0  0  0  0  0  0  0
  139.5720   69.8660  228.3760 C   0  0  0  0  0  0  0  0  0  0  0  0
  140.4410   70.9390  228.3860 C   0  0  0  0  0  0  0  0  0  0  0  0
  140.9250   71.4700  227.1930 C   0  0  0  0  0  0  0  0  0  0  0  0
  140.5470   70.9390  225.9920 C   0  0  0  0  0  0  0  0  0  0  0  0
  141.0870   71.5360  224.7560 C   0  0  0  0  0  0  0  0  0  0  0  0
  140.1770   73.3850  222.3830 N   0  0  0  0  0  0  0  0  0  0  0  0
  141.1320   76.4980  221.1610 C   0  0  0  0  0  0  0  0  0  0  0  0
  140.1037   80.7945  224.1697 H   0  0  0  0  0  0  0  0  0  0  0  0
  142.2465   80.6113  222.8761 H   0  0  0  0  0  0  0  0  0  0  0  0
  142.6446   78.5961  221.5116 H   0  0  0  0  0  0  0  0  0  0  0  0
  138.4695   78.9869  224.0491 H   0  0  0  0  0  0  0  0  0  0  0  0
  138.7232   75.9594  223.5121 H   0  0  0  0  0  0  0  0  0  0  0  0
  137.5510   77.0909  222.7914 H   0  0  0  0  0  0  0  0  0  0  0  0
  138.0243   75.0837  221.3176 H   0  0  0  0  0  0  0  0  0  0  0  0
  138.4400   76.6105  220.5170 H   0  0  0  0  0  0  0  0  0  0  0  0
  141.3240   71.3420  218.2940 H   0  0  0  0  0  0  0  0  0  0  0  0
  143.5552   70.4753  219.5964 H   0  0  0  0  0  0  0  0  0  0  0  0
  143.6101   71.3604  217.9857 H   0  0  0  0  0  0  0  0  0  0  0  0
  143.8104   72.6307  220.6777 H   0  0  0  0  0  0  0  0  0  0  0  0
  143.1018   73.6566  218.1220 H   0  0  0  0  0  0  0  0  0  0  0  0
  144.0710   74.6706  219.1323 H   0  0  0  0  0  0  0  0  0  0  0  0
  145.0636   72.4559  217.1685 H   0  0  0  0  0  0  0  0  0  0  0  0
  145.4495   74.1347  217.0069 H   0  0  0  0  0  0  0  0  0  0  0  0
  146.3110   74.1010  219.2780 H   0  0  0  0  0  0  0  0  0  0  0  0
  145.8509   71.2129  219.4240 H   0  0  0  0  0  0  0  0  0  0  0  0
  146.0113   72.4175  220.7277 H   0  0  0  0  0  0  0  0  0  0  0  0
  138.1870   70.9261  223.8092 H   0  0  0  0  0  0  0  0  0  0  0  0
  139.0929   69.8775  222.6368 H   0  0  0  0  0  0  0  0  0  0  0  0
  138.3307   68.7818  224.8031 H   0  0  0  0  0  0  0  0  0  0  0  0
  140.0835   68.6279  224.3490 H   0  0  0  0  0  0  0  0  0  0  0  0
  138.5011   68.4748  227.1277 H   0  0  0  0  0  0  0  0  0  0  0  0
  139.1897   69.4462  229.3181 H   0  0  0  0  0  0  0  0  0  0  0  0
  140.7537   71.3783  229.3448 H   0  0  0  0  0  0  0  0  0  0  0  0
  141.6176   72.3242  227.2177 H   0  0  0  0  0  0  0  0  0  0  0  0
  141.2004   72.6197  224.9065 H   0  0  0  0  0  0  0  0  0  0  0  0
  142.0545   71.0570  224.5451 H   0  0  0  0  0  0  0  0  0  0  0  0
  142.0845   76.0641  221.4994 H   0  0  0  0  0  0  0  0  0  0  0  0
  141.2483   76.8172  220.1148 H   0  0  0  0  0  0  0  0  0  0  0  0
  1  2  2  0
  2  3  1  0
  3  4  2  0
  4  5  1  0
  5  6  2  0
  5  7  1  0
  7  8  1  0
  8  9  1  0
  9 10  1  0
 10 11  2  0
 11 12  1  0
 12 13  1  0
 13 14  1  0
 14 15  1  0
 15 16  1  0
 16 17  1  0
 17 18  1  0
 18 19  1  0
 12 20  2  0
 20 21  1  0
 21 22  1  0
 22 23  1  0
 23 24  1  0
 24 25  1  0
 25 26  2  0
 26 27  1  0
 27 28  2  0
 28 29  1  0
 29 30  2  0
 30 31  1  0
 21 32  2  0
  9 33  1  0
  6  1  1  0
 32 10  1  0
 33  4  1  0
 19 15  1  0
 31 22  1  0
 30 25  1  0
  1 34  1  0
  2 35  1  0
  3 36  1  0
  6 37  1  0
  7 38  1  0
  7 39  1  0
  8 40  1  0
  8 41  1  0
 13 42  1  0
 14 43  1  0
 14 44  1  0
 15 45  1  1
 16 46  1  0
 16 47  1  0
 17 48  1  0
 17 49  1  0
 18 50  1  0
 19 51  1  0
 19 52  1  0
 23 53  1  0
 23 54  1  0
 24 55  1  0
 24 56  1  0
 26 57  1  0
 27 58  1  0
 28 59  1  0
 29 60  1  0
 31 61  1  0
 31 62  1  0
 33 63  1  0
 33 64  1  0
M  END
>  <smiles>  (41) 
c1ccc2c(c1)CCN(c1nc(NCC3CCNC3)nc(N3CCc4ccccc4C3)n1)C2

>  <score_type>  (41) 
oracle

>  <origin>  (41) 
autodockgpu

>  <m_score__min__energy>  (41) 
-10.4

>  <m_primary>  (41) 
energy

>  <rmsd>  (41) 
4.98579834522353

>  <m_score__min__rmsd>  (41) 
4.98579834522353

>  <meeko>  (41) 
{"free_energy": -10.13, "intermolecular_energy": -11.62, "internal_energy": -1.08, "cluster_size": 50, "cluster_id": 1, "rank_in_cluster": 28}

>  <energy>  (41) 
-9.92

>  <cluster_rmsd>  (41) 
0.57

>  <cluster>  (41) 
1

$$$$

     RDKit          3D

 64 69  0  0  0  0  0  0  0  0999 V2000
  140.5410   79.9110  223.5570 C   0  0  0  0  0  0  0  0  0  0  0  0
  141.7220   79.7660  222.8400 C   0  0  0  0  0  0  0  0  0  0  0  0
  141.8850   78.6430  222.0760 C   0  0  0  0  0  0  0  0  0  0  0  0
  140.9020   77.6540  222.0030 C   0  0  0  0  0  0  0  0  0  0  0  0
  139.7270   77.7860  222.7100 C   0  0  0  0  0  0  0  0  0  0  0  0
  139.5920   78.9350  223.4740 C   0  0  0  0  0  0  0  0  0  0  0  0
  138.6510   76.7570  222.6630 C   0  0  0  0  0  0  0  0  0  0  0  0
  138.7600   76.0470  221.3280 C   0  0  0  0  0  0  0  0  0  0  0  0
  140.1130   75.5530  221.2410 N   0  0  0  0  0  0  0  0  0  0  0  0
  140.3930   74.1610  221.2550 C   0  0  0  0  0  0  0  0  0  0  0  0
  140.9080   73.5600  220.1580 N   0  0  0  0  0  0  0  0  0  0  0  0
  141.1740   72.2430  220.1680 C   0  0  0  0  0  0  0  0  0  0  0  0
  141.7240   71.5950  219.0000 N   0  0  0  0  0  0  0  0  0  0  0  0
  143.1290   71.6180  218.7420 C   0  0  0  0  0  0  0  0  0  0  0  0
  143.8600   72.7890  219.3230 C   0  0  2  0  0  0  0  0  0  0  0  0
  144.2090   73.6790  218.1240 C   0  0  0  0  0  0  0  0  0  0  0  0
  145.5630   73.1000  217.7660 C   0  0  0  0  0  0  0  0  0  0  0  0
  146.2000   73.1260  219.0780 N   0  0  0  0  0  0  0  0  0  0  0  0
  145.1800   72.5040  219.9290 C   0  0  0  0  0  0  0  0  0  0  0  0
  140.9280   71.5280  221.2670 N   0  0  0  0  0  0  0  0  0  0  0  0
  140.4180   72.0930  222.3740 C   0  0  0  0  0  0  0  0  0  0  0  0
  140.1460   71.3400  223.5680 N   0  0  0  0  0  0  0  0  0  0  0  0
  138.9970   70.4700  223.6140 C   0  0  0  0  0  0  0  0  0  0  0  0
  139.1450   69.3900  224.6650 C   0  0  0  0  0  0  0  0  0  0  0  0
  139.6310   69.9270  225.9540 C   0  0  0  0  0  0  0  0  0  0  0  0
  139.1500   69.4000  227.1510 C   0  0  0  0  0  0  0  0  0  0  0  0
  139.6080   69.9080  228.3490 C   0  0  0  0  0  0  0  0  0  0  0  0
  140.5370   70.9290  228.3280 C   0  0  0  0  0  0  0  0  0  0  0  0
  141.0020   71.4390  227.1190 C   0  0  0  0  0  0  0  0  0  0  0  0
  140.5470   70.9370  225.9310 C   0  0  0  0  0  0  0  0  0  0  0  0
  141.0700   71.5100  224.6770 C   0  0  0  0  0  0  0  0  0  0  0  0
  140.1570   73.4180  222.3440 N   0  0  0  0  0  0  0  0  0  0  0  0
  141.2120   76.4900  221.1360 C   0  0  0  0  0  0  0  0  0  0  0  0
  140.3737   80.8001  224.1827 H   0  0  0  0  0  0  0  0  0  0  0  0
  142.5069   80.5354  222.8855 H   0  0  0  0  0  0  0  0  0  0  0  0
  142.8157   78.5156  221.5037 H   0  0  0  0  0  0  0  0  0  0  0  0
  138.6631   79.0675  224.0481 H   0  0  0  0  0  0  0  0  0  0  0  0
  138.7836   76.0367  223.4837 H   0  0  0  0  0  0  0  0  0  0  0  0
  137.6616   77.2246  222.7743 H   0  0  0  0  0  0  0  0  0  0  0  0
  138.0458   75.2116  221.2815 H   0  0  0  0  0  0  0  0  0  0  0  0
  138.5279   76.7258  220.4941 H   0  0  0  0  0  0  0  0  0  0  0  0
  141.0750   71.1060  218.3420 H   0  0  0  0  0  0  0  0  0  0  0  0
  143.5678   70.7001  219.1602 H   0  0  0  0  0  0  0  0  0  0  0  0
  143.2399   71.6970  217.6505 H   0  0  0  0  0  0  0  0  0  0  0  0
  143.2073   73.1964  220.1092 H   0  0  0  0  0  0  0  0  0  0  0  0
  143.4846   73.5650  217.3041 H   0  0  0  0  0  0  0  0  0  0  0  0
  144.2016   74.7602  218.3265 H   0  0  0  0  0  0  0  0  0  0  0  0
  145.4789   72.0762  217.3725 H   0  0  0  0  0  0  0  0  0  0  0  0
  146.1050   73.6395  216.9753 H   0  0  0  0  0  0  0  0  0  0  0  0
  146.1870   74.1510  219.3490 H   0  0  0  0  0  0  0  0  0  0  0  0
  145.3438   71.4174  219.9783 H   0  0  0  0  0  0  0  0  0  0  0  0
  145.2314   72.9058  220.9517 H   0  0  0  0  0  0  0  0  0  0  0  0
  138.1054   71.0712  223.8456 H   0  0  0  0  0  0  0  0  0  0  0  0
  138.9026   69.9797  222.6339 H   0  0  0  0  0  0  0  0  0  0  0  0
  138.1656   68.9156  224.8257 H   0  0  0  0  0  0  0  0  0  0  0  0
  139.8869   68.6641  224.3007 H   0  0  0  0  0  0  0  0  0  0  0  0
  138.4109   68.5853  227.1407 H   0  0  0  0  0  0  0  0  0  0  0  0
  139.2394   69.5065  229.3045 H   0  0  0  0  0  0  0  0  0  0  0  0
  140.9132   71.3432  229.2751 H   0  0  0  0  0  0  0  0  0  0  0  0
  141.7419   72.2530  227.1192 H   0  0  0  0  0  0  0  0  0  0  0  0
  141.2498   72.5848  224.8266 H   0  0  0  0  0  0  0  0  0  0  0  0
  142.0003   70.9795  224.4256 H   0  0  0  0  0  0  0  0  0  0  0  0
  142.1443   76.0119  221.4711 H   0  0  0  0  0  0  0  0  0  0  0  0
  141.3426   76.8128  220.0926 H   0  0  0  0  0  0  0  0  0  0  0  0
  1  2  2  0
  2  3  1  0
  3  4  2  0
  4  5  1  0
  5  6  2  0
  5  7  1  0
  7  8  1  0
  8  9  1  0
  9 10  1  0
 10 11  2  0
 11 12  1  0
 12 13  1  0
 13 14  1  0
 14 15  1  0
 15 16  1  0
 16 17  1  0
 17 18  1  0
 18 19  1  0
 12 20  2  0
 20 21  1  0
 21 22  1  0
 22 23  1  0
 23 24  1  0
 24 25  1  0
 25 26  2  0
 26 27  1  0
 27 28  2  0
 28 29  1  0
 29 30  2  0
 30 31  1  0
 21 32  2  0
  9 33  1  0
  6  1  1  0
 32 10  1  0
 33  4  1  0
 19 15  1  0
 31 22  1  0
 30 25  1  0
  1 34  1  0
  2 35  1  0
  3 36  1  0
  6 37  1  0
  7 38  1  0
  7 39  1  0
  8 40  1  0
  8 41  1  0
 13 42  1  0
 14 43  1  0
 14 44  1  0
 15 45  1  1
 16 46  1  0
 16 47  1  0
 17 48  1  0
 17 49  1  0
 18 50  1  0
 19 51  1  0
 19 52  1  0
 23 53  1  0
 23 54  1  0
 24 55  1  0
 24 56  1  0
 26 57  1  0
 27 58  1  0
 28 59  1  0
 29 60  1  0
 31 61  1  0
 31 62  1  0
 33 63  1  0
 33 64  1  0
M  END
>  <smiles>  (42) 
c1ccc2c(c1)CCN(c1nc(NCC3CCNC3)nc(N3CCc4ccccc4C3)n1)C2

>  <score_type>  (42) 
oracle

>  <origin>  (42) 
autodockgpu

>  <m_score__min__energy>  (42) 
-10.4

>  <m_primary>  (42) 
energy

>  <rmsd>  (42) 
5.00468865146234

>  <m_score__min__rmsd>  (42) 
5.00468865146234

>  <meeko>  (42) 
{"free_energy": -10.11, "intermolecular_energy": -11.6, "internal_energy": -1.06, "cluster_size": 50, "cluster_id": 1, "rank_in_cluster": 31}

>  <energy>  (42) 
-9.92

>  <cluster_rmsd>  (42) 
0.57

>  <cluster>  (42) 
1

$$$$

     RDKit          3D

 64 69  0  0  0  0  0  0  0  0999 V2000
  139.9970   68.1590  227.0170 C   0  0  0  0  0  0  0  0  0  0  0  0
  140.7140   69.2140  227.5670 C   0  0  0  0  0  0  0  0  0  0  0  0
  140.8530   70.3590  226.8320 C   0  0  0  0  0  0  0  0  0  0  0  0
  140.2970   70.4870  225.5580 C   0  0  0  0  0  0  0  0  0  0  0  0
  139.5840   69.4470  225.0010 C   0  0  0  0  0  0  0  0  0  0  0  0
  139.4600   68.3020  225.7710 C   0  0  0  0  0  0  0  0  0  0  0  0
  138.9730   69.5390  223.6450 C   0  0  0  0  0  0  0  0  0  0  0  0
  138.6860   71.0020  223.3740 C   0  0  0  0  0  0  0  0  0  0  0  0
  139.9350   71.7010  223.5540 N   0  0  0  0  0  0  0  0  0  0  0  0
  140.6030   72.3120  222.4600 C   0  0  0  0  0  0  0  0  0  0  0  0
  141.1890   71.5480  221.5090 N   0  0  0  0  0  0  0  0  0  0  0  0
  141.8220   72.1250  220.4730 C   0  0  0  0  0  0  0  0  0  0  0  0
  142.4500   71.3150  219.4540 N   0  0  0  0  0  0  0  0  0  0  0  0
  143.8300   70.9590  219.5490 C   0  0  0  0  0  0  0  0  0  0  0  0
  144.7850   71.9720  218.9950 C   0  0  2  0  0  0  0  0  0  0  0  0
  145.7970   72.2260  220.1190 C   0  0  0  0  0  0  0  0  0  0  0  0
  145.1030   73.3710  220.8300 C   0  0  0  0  0  0  0  0  0  0  0  0
  144.8350   74.2440  219.6930 N   0  0  0  0  0  0  0  0  0  0  0  0
  144.2310   73.3190  218.7280 C   0  0  0  0  0  0  0  0  0  0  0  0
  141.8700   73.4550  220.3850 N   0  0  0  0  0  0  0  0  0  0  0  0
  141.2980   74.2420  221.3110 C   0  0  0  0  0  0  0  0  0  0  0  0
  141.3380   75.6760  221.2330 N   0  0  0  0  0  0  0  0  0  0  0  0
  141.9450   76.3100  220.0880 C   0  0  0  0  0  0  0  0  0  0  0  0
  141.4480   77.7270  219.8940 C   0  0  0  0  0  0  0  0  0  0  0  0
  141.4380   78.4940  221.1570 C   0  0  0  0  0  0  0  0  0  0  0  0
  141.7680   79.8480  221.1500 C   0  0  0  0  0  0  0  0  0  0  0  0
  141.7570   80.5560  222.3330 C   0  0  0  0  0  0  0  0  0  0  0  0
  141.4170   79.9000  223.4990 C   0  0  0  0  0  0  0  0  0  0  0  0
  141.0920   78.5460  223.4810 C   0  0  0  0  0  0  0  0  0  0  0  0
  141.1030   77.8440  222.3080 C   0  0  0  0  0  0  0  0  0  0  0  0
  140.7520   76.4120  222.3410 C   0  0  0  0  0  0  0  0  0  0  0  0
  140.6680   73.6440  222.3450 N   0  0  0  0  0  0  0  0  0  0  0  0
  140.5250   71.7840  224.8740 C   0  0  0  0  0  0  0  0  0  0  0  0
  139.8641   67.2221  227.5778 H   0  0  0  0  0  0  0  0  0  0  0  0
  141.1592   69.1305  228.5694 H   0  0  0  0  0  0  0  0  0  0  0  0
  141.4182   71.2019  227.2563 H   0  0  0  0  0  0  0  0  0  0  0  0
  138.8942   67.4567  225.3523 H   0  0  0  0  0  0  0  0  0  0  0  0
  139.6714   69.1471  222.8909 H   0  0  0  0  0  0  0  0  0  0  0  0
  138.0474   68.9467  223.5957 H   0  0  0  0  0  0  0  0  0  0  0  0
  138.3208   71.1340  222.3448 H   0  0  0  0  0  0  0  0  0  0  0  0
  137.9106   71.3890  224.0515 H   0  0  0  0  0  0  0  0  0  0  0  0
  141.8770   70.9910  218.6420 H   0  0  0  0  0  0  0  0  0  0  0  0
  144.0711   70.8081  220.6116 H   0  0  0  0  0  0  0  0  0  0  0  0
  143.9561   70.0521  218.9394 H   0  0  0  0  0  0  0  0  0  0  0  0
  145.1483   71.5596  218.0421 H   0  0  0  0  0  0  0  0  0  0  0  0
  145.9134   71.3484  220.7719 H   0  0  0  0  0  0  0  0  0  0  0  0
  146.8235   72.4372  219.7846 H   0  0  0  0  0  0  0  0  0  0  0  0
  144.1752   73.0444  221.3224 H   0  0  0  0  0  0  0  0  0  0  0  0
  145.6817   73.8320  221.6440 H   0  0  0  0  0  0  0  0  0  0  0  0
  145.7960   74.4530  219.2980 H   0  0  0  0  0  0  0  0  0  0  0  0
  143.1382   73.3070  218.8528 H   0  0  0  0  0  0  0  0  0  0  0  0
  144.4557   73.6329  217.6979 H   0  0  0  0  0  0  0  0  0  0  0  0
  143.0354   76.3327  220.2312 H   0  0  0  0  0  0  0  0  0  0  0  0
  141.6729   75.7293  219.1943 H   0  0  0  0  0  0  0  0  0  0  0  0
  142.1056   78.2375  219.1750 H   0  0  0  0  0  0  0  0  0  0  0  0
  140.4136   77.6738  219.5236 H   0  0  0  0  0  0  0  0  0  0  0  0
  142.0353   80.3482  220.2075 H   0  0  0  0  0  0  0  0  0  0  0  0
  142.0147   81.6253  222.3474 H   0  0  0  0  0  0  0  0  0  0  0  0
  141.4027   80.4516  224.4506 H   0  0  0  0  0  0  0  0  0  0  0  0
  140.8241   78.0370  224.4186 H   0  0  0  0  0  0  0  0  0  0  0  0
  141.1160   75.9800  223.2849 H   0  0  0  0  0  0  0  0  0  0  0  0
  139.6581   76.3311  222.2584 H   0  0  0  0  0  0  0  0  0  0  0  0
  141.6046   71.9771  224.7893 H   0  0  0  0  0  0  0  0  0  0  0  0
  140.0685   72.6047  225.4468 H   0  0  0  0  0  0  0  0  0  0  0  0
  1  2  2  0
  2  3  1  0
  3  4  2  0
  4  5  1  0
  5  6  2  0
  5  7  1  0
  7  8  1  0
  8  9  1  0
  9 10  1  0
 10 11  2  0
 11 12  1  0
 12 13  1  0
 13 14  1  0
 14 15  1  0
 15 16  1  0
 16 17  1  0
 17 18  1  0
 18 19  1  0
 12 20  2  0
 20 21  1  0
 21 22  1  0
 22 23  1  0
 23 24  1  0
 24 25  1  0
 25 26  2  0
 26 27  1  0
 27 28  2  0
 28 29  1  0
 29 30  2  0
 30 31  1  0
 21 32  2  0
  9 33  1  0
  6  1  1  0
 32 10  1  0
 33  4  1  0
 19 15  1  0
 31 22  1  0
 30 25  1  0
  1 34  1  0
  2 35  1  0
  3 36  1  0
  6 37  1  0
  7 38  1  0
  7 39  1  0
  8 40  1  0
  8 41  1  0
 13 42  1  0
 14 43  1  0
 14 44  1  0
 15 45  1  6
 16 46  1  0
 16 47  1  0
 17 48  1  0
 17 49  1  0
 18 50  1  0
 19 51  1  0
 19 52  1  0
 23 53  1  0
 23 54  1  0
 24 55  1  0
 24 56  1  0
 26 57  1  0
 27 58  1  0
 28 59  1  0
 29 60  1  0
 31 61  1  0
 31 62  1  0
 33 63  1  0
 33 64  1  0
M  END
>  <smiles>  (43) 
c1ccc2c(c1)CCN(c1nc(NCC3CCNC3)nc(N3CCc4ccccc4C3)n1)C2

>  <score_type>  (43) 
oracle

>  <origin>  (43) 
autodockgpu

>  <m_score__min__energy>  (43) 
-10.4

>  <m_primary>  (43) 
energy

>  <rmsd>  (43) 
10.901555040508324

>  <m_score__min__rmsd>  (43) 
10.901555040508324

>  <meeko>  (43) 
{"free_energy": -9.94, "intermolecular_energy": -11.43, "internal_energy": -1.21, "cluster_size": 50, "cluster_id": 1, "rank_in_cluster": 39}

>  <energy>  (43) 
-9.9

>  <cluster_rmsd>  (43) 
1.06

>  <cluster>  (43) 
1

$$$$

     RDKit          3D

 64 69  0  0  0  0  0  0  0  0999 V2000
  140.5170   79.9510  223.5240 C   0  0  0  0  0  0  0  0  0  0  0  0
  141.6820   79.8160  222.7800 C   0  0  0  0  0  0  0  0  0  0  0  0
  141.8400   78.6900  222.0190 C   0  0  0  0  0  0  0  0  0  0  0  0
  140.8690   77.6880  221.9770 C   0  0  0  0  0  0  0  0  0  0  0  0
  139.7090   77.8100  222.7110 C   0  0  0  0  0  0  0  0  0  0  0  0
  139.5780   78.9620  223.4700 C   0  0  0  0  0  0  0  0  0  0  0  0
  138.6460   76.7670  222.6970 C   0  0  0  0  0  0  0  0  0  0  0  0
  138.7320   76.0490  221.3650 C   0  0  0  0  0  0  0  0  0  0  0  0
  140.0880   75.5720  221.2480 N   0  0  0  0  0  0  0  0  0  0  0  0
  140.3860   74.1840  221.2650 C   0  0  0  0  0  0  0  0  0  0  0  0
  140.9200   73.5900  220.1720 N   0  0  0  0  0  0  0  0  0  0  0  0
  141.2030   72.2770  220.1850 C   0  0  0  0  0  0  0  0  0  0  0  0
  141.7730   71.6360  219.0220 N   0  0  0  0  0  0  0  0  0  0  0  0
  143.1170   71.9060  218.6220 C   0  0  0  0  0  0  0  0  0  0  0  0
  144.1710   71.3800  219.5480 C   0  0  2  0  0  0  0  0  0  0  0  0
  144.2470   72.4000  220.6900 C   0  0  0  0  0  0  0  0  0  0  0  0
  145.3040   73.3300  220.1290 C   0  0  0  0  0  0  0  0  0  0  0  0
  146.3280   72.3550  219.7680 N   0  0  0  0  0  0  0  0  0  0  0  0
  145.5550   71.3560  219.0230 C   0  0  0  0  0  0  0  0  0  0  0  0
  140.9560   71.5580  221.2820 N   0  0  0  0  0  0  0  0  0  0  0  0
  140.4270   72.1160  222.3840 C   0  0  0  0  0  0  0  0  0  0  0  0
  140.1540   71.3600  223.5750 N   0  0  0  0  0  0  0  0  0  0  0  0
  139.0150   70.4740  223.6090 C   0  0  0  0  0  0  0  0  0  0  0  0
  139.1670   69.3960  224.6610 C   0  0  0  0  0  0  0  0  0  0  0  0
  139.6330   69.9390  225.9540 C   0  0  0  0  0  0  0  0  0  0  0  0
  139.1480   69.4050  227.1470 C   0  0  0  0  0  0  0  0  0  0  0  0
  139.5880   69.9180  228.3500 C   0  0  0  0  0  0  0  0  0  0  0  0
  140.5040   70.9510  228.3380 C   0  0  0  0  0  0  0  0  0  0  0  0
  140.9740   71.4680  227.1330 C   0  0  0  0  0  0  0  0  0  0  0  0
  140.5370   70.9600  225.9410 C   0  0  0  0  0  0  0  0  0  0  0  0
  141.0640   71.5400  224.6930 C   0  0  0  0  0  0  0  0  0  0  0  0
  140.1490   73.4370  222.3510 N   0  0  0  0  0  0  0  0  0  0  0  0
  141.1720   76.5220  221.1100 C   0  0  0  0  0  0  0  0  0  0  0  0
  140.3535   80.8422  224.1478 H   0  0  0  0  0  0  0  0  0  0  0  0
  142.4584   80.5950  222.8020 H   0  0  0  0  0  0  0  0  0  0  0  0
  142.7574   78.5710  221.4239 H   0  0  0  0  0  0  0  0  0  0  0  0
  138.6614   79.0869  224.0652 H   0  0  0  0  0  0  0  0  0  0  0  0
  138.8078   76.0544  223.5192 H   0  0  0  0  0  0  0  0  0  0  0  0
  137.6535   77.2226  222.8289 H   0  0  0  0  0  0  0  0  0  0  0  0
  138.0279   75.2042  221.3417 H   0  0  0  0  0  0  0  0  0  0  0  0
  138.4711   76.7190  220.5325 H   0  0  0  0  0  0  0  0  0  0  0  0
  141.1840   70.9680  218.4740 H   0  0  0  0  0  0  0  0  0  0  0  0
  143.2758   71.4535  217.6320 H   0  0  0  0  0  0  0  0  0  0  0  0
  143.2244   73.0007  218.6241 H   0  0  0  0  0  0  0  0  0  0  0  0
  143.8804   70.3456  219.7836 H   0  0  0  0  0  0  0  0  0  0  0  0
  143.2874   72.9154  220.8437 H   0  0  0  0  0  0  0  0  0  0  0  0
  144.4747   71.9771  221.6796 H   0  0  0  0  0  0  0  0  0  0  0  0
  144.9381   73.8827  219.2511 H   0  0  0  0  0  0  0  0  0  0  0  0
  145.6378   74.1221  220.8154 H   0  0  0  0  0  0  0  0  0  0  0  0
  146.5640   71.8800  220.6870 H   0  0  0  0  0  0  0  0  0  0  0  0
  145.5543   71.6047  217.9515 H   0  0  0  0  0  0  0  0  0  0  0  0
  145.9972   70.3560  219.1437 H   0  0  0  0  0  0  0  0  0  0  0  0
  138.1132   71.0631  223.8318 H   0  0  0  0  0  0  0  0  0  0  0  0
  138.9368   69.9830  222.6278 H   0  0  0  0  0  0  0  0  0  0  0  0
  138.1925   68.9087  224.8121 H   0  0  0  0  0  0  0  0  0  0  0  0
  139.9219   68.6800  224.3039 H   0  0  0  0  0  0  0  0  0  0  0  0
  138.4198   68.5807  227.1294 H   0  0  0  0  0  0  0  0  0  0  0  0
  139.2156   69.5112  229.3017 H   0  0  0  0  0  0  0  0  0  0  0  0
  140.8659   71.3695  229.2887 H   0  0  0  0  0  0  0  0  0  0  0  0
  141.7028   72.2919  227.1403 H   0  0  0  0  0  0  0  0  0  0  0  0
  141.2289   72.6169  224.8452 H   0  0  0  0  0  0  0  0  0  0  0  0
  142.0028   71.0206  224.4502 H   0  0  0  0  0  0  0  0  0  0  0  0
  142.1183   76.0578  221.4249 H   0  0  0  0  0  0  0  0  0  0  0  0
  141.2725   76.8395  220.0616 H   0  0  0  0  0  0  0  0  0  0  0  0
  1  2  2  0
  2  3  1  0
  3  4  2  0
  4  5  1  0
  5  6  2  0
  5  7  1  0
  7  8  1  0
  8  9  1  0
  9 10  1  0
 10 11  2  0
 11 12  1  0
 12 13  1  0
 13 14  1  0
 14 15  1  0
 15 16  1  0
 16 17  1  0
 17 18  1  0
 18 19  1  0
 12 20  2  0
 20 21  1  0
 21 22  1  0
 22 23  1  0
 23 24  1  0
 24 25  1  0
 25 26  2  0
 26 27  1  0
 27 28  2  0
 28 29  1  0
 29 30  2  0
 30 31  1  0
 21 32  2  0
  9 33  1  0
  6  1  1  0
 32 10  1  0
 33  4  1  0
 19 15  1  0
 31 22  1  0
 30 25  1  0
  1 34  1  0
  2 35  1  0
  3 36  1  0
  6 37  1  0
  7 38  1  0
  7 39  1  0
  8 40  1  0
  8 41  1  0
 13 42  1  0
 14 43  1  0
 14 44  1  0
 15 45  1  1
 16 46  1  0
 16 47  1  0
 17 48  1  0
 17 49  1  0
 18 50  1  0
 19 51  1  0
 19 52  1  0
 23 53  1  0
 23 54  1  0
 24 55  1  0
 24 56  1  0
 26 57  1  0
 27 58  1  0
 28 59  1  0
 29 60  1  0
 31 61  1  0
 31 62  1  0
 33 63  1  0
 33 64  1  0
M  END
>  <smiles>  (44) 
c1ccc2c(c1)CCN(c1nc(NCC3CCNC3)nc(N3CCc4ccccc4C3)n1)C2

>  <score_type>  (44) 
oracle

>  <origin>  (44) 
autodockgpu

>  <m_score__min__energy>  (44) 
-10.4

>  <m_primary>  (44) 
energy

>  <rmsd>  (44) 
4.990200937031088

>  <m_score__min__rmsd>  (44) 
4.990200937031088

>  <meeko>  (44) 
{"free_energy": -10.19, "intermolecular_energy": -11.69, "internal_energy": -1.06, "cluster_size": 50, "cluster_id": 1, "rank_in_cluster": 23}

>  <energy>  (44) 
-9.88

>  <cluster_rmsd>  (44) 
1.12

>  <cluster>  (44) 
1

$$$$

     RDKit          3D

 64 69  0  0  0  0  0  0  0  0999 V2000
  139.9370   68.1610  227.0200 C   0  0  0  0  0  0  0  0  0  0  0  0
  140.7330   69.1800  227.5270 C   0  0  0  0  0  0  0  0  0  0  0  0
  140.8740   70.3230  226.7900 C   0  0  0  0  0  0  0  0  0  0  0  0
  140.2430   70.4850  225.5550 C   0  0  0  0  0  0  0  0  0  0  0  0
  139.4510   69.4810  225.0410 C   0  0  0  0  0  0  0  0  0  0  0  0
  139.3280   68.3360  225.8120 C   0  0  0  0  0  0  0  0  0  0  0  0
  138.7580   69.6090  223.7280 C   0  0  0  0  0  0  0  0  0  0  0  0
  138.5180   71.0850  223.4840 C   0  0  0  0  0  0  0  0  0  0  0  0
  139.8060   71.7280  223.5850 N   0  0  0  0  0  0  0  0  0  0  0  0
  140.4280   72.3190  222.4530 C   0  0  0  0  0  0  0  0  0  0  0  0
  140.9140   71.5380  221.4610 N   0  0  0  0  0  0  0  0  0  0  0  0
  141.5030   72.0940  220.3880 C   0  0  0  0  0  0  0  0  0  0  0  0
  142.0250   71.2660  219.3250 N   0  0  0  0  0  0  0  0  0  0  0  0
  143.4170   71.2750  219.0060 C   0  0  0  0  0  0  0  0  0  0  0  0
  144.1630   72.4920  219.4600 C   0  0  2  0  0  0  0  0  0  0  0  0
  144.1130   73.4600  218.2720 C   0  0  0  0  0  0  0  0  0  0  0  0
  145.3790   73.0390  217.5500 C   0  0  0  0  0  0  0  0  0  0  0  0
  146.3230   73.0790  218.6610 N   0  0  0  0  0  0  0  0  0  0  0  0
  145.6140   72.3220  219.6980 C   0  0  0  0  0  0  0  0  0  0  0  0
  141.6060   73.4210  220.3050 N   0  0  0  0  0  0  0  0  0  0  0  0
  141.1330   74.2250  221.2720 C   0  0  0  0  0  0  0  0  0  0  0  0
  141.2340   75.6570  221.2010 N   0  0  0  0  0  0  0  0  0  0  0  0
  141.8400   76.2710  220.0440 C   0  0  0  0  0  0  0  0  0  0  0  0
  141.4000   77.7090  219.8690 C   0  0  0  0  0  0  0  0  0  0  0  0
  141.4550   78.4680  221.1370 C   0  0  0  0  0  0  0  0  0  0  0  0
  141.8430   79.8060  221.1280 C   0  0  0  0  0  0  0  0  0  0  0  0
  141.8920   80.5080  222.3150 C   0  0  0  0  0  0  0  0  0  0  0  0
  141.5530   79.8590  223.4850 C   0  0  0  0  0  0  0  0  0  0  0  0
  141.1690   78.5210  223.4690 C   0  0  0  0  0  0  0  0  0  0  0  0
  141.1210   77.8260  222.2920 C   0  0  0  0  0  0  0  0  0  0  0  0
  140.7080   76.4110  222.3260 C   0  0  0  0  0  0  0  0  0  0  0  0
  140.5460   73.6470  222.3420 N   0  0  0  0  0  0  0  0  0  0  0  0
  140.4830   71.7760  224.8640 C   0  0  0  0  0  0  0  0  0  0  0  0
  139.7997   67.2267  227.5842 H   0  0  0  0  0  0  0  0  0  0  0  0
  141.2379   69.0701  228.4981 H   0  0  0  0  0  0  0  0  0  0  0  0
  141.5018   71.1373  227.1808 H   0  0  0  0  0  0  0  0  0  0  0  0
  138.7011   67.5185  225.4264 H   0  0  0  0  0  0  0  0  0  0  0  0
  139.3884   69.1934  222.9281 H   0  0  0  0  0  0  0  0  0  0  0  0
  137.8066   69.0570  223.7357 H   0  0  0  0  0  0  0  0  0  0  0  0
  138.0923   71.2409  222.4818 H   0  0  0  0  0  0  0  0  0  0  0  0
  137.8063   71.4997  224.2130 H   0  0  0  0  0  0  0  0  0  0  0  0
  141.3650   70.6560  218.7900 H   0  0  0  0  0  0  0  0  0  0  0  0
  143.8805   70.3954  219.4766 H   0  0  0  0  0  0  0  0  0  0  0  0
  143.4806   71.2675  217.9079 H   0  0  0  0  0  0  0  0  0  0  0  0
  143.6979   72.7981  220.4087 H   0  0  0  0  0  0  0  0  0  0  0  0
  143.2170   73.3039  217.6533 H   0  0  0  0  0  0  0  0  0  0  0  0
  144.0597   74.5257  218.5393 H   0  0  0  0  0  0  0  0  0  0  0  0
  145.2905   72.0285  217.1245 H   0  0  0  0  0  0  0  0  0  0  0  0
  145.6510   73.6625  216.6855 H   0  0  0  0  0  0  0  0  0  0  0  0
  146.2870   74.0860  218.9920 H   0  0  0  0  0  0  0  0  0  0  0  0
  145.8825   71.2571  219.6353 H   0  0  0  0  0  0  0  0  0  0  0  0
  145.8876   72.6868  220.6990 H   0  0  0  0  0  0  0  0  0  0  0  0
  142.9335   76.2459  220.1605 H   0  0  0  0  0  0  0  0  0  0  0  0
  141.5215   75.7077  219.1545 H   0  0  0  0  0  0  0  0  0  0  0  0
  142.0609   78.1950  219.1362 H   0  0  0  0  0  0  0  0  0  0  0  0
  140.3555   77.7031  219.5239 H   0  0  0  0  0  0  0  0  0  0  0  0
  142.1084   80.2994  220.1814 H   0  0  0  0  0  0  0  0  0  0  0  0
  142.1956   81.5652  222.3285 H   0  0  0  0  0  0  0  0  0  0  0  0
  141.5866   80.4045  224.4396 H   0  0  0  0  0  0  0  0  0  0  0  0
  140.9021   78.0187  224.4105 H   0  0  0  0  0  0  0  0  0  0  0  0
  141.0749   75.9575  223.2586 H   0  0  0  0  0  0  0  0  0  0  0  0
  139.6099   76.3790  222.2693 H   0  0  0  0  0  0  0  0  0  0  0  0
  141.5623   71.9229  224.7104 H   0  0  0  0  0  0  0  0  0  0  0  0
  140.1010   72.6116  225.4689 H   0  0  0  0  0  0  0  0  0  0  0  0
  1  2  2  0
  2  3  1  0
  3  4  2  0
  4  5  1  0
  5  6  2  0
  5  7  1  0
  7  8  1  0
  8  9  1  0
  9 10  1  0
 10 11  2  0
 11 12  1  0
 12 13  1  0
 13 14  1  0
 14 15  1  0
 15 16  1  0
 16 17  1  0
 17 18  1  0
 18 19  1  0
 12 20  2  0
 20 21  1  0
 21 22  1  0
 22 23  1  0
 23 24  1  0
 24 25  1  0
 25 26  2  0
 26 27  1  0
 27 28  2  0
 28 29  1  0
 29 30  2  0
 30 31  1  0
 21 32  2  0
  9 33  1  0
  6  1  1  0
 32 10  1  0
 33  4  1  0
 19 15  1  0
 31 22  1  0
 30 25  1  0
  1 34  1  0
  2 35  1  0
  3 36  1  0
  6 37  1  0
  7 38  1  0
  7 39  1  0
  8 40  1  0
  8 41  1  0
 13 42  1  0
 14 43  1  0
 14 44  1  0
 15 45  1  1
 16 46  1  0
 16 47  1  0
 17 48  1  0
 17 49  1  0
 18 50  1  0
 19 51  1  0
 19 52  1  0
 23 53  1  0
 23 54  1  0
 24 55  1  0
 24 56  1  0
 26 57  1  0
 27 58  1  0
 28 59  1  0
 29 60  1  0
 31 61  1  0
 31 62  1  0
 33 63  1  0
 33 64  1  0
M  END
>  <smiles>  (45) 
c1ccc2c(c1)CCN(c1nc(NCC3CCNC3)nc(N3CCc4ccccc4C3)n1)C2

>  <score_type>  (45) 
oracle

>  <origin>  (45) 
autodockgpu

>  <m_score__min__energy>  (45) 
-10.4

>  <m_primary>  (45) 
energy

>  <rmsd>  (45) 
10.914613550343644

>  <m_score__min__rmsd>  (45) 
10.914613550343644

>  <meeko>  (45) 
{"free_energy": -10.4, "intermolecular_energy": -11.89, "internal_energy": -1.03, "cluster_size": 50, "cluster_id": 1, "rank_in_cluster": 2}

>  <energy>  (45) 
-9.88

>  <cluster_rmsd>  (45) 
1.2

>  <cluster>  (45) 
1

$$$$

     RDKit          3D

 64 69  0  0  0  0  0  0  0  0999 V2000
  139.9920   68.1040  226.9670 C   0  0  0  0  0  0  0  0  0  0  0  0
  140.8110   69.1040  227.4750 C   0  0  0  0  0  0  0  0  0  0  0  0
  140.9540   70.2560  226.7530 C   0  0  0  0  0  0  0  0  0  0  0  0
  140.3030   70.4460  225.5330 C   0  0  0  0  0  0  0  0  0  0  0  0
  139.4870   69.4610  225.0180 C   0  0  0  0  0  0  0  0  0  0  0  0
  139.3630   68.3060  225.7740 C   0  0  0  0  0  0  0  0  0  0  0  0
  138.7720   69.6190  223.7210 C   0  0  0  0  0  0  0  0  0  0  0  0
  138.5480   71.1020  223.5030 C   0  0  0  0  0  0  0  0  0  0  0  0
  139.8460   71.7260  223.5910 N   0  0  0  0  0  0  0  0  0  0  0  0
  140.4550   72.3250  222.4560 C   0  0  0  0  0  0  0  0  0  0  0  0
  140.9400   71.5520  221.4580 N   0  0  0  0  0  0  0  0  0  0  0  0
  141.5170   72.1170  220.3830 C   0  0  0  0  0  0  0  0  0  0  0  0
  142.0380   71.2970  219.3130 N   0  0  0  0  0  0  0  0  0  0  0  0
  143.4270   71.3190  218.9840 C   0  0  0  0  0  0  0  0  0  0  0  0
  144.1970   72.4680  219.5610 C   0  0  2  0  0  0  0  0  0  0  0  0
  144.0960   73.5840  218.5150 C   0  0  0  0  0  0  0  0  0  0  0  0
  145.3270   73.2670  217.6880 C   0  0  0  0  0  0  0  0  0  0  0  0
  146.3210   73.1620  218.7500 N   0  0  0  0  0  0  0  0  0  0  0  0
  145.6570   72.2720  219.7080 C   0  0  0  0  0  0  0  0  0  0  0  0
  141.6080   73.4460  220.3040 N   0  0  0  0  0  0  0  0  0  0  0  0
  141.1350   74.2420  221.2780 C   0  0  0  0  0  0  0  0  0  0  0  0
  141.2240   75.6750  221.2110 N   0  0  0  0  0  0  0  0  0  0  0  0
  141.8330   76.2970  220.0600 C   0  0  0  0  0  0  0  0  0  0  0  0
  141.3810   77.7320  219.8860 C   0  0  0  0  0  0  0  0  0  0  0  0
  141.4200   78.4880  221.1550 C   0  0  0  0  0  0  0  0  0  0  0  0
  141.7960   79.8290  221.1530 C   0  0  0  0  0  0  0  0  0  0  0  0
  141.8300   80.5280  222.3420 C   0  0  0  0  0  0  0  0  0  0  0  0
  141.4890   79.8730  223.5090 C   0  0  0  0  0  0  0  0  0  0  0  0
  141.1170   78.5320  223.4860 C   0  0  0  0  0  0  0  0  0  0  0  0
  141.0830   77.8400  222.3070 C   0  0  0  0  0  0  0  0  0  0  0  0
  140.6830   76.4210  222.3340 C   0  0  0  0  0  0  0  0  0  0  0  0
  140.5600   73.6550  222.3490 N   0  0  0  0  0  0  0  0  0  0  0  0
  140.5470   71.7450  224.8570 C   0  0  0  0  0  0  0  0  0  0  0  0
  139.8527   67.1627  227.5189 H   0  0  0  0  0  0  0  0  0  0  0  0
  141.3319   68.9723  228.4349 H   0  0  0  0  0  0  0  0  0  0  0  0
  141.6001   71.0556  227.1444 H   0  0  0  0  0  0  0  0  0  0  0  0
  138.7177   67.5031  225.3881 H   0  0  0  0  0  0  0  0  0  0  0  0
  139.3816   69.2069  222.9033 H   0  0  0  0  0  0  0  0  0  0  0  0
  137.8130   69.0805  223.7387 H   0  0  0  0  0  0  0  0  0  0  0  0
  138.1072   71.2786  222.5108 H   0  0  0  0  0  0  0  0  0  0  0  0
  137.8548   71.5152  224.2504 H   0  0  0  0  0  0  0  0  0  0  0  0
  141.3790   70.6840  218.7810 H   0  0  0  0  0  0  0  0  0  0  0  0
  143.8795   70.3862  219.3516 H   0  0  0  0  0  0  0  0  0  0  0  0
  143.4821   71.4303  217.8910 H   0  0  0  0  0  0  0  0  0  0  0  0
  143.7767   72.6449  220.5620 H   0  0  0  0  0  0  0  0  0  0  0  0
  143.1728   73.5077  217.9219 H   0  0  0  0  0  0  0  0  0  0  0  0
  144.0571   74.6048  218.9229 H   0  0  0  0  0  0  0  0  0  0  0  0
  145.2166   72.3217  217.1364 H   0  0  0  0  0  0  0  0  0  0  0  0
  145.5613   74.0013  216.9032 H   0  0  0  0  0  0  0  0  0  0  0  0
  146.3030   74.1160  219.2130 H   0  0  0  0  0  0  0  0  0  0  0  0
  145.9189   71.2257  219.4921 H   0  0  0  0  0  0  0  0  0  0  0  0
  145.9768   72.5015  220.7352 H   0  0  0  0  0  0  0  0  0  0  0  0
  142.9258   76.2813  220.1843 H   0  0  0  0  0  0  0  0  0  0  0  0
  141.5264   75.7331  219.1666 H   0  0  0  0  0  0  0  0  0  0  0  0
  142.0425   78.2260  219.1591 H   0  0  0  0  0  0  0  0  0  0  0  0
  140.3389   77.7172  219.5340 H   0  0  0  0  0  0  0  0  0  0  0  0
  142.0641   80.3275  220.2098 H   0  0  0  0  0  0  0  0  0  0  0  0
  142.1234   81.5880  222.3601 H   0  0  0  0  0  0  0  0  0  0  0  0
  141.5116   80.4160  224.4654 H   0  0  0  0  0  0  0  0  0  0  0  0
  140.8481   78.0245  224.4241 H   0  0  0  0  0  0  0  0  0  0  0  0
  141.0473   75.9683  223.2680 H   0  0  0  0  0  0  0  0  0  0  0  0
  139.5857   76.3790  222.2690 H   0  0  0  0  0  0  0  0  0  0  0  0
  141.6251   71.8803  224.6853 H   0  0  0  0  0  0  0  0  0  0  0  0
  140.1873   72.5758  225.4818 H   0  0  0  0  0  0  0  0  0  0  0  0
  1  2  2  0
  2  3  1  0
  3  4  2  0
  4  5  1  0
  5  6  2  0
  5  7  1  0
  7  8  1  0
  8  9  1  0
  9 10  1  0
 10 11  2  0
 11 12  1  0
 12 13  1  0
 13 14  1  0
 14 15  1  0
 15 16  1  0
 16 17  1  0
 17 18  1  0
 18 19  1  0
 12 20  2  0
 20 21  1  0
 21 22  1  0
 22 23  1  0
 23 24  1  0
 24 25  1  0
 25 26  2  0
 26 27  1  0
 27 28  2  0
 28 29  1  0
 29 30  2  0
 30 31  1  0
 21 32  2  0
  9 33  1  0
  6  1  1  0
 32 10  1  0
 33  4  1  0
 19 15  1  0
 31 22  1  0
 30 25  1  0
  1 34  1  0
  2 35  1  0
  3 36  1  0
  6 37  1  0
  7 38  1  0
  7 39  1  0
  8 40  1  0
  8 41  1  0
 13 42  1  0
 14 43  1  0
 14 44  1  0
 15 45  1  1
 16 46  1  0
 16 47  1  0
 17 48  1  0
 17 49  1  0
 18 50  1  0
 19 51  1  0
 19 52  1  0
 23 53  1  0
 23 54  1  0
 24 55  1  0
 24 56  1  0
 26 57  1  0
 27 58  1  0
 28 59  1  0
 29 60  1  0
 31 61  1  0
 31 62  1  0
 33 63  1  0
 33 64  1  0
M  END
>  <smiles>  (46) 
c1ccc2c(c1)CCN(c1nc(NCC3CCNC3)nc(N3CCc4ccccc4C3)n1)C2

>  <score_type>  (46) 
oracle

>  <origin>  (46) 
autodockgpu

>  <m_score__min__energy>  (46) 
-10.4

>  <m_primary>  (46) 
energy

>  <rmsd>  (46) 
10.927912441442555

>  <m_score__min__rmsd>  (46) 
10.927912441442555

>  <meeko>  (46) 
{"free_energy": -10.4, "intermolecular_energy": -11.89, "internal_energy": -1.04, "cluster_size": 50, "cluster_id": 1, "rank_in_cluster": 4}

>  <energy>  (46) 
-9.88

>  <cluster_rmsd>  (46) 
1.23

>  <cluster>  (46) 
1

$$$$

     RDKit          3D

 64 69  0  0  0  0  0  0  0  0999 V2000
  140.5270   79.9140  223.5360 C   0  0  0  0  0  0  0  0  0  0  0  0
  141.7070   79.7600  222.8190 C   0  0  0  0  0  0  0  0  0  0  0  0
  141.8620   78.6340  222.0580 C   0  0  0  0  0  0  0  0  0  0  0  0
  140.8730   77.6510  221.9880 C   0  0  0  0  0  0  0  0  0  0  0  0
  139.6990   77.7930  222.6950 C   0  0  0  0  0  0  0  0  0  0  0  0
  139.5710   78.9440  223.4550 C   0  0  0  0  0  0  0  0  0  0  0  0
  138.6160   76.7710  222.6500 C   0  0  0  0  0  0  0  0  0  0  0  0
  138.7200   76.0570  221.3180 C   0  0  0  0  0  0  0  0  0  0  0  0
  140.0700   75.5540  221.2310 N   0  0  0  0  0  0  0  0  0  0  0  0
  140.3410   74.1590  221.2490 C   0  0  0  0  0  0  0  0  0  0  0  0
  140.8190   73.5460  220.1410 N   0  0  0  0  0  0  0  0  0  0  0  0
  141.0760   72.2270  220.1560 C   0  0  0  0  0  0  0  0  0  0  0  0
  141.5870   71.5660  218.9770 N   0  0  0  0  0  0  0  0  0  0  0  0
  142.8580   71.9210  218.4300 C   0  0  0  0  0  0  0  0  0  0  0  0
  143.6310   72.9280  219.2270 C   0  0  2  0  0  0  0  0  0  0  0  0
  144.0770   73.9860  218.2110 C   0  0  0  0  0  0  0  0  0  0  0  0
  145.4100   73.3930  217.7970 C   0  0  0  0  0  0  0  0  0  0  0  0
  145.9940   73.1540  219.1120 N   0  0  0  0  0  0  0  0  0  0  0  0
  144.9080   72.4610  219.8120 C   0  0  0  0  0  0  0  0  0  0  0  0
  140.8580   71.5230  221.2670 N   0  0  0  0  0  0  0  0  0  0  0  0
  140.3850   72.1010  222.3840 C   0  0  0  0  0  0  0  0  0  0  0  0
  140.1440   71.3600  223.5920 N   0  0  0  0  0  0  0  0  0  0  0  0
  139.0190   70.4590  223.6610 C   0  0  0  0  0  0  0  0  0  0  0  0
  139.2050   69.4010  224.7270 C   0  0  0  0  0  0  0  0  0  0  0  0
  139.6860   69.9710  226.0030 C   0  0  0  0  0  0  0  0  0  0  0  0
  139.2300   69.4500  227.2120 C   0  0  0  0  0  0  0  0  0  0  0  0
  139.6830   69.9890  228.3990 C   0  0  0  0  0  0  0  0  0  0  0  0
  140.5830   71.0360  228.3540 C   0  0  0  0  0  0  0  0  0  0  0  0
  141.0240   71.5390  227.1330 C   0  0  0  0  0  0  0  0  0  0  0  0
  140.5740   71.0050  225.9580 C   0  0  0  0  0  0  0  0  0  0  0  0
  141.0710   71.5730  224.6910 C   0  0  0  0  0  0  0  0  0  0  0  0
  140.1320   73.4280  222.3500 N   0  0  0  0  0  0  0  0  0  0  0  0
  141.1750   76.4830  221.1230 C   0  0  0  0  0  0  0  0  0  0  0  0
  140.3658   80.8053  224.1601 H   0  0  0  0  0  0  0  0  0  0  0  0
  142.4968   80.5244  222.8622 H   0  0  0  0  0  0  0  0  0  0  0  0
  142.7915   78.4993  221.4854 H   0  0  0  0  0  0  0  0  0  0  0  0
  138.6425   79.0844  224.0278 H   0  0  0  0  0  0  0  0  0  0  0  0
  138.7435   76.0520  223.4727 H   0  0  0  0  0  0  0  0  0  0  0  0
  137.6299   77.2459  222.7595 H   0  0  0  0  0  0  0  0  0  0  0  0
  138.0006   75.2260  221.2743 H   0  0  0  0  0  0  0  0  0  0  0  0
  138.4920   76.7352  220.4825 H   0  0  0  0  0  0  0  0  0  0  0  0
  141.0090   70.8190  218.5270 H   0  0  0  0  0  0  0  0  0  0  0  0
  143.4648   71.0066  218.3549 H   0  0  0  0  0  0  0  0  0  0  0  0
  142.6537   72.3904  217.4564 H   0  0  0  0  0  0  0  0  0  0  0  0
  142.9721   73.2350  220.0526 H   0  0  0  0  0  0  0  0  0  0  0  0
  143.3801   74.0596  217.3631 H   0  0  0  0  0  0  0  0  0  0  0  0
  144.1232   75.0148  218.5976 H   0  0  0  0  0  0  0  0  0  0  0  0
  145.2838   72.4592  217.2295 H   0  0  0  0  0  0  0  0  0  0  0  0
  146.0127   74.0247  217.1279 H   0  0  0  0  0  0  0  0  0  0  0  0
  146.0290   74.1160  219.5560 H   0  0  0  0  0  0  0  0  0  0  0  0
  145.0076   71.3739  219.6766 H   0  0  0  0  0  0  0  0  0  0  0  0
  144.9421   72.6776  220.8899 H   0  0  0  0  0  0  0  0  0  0  0  0
  138.1129   71.0390  223.8905 H   0  0  0  0  0  0  0  0  0  0  0  0
  138.9304   69.9508  222.6895 H   0  0  0  0  0  0  0  0  0  0  0  0
  138.2404   68.9026  224.9032 H   0  0  0  0  0  0  0  0  0  0  0  0
  139.9639   68.6903  224.3679 H   0  0  0  0  0  0  0  0  0  0  0  0
  138.5140   68.6150  227.2204 H   0  0  0  0  0  0  0  0  0  0  0  0
  139.3337   69.5920  229.3636 H   0  0  0  0  0  0  0  0  0  0  0  0
  140.9545   71.4762  229.2911 H   0  0  0  0  0  0  0  0  0  0  0  0
  141.7407   72.3733  227.1137 H   0  0  0  0  0  0  0  0  0  0  0  0
  141.2215   72.6547  224.8228 H   0  0  0  0  0  0  0  0  0  0  0  0
  142.0139   71.0649  224.4404 H   0  0  0  0  0  0  0  0  0  0  0  0
  142.1044   75.9995  221.4584 H   0  0  0  0  0  0  0  0  0  0  0  0
  141.3073   76.8026  220.0788 H   0  0  0  0  0  0  0  0  0  0  0  0
  1  2  2  0
  2  3  1  0
  3  4  2  0
  4  5  1  0
  5  6  2  0
  5  7  1  0
  7  8  1  0
  8  9  1  0
  9 10  1  0
 10 11  2  0
 11 12  1  0
 12 13  1  0
 13 14  1  0
 14 15  1  0
 15 16  1  0
 16 17  1  0
 17 18  1  0
 18 19  1  0
 12 20  2  0
 20 21  1  0
 21 22  1  0
 22 23  1  0
 23 24  1  0
 24 25  1  0
 25 26  2  0
 26 27  1  0
 27 28  2  0
 28 29  1  0
 29 30  2  0
 30 31  1  0
 21 32  2  0
  9 33  1  0
  6  1  1  0
 32 10  1  0
 33  4  1  0
 19 15  1  0
 31 22  1  0
 30 25  1  0
  1 34  1  0
  2 35  1  0
  3 36  1  0
  6 37  1  0
  7 38  1  0
  7 39  1  0
  8 40  1  0
  8 41  1  0
 13 42  1  0
 14 43  1  0
 14 44  1  0
 15 45  1  1
 16 46  1  0
 16 47  1  0
 17 48  1  0
 17 49  1  0
 18 50  1  0
 19 51  1  0
 19 52  1  0
 23 53  1  0
 23 54  1  0
 24 55  1  0
 24 56  1  0
 26 57  1  0
 27 58  1  0
 28 59  1  0
 29 60  1  0
 31 61  1  0
 31 62  1  0
 33 63  1  0
 33 64  1  0
M  END
>  <smiles>  (47) 
c1ccc2c(c1)CCN(c1nc(NCC3CCNC3)nc(N3CCc4ccccc4C3)n1)C2

>  <score_type>  (47) 
oracle

>  <origin>  (47) 
autodockgpu

>  <m_score__min__energy>  (47) 
-10.4

>  <m_primary>  (47) 
energy

>  <rmsd>  (47) 
5.000646501632884

>  <m_score__min__rmsd>  (47) 
5.000646501632884

>  <meeko>  (47) 
{"free_energy": -9.9, "intermolecular_energy": -11.39, "internal_energy": -1.08, "cluster_size": 50, "cluster_id": 1, "rank_in_cluster": 43}

>  <energy>  (47) 
-9.85

>  <cluster_rmsd>  (47) 
0.76

>  <cluster>  (47) 
1

$$$$

     RDKit          3D

 64 69  0  0  0  0  0  0  0  0999 V2000
  139.9280   68.0730  226.7670 C   0  0  0  0  0  0  0  0  0  0  0  0
  140.7570   69.0580  227.2900 C   0  0  0  0  0  0  0  0  0  0  0  0
  140.8800   70.2350  226.6050 C   0  0  0  0  0  0  0  0  0  0  0  0
  140.2000   70.4640  225.4070 C   0  0  0  0  0  0  0  0  0  0  0  0
  139.3750   69.4950  224.8780 C   0  0  0  0  0  0  0  0  0  0  0  0
  139.2700   68.3140  225.5970 C   0  0  0  0  0  0  0  0  0  0  0  0
  138.6300   69.6940  223.6040 C   0  0  0  0  0  0  0  0  0  0  0  0
  138.3980   71.1830  223.4420 C   0  0  0  0  0  0  0  0  0  0  0  0
  139.6960   71.8070  223.5210 N   0  0  0  0  0  0  0  0  0  0  0  0
  140.2770   72.4470  222.3930 C   0  0  0  0  0  0  0  0  0  0  0  0
  140.7430   71.7090  221.3590 N   0  0  0  0  0  0  0  0  0  0  0  0
  141.2930   72.3120  220.2910 C   0  0  0  0  0  0  0  0  0  0  0  0
  141.7930   71.5300  219.1830 N   0  0  0  0  0  0  0  0  0  0  0  0
  143.1410   71.6750  218.7340 C   0  0  0  0  0  0  0  0  0  0  0  0
  144.1860   71.2540  219.7220 C   0  0  2  0  0  0  0  0  0  0  0  0
  144.2760   72.4090  220.7270 C   0  0  0  0  0  0  0  0  0  0  0  0
  145.3470   73.2460  220.0550 C   0  0  0  0  0  0  0  0  0  0  0  0
  146.3560   72.2190  219.8230 N   0  0  0  0  0  0  0  0  0  0  0  0
  145.5700   71.1460  219.2070 C   0  0  0  0  0  0  0  0  0  0  0  0
  141.3780   73.6420  220.2540 N   0  0  0  0  0  0  0  0  0  0  0  0
  140.9240   74.4040  221.2640 C   0  0  0  0  0  0  0  0  0  0  0  0
  141.0070   75.8390  221.2430 N   0  0  0  0  0  0  0  0  0  0  0  0
  141.2830   76.5170  219.9990 C   0  0  0  0  0  0  0  0  0  0  0  0
  140.8170   77.9570  220.0230 C   0  0  0  0  0  0  0  0  0  0  0  0
  141.2090   78.6520  221.2680 C   0  0  0  0  0  0  0  0  0  0  0  0
  141.5840   79.9930  221.2250 C   0  0  0  0  0  0  0  0  0  0  0  0
  141.9500   80.6340  222.3910 C   0  0  0  0  0  0  0  0  0  0  0  0
  141.9340   79.9230  223.5750 C   0  0  0  0  0  0  0  0  0  0  0  0
  141.5560   78.5830  223.5910 C   0  0  0  0  0  0  0  0  0  0  0  0
  141.1940   77.9480  222.4360 C   0  0  0  0  0  0  0  0  0  0  0  0
  140.8010   76.5290  222.5050 C   0  0  0  0  0  0  0  0  0  0  0  0
  140.3760   73.7800  222.3280 N   0  0  0  0  0  0  0  0  0  0  0  0
  140.4270   71.7850  224.7710 C   0  0  0  0  0  0  0  0  0  0  0  0
  139.8043   67.1128  227.2891 H   0  0  0  0  0  0  0  0  0  0  0  0
  141.3010   68.8948  228.2320 H   0  0  0  0  0  0  0  0  0  0  0  0
  141.5326   71.0232  227.0087 H   0  0  0  0  0  0  0  0  0  0  0  0
  138.6163   67.5236  225.1996 H   0  0  0  0  0  0  0  0  0  0  0  0
  139.2214   69.3116  222.7590 H   0  0  0  0  0  0  0  0  0  0  0  0
  137.6730   69.1520  223.6251 H   0  0  0  0  0  0  0  0  0  0  0  0
  137.9338   71.3921  222.4669 H   0  0  0  0  0  0  0  0  0  0  0  0
  137.7216   71.5686  224.2190 H   0  0  0  0  0  0  0  0  0  0  0  0
  141.1500   70.8520  218.7140 H   0  0  0  0  0  0  0  0  0  0  0  0
  143.2655   71.0671  217.8257 H   0  0  0  0  0  0  0  0  0  0  0  0
  143.2944   72.7509  218.5637 H   0  0  0  0  0  0  0  0  0  0  0  0
  143.8804   70.2617  220.0853 H   0  0  0  0  0  0  0  0  0  0  0  0
  143.3239   72.9532  220.8124 H   0  0  0  0  0  0  0  0  0  0  0  0
  144.4971   72.1111  221.7626 H   0  0  0  0  0  0  0  0  0  0  0  0
  144.9896   73.6883  219.1134 H   0  0  0  0  0  0  0  0  0  0  0  0
  145.6918   74.1140  220.6361 H   0  0  0  0  0  0  0  0  0  0  0  0
  146.5850   71.8610  220.7950 H   0  0  0  0  0  0  0  0  0  0  0  0
  145.5732   71.2592  218.1128 H   0  0  0  0  0  0  0  0  0  0  0  0
  145.9984   70.1630  219.4524 H   0  0  0  0  0  0  0  0  0  0  0  0
  142.3677   76.4976  219.8169 H   0  0  0  0  0  0  0  0  0  0  0  0
  140.7362   75.9960  219.1993 H   0  0  0  0  0  0  0  0  0  0  0  0
  141.2606   78.4869  219.1672 H   0  0  0  0  0  0  0  0  0  0  0  0
  139.7183   77.9566  219.9689 H   0  0  0  0  0  0  0  0  0  0  0  0
  141.5883   80.5368  220.2688 H   0  0  0  0  0  0  0  0  0  0  0  0
  142.2492   81.6925  222.3777 H   0  0  0  0  0  0  0  0  0  0  0  0
  142.2223   80.4195  224.5132 H   0  0  0  0  0  0  0  0  0  0  0  0
  141.5486   78.0303  224.5420 H   0  0  0  0  0  0  0  0  0  0  0  0
  141.4013   76.0328  223.2818 H   0  0  0  0  0  0  0  0  0  0  0  0
  139.7273   76.4877  222.7404 H   0  0  0  0  0  0  0  0  0  0  0  0
  141.5006   71.9281  224.5790 H   0  0  0  0  0  0  0  0  0  0  0  0
  140.0816   72.5936  225.4319 H   0  0  0  0  0  0  0  0  0  0  0  0
  1  2  2  0
  2  3  1  0
  3  4  2  0
  4  5  1  0
  5  6  2  0
  5  7  1  0
  7  8  1  0
  8  9  1  0
  9 10  1  0
 10 11  2  0
 11 12  1  0
 12 13  1  0
 13 14  1  0
 14 15  1  0
 15 16  1  0
 16 17  1  0
 17 18  1  0
 18 19  1  0
 12 20  2  0
 20 21  1  0
 21 22  1  0
 22 23  1  0
 23 24  1  0
 24 25  1  0
 25 26  2  0
 26 27  1  0
 27 28  2  0
 28 29  1  0
 29 30  2  0
 30 31  1  0
 21 32  2  0
  9 33  1  0
  6  1  1  0
 32 10  1  0
 33  4  1  0
 19 15  1  0
 31 22  1  0
 30 25  1  0
  1 34  1  0
  2 35  1  0
  3 36  1  0
  6 37  1  0
  7 38  1  0
  7 39  1  0
  8 40  1  0
  8 41  1  0
 13 42  1  0
 14 43  1  0
 14 44  1  0
 15 45  1  1
 16 46  1  0
 16 47  1  0
 17 48  1  0
 17 49  1  0
 18 50  1  0
 19 51  1  0
 19 52  1  0
 23 53  1  0
 23 54  1  0
 24 55  1  0
 24 56  1  0
 26 57  1  0
 27 58  1  0
 28 59  1  0
 29 60  1  0
 31 61  1  0
 31 62  1  0
 33 63  1  0
 33 64  1  0
M  END
>  <smiles>  (48) 
c1ccc2c(c1)CCN(c1nc(NCC3CCNC3)nc(N3CCc4ccccc4C3)n1)C2

>  <score_type>  (48) 
oracle

>  <origin>  (48) 
autodockgpu

>  <m_score__min__energy>  (48) 
-10.4

>  <m_primary>  (48) 
energy

>  <rmsd>  (48) 
10.846559862237585

>  <m_score__min__rmsd>  (48) 
10.846559862237585

>  <meeko>  (48) 
{"free_energy": -10.21, "intermolecular_energy": -11.7, "internal_energy": -1.02, "cluster_size": 50, "cluster_id": 1, "rank_in_cluster": 21}

>  <energy>  (48) 
-9.6

>  <cluster_rmsd>  (48) 
1.64

>  <cluster>  (48) 
1

$$$$

     RDKit          3D

 64 69  0  0  0  0  0  0  0  0999 V2000
  140.4870   80.0240  223.6680 C   0  0  0  0  0  0  0  0  0  0  0  0
  141.6640   79.8900  222.9420 C   0  0  0  0  0  0  0  0  0  0  0  0
  141.8220   78.7810  222.1590 C   0  0  0  0  0  0  0  0  0  0  0  0
  140.8390   77.7930  222.0750 C   0  0  0  0  0  0  0  0  0  0  0  0
  139.6680   77.9140  222.7910 C   0  0  0  0  0  0  0  0  0  0  0  0
  139.5370   79.0500  223.5740 C   0  0  0  0  0  0  0  0  0  0  0  0
  138.5910   76.8860  222.7320 C   0  0  0  0  0  0  0  0  0  0  0  0
  138.6920   76.1990  221.3850 C   0  0  0  0  0  0  0  0  0  0  0  0
  140.0440   75.7060  221.2820 N   0  0  0  0  0  0  0  0  0  0  0  0
  140.3240   74.3130  221.2710 C   0  0  0  0  0  0  0  0  0  0  0  0
  140.8210   73.7290  220.1570 N   0  0  0  0  0  0  0  0  0  0  0  0
  141.0860   72.4120  220.1440 C   0  0  0  0  0  0  0  0  0  0  0  0
  141.6170   71.7810  218.9570 N   0  0  0  0  0  0  0  0  0  0  0  0
  143.0090   71.8600  218.6450 C   0  0  0  0  0  0  0  0  0  0  0  0
  143.9310   71.4870  219.7660 C   0  0  2  0  0  0  0  0  0  0  0  0
  144.1900   72.7950  220.5240 C   0  0  0  0  0  0  0  0  0  0  0  0
  145.4130   73.2840  219.7730 C   0  0  0  0  0  0  0  0  0  0  0  0
  146.2330   72.0780  219.8200 N   0  0  0  0  0  0  0  0  0  0  0  0
  145.2900   71.0460  219.3780 C   0  0  0  0  0  0  0  0  0  0  0  0
  140.8580   71.6800  221.2360 N   0  0  0  0  0  0  0  0  0  0  0  0
  140.3660   72.2300  222.3590 C   0  0  0  0  0  0  0  0  0  0  0  0
  140.1130   71.4590  223.5460 N   0  0  0  0  0  0  0  0  0  0  0  0
  138.9400   70.6210  223.6130 C   0  0  0  0  0  0  0  0  0  0  0  0
  139.0920   69.5150  224.6360 C   0  0  0  0  0  0  0  0  0  0  0  0
  139.6370   70.0100  225.9180 C   0  0  0  0  0  0  0  0  0  0  0  0
  139.1820   69.4720  227.1200 C   0  0  0  0  0  0  0  0  0  0  0  0
  139.6950   69.9400  228.3120 C   0  0  0  0  0  0  0  0  0  0  0  0
  140.6520   70.9350  228.2800 C   0  0  0  0  0  0  0  0  0  0  0  0
  141.0900   71.4580  227.0660 C   0  0  0  0  0  0  0  0  0  0  0  0
  140.5810   70.9940  225.8850 C   0  0  0  0  0  0  0  0  0  0  0  0
  141.0780   71.5790  224.6260 C   0  0  0  0  0  0  0  0  0  0  0  0
  140.1050   73.5550  222.3520 N   0  0  0  0  0  0  0  0  0  0  0  0
  141.1430   76.6440  221.1860 C   0  0  0  0  0  0  0  0  0  0  0  0
  140.3238   80.9028  224.3092 H   0  0  0  0  0  0  0  0  0  0  0  0
  142.4497   80.6579  222.9961 H   0  0  0  0  0  0  0  0  0  0  0  0
  142.7492   78.6636  221.5790 H   0  0  0  0  0  0  0  0  0  0  0  0
  138.6110   79.1735  224.1547 H   0  0  0  0  0  0  0  0  0  0  0  0
  138.7278   76.1517  223.5395 H   0  0  0  0  0  0  0  0  0  0  0  0
  137.6025   77.3522  222.8565 H   0  0  0  0  0  0  0  0  0  0  0  0
  137.9771   75.3649  221.3284 H   0  0  0  0  0  0  0  0  0  0  0  0
  138.4556   76.8920  220.5641 H   0  0  0  0  0  0  0  0  0  0  0  0
  140.9640   71.2620  218.3270 H   0  0  0  0  0  0  0  0  0  0  0  0
  143.2083   71.1845  217.8000 H   0  0  0  0  0  0  0  0  0  0  0  0
  143.2137   72.9165  218.4169 H   0  0  0  0  0  0  0  0  0  0  0  0
  143.4440   70.6569  220.2988 H   0  0  0  0  0  0  0  0  0  0  0  0
  143.3464   73.4951  220.4338 H   0  0  0  0  0  0  0  0  0  0  0  0
  144.3210   72.6873  221.6108 H   0  0  0  0  0  0  0  0  0  0  0  0
  145.1699   73.5732  218.7399 H   0  0  0  0  0  0  0  0  0  0  0  0
  145.8862   74.1846  220.1913 H   0  0  0  0  0  0  0  0  0  0  0  0
  146.3630   71.8970  220.8570 H   0  0  0  0  0  0  0  0  0  0  0  0
  145.3485   70.9271  218.2860 H   0  0  0  0  0  0  0  0  0  0  0  0
  145.5299   70.0783  219.8427 H   0  0  0  0  0  0  0  0  0  0  0  0
  138.0747   71.2423  223.8873 H   0  0  0  0  0  0  0  0  0  0  0  0
  138.7980   70.1550  222.6267 H   0  0  0  0  0  0  0  0  0  0  0  0
  138.1052   69.0655  224.8208 H   0  0  0  0  0  0  0  0  0  0  0  0
  139.7995   68.7762  224.2315 H   0  0  0  0  0  0  0  0  0  0  0  0
  138.4191   68.6796  227.1185 H   0  0  0  0  0  0  0  0  0  0  0  0
  139.3479   69.5279  229.2710 H   0  0  0  0  0  0  0  0  0  0  0  0
  141.0720   71.3179  229.2218 H   0  0  0  0  0  0  0  0  0  0  0  0
  141.8520   72.2512  227.0572 H   0  0  0  0  0  0  0  0  0  0  0  0
  141.2936   72.6449  224.7916 H   0  0  0  0  0  0  0  0  0  0  0  0
  141.9837   71.0281  224.3322 H   0  0  0  0  0  0  0  0  0  0  0  0
  142.0771   76.1598  221.5068 H   0  0  0  0  0  0  0  0  0  0  0  0
  141.2673   76.9846  220.1475 H   0  0  0  0  0  0  0  0  0  0  0  0
  1  2  2  0
  2  3  1  0
  3  4  2  0
  4  5  1  0
  5  6  2  0
  5  7  1  0
  7  8  1  0
  8  9  1  0
  9 10  1  0
 10 11  2  0
 11 12  1  0
 12 13  1  0
 13 14  1  0
 14 15  1  0
 15 16  1  0
 16 17  1  0
 17 18  1  0
 18 19  1  0
 12 20  2  0
 20 21  1  0
 21 22  1  0
 22 23  1  0
 23 24  1  0
 24 25  1  0
 25 26  2  0
 26 27  1  0
 27 28  2  0
 28 29  1  0
 29 30  2  0
 30 31  1  0
 21 32  2  0
  9 33  1  0
  6  1  1  0
 32 10  1  0
 33  4  1  0
 19 15  1  0
 31 22  1  0
 30 25  1  0
  1 34  1  0
  2 35  1  0
  3 36  1  0
  6 37  1  0
  7 38  1  0
  7 39  1  0
  8 40  1  0
  8 41  1  0
 13 42  1  0
 14 43  1  0
 14 44  1  0
 15 45  1  1
 16 46  1  0
 16 47  1  0
 17 48  1  0
 17 49  1  0
 18 50  1  0
 19 51  1  0
 19 52  1  0
 23 53  1  0
 23 54  1  0
 24 55  1  0
 24 56  1  0
 26 57  1  0
 27 58  1  0
 28 59  1  0
 29 60  1  0
 31 61  1  0
 31 62  1  0
 33 63  1  0
 33 64  1  0
M  END
>  <smiles>  (49) 
c1ccc2c(c1)CCN(c1nc(NCC3CCNC3)nc(N3CCc4ccccc4C3)n1)C2

>  <score_type>  (49) 
oracle

>  <origin>  (49) 
autodockgpu

>  <m_score__min__energy>  (49) 
-10.4

>  <m_primary>  (49) 
energy

>  <rmsd>  (49) 
5.045926304484524

>  <m_score__min__rmsd>  (49) 
5.045926304484524

>  <meeko>  (49) 
{"free_energy": -10.12, "intermolecular_energy": -11.61, "internal_energy": -1.09, "cluster_size": 50, "cluster_id": 1, "rank_in_cluster": 30}

>  <energy>  (49) 
-9.5

>  <cluster_rmsd>  (49) 
1.15

>  <cluster>  (49) 
1

$$$$

     RDKit          3D

 64 69  0  0  0  0  0  0  0  0999 V2000
  139.9360   68.1920  227.0710 C   0  0  0  0  0  0  0  0  0  0  0  0
  140.6140   69.2700  227.6250 C   0  0  0  0  0  0  0  0  0  0  0  0
  140.7520   70.4060  226.8750 C   0  0  0  0  0  0  0  0  0  0  0  0
  140.2340   70.5020  225.5830 C   0  0  0  0  0  0  0  0  0  0  0  0
  139.5590   69.4390  225.0220 C   0  0  0  0  0  0  0  0  0  0  0  0
  139.4350   68.3030  225.8070 C   0  0  0  0  0  0  0  0  0  0  0  0
  138.9880   69.4960  223.6470 C   0  0  0  0  0  0  0  0  0  0  0  0
  138.6800   70.9480  223.3440 C   0  0  0  0  0  0  0  0  0  0  0  0
  139.9090   71.6760  223.5500 N   0  0  0  0  0  0  0  0  0  0  0  0
  140.5980   72.2840  222.4660 C   0  0  0  0  0  0  0  0  0  0  0  0
  141.2030   71.5170  221.5310 N   0  0  0  0  0  0  0  0  0  0  0  0
  141.8550   72.0890  220.5040 C   0  0  0  0  0  0  0  0  0  0  0  0
  142.5050   71.2760  219.5020 N   0  0  0  0  0  0  0  0  0  0  0  0
  143.8970   70.9700  219.5960 C   0  0  0  0  0  0  0  0  0  0  0  0
  144.8130   72.0070  219.0210 C   0  0  2  0  0  0  0  0  0  0  0  0
  145.8540   72.2720  220.1150 C   0  0  0  0  0  0  0  0  0  0  0  0
  145.1600   73.3970  220.8580 C   0  0  0  0  0  0  0  0  0  0  0  0
  144.8390   74.2740  219.7380 N   0  0  0  0  0  0  0  0  0  0  0  0
  144.2240   73.3450  218.7840 C   0  0  0  0  0  0  0  0  0  0  0  0
  141.9040   73.4190  220.4110 N   0  0  0  0  0  0  0  0  0  0  0  0
  141.3120   74.2090  221.3230 C   0  0  0  0  0  0  0  0  0  0  0  0
  141.3520   75.6440  221.2400 N   0  0  0  0  0  0  0  0  0  0  0  0
  141.9690   76.2730  220.0980 C   0  0  0  0  0  0  0  0  0  0  0  0
  141.4730   77.6890  219.8930 C   0  0  0  0  0  0  0  0  0  0  0  0
  141.4500   78.4610  221.1540 C   0  0  0  0  0  0  0  0  0  0  0  0
  141.7790   79.8150  221.1440 C   0  0  0  0  0  0  0  0  0  0  0  0
  141.7560   80.5280  222.3250 C   0  0  0  0  0  0  0  0  0  0  0  0
  141.4060   79.8760  223.4900 C   0  0  0  0  0  0  0  0  0  0  0  0
  141.0820   78.5220  223.4740 C   0  0  0  0  0  0  0  0  0  0  0  0
  141.1050   77.8150  222.3040 C   0  0  0  0  0  0  0  0  0  0  0  0
  140.7540   76.3830  222.3390 C   0  0  0  0  0  0  0  0  0  0  0  0
  140.6620   73.6150  222.3470 N   0  0  0  0  0  0  0  0  0  0  0  0
  140.4570   71.7930  224.8850 C   0  0  0  0  0  0  0  0  0  0  0  0
  139.8048   67.2618  227.6433 H   0  0  0  0  0  0  0  0  0  0  0  0
  141.0298   69.2120  228.6417 H   0  0  0  0  0  0  0  0  0  0  0  0
  141.2861   71.2674  227.3024 H   0  0  0  0  0  0  0  0  0  0  0  0
  138.9004   67.4391  225.3852 H   0  0  0  0  0  0  0  0  0  0  0  0
  139.7169   69.1068  222.9208 H   0  0  0  0  0  0  0  0  0  0  0  0
  138.0769   68.8834  223.5792 H   0  0  0  0  0  0  0  0  0  0  0  0
  138.3435   71.0563  222.3023 H   0  0  0  0  0  0  0  0  0  0  0  0
  137.8769   71.3292  223.9918 H   0  0  0  0  0  0  0  0  0  0  0  0
  141.9370   70.9120  218.7020 H   0  0  0  0  0  0  0  0  0  0  0  0
  144.1479   70.8449  220.6597 H   0  0  0  0  0  0  0  0  0  0  0  0
  144.0524   70.0581  219.0007 H   0  0  0  0  0  0  0  0  0  0  0  0
  145.1538   71.6103  218.0533 H   0  0  0  0  0  0  0  0  0  0  0  0
  146.0082   71.3914  220.7559 H   0  0  0  0  0  0  0  0  0  0  0  0
  146.8650   72.5068  219.7506 H   0  0  0  0  0  0  0  0  0  0  0  0
  144.2549   73.0476  221.3763 H   0  0  0  0  0  0  0  0  0  0  0  0
  145.7548   73.8626  221.6576 H   0  0  0  0  0  0  0  0  0  0  0  0
  145.7830   74.5060  219.3150 H   0  0  0  0  0  0  0  0  0  0  0  0
  143.1361   73.3097  218.9427 H   0  0  0  0  0  0  0  0  0  0  0  0
  144.4102   73.6722  217.7504 H   0  0  0  0  0  0  0  0  0  0  0  0
  143.0580   76.2969  220.2511 H   0  0  0  0  0  0  0  0  0  0  0  0
  141.7053   75.6881  219.2045 H   0  0  0  0  0  0  0  0  0  0  0  0
  142.1375   78.1971  219.1787 H   0  0  0  0  0  0  0  0  0  0  0  0
  140.4426   77.6340  219.5120 H   0  0  0  0  0  0  0  0  0  0  0  0
  142.0549   80.3115  220.2020 H   0  0  0  0  0  0  0  0  0  0  0  0
  142.0122   81.5977  222.3378 H   0  0  0  0  0  0  0  0  0  0  0  0
  141.3828   80.4309  224.4395 H   0  0  0  0  0  0  0  0  0  0  0  0
  140.8051   78.0166  224.4110 H   0  0  0  0  0  0  0  0  0  0  0  0
  141.1083   75.9546  223.2882 H   0  0  0  0  0  0  0  0  0  0  0  0
  139.6610   76.3010  222.2458 H   0  0  0  0  0  0  0  0  0  0  0  0
  141.5346   72.0069  224.8295 H   0  0  0  0  0  0  0  0  0  0  0  0
  139.9676   72.6136  225.4302 H   0  0  0  0  0  0  0  0  0  0  0  0
  1  2  2  0
  2  3  1  0
  3  4  2  0
  4  5  1  0
  5  6  2  0
  5  7  1  0
  7  8  1  0
  8  9  1  0
  9 10  1  0
 10 11  2  0
 11 12  1  0
 12 13  1  0
 13 14  1  0
 14 15  1  0
 15 16  1  0
 16 17  1  0
 17 18  1  0
 18 19  1  0
 12 20  2  0
 20 21  1  0
 21 22  1  0
 22 23  1  0
 23 24  1  0
 24 25  1  0
 25 26  2  0
 26 27  1  0
 27 28  2  0
 28 29  1  0
 29 30  2  0
 30 31  1  0
 21 32  2  0
  9 33  1  0
  6  1  1  0
 32 10  1  0
 33  4  1  0
 19 15  1  0
 31 22  1  0
 30 25  1  0
  1 34  1  0
  2 35  1  0
  3 36  1  0
  6 37  1  0
  7 38  1  0
  7 39  1  0
  8 40  1  0
  8 41  1  0
 13 42  1  0
 14 43  1  0
 14 44  1  0
 15 45  1  6
 16 46  1  0
 16 47  1  0
 17 48  1  0
 17 49  1  0
 18 50  1  0
 19 51  1  0
 19 52  1  0
 23 53  1  0
 23 54  1  0
 24 55  1  0
 24 56  1  0
 26 57  1  0
 27 58  1  0
 28 59  1  0
 29 60  1  0
 31 61  1  0
 31 62  1  0
 33 63  1  0
 33 64  1  0
M  END
>  <smiles>  (50) 
c1ccc2c(c1)CCN(c1nc(NCC3CCNC3)nc(N3CCc4ccccc4C3)n1)C2

>  <score_type>  (50) 
oracle

>  <origin>  (50) 
autodockgpu

>  <m_score__min__energy>  (50) 
-10.4

>  <m_primary>  (50) 
energy

>  <rmsd>  (50) 
10.907172219127045

>  <m_score__min__rmsd>  (50) 
10.907172219127045

>  <meeko>  (50) 
{"free_energy": -9.98, "intermolecular_energy": -11.47, "internal_energy": -1.18, "cluster_size": 50, "cluster_id": 1, "rank_in_cluster": 37}

>  <energy>  (50) 
-9.39

>  <cluster_rmsd>  (50) 
1.26

>  <cluster>  (50) 
1

$$$$

     RDKit          3D

 64 69  0  0  0  0  0  0  0  0999 V2000
  139.7100   80.4790  223.1390 C   0  0  0  0  0  0  0  0  0  0  0  0
  141.0540   80.1740  222.9850 C   0  0  0  0  0  0  0  0  0  0  0  0
  141.4680   78.8820  222.7310 C   0  0  0  0  0  0  0  0  0  0  0  0
  140.5620   77.8310  222.6190 C   0  0  0  0  0  0  0  0  0  0  0  0
  139.2360   78.1570  222.7750 C   0  0  0  0  0  0  0  0  0  0  0  0
  138.7820   79.4380  223.0310 C   0  0  0  0  0  0  0  0  0  0  0  0
  138.1980   77.0940  222.6780 C   0  0  0  0  0  0  0  0  0  0  0  0
  138.6870   76.1190  221.6280 C   0  0  0  0  0  0  0  0  0  0  0  0
  140.0150   75.6400  221.9030 N   0  0  0  0  0  0  0  0  0  0  0  0
  140.3200   74.2470  221.7550 C   0  0  0  0  0  0  0  0  0  0  0  0
  140.9180   73.7850  220.6450 N   0  0  0  0  0  0  0  0  0  0  0  0
  141.2130   72.4580  220.5280 C   0  0  0  0  0  0  0  0  0  0  0  0
  141.8480   72.0960  219.2910 N   0  0  0  0  0  0  0  0  0  0  0  0
  142.9810   72.9170  218.9060 C   0  0  0  0  0  0  0  0  0  0  0  0
  143.8940   73.1150  220.0710 C   0  0  1  0  0  0  0  0  0  0  0  0
  145.2150   72.4010  219.8970 C   0  0  0  0  0  0  0  0  0  0  0  0
  146.0430   73.1100  220.9710 C   0  0  0  0  0  0  0  0  0  0  0  0
  145.6590   74.4780  220.8360 N   0  0  0  0  0  0  0  0  0  0  0  0
  144.3210   74.5230  220.3230 C   0  0  0  0  0  0  0  0  0  0  0  0
  140.9300   71.5700  221.4900 N   0  0  0  0  0  0  0  0  0  0  0  0
  140.3280   72.0460  222.6050 C   0  0  0  0  0  0  0  0  0  0  0  0
  140.0340   71.1270  223.6640 N   0  0  0  0  0  0  0  0  0  0  0  0
  139.5620   69.8080  223.2860 C   0  0  0  0  0  0  0  0  0  0  0  0
  138.6610   69.2730  224.3830 C   0  0  0  0  0  0  0  0  0  0  0  0
  139.5070   69.2180  225.6190 C   0  0  0  0  0  0  0  0  0  0  0  0
  139.5560   68.1170  226.4350 C   0  0  0  0  0  0  0  0  0  0  0  0
  140.3590   68.1390  227.5610 C   0  0  0  0  0  0  0  0  0  0  0  0
  141.0940   69.2630  227.8400 C   0  0  0  0  0  0  0  0  0  0  0  0
  141.0410   70.3640  227.0170 C   0  0  0  0  0  0  0  0  0  0  0  0
  140.2450   70.3550  225.8920 C   0  0  0  0  0  0  0  0  0  0  0  0
  140.2140   71.5650  225.0210 C   0  0  0  0  0  0  0  0  0  0  0  0
  140.0360   73.3560  222.7200 N   0  0  0  0  0  0  0  0  0  0  0  0
  141.0930   76.4950  222.3450 C   0  0  0  0  0  0  0  0  0  0  0  0
  139.3831   81.5098  223.3403 H   0  0  0  0  0  0  0  0  0  0  0  0
  141.8030   80.9755  223.0667 H   0  0  0  0  0  0  0  0  0  0  0  0
  142.5424   78.6774  222.6140 H   0  0  0  0  0  0  0  0  0  0  0  0
  137.7062   79.6355  223.1481 H   0  0  0  0  0  0  0  0  0  0  0  0
  138.0821   76.5850  223.6462 H   0  0  0  0  0  0  0  0  0  0  0  0
  137.2181   77.5147  222.4082 H   0  0  0  0  0  0  0  0  0  0  0  0
  138.0007   75.2599  221.5963 H   0  0  0  0  0  0  0  0  0  0  0  0
  138.7135   76.6484  220.6641 H   0  0  0  0  0  0  0  0  0  0  0  0
  141.4990   71.3080  218.7330 H   0  0  0  0  0  0  0  0  0  0  0  0
  143.5311   72.4193  218.0938 H   0  0  0  0  0  0  0  0  0  0  0  0
  142.6150   73.8971  218.5662 H   0  0  0  0  0  0  0  0  0  0  0  0
  143.2727   72.7318  220.8938 H   0  0  0  0  0  0  0  0  0  0  0  0
  145.1257   71.3228  220.0958 H   0  0  0  0  0  0  0  0  0  0  0  0
  145.6362   72.4463  218.8819 H   0  0  0  0  0  0  0  0  0  0  0  0
  145.7966   72.7291  221.9731 H   0  0  0  0  0  0  0  0  0  0  0  0
  147.1253   72.9541  220.8511 H   0  0  0  0  0  0  0  0  0  0  0  0
  146.3550   74.9700  220.2330 H   0  0  0  0  0  0  0  0  0  0  0  0
  143.6516   74.9934  221.0583 H   0  0  0  0  0  0  0  0  0  0  0  0
  144.2792   75.1142  219.3963 H   0  0  0  0  0  0  0  0  0  0  0  0
  138.9973   69.8742  222.3444 H   0  0  0  0  0  0  0  0  0  0  0  0
  140.4188   69.1325  223.1462 H   0  0  0  0  0  0  0  0  0  0  0  0
  137.8037   69.9450  224.5357 H   0  0  0  0  0  0  0  0  0  0  0  0
  138.2562   68.2829  224.1262 H   0  0  0  0  0  0  0  0  0  0  0  0
  138.9612   67.2231  226.1959 H   0  0  0  0  0  0  0  0  0  0  0  0
  140.4077   67.2641  228.2259 H   0  0  0  0  0  0  0  0  0  0  0  0
  141.7345   69.2843  228.7340 H   0  0  0  0  0  0  0  0  0  0  0  0
  141.6372   71.2564  227.2581 H   0  0  0  0  0  0  0  0  0  0  0  0
  139.3794   72.2176  225.3171 H   0  0  0  0  0  0  0  0  0  0  0  0
  141.1510   72.1327  225.1197 H   0  0  0  0  0  0  0  0  0  0  0  0
  141.5398   76.0810  223.2610 H   0  0  0  0  0  0  0  0  0  0  0  0
  141.8633   76.5554  221.5621 H   0  0  0  0  0  0  0  0  0  0  0  0
  1  2  2  0
  2  3  1  0
  3  4  2  0
  4  5  1  0
  5  6  2  0
  5  7  1  0
  7  8  1  0
  8  9  1  0
  9 10  1  0
 10 11  2  0
 11 12  1  0
 12 13  1  0
 13 14  1  0
 14 15  1  0
 15 16  1  0
 16 17  1  0
 17 18  1  0
 18 19  1  0
 12 20  2  0
 20 21  1  0
 21 22  1  0
 22 23  1  0
 23 24  1  0
 24 25  1  0
 25 26  2  0
 26 27  1  0
 27 28  2  0
 28 29  1  0
 29 30  2  0
 30 31  1  0
 21 32  2  0
  9 33  1  0
  6  1  1  0
 32 10  1  0
 33  4  1  0
 19 15  1  0
 31 22  1  0
 30 25  1  0
  1 34  1  0
  2 35  1  0
  3 36  1  0
  6 37  1  0
  7 38  1  0
  7 39  1  0
  8 40  1  0
  8 41  1  0
 13 42  1  0
 14 43  1  0
 14 44  1  0
 15 45  1  1
 16 46  1  0
 16 47  1  0
 17 48  1  0
 17 49  1  0
 18 50  1  0
 19 51  1  0
 19 52  1  0
 23 53  1  0
 23 54  1  0
 24 55  1  0
 24 56  1  0
 26 57  1  0
 27 58  1  0
 28 59  1  0
 29 60  1  0
 31 61  1  0
 31 62  1  0
 33 63  1  0
 33 64  1  0
M  END
>  <smiles>  (51) 
c1ccc2c(c1)CCN(c1nc(NCC3CCNC3)nc(N3CCc4ccccc4C3)n1)C2

>  <score_type>  (51) 
oracle

>  <origin>  (51) 
autodockgpu

>  <m_score__min__energy>  (51) 
-10.470000000000001

>  <m_primary>  (51) 
energy

>  <rmsd>  (51) 
4.998553842648942

>  <m_score__min__rmsd>  (51) 
4.998553842648942

>  <meeko>  (51) 
{"free_energy": -10.16, "intermolecular_energy": -11.65, "internal_energy": -1.1, "cluster_size": 50, "cluster_id": 1, "rank_in_cluster": 34}

>  <energy>  (51) 
-10.47

>  <cluster_rmsd>  (51) 
0.0

>  <cluster>  (51) 
1

$$$$

     RDKit          3D

 64 69  0  0  0  0  0  0  0  0999 V2000
  139.9260   80.4920  223.3110 C   0  0  0  0  0  0  0  0  0  0  0  0
  141.2510   80.1100  223.1570 C   0  0  0  0  0  0  0  0  0  0  0  0
  141.5860   78.8080  222.8460 C   0  0  0  0  0  0  0  0  0  0  0  0
  140.6180   77.8220  222.6750 C   0  0  0  0  0  0  0  0  0  0  0  0
  139.3130   78.2230  222.8330 C   0  0  0  0  0  0  0  0  0  0  0  0
  138.9360   79.5170  223.1440 C   0  0  0  0  0  0  0  0  0  0  0  0
  138.2110   77.2340  222.6750 C   0  0  0  0  0  0  0  0  0  0  0  0
  138.6520   76.2800  221.5860 C   0  0  0  0  0  0  0  0  0  0  0  0
  139.9440   75.7060  221.8510 N   0  0  0  0  0  0  0  0  0  0  0  0
  140.1630   74.3050  221.6410 C   0  0  0  0  0  0  0  0  0  0  0  0
  140.6750   73.8520  220.4850 N   0  0  0  0  0  0  0  0  0  0  0  0
  140.8890   72.5160  220.3080 C   0  0  0  0  0  0  0  0  0  0  0  0
  141.4360   72.1650  219.0260 N   0  0  0  0  0  0  0  0  0  0  0  0
  142.7750   71.6080  219.0490 C   0  0  0  0  0  0  0  0  0  0  0  0
  143.7700   72.6680  219.3890 C   0  0  1  0  0  0  0  0  0  0  0  0
  144.1780   72.6310  220.8440 C   0  0  0  0  0  0  0  0  0  0  0  0
  145.4460   73.4860  220.7860 C   0  0  0  0  0  0  0  0  0  0  0  0
  146.0890   73.0430  219.5900 N   0  0  0  0  0  0  0  0  0  0  0  0
  145.0830   72.5710  218.6850 C   0  0  0  0  0  0  0  0  0  0  0  0
  140.6090   71.6110  221.2550 N   0  0  0  0  0  0  0  0  0  0  0  0
  140.0950   72.0780  222.4150 C   0  0  0  0  0  0  0  0  0  0  0  0
  139.8070   71.1380  223.4590 N   0  0  0  0  0  0  0  0  0  0  0  0
  139.1920   69.8830  223.0700 C   0  0  0  0  0  0  0  0  0  0  0  0
  138.3390   69.3750  224.2170 C   0  0  0  0  0  0  0  0  0  0  0  0
  139.2730   69.1910  225.3730 C   0  0  0  0  0  0  0  0  0  0  0  0
  139.2900   68.0520  226.1390 C   0  0  0  0  0  0  0  0  0  0  0  0
  140.1810   67.9540  227.1920 C   0  0  0  0  0  0  0  0  0  0  0  0
  141.0320   68.9970  227.4530 C   0  0  0  0  0  0  0  0  0  0  0  0
  141.0100   70.1360  226.6810 C   0  0  0  0  0  0  0  0  0  0  0  0
  140.1280   70.2480  225.6280 C   0  0  0  0  0  0  0  0  0  0  0  0
  140.1340   71.4940  224.8110 C   0  0  0  0  0  0  0  0  0  0  0  0
  139.8820   73.3960  222.5900 N   0  0  0  0  0  0  0  0  0  0  0  0
  141.0670   76.4690  222.3440 C   0  0  0  0  0  0  0  0  0  0  0  0
  139.6614   81.5309  223.5572 H   0  0  0  0  0  0  0  0  0  0  0  0
  142.0477   80.8576  223.2850 H   0  0  0  0  0  0  0  0  0  0  0  0
  142.6470   78.5418  222.7300 H   0  0  0  0  0  0  0  0  0  0  0  0
  137.8731   79.7760  223.2584 H   0  0  0  0  0  0  0  0  0  0  0  0
  138.0498   76.6891  223.6169 H   0  0  0  0  0  0  0  0  0  0  0  0
  137.2633   77.7283  222.4150 H   0  0  0  0  0  0  0  0  0  0  0  0
  137.9140   75.4681  221.5073 H   0  0  0  0  0  0  0  0  0  0  0  0
  138.7241   76.8509  220.6485 H   0  0  0  0  0  0  0  0  0  0  0  0
  140.8950   72.3140  218.1660 H   0  0  0  0  0  0  0  0  0  0  0  0
  142.8231   70.8093  219.8038 H   0  0  0  0  0  0  0  0  0  0  0  0
  143.0108   71.2007  218.0548 H   0  0  0  0  0  0  0  0  0  0  0  0
  143.2225   73.5742  219.0905 H   0  0  0  0  0  0  0  0  0  0  0  0
  143.4125   73.0796  221.4942 H   0  0  0  0  0  0  0  0  0  0  0  0
  144.3177   71.6226  221.2606 H   0  0  0  0  0  0  0  0  0  0  0  0
  145.1971   74.5558  220.7261 H   0  0  0  0  0  0  0  0  0  0  0  0
  146.0786   73.3775  221.6794 H   0  0  0  0  0  0  0  0  0  0  0  0
  146.8040   72.3230  219.8340 H   0  0  0  0  0  0  0  0  0  0  0  0
  145.0706   73.1936  217.7783 H   0  0  0  0  0  0  0  0  0  0  0  0
  145.2870   71.5329  218.3837 H   0  0  0  0  0  0  0  0  0  0  0  0
  138.5611   70.0408  222.1828 H   0  0  0  0  0  0  0  0  0  0  0  0
  139.9720   69.1449  222.8315 H   0  0  0  0  0  0  0  0  0  0  0  0
  137.5592   70.1090  224.4682 H   0  0  0  0  0  0  0  0  0  0  0  0
  137.8294   68.4357  223.9561 H   0  0  0  0  0  0  0  0  0  0  0  0
  138.6006   67.2241  225.9171 H   0  0  0  0  0  0  0  0  0  0  0  0
  140.2068   67.0475  227.8146 H   0  0  0  0  0  0  0  0  0  0  0  0
  141.7415   68.9223  228.2903 H   0  0  0  0  0  0  0  0  0  0  0  0
  141.7006   70.9621  226.9058 H   0  0  0  0  0  0  0  0  0  0  0  0
  139.3874   72.2008  225.2022 H   0  0  0  0  0  0  0  0  0  0  0  0
  141.1230   71.9738  224.8519 H   0  0  0  0  0  0  0  0  0  0  0  0
  141.4742   75.9854  223.2442 H   0  0  0  0  0  0  0  0  0  0  0  0
  141.8500   76.5165  221.5729 H   0  0  0  0  0  0  0  0  0  0  0  0
  1  2  2  0
  2  3  1  0
  3  4  2  0
  4  5  1  0
  5  6  2  0
  5  7  1  0
  7  8  1  0
  8  9  1  0
  9 10  1  0
 10 11  2  0
 11 12  1  0
 12 13  1  0
 13 14  1  0
 14 15  1  0
 15 16  1  0
 16 17  1  0
 17 18  1  0
 18 19  1  0
 12 20  2  0
 20 21  1  0
 21 22  1  0
 22 23  1  0
 23 24  1  0
 24 25  1  0
 25 26  2  0
 26 27  1  0
 27 28  2  0
 28 29  1  0
 29 30  2  0
 30 31  1  0
 21 32  2  0
  9 33  1  0
  6  1  1  0
 32 10  1  0
 33  4  1  0
 19 15  1  0
 31 22  1  0
 30 25  1  0
  1 34  1  0
  2 35  1  0
  3 36  1  0
  6 37  1  0
  7 38  1  0
  7 39  1  0
  8 40  1  0
  8 41  1  0
 13 42  1  0
 14 43  1  0
 14 44  1  0
 15 45  1  1
 16 46  1  0
 16 47  1  0
 17 48  1  0
 17 49  1  0
 18 50  1  0
 19 51  1  0
 19 52  1  0
 23 53  1  0
 23 54  1  0
 24 55  1  0
 24 56  1  0
 26 57  1  0
 27 58  1  0
 28 59  1  0
 29 60  1  0
 31 61  1  0
 31 62  1  0
 33 63  1  0
 33 64  1  0
M  END
>  <smiles>  (52) 
c1ccc2c(c1)CCN(c1nc(NCC3CCNC3)nc(N3CCc4ccccc4C3)n1)C2

>  <score_type>  (52) 
oracle

>  <origin>  (52) 
autodockgpu

>  <m_score__min__energy>  (52) 
-10.470000000000001

>  <m_primary>  (52) 
energy

>  <rmsd>  (52) 
5.093824691282543

>  <m_score__min__rmsd>  (52) 
5.093824691282543

>  <meeko>  (52) 
{"free_energy": -9.7, "intermolecular_energy": -11.19, "internal_energy": -1.05, "cluster_size": 50, "cluster_id": 1, "rank_in_cluster": 47}

>  <energy>  (52) 
-10.46

>  <cluster_rmsd>  (52) 
0.15

>  <cluster>  (52) 
1

$$$$

     RDKit          3D

 64 69  0  0  0  0  0  0  0  0999 V2000
  139.6520   67.8300  227.3150 C   0  0  0  0  0  0  0  0  0  0  0  0
  140.4030   68.9080  227.7590 C   0  0  0  0  0  0  0  0  0  0  0  0
  140.7260   69.9500  226.9140 C   0  0  0  0  0  0  0  0  0  0  0  0
  140.3160   69.9680  225.5840 C   0  0  0  0  0  0  0  0  0  0  0  0
  139.5730   68.8900  225.1650 C   0  0  0  0  0  0  0  0  0  0  0  0
  139.2300   67.8280  225.9810 C   0  0  0  0  0  0  0  0  0  0  0  0
  139.0980   68.8240  223.7560 C   0  0  0  0  0  0  0  0  0  0  0  0
  138.7850   70.2470  223.3460 C   0  0  0  0  0  0  0  0  0  0  0  0
  139.8940   71.1360  223.5660 N   0  0  0  0  0  0  0  0  0  0  0  0
  140.2550   72.0940  222.5630 C   0  0  0  0  0  0  0  0  0  0  0  0
  140.8500   71.7090  221.4220 N   0  0  0  0  0  0  0  0  0  0  0  0
  141.1750   72.6340  220.4730 C   0  0  0  0  0  0  0  0  0  0  0  0
  141.8090   72.0900  219.3040 N   0  0  0  0  0  0  0  0  0  0  0  0
  143.0310   72.7540  218.8900 C   0  0  0  0  0  0  0  0  0  0  0  0
  143.8760   73.0710  220.0800 C   0  0  1  0  0  0  0  0  0  0  0  0
  145.1730   72.2940  220.0890 C   0  0  0  0  0  0  0  0  0  0  0  0
  145.9610   73.1080  221.1180 C   0  0  0  0  0  0  0  0  0  0  0  0
  145.6460   74.4600  220.7840 N   0  0  0  0  0  0  0  0  0  0  0  0
  144.3460   74.4830  220.1790 C   0  0  0  0  0  0  0  0  0  0  0  0
  140.9230   73.9410  220.6260 N   0  0  0  0  0  0  0  0  0  0  0  0
  140.3230   74.3180  221.7780 C   0  0  0  0  0  0  0  0  0  0  0  0
  140.0160   75.7060  221.9630 N   0  0  0  0  0  0  0  0  0  0  0  0
  138.6600   76.0390  222.3550 C   0  0  0  0  0  0  0  0  0  0  0  0
  138.3160   77.4170  221.8220 C   0  0  0  0  0  0  0  0  0  0  0  0
  139.3090   78.3540  222.4380 C   0  0  0  0  0  0  0  0  0  0  0  0
  138.9440   79.5380  223.0290 C   0  0  0  0  0  0  0  0  0  0  0  0
  139.9170   80.3540  223.5760 C   0  0  0  0  0  0  0  0  0  0  0  0
  141.2310   79.9650  223.5190 C   0  0  0  0  0  0  0  0  0  0  0  0
  141.5910   78.7770  222.9260 C   0  0  0  0  0  0  0  0  0  0  0  0
  140.6310   77.9540  222.3760 C   0  0  0  0  0  0  0  0  0  0  0  0
  141.0560   76.6720  221.7450 C   0  0  0  0  0  0  0  0  0  0  0  0
  140.0030   73.4050  222.7150 N   0  0  0  0  0  0  0  0  0  0  0  0
  140.7030   71.1170  224.7630 C   0  0  0  0  0  0  0  0  0  0  0  0
  139.3957   67.0013  227.9914 H   0  0  0  0  0  0  0  0  0  0  0  0
  140.7474   68.9329  228.8034 H   0  0  0  0  0  0  0  0  0  0  0  0
  141.3232   70.7885  227.3017 H   0  0  0  0  0  0  0  0  0  0  0  0
  138.6331   66.9924  225.5866 H   0  0  0  0  0  0  0  0  0  0  0  0
  139.8826   68.4050  223.1088 H   0  0  0  0  0  0  0  0  0  0  0  0
  138.2132   68.1772  223.6623 H   0  0  0  0  0  0  0  0  0  0  0  0
  138.5294   70.2586  222.2762 H   0  0  0  0  0  0  0  0  0  0  0  0
  137.9454   70.5978  223.9640 H   0  0  0  0  0  0  0  0  0  0  0  0
  141.4000   71.2880  218.8100 H   0  0  0  0  0  0  0  0  0  0  0  0
  143.5915   72.0933  218.2123 H   0  0  0  0  0  0  0  0  0  0  0  0
  142.7728   73.6906  218.3741 H   0  0  0  0  0  0  0  0  0  0  0  0
  143.1879   72.8210  220.9010 H   0  0  0  0  0  0  0  0  0  0  0  0
  145.0244   71.2547  220.4173 H   0  0  0  0  0  0  0  0  0  0  0  0
  145.6593   72.1913  219.1077 H   0  0  0  0  0  0  0  0  0  0  0  0
  145.6352   72.8695  222.1412 H   0  0  0  0  0  0  0  0  0  0  0  0
  147.0410   72.9005  221.0929 H   0  0  0  0  0  0  0  0  0  0  0  0
  146.3990   74.8440  220.1730 H   0  0  0  0  0  0  0  0  0  0  0  0
  143.6521   75.0677  220.8008 H   0  0  0  0  0  0  0  0  0  0  0  0
  144.3887   74.9492  219.1836 H   0  0  0  0  0  0  0  0  0  0  0  0
  137.9628   75.2975  221.9376 H   0  0  0  0  0  0  0  0  0  0  0  0
  138.5784   76.0338  223.4520 H   0  0  0  0  0  0  0  0  0  0  0  0
  138.4013   77.4356  220.7255 H   0  0  0  0  0  0  0  0  0  0  0  0
  137.2831   77.7009  222.0721 H   0  0  0  0  0  0  0  0  0  0  0  0
  137.8856   79.8353  223.0671 H   0  0  0  0  0  0  0  0  0  0  0  0
  139.6399   81.3060  224.0523 H   0  0  0  0  0  0  0  0  0  0  0  0
  142.0076   80.6117  223.9534 H   0  0  0  0  0  0  0  0  0  0  0  0
  142.6501   78.4821  222.8904 H   0  0  0  0  0  0  0  0  0  0  0  0
  141.2088   76.8194  220.6657 H   0  0  0  0  0  0  0  0  0  0  0  0
  142.0013   76.3230  222.1861 H   0  0  0  0  0  0  0  0  0  0  0  0
  141.7649   71.0329  224.4887 H   0  0  0  0  0  0  0  0  0  0  0  0
  140.5482   72.0468  225.3300 H   0  0  0  0  0  0  0  0  0  0  0  0
  1  2  2  0
  2  3  1  0
  3  4  2  0
  4  5  1  0
  5  6  2  0
  5  7  1  0
  7  8  1  0
  8  9  1  0
  9 10  1  0
 10 11  2  0
 11 12  1  0
 12 13  1  0
 13 14  1  0
 14 15  1  0
 15 16  1  0
 16 17  1  0
 17 18  1  0
 18 19  1  0
 12 20  2  0
 20 21  1  0
 21 22  1  0
 22 23  1  0
 23 24  1  0
 24 25  1  0
 25 26  2  0
 26 27  1  0
 27 28  2  0
 28 29  1  0
 29 30  2  0
 30 31  1  0
 21 32  2  0
  9 33  1  0
  6  1  1  0
 32 10  1  0
 33  4  1  0
 19 15  1  0
 31 22  1  0
 30 25  1  0
  1 34  1  0
  2 35  1  0
  3 36  1  0
  6 37  1  0
  7 38  1  0
  7 39  1  0
  8 40  1  0
  8 41  1  0
 13 42  1  0
 14 43  1  0
 14 44  1  0
 15 45  1  1
 16 46  1  0
 16 47  1  0
 17 48  1  0
 17 49  1  0
 18 50  1  0
 19 51  1  0
 19 52  1  0
 23 53  1  0
 23 54  1  0
 24 55  1  0
 24 56  1  0
 26 57  1  0
 27 58  1  0
 28 59  1  0
 29 60  1  0
 31 61  1  0
 31 62  1  0
 33 63  1  0
 33 64  1  0
M  END
>  <smiles>  (53) 
c1ccc2c(c1)CCN(c1nc(NCC3CCNC3)nc(N3CCc4ccccc4C3)n1)C2

>  <score_type>  (53) 
oracle

>  <origin>  (53) 
autodockgpu

>  <m_score__min__energy>  (53) 
-10.470000000000001

>  <m_primary>  (53) 
energy

>  <rmsd>  (53) 
11.377693050633415

>  <m_score__min__rmsd>  (53) 
11.377693050633415

>  <meeko>  (53) 
{"free_energy": -10.25, "intermolecular_energy": -11.74, "internal_energy": -1.11, "cluster_size": 50, "cluster_id": 1, "rank_in_cluster": 21}

>  <energy>  (53) 
-10.45

>  <cluster_rmsd>  (53) 
0.13

>  <cluster>  (53) 
1

$$$$

     RDKit          3D

 64 69  0  0  0  0  0  0  0  0999 V2000
  139.4540   80.7450  223.4320 C   0  0  0  0  0  0  0  0  0  0  0  0
  140.8160   80.5120  223.3060 C   0  0  0  0  0  0  0  0  0  0  0  0
  141.2970   79.2670  222.9570 C   0  0  0  0  0  0  0  0  0  0  0  0
  140.4450   78.1930  222.7160 C   0  0  0  0  0  0  0  0  0  0  0  0
  139.1010   78.4460  222.8480 C   0  0  0  0  0  0  0  0  0  0  0  0
  138.5800   79.6790  223.1960 C   0  0  0  0  0  0  0  0  0  0  0  0
  138.1160   77.3530  222.6160 C   0  0  0  0  0  0  0  0  0  0  0  0
  138.6870   76.4980  221.5050 C   0  0  0  0  0  0  0  0  0  0  0  0
  140.0250   76.0530  221.7900 N   0  0  0  0  0  0  0  0  0  0  0  0
  140.3990   74.6930  221.5330 C   0  0  0  0  0  0  0  0  0  0  0  0
  141.1090   74.3670  220.4400 N   0  0  0  0  0  0  0  0  0  0  0  0
  141.4670   73.0690  220.2190 C   0  0  0  0  0  0  0  0  0  0  0  0
  142.2200   72.8560  219.0130 N   0  0  0  0  0  0  0  0  0  0  0  0
  143.0620   73.9630  218.5990 C   0  0  0  0  0  0  0  0  0  0  0  0
  144.4590   73.7580  219.0830 C   0  0  1  0  0  0  0  0  0  0  0  0
  144.6820   74.3340  220.4630 C   0  0  0  0  0  0  0  0  0  0  0  0
  145.9840   73.6230  220.8390 C   0  0  0  0  0  0  0  0  0  0  0  0
  145.7820   72.2900  220.3690 N   0  0  0  0  0  0  0  0  0  0  0  0
  144.8800   72.3360  219.2560 C   0  0  0  0  0  0  0  0  0  0  0  0
  141.1390   72.0790  221.0590 N   0  0  0  0  0  0  0  0  0  0  0  0
  140.4250   72.4190  222.1570 C   0  0  0  0  0  0  0  0  0  0  0  0
  140.0800   71.3870  223.0900 N   0  0  0  0  0  0  0  0  0  0  0  0
  139.5260   70.1610  222.5480 C   0  0  0  0  0  0  0  0  0  0  0  0
  138.5980   69.5410  223.5760 C   0  0  0  0  0  0  0  0  0  0  0  0
  139.4450   69.2710  224.7820 C   0  0  0  0  0  0  0  0  0  0  0  0
  139.4290   68.0700  225.4460 C   0  0  0  0  0  0  0  0  0  0  0  0
  140.2380   67.8940  226.5540 C   0  0  0  0  0  0  0  0  0  0  0  0
  141.0420   68.9240  226.9690 C   0  0  0  0  0  0  0  0  0  0  0  0
  141.0530   70.1260  226.2990 C   0  0  0  0  0  0  0  0  0  0  0  0
  140.2530   70.3150  225.1930 C   0  0  0  0  0  0  0  0  0  0  0  0
  140.2940   71.6290  224.4900 C   0  0  0  0  0  0  0  0  0  0  0  0
  140.0710   73.6990  222.3760 N   0  0  0  0  0  0  0  0  0  0  0  0
  141.0460   76.9100  222.3480 C   0  0  0  0  0  0  0  0  0  0  0  0
  139.0729   81.7389  223.7094 H   0  0  0  0  0  0  0  0  0  0  0  0
  141.5242   81.3339  223.4874 H   0  0  0  0  0  0  0  0  0  0  0  0
  142.3833   79.1190  222.8667 H   0  0  0  0  0  0  0  0  0  0  0  0
  137.4927   79.8193  223.2859 H   0  0  0  0  0  0  0  0  0  0  0  0
  137.9881   76.7547  223.5301 H   0  0  0  0  0  0  0  0  0  0  0  0
  137.1284   77.7546  222.3452 H   0  0  0  0  0  0  0  0  0  0  0  0
  138.0425   75.6168  221.3702 H   0  0  0  0  0  0  0  0  0  0  0  0
  138.7242   77.1124  220.5934 H   0  0  0  0  0  0  0  0  0  0  0  0
  142.1440   71.9730  218.4960 H   0  0  0  0  0  0  0  0  0  0  0  0
  143.0638   74.0271  217.5009 H   0  0  0  0  0  0  0  0  0  0  0  0
  142.6665   74.8949  219.0293 H   0  0  0  0  0  0  0  0  0  0  0  0
  145.0333   74.2502  218.2843 H   0  0  0  0  0  0  0  0  0  0  0  0
  144.8068   75.4265  220.4343 H   0  0  0  0  0  0  0  0  0  0  0  0
  143.8512   74.1838  221.1681 H   0  0  0  0  0  0  0  0  0  0  0  0
  146.8457   74.0899  220.3395 H   0  0  0  0  0  0  0  0  0  0  0  0
  146.2027   73.6696  221.9160 H   0  0  0  0  0  0  0  0  0  0  0  0
  145.4440   71.6970  221.1580 H   0  0  0  0  0  0  0  0  0  0  0  0
  145.3862   71.9801  218.3465 H   0  0  0  0  0  0  0  0  0  0  0  0
  144.0073   71.6910  219.4356 H   0  0  0  0  0  0  0  0  0  0  0  0
  138.9625   70.3851  221.6303 H   0  0  0  0  0  0  0  0  0  0  0  0
  140.3390   69.4592  222.3104 H   0  0  0  0  0  0  0  0  0  0  0  0
  137.7849   70.2379  223.8275 H   0  0  0  0  0  0  0  0  0  0  0  0
  138.1306   68.6207  223.1959 H   0  0  0  0  0  0  0  0  0  0  0  0
  138.7779   67.2538  225.0997 H   0  0  0  0  0  0  0  0  0  0  0  0
  140.2363   66.9372  227.0967 H   0  0  0  0  0  0  0  0  0  0  0  0
  141.6871   68.7878  227.8495 H   0  0  0  0  0  0  0  0  0  0  0  0
  141.7042   70.9408  226.6484 H   0  0  0  0  0  0  0  0  0  0  0  0
  139.5038   72.2869  224.8808 H   0  0  0  0  0  0  0  0  0  0  0  0
  141.2655   72.1194  224.6502 H   0  0  0  0  0  0  0  0  0  0  0  0
  141.4775   76.4354  223.2416 H   0  0  0  0  0  0  0  0  0  0  0  0
  141.8408   77.0723  221.6050 H   0  0  0  0  0  0  0  0  0  0  0  0
  1  2  2  0
  2  3  1  0
  3  4  2  0
  4  5  1  0
  5  6  2  0
  5  7  1  0
  7  8  1  0
  8  9  1  0
  9 10  1  0
 10 11  2  0
 11 12  1  0
 12 13  1  0
 13 14  1  0
 14 15  1  0
 15 16  1  0
 16 17  1  0
 17 18  1  0
 18 19  1  0
 12 20  2  0
 20 21  1  0
 21 22  1  0
 22 23  1  0
 23 24  1  0
 24 25  1  0
 25 26  2  0
 26 27  1  0
 27 28  2  0
 28 29  1  0
 29 30  2  0
 30 31  1  0
 21 32  2  0
  9 33  1  0
  6  1  1  0
 32 10  1  0
 33  4  1  0
 19 15  1  0
 31 22  1  0
 30 25  1  0
  1 34  1  0
  2 35  1  0
  3 36  1  0
  6 37  1  0
  7 38  1  0
  7 39  1  0
  8 40  1  0
  8 41  1  0
 13 42  1  0
 14 43  1  0
 14 44  1  0
 15 45  1  6
 16 46  1  0
 16 47  1  0
 17 48  1  0
 17 49  1  0
 18 50  1  0
 19 51  1  0
 19 52  1  0
 23 53  1  0
 23 54  1  0
 24 55  1  0
 24 56  1  0
 26 57  1  0
 27 58  1  0
 28 59  1  0
 29 60  1  0
 31 61  1  0
 31 62  1  0
 33 63  1  0
 33 64  1  0
M  END
>  <smiles>  (54) 
c1ccc2c(c1)CCN(c1nc(NCC3CCNC3)nc(N3CCc4ccccc4C3)n1)C2

>  <score_type>  (54) 
oracle

>  <origin>  (54) 
autodockgpu

>  <m_score__min__energy>  (54) 
-10.470000000000001

>  <m_primary>  (54) 
energy

>  <rmsd>  (54) 
5.091798881268127

>  <m_score__min__rmsd>  (54) 
5.091798881268127

>  <meeko>  (54) 
{"free_energy": -10.09, "intermolecular_energy": -11.58, "internal_energy": -1.07, "cluster_size": 50, "cluster_id": 1, "rank_in_cluster": 38}

>  <energy>  (54) 
-10.45

>  <cluster_rmsd>  (54) 
0.05

>  <cluster>  (54) 
1

$$$$

     RDKit          3D

 64 69  0  0  0  0  0  0  0  0999 V2000
  139.6310   67.7760  227.2240 C   0  0  0  0  0  0  0  0  0  0  0  0
  140.3630   68.8560  227.6970 C   0  0  0  0  0  0  0  0  0  0  0  0
  140.6890   69.9120  226.8720 C   0  0  0  0  0  0  0  0  0  0  0  0
  140.3030   69.9450  225.5350 C   0  0  0  0  0  0  0  0  0  0  0  0
  139.5800   68.8660  225.0890 C   0  0  0  0  0  0  0  0  0  0  0  0
  139.2330   67.7880  225.8830 C   0  0  0  0  0  0  0  0  0  0  0  0
  139.1300   68.8130  223.6700 C   0  0  0  0  0  0  0  0  0  0  0  0
  138.8090   70.2390  223.2740 C   0  0  0  0  0  0  0  0  0  0  0  0
  139.9050   71.1360  223.5260 N   0  0  0  0  0  0  0  0  0  0  0  0
  140.2740   72.1120  222.5430 C   0  0  0  0  0  0  0  0  0  0  0  0
  140.8670   71.7460  221.3960 N   0  0  0  0  0  0  0  0  0  0  0  0
  141.1990   72.6880  220.4660 C   0  0  0  0  0  0  0  0  0  0  0  0
  141.8320   72.1640  219.2870 N   0  0  0  0  0  0  0  0  0  0  0  0
  143.2830   72.1790  219.2960 C   0  0  0  0  0  0  0  0  0  0  0  0
  143.7860   73.5710  219.1000 C   0  0  1  0  0  0  0  0  0  0  0  0
  142.7730   74.4580  218.4130 C   0  0  0  0  0  0  0  0  0  0  0  0
  143.3650   75.8330  218.7350 C   0  0  0  0  0  0  0  0  0  0  0  0
  143.7730   75.7070  220.0970 N   0  0  0  0  0  0  0  0  0  0  0  0
  144.0840   74.3310  220.3500 C   0  0  0  0  0  0  0  0  0  0  0  0
  140.9550   73.9930  220.6450 N   0  0  0  0  0  0  0  0  0  0  0  0
  140.3560   74.3510  221.8030 C   0  0  0  0  0  0  0  0  0  0  0  0
  140.0580   75.7370  222.0160 N   0  0  0  0  0  0  0  0  0  0  0  0
  138.7200   76.0650  222.4690 C   0  0  0  0  0  0  0  0  0  0  0  0
  138.3540   77.4490  221.9650 C   0  0  0  0  0  0  0  0  0  0  0  0
  139.3730   78.3800  222.5480 C   0  0  0  0  0  0  0  0  0  0  0  0
  139.0340   79.5570  223.1660 C   0  0  0  0  0  0  0  0  0  0  0  0
  140.0300   80.3680  223.6800 C   0  0  0  0  0  0  0  0  0  0  0  0
  141.3400   79.9790  223.5630 C   0  0  0  0  0  0  0  0  0  0  0  0
  141.6730   78.7980  222.9420 C   0  0  0  0  0  0  0  0  0  0  0  0
  140.6910   77.9800  222.4250 C   0  0  0  0  0  0  0  0  0  0  0  0
  141.0890   76.7050  221.7630 C   0  0  0  0  0  0  0  0  0  0  0  0
  140.0290   73.4220  222.7220 N   0  0  0  0  0  0  0  0  0  0  0  0
  140.6920   71.1090  224.7370 C   0  0  0  0  0  0  0  0  0  0  0  0
  139.3714   66.9353  227.8841 H   0  0  0  0  0  0  0  0  0  0  0  0
  140.6887   68.8700  228.7476 H   0  0  0  0  0  0  0  0  0  0  0  0
  141.2700   70.7513  227.2818 H   0  0  0  0  0  0  0  0  0  0  0  0
  138.6523   66.9520  225.4659 H   0  0  0  0  0  0  0  0  0  0  0  0
  139.9302   68.4109  223.0312 H   0  0  0  0  0  0  0  0  0  0  0  0
  138.2544   68.1578  223.5518 H   0  0  0  0  0  0  0  0  0  0  0  0
  138.5721   70.2630  222.2001 H   0  0  0  0  0  0  0  0  0  0  0  0
  137.9549   70.5726  223.8816 H   0  0  0  0  0  0  0  0  0  0  0  0
  141.2700   71.8130  218.5020 H   0  0  0  0  0  0  0  0  0  0  0  0
  143.6443   71.7948  220.2613 H   0  0  0  0  0  0  0  0  0  0  0  0
  143.6534   71.5451  218.4769 H   0  0  0  0  0  0  0  0  0  0  0  0
  144.7007   73.3858  218.5177 H   0  0  0  0  0  0  0  0  0  0  0  0
  142.7360   74.2727  217.3293 H   0  0  0  0  0  0  0  0  0  0  0  0
  141.7324   74.3129  218.7388 H   0  0  0  0  0  0  0  0  0  0  0  0
  144.2249   76.0532  218.0853 H   0  0  0  0  0  0  0  0  0  0  0  0
  142.6524   76.6555  218.5746 H   0  0  0  0  0  0  0  0  0  0  0  0
  143.0230   76.0880  220.7150 H   0  0  0  0  0  0  0  0  0  0  0  0
  145.1480   74.2271  220.6090 H   0  0  0  0  0  0  0  0  0  0  0  0
  143.4889   73.9457  221.1911 H   0  0  0  0  0  0  0  0  0  0  0  0
  138.0056   75.3277  222.0740 H   0  0  0  0  0  0  0  0  0  0  0  0
  138.6849   76.0481  223.5683 H   0  0  0  0  0  0  0  0  0  0  0  0
  138.3926   77.4788  220.8661 H   0  0  0  0  0  0  0  0  0  0  0  0
  137.3328   77.7303  222.2617 H   0  0  0  0  0  0  0  0  0  0  0  0
  137.9783   79.8536  223.2522 H   0  0  0  0  0  0  0  0  0  0  0  0
  139.7739   81.3151  224.1774 H   0  0  0  0  0  0  0  0  0  0  0  0
  142.1350   80.6203  223.9714 H   0  0  0  0  0  0  0  0  0  0  0  0
  142.7296   78.5041  222.8572 H   0  0  0  0  0  0  0  0  0  0  0  0
  141.1955   76.8635  220.6797 H   0  0  0  0  0  0  0  0  0  0  0  0
  142.0526   76.3517  222.1588 H   0  0  0  0  0  0  0  0  0  0  0  0
  141.7596   71.0401  224.4811 H   0  0  0  0  0  0  0  0  0  0  0  0
  140.5166   72.0292  225.3137 H   0  0  0  0  0  0  0  0  0  0  0  0
  1  2  2  0
  2  3  1  0
  3  4  2  0
  4  5  1  0
  5  6  2  0
  5  7  1  0
  7  8  1  0
  8  9  1  0
  9 10  1  0
 10 11  2  0
 11 12  1  0
 12 13  1  0
 13 14  1  0
 14 15  1  0
 15 16  1  0
 16 17  1  0
 17 18  1  0
 18 19  1  0
 12 20  2  0
 20 21  1  0
 21 22  1  0
 22 23  1  0
 23 24  1  0
 24 25  1  0
 25 26  2  0
 26 27  1  0
 27 28  2  0
 28 29  1  0
 29 30  2  0
 30 31  1  0
 21 32  2  0
  9 33  1  0
  6  1  1  0
 32 10  1  0
 33  4  1  0
 19 15  1  0
 31 22  1  0
 30 25  1  0
  1 34  1  0
  2 35  1  0
  3 36  1  0
  6 37  1  0
  7 38  1  0
  7 39  1  0
  8 40  1  0
  8 41  1  0
 13 42  1  0
 14 43  1  0
 14 44  1  0
 15 45  1  6
 16 46  1  0
 16 47  1  0
 17 48  1  0
 17 49  1  0
 18 50  1  0
 19 51  1  0
 19 52  1  0
 23 53  1  0
 23 54  1  0
 24 55  1  0
 24 56  1  0
 26 57  1  0
 27 58  1  0
 28 59  1  0
 29 60  1  0
 31 61  1  0
 31 62  1  0
 33 63  1  0
 33 64  1  0
M  END
>  <smiles>  (55) 
c1ccc2c(c1)CCN(c1nc(NCC3CCNC3)nc(N3CCc4ccccc4C3)n1)C2

>  <score_type>  (55) 
oracle

>  <origin>  (55) 
autodockgpu

>  <m_score__min__energy>  (55) 
-10.470000000000001

>  <m_primary>  (55) 
energy

>  <rmsd>  (55) 
11.364082881853408

>  <m_score__min__rmsd>  (55) 
11.364082881853408

>  <meeko>  (55) 
{"free_energy": -9.39, "intermolecular_energy": -10.88, "internal_energy": -1.28, "cluster_size": 50, "cluster_id": 1, "rank_in_cluster": 50}

>  <energy>  (55) 
-10.45

>  <cluster_rmsd>  (55) 
0.07

>  <cluster>  (55) 
1

$$$$

     RDKit          3D

 64 69  0  0  0  0  0  0  0  0999 V2000
  141.5100   81.0810  221.2450 C   0  0  0  0  0  0  0  0  0  0  0  0
  141.7780   80.6010  219.9710 C   0  0  0  0  0  0  0  0  0  0  0  0
  141.8150   79.2460  219.7130 C   0  0  0  0  0  0  0  0  0  0  0  0
  141.5870   78.3030  220.7110 C   0  0  0  0  0  0  0  0  0  0  0  0
  141.3240   78.8010  221.9640 C   0  0  0  0  0  0  0  0  0  0  0  0
  141.2790   80.1510  222.2630 C   0  0  0  0  0  0  0  0  0  0  0  0
  141.0750   77.8640  223.0950 C   0  0  0  0  0  0  0  0  0  0  0  0
  140.3350   76.6810  222.5090 C   0  0  0  0  0  0  0  0  0  0  0  0
  141.0280   76.1030  221.3890 N   0  0  0  0  0  0  0  0  0  0  0  0
  141.1490   74.6790  221.2760 C   0  0  0  0  0  0  0  0  0  0  0  0
  141.7950   74.1200  220.2410 N   0  0  0  0  0  0  0  0  0  0  0  0
  141.9110   72.7630  220.1570 C   0  0  0  0  0  0  0  0  0  0  0  0
  142.6230   72.2960  218.9990 N   0  0  0  0  0  0  0  0  0  0  0  0
  143.4390   73.2880  218.3250 C   0  0  0  0  0  0  0  0  0  0  0  0
  144.7740   73.3930  218.9850 C   0  0  1  0  0  0  0  0  0  0  0  0
  144.7400   74.2660  220.2190 C   0  0  0  0  0  0  0  0  0  0  0  0
  146.0570   73.8450  220.8770 C   0  0  0  0  0  0  0  0  0  0  0  0
  146.0810   72.4290  220.6950 N   0  0  0  0  0  0  0  0  0  0  0  0
  145.3360   72.1140  219.5120 C   0  0  0  0  0  0  0  0  0  0  0  0
  141.4000   71.9390  221.0820 N   0  0  0  0  0  0  0  0  0  0  0  0
  140.7520   72.5120  222.1210 C   0  0  0  0  0  0  0  0  0  0  0  0
  140.2140   71.6600  223.1410 N   0  0  0  0  0  0  0  0  0  0  0  0
  139.2880   70.6260  222.7210 C   0  0  0  0  0  0  0  0  0  0  0  0
  138.3210   70.3390  223.8540 C   0  0  0  0  0  0  0  0  0  0  0  0
  139.1630   69.8840  225.0070 C   0  0  0  0  0  0  0  0  0  0  0  0
  138.8680   68.7650  225.7440 C   0  0  0  0  0  0  0  0  0  0  0  0
  139.6920   68.4060  226.7960 C   0  0  0  0  0  0  0  0  0  0  0  0
  140.7900   69.1760  227.0820 C   0  0  0  0  0  0  0  0  0  0  0  0
  141.0800   70.2970  226.3390 C   0  0  0  0  0  0  0  0  0  0  0  0
  140.2680   70.6660  225.2880 C   0  0  0  0  0  0  0  0  0  0  0  0
  140.6150   71.8840  224.5020 C   0  0  0  0  0  0  0  0  0  0  0  0
  140.6360   73.8510  222.2030 N   0  0  0  0  0  0  0  0  0  0  0  0
  141.6430   76.8880  220.3430 C   0  0  0  0  0  0  0  0  0  0  0  0
  141.4801   82.1617  221.4481 H   0  0  0  0  0  0  0  0  0  0  0  0
  141.9641   81.3126  219.1530 H   0  0  0  0  0  0  0  0  0  0  0  0
  142.0306   78.9017  218.6908 H   0  0  0  0  0  0  0  0  0  0  0  0
  141.0644   80.4881  223.2878 H   0  0  0  0  0  0  0  0  0  0  0  0
  142.0282   77.5370  223.5360 H   0  0  0  0  0  0  0  0  0  0  0  0
  140.4916   78.3459  223.8934 H   0  0  0  0  0  0  0  0  0  0  0  0
  140.2213   75.9135  223.2888 H   0  0  0  0  0  0  0  0  0  0  0  0
  139.3582   77.0390  222.1516 H   0  0  0  0  0  0  0  0  0  0  0  0
  142.5370   71.3210  218.6880 H   0  0  0  0  0  0  0  0  0  0  0  0
  143.5755   72.9929  217.2741 H   0  0  0  0  0  0  0  0  0  0  0  0
  142.9345   74.2640  218.3788 H   0  0  0  0  0  0  0  0  0  0  0  0
  145.3861   73.7890  218.1613 H   0  0  0  0  0  0  0  0  0  0  0  0
  144.7351   75.3357  219.9626 H   0  0  0  0  0  0  0  0  0  0  0  0
  143.8467   74.1438  220.8492 H   0  0  0  0  0  0  0  0  0  0  0  0
  146.9151   74.3203  220.3792 H   0  0  0  0  0  0  0  0  0  0  0  0
  146.1232   74.1430  221.9338 H   0  0  0  0  0  0  0  0  0  0  0  0
  145.7140   71.9680  221.5570 H   0  0  0  0  0  0  0  0  0  0  0  0
  145.9976   71.6565  218.7616 H   0  0  0  0  0  0  0  0  0  0  0  0
  144.5306   71.3999  219.7386 H   0  0  0  0  0  0  0  0  0  0  0  0
  138.7295   70.9680  221.8372 H   0  0  0  0  0  0  0  0  0  0  0  0
  139.8432   69.7114  222.4656 H   0  0  0  0  0  0  0  0  0  0  0  0
  137.7647   71.2493  224.1222 H   0  0  0  0  0  0  0  0  0  0  0  0
  137.5801   69.5773  223.5695 H   0  0  0  0  0  0  0  0  0  0  0  0
  137.9835   68.1581  225.5005 H   0  0  0  0  0  0  0  0  0  0  0  0
  139.4685   67.5120  227.3968 H   0  0  0  0  0  0  0  0  0  0  0  0
  141.4480   68.8935  227.9170 H   0  0  0  0  0  0  0  0  0  0  0  0
  141.9649   70.9023  226.5851 H   0  0  0  0  0  0  0  0  0  0  0  0
  140.0829   72.7561  224.9097 H   0  0  0  0  0  0  0  0  0  0  0  0
  141.6961   72.0797  224.5558 H   0  0  0  0  0  0  0  0  0  0  0  0
  142.6920   76.5806  220.2200 H   0  0  0  0  0  0  0  0  0  0  0  0
  141.1059   76.7296  219.3962 H   0  0  0  0  0  0  0  0  0  0  0  0
  1  2  2  0
  2  3  1  0
  3  4  2  0
  4  5  1  0
  5  6  2  0
  5  7  1  0
  7  8  1  0
  8  9  1  0
  9 10  1  0
 10 11  2  0
 11 12  1  0
 12 13  1  0
 13 14  1  0
 14 15  1  0
 15 16  1  0
 16 17  1  0
 17 18  1  0
 18 19  1  0
 12 20  2  0
 20 21  1  0
 21 22  1  0
 22 23  1  0
 23 24  1  0
 24 25  1  0
 25 26  2  0
 26 27  1  0
 27 28  2  0
 28 29  1  0
 29 30  2  0
 30 31  1  0
 21 32  2  0
  9 33  1  0
  6  1  1  0
 32 10  1  0
 33  4  1  0
 19 15  1  0
 31 22  1  0
 30 25  1  0
  1 34  1  0
  2 35  1  0
  3 36  1  0
  6 37  1  0
  7 38  1  0
  7 39  1  0
  8 40  1  0
  8 41  1  0
 13 42  1  0
 14 43  1  0
 14 44  1  0
 15 45  1  6
 16 46  1  0
 16 47  1  0
 17 48  1  0
 17 49  1  0
 18 50  1  0
 19 51  1  0
 19 52  1  0
 23 53  1  0
 23 54  1  0
 24 55  1  0
 24 56  1  0
 26 57  1  0
 27 58  1  0
 28 59  1  0
 29 60  1  0
 31 61  1  0
 31 62  1  0
 33 63  1  0
 33 64  1  0
M  END
>  <smiles>  (56) 
c1ccc2c(c1)CCN(c1nc(NCC3CCNC3)nc(N3CCc4ccccc4C3)n1)C2

>  <score_type>  (56) 
oracle

>  <origin>  (56) 
autodockgpu

>  <m_score__min__energy>  (56) 
-10.470000000000001

>  <m_primary>  (56) 
energy

>  <rmsd>  (56) 
4.640308675442592

>  <m_score__min__rmsd>  (56) 
4.640308675442592

>  <meeko>  (56) 
{"free_energy": -9.65, "intermolecular_energy": -11.14, "internal_energy": -1.15, "cluster_size": 50, "cluster_id": 1, "rank_in_cluster": 48}

>  <energy>  (56) 
-10.44

>  <cluster_rmsd>  (56) 
0.23

>  <cluster>  (56) 
1

$$$$

     RDKit          3D

 64 69  0  0  0  0  0  0  0  0999 V2000
  139.6840   80.5240  223.2070 C   0  0  0  0  0  0  0  0  0  0  0  0
  141.0280   80.2160  223.0550 C   0  0  0  0  0  0  0  0  0  0  0  0
  141.4390   78.9260  222.7920 C   0  0  0  0  0  0  0  0  0  0  0  0
  140.5310   77.8780  222.6680 C   0  0  0  0  0  0  0  0  0  0  0  0
  139.2050   78.2050  222.8230 C   0  0  0  0  0  0  0  0  0  0  0  0
  138.7540   79.4850  223.0870 C   0  0  0  0  0  0  0  0  0  0  0  0
  138.1650   77.1460  222.7130 C   0  0  0  0  0  0  0  0  0  0  0  0
  138.6550   76.1780  221.6570 C   0  0  0  0  0  0  0  0  0  0  0  0
  139.9810   75.6940  221.9320 N   0  0  0  0  0  0  0  0  0  0  0  0
  140.2830   74.3020  221.7740 C   0  0  0  0  0  0  0  0  0  0  0  0
  140.9060   73.8510  220.6730 N   0  0  0  0  0  0  0  0  0  0  0  0
  141.1980   72.5240  220.5460 C   0  0  0  0  0  0  0  0  0  0  0  0
  141.8610   72.1750  219.3200 N   0  0  0  0  0  0  0  0  0  0  0  0
  142.9800   73.0230  218.9510 C   0  0  0  0  0  0  0  0  0  0  0  0
  143.8640   73.2540  220.1320 C   0  0  1  0  0  0  0  0  0  0  0  0
  145.0980   72.3820  220.1080 C   0  0  0  0  0  0  0  0  0  0  0  0
  145.9610   73.1160  221.1370 C   0  0  0  0  0  0  0  0  0  0  0  0
  145.7440   74.4930  220.8290 N   0  0  0  0  0  0  0  0  0  0  0  0
  144.4420   74.6260  220.2470 C   0  0  0  0  0  0  0  0  0  0  0  0
  140.8860   71.6250  221.4890 N   0  0  0  0  0  0  0  0  0  0  0  0
  140.2600   72.0900  222.5940 C   0  0  0  0  0  0  0  0  0  0  0  0
  139.9350   71.1590  223.6340 N   0  0  0  0  0  0  0  0  0  0  0  0
  139.2850   69.9230  223.2390 C   0  0  0  0  0  0  0  0  0  0  0  0
  138.4080   69.4410  224.3790 C   0  0  0  0  0  0  0  0  0  0  0  0
  139.3270   69.2270  225.5420 C   0  0  0  0  0  0  0  0  0  0  0  0
  139.3030   68.0880  226.3070 C   0  0  0  0  0  0  0  0  0  0  0  0
  140.1820   67.9610  227.3670 C   0  0  0  0  0  0  0  0  0  0  0  0
  141.0620   68.9780  227.6360 C   0  0  0  0  0  0  0  0  0  0  0  0
  141.0810   70.1180  226.8660 C   0  0  0  0  0  0  0  0  0  0  0  0
  140.2110   70.2570  225.8050 C   0  0  0  0  0  0  0  0  0  0  0  0
  140.2620   71.5040  224.9900 C   0  0  0  0  0  0  0  0  0  0  0  0
  139.9710   73.3990  222.7200 N   0  0  0  0  0  0  0  0  0  0  0  0
  141.0590   76.5420  222.3850 C   0  0  0  0  0  0  0  0  0  0  0  0
  139.3589   81.5540  223.4156 H   0  0  0  0  0  0  0  0  0  0  0  0
  141.7790   81.0146  223.1458 H   0  0  0  0  0  0  0  0  0  0  0  0
  142.5133   78.7196  222.6771 H   0  0  0  0  0  0  0  0  0  0  0  0
  137.6782   79.6842  223.2013 H   0  0  0  0  0  0  0  0  0  0  0  0
  138.0439   76.6294  223.6766 H   0  0  0  0  0  0  0  0  0  0  0  0
  137.1875   77.5719  222.4426 H   0  0  0  0  0  0  0  0  0  0  0  0
  137.9670   75.3207  221.6167 H   0  0  0  0  0  0  0  0  0  0  0  0
  138.6855   76.7147  220.6973 H   0  0  0  0  0  0  0  0  0  0  0  0
  141.5410   71.3770  218.7590 H   0  0  0  0  0  0  0  0  0  0  0  0
  143.5591   72.5338  218.1539 H   0  0  0  0  0  0  0  0  0  0  0  0
  142.5952   73.9905  218.5963 H   0  0  0  0  0  0  0  0  0  0  0  0
  143.1707   73.0419  220.9593 H   0  0  0  0  0  0  0  0  0  0  0  0
  144.8760   71.3514  220.4220 H   0  0  0  0  0  0  0  0  0  0  0  0
  145.5605   72.2602  219.1174 H   0  0  0  0  0  0  0  0  0  0  0  0
  145.6335   72.8855  222.1615 H   0  0  0  0  0  0  0  0  0  0  0  0
  147.0216   72.8278  221.0917 H   0  0  0  0  0  0  0  0  0  0  0  0
  146.5150   74.8300  220.2120 H   0  0  0  0  0  0  0  0  0  0  0  0
  143.8043   75.2503  220.8901 H   0  0  0  0  0  0  0  0  0  0  0  0
  144.5045   75.1060  219.2592 H   0  0  0  0  0  0  0  0  0  0  0  0
  138.6662   70.1003  222.3470 H   0  0  0  0  0  0  0  0  0  0  0  0
  140.0439   69.1616  223.0059 H   0  0  0  0  0  0  0  0  0  0  0  0
  137.6496   70.1988  224.6251 H   0  0  0  0  0  0  0  0  0  0  0  0
  137.8714   68.5183  224.1133 H   0  0  0  0  0  0  0  0  0  0  0  0
  138.5899   67.2821  226.0788 H   0  0  0  0  0  0  0  0  0  0  0  0
  140.1755   67.0533  227.9883 H   0  0  0  0  0  0  0  0  0  0  0  0
  141.7621   68.8809  228.4789 H   0  0  0  0  0  0  0  0  0  0  0  0
  141.7940   70.9229  227.0979 H   0  0  0  0  0  0  0  0  0  0  0  0
  139.5342   72.2329  225.3761 H   0  0  0  0  0  0  0  0  0  0  0  0
  141.2647   71.9536  225.0399 H   0  0  0  0  0  0  0  0  0  0  0  0
  141.5009   76.1193  223.2993 H   0  0  0  0  0  0  0  0  0  0  0  0
  141.8324   76.6066  221.6054 H   0  0  0  0  0  0  0  0  0  0  0  0
  1  2  2  0
  2  3  1  0
  3  4  2  0
  4  5  1  0
  5  6  2  0
  5  7  1  0
  7  8  1  0
  8  9  1  0
  9 10  1  0
 10 11  2  0
 11 12  1  0
 12 13  1  0
 13 14  1  0
 14 15  1  0
 15 16  1  0
 16 17  1  0
 17 18  1  0
 18 19  1  0
 12 20  2  0
 20 21  1  0
 21 22  1  0
 22 23  1  0
 23 24  1  0
 24 25  1  0
 25 26  2  0
 26 27  1  0
 27 28  2  0
 28 29  1  0
 29 30  2  0
 30 31  1  0
 21 32  2  0
  9 33  1  0
  6  1  1  0
 32 10  1  0
 33  4  1  0
 19 15  1  0
 31 22  1  0
 30 25  1  0
  1 34  1  0
  2 35  1  0
  3 36  1  0
  6 37  1  0
  7 38  1  0
  7 39  1  0
  8 40  1  0
  8 41  1  0
 13 42  1  0
 14 43  1  0
 14 44  1  0
 15 45  1  1
 16 46  1  0
 16 47  1  0
 17 48  1  0
 17 49  1  0
 18 50  1  0
 19 51  1  0
 19 52  1  0
 23 53  1  0
 23 54  1  0
 24 55  1  0
 24 56  1  0
 26 57  1  0
 27 58  1  0
 28 59  1  0
 29 60  1  0
 31 61  1  0
 31 62  1  0
 33 63  1  0
 33 64  1  0
M  END
>  <smiles>  (57) 
c1ccc2c(c1)CCN(c1nc(NCC3CCNC3)nc(N3CCc4ccccc4C3)n1)C2

>  <score_type>  (57) 
oracle

>  <origin>  (57) 
autodockgpu

>  <m_score__min__energy>  (57) 
-10.470000000000001

>  <m_primary>  (57) 
energy

>  <rmsd>  (57) 
5.037005233514765

>  <m_score__min__rmsd>  (57) 
5.037005233514765

>  <meeko>  (57) 
{"free_energy": -10.2, "intermolecular_energy": -11.7, "internal_energy": -1.1, "cluster_size": 50, "cluster_id": 1, "rank_in_cluster": 27}

>  <energy>  (57) 
-10.41

>  <cluster_rmsd>  (57) 
0.23

>  <cluster>  (57) 
1

$$$$

     RDKit          3D

 64 69  0  0  0  0  0  0  0  0999 V2000
  139.3590   68.0910  226.4980 C   0  0  0  0  0  0  0  0  0  0  0  0
  140.0500   69.1360  227.0940 C   0  0  0  0  0  0  0  0  0  0  0  0
  140.4720   70.2240  226.3590 C   0  0  0  0  0  0  0  0  0  0  0  0
  140.2270   70.3240  224.9920 C   0  0  0  0  0  0  0  0  0  0  0  0
  139.5420   69.2780  224.4220 C   0  0  0  0  0  0  0  0  0  0  0  0
  139.1030   68.1700  225.1250 C   0  0  0  0  0  0  0  0  0  0  0  0
  139.2420   69.2970  222.9640 C   0  0  0  0  0  0  0  0  0  0  0  0
  138.9800   70.7440  222.6050 C   0  0  0  0  0  0  0  0  0  0  0  0
  140.0530   71.6120  223.0110 N   0  0  0  0  0  0  0  0  0  0  0  0
  140.5320   72.6260  222.1180 C   0  0  0  0  0  0  0  0  0  0  0  0
  141.2170   72.3030  221.0090 N   0  0  0  0  0  0  0  0  0  0  0  0
  141.6540   73.2810  220.1650 C   0  0  0  0  0  0  0  0  0  0  0  0
  142.3760   72.7990  219.0190 N   0  0  0  0  0  0  0  0  0  0  0  0
  143.2150   73.7780  218.3520 C   0  0  0  0  0  0  0  0  0  0  0  0
  144.6120   73.7020  218.8750 C   0  0  1  0  0  0  0  0  0  0  0  0
  144.7060   74.1070  220.3280 C   0  0  0  0  0  0  0  0  0  0  0  0
  146.0840   73.5370  220.6730 C   0  0  0  0  0  0  0  0  0  0  0  0
  146.0900   72.2670  220.0210 N   0  0  0  0  0  0  0  0  0  0  0  0
  145.2250   72.3410  218.8800 C   0  0  0  0  0  0  0  0  0  0  0  0
  141.4280   74.5810  220.3920 N   0  0  0  0  0  0  0  0  0  0  0  0
  140.7370   74.8960  221.5110 C   0  0  0  0  0  0  0  0  0  0  0  0
  140.4570   76.2780  221.7710 N   0  0  0  0  0  0  0  0  0  0  0  0
  139.2110   76.5850  222.4490 C   0  0  0  0  0  0  0  0  0  0  0  0
  138.7400   77.9610  222.0150 C   0  0  0  0  0  0  0  0  0  0  0  0
  139.8280   78.9110  222.4130 C   0  0  0  0  0  0  0  0  0  0  0  0
  139.5810   80.0840  223.0800 C   0  0  0  0  0  0  0  0  0  0  0  0
  140.6360   80.9130  223.4140 C   0  0  0  0  0  0  0  0  0  0  0  0
  141.9130   80.5460  223.0730 C   0  0  0  0  0  0  0  0  0  0  0  0
  142.1540   79.3690  222.4040 C   0  0  0  0  0  0  0  0  0  0  0  0
  141.1120   78.5330  222.0650 C   0  0  0  0  0  0  0  0  0  0  0  0
  141.4110   77.2630  221.3440 C   0  0  0  0  0  0  0  0  0  0  0  0
  140.3060   73.9310  222.3450 N   0  0  0  0  0  0  0  0  0  0  0  0
  140.7100   71.5170  224.2940 C   0  0  0  0  0  0  0  0  0  0  0  0
  139.0223   67.2257  227.0878 H   0  0  0  0  0  0  0  0  0  0  0  0
  140.2651   69.0961  228.1720 H   0  0  0  0  0  0  0  0  0  0  0  0
  141.0165   71.0342  226.8661 H   0  0  0  0  0  0  0  0  0  0  0  0
  138.5603   67.3627  224.6115 H   0  0  0  0  0  0  0  0  0  0  0  0
  140.0999   68.9119  222.3932 H   0  0  0  0  0  0  0  0  0  0  0  0
  138.3764   68.6618  222.7248 H   0  0  0  0  0  0  0  0  0  0  0  0
  138.8566   70.8208  221.5146 H   0  0  0  0  0  0  0  0  0  0  0  0
  138.0711   71.0625  223.1365 H   0  0  0  0  0  0  0  0  0  0  0  0
  142.2820   71.8250  218.7110 H   0  0  0  0  0  0  0  0  0  0  0  0
  143.2203   73.5756  217.2708 H   0  0  0  0  0  0  0  0  0  0  0  0
  142.8142   74.7843  218.5438 H   0  0  0  0  0  0  0  0  0  0  0  0
  145.1358   74.3736  218.1788 H   0  0  0  0  0  0  0  0  0  0  0  0
  144.6737   75.1997  220.4503 H   0  0  0  0  0  0  0  0  0  0  0  0
  143.8832   73.7479  220.9637 H   0  0  0  0  0  0  0  0  0  0  0  0
  146.8854   74.1826  220.2845 H   0  0  0  0  0  0  0  0  0  0  0  0
  146.2593   73.4641  221.7565 H   0  0  0  0  0  0  0  0  0  0  0  0
  145.8150   71.5300  220.7070 H   0  0  0  0  0  0  0  0  0  0  0  0
  145.8042   72.1857  217.9579 H   0  0  0  0  0  0  0  0  0  0  0  0
  144.4478   71.5641  218.9295 H   0  0  0  0  0  0  0  0  0  0  0  0
  138.4519   75.8344  222.1838 H   0  0  0  0  0  0  0  0  0  0  0  0
  139.3665   76.5711  223.5379 H   0  0  0  0  0  0  0  0  0  0  0  0
  138.5881   77.9877  220.9259 H   0  0  0  0  0  0  0  0  0  0  0  0
  137.7806   78.2261  222.4833 H   0  0  0  0  0  0  0  0  0  0  0  0
  138.5511   80.3631  223.3472 H   0  0  0  0  0  0  0  0  0  0  0  0
  140.4531   81.8573  223.9478 H   0  0  0  0  0  0  0  0  0  0  0  0
  142.7553   81.2019  223.3382 H   0  0  0  0  0  0  0  0  0  0  0  0
  143.1850   79.0930  222.1377 H   0  0  0  0  0  0  0  0  0  0  0  0
  141.3255   77.4203  220.2587 H   0  0  0  0  0  0  0  0  0  0  0  0
  142.4345   76.9273  221.5673 H   0  0  0  0  0  0  0  0  0  0  0  0
  141.7975   71.4425  224.1464 H   0  0  0  0  0  0  0  0  0  0  0  0
  140.4864   72.4126  224.8923 H   0  0  0  0  0  0  0  0  0  0  0  0
  1  2  2  0
  2  3  1  0
  3  4  2  0
  4  5  1  0
  5  6  2  0
  5  7  1  0
  7  8  1  0
  8  9  1  0
  9 10  1  0
 10 11  2  0
 11 12  1  0
 12 13  1  0
 13 14  1  0
 14 15  1  0
 15 16  1  0
 16 17  1  0
 17 18  1  0
 18 19  1  0
 12 20  2  0
 20 21  1  0
 21 22  1  0
 22 23  1  0
 23 24  1  0
 24 25  1  0
 25 26  2  0
 26 27  1  0
 27 28  2  0
 28 29  1  0
 29 30  2  0
 30 31  1  0
 21 32  2  0
  9 33  1  0
  6  1  1  0
 32 10  1  0
 33  4  1  0
 19 15  1  0
 31 22  1  0
 30 25  1  0
  1 34  1  0
  2 35  1  0
  3 36  1  0
  6 37  1  0
  7 38  1  0
  7 39  1  0
  8 40  1  0
  8 41  1  0
 13 42  1  0
 14 43  1  0
 14 44  1  0
 15 45  1  6
 16 46  1  0
 16 47  1  0
 17 48  1  0
 17 49  1  0
 18 50  1  0
 19 51  1  0
 19 52  1  0
 23 53  1  0
 23 54  1  0
 24 55  1  0
 24 56  1  0
 26 57  1  0
 27 58  1  0
 28 59  1  0
 29 60  1  0
 31 61  1  0
 31 62  1  0
 33 63  1  0
 33 64  1  0
M  END
>  <smiles>  (58) 
c1ccc2c(c1)CCN(c1nc(NCC3CCNC3)nc(N3CCc4ccccc4C3)n1)C2

>  <score_type>  (58) 
oracle

>  <origin>  (58) 
autodockgpu

>  <m_score__min__energy>  (58) 
-10.470000000000001

>  <m_primary>  (58) 
energy

>  <rmsd>  (58) 
10.75082697118919

>  <m_score__min__rmsd>  (58) 
10.75082697118919

>  <meeko>  (58) 
{"free_energy": -10.12, "intermolecular_energy": -11.61, "internal_energy": -1.02, "cluster_size": 50, "cluster_id": 1, "rank_in_cluster": 37}

>  <energy>  (58) 
-10.4

>  <cluster_rmsd>  (58) 
0.86

>  <cluster>  (58) 
1

$$$$

     RDKit          3D

 64 69  0  0  0  0  0  0  0  0999 V2000
  139.4510   80.8360  223.5260 C   0  0  0  0  0  0  0  0  0  0  0  0
  140.8110   80.6190  223.3630 C   0  0  0  0  0  0  0  0  0  0  0  0
  141.2980   79.3810  222.9980 C   0  0  0  0  0  0  0  0  0  0  0  0
  140.4530   78.2970  222.7780 C   0  0  0  0  0  0  0  0  0  0  0  0
  139.1090   78.5350  222.9460 C   0  0  0  0  0  0  0  0  0  0  0  0
  138.5830   79.7600  223.3110 C   0  0  0  0  0  0  0  0  0  0  0  0
  138.1320   77.4300  222.7380 C   0  0  0  0  0  0  0  0  0  0  0  0
  138.6830   76.5830  221.6110 C   0  0  0  0  0  0  0  0  0  0  0  0
  140.0340   76.1540  221.8590 N   0  0  0  0  0  0  0  0  0  0  0  0
  140.4170   74.8000  221.5890 C   0  0  0  0  0  0  0  0  0  0  0  0
  141.1540   74.4920  220.5090 N   0  0  0  0  0  0  0  0  0  0  0  0
  141.5200   73.1990  220.2760 C   0  0  0  0  0  0  0  0  0  0  0  0
  142.3030   73.0070  219.0860 N   0  0  0  0  0  0  0  0  0  0  0  0
  143.1700   74.1140  218.7230 C   0  0  0  0  0  0  0  0  0  0  0  0
  144.5810   73.8120  219.1060 C   0  0  1  0  0  0  0  0  0  0  0  0
  144.9480   74.3870  220.4550 C   0  0  0  0  0  0  0  0  0  0  0  0
  146.2200   73.5870  220.7470 C   0  0  0  0  0  0  0  0  0  0  0  0
  145.8860   72.2660  220.3180 N   0  0  0  0  0  0  0  0  0  0  0  0
  144.9080   72.3650  219.2750 C   0  0  0  0  0  0  0  0  0  0  0  0
  141.1740   72.1950  221.0920 N   0  0  0  0  0  0  0  0  0  0  0  0
  140.4320   72.5150  222.1760 C   0  0  0  0  0  0  0  0  0  0  0  0
  140.0650   71.4670  223.0830 N   0  0  0  0  0  0  0  0  0  0  0  0
  139.4450   70.2850  222.5150 C   0  0  0  0  0  0  0  0  0  0  0  0
  138.5170   69.6710  223.5470 C   0  0  0  0  0  0  0  0  0  0  0  0
  139.3810   69.3240  224.7200 C   0  0  0  0  0  0  0  0  0  0  0  0
  139.3300   68.1030  225.3440 C   0  0  0  0  0  0  0  0  0  0  0  0
  140.1580   67.8540  226.4230 C   0  0  0  0  0  0  0  0  0  0  0  0
  141.0170   68.8340  226.8510 C   0  0  0  0  0  0  0  0  0  0  0  0
  141.0640   70.0560  226.2220 C   0  0  0  0  0  0  0  0  0  0  0  0
  140.2440   70.3180  225.1440 C   0  0  0  0  0  0  0  0  0  0  0  0
  140.3250   71.6520  224.4840 C   0  0  0  0  0  0  0  0  0  0  0  0
  140.0700   73.7910  222.4070 N   0  0  0  0  0  0  0  0  0  0  0  0
  141.0590   77.0220  222.3910 C   0  0  0  0  0  0  0  0  0  0  0  0
  139.0661   81.8249  223.8158 H   0  0  0  0  0  0  0  0  0  0  0  0
  141.5140   81.4489  223.5277 H   0  0  0  0  0  0  0  0  0  0  0  0
  142.3831   79.2469  222.8776 H   0  0  0  0  0  0  0  0  0  0  0  0
  137.4970   79.8871  223.4308 H   0  0  0  0  0  0  0  0  0  0  0  0
  138.0358   76.8290  223.6543 H   0  0  0  0  0  0  0  0  0  0  0  0
  137.1329   77.8201  222.4937 H   0  0  0  0  0  0  0  0  0  0  0  0
  138.0459   75.6941  221.4927 H   0  0  0  0  0  0  0  0  0  0  0  0
  138.6879   77.1986  220.6994 H   0  0  0  0  0  0  0  0  0  0  0  0
  142.2310   72.1380  218.5450 H   0  0  0  0  0  0  0  0  0  0  0  0
  143.1155   74.2768  217.6365 H   0  0  0  0  0  0  0  0  0  0  0  0
  142.8395   75.0179  219.2557 H   0  0  0  0  0  0  0  0  0  0  0  0
  145.1282   74.2495  218.2580 H   0  0  0  0  0  0  0  0  0  0  0  0
  145.1490   75.4670  220.3976 H   0  0  0  0  0  0  0  0  0  0  0  0
  144.1636   74.3068  221.2220 H   0  0  0  0  0  0  0  0  0  0  0  0
  147.0733   73.9822  220.1763 H   0  0  0  0  0  0  0  0  0  0  0  0
  146.5224   73.6318  221.8036 H   0  0  0  0  0  0  0  0  0  0  0  0
  145.5650   71.7110  221.1410 H   0  0  0  0  0  0  0  0  0  0  0  0
  145.3159   71.9596  218.3373 H   0  0  0  0  0  0  0  0  0  0  0  0
  144.0061   71.7903  219.5322 H   0  0  0  0  0  0  0  0  0  0  0  0
  138.8690   70.5642  221.6204 H   0  0  0  0  0  0  0  0  0  0  0  0
  140.2202   69.5577  222.2321 H   0  0  0  0  0  0  0  0  0  0  0  0
  137.7421   70.3935  223.8428 H   0  0  0  0  0  0  0  0  0  0  0  0
  138.0002   68.7850  223.1495 H   0  0  0  0  0  0  0  0  0  0  0  0
  138.6353   67.3278  224.9883 H   0  0  0  0  0  0  0  0  0  0  0  0
  140.1282   66.8798  226.9330 H   0  0  0  0  0  0  0  0  0  0  0  0
  141.6773   68.6398  227.7091 H   0  0  0  0  0  0  0  0  0  0  0  0
  141.7595   70.8291  226.5805 H   0  0  0  0  0  0  0  0  0  0  0  0
  139.5747   72.3297  224.9172 H   0  0  0  0  0  0  0  0  0  0  0  0
  141.3208   72.0945  224.6342 H   0  0  0  0  0  0  0  0  0  0  0  0
  141.5201   76.5509  223.2716 H   0  0  0  0  0  0  0  0  0  0  0  0
  141.8313   77.1953  221.6271 H   0  0  0  0  0  0  0  0  0  0  0  0
  1  2  2  0
  2  3  1  0
  3  4  2  0
  4  5  1  0
  5  6  2  0
  5  7  1  0
  7  8  1  0
  8  9  1  0
  9 10  1  0
 10 11  2  0
 11 12  1  0
 12 13  1  0
 13 14  1  0
 14 15  1  0
 15 16  1  0
 16 17  1  0
 17 18  1  0
 18 19  1  0
 12 20  2  0
 20 21  1  0
 21 22  1  0
 22 23  1  0
 23 24  1  0
 24 25  1  0
 25 26  2  0
 26 27  1  0
 27 28  2  0
 28 29  1  0
 29 30  2  0
 30 31  1  0
 21 32  2  0
  9 33  1  0
  6  1  1  0
 32 10  1  0
 33  4  1  0
 19 15  1  0
 31 22  1  0
 30 25  1  0
  1 34  1  0
  2 35  1  0
  3 36  1  0
  6 37  1  0
  7 38  1  0
  7 39  1  0
  8 40  1  0
  8 41  1  0
 13 42  1  0
 14 43  1  0
 14 44  1  0
 15 45  1  6
 16 46  1  0
 16 47  1  0
 17 48  1  0
 17 49  1  0
 18 50  1  0
 19 51  1  0
 19 52  1  0
 23 53  1  0
 23 54  1  0
 24 55  1  0
 24 56  1  0
 26 57  1  0
 27 58  1  0
 28 59  1  0
 29 60  1  0
 31 61  1  0
 31 62  1  0
 33 63  1  0
 33 64  1  0
M  END
>  <smiles>  (59) 
c1ccc2c(c1)CCN(c1nc(NCC3CCNC3)nc(N3CCc4ccccc4C3)n1)C2

>  <score_type>  (59) 
oracle

>  <origin>  (59) 
autodockgpu

>  <m_score__min__energy>  (59) 
-10.470000000000001

>  <m_primary>  (59) 
energy

>  <rmsd>  (59) 
5.145558697645481

>  <m_score__min__rmsd>  (59) 
5.145558697645481

>  <meeko>  (59) 
{"free_energy": -10.08, "intermolecular_energy": -11.57, "internal_energy": -1.03, "cluster_size": 50, "cluster_id": 1, "rank_in_cluster": 39}

>  <energy>  (59) 
-10.4

>  <cluster_rmsd>  (59) 
0.28

>  <cluster>  (59) 
1

$$$$

     RDKit          3D

 64 69  0  0  0  0  0  0  0  0999 V2000
  139.7930   68.1870  227.4030 C   0  0  0  0  0  0  0  0  0  0  0  0
  140.4840   69.3160  227.8150 C   0  0  0  0  0  0  0  0  0  0  0  0
  140.7490   70.3500  226.9410 C   0  0  0  0  0  0  0  0  0  0  0  0
  140.3390   70.3090  225.6110 C   0  0  0  0  0  0  0  0  0  0  0  0
  139.6560   69.1800  225.2250 C   0  0  0  0  0  0  0  0  0  0  0  0
  139.3710   68.1240  226.0700 C   0  0  0  0  0  0  0  0  0  0  0  0
  139.1840   69.0480  223.8180 C   0  0  0  0  0  0  0  0  0  0  0  0
  138.7940   70.4400  223.3690 C   0  0  0  0  0  0  0  0  0  0  0  0
  139.8530   71.3940  223.5620 N   0  0  0  0  0  0  0  0  0  0  0  0
  140.1610   72.3420  222.5320 C   0  0  0  0  0  0  0  0  0  0  0  0
  140.6400   71.9400  221.3440 N   0  0  0  0  0  0  0  0  0  0  0  0
  140.9150   72.8560  220.3710 C   0  0  0  0  0  0  0  0  0  0  0  0
  141.4250   72.2940  219.1510 N   0  0  0  0  0  0  0  0  0  0  0  0
  142.7630   72.7160  218.7800 C   0  0  0  0  0  0  0  0  0  0  0  0
  143.5380   73.1040  219.9950 C   0  0  1  0  0  0  0  0  0  0  0  0
  144.7880   72.2730  220.1720 C   0  0  0  0  0  0  0  0  0  0  0  0
  145.5440   73.1430  221.1790 C   0  0  0  0  0  0  0  0  0  0  0  0
  145.3260   74.4700  220.7000 N   0  0  0  0  0  0  0  0  0  0  0  0
  144.0750   74.4970  220.0000 C   0  0  0  0  0  0  0  0  0  0  0  0
  140.7250   74.1700  220.5460 N   0  0  0  0  0  0  0  0  0  0  0  0
  140.2410   74.5650  221.7460 C   0  0  0  0  0  0  0  0  0  0  0  0
  140.0030   75.9620  221.9570 N   0  0  0  0  0  0  0  0  0  0  0  0
  138.6920   76.3450  222.4450 C   0  0  0  0  0  0  0  0  0  0  0  0
  138.3650   77.7390  221.9420 C   0  0  0  0  0  0  0  0  0  0  0  0
  139.4350   78.6330  222.4910 C   0  0  0  0  0  0  0  0  0  0  0  0
  139.1590   79.8260  223.1100 C   0  0  0  0  0  0  0  0  0  0  0  0
  140.1990   80.6000  223.5910 C   0  0  0  0  0  0  0  0  0  0  0  0
  141.4900   80.1610  223.4400 C   0  0  0  0  0  0  0  0  0  0  0  0
  141.7600   78.9640  222.8180 C   0  0  0  0  0  0  0  0  0  0  0  0
  140.7330   78.1820  222.3340 C   0  0  0  0  0  0  0  0  0  0  0  0
  141.0620   76.8890  221.6700 C   0  0  0  0  0  0  0  0  0  0  0  0
  139.9700   73.6610  222.7070 N   0  0  0  0  0  0  0  0  0  0  0  0
  140.6620   71.4530  224.7580 C   0  0  0  0  0  0  0  0  0  0  0  0
  139.5826   67.3650  228.1030 H   0  0  0  0  0  0  0  0  0  0  0  0
  140.8272   69.3887  228.8576 H   0  0  0  0  0  0  0  0  0  0  0  0
  141.2990   71.2305  227.3046 H   0  0  0  0  0  0  0  0  0  0  0  0
  138.8203   67.2465  225.7001 H   0  0  0  0  0  0  0  0  0  0  0  0
  139.9898   68.6541  223.1812 H   0  0  0  0  0  0  0  0  0  0  0  0
  138.3358   68.3515  223.7442 H   0  0  0  0  0  0  0  0  0  0  0  0
  138.5379   70.4077  222.2997 H   0  0  0  0  0  0  0  0  0  0  0  0
  137.9368   70.7618  223.9787 H   0  0  0  0  0  0  0  0  0  0  0  0
  140.8580   71.6430  218.5950 H   0  0  0  0  0  0  0  0  0  0  0  0
  143.2769   71.8874  218.2708 H   0  0  0  0  0  0  0  0  0  0  0  0
  142.6916   73.5841  218.1082 H   0  0  0  0  0  0  0  0  0  0  0  0
  142.7815   72.9643  220.7812 H   0  0  0  0  0  0  0  0  0  0  0  0
  144.5619   71.2773  220.5813 H   0  0  0  0  0  0  0  0  0  0  0  0
  145.3360   72.0562  219.2432 H   0  0  0  0  0  0  0  0  0  0  0  0
  145.1346   73.0182  222.1923 H   0  0  0  0  0  0  0  0  0  0  0  0
  146.6103   72.8838  221.2547 H   0  0  0  0  0  0  0  0  0  0  0  0
  146.1400   74.7590  220.1140 H   0  0  0  0  0  0  0  0  0  0  0  0
  143.3715   75.1696  220.5125 H   0  0  0  0  0  0  0  0  0  0  0  0
  144.2120   74.8649  218.9724 H   0  0  0  0  0  0  0  0  0  0  0  0
  137.9387   75.6336  222.0756 H   0  0  0  0  0  0  0  0  0  0  0  0
  138.6880   76.3365  223.5450 H   0  0  0  0  0  0  0  0  0  0  0  0
  138.3743   77.7613  220.8423 H   0  0  0  0  0  0  0  0  0  0  0  0
  137.3638   78.0610  222.2643 H   0  0  0  0  0  0  0  0  0  0  0  0
  138.1183   80.1641  223.2228 H   0  0  0  0  0  0  0  0  0  0  0  0
  139.9932   81.5585  224.0899 H   0  0  0  0  0  0  0  0  0  0  0  0
  142.3200   80.7741  223.8212 H   0  0  0  0  0  0  0  0  0  0  0  0
  142.8017   78.6288  222.7062 H   0  0  0  0  0  0  0  0  0  0  0  0
  141.1441   77.0375  220.5832 H   0  0  0  0  0  0  0  0  0  0  0  0
  142.0216   76.5009  222.0422 H   0  0  0  0  0  0  0  0  0  0  0  0
  141.7269   71.4195  224.4845 H   0  0  0  0  0  0  0  0  0  0  0  0
  140.4564   72.3885  225.2989 H   0  0  0  0  0  0  0  0  0  0  0  0
  1  2  2  0
  2  3  1  0
  3  4  2  0
  4  5  1  0
  5  6  2  0
  5  7  1  0
  7  8  1  0
  8  9  1  0
  9 10  1  0
 10 11  2  0
 11 12  1  0
 12 13  1  0
 13 14  1  0
 14 15  1  0
 15 16  1  0
 16 17  1  0
 17 18  1  0
 18 19  1  0
 12 20  2  0
 20 21  1  0
 21 22  1  0
 22 23  1  0
 23 24  1  0
 24 25  1  0
 25 26  2  0
 26 27  1  0
 27 28  2  0
 28 29  1  0
 29 30  2  0
 30 31  1  0
 21 32  2  0
  9 33  1  0
  6  1  1  0
 32 10  1  0
 33  4  1  0
 19 15  1  0
 31 22  1  0
 30 25  1  0
  1 34  1  0
  2 35  1  0
  3 36  1  0
  6 37  1  0
  7 38  1  0
  7 39  1  0
  8 40  1  0
  8 41  1  0
 13 42  1  0
 14 43  1  0
 14 44  1  0
 15 45  1  1
 16 46  1  0
 16 47  1  0
 17 48  1  0
 17 49  1  0
 18 50  1  0
 19 51  1  0
 19 52  1  0
 23 53  1  0
 23 54  1  0
 24 55  1  0
 24 56  1  0
 26 57  1  0
 27 58  1  0
 28 59  1  0
 29 60  1  0
 31 61  1  0
 31 62  1  0
 33 63  1  0
 33 64  1  0
M  END
>  <smiles>  (60) 
c1ccc2c(c1)CCN(c1nc(NCC3CCNC3)nc(N3CCc4ccccc4C3)n1)C2

>  <score_type>  (60) 
oracle

>  <origin>  (60) 
autodockgpu

>  <m_score__min__energy>  (60) 
-10.470000000000001

>  <m_primary>  (60) 
energy

>  <rmsd>  (60) 
11.137195096028899

>  <m_score__min__rmsd>  (60) 
11.137195096028899

>  <meeko>  (60) 
{"free_energy": -10.17, "intermolecular_energy": -11.66, "internal_energy": -1.16, "cluster_size": 50, "cluster_id": 1, "rank_in_cluster": 31}

>  <energy>  (60) 
-10.39

>  <cluster_rmsd>  (60) 
0.86

>  <cluster>  (60) 
1

$$$$

     RDKit          3D

 64 69  0  0  0  0  0  0  0  0999 V2000
  139.7270   80.5130  223.2580 C   0  0  0  0  0  0  0  0  0  0  0  0
  141.0690   80.1960  223.1070 C   0  0  0  0  0  0  0  0  0  0  0  0
  141.4710   78.9070  222.8250 C   0  0  0  0  0  0  0  0  0  0  0  0
  140.5540   77.8690  222.6790 C   0  0  0  0  0  0  0  0  0  0  0  0
  139.2310   78.2060  222.8330 C   0  0  0  0  0  0  0  0  0  0  0  0
  138.7890   79.4850  223.1160 C   0  0  0  0  0  0  0  0  0  0  0  0
  138.1810   77.1580  222.7000 C   0  0  0  0  0  0  0  0  0  0  0  0
  138.6680   76.2030  221.6310 C   0  0  0  0  0  0  0  0  0  0  0  0
  139.9890   75.7030  221.9040 N   0  0  0  0  0  0  0  0  0  0  0  0
  140.2800   74.3110  221.7250 C   0  0  0  0  0  0  0  0  0  0  0  0
  140.8900   73.8710  220.6130 N   0  0  0  0  0  0  0  0  0  0  0  0
  141.1710   72.5440  220.4650 C   0  0  0  0  0  0  0  0  0  0  0  0
  141.8220   72.2070  219.2290 N   0  0  0  0  0  0  0  0  0  0  0  0
  142.9670   73.0280  218.8810 C   0  0  0  0  0  0  0  0  0  0  0  0
  143.8350   73.2350  220.0770 C   0  0  1  0  0  0  0  0  0  0  0  0
  145.0680   72.3600  220.0540 C   0  0  0  0  0  0  0  0  0  0  0  0
  145.9190   73.0730  221.1070 C   0  0  0  0  0  0  0  0  0  0  0  0
  145.7100   74.4560  220.8210 N   0  0  0  0  0  0  0  0  0  0  0  0
  144.4160   74.6030  220.2240 C   0  0  0  0  0  0  0  0  0  0  0  0
  140.8610   71.6350  221.3990 N   0  0  0  0  0  0  0  0  0  0  0  0
  140.2470   72.0880  222.5150 C   0  0  0  0  0  0  0  0  0  0  0  0
  139.9250   71.1450  223.5450 N   0  0  0  0  0  0  0  0  0  0  0  0
  139.2680   69.9180  223.1380 C   0  0  0  0  0  0  0  0  0  0  0  0
  138.3940   69.4240  224.2770 C   0  0  0  0  0  0  0  0  0  0  0  0
  139.3190   69.1920  225.4320 C   0  0  0  0  0  0  0  0  0  0  0  0
  139.2950   68.0430  226.1820 C   0  0  0  0  0  0  0  0  0  0  0  0
  140.1790   67.9000  227.2360 C   0  0  0  0  0  0  0  0  0  0  0  0
  141.0660   68.9090  227.5120 C   0  0  0  0  0  0  0  0  0  0  0  0
  141.0850   70.0580  226.7560 C   0  0  0  0  0  0  0  0  0  0  0  0
  140.2090   70.2150  225.7030 C   0  0  0  0  0  0  0  0  0  0  0  0
  140.2610   71.4720  224.9030 C   0  0  0  0  0  0  0  0  0  0  0  0
  139.9690   73.3980  222.6610 N   0  0  0  0  0  0  0  0  0  0  0  0
  141.0720   76.5340  222.3770 C   0  0  0  0  0  0  0  0  0  0  0  0
  139.4099   81.5421  223.4827 H   0  0  0  0  0  0  0  0  0  0  0  0
  141.8262   80.9867  223.2141 H   0  0  0  0  0  0  0  0  0  0  0  0
  142.5441   78.6933  222.7125 H   0  0  0  0  0  0  0  0  0  0  0  0
  137.7144   79.6915  223.2280 H   0  0  0  0  0  0  0  0  0  0  0  0
  138.0498   76.6269  223.6543 H   0  0  0  0  0  0  0  0  0  0  0  0
  137.2090   77.5973  222.4314 H   0  0  0  0  0  0  0  0  0  0  0  0
  137.9730   75.3523  221.5738 H   0  0  0  0  0  0  0  0  0  0  0  0
  138.7077   76.7551  220.6804 H   0  0  0  0  0  0  0  0  0  0  0  0
  141.4760   71.4350  218.6470 H   0  0  0  0  0  0  0  0  0  0  0  0
  143.5478   72.5263  218.0929 H   0  0  0  0  0  0  0  0  0  0  0  0
  142.6121   74.0052  218.5215 H   0  0  0  0  0  0  0  0  0  0  0  0
  143.1297   73.0101  220.8906 H   0  0  0  0  0  0  0  0  0  0  0  0
  144.8394   71.3246  220.3466 H   0  0  0  0  0  0  0  0  0  0  0  0
  145.5433   72.2549  219.0676 H   0  0  0  0  0  0  0  0  0  0  0  0
  145.5773   72.8252  222.1228 H   0  0  0  0  0  0  0  0  0  0  0  0
  146.9793   72.7826  221.0704 H   0  0  0  0  0  0  0  0  0  0  0  0
  146.4910   74.8010  220.2200 H   0  0  0  0  0  0  0  0  0  0  0  0
  143.7716   75.2180  220.8694 H   0  0  0  0  0  0  0  0  0  0  0  0
  144.4934   75.0997  219.2456 H   0  0  0  0  0  0  0  0  0  0  0  0
  138.6453   70.1095  222.2517 H   0  0  0  0  0  0  0  0  0  0  0  0
  140.0226   69.1566  222.8914 H   0  0  0  0  0  0  0  0  0  0  0  0
  137.6396   70.1812  224.5368 H   0  0  0  0  0  0  0  0  0  0  0  0
  137.8522   68.5069  224.0024 H   0  0  0  0  0  0  0  0  0  0  0  0
  138.5785   67.2422  225.9468 H   0  0  0  0  0  0  0  0  0  0  0  0
  140.1708   66.9855  227.8472 H   0  0  0  0  0  0  0  0  0  0  0  0
  141.7713   68.7980  228.3488 H   0  0  0  0  0  0  0  0  0  0  0  0
  141.8035   70.8565  226.9930 H   0  0  0  0  0  0  0  0  0  0  0  0
  139.5386   72.1992  225.3021 H   0  0  0  0  0  0  0  0  0  0  0  0
  141.2659   71.9167  224.9528 H   0  0  0  0  0  0  0  0  0  0  0  0
  141.5051   76.0924  223.2866 H   0  0  0  0  0  0  0  0  0  0  0  0
  141.8504   76.6047  221.6030 H   0  0  0  0  0  0  0  0  0  0  0  0
  1  2  2  0
  2  3  1  0
  3  4  2  0
  4  5  1  0
  5  6  2  0
  5  7  1  0
  7  8  1  0
  8  9  1  0
  9 10  1  0
 10 11  2  0
 11 12  1  0
 12 13  1  0
 13 14  1  0
 14 15  1  0
 15 16  1  0
 16 17  1  0
 17 18  1  0
 18 19  1  0
 12 20  2  0
 20 21  1  0
 21 22  1  0
 22 23  1  0
 23 24  1  0
 24 25  1  0
 25 26  2  0
 26 27  1  0
 27 28  2  0
 28 29  1  0
 29 30  2  0
 30 31  1  0
 21 32  2  0
  9 33  1  0
  6  1  1  0
 32 10  1  0
 33  4  1  0
 19 15  1  0
 31 22  1  0
 30 25  1  0
  1 34  1  0
  2 35  1  0
  3 36  1  0
  6 37  1  0
  7 38  1  0
  7 39  1  0
  8 40  1  0
  8 41  1  0
 13 42  1  0
 14 43  1  0
 14 44  1  0
 15 45  1  1
 16 46  1  0
 16 47  1  0
 17 48  1  0
 17 49  1  0
 18 50  1  0
 19 51  1  0
 19 52  1  0
 23 53  1  0
 23 54  1  0
 24 55  1  0
 24 56  1  0
 26 57  1  0
 27 58  1  0
 28 59  1  0
 29 60  1  0
 31 61  1  0
 31 62  1  0
 33 63  1  0
 33 64  1  0
M  END
>  <smiles>  (61) 
c1ccc2c(c1)CCN(c1nc(NCC3CCNC3)nc(N3CCc4ccccc4C3)n1)C2

>  <score_type>  (61) 
oracle

>  <origin>  (61) 
autodockgpu

>  <m_score__min__energy>  (61) 
-10.470000000000001

>  <m_primary>  (61) 
energy

>  <rmsd>  (61) 
5.054794457969736

>  <m_score__min__rmsd>  (61) 
5.054794457969736

>  <meeko>  (61) 
{"free_energy": -10.2, "intermolecular_energy": -11.69, "internal_energy": -1.1, "cluster_size": 50, "cluster_id": 1, "rank_in_cluster": 28}

>  <energy>  (61) 
-10.38

>  <cluster_rmsd>  (61) 
0.85

>  <cluster>  (61) 
1

$$$$

     RDKit          3D

 64 69  0  0  0  0  0  0  0  0999 V2000
  139.8300   80.6420  223.4430 C   0  0  0  0  0  0  0  0  0  0  0  0
  141.1640   80.2940  223.2940 C   0  0  0  0  0  0  0  0  0  0  0  0
  141.5330   79.0090  222.9520 C   0  0  0  0  0  0  0  0  0  0  0  0
  140.5900   78.0070  222.7430 C   0  0  0  0  0  0  0  0  0  0  0  0
  139.2740   78.3740  222.8960 C   0  0  0  0  0  0  0  0  0  0  0  0
  138.8650   79.6500  223.2380 C   0  0  0  0  0  0  0  0  0  0  0  0
  138.1970   77.3640  222.6980 C   0  0  0  0  0  0  0  0  0  0  0  0
  138.6720   76.4510  221.5890 C   0  0  0  0  0  0  0  0  0  0  0  0
  139.9740   75.8990  221.8540 N   0  0  0  0  0  0  0  0  0  0  0  0
  140.2280   74.5100  221.6080 C   0  0  0  0  0  0  0  0  0  0  0  0
  140.7890   74.1030  220.4580 N   0  0  0  0  0  0  0  0  0  0  0  0
  141.0360   72.7780  220.2470 C   0  0  0  0  0  0  0  0  0  0  0  0
  141.6350   72.4780  218.9760 N   0  0  0  0  0  0  0  0  0  0  0  0
  143.0280   72.0730  219.0220 C   0  0  0  0  0  0  0  0  0  0  0  0
  143.7400   72.7970  220.1160 C   0  0  1  0  0  0  0  0  0  0  0  0
  145.1180   72.2330  220.3780 C   0  0  0  0  0  0  0  0  0  0  0  0
  145.7260   73.3840  221.1830 C   0  0  0  0  0  0  0  0  0  0  0  0
  145.2740   74.5480  220.4910 N   0  0  0  0  0  0  0  0  0  0  0  0
  144.0280   74.2390  219.8550 C   0  0  0  0  0  0  0  0  0  0  0  0
  140.7390   71.8380  221.1550 N   0  0  0  0  0  0  0  0  0  0  0  0
  140.1750   72.2590  222.3100 C   0  0  0  0  0  0  0  0  0  0  0  0
  139.8680   71.2810  223.3120 N   0  0  0  0  0  0  0  0  0  0  0  0
  139.1670   70.0860  222.8810 C   0  0  0  0  0  0  0  0  0  0  0  0
  138.3250   69.5660  224.0310 C   0  0  0  0  0  0  0  0  0  0  0  0
  139.2860   69.2660  225.1400 C   0  0  0  0  0  0  0  0  0  0  0  0
  139.2620   68.0870  225.8430 C   0  0  0  0  0  0  0  0  0  0  0  0
  140.1810   67.8810  226.8560 C   0  0  0  0  0  0  0  0  0  0  0  0
  141.1010   68.8580  227.1390 C   0  0  0  0  0  0  0  0  0  0  0  0
  141.1190   70.0370  226.4310 C   0  0  0  0  0  0  0  0  0  0  0  0
  140.2100   70.2560  225.4180 C   0  0  0  0  0  0  0  0  0  0  0  0
  140.2620   71.5440  224.6690 C   0  0  0  0  0  0  0  0  0  0  0  0
  139.9310   73.5660  222.5180 N   0  0  0  0  0  0  0  0  0  0  0  0
  141.0740   76.6740  222.3810 C   0  0  0  0  0  0  0  0  0  0  0  0
  139.5392   81.6676  223.7143 H   0  0  0  0  0  0  0  0  0  0  0  0
  141.9419   81.0557  223.4512 H   0  0  0  0  0  0  0  0  0  0  0  0
  142.6011   78.7703  222.8416 H   0  0  0  0  0  0  0  0  0  0  0  0
  137.7953   79.8819  223.3474 H   0  0  0  0  0  0  0  0  0  0  0  0
  138.0382   76.7898  223.6227 H   0  0  0  0  0  0  0  0  0  0  0  0
  137.2410   77.8432  222.4403 H   0  0  0  0  0  0  0  0  0  0  0  0
  137.9537   75.6252  221.4791 H   0  0  0  0  0  0  0  0  0  0  0  0
  138.7419   77.0491  220.6684 H   0  0  0  0  0  0  0  0  0  0  0  0
  141.0920   72.5580  218.1080 H   0  0  0  0  0  0  0  0  0  0  0  0
  143.0855   70.9900  219.2057 H   0  0  0  0  0  0  0  0  0  0  0  0
  143.5044   72.3170  218.0610 H   0  0  0  0  0  0  0  0  0  0  0  0
  143.0299   72.6754  220.9473 H   0  0  0  0  0  0  0  0  0  0  0  0
  145.0741   71.3032  220.9641 H   0  0  0  0  0  0  0  0  0  0  0  0
  145.6817   71.9484  219.4773 H   0  0  0  0  0  0  0  0  0  0  0  0
  145.3593   73.3756  222.2200 H   0  0  0  0  0  0  0  0  0  0  0  0
  146.8222   73.3257  221.2541 H   0  0  0  0  0  0  0  0  0  0  0  0
  146.0170   74.8610  219.8280 H   0  0  0  0  0  0  0  0  0  0  0  0
  143.2263   74.8646  220.2744 H   0  0  0  0  0  0  0  0  0  0  0  0
  144.0842   74.4348  218.7740 H   0  0  0  0  0  0  0  0  0  0  0  0
  138.5166   70.3275  222.0274 H   0  0  0  0  0  0  0  0  0  0  0  0
  139.8935   69.3186  222.5753 H   0  0  0  0  0  0  0  0  0  0  0  0
  137.5992   70.3288  224.3494 H   0  0  0  0  0  0  0  0  0  0  0  0
  137.7517   68.6733  223.7406 H   0  0  0  0  0  0  0  0  0  0  0  0
  138.5183   67.3129  225.6027 H   0  0  0  0  0  0  0  0  0  0  0  0
  140.1740   66.9423  227.4293 H   0  0  0  0  0  0  0  0  0  0  0  0
  141.8342   68.6965  227.9429 H   0  0  0  0  0  0  0  0  0  0  0  0
  141.8631   70.8097  226.6745 H   0  0  0  0  0  0  0  0  0  0  0  0
  139.5722   72.2696  225.1247 H   0  0  0  0  0  0  0  0  0  0  0  0
  141.2781   71.9643  224.6988 H   0  0  0  0  0  0  0  0  0  0  0  0
  141.4821   76.1755  223.2726 H   0  0  0  0  0  0  0  0  0  0  0  0
  141.8645   76.7603  221.6209 H   0  0  0  0  0  0  0  0  0  0  0  0
  1  2  2  0
  2  3  1  0
  3  4  2  0
  4  5  1  0
  5  6  2  0
  5  7  1  0
  7  8  1  0
  8  9  1  0
  9 10  1  0
 10 11  2  0
 11 12  1  0
 12 13  1  0
 13 14  1  0
 14 15  1  0
 15 16  1  0
 16 17  1  0
 17 18  1  0
 18 19  1  0
 12 20  2  0
 20 21  1  0
 21 22  1  0
 22 23  1  0
 23 24  1  0
 24 25  1  0
 25 26  2  0
 26 27  1  0
 27 28  2  0
 28 29  1  0
 29 30  2  0
 30 31  1  0
 21 32  2  0
  9 33  1  0
  6  1  1  0
 32 10  1  0
 33  4  1  0
 19 15  1  0
 31 22  1  0
 30 25  1  0
  1 34  1  0
  2 35  1  0
  3 36  1  0
  6 37  1  0
  7 38  1  0
  7 39  1  0
  8 40  1  0
  8 41  1  0
 13 42  1  0
 14 43  1  0
 14 44  1  0
 15 45  1  1
 16 46  1  0
 16 47  1  0
 17 48  1  0
 17 49  1  0
 18 50  1  0
 19 51  1  0
 19 52  1  0
 23 53  1  0
 23 54  1  0
 24 55  1  0
 24 56  1  0
 26 57  1  0
 27 58  1  0
 28 59  1  0
 29 60  1  0
 31 61  1  0
 31 62  1  0
 33 63  1  0
 33 64  1  0
M  END
>  <smiles>  (62) 
c1ccc2c(c1)CCN(c1nc(NCC3CCNC3)nc(N3CCc4ccccc4C3)n1)C2

>  <score_type>  (62) 
oracle

>  <origin>  (62) 
autodockgpu

>  <m_score__min__energy>  (62) 
-10.470000000000001

>  <m_primary>  (62) 
energy

>  <rmsd>  (62) 
5.139168583364384

>  <m_score__min__rmsd>  (62) 
5.139168583364384

>  <meeko>  (62) 
{"free_energy": -10.01, "intermolecular_energy": -11.5, "internal_energy": -1.13, "cluster_size": 50, "cluster_id": 1, "rank_in_cluster": 42}

>  <energy>  (62) 
-10.38

>  <cluster_rmsd>  (62) 
0.28

>  <cluster>  (62) 
1

$$$$

     RDKit          3D

 64 69  0  0  0  0  0  0  0  0999 V2000
  139.6230   80.8330  223.4880 C   0  0  0  0  0  0  0  0  0  0  0  0
  140.9760   80.5480  223.3740 C   0  0  0  0  0  0  0  0  0  0  0  0
  141.4120   79.2860  223.0270 C   0  0  0  0  0  0  0  0  0  0  0  0
  140.5210   78.2460  222.7760 C   0  0  0  0  0  0  0  0  0  0  0  0
  139.1870   78.5510  222.8950 C   0  0  0  0  0  0  0  0  0  0  0  0
  138.7110   79.8020  223.2410 C   0  0  0  0  0  0  0  0  0  0  0  0
  138.1630   77.4970  222.6510 C   0  0  0  0  0  0  0  0  0  0  0  0
  138.7110   76.6230  221.5440 C   0  0  0  0  0  0  0  0  0  0  0  0
  140.0280   76.1260  221.8400 N   0  0  0  0  0  0  0  0  0  0  0  0
  140.3510   74.7530  221.5830 C   0  0  0  0  0  0  0  0  0  0  0  0
  141.0180   74.3960  220.4730 N   0  0  0  0  0  0  0  0  0  0  0  0
  141.3290   73.0860  220.2520 C   0  0  0  0  0  0  0  0  0  0  0  0
  142.0390   72.8410  219.0270 N   0  0  0  0  0  0  0  0  0  0  0  0
  142.9090   73.9150  218.5840 C   0  0  0  0  0  0  0  0  0  0  0  0
  144.2930   73.7050  219.1030 C   0  0  1  0  0  0  0  0  0  0  0  0
  144.5430   74.4490  220.3950 C   0  0  0  0  0  0  0  0  0  0  0  0
  145.8060   73.7290  220.8740 C   0  0  0  0  0  0  0  0  0  0  0  0
  145.5360   72.3570  220.5850 N   0  0  0  0  0  0  0  0  0  0  0  0
  144.6390   72.3000  219.4680 C   0  0  0  0  0  0  0  0  0  0  0  0
  140.9940   72.1130  221.1100 N   0  0  0  0  0  0  0  0  0  0  0  0
  140.3240   72.4830  222.2250 C   0  0  0  0  0  0  0  0  0  0  0  0
  139.9730   71.4700  223.1760 N   0  0  0  0  0  0  0  0  0  0  0  0
  139.1310   70.3850  222.7090 C   0  0  0  0  0  0  0  0  0  0  0  0
  138.3040   69.8670  223.8700 C   0  0  0  0  0  0  0  0  0  0  0  0
  139.2880   69.3920  224.8950 C   0  0  0  0  0  0  0  0  0  0  0  0
  139.1810   68.1740  225.5170 C   0  0  0  0  0  0  0  0  0  0  0  0
  140.1280   67.8030  226.4540 C   0  0  0  0  0  0  0  0  0  0  0  0
  141.1580   68.6610  226.7460 C   0  0  0  0  0  0  0  0  0  0  0  0
  141.2590   69.8810  226.1190 C   0  0  0  0  0  0  0  0  0  0  0  0
  140.3230   70.2630  225.1820 C   0  0  0  0  0  0  0  0  0  0  0  0
  140.4660   71.5910  224.5200 C   0  0  0  0  0  0  0  0  0  0  0  0
  140.0170   73.7760  222.4430 N   0  0  0  0  0  0  0  0  0  0  0  0
  141.0760   76.9410  222.4100 C   0  0  0  0  0  0  0  0  0  0  0  0
  139.2778   81.8402  223.7645 H   0  0  0  0  0  0  0  0  0  0  0  0
  141.7136   81.3418  223.5635 H   0  0  0  0  0  0  0  0  0  0  0  0
  142.4925   79.0963  222.9464 H   0  0  0  0  0  0  0  0  0  0  0  0
  137.6291   79.9840  223.3210 H   0  0  0  0  0  0  0  0  0  0  0  0
  138.0034   76.9023  223.5625 H   0  0  0  0  0  0  0  0  0  0  0  0
  137.1942   77.9368  222.3716 H   0  0  0  0  0  0  0  0  0  0  0  0
  138.0343   75.7676  221.4012 H   0  0  0  0  0  0  0  0  0  0  0  0
  138.7806   77.2375  220.6343 H   0  0  0  0  0  0  0  0  0  0  0  0
  141.9160   71.9590  218.5170 H   0  0  0  0  0  0  0  0  0  0  0  0
  142.9323   73.9336  217.4844 H   0  0  0  0  0  0  0  0  0  0  0  0
  142.5230   74.8709  218.9678 H   0  0  0  0  0  0  0  0  0  0  0  0
  144.8938   74.0551  218.2506 H   0  0  0  0  0  0  0  0  0  0  0  0
  144.7243   75.5199  220.2212 H   0  0  0  0  0  0  0  0  0  0  0  0
  143.7043   74.4377  221.1067 H   0  0  0  0  0  0  0  0  0  0  0  0
  146.6915   74.0800  220.3239 H   0  0  0  0  0  0  0  0  0  0  0  0
  146.0250   73.9084  221.9369 H   0  0  0  0  0  0  0  0  0  0  0  0
  145.1670   71.8940  221.4440 H   0  0  0  0  0  0  0  0  0  0  0  0
  145.1273   71.8000  218.6185 H   0  0  0  0  0  0  0  0  0  0  0  0
  143.7336   71.7307  219.7250 H   0  0  0  0  0  0  0  0  0  0  0  0
  138.4634   70.7516  221.9153 H   0  0  0  0  0  0  0  0  0  0  0  0
  139.7574   69.5745  222.3081 H   0  0  0  0  0  0  0  0  0  0  0  0
  137.6789   70.6720  224.2838 H   0  0  0  0  0  0  0  0  0  0  0  0
  137.6270   69.0592  223.5551 H   0  0  0  0  0  0  0  0  0  0  0  0
  138.3486   67.4978  225.2724 H   0  0  0  0  0  0  0  0  0  0  0  0
  140.0561   66.8292  226.9604 H   0  0  0  0  0  0  0  0  0  0  0  0
  141.9128   68.3694  227.4912 H   0  0  0  0  0  0  0  0  0  0  0  0
  142.0916   70.5558  226.3667 H   0  0  0  0  0  0  0  0  0  0  0  0
  139.8810   72.3457  225.0661 H   0  0  0  0  0  0  0  0  0  0  0  0
  141.5203   71.9048  224.5145 H   0  0  0  0  0  0  0  0  0  0  0  0
  141.4801   76.4478  223.3064 H   0  0  0  0  0  0  0  0  0  0  0  0
  141.8838   77.0741  221.6753 H   0  0  0  0  0  0  0  0  0  0  0  0
  1  2  2  0
  2  3  1  0
  3  4  2  0
  4  5  1  0
  5  6  2  0
  5  7  1  0
  7  8  1  0
  8  9  1  0
  9 10  1  0
 10 11  2  0
 11 12  1  0
 12 13  1  0
 13 14  1  0
 14 15  1  0
 15 16  1  0
 16 17  1  0
 17 18  1  0
 18 19  1  0
 12 20  2  0
 20 21  1  0
 21 22  1  0
 22 23  1  0
 23 24  1  0
 24 25  1  0
 25 26  2  0
 26 27  1  0
 27 28  2  0
 28 29  1  0
 29 30  2  0
 30 31  1  0
 21 32  2  0
  9 33  1  0
  6  1  1  0
 32 10  1  0
 33  4  1  0
 19 15  1  0
 31 22  1  0
 30 25  1  0
  1 34  1  0
  2 35  1  0
  3 36  1  0
  6 37  1  0
  7 38  1  0
  7 39  1  0
  8 40  1  0
  8 41  1  0
 13 42  1  0
 14 43  1  0
 14 44  1  0
 15 45  1  6
 16 46  1  0
 16 47  1  0
 17 48  1  0
 17 49  1  0
 18 50  1  0
 19 51  1  0
 19 52  1  0
 23 53  1  0
 23 54  1  0
 24 55  1  0
 24 56  1  0
 26 57  1  0
 27 58  1  0
 28 59  1  0
 29 60  1  0
 31 61  1  0
 31 62  1  0
 33 63  1  0
 33 64  1  0
M  END
>  <smiles>  (63) 
c1ccc2c(c1)CCN(c1nc(NCC3CCNC3)nc(N3CCc4ccccc4C3)n1)C2

>  <score_type>  (63) 
oracle

>  <origin>  (63) 
autodockgpu

>  <m_score__min__energy>  (63) 
-10.470000000000001

>  <m_primary>  (63) 
energy

>  <rmsd>  (63) 
5.1435149850898165

>  <m_score__min__rmsd>  (63) 
5.1435149850898165

>  <meeko>  (63) 
{"free_energy": -9.97, "intermolecular_energy": -11.46, "internal_energy": -1.11, "cluster_size": 50, "cluster_id": 1, "rank_in_cluster": 44}

>  <energy>  (63) 
-10.36

>  <cluster_rmsd>  (63) 
0.84

>  <cluster>  (63) 
1

$$$$

     RDKit          3D

 64 69  0  0  0  0  0  0  0  0999 V2000
  139.7790   68.1890  227.3910 C   0  0  0  0  0  0  0  0  0  0  0  0
  140.4910   69.3070  227.8020 C   0  0  0  0  0  0  0  0  0  0  0  0
  140.7610   70.3410  226.9310 C   0  0  0  0  0  0  0  0  0  0  0  0
  140.3370   70.3130  225.6050 C   0  0  0  0  0  0  0  0  0  0  0  0
  139.6350   69.1960  225.2190 C   0  0  0  0  0  0  0  0  0  0  0  0
  139.3440   68.1390  226.0620 C   0  0  0  0  0  0  0  0  0  0  0  0
  139.1470   69.0780  223.8170 C   0  0  0  0  0  0  0  0  0  0  0  0
  138.7720   70.4780  223.3800 C   0  0  0  0  0  0  0  0  0  0  0  0
  139.8460   71.4160  223.5670 N   0  0  0  0  0  0  0  0  0  0  0  0
  140.1560   72.3660  222.5390 C   0  0  0  0  0  0  0  0  0  0  0  0
  140.6370   71.9650  221.3510 N   0  0  0  0  0  0  0  0  0  0  0  0
  140.9150   72.8820  220.3800 C   0  0  0  0  0  0  0  0  0  0  0  0
  141.4260   72.3210  219.1590 N   0  0  0  0  0  0  0  0  0  0  0  0
  142.7610   72.7490  218.7860 C   0  0  0  0  0  0  0  0  0  0  0  0
  143.5480   73.1070  220.0030 C   0  0  1  0  0  0  0  0  0  0  0  0
  144.7990   72.2700  220.1480 C   0  0  0  0  0  0  0  0  0  0  0  0
  145.5660   73.1140  221.1680 C   0  0  0  0  0  0  0  0  0  0  0  0
  145.3450   74.4530  220.7240 N   0  0  0  0  0  0  0  0  0  0  0  0
  144.0880   74.4980  220.0370 C   0  0  0  0  0  0  0  0  0  0  0  0
  140.7260   74.1960  220.5560 N   0  0  0  0  0  0  0  0  0  0  0  0
  140.2410   74.5890  221.7560 C   0  0  0  0  0  0  0  0  0  0  0  0
  140.0040   75.9870  221.9690 N   0  0  0  0  0  0  0  0  0  0  0  0
  138.6890   76.3720  222.4460 C   0  0  0  0  0  0  0  0  0  0  0  0
  138.3720   77.7680  221.9440 C   0  0  0  0  0  0  0  0  0  0  0  0
  139.4380   78.6580  222.5060 C   0  0  0  0  0  0  0  0  0  0  0  0
  139.1590   79.8490  223.1260 C   0  0  0  0  0  0  0  0  0  0  0  0
  140.1970   80.6190  223.6190 C   0  0  0  0  0  0  0  0  0  0  0  0
  141.4880   80.1770  223.4790 C   0  0  0  0  0  0  0  0  0  0  0  0
  141.7600   78.9810  222.8560 C   0  0  0  0  0  0  0  0  0  0  0  0
  140.7360   78.2040  222.3610 C   0  0  0  0  0  0  0  0  0  0  0  0
  141.0690   76.9120  221.6950 C   0  0  0  0  0  0  0  0  0  0  0  0
  139.9670   73.6850  222.7150 N   0  0  0  0  0  0  0  0  0  0  0  0
  140.6670   71.4570  224.7550 C   0  0  0  0  0  0  0  0  0  0  0  0
  139.5631   67.3668  228.0891 H   0  0  0  0  0  0  0  0  0  0  0  0
  140.8462   69.3693  228.8412 H   0  0  0  0  0  0  0  0  0  0  0  0
  141.3268   71.2119  227.2935 H   0  0  0  0  0  0  0  0  0  0  0  0
  138.7783   67.2708  225.6928 H   0  0  0  0  0  0  0  0  0  0  0  0
  139.9406   68.6764  223.1697 H   0  0  0  0  0  0  0  0  0  0  0  0
  138.2886   68.3936  223.7481 H   0  0  0  0  0  0  0  0  0  0  0  0
  138.5042   70.4554  222.3133 H   0  0  0  0  0  0  0  0  0  0  0  0
  137.9260   70.8082  224.0007 H   0  0  0  0  0  0  0  0  0  0  0  0
  140.8610   71.6670  218.6060 H   0  0  0  0  0  0  0  0  0  0  0  0
  143.2686   71.9317  218.2528 H   0  0  0  0  0  0  0  0  0  0  0  0
  142.6853   73.6328  218.1354 H   0  0  0  0  0  0  0  0  0  0  0  0
  142.7980   72.9499  220.7922 H   0  0  0  0  0  0  0  0  0  0  0  0
  144.5753   71.2650  220.5353 H   0  0  0  0  0  0  0  0  0  0  0  0
  145.3377   72.0751  219.2089 H   0  0  0  0  0  0  0  0  0  0  0  0
  145.1666   72.9647  222.1820 H   0  0  0  0  0  0  0  0  0  0  0  0
  146.6327   72.8519  221.2264 H   0  0  0  0  0  0  0  0  0  0  0  0
  146.1530   74.7560  220.1380 H   0  0  0  0  0  0  0  0  0  0  0  0
  143.3905   75.1591  220.5721 H   0  0  0  0  0  0  0  0  0  0  0  0
  144.2165   74.8898  219.0172 H   0  0  0  0  0  0  0  0  0  0  0  0
  137.9372   75.6640  222.0671 H   0  0  0  0  0  0  0  0  0  0  0  0
  138.6738   76.3597  223.5458 H   0  0  0  0  0  0  0  0  0  0  0  0
  138.3928   77.7932  220.8445 H   0  0  0  0  0  0  0  0  0  0  0  0
  137.3686   78.0919  222.2575 H   0  0  0  0  0  0  0  0  0  0  0  0
  138.1182   80.1892  223.2304 H   0  0  0  0  0  0  0  0  0  0  0  0
  139.9892   81.5767  224.1186 H   0  0  0  0  0  0  0  0  0  0  0  0
  142.3161   80.7865  223.8698 H   0  0  0  0  0  0  0  0  0  0  0  0
  142.8017   78.6431  222.7525 H   0  0  0  0  0  0  0  0  0  0  0  0
  141.1621   77.0641  220.6096 H   0  0  0  0  0  0  0  0  0  0  0  0
  142.0242   76.5201  222.0745 H   0  0  0  0  0  0  0  0  0  0  0  0
  141.7286   71.4106  224.4708 H   0  0  0  0  0  0  0  0  0  0  0  0
  140.4792   72.3921  225.3030 H   0  0  0  0  0  0  0  0  0  0  0  0
  1  2  2  0
  2  3  1  0
  3  4  2  0
  4  5  1  0
  5  6  2  0
  5  7  1  0
  7  8  1  0
  8  9  1  0
  9 10  1  0
 10 11  2  0
 11 12  1  0
 12 13  1  0
 13 14  1  0
 14 15  1  0
 15 16  1  0
 16 17  1  0
 17 18  1  0
 18 19  1  0
 12 20  2  0
 20 21  1  0
 21 22  1  0
 22 23  1  0
 23 24  1  0
 24 25  1  0
 25 26  2  0
 26 27  1  0
 27 28  2  0
 28 29  1  0
 29 30  2  0
 30 31  1  0
 21 32  2  0
  9 33  1  0
  6  1  1  0
 32 10  1  0
 33  4  1  0
 19 15  1  0
 31 22  1  0
 30 25  1  0
  1 34  1  0
  2 35  1  0
  3 36  1  0
  6 37  1  0
  7 38  1  0
  7 39  1  0
  8 40  1  0
  8 41  1  0
 13 42  1  0
 14 43  1  0
 14 44  1  0
 15 45  1  1
 16 46  1  0
 16 47  1  0
 17 48  1  0
 17 49  1  0
 18 50  1  0
 19 51  1  0
 19 52  1  0
 23 53  1  0
 23 54  1  0
 24 55  1  0
 24 56  1  0
 26 57  1  0
 27 58  1  0
 28 59  1  0
 29 60  1  0
 31 61  1  0
 31 62  1  0
 33 63  1  0
 33 64  1  0
M  END
>  <smiles>  (64) 
c1ccc2c(c1)CCN(c1nc(NCC3CCNC3)nc(N3CCc4ccccc4C3)n1)C2

>  <score_type>  (64) 
oracle

>  <origin>  (64) 
autodockgpu

>  <m_score__min__energy>  (64) 
-10.470000000000001

>  <m_primary>  (64) 
energy

>  <rmsd>  (64) 
11.130188959663814

>  <m_score__min__rmsd>  (64) 
11.130188959663814

>  <meeko>  (64) 
{"free_energy": -10.18, "intermolecular_energy": -11.67, "internal_energy": -1.16, "cluster_size": 50, "cluster_id": 1, "rank_in_cluster": 30}

>  <energy>  (64) 
-10.36

>  <cluster_rmsd>  (64) 
0.33

>  <cluster>  (64) 
1

$$$$

     RDKit          3D

 64 69  0  0  0  0  0  0  0  0999 V2000
  139.3920   80.6070  223.2670 C   0  0  0  0  0  0  0  0  0  0  0  0
  140.7580   80.4050  223.1290 C   0  0  0  0  0  0  0  0  0  0  0  0
  141.2690   79.1550  222.8460 C   0  0  0  0  0  0  0  0  0  0  0  0
  140.4450   78.0450  222.6860 C   0  0  0  0  0  0  0  0  0  0  0  0
  139.0970   78.2680  222.8270 C   0  0  0  0  0  0  0  0  0  0  0  0
  138.5460   79.5040  223.1110 C   0  0  0  0  0  0  0  0  0  0  0  0
  138.1410   77.1360  222.6800 C   0  0  0  0  0  0  0  0  0  0  0  0
  138.7170   76.2310  221.6120 C   0  0  0  0  0  0  0  0  0  0  0  0
  140.0730   75.8430  221.8970 N   0  0  0  0  0  0  0  0  0  0  0  0
  140.4820   74.4810  221.7150 C   0  0  0  0  0  0  0  0  0  0  0  0
  141.2630   74.1270  220.6810 N   0  0  0  0  0  0  0  0  0  0  0  0
  141.6530   72.8280  220.5320 C   0  0  0  0  0  0  0  0  0  0  0  0
  142.4830   72.5840  219.3840 N   0  0  0  0  0  0  0  0  0  0  0  0
  143.1640   73.7480  218.8470 C   0  0  0  0  0  0  0  0  0  0  0  0
  144.6150   73.7020  219.1960 C   0  0  1  0  0  0  0  0  0  0  0  0
  144.8720   74.0620  220.6420 C   0  0  0  0  0  0  0  0  0  0  0  0
  146.2980   73.5290  220.7990 C   0  0  0  0  0  0  0  0  0  0  0  0
  146.2630   72.2810  220.1040 N   0  0  0  0  0  0  0  0  0  0  0  0
  145.2660   72.3640  219.0780 C   0  0  0  0  0  0  0  0  0  0  0  0
  141.2880   71.8640  221.3870 N   0  0  0  0  0  0  0  0  0  0  0  0
  140.5020   72.2310  222.4250 C   0  0  0  0  0  0  0  0  0  0  0  0
  140.1140   71.2280  223.3720 N   0  0  0  0  0  0  0  0  0  0  0  0
  139.5000   70.0230  222.8490 C   0  0  0  0  0  0  0  0  0  0  0  0
  138.5510   69.4600  223.8900 C   0  0  0  0  0  0  0  0  0  0  0  0
  139.3910   69.1660  225.0950 C   0  0  0  0  0  0  0  0  0  0  0  0
  139.3230   67.9760  225.7730 C   0  0  0  0  0  0  0  0  0  0  0  0
  140.1300   67.7750  226.8790 C   0  0  0  0  0  0  0  0  0  0  0  0
  140.9840   68.7720  227.2770 C   0  0  0  0  0  0  0  0  0  0  0  0
  141.0470   69.9630  226.5920 C   0  0  0  0  0  0  0  0  0  0  0  0
  140.2500   70.1760  225.4880 C   0  0  0  0  0  0  0  0  0  0  0  0
  140.3480   71.4770  224.7680 C   0  0  0  0  0  0  0  0  0  0  0  0
  140.1160   73.5130  222.5730 N   0  0  0  0  0  0  0  0  0  0  0  0
  141.0770   76.7600  222.3840 C   0  0  0  0  0  0  0  0  0  0  0  0
  138.9867   81.6045  223.4923 H   0  0  0  0  0  0  0  0  0  0  0  0
  141.4450   81.2559  223.2472 H   0  0  0  0  0  0  0  0  0  0  0  0
  142.3574   79.0325  222.7440 H   0  0  0  0  0  0  0  0  0  0  0  0
  137.4567   79.6184  223.2129 H   0  0  0  0  0  0  0  0  0  0  0  0
  138.0465   76.5911  223.6309 H   0  0  0  0  0  0  0  0  0  0  0  0
  137.1377   77.4927  222.4040 H   0  0  0  0  0  0  0  0  0  0  0  0
  138.0968   75.3250  221.5441 H   0  0  0  0  0  0  0  0  0  0  0  0
  138.7192   76.7889  220.6640 H   0  0  0  0  0  0  0  0  0  0  0  0
  142.5650   71.6410  218.9870 H   0  0  0  0  0  0  0  0  0  0  0  0
  143.0536   73.7610  217.7526 H   0  0  0  0  0  0  0  0  0  0  0  0
  142.7190   74.6561  219.2798 H   0  0  0  0  0  0  0  0  0  0  0  0
  145.0296   74.4134  218.4666 H   0  0  0  0  0  0  0  0  0  0  0  0
  144.8217   75.1483  220.8074 H   0  0  0  0  0  0  0  0  0  0  0  0
  144.1433   73.6537  221.3577 H   0  0  0  0  0  0  0  0  0  0  0  0
  147.0270   74.2141  220.3415 H   0  0  0  0  0  0  0  0  0  0  0  0
  146.6052   73.4268  221.8503 H   0  0  0  0  0  0  0  0  0  0  0  0
  146.0950   71.5140  220.7910 H   0  0  0  0  0  0  0  0  0  0  0  0
  145.7351   72.2600  218.0885 H   0  0  0  0  0  0  0  0  0  0  0  0
  144.5242   71.5596  219.1910 H   0  0  0  0  0  0  0  0  0  0  0  0
  138.9416   70.2619  221.9318 H   0  0  0  0  0  0  0  0  0  0  0  0
  140.2778   69.2810  222.6154 H   0  0  0  0  0  0  0  0  0  0  0  0
  137.7727   70.1971  224.1367 H   0  0  0  0  0  0  0  0  0  0  0  0
  138.0396   68.5574  223.5242 H   0  0  0  0  0  0  0  0  0  0  0  0
  138.6322   67.1872  225.4402 H   0  0  0  0  0  0  0  0  0  0  0  0
  140.0871   66.8258  227.4332 H   0  0  0  0  0  0  0  0  0  0  0  0
  141.6271   68.6169  228.1558 H   0  0  0  0  0  0  0  0  0  0  0  0
  141.7379   70.7505  226.9274 H   0  0  0  0  0  0  0  0  0  0  0  0
  139.5920   72.1761  225.1548 H   0  0  0  0  0  0  0  0  0  0  0  0
  141.3425   71.9230  224.9162 H   0  0  0  0  0  0  0  0  0  0  0  0
  141.5370   76.3522  223.2962 H   0  0  0  0  0  0  0  0  0  0  0  0
  141.8541   76.8999  221.6182 H   0  0  0  0  0  0  0  0  0  0  0  0
  1  2  2  0
  2  3  1  0
  3  4  2  0
  4  5  1  0
  5  6  2  0
  5  7  1  0
  7  8  1  0
  8  9  1  0
  9 10  1  0
 10 11  2  0
 11 12  1  0
 12 13  1  0
 13 14  1  0
 14 15  1  0
 15 16  1  0
 16 17  1  0
 17 18  1  0
 18 19  1  0
 12 20  2  0
 20 21  1  0
 21 22  1  0
 22 23  1  0
 23 24  1  0
 24 25  1  0
 25 26  2  0
 26 27  1  0
 27 28  2  0
 28 29  1  0
 29 30  2  0
 30 31  1  0
 21 32  2  0
  9 33  1  0
  6  1  1  0
 32 10  1  0
 33  4  1  0
 19 15  1  0
 31 22  1  0
 30 25  1  0
  1 34  1  0
  2 35  1  0
  3 36  1  0
  6 37  1  0
  7 38  1  0
  7 39  1  0
  8 40  1  0
  8 41  1  0
 13 42  1  0
 14 43  1  0
 14 44  1  0
 15 45  1  6
 16 46  1  0
 16 47  1  0
 17 48  1  0
 17 49  1  0
 18 50  1  0
 19 51  1  0
 19 52  1  0
 23 53  1  0
 23 54  1  0
 24 55  1  0
 24 56  1  0
 26 57  1  0
 27 58  1  0
 28 59  1  0
 29 60  1  0
 31 61  1  0
 31 62  1  0
 33 63  1  0
 33 64  1  0
M  END
>  <smiles>  (65) 
c1ccc2c(c1)CCN(c1nc(NCC3CCNC3)nc(N3CCc4ccccc4C3)n1)C2

>  <score_type>  (65) 
oracle

>  <origin>  (65) 
autodockgpu

>  <m_score__min__energy>  (65) 
-10.470000000000001

>  <m_primary>  (65) 
energy

>  <rmsd>  (65) 
5.017966159238914

>  <m_score__min__rmsd>  (65) 
5.017966159238914

>  <meeko>  (65) 
{"free_energy": -10.41, "intermolecular_energy": -11.9, "internal_energy": -1.01, "cluster_size": 50, "cluster_id": 1, "rank_in_cluster": 7}

>  <energy>  (65) 
-10.33

>  <cluster_rmsd>  (65) 
0.67

>  <cluster>  (65) 
1

$$$$

     RDKit          3D

 64 69  0  0  0  0  0  0  0  0999 V2000
  139.8030   68.1870  227.5350 C   0  0  0  0  0  0  0  0  0  0  0  0
  140.5040   69.3200  227.9240 C   0  0  0  0  0  0  0  0  0  0  0  0
  140.7700   70.3360  227.0300 C   0  0  0  0  0  0  0  0  0  0  0  0
  140.3520   70.2740  225.7030 C   0  0  0  0  0  0  0  0  0  0  0  0
  139.6610   69.1430  225.3400 C   0  0  0  0  0  0  0  0  0  0  0  0
  139.3740   68.1030  226.2060 C   0  0  0  0  0  0  0  0  0  0  0  0
  139.1810   68.9890  223.9390 C   0  0  0  0  0  0  0  0  0  0  0  0
  138.7960   70.3750  223.4670 C   0  0  0  0  0  0  0  0  0  0  0  0
  139.8620   71.3260  223.6380 N   0  0  0  0  0  0  0  0  0  0  0  0
  140.1700   72.2540  222.5900 C   0  0  0  0  0  0  0  0  0  0  0  0
  140.6900   71.8320  221.4250 N   0  0  0  0  0  0  0  0  0  0  0  0
  140.9640   72.7290  220.4340 C   0  0  0  0  0  0  0  0  0  0  0  0
  141.5200   72.1470  219.2420 N   0  0  0  0  0  0  0  0  0  0  0  0
  142.8150   72.6640  218.8400 C   0  0  0  0  0  0  0  0  0  0  0  0
  143.5940   73.0930  220.0390 C   0  0  1  0  0  0  0  0  0  0  0  0
  144.8920   72.3310  220.1850 C   0  0  0  0  0  0  0  0  0  0  0  0
  145.6220   73.2400  221.1770 C   0  0  0  0  0  0  0  0  0  0  0  0
  145.3210   74.5540  220.7050 N   0  0  0  0  0  0  0  0  0  0  0  0
  144.0550   74.5130  220.0350 C   0  0  0  0  0  0  0  0  0  0  0  0
  140.7350   74.0420  220.5670 N   0  0  0  0  0  0  0  0  0  0  0  0
  140.2110   74.4550  221.7440 C   0  0  0  0  0  0  0  0  0  0  0  0
  139.9300   75.8510  221.9100 N   0  0  0  0  0  0  0  0  0  0  0  0
  138.5650   76.2190  222.2330 C   0  0  0  0  0  0  0  0  0  0  0  0
  138.2820   77.6030  221.6810 C   0  0  0  0  0  0  0  0  0  0  0  0
  139.2670   78.5180  222.3430 C   0  0  0  0  0  0  0  0  0  0  0  0
  138.9020   79.7120  222.9130 C   0  0  0  0  0  0  0  0  0  0  0  0
  139.8670   80.5060  223.5060 C   0  0  0  0  0  0  0  0  0  0  0  0
  141.1720   80.0840  223.5150 C   0  0  0  0  0  0  0  0  0  0  0  0
  141.5300   78.8860  222.9430 C   0  0  0  0  0  0  0  0  0  0  0  0
  140.5790   78.0840  222.3480 C   0  0  0  0  0  0  0  0  0  0  0  0
  141.0040   76.7910  221.7410 C   0  0  0  0  0  0  0  0  0  0  0  0
  139.9400   73.5710  222.7220 N   0  0  0  0  0  0  0  0  0  0  0  0
  140.6780   71.4010  224.8280 C   0  0  0  0  0  0  0  0  0  0  0  0
  139.5910   67.3789  228.2506 H   0  0  0  0  0  0  0  0  0  0  0  0
  140.8534   69.4092  228.9632 H   0  0  0  0  0  0  0  0  0  0  0  0
  141.3276   71.2194  227.3745 H   0  0  0  0  0  0  0  0  0  0  0  0
  138.8163   67.2224  225.8546 H   0  0  0  0  0  0  0  0  0  0  0  0
  139.9812   68.5794  223.3051 H   0  0  0  0  0  0  0  0  0  0  0  0
  138.3285   68.2962  223.8823 H   0  0  0  0  0  0  0  0  0  0  0  0
  138.5343   70.3252  222.3997 H   0  0  0  0  0  0  0  0  0  0  0  0
  137.9434   70.7125  224.0745 H   0  0  0  0  0  0  0  0  0  0  0  0
  141.0110   71.4200  218.7270 H   0  0  0  0  0  0  0  0  0  0  0  0
  143.3708   71.8779  218.3079 H   0  0  0  0  0  0  0  0  0  0  0  0
  142.6659   73.5312  218.1799 H   0  0  0  0  0  0  0  0  0  0  0  0
  142.8638   72.9121  220.8416 H   0  0  0  0  0  0  0  0  0  0  0  0
  144.7303   71.3238  220.5966 H   0  0  0  0  0  0  0  0  0  0  0  0
  145.4296   72.1458  219.2434 H   0  0  0  0  0  0  0  0  0  0  0  0
  145.2427   73.0923  222.1989 H   0  0  0  0  0  0  0  0  0  0  0  0
  146.7023   73.0392  221.2288 H   0  0  0  0  0  0  0  0  0  0  0  0
  146.1040   74.8880  220.1020 H   0  0  0  0  0  0  0  0  0  0  0  0
  143.3282   75.1458  220.5654 H   0  0  0  0  0  0  0  0  0  0  0  0
  144.1480   74.8884  219.0052 H   0  0  0  0  0  0  0  0  0  0  0  0
  137.8713   75.4936  221.7829 H   0  0  0  0  0  0  0  0  0  0  0  0
  138.4291   76.2197  223.3246 H   0  0  0  0  0  0  0  0  0  0  0  0
  138.4213   77.6157  220.5899 H   0  0  0  0  0  0  0  0  0  0  0  0
  137.2455   77.9131  221.8798 H   0  0  0  0  0  0  0  0  0  0  0  0
  137.8506   80.0349  222.8984 H   0  0  0  0  0  0  0  0  0  0  0  0
  139.5906   81.4663  223.9658 H   0  0  0  0  0  0  0  0  0  0  0  0
  141.9423   80.7122  223.9860 H   0  0  0  0  0  0  0  0  0  0  0  0
  142.5820   78.5652  222.9601 H   0  0  0  0  0  0  0  0  0  0  0  0
  141.2131   76.9314  220.6702 H   0  0  0  0  0  0  0  0  0  0  0  0
  141.9183   76.4207  222.2278 H   0  0  0  0  0  0  0  0  0  0  0  0
  141.7411   71.3556  224.5493 H   0  0  0  0  0  0  0  0  0  0  0  0
  140.4818   72.3473  225.3533 H   0  0  0  0  0  0  0  0  0  0  0  0
  1  2  2  0
  2  3  1  0
  3  4  2  0
  4  5  1  0
  5  6  2  0
  5  7  1  0
  7  8  1  0
  8  9  1  0
  9 10  1  0
 10 11  2  0
 11 12  1  0
 12 13  1  0
 13 14  1  0
 14 15  1  0
 15 16  1  0
 16 17  1  0
 17 18  1  0
 18 19  1  0
 12 20  2  0
 20 21  1  0
 21 22  1  0
 22 23  1  0
 23 24  1  0
 24 25  1  0
 25 26  2  0
 26 27  1  0
 27 28  2  0
 28 29  1  0
 29 30  2  0
 30 31  1  0
 21 32  2  0
  9 33  1  0
  6  1  1  0
 32 10  1  0
 33  4  1  0
 19 15  1  0
 31 22  1  0
 30 25  1  0
  1 34  1  0
  2 35  1  0
  3 36  1  0
  6 37  1  0
  7 38  1  0
  7 39  1  0
  8 40  1  0
  8 41  1  0
 13 42  1  0
 14 43  1  0
 14 44  1  0
 15 45  1  1
 16 46  1  0
 16 47  1  0
 17 48  1  0
 17 49  1  0
 18 50  1  0
 19 51  1  0
 19 52  1  0
 23 53  1  0
 23 54  1  0
 24 55  1  0
 24 56  1  0
 26 57  1  0
 27 58  1  0
 28 59  1  0
 29 60  1  0
 31 61  1  0
 31 62  1  0
 33 63  1  0
 33 64  1  0
M  END
>  <smiles>  (66) 
c1ccc2c(c1)CCN(c1nc(NCC3CCNC3)nc(N3CCc4ccccc4C3)n1)C2

>  <score_type>  (66) 
oracle

>  <origin>  (66) 
autodockgpu

>  <m_score__min__energy>  (66) 
-10.470000000000001

>  <m_primary>  (66) 
energy

>  <rmsd>  (66) 
11.218830055130663

>  <m_score__min__rmsd>  (66) 
11.218830055130663

>  <meeko>  (66) 
{"free_energy": -10.14, "intermolecular_energy": -11.63, "internal_energy": -1.15, "cluster_size": 50, "cluster_id": 1, "rank_in_cluster": 35}

>  <energy>  (66) 
-10.33

>  <cluster_rmsd>  (66) 
0.67

>  <cluster>  (66) 
1

$$$$

     RDKit          3D

 64 69  0  0  0  0  0  0  0  0999 V2000
  139.4170   80.5430  223.2080 C   0  0  0  0  0  0  0  0  0  0  0  0
  140.7810   80.3290  223.0670 C   0  0  0  0  0  0  0  0  0  0  0  0
  141.2830   79.0690  222.8120 C   0  0  0  0  0  0  0  0  0  0  0  0
  140.4510   77.9600  222.6860 C   0  0  0  0  0  0  0  0  0  0  0  0
  139.1040   78.1950  222.8290 C   0  0  0  0  0  0  0  0  0  0  0  0
  138.5630   79.4420  223.0850 C   0  0  0  0  0  0  0  0  0  0  0  0
  138.1410   77.0660  222.7160 C   0  0  0  0  0  0  0  0  0  0  0  0
  138.7050   76.1310  221.6680 C   0  0  0  0  0  0  0  0  0  0  0  0
  140.0590   75.7410  221.9550 N   0  0  0  0  0  0  0  0  0  0  0  0
  140.4590   74.3720  221.8050 C   0  0  0  0  0  0  0  0  0  0  0  0
  141.2360   73.9880  220.7790 N   0  0  0  0  0  0  0  0  0  0  0  0
  141.6170   72.6840  220.6600 C   0  0  0  0  0  0  0  0  0  0  0  0
  142.4440   72.4070  219.5170 N   0  0  0  0  0  0  0  0  0  0  0  0
  143.0590   73.5650  218.8960 C   0  0  0  0  0  0  0  0  0  0  0  0
  144.4980   73.6560  219.2840 C   0  0  1  0  0  0  0  0  0  0  0  0
  144.6830   73.8360  220.7740 C   0  0  0  0  0  0  0  0  0  0  0  0
  146.1640   73.4720  220.9020 C   0  0  0  0  0  0  0  0  0  0  0  0
  146.3040   72.3420  220.0400 N   0  0  0  0  0  0  0  0  0  0  0  0
  145.3200   72.4420  219.0030 C   0  0  0  0  0  0  0  0  0  0  0  0
  141.2470   71.7430  221.5380 N   0  0  0  0  0  0  0  0  0  0  0  0
  140.4650   72.1400  222.5680 C   0  0  0  0  0  0  0  0  0  0  0  0
  140.0710   71.1630  223.5390 N   0  0  0  0  0  0  0  0  0  0  0  0
  139.4160   69.9650  223.0480 C   0  0  0  0  0  0  0  0  0  0  0  0
  138.4740   69.4440  224.1160 C   0  0  0  0  0  0  0  0  0  0  0  0
  139.3310   69.1480  225.3090 C   0  0  0  0  0  0  0  0  0  0  0  0
  139.2470   67.9700  226.0090 C   0  0  0  0  0  0  0  0  0  0  0  0
  140.0700   67.7670  227.1010 C   0  0  0  0  0  0  0  0  0  0  0  0
  140.9570   68.7480  227.4660 C   0  0  0  0  0  0  0  0  0  0  0  0
  141.0360   69.9260  226.7600 C   0  0  0  0  0  0  0  0  0  0  0  0
  140.2220   70.1410  225.6690 C   0  0  0  0  0  0  0  0  0  0  0  0
  140.3380   71.4280  224.9250 C   0  0  0  0  0  0  0  0  0  0  0  0
  140.0880   73.4270  222.6860 N   0  0  0  0  0  0  0  0  0  0  0  0
  141.0730   76.6640  222.4120 C   0  0  0  0  0  0  0  0  0  0  0  0
  139.0194   81.5484  223.4104 H   0  0  0  0  0  0  0  0  0  0  0  0
  141.4739   81.1783  223.1601 H   0  0  0  0  0  0  0  0  0  0  0  0
  142.3699   78.9375  222.7054 H   0  0  0  0  0  0  0  0  0  0  0  0
  137.4752   79.5663  223.1905 H   0  0  0  0  0  0  0  0  0  0  0  0
  138.0489   76.5458  223.6808 H   0  0  0  0  0  0  0  0  0  0  0  0
  137.1383   77.4218  222.4368 H   0  0  0  0  0  0  0  0  0  0  0  0
  138.0783   75.2279  221.6259 H   0  0  0  0  0  0  0  0  0  0  0  0
  138.7058   76.6653  220.7065 H   0  0  0  0  0  0  0  0  0  0  0  0
  142.5690   71.4460  219.1810 H   0  0  0  0  0  0  0  0  0  0  0  0
  142.9828   73.4741  217.8024 H   0  0  0  0  0  0  0  0  0  0  0  0
  142.5382   74.4726  219.2350 H   0  0  0  0  0  0  0  0  0  0  0  0
  144.8273   74.5112  218.6756 H   0  0  0  0  0  0  0  0  0  0  0  0
  144.4884   74.8723  221.0876 H   0  0  0  0  0  0  0  0  0  0  0  0
  144.0030   73.2408  221.4012 H   0  0  0  0  0  0  0  0  0  0  0  0
  146.8035   74.3027  220.5687 H   0  0  0  0  0  0  0  0  0  0  0  0
  146.4658   73.2608  221.9385 H   0  0  0  0  0  0  0  0  0  0  0  0
  146.2270   71.4690  220.6070 H   0  0  0  0  0  0  0  0  0  0  0  0
  145.8133   72.5400  218.0247 H   0  0  0  0  0  0  0  0  0  0  0  0
  144.6882   71.5419  218.9787 H   0  0  0  0  0  0  0  0  0  0  0  0
  138.8460   70.2031  222.1378 H   0  0  0  0  0  0  0  0  0  0  0  0
  140.1699   69.1995  222.8121 H   0  0  0  0  0  0  0  0  0  0  0  0
  137.7199   70.2050  224.3657 H   0  0  0  0  0  0  0  0  0  0  0  0
  137.9320   68.5494  223.7756 H   0  0  0  0  0  0  0  0  0  0  0  0
  138.5303   67.1936  225.7033 H   0  0  0  0  0  0  0  0  0  0  0  0
  140.0143   66.8282  227.6716 H   0  0  0  0  0  0  0  0  0  0  0  0
  141.6135   68.5905  228.3345 H   0  0  0  0  0  0  0  0  0  0  0  0
  141.7532   70.7010  227.0681 H   0  0  0  0  0  0  0  0  0  0  0  0
  139.6071   72.1519  225.3145 H   0  0  0  0  0  0  0  0  0  0  0  0
  141.3461   71.8511  225.0467 H   0  0  0  0  0  0  0  0  0  0  0  0
  141.5370   76.2763  223.3309 H   0  0  0  0  0  0  0  0  0  0  0  0
  141.8456   76.7796  221.6376 H   0  0  0  0  0  0  0  0  0  0  0  0
  1  2  2  0
  2  3  1  0
  3  4  2  0
  4  5  1  0
  5  6  2  0
  5  7  1  0
  7  8  1  0
  8  9  1  0
  9 10  1  0
 10 11  2  0
 11 12  1  0
 12 13  1  0
 13 14  1  0
 14 15  1  0
 15 16  1  0
 16 17  1  0
 17 18  1  0
 18 19  1  0
 12 20  2  0
 20 21  1  0
 21 22  1  0
 22 23  1  0
 23 24  1  0
 24 25  1  0
 25 26  2  0
 26 27  1  0
 27 28  2  0
 28 29  1  0
 29 30  2  0
 30 31  1  0
 21 32  2  0
  9 33  1  0
  6  1  1  0
 32 10  1  0
 33  4  1  0
 19 15  1  0
 31 22  1  0
 30 25  1  0
  1 34  1  0
  2 35  1  0
  3 36  1  0
  6 37  1  0
  7 38  1  0
  7 39  1  0
  8 40  1  0
  8 41  1  0
 13 42  1  0
 14 43  1  0
 14 44  1  0
 15 45  1  6
 16 46  1  0
 16 47  1  0
 17 48  1  0
 17 49  1  0
 18 50  1  0
 19 51  1  0
 19 52  1  0
 23 53  1  0
 23 54  1  0
 24 55  1  0
 24 56  1  0
 26 57  1  0
 27 58  1  0
 28 59  1  0
 29 60  1  0
 31 61  1  0
 31 62  1  0
 33 63  1  0
 33 64  1  0
M  END
>  <smiles>  (67) 
c1ccc2c(c1)CCN(c1nc(NCC3CCNC3)nc(N3CCc4ccccc4C3)n1)C2

>  <score_type>  (67) 
oracle

>  <origin>  (67) 
autodockgpu

>  <m_score__min__energy>  (67) 
-10.470000000000001

>  <m_primary>  (67) 
energy

>  <rmsd>  (67) 
5.005865966977875

>  <m_score__min__rmsd>  (67) 
5.005865966977875

>  <meeko>  (67) 
{"free_energy": -10.45, "intermolecular_energy": -11.95, "internal_energy": -1.01, "cluster_size": 50, "cluster_id": 1, "rank_in_cluster": 3}

>  <energy>  (67) 
-10.33

>  <cluster_rmsd>  (67) 
0.88

>  <cluster>  (67) 
1

$$$$

     RDKit          3D

 64 69  0  0  0  0  0  0  0  0999 V2000
  139.6860   68.0350  227.3960 C   0  0  0  0  0  0  0  0  0  0  0  0
  140.3830   69.1520  227.8350 C   0  0  0  0  0  0  0  0  0  0  0  0
  140.6880   70.1860  226.9750 C   0  0  0  0  0  0  0  0  0  0  0  0
  140.3150   70.1590  225.6340 C   0  0  0  0  0  0  0  0  0  0  0  0
  139.6270   69.0430  225.2210 C   0  0  0  0  0  0  0  0  0  0  0  0
  139.3020   67.9860  226.0520 C   0  0  0  0  0  0  0  0  0  0  0  0
  139.1930   68.9260  223.8010 C   0  0  0  0  0  0  0  0  0  0  0  0
  138.8370   70.3260  223.3490 C   0  0  0  0  0  0  0  0  0  0  0  0
  139.9050   71.2630  223.5780 N   0  0  0  0  0  0  0  0  0  0  0  0
  140.2560   72.2120  222.5630 C   0  0  0  0  0  0  0  0  0  0  0  0
  140.8290   71.8150  221.4150 N   0  0  0  0  0  0  0  0  0  0  0  0
  141.1450   72.7320  220.4550 C   0  0  0  0  0  0  0  0  0  0  0  0
  141.7560   72.1750  219.2790 N   0  0  0  0  0  0  0  0  0  0  0  0
  142.9980   72.8010  218.8650 C   0  0  0  0  0  0  0  0  0  0  0  0
  143.8460   73.1040  220.0560 C   0  0  1  0  0  0  0  0  0  0  0  0
  145.1020   72.2650  220.0980 C   0  0  0  0  0  0  0  0  0  0  0  0
  145.9200   73.0640  221.1150 C   0  0  0  0  0  0  0  0  0  0  0  0
  145.6760   74.4210  220.7450 N   0  0  0  0  0  0  0  0  0  0  0  0
  144.3860   74.4940  220.1260 C   0  0  0  0  0  0  0  0  0  0  0  0
  140.9050   74.0410  220.6040 N   0  0  0  0  0  0  0  0  0  0  0  0
  140.3270   74.4300  221.7630 C   0  0  0  0  0  0  0  0  0  0  0  0
  140.0340   75.8210  221.9440 N   0  0  0  0  0  0  0  0  0  0  0  0
  138.6850   76.1680  222.3510 C   0  0  0  0  0  0  0  0  0  0  0  0
  138.3460   77.5450  221.8140 C   0  0  0  0  0  0  0  0  0  0  0  0
  139.3540   78.4780  222.4120 C   0  0  0  0  0  0  0  0  0  0  0  0
  139.0060   79.6680  223.0000 C   0  0  0  0  0  0  0  0  0  0  0  0
  139.9920   80.4790  223.5310 C   0  0  0  0  0  0  0  0  0  0  0  0
  141.3020   80.0790  223.4590 C   0  0  0  0  0  0  0  0  0  0  0  0
  141.6440   78.8850  222.8680 C   0  0  0  0  0  0  0  0  0  0  0  0
  140.6720   78.0670  222.3360 C   0  0  0  0  0  0  0  0  0  0  0  0
  141.0790   76.7780  221.7060 C   0  0  0  0  0  0  0  0  0  0  0  0
  140.0160   73.5260  222.7110 N   0  0  0  0  0  0  0  0  0  0  0  0
  140.6800   71.3030  224.7970 C   0  0  0  0  0  0  0  0  0  0  0  0
  139.4428   67.2125  228.0847 H   0  0  0  0  0  0  0  0  0  0  0  0
  140.6976   69.2136  228.8873 H   0  0  0  0  0  0  0  0  0  0  0  0
  141.2411   71.0558  227.3591 H   0  0  0  0  0  0  0  0  0  0  0  0
  138.7492   67.1190  225.6612 H   0  0  0  0  0  0  0  0  0  0  0  0
  140.0103   68.5231  223.1849 H   0  0  0  0  0  0  0  0  0  0  0  0
  138.3366   68.2432  223.6996 H   0  0  0  0  0  0  0  0  0  0  0  0
  138.6113   70.3033  222.2726 H   0  0  0  0  0  0  0  0  0  0  0  0
  137.9675   70.6576  223.9355 H   0  0  0  0  0  0  0  0  0  0  0  0
  141.3190   71.3910  218.7820 H   0  0  0  0  0  0  0  0  0  0  0  0
  143.5427   72.1192  218.1953 H   0  0  0  0  0  0  0  0  0  0  0  0
  142.7686   73.7401  218.3401 H   0  0  0  0  0  0  0  0  0  0  0  0
  143.1381   72.9081  220.8748 H   0  0  0  0  0  0  0  0  0  0  0  0
  144.8988   71.2428  220.4500 H   0  0  0  0  0  0  0  0  0  0  0  0
  145.5918   72.1143  219.1247 H   0  0  0  0  0  0  0  0  0  0  0  0
  145.5733   72.8674  222.1403 H   0  0  0  0  0  0  0  0  0  0  0  0
  146.9884   72.8026  221.1063 H   0  0  0  0  0  0  0  0  0  0  0  0
  146.4540   74.7520  220.1330 H   0  0  0  0  0  0  0  0  0  0  0  0
  143.7164   75.1279  220.7258 H   0  0  0  0  0  0  0  0  0  0  0  0
  144.4618   74.9327  219.1201 H   0  0  0  0  0  0  0  0  0  0  0  0
  137.9765   75.4299  221.9469 H   0  0  0  0  0  0  0  0  0  0  0  0
  138.6171   76.1702  223.4489 H   0  0  0  0  0  0  0  0  0  0  0  0
  138.4181   77.5561  220.7164 H   0  0  0  0  0  0  0  0  0  0  0  0
  137.3186   77.8388  222.0751 H   0  0  0  0  0  0  0  0  0  0  0  0
  137.9507   79.9744  223.0486 H   0  0  0  0  0  0  0  0  0  0  0  0
  139.7285   81.4353  224.0064 H   0  0  0  0  0  0  0  0  0  0  0  0
  142.0896   80.7216  223.8795 H   0  0  0  0  0  0  0  0  0  0  0  0
  142.7002   78.5816  222.8199 H   0  0  0  0  0  0  0  0  0  0  0  0
  141.2180   76.9183  220.6239 H   0  0  0  0  0  0  0  0  0  0  0  0
  142.0278   76.4242  222.1356 H   0  0  0  0  0  0  0  0  0  0  0  0
  141.7517   71.2546  224.5539 H   0  0  0  0  0  0  0  0  0  0  0  0
  140.4732   72.2386  225.3373 H   0  0  0  0  0  0  0  0  0  0  0  0
  1  2  2  0
  2  3  1  0
  3  4  2  0
  4  5  1  0
  5  6  2  0
  5  7  1  0
  7  8  1  0
  8  9  1  0
  9 10  1  0
 10 11  2  0
 11 12  1  0
 12 13  1  0
 13 14  1  0
 14 15  1  0
 15 16  1  0
 16 17  1  0
 17 18  1  0
 18 19  1  0
 12 20  2  0
 20 21  1  0
 21 22  1  0
 22 23  1  0
 23 24  1  0
 24 25  1  0
 25 26  2  0
 26 27  1  0
 27 28  2  0
 28 29  1  0
 29 30  2  0
 30 31  1  0
 21 32  2  0
  9 33  1  0
  6  1  1  0
 32 10  1  0
 33  4  1  0
 19 15  1  0
 31 22  1  0
 30 25  1  0
  1 34  1  0
  2 35  1  0
  3 36  1  0
  6 37  1  0
  7 38  1  0
  7 39  1  0
  8 40  1  0
  8 41  1  0
 13 42  1  0
 14 43  1  0
 14 44  1  0
 15 45  1  1
 16 46  1  0
 16 47  1  0
 17 48  1  0
 17 49  1  0
 18 50  1  0
 19 51  1  0
 19 52  1  0
 23 53  1  0
 23 54  1  0
 24 55  1  0
 24 56  1  0
 26 57  1  0
 27 58  1  0
 28 59  1  0
 29 60  1  0
 31 61  1  0
 31 62  1  0
 33 63  1  0
 33 64  1  0
M  END
>  <smiles>  (68) 
c1ccc2c(c1)CCN(c1nc(NCC3CCNC3)nc(N3CCc4ccccc4C3)n1)C2

>  <score_type>  (68) 
oracle

>  <origin>  (68) 
autodockgpu

>  <m_score__min__energy>  (68) 
-10.470000000000001

>  <m_primary>  (68) 
energy

>  <rmsd>  (68) 
11.25724507114249

>  <m_score__min__rmsd>  (68) 
11.25724507114249

>  <meeko>  (68) 
{"free_energy": -10.25, "intermolecular_energy": -11.74, "internal_energy": -1.11, "cluster_size": 50, "cluster_id": 1, "rank_in_cluster": 22}

>  <energy>  (68) 
-10.31

>  <cluster_rmsd>  (68) 
0.71

>  <cluster>  (68) 
1

$$$$

     RDKit          3D

 64 69  0  0  0  0  0  0  0  0999 V2000
  139.6470   80.8560  223.4520 C   0  0  0  0  0  0  0  0  0  0  0  0
  140.9970   80.5620  223.3320 C   0  0  0  0  0  0  0  0  0  0  0  0
  141.4250   79.2900  223.0130 C   0  0  0  0  0  0  0  0  0  0  0  0
  140.5280   78.2470  222.7990 C   0  0  0  0  0  0  0  0  0  0  0  0
  139.1960   78.5610  222.9240 C   0  0  0  0  0  0  0  0  0  0  0  0
  138.7280   79.8220  223.2420 C   0  0  0  0  0  0  0  0  0  0  0  0
  138.1660   77.5050  222.7190 C   0  0  0  0  0  0  0  0  0  0  0  0
  138.6980   76.5990  221.6300 C   0  0  0  0  0  0  0  0  0  0  0  0
  140.0170   76.1050  221.9250 N   0  0  0  0  0  0  0  0  0  0  0  0
  140.3330   74.7250  221.7020 C   0  0  0  0  0  0  0  0  0  0  0  0
  141.0150   74.3400  220.6110 N   0  0  0  0  0  0  0  0  0  0  0  0
  141.3180   73.0230  220.4220 C   0  0  0  0  0  0  0  0  0  0  0  0
  142.0470   72.7470  219.2150 N   0  0  0  0  0  0  0  0  0  0  0  0
  143.2100   71.8930  219.3690 C   0  0  0  0  0  0  0  0  0  0  0  0
  144.1690   72.4950  220.3420 C   0  0  1  0  0  0  0  0  0  0  0  0
  145.6020   72.1100  220.0530 C   0  0  0  0  0  0  0  0  0  0  0  0
  146.3330   73.1650  220.8870 C   0  0  0  0  0  0  0  0  0  0  0  0
  145.5840   74.3570  220.6440 N   0  0  0  0  0  0  0  0  0  0  0  0
  144.2320   73.9870  220.3460 C   0  0  0  0  0  0  0  0  0  0  0  0
  140.9600   72.0700  221.2930 N   0  0  0  0  0  0  0  0  0  0  0  0
  140.2740   72.4690  222.3880 C   0  0  0  0  0  0  0  0  0  0  0  0
  139.8980   71.4770  223.3530 N   0  0  0  0  0  0  0  0  0  0  0  0
  138.9730   70.4480  222.9200 C   0  0  0  0  0  0  0  0  0  0  0  0
  138.1600   69.9800  224.1120 C   0  0  0  0  0  0  0  0  0  0  0  0
  139.1510   69.4440  225.0990 C   0  0  0  0  0  0  0  0  0  0  0  0
  138.9930   68.2330  225.7260 C   0  0  0  0  0  0  0  0  0  0  0  0
  139.9510   67.8030  226.6270 C   0  0  0  0  0  0  0  0  0  0  0  0
  141.0420   68.5950  226.8770 C   0  0  0  0  0  0  0  0  0  0  0  0
  141.1940   69.8080  226.2460 C   0  0  0  0  0  0  0  0  0  0  0  0
  140.2480   70.2490  225.3460 C   0  0  0  0  0  0  0  0  0  0  0  0
  140.4480   71.5660  224.6770 C   0  0  0  0  0  0  0  0  0  0  0  0
  139.9740   73.7680  222.5750 N   0  0  0  0  0  0  0  0  0  0  0  0
  141.0730   76.9310  222.4620 C   0  0  0  0  0  0  0  0  0  0  0  0
  139.3088   81.8718  223.7047 H   0  0  0  0  0  0  0  0  0  0  0  0
  141.7396   81.3572  223.4941 H   0  0  0  0  0  0  0  0  0  0  0  0
  142.5039   79.0945  222.9254 H   0  0  0  0  0  0  0  0  0  0  0  0
  137.6477   80.0102  223.3288 H   0  0  0  0  0  0  0  0  0  0  0  0
  138.0141   76.9356  223.6478 H   0  0  0  0  0  0  0  0  0  0  0  0
  137.1962   77.9414  222.4379 H   0  0  0  0  0  0  0  0  0  0  0  0
  138.0166   75.7427  221.5183 H   0  0  0  0  0  0  0  0  0  0  0  0
  138.7593   77.1880  220.7030 H   0  0  0  0  0  0  0  0  0  0  0  0
  141.7470   73.1450  218.3180 H   0  0  0  0  0  0  0  0  0  0  0  0
  142.8902   70.9071  219.7373 H   0  0  0  0  0  0  0  0  0  0  0  0
  143.7082   71.7873  218.3940 H   0  0  0  0  0  0  0  0  0  0  0  0
  143.7752   72.1086  221.2936 H   0  0  0  0  0  0  0  0  0  0  0  0
  145.8279   71.0896  220.3962 H   0  0  0  0  0  0  0  0  0  0  0  0
  145.8716   72.0934  218.9867 H   0  0  0  0  0  0  0  0  0  0  0  0
  146.3184   72.9019  221.9550 H   0  0  0  0  0  0  0  0  0  0  0  0
  147.3953   73.2635  220.6192 H   0  0  0  0  0  0  0  0  0  0  0  0
  146.0470   74.9010  219.8830 H   0  0  0  0  0  0  0  0  0  0  0  0
  143.5540   74.3901  221.1127 H   0  0  0  0  0  0  0  0  0  0  0  0
  143.9240   74.3918  219.3707 H   0  0  0  0  0  0  0  0  0  0  0  0
  138.2997   70.8569  222.1523 H   0  0  0  0  0  0  0  0  0  0  0  0
  139.5321   69.6007  222.4963 H   0  0  0  0  0  0  0  0  0  0  0  0
  137.6017   70.8213  224.5486 H   0  0  0  0  0  0  0  0  0  0  0  0
  137.4231   69.2159  223.8237 H   0  0  0  0  0  0  0  0  0  0  0  0
  138.1119   67.6096  225.5138 H   0  0  0  0  0  0  0  0  0  0  0  0
  139.8385   66.8353  227.1377 H   0  0  0  0  0  0  0  0  0  0  0  0
  141.8062   68.2559  227.5919 H   0  0  0  0  0  0  0  0  0  0  0  0
  142.0757   70.4295  226.4611 H   0  0  0  0  0  0  0  0  0  0  0  0
  139.9321   72.3552  225.2437 H   0  0  0  0  0  0  0  0  0  0  0  0
  141.5188   71.8137  224.6311 H   0  0  0  0  0  0  0  0  0  0  0  0
  141.4847   76.4602  223.3669 H   0  0  0  0  0  0  0  0  0  0  0  0
  141.8729   77.0416  221.7150 H   0  0  0  0  0  0  0  0  0  0  0  0
  1  2  2  0
  2  3  1  0
  3  4  2  0
  4  5  1  0
  5  6  2  0
  5  7  1  0
  7  8  1  0
  8  9  1  0
  9 10  1  0
 10 11  2  0
 11 12  1  0
 12 13  1  0
 13 14  1  0
 14 15  1  0
 15 16  1  0
 16 17  1  0
 17 18  1  0
 18 19  1  0
 12 20  2  0
 20 21  1  0
 21 22  1  0
 22 23  1  0
 23 24  1  0
 24 25  1  0
 25 26  2  0
 26 27  1  0
 27 28  2  0
 28 29  1  0
 29 30  2  0
 30 31  1  0
 21 32  2  0
  9 33  1  0
  6  1  1  0
 32 10  1  0
 33  4  1  0
 19 15  1  0
 31 22  1  0
 30 25  1  0
  1 34  1  0
  2 35  1  0
  3 36  1  0
  6 37  1  0
  7 38  1  0
  7 39  1  0
  8 40  1  0
  8 41  1  0
 13 42  1  0
 14 43  1  0
 14 44  1  0
 15 45  1  1
 16 46  1  0
 16 47  1  0
 17 48  1  0
 17 49  1  0
 18 50  1  0
 19 51  1  0
 19 52  1  0
 23 53  1  0
 23 54  1  0
 24 55  1  0
 24 56  1  0
 26 57  1  0
 27 58  1  0
 28 59  1  0
 29 60  1  0
 31 61  1  0
 31 62  1  0
 33 63  1  0
 33 64  1  0
M  END
>  <smiles>  (69) 
c1ccc2c(c1)CCN(c1nc(NCC3CCNC3)nc(N3CCc4ccccc4C3)n1)C2

>  <score_type>  (69) 
oracle

>  <origin>  (69) 
autodockgpu

>  <m_score__min__energy>  (69) 
-10.470000000000001

>  <m_primary>  (69) 
energy

>  <rmsd>  (69) 
5.148165000289797

>  <m_score__min__rmsd>  (69) 
5.148165000289797

>  <meeko>  (69) 
{"free_energy": -10.02, "intermolecular_energy": -11.51, "internal_energy": -0.95, "cluster_size": 50, "cluster_id": 1, "rank_in_cluster": 41}

>  <energy>  (69) 
-10.3

>  <cluster_rmsd>  (69) 
0.7

>  <cluster>  (69) 
1

$$$$

     RDKit          3D

 64 69  0  0  0  0  0  0  0  0999 V2000
  139.7860   80.5910  223.2970 C   0  0  0  0  0  0  0  0  0  0  0  0
  141.1230   80.2550  223.1470 C   0  0  0  0  0  0  0  0  0  0  0  0
  141.5040   78.9630  222.8490 C   0  0  0  0  0  0  0  0  0  0  0  0
  140.5710   77.9420  222.6870 C   0  0  0  0  0  0  0  0  0  0  0  0
  139.2530   78.2980  222.8410 C   0  0  0  0  0  0  0  0  0  0  0  0
  138.8310   79.5810  223.1390 C   0  0  0  0  0  0  0  0  0  0  0  0
  138.1870   77.2690  222.6910 C   0  0  0  0  0  0  0  0  0  0  0  0
  138.6620   76.3210  221.6110 C   0  0  0  0  0  0  0  0  0  0  0  0
  139.9730   75.7950  221.8820 N   0  0  0  0  0  0  0  0  0  0  0  0
  140.2430   74.4010  221.6860 C   0  0  0  0  0  0  0  0  0  0  0  0
  140.8190   73.9620  220.5550 N   0  0  0  0  0  0  0  0  0  0  0  0
  141.0790   72.6330  220.3910 C   0  0  0  0  0  0  0  0  0  0  0  0
  141.6940   72.2970  219.1360 N   0  0  0  0  0  0  0  0  0  0  0  0
  142.8920   71.4830  219.2250 C   0  0  0  0  0  0  0  0  0  0  0  0
  144.1030   72.3540  219.2990 C   0  0  1  0  0  0  0  0  0  0  0  0
  144.1860   73.1150  220.6030 C   0  0  0  0  0  0  0  0  0  0  0  0
  145.6560   73.5420  220.5670 C   0  0  0  0  0  0  0  0  0  0  0  0
  146.3270   72.3780  220.0820 N   0  0  0  0  0  0  0  0  0  0  0  0
  145.4140   71.6400  219.2600 C   0  0  0  0  0  0  0  0  0  0  0  0
  140.7820   71.7210  221.3260 N   0  0  0  0  0  0  0  0  0  0  0  0
  140.2030   72.1740  222.4610 C   0  0  0  0  0  0  0  0  0  0  0  0
  139.8950   71.2270  223.4920 N   0  0  0  0  0  0  0  0  0  0  0  0
  139.2510   69.9910  223.0870 C   0  0  0  0  0  0  0  0  0  0  0  0
  138.3880   69.4880  224.2290 C   0  0  0  0  0  0  0  0  0  0  0  0
  139.3190   69.2670  225.3810 C   0  0  0  0  0  0  0  0  0  0  0  0
  139.3110   68.1180  226.1310 C   0  0  0  0  0  0  0  0  0  0  0  0
  140.2010   67.9850  227.1820 C   0  0  0  0  0  0  0  0  0  0  0  0
  141.0760   69.0050  227.4550 C   0  0  0  0  0  0  0  0  0  0  0  0
  141.0780   70.1550  226.6990 C   0  0  0  0  0  0  0  0  0  0  0  0
  140.1980   70.3010  225.6490 C   0  0  0  0  0  0  0  0  0  0  0  0
  140.2320   71.5580  224.8490 C   0  0  0  0  0  0  0  0  0  0  0  0
  139.9450   73.4850  222.6230 N   0  0  0  0  0  0  0  0  0  0  0  0
  141.0690   76.6030  222.3690 C   0  0  0  0  0  0  0  0  0  0  0  0
  139.4849   81.6222  223.5335 H   0  0  0  0  0  0  0  0  0  0  0  0
  141.8926   81.0316  223.2676 H   0  0  0  0  0  0  0  0  0  0  0  0
  142.5738   78.7331  222.7363 H   0  0  0  0  0  0  0  0  0  0  0  0
  137.7596   79.8041  223.2502 H   0  0  0  0  0  0  0  0  0  0  0  0
  138.0443   76.7273  223.6377 H   0  0  0  0  0  0  0  0  0  0  0  0
  137.2229   77.7273  222.4255 H   0  0  0  0  0  0  0  0  0  0  0  0
  137.9529   75.4831  221.5393 H   0  0  0  0  0  0  0  0  0  0  0  0
  138.7150   76.8854  220.6683 H   0  0  0  0  0  0  0  0  0  0  0  0
  141.2940   72.6280  218.2500 H   0  0  0  0  0  0  0  0  0  0  0  0
  142.8394   70.8565  220.1276 H   0  0  0  0  0  0  0  0  0  0  0  0
  142.9613   70.8472  218.3300 H   0  0  0  0  0  0  0  0  0  0  0  0
  143.9650   72.9854  218.4089 H   0  0  0  0  0  0  0  0  0  0  0  0
  143.5090   73.9819  220.6138 H   0  0  0  0  0  0  0  0  0  0  0  0
  143.8913   72.5415  221.4942 H   0  0  0  0  0  0  0  0  0  0  0  0
  145.8021   74.3931  219.8857 H   0  0  0  0  0  0  0  0  0  0  0  0
  146.0301   73.8768  221.5458 H   0  0  0  0  0  0  0  0  0  0  0  0
  146.6940   71.8330  220.8930 H   0  0  0  0  0  0  0  0  0  0  0  0
  145.7885   71.5971  218.2266 H   0  0  0  0  0  0  0  0  0  0  0  0
  145.3064   70.6087  219.6272 H   0  0  0  0  0  0  0  0  0  0  0  0
  138.6228   70.1747  222.2029 H   0  0  0  0  0  0  0  0  0  0  0  0
  140.0135   69.2385  222.8373 H   0  0  0  0  0  0  0  0  0  0  0  0
  137.6260   70.2367  224.4912 H   0  0  0  0  0  0  0  0  0  0  0  0
  137.8563   68.5644  223.9567 H   0  0  0  0  0  0  0  0  0  0  0  0
  138.6027   67.3091  225.8985 H   0  0  0  0  0  0  0  0  0  0  0  0
  140.2066   67.0701  227.7926 H   0  0  0  0  0  0  0  0  0  0  0  0
  141.7856   68.9027  228.2892 H   0  0  0  0  0  0  0  0  0  0  0  0
  141.7866   70.9627  226.9346 H   0  0  0  0  0  0  0  0  0  0  0  0
  139.5024   72.2765  225.2507 H   0  0  0  0  0  0  0  0  0  0  0  0
  141.2317   72.0147  224.8951 H   0  0  0  0  0  0  0  0  0  0  0  0
  141.4925   76.1428  223.2739 H   0  0  0  0  0  0  0  0  0  0  0  0
  141.8508   76.6712  221.5982 H   0  0  0  0  0  0  0  0  0  0  0  0
  1  2  2  0
  2  3  1  0
  3  4  2  0
  4  5  1  0
  5  6  2  0
  5  7  1  0
  7  8  1  0
  8  9  1  0
  9 10  1  0
 10 11  2  0
 11 12  1  0
 12 13  1  0
 13 14  1  0
 14 15  1  0
 15 16  1  0
 16 17  1  0
 17 18  1  0
 18 19  1  0
 12 20  2  0
 20 21  1  0
 21 22  1  0
 22 23  1  0
 23 24  1  0
 24 25  1  0
 25 26  2  0
 26 27  1  0
 27 28  2  0
 28 29  1  0
 29 30  2  0
 30 31  1  0
 21 32  2  0
  9 33  1  0
  6  1  1  0
 32 10  1  0
 33  4  1  0
 19 15  1  0
 31 22  1  0
 30 25  1  0
  1 34  1  0
  2 35  1  0
  3 36  1  0
  6 37  1  0
  7 38  1  0
  7 39  1  0
  8 40  1  0
  8 41  1  0
 13 42  1  0
 14 43  1  0
 14 44  1  0
 15 45  1  6
 16 46  1  0
 16 47  1  0
 17 48  1  0
 17 49  1  0
 18 50  1  0
 19 51  1  0
 19 52  1  0
 23 53  1  0
 23 54  1  0
 24 55  1  0
 24 56  1  0
 26 57  1  0
 27 58  1  0
 28 59  1  0
 29 60  1  0
 31 61  1  0
 31 62  1  0
 33 63  1  0
 33 64  1  0
M  END
>  <smiles>  (70) 
c1ccc2c(c1)CCN(c1nc(NCC3CCNC3)nc(N3CCc4ccccc4C3)n1)C2

>  <score_type>  (70) 
oracle

>  <origin>  (70) 
autodockgpu

>  <m_score__min__energy>  (70) 
-10.470000000000001

>  <m_primary>  (70) 
energy

>  <rmsd>  (70) 
5.07736943388238

>  <m_score__min__rmsd>  (70) 
5.07736943388238

>  <meeko>  (70) 
{"free_energy": -10.33, "intermolecular_energy": -11.82, "internal_energy": -0.96, "cluster_size": 50, "cluster_id": 1, "rank_in_cluster": 15}

>  <energy>  (70) 
-10.3

>  <cluster_rmsd>  (70) 
0.68

>  <cluster>  (70) 
1

$$$$

     RDKit          3D

 64 69  0  0  0  0  0  0  0  0999 V2000
  139.6870   68.1650  227.3690 C   0  0  0  0  0  0  0  0  0  0  0  0
  140.3790   69.2880  227.8020 C   0  0  0  0  0  0  0  0  0  0  0  0
  140.6630   70.3260  226.9400 C   0  0  0  0  0  0  0  0  0  0  0  0
  140.2730   70.2980  225.6040 C   0  0  0  0  0  0  0  0  0  0  0  0
  139.5900   69.1770  225.1970 C   0  0  0  0  0  0  0  0  0  0  0  0
  139.2870   68.1160  226.0300 C   0  0  0  0  0  0  0  0  0  0  0  0
  139.1400   69.0580  223.7830 C   0  0  0  0  0  0  0  0  0  0  0  0
  138.7650   70.4560  223.3390 C   0  0  0  0  0  0  0  0  0  0  0  0
  139.8260   71.4020  223.5560 N   0  0  0  0  0  0  0  0  0  0  0  0
  140.1560   72.3560  222.5380 C   0  0  0  0  0  0  0  0  0  0  0  0
  140.6700   71.9620  221.3620 N   0  0  0  0  0  0  0  0  0  0  0  0
  140.9650   72.8840  220.4000 C   0  0  0  0  0  0  0  0  0  0  0  0
  141.5120   72.3290  219.1920 N   0  0  0  0  0  0  0  0  0  0  0  0
  142.8170   72.8340  218.8080 C   0  0  0  0  0  0  0  0  0  0  0  0
  143.6160   73.1760  220.0220 C   0  0  1  0  0  0  0  0  0  0  0  0
  144.7980   72.2520  220.2140 C   0  0  0  0  0  0  0  0  0  0  0  0
  145.6160   73.0740  221.2130 C   0  0  0  0  0  0  0  0  0  0  0  0
  145.5020   74.4080  220.7180 N   0  0  0  0  0  0  0  0  0  0  0  0
  144.2590   74.5230  220.0130 C   0  0  0  0  0  0  0  0  0  0  0  0
  140.7620   74.1960  220.5750 N   0  0  0  0  0  0  0  0  0  0  0  0
  140.2430   74.5830  221.7630 C   0  0  0  0  0  0  0  0  0  0  0  0
  139.9900   75.9780  221.9730 N   0  0  0  0  0  0  0  0  0  0  0  0
  138.6730   76.3480  222.4540 C   0  0  0  0  0  0  0  0  0  0  0  0
  138.3350   77.7380  221.9500 C   0  0  0  0  0  0  0  0  0  0  0  0
  139.3940   78.6430  222.5030 C   0  0  0  0  0  0  0  0  0  0  0  0
  139.1020   79.8330  223.1220 C   0  0  0  0  0  0  0  0  0  0  0  0
  140.1330   80.6170  223.6080 C   0  0  0  0  0  0  0  0  0  0  0  0
  141.4280   80.1900  223.4640 C   0  0  0  0  0  0  0  0  0  0  0  0
  141.7130   78.9960  222.8430 C   0  0  0  0  0  0  0  0  0  0  0  0
  140.6960   78.2040  222.3540 C   0  0  0  0  0  0  0  0  0  0  0  0
  141.0420   76.9150  221.6910 C   0  0  0  0  0  0  0  0  0  0  0  0
  139.9520   73.6730  222.7120 N   0  0  0  0  0  0  0  0  0  0  0  0
  140.6170   71.4470  224.7640 C   0  0  0  0  0  0  0  0  0  0  0  0
  139.4602   67.3386  228.0586 H   0  0  0  0  0  0  0  0  0  0  0  0
  140.7062   69.3507  228.8503 H   0  0  0  0  0  0  0  0  0  0  0  0
  141.2129   71.2003  227.3184 H   0  0  0  0  0  0  0  0  0  0  0  0
  138.7382   67.2442  225.6443 H   0  0  0  0  0  0  0  0  0  0  0  0
  139.9535   68.6643  223.1560 H   0  0  0  0  0  0  0  0  0  0  0  0
  138.2894   68.3667  223.6903 H   0  0  0  0  0  0  0  0  0  0  0  0
  138.5254   70.4336  222.2656 H   0  0  0  0  0  0  0  0  0  0  0  0
  137.9002   70.7780  223.9378 H   0  0  0  0  0  0  0  0  0  0  0  0
  140.9900   71.6290  218.6530 H   0  0  0  0  0  0  0  0  0  0  0  0
  143.3481   72.0645  218.2285 H   0  0  0  0  0  0  0  0  0  0  0  0
  142.6857   73.7400  218.1981 H   0  0  0  0  0  0  0  0  0  0  0  0
  142.8484   73.1052  220.8067 H   0  0  0  0  0  0  0  0  0  0  0  0
  144.4943   71.2821  220.6348 H   0  0  0  0  0  0  0  0  0  0  0  0
  145.3301   71.9812  219.2902 H   0  0  0  0  0  0  0  0  0  0  0  0
  145.1957   72.9932  222.2263 H   0  0  0  0  0  0  0  0  0  0  0  0
  146.6592   72.7347  221.2949 H   0  0  0  0  0  0  0  0  0  0  0  0
  146.3380   74.6260  220.1320 H   0  0  0  0  0  0  0  0  0  0  0  0
  143.6080   75.2540  220.5149 H   0  0  0  0  0  0  0  0  0  0  0  0
  144.4271   74.8669  218.9817 H   0  0  0  0  0  0  0  0  0  0  0  0
  137.9287   75.6293  222.0804 H   0  0  0  0  0  0  0  0  0  0  0  0
  138.6634   76.3393  223.5539 H   0  0  0  0  0  0  0  0  0  0  0  0
  138.3485   77.7602  220.8503 H   0  0  0  0  0  0  0  0  0  0  0  0
  137.3295   78.0502  222.2687 H   0  0  0  0  0  0  0  0  0  0  0  0
  138.0574   80.1603  223.2306 H   0  0  0  0  0  0  0  0  0  0  0  0
  139.9159   81.5739  224.1053 H   0  0  0  0  0  0  0  0  0  0  0  0
  142.2501   80.8105  223.8502 H   0  0  0  0  0  0  0  0  0  0  0  0
  142.7585   78.6713  222.7360 H   0  0  0  0  0  0  0  0  0  0  0  0
  141.1282   77.0646  220.6046 H   0  0  0  0  0  0  0  0  0  0  0  0
  142.0039   76.5364  222.0670 H   0  0  0  0  0  0  0  0  0  0  0  0
  141.6857   71.4083  224.5064 H   0  0  0  0  0  0  0  0  0  0  0  0
  140.4097   72.3800  225.3086 H   0  0  0  0  0  0  0  0  0  0  0  0
  1  2  2  0
  2  3  1  0
  3  4  2  0
  4  5  1  0
  5  6  2  0
  5  7  1  0
  7  8  1  0
  8  9  1  0
  9 10  1  0
 10 11  2  0
 11 12  1  0
 12 13  1  0
 13 14  1  0
 14 15  1  0
 15 16  1  0
 16 17  1  0
 17 18  1  0
 18 19  1  0
 12 20  2  0
 20 21  1  0
 21 22  1  0
 22 23  1  0
 23 24  1  0
 24 25  1  0
 25 26  2  0
 26 27  1  0
 27 28  2  0
 28 29  1  0
 29 30  2  0
 30 31  1  0
 21 32  2  0
  9 33  1  0
  6  1  1  0
 32 10  1  0
 33  4  1  0
 19 15  1  0
 31 22  1  0
 30 25  1  0
  1 34  1  0
  2 35  1  0
  3 36  1  0
  6 37  1  0
  7 38  1  0
  7 39  1  0
  8 40  1  0
  8 41  1  0
 13 42  1  0
 14 43  1  0
 14 44  1  0
 15 45  1  1
 16 46  1  0
 16 47  1  0
 17 48  1  0
 17 49  1  0
 18 50  1  0
 19 51  1  0
 19 52  1  0
 23 53  1  0
 23 54  1  0
 24 55  1  0
 24 56  1  0
 26 57  1  0
 27 58  1  0
 28 59  1  0
 29 60  1  0
 31 61  1  0
 31 62  1  0
 33 63  1  0
 33 64  1  0
M  END
>  <smiles>  (71) 
c1ccc2c(c1)CCN(c1nc(NCC3CCNC3)nc(N3CCc4ccccc4C3)n1)C2

>  <score_type>  (71) 
oracle

>  <origin>  (71) 
autodockgpu

>  <m_score__min__energy>  (71) 
-10.470000000000001

>  <m_primary>  (71) 
energy

>  <rmsd>  (71) 
11.137662454259303

>  <m_score__min__rmsd>  (71) 
11.137662454259303

>  <meeko>  (71) 
{"free_energy": -10.21, "intermolecular_energy": -11.7, "internal_energy": -1.14, "cluster_size": 50, "cluster_id": 1, "rank_in_cluster": 26}

>  <energy>  (71) 
-10.25

>  <cluster_rmsd>  (71) 
0.92

>  <cluster>  (71) 
1

$$$$

     RDKit          3D

 64 69  0  0  0  0  0  0  0  0999 V2000
  139.4160   80.5070  223.1530 C   0  0  0  0  0  0  0  0  0  0  0  0
  140.7780   80.2950  222.9970 C   0  0  0  0  0  0  0  0  0  0  0  0
  141.2800   79.0330  222.7530 C   0  0  0  0  0  0  0  0  0  0  0  0
  140.4500   77.9210  222.6520 C   0  0  0  0  0  0  0  0  0  0  0  0
  139.1040   78.1540  222.8100 C   0  0  0  0  0  0  0  0  0  0  0  0
  138.5630   79.4020  223.0560 C   0  0  0  0  0  0  0  0  0  0  0  0
  138.1430   77.0210  222.7240 C   0  0  0  0  0  0  0  0  0  0  0  0
  138.6960   76.0730  221.6810 C   0  0  0  0  0  0  0  0  0  0  0  0
  140.0550   75.6910  221.9550 N   0  0  0  0  0  0  0  0  0  0  0  0
  140.4570   74.3220  221.8180 C   0  0  0  0  0  0  0  0  0  0  0  0
  141.2320   73.9280  220.7950 N   0  0  0  0  0  0  0  0  0  0  0  0
  141.6150   72.6230  220.6880 C   0  0  0  0  0  0  0  0  0  0  0  0
  142.4390   72.3360  219.5460 N   0  0  0  0  0  0  0  0  0  0  0  0
  143.0030   73.4940  218.8760 C   0  0  0  0  0  0  0  0  0  0  0  0
  144.4600   73.6090  219.1830 C   0  0  1  0  0  0  0  0  0  0  0  0
  144.7160   74.0270  220.6130 C   0  0  0  0  0  0  0  0  0  0  0  0
  146.1940   73.6500  220.7390 C   0  0  0  0  0  0  0  0  0  0  0  0
  146.2730   72.3910  220.0700 N   0  0  0  0  0  0  0  0  0  0  0  0
  145.2450   72.3450  219.0730 C   0  0  0  0  0  0  0  0  0  0  0  0
  141.2480   71.6910  221.5760 N   0  0  0  0  0  0  0  0  0  0  0  0
  140.4680   72.0970  222.6040 C   0  0  0  0  0  0  0  0  0  0  0  0
  140.0780   71.1290  223.5860 N   0  0  0  0  0  0  0  0  0  0  0  0
  139.4300   69.9230  223.1080 C   0  0  0  0  0  0  0  0  0  0  0  0
  138.4900   69.4090  224.1820 C   0  0  0  0  0  0  0  0  0  0  0  0
  139.3470   69.1310  225.3790 C   0  0  0  0  0  0  0  0  0  0  0  0
  139.2680   67.9610  226.0920 C   0  0  0  0  0  0  0  0  0  0  0  0
  140.0920   67.7750  227.1880 C   0  0  0  0  0  0  0  0  0  0  0  0
  140.9730   68.7640  227.5410 C   0  0  0  0  0  0  0  0  0  0  0  0
  141.0470   69.9350  226.8220 C   0  0  0  0  0  0  0  0  0  0  0  0
  140.2330   70.1330  225.7280 C   0  0  0  0  0  0  0  0  0  0  0  0
  140.3430   71.4120  224.9700 C   0  0  0  0  0  0  0  0  0  0  0  0
  140.0890   73.3850  222.7100 N   0  0  0  0  0  0  0  0  0  0  0  0
  141.0720   76.6220  222.3880 C   0  0  0  0  0  0  0  0  0  0  0  0
  139.0183   81.5140  223.3472 H   0  0  0  0  0  0  0  0  0  0  0  0
  141.4696   81.1474  223.0690 H   0  0  0  0  0  0  0  0  0  0  0  0
  142.3659   78.9027  222.6352 H   0  0  0  0  0  0  0  0  0  0  0  0
  137.4763   79.5249  223.1740 H   0  0  0  0  0  0  0  0  0  0  0  0
  138.0646   76.5134  223.6967 H   0  0  0  0  0  0  0  0  0  0  0  0
  137.1360   77.3706  222.4527 H   0  0  0  0  0  0  0  0  0  0  0  0
  138.0717   75.1676  221.6598 H   0  0  0  0  0  0  0  0  0  0  0  0
  138.6822   76.5940  220.7123 H   0  0  0  0  0  0  0  0  0  0  0  0
  142.5980   71.3690  219.2430 H   0  0  0  0  0  0  0  0  0  0  0  0
  142.8680   73.3867  217.7896 H   0  0  0  0  0  0  0  0  0  0  0  0
  142.4890   74.3995  219.2308 H   0  0  0  0  0  0  0  0  0  0  0  0
  144.7774   74.3429  218.4276 H   0  0  0  0  0  0  0  0  0  0  0  0
  144.5559   75.1056  220.7580 H   0  0  0  0  0  0  0  0  0  0  0  0
  144.0538   73.5613  221.3577 H   0  0  0  0  0  0  0  0  0  0  0  0
  146.8341   74.3976  220.2477 H   0  0  0  0  0  0  0  0  0  0  0  0
  146.5377   73.6037  221.7829 H   0  0  0  0  0  0  0  0  0  0  0  0
  146.2060   71.6250  220.7770 H   0  0  0  0  0  0  0  0  0  0  0  0
  145.6950   72.2678  218.0722 H   0  0  0  0  0  0  0  0  0  0  0  0
  144.5957   71.4701  219.2246 H   0  0  0  0  0  0  0  0  0  0  0  0
  138.8591   70.1480  222.1951 H   0  0  0  0  0  0  0  0  0  0  0  0
  140.1879   69.1589  222.8805 H   0  0  0  0  0  0  0  0  0  0  0  0
  137.7318   70.1688  224.4224 H   0  0  0  0  0  0  0  0  0  0  0  0
  137.9534   68.5075  223.8513 H   0  0  0  0  0  0  0  0  0  0  0  0
  138.5555   67.1775  225.7946 H   0  0  0  0  0  0  0  0  0  0  0  0
  140.0405   66.8430  227.7700 H   0  0  0  0  0  0  0  0  0  0  0  0
  141.6301   68.6196  228.4113 H   0  0  0  0  0  0  0  0  0  0  0  0
  141.7598   70.7172  227.1222 H   0  0  0  0  0  0  0  0  0  0  0  0
  139.6081   72.1366  225.3508 H   0  0  0  0  0  0  0  0  0  0  0  0
  141.3486   71.8421  225.0876 H   0  0  0  0  0  0  0  0  0  0  0  0
  141.5474   76.2475  223.3066 H   0  0  0  0  0  0  0  0  0  0  0  0
  141.8354   76.7289  221.6033 H   0  0  0  0  0  0  0  0  0  0  0  0
  1  2  2  0
  2  3  1  0
  3  4  2  0
  4  5  1  0
  5  6  2  0
  5  7  1  0
  7  8  1  0
  8  9  1  0
  9 10  1  0
 10 11  2  0
 11 12  1  0
 12 13  1  0
 13 14  1  0
 14 15  1  0
 15 16  1  0
 16 17  1  0
 17 18  1  0
 18 19  1  0
 12 20  2  0
 20 21  1  0
 21 22  1  0
 22 23  1  0
 23 24  1  0
 24 25  1  0
 25 26  2  0
 26 27  1  0
 27 28  2  0
 28 29  1  0
 29 30  2  0
 30 31  1  0
 21 32  2  0
  9 33  1  0
  6  1  1  0
 32 10  1  0
 33  4  1  0
 19 15  1  0
 31 22  1  0
 30 25  1  0
  1 34  1  0
  2 35  1  0
  3 36  1  0
  6 37  1  0
  7 38  1  0
  7 39  1  0
  8 40  1  0
  8 41  1  0
 13 42  1  0
 14 43  1  0
 14 44  1  0
 15 45  1  6
 16 46  1  0
 16 47  1  0
 17 48  1  0
 17 49  1  0
 18 50  1  0
 19 51  1  0
 19 52  1  0
 23 53  1  0
 23 54  1  0
 24 55  1  0
 24 56  1  0
 26 57  1  0
 27 58  1  0
 28 59  1  0
 29 60  1  0
 31 61  1  0
 31 62  1  0
 33 63  1  0
 33 64  1  0
M  END
>  <smiles>  (72) 
c1ccc2c(c1)CCN(c1nc(NCC3CCNC3)nc(N3CCc4ccccc4C3)n1)C2

>  <score_type>  (72) 
oracle

>  <origin>  (72) 
autodockgpu

>  <m_score__min__energy>  (72) 
-10.470000000000001

>  <m_primary>  (72) 
energy

>  <rmsd>  (72) 
4.982778503242278

>  <m_score__min__rmsd>  (72) 
4.982778503242278

>  <meeko>  (72) 
{"free_energy": -10.45, "intermolecular_energy": -11.94, "internal_energy": -1.02, "cluster_size": 50, "cluster_id": 1, "rank_in_cluster": 4}

>  <energy>  (72) 
-10.25

>  <cluster_rmsd>  (72) 
0.93

>  <cluster>  (72) 
1

$$$$

     RDKit          3D

 64 69  0  0  0  0  0  0  0  0999 V2000
  139.7320   68.1540  227.3370 C   0  0  0  0  0  0  0  0  0  0  0  0
  140.4250   69.2730  227.7760 C   0  0  0  0  0  0  0  0  0  0  0  0
  140.7050   70.3190  226.9210 C   0  0  0  0  0  0  0  0  0  0  0  0
  140.3090   70.3020  225.5870 C   0  0  0  0  0  0  0  0  0  0  0  0
  139.6240   69.1830  225.1740 C   0  0  0  0  0  0  0  0  0  0  0  0
  139.3250   68.1150  225.9990 C   0  0  0  0  0  0  0  0  0  0  0  0
  139.1680   69.0760  223.7610 C   0  0  0  0  0  0  0  0  0  0  0  0
  138.7890   70.4770  223.3300 C   0  0  0  0  0  0  0  0  0  0  0  0
  139.8510   71.4220  223.5500 N   0  0  0  0  0  0  0  0  0  0  0  0
  140.1750   72.3850  222.5390 C   0  0  0  0  0  0  0  0  0  0  0  0
  140.6970   72.0020  221.3630 N   0  0  0  0  0  0  0  0  0  0  0  0
  140.9880   72.9320  220.4070 C   0  0  0  0  0  0  0  0  0  0  0  0
  141.5440   72.3900  219.1980 N   0  0  0  0  0  0  0  0  0  0  0  0
  142.6960   71.5250  219.3740 C   0  0  0  0  0  0  0  0  0  0  0  0
  143.9540   72.3290  219.3500 C   0  0  1  0  0  0  0  0  0  0  0  0
  144.2460   72.9810  220.6830 C   0  0  0  0  0  0  0  0  0  0  0  0
  145.7210   73.3390  220.4840 C   0  0  0  0  0  0  0  0  0  0  0  0
  146.2570   72.1870  219.8340 N   0  0  0  0  0  0  0  0  0  0  0  0
  145.2060   71.5600  219.0880 C   0  0  0  0  0  0  0  0  0  0  0  0
  140.7710   74.2420  220.5880 N   0  0  0  0  0  0  0  0  0  0  0  0
  140.2440   74.6160  221.7760 C   0  0  0  0  0  0  0  0  0  0  0  0
  139.9770   76.0080  221.9930 N   0  0  0  0  0  0  0  0  0  0  0  0
  138.6530   76.3630  222.4700 C   0  0  0  0  0  0  0  0  0  0  0  0
  138.3050   77.7530  221.9720 C   0  0  0  0  0  0  0  0  0  0  0  0
  139.3520   78.6640  222.5350 C   0  0  0  0  0  0  0  0  0  0  0  0
  139.0470   79.8480  223.1590 C   0  0  0  0  0  0  0  0  0  0  0  0
  140.0670   80.6390  223.6550 C   0  0  0  0  0  0  0  0  0  0  0  0
  141.3670   80.2250  223.5140 C   0  0  0  0  0  0  0  0  0  0  0  0
  141.6670   79.0380  222.8880 C   0  0  0  0  0  0  0  0  0  0  0  0
  140.6600   78.2390  222.3900 C   0  0  0  0  0  0  0  0  0  0  0  0
  141.0210   76.9570  221.7210 C   0  0  0  0  0  0  0  0  0  0  0  0
  139.9580   73.6990  222.7200 N   0  0  0  0  0  0  0  0  0  0  0  0
  140.6470   71.4580  224.7550 C   0  0  0  0  0  0  0  0  0  0  0  0
  139.5091   67.3218  228.0210 H   0  0  0  0  0  0  0  0  0  0  0  0
  140.7568   69.3271  228.8234 H   0  0  0  0  0  0  0  0  0  0  0  0
  141.2564   71.1903  227.3043 H   0  0  0  0  0  0  0  0  0  0  0  0
  138.7745   67.2462  225.6088 H   0  0  0  0  0  0  0  0  0  0  0  0
  139.9794   68.6888  223.1271 H   0  0  0  0  0  0  0  0  0  0  0  0
  138.3177   68.3846  223.6664 H   0  0  0  0  0  0  0  0  0  0  0  0
  138.5443   70.4632  222.2576 H   0  0  0  0  0  0  0  0  0  0  0  0
  137.9264   70.7934  223.9349 H   0  0  0  0  0  0  0  0  0  0  0  0
  141.1370   72.6190  218.2840 H   0  0  0  0  0  0  0  0  0  0  0  0
  142.6156   71.0051  220.3400 H   0  0  0  0  0  0  0  0  0  0  0  0
  142.7230   70.7924  218.5539 H   0  0  0  0  0  0  0  0  0  0  0  0
  143.7396   73.0336  218.5330 H   0  0  0  0  0  0  0  0  0  0  0  0
  143.6267   73.8756  220.8446 H   0  0  0  0  0  0  0  0  0  0  0  0
  144.0350   72.3545  221.5622 H   0  0  0  0  0  0  0  0  0  0  0  0
  145.8271   74.2327  219.8515 H   0  0  0  0  0  0  0  0  0  0  0  0
  146.2354   73.5782  221.4264 H   0  0  0  0  0  0  0  0  0  0  0  0
  146.6930   71.5640  220.5490 H   0  0  0  0  0  0  0  0  0  0  0  0
  145.4427   71.5812  218.0140 H   0  0  0  0  0  0  0  0  0  0  0  0
  145.0875   70.5092  219.3911 H   0  0  0  0  0  0  0  0  0  0  0  0
  137.9173   75.6396  222.0885 H   0  0  0  0  0  0  0  0  0  0  0  0
  138.6376   76.3475  223.5698 H   0  0  0  0  0  0  0  0  0  0  0  0
  138.3239   77.7815  220.8725 H   0  0  0  0  0  0  0  0  0  0  0  0
  137.2951   78.0542  222.2874 H   0  0  0  0  0  0  0  0  0  0  0  0
  137.9989   80.1652  223.2637 H   0  0  0  0  0  0  0  0  0  0  0  0
  139.8382   81.5904  224.1574 H   0  0  0  0  0  0  0  0  0  0  0  0
  142.1812   80.8514  223.9073 H   0  0  0  0  0  0  0  0  0  0  0  0
  142.7162   78.7243  222.7840 H   0  0  0  0  0  0  0  0  0  0  0  0
  141.1102   77.1138  220.6359 H   0  0  0  0  0  0  0  0  0  0  0  0
  141.9848   76.5854  222.0991 H   0  0  0  0  0  0  0  0  0  0  0  0
  141.7146   71.4233  224.4924 H   0  0  0  0  0  0  0  0  0  0  0  0
  140.4401   72.3860  225.3082 H   0  0  0  0  0  0  0  0  0  0  0  0
  1  2  2  0
  2  3  1  0
  3  4  2  0
  4  5  1  0
  5  6  2  0
  5  7  1  0
  7  8  1  0
  8  9  1  0
  9 10  1  0
 10 11  2  0
 11 12  1  0
 12 13  1  0
 13 14  1  0
 14 15  1  0
 15 16  1  0
 16 17  1  0
 17 18  1  0
 18 19  1  0
 12 20  2  0
 20 21  1  0
 21 22  1  0
 22 23  1  0
 23 24  1  0
 24 25  1  0
 25 26  2  0
 26 27  1  0
 27 28  2  0
 28 29  1  0
 29 30  2  0
 30 31  1  0
 21 32  2  0
  9 33  1  0
  6  1  1  0
 32 10  1  0
 33  4  1  0
 19 15  1  0
 31 22  1  0
 30 25  1  0
  1 34  1  0
  2 35  1  0
  3 36  1  0
  6 37  1  0
  7 38  1  0
  7 39  1  0
  8 40  1  0
  8 41  1  0
 13 42  1  0
 14 43  1  0
 14 44  1  0
 15 45  1  6
 16 46  1  0
 16 47  1  0
 17 48  1  0
 17 49  1  0
 18 50  1  0
 19 51  1  0
 19 52  1  0
 23 53  1  0
 23 54  1  0
 24 55  1  0
 24 56  1  0
 26 57  1  0
 27 58  1  0
 28 59  1  0
 29 60  1  0
 31 61  1  0
 31 62  1  0
 33 63  1  0
 33 64  1  0
M  END
>  <smiles>  (73) 
c1ccc2c(c1)CCN(c1nc(NCC3CCNC3)nc(N3CCc4ccccc4C3)n1)C2

>  <score_type>  (73) 
oracle

>  <origin>  (73) 
autodockgpu

>  <m_score__min__energy>  (73) 
-10.470000000000001

>  <m_primary>  (73) 
energy

>  <rmsd>  (73) 
11.122543634632404

>  <m_score__min__rmsd>  (73) 
11.122543634632404

>  <meeko>  (73) 
{"free_energy": -10.38, "intermolecular_energy": -11.88, "internal_energy": -0.99, "cluster_size": 50, "cluster_id": 1, "rank_in_cluster": 11}

>  <energy>  (73) 
-10.23

>  <cluster_rmsd>  (73) 
0.99

>  <cluster>  (73) 
1

$$$$

     RDKit          3D

 64 69  0  0  0  0  0  0  0  0999 V2000
  139.8390   68.1770  227.2960 C   0  0  0  0  0  0  0  0  0  0  0  0
  140.5420   69.3000  227.7070 C   0  0  0  0  0  0  0  0  0  0  0  0
  140.7870   70.3450  226.8410 C   0  0  0  0  0  0  0  0  0  0  0  0
  140.3430   70.3230  225.5220 C   0  0  0  0  0  0  0  0  0  0  0  0
  139.6490   69.2010  225.1360 C   0  0  0  0  0  0  0  0  0  0  0  0
  139.3840   68.1330  225.9740 C   0  0  0  0  0  0  0  0  0  0  0  0
  139.1430   69.0890  223.7400 C   0  0  0  0  0  0  0  0  0  0  0  0
  138.7430   70.4870  223.3200 C   0  0  0  0  0  0  0  0  0  0  0  0
  139.8080   71.4370  223.5000 N   0  0  0  0  0  0  0  0  0  0  0  0
  140.0920   72.3990  222.4760 C   0  0  0  0  0  0  0  0  0  0  0  0
  140.4960   72.0100  221.2560 N   0  0  0  0  0  0  0  0  0  0  0  0
  140.7490   72.9390  220.2890 C   0  0  0  0  0  0  0  0  0  0  0  0
  141.1780   72.3900  219.0320 N   0  0  0  0  0  0  0  0  0  0  0  0
  142.5970   72.5030  218.7530 C   0  0  0  0  0  0  0  0  0  0  0  0
  143.3120   73.0770  219.9310 C   0  0  1  0  0  0  0  0  0  0  0  0
  144.5240   72.2630  220.3240 C   0  0  0  0  0  0  0  0  0  0  0  0
  145.2460   73.2770  221.2140 C   0  0  0  0  0  0  0  0  0  0  0  0
  145.0960   74.5070  220.5050 N   0  0  0  0  0  0  0  0  0  0  0  0
  143.8900   74.4390  219.7350 C   0  0  0  0  0  0  0  0  0  0  0  0
  140.6090   74.2550  220.5020 N   0  0  0  0  0  0  0  0  0  0  0  0
  140.2010   74.6360  221.7340 C   0  0  0  0  0  0  0  0  0  0  0  0
  140.0170   76.0350  221.9870 N   0  0  0  0  0  0  0  0  0  0  0  0
  138.7770   76.4360  222.6240 C   0  0  0  0  0  0  0  0  0  0  0  0
  138.4270   77.8430  222.1770 C   0  0  0  0  0  0  0  0  0  0  0  0
  139.5700   78.7080  222.6130 C   0  0  0  0  0  0  0  0  0  0  0  0
  139.3900   79.8970  223.2730 C   0  0  0  0  0  0  0  0  0  0  0  0
  140.4940   80.6440  223.6440 C   0  0  0  0  0  0  0  0  0  0  0  0
  141.7500   80.1810  223.3440 C   0  0  0  0  0  0  0  0  0  0  0  0
  141.9230   78.9880  222.6810 C   0  0  0  0  0  0  0  0  0  0  0  0
  140.8320   78.2340  222.3070 C   0  0  0  0  0  0  0  0  0  0  0  0
  141.0570   76.9440  221.5940 C   0  0  0  0  0  0  0  0  0  0  0  0
  139.9520   73.7190  222.6880 N   0  0  0  0  0  0  0  0  0  0  0  0
  140.6470   71.4790  224.6760 C   0  0  0  0  0  0  0  0  0  0  0  0
  139.6450   67.3454  227.9894 H   0  0  0  0  0  0  0  0  0  0  0  0
  140.9105   69.3580  228.7418 H   0  0  0  0  0  0  0  0  0  0  0  0
  141.3483   71.2193  227.2023 H   0  0  0  0  0  0  0  0  0  0  0  0
  138.8232   67.2612  225.6060 H   0  0  0  0  0  0  0  0  0  0  0  0
  139.9328   68.7038  223.0783 H   0  0  0  0  0  0  0  0  0  0  0  0
  138.2927   68.3939  223.6774 H   0  0  0  0  0  0  0  0  0  0  0  0
  138.4603   70.4697  222.2571 H   0  0  0  0  0  0  0  0  0  0  0  0
  137.9012   70.8010  223.9546 H   0  0  0  0  0  0  0  0  0  0  0  0
  140.5030   71.9570  218.3920 H   0  0  0  0  0  0  0  0  0  0  0  0
  143.0041   71.5052  218.5322 H   0  0  0  0  0  0  0  0  0  0  0  0
  142.7401   73.1679  217.8885 H   0  0  0  0  0  0  0  0  0  0  0  0
  142.5067   73.0887  220.6803 H   0  0  0  0  0  0  0  0  0  0  0  0
  144.2442   71.3567  220.8812 H   0  0  0  0  0  0  0  0  0  0  0  0
  145.1182   71.8793  219.4815 H   0  0  0  0  0  0  0  0  0  0  0  0
  144.7751   73.3350  222.2064 H   0  0  0  0  0  0  0  0  0  0  0  0
  146.2980   73.0136  221.3983 H   0  0  0  0  0  0  0  0  0  0  0  0
  145.9510   74.6760  219.9300 H   0  0  0  0  0  0  0  0  0  0  0  0
  143.1787   75.2029  220.0821 H   0  0  0  0  0  0  0  0  0  0  0  0
  144.0976   74.6235  218.6706 H   0  0  0  0  0  0  0  0  0  0  0  0
  137.9721   75.7451  222.3327 H   0  0  0  0  0  0  0  0  0  0  0  0
  138.8948   76.4110  223.7174 H   0  0  0  0  0  0  0  0  0  0  0  0
  138.3143   77.8802  221.0834 H   0  0  0  0  0  0  0  0  0  0  0  0
  137.4754   78.1806  222.6133 H   0  0  0  0  0  0  0  0  0  0  0  0
  138.3758   80.2538  223.5055 H   0  0  0  0  0  0  0  0  0  0  0  0
  140.3659   81.5993  224.1741 H   0  0  0  0  0  0  0  0  0  0  0  0
  142.6305   80.7715  223.6374 H   0  0  0  0  0  0  0  0  0  0  0  0
  142.9381   78.6340  222.4481 H   0  0  0  0  0  0  0  0  0  0  0  0
  141.0201   77.1066  220.5067 H   0  0  0  0  0  0  0  0  0  0  0  0
  142.0438   76.5313  221.8509 H   0  0  0  0  0  0  0  0  0  0  0  0
  141.7047   71.4477  224.3754 H   0  0  0  0  0  0  0  0  0  0  0  0
  140.4569   72.4075  225.2343 H   0  0  0  0  0  0  0  0  0  0  0  0
  1  2  2  0
  2  3  1  0
  3  4  2  0
  4  5  1  0
  5  6  2  0
  5  7  1  0
  7  8  1  0
  8  9  1  0
  9 10  1  0
 10 11  2  0
 11 12  1  0
 12 13  1  0
 13 14  1  0
 14 15  1  0
 15 16  1  0
 16 17  1  0
 17 18  1  0
 18 19  1  0
 12 20  2  0
 20 21  1  0
 21 22  1  0
 22 23  1  0
 23 24  1  0
 24 25  1  0
 25 26  2  0
 26 27  1  0
 27 28  2  0
 28 29  1  0
 29 30  2  0
 30 31  1  0
 21 32  2  0
  9 33  1  0
  6  1  1  0
 32 10  1  0
 33  4  1  0
 19 15  1  0
 31 22  1  0
 30 25  1  0
  1 34  1  0
  2 35  1  0
  3 36  1  0
  6 37  1  0
  7 38  1  0
  7 39  1  0
  8 40  1  0
  8 41  1  0
 13 42  1  0
 14 43  1  0
 14 44  1  0
 15 45  1  1
 16 46  1  0
 16 47  1  0
 17 48  1  0
 17 49  1  0
 18 50  1  0
 19 51  1  0
 19 52  1  0
 23 53  1  0
 23 54  1  0
 24 55  1  0
 24 56  1  0
 26 57  1  0
 27 58  1  0
 28 59  1  0
 29 60  1  0
 31 61  1  0
 31 62  1  0
 33 63  1  0
 33 64  1  0
M  END
>  <smiles>  (74) 
c1ccc2c(c1)CCN(c1nc(NCC3CCNC3)nc(N3CCc4ccccc4C3)n1)C2

>  <score_type>  (74) 
oracle

>  <origin>  (74) 
autodockgpu

>  <m_score__min__energy>  (74) 
-10.470000000000001

>  <m_primary>  (74) 
energy

>  <rmsd>  (74) 
11.080388396528221

>  <m_score__min__rmsd>  (74) 
11.080388396528221

>  <meeko>  (74) 
{"free_energy": -10.05, "intermolecular_energy": -11.55, "internal_energy": -1.2, "cluster_size": 50, "cluster_id": 1, "rank_in_cluster": 40}

>  <energy>  (74) 
-10.22

>  <cluster_rmsd>  (74) 
0.96

>  <cluster>  (74) 
1

$$$$

     RDKit          3D

 64 69  0  0  0  0  0  0  0  0999 V2000
  139.3880   80.5130  223.1590 C   0  0  0  0  0  0  0  0  0  0  0  0
  140.7510   80.3140  222.9960 C   0  0  0  0  0  0  0  0  0  0  0  0
  141.2640   79.0570  222.7470 C   0  0  0  0  0  0  0  0  0  0  0  0
  140.4430   77.9370  222.6490 C   0  0  0  0  0  0  0  0  0  0  0  0
  139.0970   78.1580  222.8140 C   0  0  0  0  0  0  0  0  0  0  0  0
  138.5450   79.4010  223.0640 C   0  0  0  0  0  0  0  0  0  0  0  0
  138.1450   77.0160  222.7310 C   0  0  0  0  0  0  0  0  0  0  0  0
  138.7020   76.0750  221.6840 C   0  0  0  0  0  0  0  0  0  0  0  0
  140.0660   75.7050  221.9510 N   0  0  0  0  0  0  0  0  0  0  0  0
  140.4790   74.3390  221.8110 C   0  0  0  0  0  0  0  0  0  0  0  0
  141.2540   73.9550  220.7830 N   0  0  0  0  0  0  0  0  0  0  0  0
  141.6490   72.6530  220.6720 C   0  0  0  0  0  0  0  0  0  0  0  0
  142.4710   72.3760  219.5270 N   0  0  0  0  0  0  0  0  0  0  0  0
  143.0450   73.5380  218.8730 C   0  0  0  0  0  0  0  0  0  0  0  0
  144.4990   73.6450  219.1940 C   0  0  1  0  0  0  0  0  0  0  0  0
  144.7440   74.0830  220.6210 C   0  0  0  0  0  0  0  0  0  0  0  0
  146.2170   73.6950  220.7680 C   0  0  0  0  0  0  0  0  0  0  0  0
  146.2910   72.4240  220.1210 N   0  0  0  0  0  0  0  0  0  0  0  0
  145.2730   72.3710  219.1130 C   0  0  0  0  0  0  0  0  0  0  0  0
  141.2940   71.7160  221.5610 N   0  0  0  0  0  0  0  0  0  0  0  0
  140.5140   72.1140  222.5920 C   0  0  0  0  0  0  0  0  0  0  0  0
  140.1370   71.1410  223.5750 N   0  0  0  0  0  0  0  0  0  0  0  0
  139.5450   69.9070  223.0930 C   0  0  0  0  0  0  0  0  0  0  0  0
  138.5990   69.3680  224.1500 C   0  0  0  0  0  0  0  0  0  0  0  0
  139.4370   69.1330  225.3690 C   0  0  0  0  0  0  0  0  0  0  0  0
  139.3850   67.9670  226.0910 C   0  0  0  0  0  0  0  0  0  0  0  0
  140.1880   67.8220  227.2080 C   0  0  0  0  0  0  0  0  0  0  0  0
  141.0240   68.8460  227.5730 C   0  0  0  0  0  0  0  0  0  0  0  0
  141.0720   70.0120  226.8440 C   0  0  0  0  0  0  0  0  0  0  0  0
  140.2770   70.1700  225.7290 C   0  0  0  0  0  0  0  0  0  0  0  0
  140.3580   71.4460  224.9610 C   0  0  0  0  0  0  0  0  0  0  0  0
  140.1240   73.3980  222.7020 N   0  0  0  0  0  0  0  0  0  0  0  0
  141.0760   76.6450  222.3800 C   0  0  0  0  0  0  0  0  0  0  0  0
  138.9820   81.5159  223.3572 H   0  0  0  0  0  0  0  0  0  0  0  0
  141.4349   81.1727  223.0664 H   0  0  0  0  0  0  0  0  0  0  0  0
  142.3504   78.9370  222.6227 H   0  0  0  0  0  0  0  0  0  0  0  0
  137.4577   79.5137  223.1865 H   0  0  0  0  0  0  0  0  0  0  0  0
  138.0757   76.5062  223.7033 H   0  0  0  0  0  0  0  0  0  0  0  0
  137.1334   77.3567  222.4653 H   0  0  0  0  0  0  0  0  0  0  0  0
  138.0860   75.1639  221.6641 H   0  0  0  0  0  0  0  0  0  0  0  0
  138.6790   76.5976  220.7164 H   0  0  0  0  0  0  0  0  0  0  0  0
  142.6210   71.4110  219.2100 H   0  0  0  0  0  0  0  0  0  0  0  0
  142.9194   73.4412  217.7845 H   0  0  0  0  0  0  0  0  0  0  0  0
  142.5310   74.4420  219.2316 H   0  0  0  0  0  0  0  0  0  0  0  0
  144.8313   74.3643  218.4310 H   0  0  0  0  0  0  0  0  0  0  0  0
  144.5921   75.1651  220.7478 H   0  0  0  0  0  0  0  0  0  0  0  0
  144.0699   73.6347  221.3658 H   0  0  0  0  0  0  0  0  0  0  0  0
  146.8687   74.4284  220.2705 H   0  0  0  0  0  0  0  0  0  0  0  0
  146.5501   73.6633  221.8159 H   0  0  0  0  0  0  0  0  0  0  0  0
  146.2090   71.6700  220.8380 H   0  0  0  0  0  0  0  0  0  0  0  0
  145.7330   72.2729  218.1186 H   0  0  0  0  0  0  0  0  0  0  0  0
  144.6137   71.5048  219.2715 H   0  0  0  0  0  0  0  0  0  0  0  0
  138.9881   70.1029  222.1648 H   0  0  0  0  0  0  0  0  0  0  0  0
  140.3356   69.1695  222.8904 H   0  0  0  0  0  0  0  0  0  0  0  0
  137.8077   70.1012  224.3651 H   0  0  0  0  0  0  0  0  0  0  0  0
  138.1039   68.4443  223.8159 H   0  0  0  0  0  0  0  0  0  0  0  0
  138.7102   67.1543  225.7839 H   0  0  0  0  0  0  0  0  0  0  0  0
  140.1563   66.8941  227.7979 H   0  0  0  0  0  0  0  0  0  0  0  0
  141.6646   68.7338  228.4602 H   0  0  0  0  0  0  0  0  0  0  0  0
  141.7485   70.8226  227.1527 H   0  0  0  0  0  0  0  0  0  0  0  0
  139.5880   72.1462  225.3171 H   0  0  0  0  0  0  0  0  0  0  0  0
  141.3439   71.9142  225.0981 H   0  0  0  0  0  0  0  0  0  0  0  0
  141.5597   76.2739  223.2956 H   0  0  0  0  0  0  0  0  0  0  0  0
  141.8343   76.7604  221.5916 H   0  0  0  0  0  0  0  0  0  0  0  0
  1  2  2  0
  2  3  1  0
  3  4  2  0
  4  5  1  0
  5  6  2  0
  5  7  1  0
  7  8  1  0
  8  9  1  0
  9 10  1  0
 10 11  2  0
 11 12  1  0
 12 13  1  0
 13 14  1  0
 14 15  1  0
 15 16  1  0
 16 17  1  0
 17 18  1  0
 18 19  1  0
 12 20  2  0
 20 21  1  0
 21 22  1  0
 22 23  1  0
 23 24  1  0
 24 25  1  0
 25 26  2  0
 26 27  1  0
 27 28  2  0
 28 29  1  0
 29 30  2  0
 30 31  1  0
 21 32  2  0
  9 33  1  0
  6  1  1  0
 32 10  1  0
 33  4  1  0
 19 15  1  0
 31 22  1  0
 30 25  1  0
  1 34  1  0
  2 35  1  0
  3 36  1  0
  6 37  1  0
  7 38  1  0
  7 39  1  0
  8 40  1  0
  8 41  1  0
 13 42  1  0
 14 43  1  0
 14 44  1  0
 15 45  1  6
 16 46  1  0
 16 47  1  0
 17 48  1  0
 17 49  1  0
 18 50  1  0
 19 51  1  0
 19 52  1  0
 23 53  1  0
 23 54  1  0
 24 55  1  0
 24 56  1  0
 26 57  1  0
 27 58  1  0
 28 59  1  0
 29 60  1  0
 31 61  1  0
 31 62  1  0
 33 63  1  0
 33 64  1  0
M  END
>  <smiles>  (75) 
c1ccc2c(c1)CCN(c1nc(NCC3CCNC3)nc(N3CCc4ccccc4C3)n1)C2

>  <score_type>  (75) 
oracle

>  <origin>  (75) 
autodockgpu

>  <m_score__min__energy>  (75) 
-10.470000000000001

>  <m_primary>  (75) 
energy

>  <rmsd>  (75) 
4.979915693987684

>  <m_score__min__rmsd>  (75) 
4.979915693987684

>  <meeko>  (75) 
{"free_energy": -10.45, "intermolecular_energy": -11.94, "internal_energy": -1.02, "cluster_size": 50, "cluster_id": 1, "rank_in_cluster": 5}

>  <energy>  (75) 
-10.21

>  <cluster_rmsd>  (75) 
0.8

>  <cluster>  (75) 
1

$$$$

     RDKit          3D

 64 69  0  0  0  0  0  0  0  0999 V2000
  139.6650   80.4960  223.1530 C   0  0  0  0  0  0  0  0  0  0  0  0
  141.0090   80.1950  222.9890 C   0  0  0  0  0  0  0  0  0  0  0  0
  141.4250   78.9050  222.7330 C   0  0  0  0  0  0  0  0  0  0  0  0
  140.5220   77.8510  222.6280 C   0  0  0  0  0  0  0  0  0  0  0  0
  139.1960   78.1720  222.7940 C   0  0  0  0  0  0  0  0  0  0  0  0
  138.7400   79.4510  223.0520 C   0  0  0  0  0  0  0  0  0  0  0  0
  138.1600   77.1050  222.7050 C   0  0  0  0  0  0  0  0  0  0  0  0
  138.6450   76.1310  221.6520 C   0  0  0  0  0  0  0  0  0  0  0  0
  139.9770   75.6570  221.9170 N   0  0  0  0  0  0  0  0  0  0  0  0
  140.2860   74.2650  221.7690 C   0  0  0  0  0  0  0  0  0  0  0  0
  140.9140   73.8110  220.6720 N   0  0  0  0  0  0  0  0  0  0  0  0
  141.2110   72.4840  220.5540 C   0  0  0  0  0  0  0  0  0  0  0  0
  141.8800   72.1310  219.3320 N   0  0  0  0  0  0  0  0  0  0  0  0
  142.9800   72.9960  218.9490 C   0  0  0  0  0  0  0  0  0  0  0  0
  143.8800   73.2350  220.1160 C   0  0  1  0  0  0  0  0  0  0  0  0
  145.1000   72.3430  220.0950 C   0  0  0  0  0  0  0  0  0  0  0  0
  145.9850   73.0820  221.1020 C   0  0  0  0  0  0  0  0  0  0  0  0
  145.7870   74.4570  220.7710 N   0  0  0  0  0  0  0  0  0  0  0  0
  144.4800   74.5990  220.1990 C   0  0  0  0  0  0  0  0  0  0  0  0
  140.9010   71.5900  221.5020 N   0  0  0  0  0  0  0  0  0  0  0  0
  140.2700   72.0590  222.6020 C   0  0  0  0  0  0  0  0  0  0  0  0
  139.9460   71.1320  223.6470 N   0  0  0  0  0  0  0  0  0  0  0  0
  139.3180   69.8840  223.2560 C   0  0  0  0  0  0  0  0  0  0  0  0
  138.4340   69.4000  224.3900 C   0  0  0  0  0  0  0  0  0  0  0  0
  139.3430   69.2090  225.5650 C   0  0  0  0  0  0  0  0  0  0  0  0
  139.3260   68.0760  226.3390 C   0  0  0  0  0  0  0  0  0  0  0  0
  140.1950   67.9710  227.4100 C   0  0  0  0  0  0  0  0  0  0  0  0
  141.0580   69.0020  227.6790 C   0  0  0  0  0  0  0  0  0  0  0  0
  141.0700   70.1350  226.8990 C   0  0  0  0  0  0  0  0  0  0  0  0
  140.2100   70.2530  225.8290 C   0  0  0  0  0  0  0  0  0  0  0  0
  140.2530   71.4930  225.0030 C   0  0  0  0  0  0  0  0  0  0  0  0
  139.9750   73.3670  222.7190 N   0  0  0  0  0  0  0  0  0  0  0  0
  141.0550   76.5160  222.3510 C   0  0  0  0  0  0  0  0  0  0  0  0
  139.3360   81.5258  223.3564 H   0  0  0  0  0  0  0  0  0  0  0  0
  141.7560   80.9989  223.0644 H   0  0  0  0  0  0  0  0  0  0  0  0
  142.4993   78.7038  222.6085 H   0  0  0  0  0  0  0  0  0  0  0  0
  137.6644   79.6448  223.1763 H   0  0  0  0  0  0  0  0  0  0  0  0
  138.0526   76.5962  223.6743 H   0  0  0  0  0  0  0  0  0  0  0  0
  137.1768   77.5223  222.4421 H   0  0  0  0  0  0  0  0  0  0  0  0
  137.9618   75.2693  221.6261 H   0  0  0  0  0  0  0  0  0  0  0  0
  138.6624   76.6600  220.6877 H   0  0  0  0  0  0  0  0  0  0  0  0
  141.5750   71.3190  218.7830 H   0  0  0  0  0  0  0  0  0  0  0  0
  143.5529   72.5185  218.1404 H   0  0  0  0  0  0  0  0  0  0  0  0
  142.5754   73.9594  218.6052 H   0  0  0  0  0  0  0  0  0  0  0  0
  143.1928   73.0495  220.9546 H   0  0  0  0  0  0  0  0  0  0  0  0
  144.8652   71.3218  220.4298 H   0  0  0  0  0  0  0  0  0  0  0  0
  145.5501   72.1959  219.1021 H   0  0  0  0  0  0  0  0  0  0  0  0
  145.6642   72.8755  222.1337 H   0  0  0  0  0  0  0  0  0  0  0  0
  147.0404   72.7761  221.0515 H   0  0  0  0  0  0  0  0  0  0  0  0
  146.5570   74.7700  220.1400 H   0  0  0  0  0  0  0  0  0  0  0  0
  143.8586   75.2452  220.8364 H   0  0  0  0  0  0  0  0  0  0  0  0
  144.5398   75.0590  219.2016 H   0  0  0  0  0  0  0  0  0  0  0  0
  138.7075   70.0446  222.3551 H   0  0  0  0  0  0  0  0  0  0  0  0
  140.0901   69.1312  223.0391 H   0  0  0  0  0  0  0  0  0  0  0  0
  137.6626   70.1495  224.6207 H   0  0  0  0  0  0  0  0  0  0  0  0
  137.9126   68.4679  224.1266 H   0  0  0  0  0  0  0  0  0  0  0  0
  138.6271   67.2581  226.1096 H   0  0  0  0  0  0  0  0  0  0  0  0
  140.1938   67.0691  228.0398 H   0  0  0  0  0  0  0  0  0  0  0  0
  141.7502   68.9220  228.5302 H   0  0  0  0  0  0  0  0  0  0  0  0
  141.7700   70.9513  227.1308 H   0  0  0  0  0  0  0  0  0  0  0  0
  139.5111   72.2152  225.3745 H   0  0  0  0  0  0  0  0  0  0  0  0
  141.2490   71.9564  225.0597 H   0  0  0  0  0  0  0  0  0  0  0  0
  141.5094   76.1041  223.2641 H   0  0  0  0  0  0  0  0  0  0  0  0
  141.8194   76.5785  221.5624 H   0  0  0  0  0  0  0  0  0  0  0  0
  1  2  2  0
  2  3  1  0
  3  4  2  0
  4  5  1  0
  5  6  2  0
  5  7  1  0
  7  8  1  0
  8  9  1  0
  9 10  1  0
 10 11  2  0
 11 12  1  0
 12 13  1  0
 13 14  1  0
 14 15  1  0
 15 16  1  0
 16 17  1  0
 17 18  1  0
 18 19  1  0
 12 20  2  0
 20 21  1  0
 21 22  1  0
 22 23  1  0
 23 24  1  0
 24 25  1  0
 25 26  2  0
 26 27  1  0
 27 28  2  0
 28 29  1  0
 29 30  2  0
 30 31  1  0
 21 32  2  0
  9 33  1  0
  6  1  1  0
 32 10  1  0
 33  4  1  0
 19 15  1  0
 31 22  1  0
 30 25  1  0
  1 34  1  0
  2 35  1  0
  3 36  1  0
  6 37  1  0
  7 38  1  0
  7 39  1  0
  8 40  1  0
  8 41  1  0
 13 42  1  0
 14 43  1  0
 14 44  1  0
 15 45  1  1
 16 46  1  0
 16 47  1  0
 17 48  1  0
 17 49  1  0
 18 50  1  0
 19 51  1  0
 19 52  1  0
 23 53  1  0
 23 54  1  0
 24 55  1  0
 24 56  1  0
 26 57  1  0
 27 58  1  0
 28 59  1  0
 29 60  1  0
 31 61  1  0
 31 62  1  0
 33 63  1  0
 33 64  1  0
M  END
>  <smiles>  (76) 
c1ccc2c(c1)CCN(c1nc(NCC3CCNC3)nc(N3CCc4ccccc4C3)n1)C2

>  <score_type>  (76) 
oracle

>  <origin>  (76) 
autodockgpu

>  <m_score__min__energy>  (76) 
-10.470000000000001

>  <m_primary>  (76) 
energy

>  <rmsd>  (76) 
5.010600632058414

>  <m_score__min__rmsd>  (76) 
5.010600632058414

>  <meeko>  (76) 
{"free_energy": -10.19, "intermolecular_energy": -11.69, "internal_energy": -1.09, "cluster_size": 50, "cluster_id": 1, "rank_in_cluster": 29}

>  <energy>  (76) 
-10.21

>  <cluster_rmsd>  (76) 
1.0

>  <cluster>  (76) 
1

$$$$

     RDKit          3D

 64 69  0  0  0  0  0  0  0  0999 V2000
  139.7350   68.1150  227.4460 C   0  0  0  0  0  0  0  0  0  0  0  0
  140.4270   69.2440  227.8590 C   0  0  0  0  0  0  0  0  0  0  0  0
  140.7040   70.2720  226.9820 C   0  0  0  0  0  0  0  0  0  0  0  0
  140.3040   70.2260  225.6490 C   0  0  0  0  0  0  0  0  0  0  0  0
  139.6200   69.0980  225.2620 C   0  0  0  0  0  0  0  0  0  0  0  0
  139.3250   68.0470  226.1110 C   0  0  0  0  0  0  0  0  0  0  0  0
  139.1610   68.9600  223.8520 C   0  0  0  0  0  0  0  0  0  0  0  0
  138.7790   70.3510  223.3930 C   0  0  0  0  0  0  0  0  0  0  0  0
  139.8400   71.3020  223.5900 N   0  0  0  0  0  0  0  0  0  0  0  0
  140.1610   72.2440  222.5580 C   0  0  0  0  0  0  0  0  0  0  0  0
  140.6740   71.8360  221.3860 N   0  0  0  0  0  0  0  0  0  0  0  0
  140.9600   72.7460  220.4100 C   0  0  0  0  0  0  0  0  0  0  0  0
  141.5070   72.1780  219.2080 N   0  0  0  0  0  0  0  0  0  0  0  0
  142.7120   71.3890  219.3820 C   0  0  0  0  0  0  0  0  0  0  0  0
  143.9110   72.2780  219.4170 C   0  0  1  0  0  0  0  0  0  0  0  0
  144.1630   72.8530  220.7920 C   0  0  0  0  0  0  0  0  0  0  0  0
  145.6080   73.3260  220.6200 C   0  0  0  0  0  0  0  0  0  0  0  0
  146.2210   72.2630  219.8900 N   0  0  0  0  0  0  0  0  0  0  0  0
  145.2130   71.6190  219.1010 C   0  0  0  0  0  0  0  0  0  0  0  0
  140.7490   74.0590  220.5670 N   0  0  0  0  0  0  0  0  0  0  0  0
  140.2320   74.4600  221.7510 C   0  0  0  0  0  0  0  0  0  0  0  0
  139.9710   75.8560  221.9420 N   0  0  0  0  0  0  0  0  0  0  0  0
  138.6370   76.2280  222.3740 C   0  0  0  0  0  0  0  0  0  0  0  0
  138.3170   77.6150  221.8480 C   0  0  0  0  0  0  0  0  0  0  0  0
  139.3540   78.5240  222.4320 C   0  0  0  0  0  0  0  0  0  0  0  0
  139.0410   79.7190  223.0310 C   0  0  0  0  0  0  0  0  0  0  0  0
  140.0530   80.5070  223.5460 C   0  0  0  0  0  0  0  0  0  0  0  0
  141.3530   80.0810  223.4500 C   0  0  0  0  0  0  0  0  0  0  0  0
  141.6600   78.8820  222.8480 C   0  0  0  0  0  0  0  0  0  0  0  0
  140.6620   78.0860  222.3300 C   0  0  0  0  0  0  0  0  0  0  0  0
  141.0310   76.7920  221.6890 C   0  0  0  0  0  0  0  0  0  0  0  0
  139.9490   73.5620  222.7140 N   0  0  0  0  0  0  0  0  0  0  0  0
  140.6390   71.3650  224.7930 C   0  0  0  0  0  0  0  0  0  0  0  0
  139.5153   67.2972  228.1481 H   0  0  0  0  0  0  0  0  0  0  0  0
  140.7608   69.3209  228.9043 H   0  0  0  0  0  0  0  0  0  0  0  0
  141.2556   71.1516  227.3453 H   0  0  0  0  0  0  0  0  0  0  0  0
  138.7751   67.1691  225.7409 H   0  0  0  0  0  0  0  0  0  0  0  0
  139.9716   68.5608  223.2246 H   0  0  0  0  0  0  0  0  0  0  0  0
  138.3118   68.2652  223.7735 H   0  0  0  0  0  0  0  0  0  0  0  0
  138.5313   70.3144  222.3219 H   0  0  0  0  0  0  0  0  0  0  0  0
  137.9178   70.6787  223.9938 H   0  0  0  0  0  0  0  0  0  0  0  0
  141.0570   72.3390  218.3000 H   0  0  0  0  0  0  0  0  0  0  0  0
  142.6467   70.8299  220.3271 H   0  0  0  0  0  0  0  0  0  0  0  0
  142.8082   70.6905  218.5377 H   0  0  0  0  0  0  0  0  0  0  0  0
  143.6438   73.0221  218.6522 H   0  0  0  0  0  0  0  0  0  0  0  0
  143.4836   73.6886  221.0161 H   0  0  0  0  0  0  0  0  0  0  0  0
  144.0002   72.1527  221.6245 H   0  0  0  0  0  0  0  0  0  0  0  0
  145.6488   74.2675  220.0526 H   0  0  0  0  0  0  0  0  0  0  0  0
  146.1083   73.5330  221.5775 H   0  0  0  0  0  0  0  0  0  0  0  0
  146.7020   71.6230  220.5590 H   0  0  0  0  0  0  0  0  0  0  0  0
  145.4426   71.7333  218.0313 H   0  0  0  0  0  0  0  0  0  0  0  0
  145.1696   70.5436  219.3282 H   0  0  0  0  0  0  0  0  0  0  0  0
  137.9067   75.5062  221.9794 H   0  0  0  0  0  0  0  0  0  0  0  0
  138.5879   76.2264  223.4729 H   0  0  0  0  0  0  0  0  0  0  0  0
  138.3703   77.6294  220.7494 H   0  0  0  0  0  0  0  0  0  0  0  0
  137.3006   77.9288  222.1280 H   0  0  0  0  0  0  0  0  0  0  0  0
  137.9932   80.0467  223.1005 H   0  0  0  0  0  0  0  0  0  0  0  0
  139.8178   81.4671  224.0285 H   0  0  0  0  0  0  0  0  0  0  0  0
  142.1607   80.7056  223.8593 H   0  0  0  0  0  0  0  0  0  0  0  0
  142.7088   78.5573  222.7801 H   0  0  0  0  0  0  0  0  0  0  0  0
  141.1539   76.9335  220.6051 H   0  0  0  0  0  0  0  0  0  0  0  0
  141.9797   76.4171  222.1007 H   0  0  0  0  0  0  0  0  0  0  0  0
  141.7062   71.3265  224.5291 H   0  0  0  0  0  0  0  0  0  0  0  0
  140.4323   72.3042  225.3271 H   0  0  0  0  0  0  0  0  0  0  0  0
  1  2  2  0
  2  3  1  0
  3  4  2  0
  4  5  1  0
  5  6  2  0
  5  7  1  0
  7  8  1  0
  8  9  1  0
  9 10  1  0
 10 11  2  0
 11 12  1  0
 12 13  1  0
 13 14  1  0
 14 15  1  0
 15 16  1  0
 16 17  1  0
 17 18  1  0
 18 19  1  0
 12 20  2  0
 20 21  1  0
 21 22  1  0
 22 23  1  0
 23 24  1  0
 24 25  1  0
 25 26  2  0
 26 27  1  0
 27 28  2  0
 28 29  1  0
 29 30  2  0
 30 31  1  0
 21 32  2  0
  9 33  1  0
  6  1  1  0
 32 10  1  0
 33  4  1  0
 19 15  1  0
 31 22  1  0
 30 25  1  0
  1 34  1  0
  2 35  1  0
  3 36  1  0
  6 37  1  0
  7 38  1  0
  7 39  1  0
  8 40  1  0
  8 41  1  0
 13 42  1  0
 14 43  1  0
 14 44  1  0
 15 45  1  6
 16 46  1  0
 16 47  1  0
 17 48  1  0
 17 49  1  0
 18 50  1  0
 19 51  1  0
 19 52  1  0
 23 53  1  0
 23 54  1  0
 24 55  1  0
 24 56  1  0
 26 57  1  0
 27 58  1  0
 28 59  1  0
 29 60  1  0
 31 61  1  0
 31 62  1  0
 33 63  1  0
 33 64  1  0
M  END
>  <smiles>  (77) 
c1ccc2c(c1)CCN(c1nc(NCC3CCNC3)nc(N3CCc4ccccc4C3)n1)C2

>  <score_type>  (77) 
oracle

>  <origin>  (77) 
autodockgpu

>  <m_score__min__energy>  (77) 
-10.470000000000001

>  <m_primary>  (77) 
energy

>  <rmsd>  (77) 
11.22281687802528

>  <m_score__min__rmsd>  (77) 
11.22281687802528

>  <meeko>  (77) 
{"free_energy": -10.36, "intermolecular_energy": -11.85, "internal_energy": -1.0, "cluster_size": 50, "cluster_id": 1, "rank_in_cluster": 13}

>  <energy>  (77) 
-10.2

>  <cluster_rmsd>  (77) 
0.82

>  <cluster>  (77) 
1

$$$$

     RDKit          3D

 64 69  0  0  0  0  0  0  0  0999 V2000
  139.6660   80.4890  223.2190 C   0  0  0  0  0  0  0  0  0  0  0  0
  141.0120   80.1930  223.0600 C   0  0  0  0  0  0  0  0  0  0  0  0
  141.4330   78.9070  222.7900 C   0  0  0  0  0  0  0  0  0  0  0  0
  140.5330   77.8520  222.6670 C   0  0  0  0  0  0  0  0  0  0  0  0
  139.2050   78.1680  222.8300 C   0  0  0  0  0  0  0  0  0  0  0  0
  138.7440   79.4430  223.1010 C   0  0  0  0  0  0  0  0  0  0  0  0
  138.1730   77.1000  222.7210 C   0  0  0  0  0  0  0  0  0  0  0  0
  138.6660   76.1400  221.6600 C   0  0  0  0  0  0  0  0  0  0  0  0
  139.9970   75.6660  221.9270 N   0  0  0  0  0  0  0  0  0  0  0  0
  140.3110   74.2770  221.7630 C   0  0  0  0  0  0  0  0  0  0  0  0
  140.9590   73.8390  220.6710 N   0  0  0  0  0  0  0  0  0  0  0  0
  141.2600   72.5150  220.5380 C   0  0  0  0  0  0  0  0  0  0  0  0
  141.9510   72.1810  219.3230 N   0  0  0  0  0  0  0  0  0  0  0  0
  143.0470   73.0620  218.9640 C   0  0  0  0  0  0  0  0  0  0  0  0
  143.9910   73.2060  220.1120 C   0  0  1  0  0  0  0  0  0  0  0  0
  145.2420   72.3750  219.9380 C   0  0  0  0  0  0  0  0  0  0  0  0
  146.1450   73.0330  220.9840 C   0  0  0  0  0  0  0  0  0  0  0  0
  145.8790   74.4270  220.8220 N   0  0  0  0  0  0  0  0  0  0  0  0
  144.5430   74.5770  220.3260 C   0  0  0  0  0  0  0  0  0  0  0  0
  140.9340   71.6060  221.4670 N   0  0  0  0  0  0  0  0  0  0  0  0
  140.2820   72.0580  222.5620 C   0  0  0  0  0  0  0  0  0  0  0  0
  139.9410   71.1150  223.5870 N   0  0  0  0  0  0  0  0  0  0  0  0
  139.2520   69.9070  223.1740 C   0  0  0  0  0  0  0  0  0  0  0  0
  138.3720   69.4270  224.3120 C   0  0  0  0  0  0  0  0  0  0  0  0
  139.2960   69.1640  225.4620 C   0  0  0  0  0  0  0  0  0  0  0  0
  139.2460   68.0100  226.2040 C   0  0  0  0  0  0  0  0  0  0  0  0
  140.1310   67.8370  227.2520 C   0  0  0  0  0  0  0  0  0  0  0  0
  141.0430   68.8220  227.5320 C   0  0  0  0  0  0  0  0  0  0  0  0
  141.0870   69.9760  226.7850 C   0  0  0  0  0  0  0  0  0  0  0  0
  140.2120   70.1620  225.7360 C   0  0  0  0  0  0  0  0  0  0  0  0
  140.2910   71.4230  224.9460 C   0  0  0  0  0  0  0  0  0  0  0  0
  139.9840   73.3640  222.6940 N   0  0  0  0  0  0  0  0  0  0  0  0
  141.0710   76.5220  222.3770 C   0  0  0  0  0  0  0  0  0  0  0  0
  139.3333   81.5157  223.4316 H   0  0  0  0  0  0  0  0  0  0  0  0
  141.7566   80.9975  223.1508 H   0  0  0  0  0  0  0  0  0  0  0  0
  142.5084   78.7101  222.6687 H   0  0  0  0  0  0  0  0  0  0  0  0
  137.6673   79.6325  223.2222 H   0  0  0  0  0  0  0  0  0  0  0  0
  138.0607   76.5792  223.6834 H   0  0  0  0  0  0  0  0  0  0  0  0
  137.1908   77.5185  222.4563 H   0  0  0  0  0  0  0  0  0  0  0  0
  137.9849   75.2772  221.6200 H   0  0  0  0  0  0  0  0  0  0  0  0
  138.6877   76.6803  220.7021 H   0  0  0  0  0  0  0  0  0  0  0  0
  141.6650   71.3700  218.7630 H   0  0  0  0  0  0  0  0  0  0  0  0
  143.5848   72.6401  218.1022 H   0  0  0  0  0  0  0  0  0  0  0  0
  142.6419   74.0517  218.7064 H   0  0  0  0  0  0  0  0  0  0  0  0
  143.3506   72.8977  220.9515 H   0  0  0  0  0  0  0  0  0  0  0  0
  145.0618   71.3136  220.1638 H   0  0  0  0  0  0  0  0  0  0  0  0
  145.6503   72.3601  218.9167 H   0  0  0  0  0  0  0  0  0  0  0  0
  145.8819   72.6974  221.9980 H   0  0  0  0  0  0  0  0  0  0  0  0
  147.2077   72.7808  220.8532 H   0  0  0  0  0  0  0  0  0  0  0  0
  146.6060   74.8420  220.1990 H   0  0  0  0  0  0  0  0  0  0  0  0
  143.9283   75.1199  221.0591 H   0  0  0  0  0  0  0  0  0  0  0  0
  144.5388   75.1490  219.3864 H   0  0  0  0  0  0  0  0  0  0  0  0
  138.6305   70.1202  222.2918 H   0  0  0  0  0  0  0  0  0  0  0  0
  139.9865   69.1290  222.9186 H   0  0  0  0  0  0  0  0  0  0  0  0
  137.6375   70.2006  224.5804 H   0  0  0  0  0  0  0  0  0  0  0  0
  137.8069   68.5254  224.0333 H   0  0  0  0  0  0  0  0  0  0  0  0
  138.5080   67.2296  225.9667 H   0  0  0  0  0  0  0  0  0  0  0  0
  140.1038   66.9178  227.8556 H   0  0  0  0  0  0  0  0  0  0  0  0
  141.7487   68.6874  228.3650 H   0  0  0  0  0  0  0  0  0  0  0  0
  141.8249   70.7554  227.0261 H   0  0  0  0  0  0  0  0  0  0  0  0
  139.5883   72.1644  225.3541 H   0  0  0  0  0  0  0  0  0  0  0  0
  141.3066   71.8427  224.9945 H   0  0  0  0  0  0  0  0  0  0  0  0
  141.5215   76.1002  223.2875 H   0  0  0  0  0  0  0  0  0  0  0  0
  141.8397   76.5956  221.5936 H   0  0  0  0  0  0  0  0  0  0  0  0
  1  2  2  0
  2  3  1  0
  3  4  2  0
  4  5  1  0
  5  6  2  0
  5  7  1  0
  7  8  1  0
  8  9  1  0
  9 10  1  0
 10 11  2  0
 11 12  1  0
 12 13  1  0
 13 14  1  0
 14 15  1  0
 15 16  1  0
 16 17  1  0
 17 18  1  0
 18 19  1  0
 12 20  2  0
 20 21  1  0
 21 22  1  0
 22 23  1  0
 23 24  1  0
 24 25  1  0
 25 26  2  0
 26 27  1  0
 27 28  2  0
 28 29  1  0
 29 30  2  0
 30 31  1  0
 21 32  2  0
  9 33  1  0
  6  1  1  0
 32 10  1  0
 33  4  1  0
 19 15  1  0
 31 22  1  0
 30 25  1  0
  1 34  1  0
  2 35  1  0
  3 36  1  0
  6 37  1  0
  7 38  1  0
  7 39  1  0
  8 40  1  0
  8 41  1  0
 13 42  1  0
 14 43  1  0
 14 44  1  0
 15 45  1  1
 16 46  1  0
 16 47  1  0
 17 48  1  0
 17 49  1  0
 18 50  1  0
 19 51  1  0
 19 52  1  0
 23 53  1  0
 23 54  1  0
 24 55  1  0
 24 56  1  0
 26 57  1  0
 27 58  1  0
 28 59  1  0
 29 60  1  0
 31 61  1  0
 31 62  1  0
 33 63  1  0
 33 64  1  0
M  END
>  <smiles>  (78) 
c1ccc2c(c1)CCN(c1nc(NCC3CCNC3)nc(N3CCc4ccccc4C3)n1)C2

>  <score_type>  (78) 
oracle

>  <origin>  (78) 
autodockgpu

>  <m_score__min__energy>  (78) 
-10.470000000000001

>  <m_primary>  (78) 
energy

>  <rmsd>  (78) 
5.035342784773883

>  <m_score__min__rmsd>  (78) 
5.035342784773883

>  <meeko>  (78) 
{"free_energy": -10.16, "intermolecular_energy": -11.66, "internal_energy": -1.08, "cluster_size": 50, "cluster_id": 1, "rank_in_cluster": 32}

>  <energy>  (78) 
-10.2

>  <cluster_rmsd>  (78) 
0.82

>  <cluster>  (78) 
1

$$$$

     RDKit          3D

 64 69  0  0  0  0  0  0  0  0999 V2000
  139.7320   67.7910  227.2620 C   0  0  0  0  0  0  0  0  0  0  0  0
  140.4970   68.8610  227.7020 C   0  0  0  0  0  0  0  0  0  0  0  0
  140.8070   69.9100  226.8600 C   0  0  0  0  0  0  0  0  0  0  0  0
  140.3710   69.9430  225.5390 C   0  0  0  0  0  0  0  0  0  0  0  0
  139.6150   68.8720  225.1250 C   0  0  0  0  0  0  0  0  0  0  0  0
  139.2830   67.8030  225.9370 C   0  0  0  0  0  0  0  0  0  0  0  0
  139.1110   68.8210  223.7250 C   0  0  0  0  0  0  0  0  0  0  0  0
  138.7960   70.2490  223.3350 C   0  0  0  0  0  0  0  0  0  0  0  0
  139.9130   71.1310  223.5410 N   0  0  0  0  0  0  0  0  0  0  0  0
  140.2580   72.0980  222.5400 C   0  0  0  0  0  0  0  0  0  0  0  0
  140.8210   71.7200  221.3800 N   0  0  0  0  0  0  0  0  0  0  0  0
  141.1310   72.6530  220.4340 C   0  0  0  0  0  0  0  0  0  0  0  0
  141.7300   72.1170  219.2430 N   0  0  0  0  0  0  0  0  0  0  0  0
  142.9980   72.7100  218.8610 C   0  0  0  0  0  0  0  0  0  0  0  0
  143.7920   73.0620  220.0760 C   0  0  1  0  0  0  0  0  0  0  0  0
  145.0980   72.3050  220.1500 C   0  0  0  0  0  0  0  0  0  0  0  0
  145.8350   73.1490  221.1920 C   0  0  0  0  0  0  0  0  0  0  0  0
  145.5140   74.4900  220.8200 N   0  0  0  0  0  0  0  0  0  0  0  0
  144.2380   74.4830  220.1650 C   0  0  0  0  0  0  0  0  0  0  0  0
  140.8940   73.9600  220.6080 N   0  0  0  0  0  0  0  0  0  0  0  0
  140.3270   74.3290  221.7790 C   0  0  0  0  0  0  0  0  0  0  0  0
  140.0380   75.7180  221.9870 N   0  0  0  0  0  0  0  0  0  0  0  0
  138.7030   76.0560  222.4440 C   0  0  0  0  0  0  0  0  0  0  0  0
  138.3440   77.4400  221.9360 C   0  0  0  0  0  0  0  0  0  0  0  0
  139.3700   78.3670  222.5110 C   0  0  0  0  0  0  0  0  0  0  0  0
  139.0400   79.5490  223.1250 C   0  0  0  0  0  0  0  0  0  0  0  0
  140.0430   80.3560  223.6320 C   0  0  0  0  0  0  0  0  0  0  0  0
  141.3500   79.9590  223.5110 C   0  0  0  0  0  0  0  0  0  0  0  0
  141.6740   78.7730  222.8940 C   0  0  0  0  0  0  0  0  0  0  0  0
  140.6850   77.9590  222.3850 C   0  0  0  0  0  0  0  0  0  0  0  0
  141.0730   76.6790  221.7260 C   0  0  0  0  0  0  0  0  0  0  0  0
  140.0220   73.4090  222.7130 N   0  0  0  0  0  0  0  0  0  0  0  0
  140.7460   71.0970  224.7210 C   0  0  0  0  0  0  0  0  0  0  0  0
  139.4854   66.9569  227.9354 H   0  0  0  0  0  0  0  0  0  0  0  0
  140.8628   68.8739  228.7393 H   0  0  0  0  0  0  0  0  0  0  0  0
  141.4152   70.7424  227.2437 H   0  0  0  0  0  0  0  0  0  0  0  0
  138.6745   66.9739  225.5467 H   0  0  0  0  0  0  0  0  0  0  0  0
  139.8804   68.4048  223.0581 H   0  0  0  0  0  0  0  0  0  0  0  0
  138.2218   68.1787  223.6432 H   0  0  0  0  0  0  0  0  0  0  0  0
  138.5190   70.2719  222.2707 H   0  0  0  0  0  0  0  0  0  0  0  0
  137.9705   70.5974  223.9731 H   0  0  0  0  0  0  0  0  0  0  0  0
  141.2690   71.3670  218.7150 H   0  0  0  0  0  0  0  0  0  0  0  0
  143.5659   71.9914  218.2519 H   0  0  0  0  0  0  0  0  0  0  0  0
  142.8053   73.6251  218.2818 H   0  0  0  0  0  0  0  0  0  0  0  0
  143.0765   72.8174  220.8748 H   0  0  0  0  0  0  0  0  0  0  0  0
  144.9512   71.2700  220.4925 H   0  0  0  0  0  0  0  0  0  0  0  0
  145.6230   72.1914  219.1900 H   0  0  0  0  0  0  0  0  0  0  0  0
  145.4740   72.9250  222.2066 H   0  0  0  0  0  0  0  0  0  0  0  0
  146.9179   72.9567  221.2120 H   0  0  0  0  0  0  0  0  0  0  0  0
  146.2850   74.8740  220.2300 H   0  0  0  0  0  0  0  0  0  0  0  0
  143.5125   75.0693  220.7480 H   0  0  0  0  0  0  0  0  0  0  0  0
  144.3124   74.9310  219.1631 H   0  0  0  0  0  0  0  0  0  0  0  0
  137.9826   75.3216  222.0545 H   0  0  0  0  0  0  0  0  0  0  0  0
  138.6717   76.0434  223.5435 H   0  0  0  0  0  0  0  0  0  0  0  0
  138.3788   77.4651  220.8368 H   0  0  0  0  0  0  0  0  0  0  0  0
  137.3257   77.7287  222.2356 H   0  0  0  0  0  0  0  0  0  0  0  0
  137.9864   79.8525  223.2134 H   0  0  0  0  0  0  0  0  0  0  0  0
  139.7945   81.3063  224.1271 H   0  0  0  0  0  0  0  0  0  0  0  0
  142.1503   80.5977  223.9129 H   0  0  0  0  0  0  0  0  0  0  0  0
  142.7285   78.4725  222.8063 H   0  0  0  0  0  0  0  0  0  0  0  0
  141.1757   76.8328  220.6417 H   0  0  0  0  0  0  0  0  0  0  0  0
  142.0363   76.3217  222.1190 H   0  0  0  0  0  0  0  0  0  0  0  0
  141.8017   71.0106  224.4242 H   0  0  0  0  0  0  0  0  0  0  0  0
  140.6068   72.0222  225.2995 H   0  0  0  0  0  0  0  0  0  0  0  0
  1  2  2  0
  2  3  1  0
  3  4  2  0
  4  5  1  0
  5  6  2  0
  5  7  1  0
  7  8  1  0
  8  9  1  0
  9 10  1  0
 10 11  2  0
 11 12  1  0
 12 13  1  0
 13 14  1  0
 14 15  1  0
 15 16  1  0
 16 17  1  0
 17 18  1  0
 18 19  1  0
 12 20  2  0
 20 21  1  0
 21 22  1  0
 22 23  1  0
 23 24  1  0
 24 25  1  0
 25 26  2  0
 26 27  1  0
 27 28  2  0
 28 29  1  0
 29 30  2  0
 30 31  1  0
 21 32  2  0
  9 33  1  0
  6  1  1  0
 32 10  1  0
 33  4  1  0
 19 15  1  0
 31 22  1  0
 30 25  1  0
  1 34  1  0
  2 35  1  0
  3 36  1  0
  6 37  1  0
  7 38  1  0
  7 39  1  0
  8 40  1  0
  8 41  1  0
 13 42  1  0
 14 43  1  0
 14 44  1  0
 15 45  1  1
 16 46  1  0
 16 47  1  0
 17 48  1  0
 17 49  1  0
 18 50  1  0
 19 51  1  0
 19 52  1  0
 23 53  1  0
 23 54  1  0
 24 55  1  0
 24 56  1  0
 26 57  1  0
 27 58  1  0
 28 59  1  0
 29 60  1  0
 31 61  1  0
 31 62  1  0
 33 63  1  0
 33 64  1  0
M  END
>  <smiles>  (79) 
c1ccc2c(c1)CCN(c1nc(NCC3CCNC3)nc(N3CCc4ccccc4C3)n1)C2

>  <score_type>  (79) 
oracle

>  <origin>  (79) 
autodockgpu

>  <m_score__min__energy>  (79) 
-10.470000000000001

>  <m_primary>  (79) 
energy

>  <rmsd>  (79) 
11.374583893128273

>  <m_score__min__rmsd>  (79) 
11.374583893128273

>  <meeko>  (79) 
{"free_energy": -10.22, "intermolecular_energy": -11.71, "internal_energy": -1.13, "cluster_size": 50, "cluster_id": 1, "rank_in_cluster": 24}

>  <energy>  (79) 
-10.19

>  <cluster_rmsd>  (79) 
0.8

>  <cluster>  (79) 
1

$$$$

     RDKit          3D

 64 69  0  0  0  0  0  0  0  0999 V2000
  139.7560   80.4710  223.2120 C   0  0  0  0  0  0  0  0  0  0  0  0
  141.0930   80.1400  223.0450 C   0  0  0  0  0  0  0  0  0  0  0  0
  141.4780   78.8440  222.7690 C   0  0  0  0  0  0  0  0  0  0  0  0
  140.5500   77.8140  222.6450 C   0  0  0  0  0  0  0  0  0  0  0  0
  139.2320   78.1650  222.8150 C   0  0  0  0  0  0  0  0  0  0  0  0
  138.8060   79.4510  223.0920 C   0  0  0  0  0  0  0  0  0  0  0  0
  138.1710   77.1250  222.7060 C   0  0  0  0  0  0  0  0  0  0  0  0
  138.6330   76.1570  221.6390 C   0  0  0  0  0  0  0  0  0  0  0  0
  139.9530   75.6460  221.8990 N   0  0  0  0  0  0  0  0  0  0  0  0
  140.2280   74.2500  221.7280 C   0  0  0  0  0  0  0  0  0  0  0  0
  140.7860   73.7890  220.5960 N   0  0  0  0  0  0  0  0  0  0  0  0
  141.0530   72.4580  220.4570 C   0  0  0  0  0  0  0  0  0  0  0  0
  141.6460   72.0990  219.1980 N   0  0  0  0  0  0  0  0  0  0  0  0
  142.8760   71.3340  219.2830 C   0  0  0  0  0  0  0  0  0  0  0  0
  144.0510   72.2520  219.3570 C   0  0  1  0  0  0  0  0  0  0  0  0
  144.1450   72.9620  220.6880 C   0  0  0  0  0  0  0  0  0  0  0  0
  145.5930   73.4530  220.6250 C   0  0  0  0  0  0  0  0  0  0  0  0
  146.2960   72.3410  220.0710 N   0  0  0  0  0  0  0  0  0  0  0  0
  145.3890   71.5990  219.2460 C   0  0  0  0  0  0  0  0  0  0  0  0
  140.7800   71.5650  221.4170 N   0  0  0  0  0  0  0  0  0  0  0  0
  140.2200   72.0400  222.5530 C   0  0  0  0  0  0  0  0  0  0  0  0
  139.9380   71.1140  223.6110 N   0  0  0  0  0  0  0  0  0  0  0  0
  139.4410   69.8050  223.2320 C   0  0  0  0  0  0  0  0  0  0  0  0
  138.5590   69.2710  224.3450 C   0  0  0  0  0  0  0  0  0  0  0  0
  139.4330   69.1940  225.5600 C   0  0  0  0  0  0  0  0  0  0  0  0
  139.4860   68.0840  226.3650 C   0  0  0  0  0  0  0  0  0  0  0  0
  140.3170   68.0850  227.4710 C   0  0  0  0  0  0  0  0  0  0  0  0
  141.0730   69.1970  227.7430 C   0  0  0  0  0  0  0  0  0  0  0  0
  141.0140   70.3060  226.9320 C   0  0  0  0  0  0  0  0  0  0  0  0
  140.1910   70.3190  225.8260 C   0  0  0  0  0  0  0  0  0  0  0  0
  140.1560   71.5360  224.9670 C   0  0  0  0  0  0  0  0  0  0  0  0
  139.9550   73.3530  222.6910 N   0  0  0  0  0  0  0  0  0  0  0  0
  141.0510   76.4710  222.3480 C   0  0  0  0  0  0  0  0  0  0  0  0
  139.4519   81.5049  223.4323 H   0  0  0  0  0  0  0  0  0  0  0  0
  141.8592   80.9242  223.1341 H   0  0  0  0  0  0  0  0  0  0  0  0
  142.5473   78.6187  222.6436 H   0  0  0  0  0  0  0  0  0  0  0  0
  137.7350   79.6690  223.2163 H   0  0  0  0  0  0  0  0  0  0  0  0
  138.0491   76.6032  223.6666 H   0  0  0  0  0  0  0  0  0  0  0  0
  137.1992   77.5709  222.4475 H   0  0  0  0  0  0  0  0  0  0  0  0
  137.9287   75.3130  221.5983 H   0  0  0  0  0  0  0  0  0  0  0  0
  138.6650   76.7003  220.6831 H   0  0  0  0  0  0  0  0  0  0  0  0
  141.2100   72.3810  218.3130 H   0  0  0  0  0  0  0  0  0  0  0  0
  142.8502   70.7037  220.1842 H   0  0  0  0  0  0  0  0  0  0  0  0
  142.9691   70.7040  218.3861 H   0  0  0  0  0  0  0  0  0  0  0  0
  143.8567   72.9125  218.4991 H   0  0  0  0  0  0  0  0  0  0  0  0
  143.4331   73.7978  220.7561 H   0  0  0  0  0  0  0  0  0  0  0  0
  143.9040   72.3404  221.5629 H   0  0  0  0  0  0  0  0  0  0  0  0
  145.6809   74.3370  219.9763 H   0  0  0  0  0  0  0  0  0  0  0  0
  145.9842   73.7630  221.6052 H   0  0  0  0  0  0  0  0  0  0  0  0
  146.7120   71.7800  220.8460 H   0  0  0  0  0  0  0  0  0  0  0  0
  145.7308   71.6168  218.2006 H   0  0  0  0  0  0  0  0  0  0  0  0
  145.3378   70.5492  219.5706 H   0  0  0  0  0  0  0  0  0  0  0  0
  138.8554   69.8871  222.3044 H   0  0  0  0  0  0  0  0  0  0  0  0
  140.2857   69.1202  223.0659 H   0  0  0  0  0  0  0  0  0  0  0  0
  137.7141   69.9522  224.5239 H   0  0  0  0  0  0  0  0  0  0  0  0
  138.1357   68.2886  224.0889 H   0  0  0  0  0  0  0  0  0  0  0  0
  138.8728   67.2008  226.1328 H   0  0  0  0  0  0  0  0  0  0  0  0
  140.3711   67.2028  228.1259 H   0  0  0  0  0  0  0  0  0  0  0  0
  141.7351   69.2016  228.6214 H   0  0  0  0  0  0  0  0  0  0  0  0
  141.6274   71.1883  227.1672 H   0  0  0  0  0  0  0  0  0  0  0  0
  139.3378   72.1970  225.2887 H   0  0  0  0  0  0  0  0  0  0  0  0
  141.1032   72.0894  225.0482 H   0  0  0  0  0  0  0  0  0  0  0  0
  141.4934   76.0338  223.2553 H   0  0  0  0  0  0  0  0  0  0  0  0
  141.8185   76.5269  221.5620 H   0  0  0  0  0  0  0  0  0  0  0  0
  1  2  2  0
  2  3  1  0
  3  4  2  0
  4  5  1  0
  5  6  2  0
  5  7  1  0
  7  8  1  0
  8  9  1  0
  9 10  1  0
 10 11  2  0
 11 12  1  0
 12 13  1  0
 13 14  1  0
 14 15  1  0
 15 16  1  0
 16 17  1  0
 17 18  1  0
 18 19  1  0
 12 20  2  0
 20 21  1  0
 21 22  1  0
 22 23  1  0
 23 24  1  0
 24 25  1  0
 25 26  2  0
 26 27  1  0
 27 28  2  0
 28 29  1  0
 29 30  2  0
 30 31  1  0
 21 32  2  0
  9 33  1  0
  6  1  1  0
 32 10  1  0
 33  4  1  0
 19 15  1  0
 31 22  1  0
 30 25  1  0
  1 34  1  0
  2 35  1  0
  3 36  1  0
  6 37  1  0
  7 38  1  0
  7 39  1  0
  8 40  1  0
  8 41  1  0
 13 42  1  0
 14 43  1  0
 14 44  1  0
 15 45  1  6
 16 46  1  0
 16 47  1  0
 17 48  1  0
 17 49  1  0
 18 50  1  0
 19 51  1  0
 19 52  1  0
 23 53  1  0
 23 54  1  0
 24 55  1  0
 24 56  1  0
 26 57  1  0
 27 58  1  0
 28 59  1  0
 29 60  1  0
 31 61  1  0
 31 62  1  0
 33 63  1  0
 33 64  1  0
M  END
>  <smiles>  (80) 
c1ccc2c(c1)CCN(c1nc(NCC3CCNC3)nc(N3CCc4ccccc4C3)n1)C2

>  <score_type>  (80) 
oracle

>  <origin>  (80) 
autodockgpu

>  <m_score__min__energy>  (80) 
-10.470000000000001

>  <m_primary>  (80) 
energy

>  <rmsd>  (80) 
5.043209293172715

>  <m_score__min__rmsd>  (80) 
5.043209293172715

>  <meeko>  (80) 
{"free_energy": -10.3, "intermolecular_energy": -11.79, "internal_energy": -0.97, "cluster_size": 50, "cluster_id": 1, "rank_in_cluster": 19}

>  <energy>  (80) 
-10.18

>  <cluster_rmsd>  (80) 
1.03

>  <cluster>  (80) 
1

$$$$

     RDKit          3D

 64 69  0  0  0  0  0  0  0  0999 V2000
  139.7960   80.6420  223.4600 C   0  0  0  0  0  0  0  0  0  0  0  0
  141.1330   80.3120  223.2960 C   0  0  0  0  0  0  0  0  0  0  0  0
  141.5140   79.0350  222.9390 C   0  0  0  0  0  0  0  0  0  0  0  0
  140.5810   78.0230  222.7280 C   0  0  0  0  0  0  0  0  0  0  0  0
  139.2630   78.3730  222.8970 C   0  0  0  0  0  0  0  0  0  0  0  0
  138.8410   79.6400  223.2540 C   0  0  0  0  0  0  0  0  0  0  0  0
  138.1970   77.3520  222.6990 C   0  0  0  0  0  0  0  0  0  0  0  0
  138.6720   76.4550  221.5760 C   0  0  0  0  0  0  0  0  0  0  0  0
  139.9830   75.9170  221.8240 N   0  0  0  0  0  0  0  0  0  0  0  0
  140.2520   74.5330  221.5640 C   0  0  0  0  0  0  0  0  0  0  0  0
  140.8090   74.1440  220.4060 N   0  0  0  0  0  0  0  0  0  0  0  0
  141.0700   72.8240  220.1800 C   0  0  0  0  0  0  0  0  0  0  0  0
  141.6640   72.5440  218.9020 N   0  0  0  0  0  0  0  0  0  0  0  0
  143.0690   72.1830  218.9310 C   0  0  0  0  0  0  0  0  0  0  0  0
  143.7570   72.8770  220.0600 C   0  0  1  0  0  0  0  0  0  0  0  0
  145.1040   72.2680  220.3760 C   0  0  0  0  0  0  0  0  0  0  0  0
  145.7130   73.3940  221.2150 C   0  0  0  0  0  0  0  0  0  0  0  0
  145.3270   74.5770  220.5140 N   0  0  0  0  0  0  0  0  0  0  0  0
  144.1000   74.3100  219.8230 C   0  0  0  0  0  0  0  0  0  0  0  0
  140.7900   71.8720  221.0800 N   0  0  0  0  0  0  0  0  0  0  0  0
  140.2290   72.2740  222.2430 C   0  0  0  0  0  0  0  0  0  0  0  0
  139.9410   71.2830  223.2380 N   0  0  0  0  0  0  0  0  0  0  0  0
  139.4120   70.0140  222.7760 C   0  0  0  0  0  0  0  0  0  0  0  0
  138.5320   69.4220  223.8610 C   0  0  0  0  0  0  0  0  0  0  0  0
  139.4170   69.2430  225.0550 C   0  0  0  0  0  0  0  0  0  0  0  0
  139.4570   68.0790  225.7810 C   0  0  0  0  0  0  0  0  0  0  0  0
  140.3000   67.9860  226.8740 C   0  0  0  0  0  0  0  0  0  0  0  0
  141.0820   69.0610  227.2120 C   0  0  0  0  0  0  0  0  0  0  0  0
  141.0380   70.2250  226.4800 C   0  0  0  0  0  0  0  0  0  0  0  0
  140.2030   70.3310  225.3890 C   0  0  0  0  0  0  0  0  0  0  0  0
  140.1840   71.6060  224.6170 C   0  0  0  0  0  0  0  0  0  0  0  0
  139.9720   73.5770  222.4660 N   0  0  0  0  0  0  0  0  0  0  0  0
  141.0780   76.7000  222.3490 C   0  0  0  0  0  0  0  0  0  0  0  0
  139.4951   81.6613  223.7437 H   0  0  0  0  0  0  0  0  0  0  0  0
  141.9029   81.0817  223.4533 H   0  0  0  0  0  0  0  0  0  0  0  0
  142.5839   78.8101  222.8177 H   0  0  0  0  0  0  0  0  0  0  0  0
  137.7695   79.8576  223.3745 H   0  0  0  0  0  0  0  0  0  0  0  0
  138.0542   76.7669  223.6195 H   0  0  0  0  0  0  0  0  0  0  0  0
  137.2330   77.8223  222.4549 H   0  0  0  0  0  0  0  0  0  0  0  0
  137.9628   75.6215  221.4650 H   0  0  0  0  0  0  0  0  0  0  0  0
  138.7252   77.0620  220.6602 H   0  0  0  0  0  0  0  0  0  0  0  0
  141.1090   72.6070  218.0400 H   0  0  0  0  0  0  0  0  0  0  0  0
  143.1618   71.0949  219.0628 H   0  0  0  0  0  0  0  0  0  0  0  0
  143.5374   72.4880  217.9836 H   0  0  0  0  0  0  0  0  0  0  0  0
  143.0091   72.7721  220.8597 H   0  0  0  0  0  0  0  0  0  0  0  0
  145.0059   71.3363  220.9525 H   0  0  0  0  0  0  0  0  0  0  0  0
  145.6964   71.9714  219.4979 H   0  0  0  0  0  0  0  0  0  0  0  0
  145.3028   73.3900  222.2356 H   0  0  0  0  0  0  0  0  0  0  0  0
  146.8029   73.3008  221.3313 H   0  0  0  0  0  0  0  0  0  0  0  0
  146.1060   74.8700  219.8850 H   0  0  0  0  0  0  0  0  0  0  0  0
  143.3005   74.9574  220.2126 H   0  0  0  0  0  0  0  0  0  0  0  0
  144.2087   74.5105  218.7469 H   0  0  0  0  0  0  0  0  0  0  0  0
  138.8174   70.1722  221.8642 H   0  0  0  0  0  0  0  0  0  0  0  0
  140.2400   69.3254  222.5518 H   0  0  0  0  0  0  0  0  0  0  0  0
  137.7039   70.1062  224.0977 H   0  0  0  0  0  0  0  0  0  0  0  0
  138.0851   68.4685  223.5430 H   0  0  0  0  0  0  0  0  0  0  0  0
  138.8234   67.2262  225.4959 H   0  0  0  0  0  0  0  0  0  0  0  0
  140.3427   67.0597  227.4657 H   0  0  0  0  0  0  0  0  0  0  0  0
  141.7536   68.9914  228.0804 H   0  0  0  0  0  0  0  0  0  0  0  0
  141.6730   71.0760  226.7673 H   0  0  0  0  0  0  0  0  0  0  0  0
  139.3839   72.2597  224.9945 H   0  0  0  0  0  0  0  0  0  0  0  0
  141.1434   72.1334  224.7240 H   0  0  0  0  0  0  0  0  0  0  0  0
  141.4998   76.1979  223.2322 H   0  0  0  0  0  0  0  0  0  0  0  0
  141.8608   76.8032  221.5831 H   0  0  0  0  0  0  0  0  0  0  0  0
  1  2  2  0
  2  3  1  0
  3  4  2  0
  4  5  1  0
  5  6  2  0
  5  7  1  0
  7  8  1  0
  8  9  1  0
  9 10  1  0
 10 11  2  0
 11 12  1  0
 12 13  1  0
 13 14  1  0
 14 15  1  0
 15 16  1  0
 16 17  1  0
 17 18  1  0
 18 19  1  0
 12 20  2  0
 20 21  1  0
 21 22  1  0
 22 23  1  0
 23 24  1  0
 24 25  1  0
 25 26  2  0
 26 27  1  0
 27 28  2  0
 28 29  1  0
 29 30  2  0
 30 31  1  0
 21 32  2  0
  9 33  1  0
  6  1  1  0
 32 10  1  0
 33  4  1  0
 19 15  1  0
 31 22  1  0
 30 25  1  0
  1 34  1  0
  2 35  1  0
  3 36  1  0
  6 37  1  0
  7 38  1  0
  7 39  1  0
  8 40  1  0
  8 41  1  0
 13 42  1  0
 14 43  1  0
 14 44  1  0
 15 45  1  1
 16 46  1  0
 16 47  1  0
 17 48  1  0
 17 49  1  0
 18 50  1  0
 19 51  1  0
 19 52  1  0
 23 53  1  0
 23 54  1  0
 24 55  1  0
 24 56  1  0
 26 57  1  0
 27 58  1  0
 28 59  1  0
 29 60  1  0
 31 61  1  0
 31 62  1  0
 33 63  1  0
 33 64  1  0
M  END
>  <smiles>  (81) 
c1ccc2c(c1)CCN(c1nc(NCC3CCNC3)nc(N3CCc4ccccc4C3)n1)C2

>  <score_type>  (81) 
oracle

>  <origin>  (81) 
autodockgpu

>  <m_score__min__energy>  (81) 
-10.470000000000001

>  <m_primary>  (81) 
energy

>  <rmsd>  (81) 
5.134977724028114

>  <m_score__min__rmsd>  (81) 
5.134977724028114

>  <meeko>  (81) 
{"free_energy": -9.98, "intermolecular_energy": -11.47, "internal_energy": -1.14, "cluster_size": 50, "cluster_id": 1, "rank_in_cluster": 43}

>  <energy>  (81) 
-10.17

>  <cluster_rmsd>  (81) 
1.03

>  <cluster>  (81) 
1

$$$$

     RDKit          3D

 64 69  0  0  0  0  0  0  0  0999 V2000
  139.4090   80.5890  223.3570 C   0  0  0  0  0  0  0  0  0  0  0  0
  140.7730   80.3790  223.2180 C   0  0  0  0  0  0  0  0  0  0  0  0
  141.2750   79.1310  222.9110 C   0  0  0  0  0  0  0  0  0  0  0  0
  140.4420   78.0310  222.7270 C   0  0  0  0  0  0  0  0  0  0  0  0
  139.0940   78.2620  222.8700 C   0  0  0  0  0  0  0  0  0  0  0  0
  138.5530   79.4970  223.1770 C   0  0  0  0  0  0  0  0  0  0  0  0
  138.1290   77.1410  222.6970 C   0  0  0  0  0  0  0  0  0  0  0  0
  138.7010   76.2530  221.6130 C   0  0  0  0  0  0  0  0  0  0  0  0
  140.0520   75.8480  221.8930 N   0  0  0  0  0  0  0  0  0  0  0  0
  140.4500   74.4860  221.6850 C   0  0  0  0  0  0  0  0  0  0  0  0
  141.1950   74.1390  220.6220 N   0  0  0  0  0  0  0  0  0  0  0  0
  141.5750   72.8410  220.4470 C   0  0  0  0  0  0  0  0  0  0  0  0
  142.3650   72.6060  219.2700 N   0  0  0  0  0  0  0  0  0  0  0  0
  143.0480   73.7680  218.7330 C   0  0  0  0  0  0  0  0  0  0  0  0
  144.4940   73.7330  219.1020 C   0  0  1  0  0  0  0  0  0  0  0  0
  144.7270   74.0850  220.5540 C   0  0  0  0  0  0  0  0  0  0  0  0
  146.1560   73.5630  220.7260 C   0  0  0  0  0  0  0  0  0  0  0  0
  146.1420   72.3200  220.0230 N   0  0  0  0  0  0  0  0  0  0  0  0
  145.1590   72.4020  218.9830 C   0  0  0  0  0  0  0  0  0  0  0  0
  141.2350   71.8700  221.3050 N   0  0  0  0  0  0  0  0  0  0  0  0
  140.4860   72.2300  222.3720 C   0  0  0  0  0  0  0  0  0  0  0  0
  140.1260   71.2190  223.3230 N   0  0  0  0  0  0  0  0  0  0  0  0
  139.5670   69.9870  222.8010 C   0  0  0  0  0  0  0  0  0  0  0  0
  138.6280   69.3950  223.8350 C   0  0  0  0  0  0  0  0  0  0  0  0
  139.4640   69.1430  225.0520 C   0  0  0  0  0  0  0  0  0  0  0  0
  139.4350   67.9550  225.7390 C   0  0  0  0  0  0  0  0  0  0  0  0
  140.2350   67.7950  226.8560 C   0  0  0  0  0  0  0  0  0  0  0  0
  141.0450   68.8280  227.2560 C   0  0  0  0  0  0  0  0  0  0  0  0
  141.0690   70.0150  226.5630 C   0  0  0  0  0  0  0  0  0  0  0  0
  140.2780   70.1890  225.4480 C   0  0  0  0  0  0  0  0  0  0  0  0
  140.3330   71.4880  224.7190 C   0  0  0  0  0  0  0  0  0  0  0  0
  140.1100   73.5110  222.5450 N   0  0  0  0  0  0  0  0  0  0  0  0
  141.0630   76.7460  222.4000 C   0  0  0  0  0  0  0  0  0  0  0  0
  139.0118   81.5852  223.6016 H   0  0  0  0  0  0  0  0  0  0  0  0
  141.4664   81.2219  223.3549 H   0  0  0  0  0  0  0  0  0  0  0  0
  142.3626   79.0018  222.8089 H   0  0  0  0  0  0  0  0  0  0  0  0
  137.4645   79.6192  223.2783 H   0  0  0  0  0  0  0  0  0  0  0  0
  138.0267   76.5779  223.6364 H   0  0  0  0  0  0  0  0  0  0  0  0
  137.1296   77.5115  222.4250 H   0  0  0  0  0  0  0  0  0  0  0  0
  138.0736   75.3538  221.5252 H   0  0  0  0  0  0  0  0  0  0  0  0
  138.7109   76.8303  220.6767 H   0  0  0  0  0  0  0  0  0  0  0  0
  142.4200   71.6690  218.8540 H   0  0  0  0  0  0  0  0  0  0  0  0
  142.9527   73.7711  217.6371 H   0  0  0  0  0  0  0  0  0  0  0  0
  142.5927   74.6773  219.1524 H   0  0  0  0  0  0  0  0  0  0  0  0
  144.9125   74.4536  218.3839 H   0  0  0  0  0  0  0  0  0  0  0  0
  144.6647   75.1696  220.7265 H   0  0  0  0  0  0  0  0  0  0  0  0
  143.9920   73.6657  221.2569 H   0  0  0  0  0  0  0  0  0  0  0  0
  146.8847   74.2576  220.2826 H   0  0  0  0  0  0  0  0  0  0  0  0
  146.4498   73.4562  221.7806 H   0  0  0  0  0  0  0  0  0  0  0  0
  145.9720   71.5460  220.7010 H   0  0  0  0  0  0  0  0  0  0  0  0
  145.6433   72.3102  217.9996 H   0  0  0  0  0  0  0  0  0  0  0  0
  144.4232   71.5900  219.0789 H   0  0  0  0  0  0  0  0  0  0  0  0
  139.0113   70.1971  221.8752 H   0  0  0  0  0  0  0  0  0  0  0  0
  140.3761   69.2747  222.5820 H   0  0  0  0  0  0  0  0  0  0  0  0
  137.8186   70.1029  224.0667 H   0  0  0  0  0  0  0  0  0  0  0  0
  138.1567   68.4705  223.4702 H   0  0  0  0  0  0  0  0  0  0  0  0
  138.7807   67.1367  225.4039 H   0  0  0  0  0  0  0  0  0  0  0  0
  140.2221   66.8494  227.4179 H   0  0  0  0  0  0  0  0  0  0  0  0
  141.6837   68.7046  228.1431 H   0  0  0  0  0  0  0  0  0  0  0  0
  141.7241   70.8315  226.9008 H   0  0  0  0  0  0  0  0  0  0  0  0
  139.5451   72.1593  225.0913 H   0  0  0  0  0  0  0  0  0  0  0  0
  141.3069   71.9748  224.8755 H   0  0  0  0  0  0  0  0  0  0  0  0
  141.5177   76.3158  223.3046 H   0  0  0  0  0  0  0  0  0  0  0  0
  141.8426   76.8943  221.6383 H   0  0  0  0  0  0  0  0  0  0  0  0
  1  2  2  0
  2  3  1  0
  3  4  2  0
  4  5  1  0
  5  6  2  0
  5  7  1  0
  7  8  1  0
  8  9  1  0
  9 10  1  0
 10 11  2  0
 11 12  1  0
 12 13  1  0
 13 14  1  0
 14 15  1  0
 15 16  1  0
 16 17  1  0
 17 18  1  0
 18 19  1  0
 12 20  2  0
 20 21  1  0
 21 22  1  0
 22 23  1  0
 23 24  1  0
 24 25  1  0
 25 26  2  0
 26 27  1  0
 27 28  2  0
 28 29  1  0
 29 30  2  0
 30 31  1  0
 21 32  2  0
  9 33  1  0
  6  1  1  0
 32 10  1  0
 33  4  1  0
 19 15  1  0
 31 22  1  0
 30 25  1  0
  1 34  1  0
  2 35  1  0
  3 36  1  0
  6 37  1  0
  7 38  1  0
  7 39  1  0
  8 40  1  0
  8 41  1  0
 13 42  1  0
 14 43  1  0
 14 44  1  0
 15 45  1  6
 16 46  1  0
 16 47  1  0
 17 48  1  0
 17 49  1  0
 18 50  1  0
 19 51  1  0
 19 52  1  0
 23 53  1  0
 23 54  1  0
 24 55  1  0
 24 56  1  0
 26 57  1  0
 27 58  1  0
 28 59  1  0
 29 60  1  0
 31 61  1  0
 31 62  1  0
 33 63  1  0
 33 64  1  0
M  END
>  <smiles>  (82) 
c1ccc2c(c1)CCN(c1nc(NCC3CCNC3)nc(N3CCc4ccccc4C3)n1)C2

>  <score_type>  (82) 
oracle

>  <origin>  (82) 
autodockgpu

>  <m_score__min__energy>  (82) 
-10.470000000000001

>  <m_primary>  (82) 
energy

>  <rmsd>  (82) 
5.059356446475703

>  <m_score__min__rmsd>  (82) 
5.059356446475703

>  <meeko>  (82) 
{"free_energy": -10.38, "intermolecular_energy": -11.87, "internal_energy": -1.03, "cluster_size": 50, "cluster_id": 1, "rank_in_cluster": 12}

>  <energy>  (82) 
-10.16

>  <cluster_rmsd>  (82) 
0.78

>  <cluster>  (82) 
1

$$$$

     RDKit          3D

 64 69  0  0  0  0  0  0  0  0999 V2000
  139.5830   67.7610  227.1920 C   0  0  0  0  0  0  0  0  0  0  0  0
  140.3360   68.8160  227.6850 C   0  0  0  0  0  0  0  0  0  0  0  0
  140.6980   69.8730  226.8760 C   0  0  0  0  0  0  0  0  0  0  0  0
  140.3280   69.9300  225.5350 C   0  0  0  0  0  0  0  0  0  0  0  0
  139.5830   68.8740  225.0680 C   0  0  0  0  0  0  0  0  0  0  0  0
  139.2010   67.7970  225.8470 C   0  0  0  0  0  0  0  0  0  0  0  0
  139.1490   68.8490  223.6440 C   0  0  0  0  0  0  0  0  0  0  0  0
  138.8690   70.2860  223.2610 C   0  0  0  0  0  0  0  0  0  0  0  0
  139.9830   71.1530  223.5350 N   0  0  0  0  0  0  0  0  0  0  0  0
  140.3870   72.1300  222.5670 C   0  0  0  0  0  0  0  0  0  0  0  0
  141.0830   71.7740  221.4750 N   0  0  0  0  0  0  0  0  0  0  0  0
  141.4480   72.7160  220.5590 C   0  0  0  0  0  0  0  0  0  0  0  0
  142.1910   72.2020  219.4410 N   0  0  0  0  0  0  0  0  0  0  0  0
  142.8770   73.1970  218.6370 C   0  0  0  0  0  0  0  0  0  0  0  0
  144.2680   73.4000  219.1420 C   0  0  1  0  0  0  0  0  0  0  0  0
  144.3210   74.3550  220.3130 C   0  0  0  0  0  0  0  0  0  0  0  0
  145.7170   74.0340  220.8520 C   0  0  0  0  0  0  0  0  0  0  0  0
  145.7880   72.6110  220.7620 N   0  0  0  0  0  0  0  0  0  0  0  0
  144.9400   72.1850  219.6880 C   0  0  0  0  0  0  0  0  0  0  0  0
  141.1380   74.0120  220.6960 N   0  0  0  0  0  0  0  0  0  0  0  0
  140.4370   74.3590  221.7990 C   0  0  0  0  0  0  0  0  0  0  0  0
  140.0670   75.7350  221.9640 N   0  0  0  0  0  0  0  0  0  0  0  0
  138.6950   76.0110  222.3470 C   0  0  0  0  0  0  0  0  0  0  0  0
  138.2920   77.3650  221.7940 C   0  0  0  0  0  0  0  0  0  0  0  0
  139.2390   78.3550  222.4010 C   0  0  0  0  0  0  0  0  0  0  0  0
  138.8180   79.5280  222.9740 C   0  0  0  0  0  0  0  0  0  0  0  0
  139.7510   80.3940  223.5150 C   0  0  0  0  0  0  0  0  0  0  0  0
  141.0820   80.0640  223.4680 C   0  0  0  0  0  0  0  0  0  0  0  0
  141.4970   78.8860  222.8910 C   0  0  0  0  0  0  0  0  0  0  0  0
  140.5780   78.0130  222.3490 C   0  0  0  0  0  0  0  0  0  0  0  0
  141.0630   76.7440  221.7360 C   0  0  0  0  0  0  0  0  0  0  0  0
  140.0770   73.4300  222.7040 N   0  0  0  0  0  0  0  0  0  0  0  0
  140.7560   71.0930  224.7550 C   0  0  0  0  0  0  0  0  0  0  0  0
  139.2945   66.9202  227.8400 H   0  0  0  0  0  0  0  0  0  0  0  0
  140.6500   68.8098  228.7392 H   0  0  0  0  0  0  0  0  0  0  0  0
  141.2950   70.6929  227.3018 H   0  0  0  0  0  0  0  0  0  0  0  0
  138.6049   66.9798  225.4147 H   0  0  0  0  0  0  0  0  0  0  0  0
  139.9463   68.4341  223.0099 H   0  0  0  0  0  0  0  0  0  0  0  0
  138.2584   68.2178  223.5081 H   0  0  0  0  0  0  0  0  0  0  0  0
  138.6452   70.3277  222.1848 H   0  0  0  0  0  0  0  0  0  0  0  0
  138.0169   70.6339  223.8634 H   0  0  0  0  0  0  0  0  0  0  0  0
  142.2140   71.1950  219.2440 H   0  0  0  0  0  0  0  0  0  0  0  0
  142.9162   72.8555  217.5921 H   0  0  0  0  0  0  0  0  0  0  0  0
  142.3298   74.1491  218.7011 H   0  0  0  0  0  0  0  0  0  0  0  0
  144.7727   73.7608  218.2336 H   0  0  0  0  0  0  0  0  0  0  0  0
  144.2390   75.4031  219.9895 H   0  0  0  0  0  0  0  0  0  0  0  0
  143.5048   74.2416  221.0417 H   0  0  0  0  0  0  0  0  0  0  0  0
  146.4953   74.5066  220.2349 H   0  0  0  0  0  0  0  0  0  0  0  0
  145.8790   74.4080  221.8737 H   0  0  0  0  0  0  0  0  0  0  0  0
  145.5350   72.1970  221.6860 H   0  0  0  0  0  0  0  0  0  0  0  0
  145.5409   71.7028  218.9029 H   0  0  0  0  0  0  0  0  0  0  0  0
  144.1966   71.4571  220.0451 H   0  0  0  0  0  0  0  0  0  0  0  0
  138.0339   75.2333  221.9370 H   0  0  0  0  0  0  0  0  0  0  0  0
  138.6086   76.0162  223.4436 H   0  0  0  0  0  0  0  0  0  0  0  0
  138.3814   77.3725  220.6977 H   0  0  0  0  0  0  0  0  0  0  0  0
  137.2463   77.6053  222.0366 H   0  0  0  0  0  0  0  0  0  0  0  0
  137.7472   79.7779  223.0030 H   0  0  0  0  0  0  0  0  0  0  0  0
  139.4291   81.3382  223.9785 H   0  0  0  0  0  0  0  0  0  0  0  0
  141.8269   80.7502  223.8972 H   0  0  0  0  0  0  0  0  0  0  0  0
  142.5686   78.6393  222.8620 H   0  0  0  0  0  0  0  0  0  0  0  0
  141.2125   76.8842  220.6552 H   0  0  0  0  0  0  0  0  0  0  0  0
  142.0219   76.4441  222.1838 H   0  0  0  0  0  0  0  0  0  0  0  0
  141.8244   70.9998  224.5103 H   0  0  0  0  0  0  0  0  0  0  0  0
  140.5979   72.0110  225.3401 H   0  0  0  0  0  0  0  0  0  0  0  0
  1  2  2  0
  2  3  1  0
  3  4  2  0
  4  5  1  0
  5  6  2  0
  5  7  1  0
  7  8  1  0
  8  9  1  0
  9 10  1  0
 10 11  2  0
 11 12  1  0
 12 13  1  0
 13 14  1  0
 14 15  1  0
 15 16  1  0
 16 17  1  0
 17 18  1  0
 18 19  1  0
 12 20  2  0
 20 21  1  0
 21 22  1  0
 22 23  1  0
 23 24  1  0
 24 25  1  0
 25 26  2  0
 26 27  1  0
 27 28  2  0
 28 29  1  0
 29 30  2  0
 30 31  1  0
 21 32  2  0
  9 33  1  0
  6  1  1  0
 32 10  1  0
 33  4  1  0
 19 15  1  0
 31 22  1  0
 30 25  1  0
  1 34  1  0
  2 35  1  0
  3 36  1  0
  6 37  1  0
  7 38  1  0
  7 39  1  0
  8 40  1  0
  8 41  1  0
 13 42  1  0
 14 43  1  0
 14 44  1  0
 15 45  1  6
 16 46  1  0
 16 47  1  0
 17 48  1  0
 17 49  1  0
 18 50  1  0
 19 51  1  0
 19 52  1  0
 23 53  1  0
 23 54  1  0
 24 55  1  0
 24 56  1  0
 26 57  1  0
 27 58  1  0
 28 59  1  0
 29 60  1  0
 31 61  1  0
 31 62  1  0
 33 63  1  0
 33 64  1  0
M  END
>  <smiles>  (83) 
c1ccc2c(c1)CCN(c1nc(NCC3CCNC3)nc(N3CCc4ccccc4C3)n1)C2

>  <score_type>  (83) 
oracle

>  <origin>  (83) 
autodockgpu

>  <m_score__min__energy>  (83) 
-10.470000000000001

>  <m_primary>  (83) 
energy

>  <rmsd>  (83) 
11.364669581325787

>  <m_score__min__rmsd>  (83) 
11.364669581325787

>  <meeko>  (83) 
{"free_energy": -10.13, "intermolecular_energy": -11.62, "internal_energy": -1.09, "cluster_size": 50, "cluster_id": 1, "rank_in_cluster": 36}

>  <energy>  (83) 
-10.16

>  <cluster_rmsd>  (83) 
0.8

>  <cluster>  (83) 
1

$$$$

     RDKit          3D

 64 69  0  0  0  0  0  0  0  0999 V2000
  139.4000   80.6140  223.3260 C   0  0  0  0  0  0  0  0  0  0  0  0
  140.7660   80.3810  223.2640 C   0  0  0  0  0  0  0  0  0  0  0  0
  141.2630   79.1280  222.9680 C   0  0  0  0  0  0  0  0  0  0  0  0
  140.4230   78.0460  222.7200 C   0  0  0  0  0  0  0  0  0  0  0  0
  139.0740   78.3000  222.7870 C   0  0  0  0  0  0  0  0  0  0  0  0
  138.5370   79.5400  223.0810 C   0  0  0  0  0  0  0  0  0  0  0  0
  138.1020   77.1990  222.5430 C   0  0  0  0  0  0  0  0  0  0  0  0
  138.7200   76.3160  221.4800 C   0  0  0  0  0  0  0  0  0  0  0  0
  140.0460   75.8820  221.8330 N   0  0  0  0  0  0  0  0  0  0  0  0
  140.4320   74.5170  221.6280 C   0  0  0  0  0  0  0  0  0  0  0  0
  141.1630   74.1590  220.5600 N   0  0  0  0  0  0  0  0  0  0  0  0
  141.5320   72.8570  220.3890 C   0  0  0  0  0  0  0  0  0  0  0  0
  142.3080   72.6090  219.2040 N   0  0  0  0  0  0  0  0  0  0  0  0
  142.9890   73.7650  218.6500 C   0  0  0  0  0  0  0  0  0  0  0  0
  144.4340   73.7420  219.0250 C   0  0  1  0  0  0  0  0  0  0  0  0
  144.6540   74.0340  220.4920 C   0  0  0  0  0  0  0  0  0  0  0  0
  146.0920   73.5330  220.6490 C   0  0  0  0  0  0  0  0  0  0  0  0
  146.1050   72.3220  219.8920 N   0  0  0  0  0  0  0  0  0  0  0  0
  145.1240   72.4290  218.8520 C   0  0  0  0  0  0  0  0  0  0  0  0
  141.1950   71.8930  221.2550 N   0  0  0  0  0  0  0  0  0  0  0  0
  140.4590   72.2640  222.3280 C   0  0  0  0  0  0  0  0  0  0  0  0
  140.1020   71.2620  223.2880 N   0  0  0  0  0  0  0  0  0  0  0  0
  139.5300   70.0290  222.7790 C   0  0  0  0  0  0  0  0  0  0  0  0
  138.5970   69.4490  223.8250 C   0  0  0  0  0  0  0  0  0  0  0  0
  139.4430   69.2000  225.0360 C   0  0  0  0  0  0  0  0  0  0  0  0
  139.4130   68.0170  225.7300 C   0  0  0  0  0  0  0  0  0  0  0  0
  140.2220   67.8580  226.8410 C   0  0  0  0  0  0  0  0  0  0  0  0
  141.0410   68.8880  227.2270 C   0  0  0  0  0  0  0  0  0  0  0  0
  141.0670   70.0720  226.5270 C   0  0  0  0  0  0  0  0  0  0  0  0
  140.2660   70.2430  225.4180 C   0  0  0  0  0  0  0  0  0  0  0  0
  140.3220   71.5370  224.6800 C   0  0  0  0  0  0  0  0  0  0  0  0
  140.0940   73.5490  222.4970 N   0  0  0  0  0  0  0  0  0  0  0  0
  141.0410   76.7560  222.4110 C   0  0  0  0  0  0  0  0  0  0  0  0
  139.0065   81.6140  223.5609 H   0  0  0  0  0  0  0  0  0  0  0  0
  141.4649   81.2089  223.4540 H   0  0  0  0  0  0  0  0  0  0  0  0
  142.3523   78.9803  222.9269 H   0  0  0  0  0  0  0  0  0  0  0  0
  137.4467   79.6801  223.1217 H   0  0  0  0  0  0  0  0  0  0  0  0
  137.9368   76.6248  223.4666 H   0  0  0  0  0  0  0  0  0  0  0  0
  137.1261   77.5908  222.2202 H   0  0  0  0  0  0  0  0  0  0  0  0
  138.0829   75.4300  221.3420 H   0  0  0  0  0  0  0  0  0  0  0  0
  138.7944   76.9057  220.5544 H   0  0  0  0  0  0  0  0  0  0  0  0
  142.3560   71.6690  218.7960 H   0  0  0  0  0  0  0  0  0  0  0  0
  142.8979   73.7494  217.5539 H   0  0  0  0  0  0  0  0  0  0  0  0
  142.5286   74.6793  219.0525 H   0  0  0  0  0  0  0  0  0  0  0  0
  144.8420   74.5015  218.3418 H   0  0  0  0  0  0  0  0  0  0  0  0
  144.5696   75.1085  220.7117 H   0  0  0  0  0  0  0  0  0  0  0  0
  143.9244   73.5696  221.1717 H   0  0  0  0  0  0  0  0  0  0  0  0
  146.8090   74.2603  220.2405 H   0  0  0  0  0  0  0  0  0  0  0  0
  146.3833   73.3860  221.6995 H   0  0  0  0  0  0  0  0  0  0  0  0
  145.9460   71.5160  220.5360 H   0  0  0  0  0  0  0  0  0  0  0  0
  145.6131   72.3877  217.8676 H   0  0  0  0  0  0  0  0  0  0  0  0
  144.4033   71.6000  218.9100 H   0  0  0  0  0  0  0  0  0  0  0  0
  138.9670   70.2366  221.8571 H   0  0  0  0  0  0  0  0  0  0  0  0
  140.3328   69.3104  222.5576 H   0  0  0  0  0  0  0  0  0  0  0  0
  137.7938   70.1630  224.0595 H   0  0  0  0  0  0  0  0  0  0  0  0
  138.1169   68.5250  223.4705 H   0  0  0  0  0  0  0  0  0  0  0  0
  138.7506   67.2009  225.4055 H   0  0  0  0  0  0  0  0  0  0  0  0
  140.2084   66.9158  227.4085 H   0  0  0  0  0  0  0  0  0  0  0  0
  141.6866   68.7657  228.1092 H   0  0  0  0  0  0  0  0  0  0  0  0
  141.7303   70.8864  226.8538 H   0  0  0  0  0  0  0  0  0  0  0  0
  139.5411   72.2150  225.0548 H   0  0  0  0  0  0  0  0  0  0  0  0
  141.3004   72.0184  224.8251 H   0  0  0  0  0  0  0  0  0  0  0  0
  141.4353   76.3058  223.3340 H   0  0  0  0  0  0  0  0  0  0  0  0
  141.8660   76.9013  221.6981 H   0  0  0  0  0  0  0  0  0  0  0  0
  1  2  2  0
  2  3  1  0
  3  4  2  0
  4  5  1  0
  5  6  2  0
  5  7  1  0
  7  8  1  0
  8  9  1  0
  9 10  1  0
 10 11  2  0
 11 12  1  0
 12 13  1  0
 13 14  1  0
 14 15  1  0
 15 16  1  0
 16 17  1  0
 17 18  1  0
 18 19  1  0
 12 20  2  0
 20 21  1  0
 21 22  1  0
 22 23  1  0
 23 24  1  0
 24 25  1  0
 25 26  2  0
 26 27  1  0
 27 28  2  0
 28 29  1  0
 29 30  2  0
 30 31  1  0
 21 32  2  0
  9 33  1  0
  6  1  1  0
 32 10  1  0
 33  4  1  0
 19 15  1  0
 31 22  1  0
 30 25  1  0
  1 34  1  0
  2 35  1  0
  3 36  1  0
  6 37  1  0
  7 38  1  0
  7 39  1  0
  8 40  1  0
  8 41  1  0
 13 42  1  0
 14 43  1  0
 14 44  1  0
 15 45  1  6
 16 46  1  0
 16 47  1  0
 17 48  1  0
 17 49  1  0
 18 50  1  0
 19 51  1  0
 19 52  1  0
 23 53  1  0
 23 54  1  0
 24 55  1  0
 24 56  1  0
 26 57  1  0
 27 58  1  0
 28 59  1  0
 29 60  1  0
 31 61  1  0
 31 62  1  0
 33 63  1  0
 33 64  1  0
M  END
>  <smiles>  (84) 
c1ccc2c(c1)CCN(c1nc(NCC3CCNC3)nc(N3CCc4ccccc4C3)n1)C2

>  <score_type>  (84) 
oracle

>  <origin>  (84) 
autodockgpu

>  <m_score__min__energy>  (84) 
-10.470000000000001

>  <m_primary>  (84) 
energy

>  <rmsd>  (84) 
5.043819371661056

>  <m_score__min__rmsd>  (84) 
5.043819371661056

>  <meeko>  (84) 
{"free_energy": -10.36, "intermolecular_energy": -11.85, "internal_energy": -1.03, "cluster_size": 50, "cluster_id": 1, "rank_in_cluster": 14}

>  <energy>  (84) 
-10.16

>  <cluster_rmsd>  (84) 
0.84

>  <cluster>  (84) 
1

$$$$

     RDKit          3D

 64 69  0  0  0  0  0  0  0  0999 V2000
  139.7760   80.5060  223.3070 C   0  0  0  0  0  0  0  0  0  0  0  0
  141.1140   80.1770  223.1450 C   0  0  0  0  0  0  0  0  0  0  0  0
  141.4990   78.8870  222.8430 C   0  0  0  0  0  0  0  0  0  0  0  0
  140.5710   77.8620  222.6860 C   0  0  0  0  0  0  0  0  0  0  0  0
  139.2520   78.2110  222.8510 C   0  0  0  0  0  0  0  0  0  0  0  0
  138.8260   79.4910  223.1540 C   0  0  0  0  0  0  0  0  0  0  0  0
  138.1900   77.1770  222.7080 C   0  0  0  0  0  0  0  0  0  0  0  0
  138.6610   76.2330  221.6230 C   0  0  0  0  0  0  0  0  0  0  0  0
  139.9770   75.7130  221.8830 N   0  0  0  0  0  0  0  0  0  0  0  0
  140.2520   74.3210  221.6820 C   0  0  0  0  0  0  0  0  0  0  0  0
  140.8180   73.8860  220.5450 N   0  0  0  0  0  0  0  0  0  0  0  0
  141.0840   72.5580  220.3770 C   0  0  0  0  0  0  0  0  0  0  0  0
  141.6870   72.2260  219.1150 N   0  0  0  0  0  0  0  0  0  0  0  0
  142.9210   71.4670  219.1920 C   0  0  0  0  0  0  0  0  0  0  0  0
  144.0840   72.3880  219.3670 C   0  0  1  0  0  0  0  0  0  0  0  0
  144.1540   72.9700  220.7600 C   0  0  0  0  0  0  0  0  0  0  0  0
  145.5970   73.4810  220.7610 C   0  0  0  0  0  0  0  0  0  0  0  0
  146.3190   72.4340  220.1130 N   0  0  0  0  0  0  0  0  0  0  0  0
  145.4300   71.7630  219.2110 C   0  0  0  0  0  0  0  0  0  0  0  0
  140.8020   71.6440  221.3140 N   0  0  0  0  0  0  0  0  0  0  0  0
  140.2330   72.0930  222.4560 C   0  0  0  0  0  0  0  0  0  0  0  0
  139.9420   71.1430  223.4900 N   0  0  0  0  0  0  0  0  0  0  0  0
  139.3980   69.8620  223.0800 C   0  0  0  0  0  0  0  0  0  0  0  0
  138.5200   69.3210  224.1920 C   0  0  0  0  0  0  0  0  0  0  0  0
  139.4110   69.1790  225.3880 C   0  0  0  0  0  0  0  0  0  0  0  0
  139.4450   68.0430  226.1570 C   0  0  0  0  0  0  0  0  0  0  0  0
  140.2930   67.9850  227.2480 C   0  0  0  0  0  0  0  0  0  0  0  0
  141.0870   69.0650  227.5400 C   0  0  0  0  0  0  0  0  0  0  0  0
  141.0490   70.2000  226.7640 C   0  0  0  0  0  0  0  0  0  0  0  0
  140.2080   70.2720  225.6740 C   0  0  0  0  0  0  0  0  0  0  0  0
  140.1960   71.5160  224.8540 C   0  0  0  0  0  0  0  0  0  0  0  0
  139.9700   73.4030  222.6220 N   0  0  0  0  0  0  0  0  0  0  0  0
  141.0720   76.5260  222.3620 C   0  0  0  0  0  0  0  0  0  0  0  0
  139.4712   81.5349  223.5487 H   0  0  0  0  0  0  0  0  0  0  0  0
  141.8806   80.9576  223.2592 H   0  0  0  0  0  0  0  0  0  0  0  0
  142.5691   78.6625  222.7230 H   0  0  0  0  0  0  0  0  0  0  0  0
  137.7543   79.7081  223.2731 H   0  0  0  0  0  0  0  0  0  0  0  0
  138.0576   76.6333  223.6550 H   0  0  0  0  0  0  0  0  0  0  0  0
  137.2216   77.6309  222.4509 H   0  0  0  0  0  0  0  0  0  0  0  0
  137.9555   75.3917  221.5557 H   0  0  0  0  0  0  0  0  0  0  0  0
  138.7037   76.7990  220.6807 H   0  0  0  0  0  0  0  0  0  0  0  0
  141.2540   72.5240  218.2330 H   0  0  0  0  0  0  0  0  0  0  0  0
  142.8710   70.7783  220.0483 H   0  0  0  0  0  0  0  0  0  0  0  0
  143.0510   70.8984  218.2594 H   0  0  0  0  0  0  0  0  0  0  0  0
  143.8915   73.1251  218.5735 H   0  0  0  0  0  0  0  0  0  0  0  0
  143.4311   73.7876  220.8979 H   0  0  0  0  0  0  0  0  0  0  0  0
  143.9107   72.2661  221.5695 H   0  0  0  0  0  0  0  0  0  0  0  0
  145.6813   74.4232  220.1996 H   0  0  0  0  0  0  0  0  0  0  0  0
  145.9738   73.7015  221.7706 H   0  0  0  0  0  0  0  0  0  0  0  0
  146.7340   71.8070  220.8370 H   0  0  0  0  0  0  0  0  0  0  0  0
  145.7829   71.8828  218.1761 H   0  0  0  0  0  0  0  0  0  0  0  0
  145.3878   70.6868  219.4346 H   0  0  0  0  0  0  0  0  0  0  0  0
  138.7990   69.9909  222.1665 H   0  0  0  0  0  0  0  0  0  0  0  0
  140.2179   69.1573  222.8770 H   0  0  0  0  0  0  0  0  0  0  0  0
  137.7000   70.0219  224.4071 H   0  0  0  0  0  0  0  0  0  0  0  0
  138.0625   68.3602  223.9135 H   0  0  0  0  0  0  0  0  0  0  0  0
  138.8029   67.1853  225.9077 H   0  0  0  0  0  0  0  0  0  0  0  0
  140.3304   67.0821  227.8752 H   0  0  0  0  0  0  0  0  0  0  0  0
  141.7633   69.0227  228.4065 H   0  0  0  0  0  0  0  0  0  0  0  0
  141.6935   71.0554  227.0146 H   0  0  0  0  0  0  0  0  0  0  0  0
  139.4041   72.1911  225.2106 H   0  0  0  0  0  0  0  0  0  0  0  0
  141.1608   72.0380  224.9353 H   0  0  0  0  0  0  0  0  0  0  0  0
  141.5051   76.0667  223.2628 H   0  0  0  0  0  0  0  0  0  0  0  0
  141.8466   76.5994  221.5844 H   0  0  0  0  0  0  0  0  0  0  0  0
  1  2  2  0
  2  3  1  0
  3  4  2  0
  4  5  1  0
  5  6  2  0
  5  7  1  0
  7  8  1  0
  8  9  1  0
  9 10  1  0
 10 11  2  0
 11 12  1  0
 12 13  1  0
 13 14  1  0
 14 15  1  0
 15 16  1  0
 16 17  1  0
 17 18  1  0
 18 19  1  0
 12 20  2  0
 20 21  1  0
 21 22  1  0
 22 23  1  0
 23 24  1  0
 24 25  1  0
 25 26  2  0
 26 27  1  0
 27 28  2  0
 28 29  1  0
 29 30  2  0
 30 31  1  0
 21 32  2  0
  9 33  1  0
  6  1  1  0
 32 10  1  0
 33  4  1  0
 19 15  1  0
 31 22  1  0
 30 25  1  0
  1 34  1  0
  2 35  1  0
  3 36  1  0
  6 37  1  0
  7 38  1  0
  7 39  1  0
  8 40  1  0
  8 41  1  0
 13 42  1  0
 14 43  1  0
 14 44  1  0
 15 45  1  6
 16 46  1  0
 16 47  1  0
 17 48  1  0
 17 49  1  0
 18 50  1  0
 19 51  1  0
 19 52  1  0
 23 53  1  0
 23 54  1  0
 24 55  1  0
 24 56  1  0
 26 57  1  0
 27 58  1  0
 28 59  1  0
 29 60  1  0
 31 61  1  0
 31 62  1  0
 33 63  1  0
 33 64  1  0
M  END
>  <smiles>  (85) 
c1ccc2c(c1)CCN(c1nc(NCC3CCNC3)nc(N3CCc4ccccc4C3)n1)C2

>  <score_type>  (85) 
oracle

>  <origin>  (85) 
autodockgpu

>  <m_score__min__energy>  (85) 
-10.470000000000001

>  <m_primary>  (85) 
energy

>  <rmsd>  (85) 
5.0766381487985095

>  <m_score__min__rmsd>  (85) 
5.0766381487985095

>  <meeko>  (85) 
{"free_energy": -10.3, "intermolecular_energy": -11.79, "internal_energy": -0.98, "cluster_size": 50, "cluster_id": 1, "rank_in_cluster": 20}

>  <energy>  (85) 
-10.14

>  <cluster_rmsd>  (85) 
1.01

>  <cluster>  (85) 
1

$$$$

     RDKit          3D

 64 69  0  0  0  0  0  0  0  0999 V2000
  139.7160   68.1750  227.4070 C   0  0  0  0  0  0  0  0  0  0  0  0
  140.4070   69.2990  227.8340 C   0  0  0  0  0  0  0  0  0  0  0  0
  140.6920   70.3340  226.9660 C   0  0  0  0  0  0  0  0  0  0  0  0
  140.3020   70.2990  225.6310 C   0  0  0  0  0  0  0  0  0  0  0  0
  139.6200   69.1750  225.2300 C   0  0  0  0  0  0  0  0  0  0  0  0
  139.3160   68.1180  226.0670 C   0  0  0  0  0  0  0  0  0  0  0  0
  139.1700   69.0500  223.8150 C   0  0  0  0  0  0  0  0  0  0  0  0
  138.7950   70.4450  223.3640 C   0  0  0  0  0  0  0  0  0  0  0  0
  139.8550   71.3930  223.5770 N   0  0  0  0  0  0  0  0  0  0  0  0
  140.1850   72.3420  222.5550 C   0  0  0  0  0  0  0  0  0  0  0  0
  140.7060   71.9430  221.3830 N   0  0  0  0  0  0  0  0  0  0  0  0
  141.0010   72.8600  220.4170 C   0  0  0  0  0  0  0  0  0  0  0  0
  141.5560   72.3000  219.2150 N   0  0  0  0  0  0  0  0  0  0  0  0
  142.8480   72.8290  218.8180 C   0  0  0  0  0  0  0  0  0  0  0  0
  143.6700   73.1440  220.0240 C   0  0  1  0  0  0  0  0  0  0  0  0
  144.9030   72.2750  220.1250 C   0  0  0  0  0  0  0  0  0  0  0  0
  145.7120   73.0810  221.1440 C   0  0  0  0  0  0  0  0  0  0  0  0
  145.5140   74.4330  220.7300 N   0  0  0  0  0  0  0  0  0  0  0  0
  144.2430   74.5220  220.0730 C   0  0  0  0  0  0  0  0  0  0  0  0
  140.7910   74.1720  220.5830 N   0  0  0  0  0  0  0  0  0  0  0  0
  140.2650   74.5640  221.7660 C   0  0  0  0  0  0  0  0  0  0  0  0
  140.0040   75.9590  221.9660 N   0  0  0  0  0  0  0  0  0  0  0  0
  138.6720   76.3280  222.4050 C   0  0  0  0  0  0  0  0  0  0  0  0
  138.3500   77.7180  221.8880 C   0  0  0  0  0  0  0  0  0  0  0  0
  139.3890   78.6240  222.4730 C   0  0  0  0  0  0  0  0  0  0  0  0
  139.0780   79.8150  223.0800 C   0  0  0  0  0  0  0  0  0  0  0  0
  140.0910   80.6010  223.5980 C   0  0  0  0  0  0  0  0  0  0  0  0
  141.3910   80.1750  223.4950 C   0  0  0  0  0  0  0  0  0  0  0  0
  141.6960   78.9800  222.8850 C   0  0  0  0  0  0  0  0  0  0  0  0
  140.6960   78.1870  222.3660 C   0  0  0  0  0  0  0  0  0  0  0  0
  141.0640   76.8970  221.7160 C   0  0  0  0  0  0  0  0  0  0  0  0
  139.9740   73.6590  222.7200 N   0  0  0  0  0  0  0  0  0  0  0  0
  140.6450   71.4440  224.7860 C   0  0  0  0  0  0  0  0  0  0  0  0
  139.4890   67.3524  228.1011 H   0  0  0  0  0  0  0  0  0  0  0  0
  140.7336   69.3670  228.8822 H   0  0  0  0  0  0  0  0  0  0  0  0
  141.2423   71.2100  227.3400 H   0  0  0  0  0  0  0  0  0  0  0  0
  138.7674   67.2443  225.6854 H   0  0  0  0  0  0  0  0  0  0  0  0
  139.9838   68.6535  223.1901 H   0  0  0  0  0  0  0  0  0  0  0  0
  138.3192   68.3586  223.7255 H   0  0  0  0  0  0  0  0  0  0  0  0
  138.5563   70.4171  222.2906 H   0  0  0  0  0  0  0  0  0  0  0  0
  137.9298   70.7694  223.9608 H   0  0  0  0  0  0  0  0  0  0  0  0
  141.0490   71.5800  218.6890 H   0  0  0  0  0  0  0  0  0  0  0  0
  143.3736   72.0818  218.2053 H   0  0  0  0  0  0  0  0  0  0  0  0
  142.6950   73.7509  218.2377 H   0  0  0  0  0  0  0  0  0  0  0  0
  142.9344   72.9885  220.8269 H   0  0  0  0  0  0  0  0  0  0  0  0
  144.6637   71.2682  220.4979 H   0  0  0  0  0  0  0  0  0  0  0  0
  145.4163   72.0856  219.1707 H   0  0  0  0  0  0  0  0  0  0  0  0
  145.3308   72.9218  222.1635 H   0  0  0  0  0  0  0  0  0  0  0  0
  146.7731   72.7925  221.1743 H   0  0  0  0  0  0  0  0  0  0  0  0
  146.3160   74.7280  220.1320 H   0  0  0  0  0  0  0  0  0  0  0  0
  143.5736   75.1880  220.6372 H   0  0  0  0  0  0  0  0  0  0  0  0
  144.3572   74.9322  219.0587 H   0  0  0  0  0  0  0  0  0  0  0  0
  137.9404   75.6084  222.0090 H   0  0  0  0  0  0  0  0  0  0  0  0
  138.6269   76.3201  223.5040 H   0  0  0  0  0  0  0  0  0  0  0  0
  138.3992   77.7385  220.7893 H   0  0  0  0  0  0  0  0  0  0  0  0
  137.3347   78.0301  222.1737 H   0  0  0  0  0  0  0  0  0  0  0  0
  138.0303   80.1420  223.1539 H   0  0  0  0  0  0  0  0  0  0  0  0
  139.8569   81.5578  224.0876 H   0  0  0  0  0  0  0  0  0  0  0  0
  142.2001   80.7970  223.9055 H   0  0  0  0  0  0  0  0  0  0  0  0
  142.7446   78.6558  222.8112 H   0  0  0  0  0  0  0  0  0  0  0  0
  141.1844   77.0452  220.6327 H   0  0  0  0  0  0  0  0  0  0  0  0
  142.0138   76.5198  222.1229 H   0  0  0  0  0  0  0  0  0  0  0  0
  141.7140   71.4053  224.5294 H   0  0  0  0  0  0  0  0  0  0  0  0
  140.4358   72.3791  225.3262 H   0  0  0  0  0  0  0  0  0  0  0  0
  1  2  2  0
  2  3  1  0
  3  4  2  0
  4  5  1  0
  5  6  2  0
  5  7  1  0
  7  8  1  0
  8  9  1  0
  9 10  1  0
 10 11  2  0
 11 12  1  0
 12 13  1  0
 13 14  1  0
 14 15  1  0
 15 16  1  0
 16 17  1  0
 17 18  1  0
 18 19  1  0
 12 20  2  0
 20 21  1  0
 21 22  1  0
 22 23  1  0
 23 24  1  0
 24 25  1  0
 25 26  2  0
 26 27  1  0
 27 28  2  0
 28 29  1  0
 29 30  2  0
 30 31  1  0
 21 32  2  0
  9 33  1  0
  6  1  1  0
 32 10  1  0
 33  4  1  0
 19 15  1  0
 31 22  1  0
 30 25  1  0
  1 34  1  0
  2 35  1  0
  3 36  1  0
  6 37  1  0
  7 38  1  0
  7 39  1  0
  8 40  1  0
  8 41  1  0
 13 42  1  0
 14 43  1  0
 14 44  1  0
 15 45  1  1
 16 46  1  0
 16 47  1  0
 17 48  1  0
 17 49  1  0
 18 50  1  0
 19 51  1  0
 19 52  1  0
 23 53  1  0
 23 54  1  0
 24 55  1  0
 24 56  1  0
 26 57  1  0
 27 58  1  0
 28 59  1  0
 29 60  1  0
 31 61  1  0
 31 62  1  0
 33 63  1  0
 33 64  1  0
M  END
>  <smiles>  (86) 
c1ccc2c(c1)CCN(c1nc(NCC3CCNC3)nc(N3CCc4ccccc4C3)n1)C2

>  <score_type>  (86) 
oracle

>  <origin>  (86) 
autodockgpu

>  <m_score__min__energy>  (86) 
-10.470000000000001

>  <m_primary>  (86) 
energy

>  <rmsd>  (86) 
11.15112411093025

>  <m_score__min__rmsd>  (86) 
11.15112411093025

>  <meeko>  (86) 
{"free_energy": -10.23, "intermolecular_energy": -11.73, "internal_energy": -1.13, "cluster_size": 50, "cluster_id": 1, "rank_in_cluster": 23}

>  <energy>  (86) 
-10.13

>  <cluster_rmsd>  (86) 
0.55

>  <cluster>  (86) 
1

$$$$

     RDKit          3D

 64 69  0  0  0  0  0  0  0  0999 V2000
  139.7060   68.1760  227.4070 C   0  0  0  0  0  0  0  0  0  0  0  0
  140.3920   69.3040  227.8340 C   0  0  0  0  0  0  0  0  0  0  0  0
  140.6720   70.3390  226.9660 C   0  0  0  0  0  0  0  0  0  0  0  0
  140.2840   70.3010  225.6300 C   0  0  0  0  0  0  0  0  0  0  0  0
  139.6070   69.1740  225.2290 C   0  0  0  0  0  0  0  0  0  0  0  0
  139.3080   68.1160  226.0670 C   0  0  0  0  0  0  0  0  0  0  0  0
  139.1600   69.0450  223.8140 C   0  0  0  0  0  0  0  0  0  0  0  0
  138.7780   70.4380  223.3620 C   0  0  0  0  0  0  0  0  0  0  0  0
  139.8350   71.3910  223.5750 N   0  0  0  0  0  0  0  0  0  0  0  0
  140.1610   72.3410  222.5520 C   0  0  0  0  0  0  0  0  0  0  0  0
  140.6750   71.9420  221.3770 N   0  0  0  0  0  0  0  0  0  0  0  0
  140.9670   72.8590  220.4110 C   0  0  0  0  0  0  0  0  0  0  0  0
  141.5140   72.3000  219.2050 N   0  0  0  0  0  0  0  0  0  0  0  0
  142.6780   71.4510  219.3820 C   0  0  0  0  0  0  0  0  0  0  0  0
  143.9240   72.2720  219.3660 C   0  0  1  0  0  0  0  0  0  0  0  0
  144.2210   72.8960  220.7100 C   0  0  0  0  0  0  0  0  0  0  0  0
  145.6890   73.2800  220.5060 C   0  0  0  0  0  0  0  0  0  0  0  0
  146.2340   72.1510  219.8230 N   0  0  0  0  0  0  0  0  0  0  0  0
  145.1840   71.5270  219.0730 C   0  0  0  0  0  0  0  0  0  0  0  0
  140.7610   74.1720  220.5790 N   0  0  0  0  0  0  0  0  0  0  0  0
  140.2420   74.5630  221.7650 C   0  0  0  0  0  0  0  0  0  0  0  0
  139.9850   75.9590  221.9680 N   0  0  0  0  0  0  0  0  0  0  0  0
  138.6680   76.3270  222.4520 C   0  0  0  0  0  0  0  0  0  0  0  0
  138.3250   77.7140  221.9410 C   0  0  0  0  0  0  0  0  0  0  0  0
  139.3820   78.6250  222.4860 C   0  0  0  0  0  0  0  0  0  0  0  0
  139.0900   79.8170  223.0990 C   0  0  0  0  0  0  0  0  0  0  0  0
  140.1190   80.6070  223.5780 C   0  0  0  0  0  0  0  0  0  0  0  0
  141.4150   80.1840  223.4320 C   0  0  0  0  0  0  0  0  0  0  0  0
  141.7020   78.9870  222.8170 C   0  0  0  0  0  0  0  0  0  0  0  0
  140.6860   78.1900  222.3350 C   0  0  0  0  0  0  0  0  0  0  0  0
  141.0330   76.8970  221.6780 C   0  0  0  0  0  0  0  0  0  0  0  0
  139.9540   73.6580  222.7200 N   0  0  0  0  0  0  0  0  0  0  0  0
  140.6230   71.4470  224.7840 C   0  0  0  0  0  0  0  0  0  0  0  0
  139.4816   67.3531  228.1016 H   0  0  0  0  0  0  0  0  0  0  0  0
  140.7180   69.3741  228.8822 H   0  0  0  0  0  0  0  0  0  0  0  0
  141.2168   71.2183  227.3401 H   0  0  0  0  0  0  0  0  0  0  0  0
  138.7646   67.2389  225.6855 H   0  0  0  0  0  0  0  0  0  0  0  0
  139.9769   68.6526  223.1905 H   0  0  0  0  0  0  0  0  0  0  0  0
  138.3135   68.3485  223.7234 H   0  0  0  0  0  0  0  0  0  0  0  0
  138.5395   70.4085  222.2886 H   0  0  0  0  0  0  0  0  0  0  0  0
  137.9108   70.7589  223.9579 H   0  0  0  0  0  0  0  0  0  0  0  0
  141.0940   72.5090  218.2920 H   0  0  0  0  0  0  0  0  0  0  0  0
  142.6014   70.9262  220.3457 H   0  0  0  0  0  0  0  0  0  0  0  0
  142.7185   70.7225  218.5588 H   0  0  0  0  0  0  0  0  0  0  0  0
  143.6910   72.9930  218.5686 H   0  0  0  0  0  0  0  0  0  0  0  0
  143.5909   73.7776  220.8990 H   0  0  0  0  0  0  0  0  0  0  0  0
  144.0282   72.2454  221.5758 H   0  0  0  0  0  0  0  0  0  0  0  0
  145.7765   74.1901  219.8944 H   0  0  0  0  0  0  0  0  0  0  0  0
  146.2095   73.5042  221.4488 H   0  0  0  0  0  0  0  0  0  0  0  0
  146.6850   71.5170  220.5180 H   0  0  0  0  0  0  0  0  0  0  0  0
  145.4091   71.5770  217.9974 H   0  0  0  0  0  0  0  0  0  0  0  0
  145.0833   70.4678  219.3522 H   0  0  0  0  0  0  0  0  0  0  0  0
  137.9246   75.6042  222.0848 H   0  0  0  0  0  0  0  0  0  0  0  0
  138.6614   76.3235  223.5520 H   0  0  0  0  0  0  0  0  0  0  0  0
  138.3358   77.7301  220.8412 H   0  0  0  0  0  0  0  0  0  0  0  0
  137.3195   78.0251  222.2606 H   0  0  0  0  0  0  0  0  0  0  0  0
  138.0449   80.1421  223.2087 H   0  0  0  0  0  0  0  0  0  0  0  0
  139.8999   81.5654  224.0713 H   0  0  0  0  0  0  0  0  0  0  0  0
  142.2362   80.8098  223.8115 H   0  0  0  0  0  0  0  0  0  0  0  0
  142.7481   78.6644  222.7094 H   0  0  0  0  0  0  0  0  0  0  0  0
  141.1155   77.0407  220.5905 H   0  0  0  0  0  0  0  0  0  0  0  0
  141.9967   76.5229  222.0538 H   0  0  0  0  0  0  0  0  0  0  0  0
  141.6924   71.4128  224.5286 H   0  0  0  0  0  0  0  0  0  0  0  0
  140.4091   72.3818  225.3229 H   0  0  0  0  0  0  0  0  0  0  0  0
  1  2  2  0
  2  3  1  0
  3  4  2  0
  4  5  1  0
  5  6  2  0
  5  7  1  0
  7  8  1  0
  8  9  1  0
  9 10  1  0
 10 11  2  0
 11 12  1  0
 12 13  1  0
 13 14  1  0
 14 15  1  0
 15 16  1  0
 16 17  1  0
 17 18  1  0
 18 19  1  0
 12 20  2  0
 20 21  1  0
 21 22  1  0
 22 23  1  0
 23 24  1  0
 24 25  1  0
 25 26  2  0
 26 27  1  0
 27 28  2  0
 28 29  1  0
 29 30  2  0
 30 31  1  0
 21 32  2  0
  9 33  1  0
  6  1  1  0
 32 10  1  0
 33  4  1  0
 19 15  1  0
 31 22  1  0
 30 25  1  0
  1 34  1  0
  2 35  1  0
  3 36  1  0
  6 37  1  0
  7 38  1  0
  7 39  1  0
  8 40  1  0
  8 41  1  0
 13 42  1  0
 14 43  1  0
 14 44  1  0
 15 45  1  6
 16 46  1  0
 16 47  1  0
 17 48  1  0
 17 49  1  0
 18 50  1  0
 19 51  1  0
 19 52  1  0
 23 53  1  0
 23 54  1  0
 24 55  1  0
 24 56  1  0
 26 57  1  0
 27 58  1  0
 28 59  1  0
 29 60  1  0
 31 61  1  0
 31 62  1  0
 33 63  1  0
 33 64  1  0
M  END
>  <smiles>  (87) 
c1ccc2c(c1)CCN(c1nc(NCC3CCNC3)nc(N3CCc4ccccc4C3)n1)C2

>  <score_type>  (87) 
oracle

>  <origin>  (87) 
autodockgpu

>  <m_score__min__energy>  (87) 
-10.470000000000001

>  <m_primary>  (87) 
energy

>  <rmsd>  (87) 
11.15034228988918

>  <m_score__min__rmsd>  (87) 
11.15034228988918

>  <meeko>  (87) 
{"free_energy": -10.4, "intermolecular_energy": -11.89, "internal_energy": -0.99, "cluster_size": 50, "cluster_id": 1, "rank_in_cluster": 8}

>  <energy>  (87) 
-10.12

>  <cluster_rmsd>  (87) 
0.81

>  <cluster>  (87) 
1

$$$$

     RDKit          3D

 64 69  0  0  0  0  0  0  0  0999 V2000
  139.9880   68.2190  227.5590 C   0  0  0  0  0  0  0  0  0  0  0  0
  140.6780   69.3690  227.9140 C   0  0  0  0  0  0  0  0  0  0  0  0
  140.8940   70.3820  227.0020 C   0  0  0  0  0  0  0  0  0  0  0  0
  140.4330   70.2990  225.6910 C   0  0  0  0  0  0  0  0  0  0  0  0
  139.7520   69.1510  225.3620 C   0  0  0  0  0  0  0  0  0  0  0  0
  139.5170   68.1140  226.2460 C   0  0  0  0  0  0  0  0  0  0  0  0
  139.2290   68.9730  223.9790 C   0  0  0  0  0  0  0  0  0  0  0  0
  138.8010   70.3460  223.5080 C   0  0  0  0  0  0  0  0  0  0  0  0
  139.8520   71.3200  223.6340 N   0  0  0  0  0  0  0  0  0  0  0  0
  140.1050   72.2440  222.5670 C   0  0  0  0  0  0  0  0  0  0  0  0
  140.5080   71.8120  221.3610 N   0  0  0  0  0  0  0  0  0  0  0  0
  140.7320   72.7050  220.3540 C   0  0  0  0  0  0  0  0  0  0  0  0
  141.1610   72.1130  219.1170 N   0  0  0  0  0  0  0  0  0  0  0  0
  142.5970   72.0820  218.9040 C   0  0  0  0  0  0  0  0  0  0  0  0
  143.2980   72.8050  220.0070 C   0  0  1  0  0  0  0  0  0  0  0  0
  144.5980   72.1400  220.3960 C   0  0  0  0  0  0  0  0  0  0  0  0
  145.2530   73.2790  221.1810 C   0  0  0  0  0  0  0  0  0  0  0  0
  144.9550   74.4350  220.3980 N   0  0  0  0  0  0  0  0  0  0  0  0
  143.7310   74.1980  219.6910 C   0  0  0  0  0  0  0  0  0  0  0  0
  140.5650   74.0250  220.5120 N   0  0  0  0  0  0  0  0  0  0  0  0
  140.1590   74.4490  221.7310 C   0  0  0  0  0  0  0  0  0  0  0  0
  139.9470   75.8530  221.9270 N   0  0  0  0  0  0  0  0  0  0  0  0
  138.6000   76.2810  222.2530 C   0  0  0  0  0  0  0  0  0  0  0  0
  138.3900   77.6900  221.7300 C   0  0  0  0  0  0  0  0  0  0  0  0
  139.4150   78.5400  222.4160 C   0  0  0  0  0  0  0  0  0  0  0  0
  139.1080   79.7380  223.0100 C   0  0  0  0  0  0  0  0  0  0  0  0
  140.1080   80.4690  223.6250 C   0  0  0  0  0  0  0  0  0  0  0  0
  141.3900   79.9830  223.6300 C   0  0  0  0  0  0  0  0  0  0  0  0
  141.6920   78.7810  223.0330 C   0  0  0  0  0  0  0  0  0  0  0  0
  140.7050   78.0410  222.4170 C   0  0  0  0  0  0  0  0  0  0  0  0
  141.0670   76.7410  221.7830 C   0  0  0  0  0  0  0  0  0  0  0  0
  139.9390   73.5680  222.7250 N   0  0  0  0  0  0  0  0  0  0  0  0
  140.7060   71.4230  224.7950 C   0  0  0  0  0  0  0  0  0  0  0  0
  139.8164   67.4136  228.2883 H   0  0  0  0  0  0  0  0  0  0  0  0
  141.0595   69.4753  228.9402 H   0  0  0  0  0  0  0  0  0  0  0  0
  141.4454   71.2793  227.3195 H   0  0  0  0  0  0  0  0  0  0  0  0
  138.9670   67.2185  225.9211 H   0  0  0  0  0  0  0  0  0  0  0  0
  140.0159   68.5731  223.3226 H   0  0  0  0  0  0  0  0  0  0  0  0
  138.3895   68.2625  223.9569 H   0  0  0  0  0  0  0  0  0  0  0  0
  138.5046   70.2805  222.4507 H   0  0  0  0  0  0  0  0  0  0  0  0
  137.9629   70.6723  224.1414 H   0  0  0  0  0  0  0  0  0  0  0  0
  140.4770   71.7480  218.4450 H   0  0  0  0  0  0  0  0  0  0  0  0
  142.9383   71.0366  218.8804 H   0  0  0  0  0  0  0  0  0  0  0  0
  142.8287   72.5745  217.9481 H   0  0  0  0  0  0  0  0  0  0  0  0
  142.5269   72.7947  220.7914 H   0  0  0  0  0  0  0  0  0  0  0  0
  144.4310   71.2534  221.0254 H   0  0  0  0  0  0  0  0  0  0  0  0
  145.1923   71.7552  219.5541 H   0  0  0  0  0  0  0  0  0  0  0  0
  144.8190   73.3633  222.1882 H   0  0  0  0  0  0  0  0  0  0  0  0
  146.3322   73.1302  221.3335 H   0  0  0  0  0  0  0  0  0  0  0  0
  145.7660   74.6430  219.7750 H   0  0  0  0  0  0  0  0  0  0  0  0
  142.9628   74.9142  220.0179 H   0  0  0  0  0  0  0  0  0  0  0  0
  143.8763   74.3242  218.6080 H   0  0  0  0  0  0  0  0  0  0  0  0
  137.8733   75.6013  221.7841 H   0  0  0  0  0  0  0  0  0  0  0  0
  138.4580   76.2640  223.3437 H   0  0  0  0  0  0  0  0  0  0  0  0
  138.5361   77.7192  220.6401 H   0  0  0  0  0  0  0  0  0  0  0  0
  137.3692   78.0473  221.9310 H   0  0  0  0  0  0  0  0  0  0  0  0
  138.0744   80.1142  222.9972 H   0  0  0  0  0  0  0  0  0  0  0  0
  139.8770   81.4311  224.1056 H   0  0  0  0  0  0  0  0  0  0  0  0
  142.1879   80.5620  224.1180 H   0  0  0  0  0  0  0  0  0  0  0  0
  142.7268   78.4081  223.0471 H   0  0  0  0  0  0  0  0  0  0  0  0
  141.2880   76.8940  220.7164 H   0  0  0  0  0  0  0  0  0  0  0  0
  141.9589   76.3145  222.2653 H   0  0  0  0  0  0  0  0  0  0  0  0
  141.7598   71.3961  224.4807 H   0  0  0  0  0  0  0  0  0  0  0  0
  140.5082   72.3704  225.3178 H   0  0  0  0  0  0  0  0  0  0  0  0
  1  2  2  0
  2  3  1  0
  3  4  2  0
  4  5  1  0
  5  6  2  0
  5  7  1  0
  7  8  1  0
  8  9  1  0
  9 10  1  0
 10 11  2  0
 11 12  1  0
 12 13  1  0
 13 14  1  0
 14 15  1  0
 15 16  1  0
 16 17  1  0
 17 18  1  0
 18 19  1  0
 12 20  2  0
 20 21  1  0
 21 22  1  0
 22 23  1  0
 23 24  1  0
 24 25  1  0
 25 26  2  0
 26 27  1  0
 27 28  2  0
 28 29  1  0
 29 30  2  0
 30 31  1  0
 21 32  2  0
  9 33  1  0
  6  1  1  0
 32 10  1  0
 33  4  1  0
 19 15  1  0
 31 22  1  0
 30 25  1  0
  1 34  1  0
  2 35  1  0
  3 36  1  0
  6 37  1  0
  7 38  1  0
  7 39  1  0
  8 40  1  0
  8 41  1  0
 13 42  1  0
 14 43  1  0
 14 44  1  0
 15 45  1  1
 16 46  1  0
 16 47  1  0
 17 48  1  0
 17 49  1  0
 18 50  1  0
 19 51  1  0
 19 52  1  0
 23 53  1  0
 23 54  1  0
 24 55  1  0
 24 56  1  0
 26 57  1  0
 27 58  1  0
 28 59  1  0
 29 60  1  0
 31 61  1  0
 31 62  1  0
 33 63  1  0
 33 64  1  0
M  END
>  <smiles>  (88) 
c1ccc2c(c1)CCN(c1nc(NCC3CCNC3)nc(N3CCc4ccccc4C3)n1)C2

>  <score_type>  (88) 
oracle

>  <origin>  (88) 
autodockgpu

>  <m_score__min__energy>  (88) 
-10.470000000000001

>  <m_primary>  (88) 
energy

>  <rmsd>  (88) 
11.20310597818414

>  <m_score__min__rmsd>  (88) 
11.20310597818414

>  <meeko>  (88) 
{"free_energy": -9.96, "intermolecular_energy": -11.45, "internal_energy": -1.19, "cluster_size": 50, "cluster_id": 1, "rank_in_cluster": 45}

>  <energy>  (88) 
-10.09

>  <cluster_rmsd>  (88) 
0.55

>  <cluster>  (88) 
1

$$$$

     RDKit          3D

 64 69  0  0  0  0  0  0  0  0999 V2000
  139.4780   80.6720  223.3550 C   0  0  0  0  0  0  0  0  0  0  0  0
  140.8400   80.4310  223.2460 C   0  0  0  0  0  0  0  0  0  0  0  0
  141.3210   79.1710  222.9570 C   0  0  0  0  0  0  0  0  0  0  0  0
  140.4680   78.0880  222.7620 C   0  0  0  0  0  0  0  0  0  0  0  0
  139.1240   78.3490  222.8750 C   0  0  0  0  0  0  0  0  0  0  0  0
  138.6030   79.5970  223.1630 C   0  0  0  0  0  0  0  0  0  0  0  0
  138.1390   77.2480  222.6880 C   0  0  0  0  0  0  0  0  0  0  0  0
  138.7140   76.3410  221.6210 C   0  0  0  0  0  0  0  0  0  0  0  0
  140.0500   75.9080  221.9330 N   0  0  0  0  0  0  0  0  0  0  0  0
  140.4230   74.5380  221.7410 C   0  0  0  0  0  0  0  0  0  0  0  0
  141.1660   74.1660  220.6850 N   0  0  0  0  0  0  0  0  0  0  0  0
  141.5230   72.8580  220.5260 C   0  0  0  0  0  0  0  0  0  0  0  0
  142.3130   72.5960  219.3550 N   0  0  0  0  0  0  0  0  0  0  0  0
  142.9820   73.7490  218.7810 C   0  0  0  0  0  0  0  0  0  0  0  0
  144.4300   73.7400  219.1440 C   0  0  1  0  0  0  0  0  0  0  0  0
  144.6560   73.9910  220.6170 C   0  0  0  0  0  0  0  0  0  0  0  0
  146.1040   73.5120  220.7480 C   0  0  0  0  0  0  0  0  0  0  0  0
  146.1330   72.3250  219.9540 N   0  0  0  0  0  0  0  0  0  0  0  0
  145.1420   72.4470  218.9250 C   0  0  0  0  0  0  0  0  0  0  0  0
  141.1610   71.9030  221.3920 N   0  0  0  0  0  0  0  0  0  0  0  0
  140.4130   72.2890  222.4520 C   0  0  0  0  0  0  0  0  0  0  0  0
  140.0300   71.2950  223.4110 N   0  0  0  0  0  0  0  0  0  0  0  0
  139.3340   70.1240  222.9120 C   0  0  0  0  0  0  0  0  0  0  0  0
  138.4160   69.5950  223.9970 C   0  0  0  0  0  0  0  0  0  0  0  0
  139.3040   69.2510  225.1540 C   0  0  0  0  0  0  0  0  0  0  0  0
  139.2180   68.0580  225.8270 C   0  0  0  0  0  0  0  0  0  0  0  0
  140.0710   67.8110  226.8870 C   0  0  0  0  0  0  0  0  0  0  0  0
  140.9900   68.7640  227.2460 C   0  0  0  0  0  0  0  0  0  0  0  0
  141.0720   69.9580  226.5680 C   0  0  0  0  0  0  0  0  0  0  0  0
  140.2280   70.2170  225.5090 C   0  0  0  0  0  0  0  0  0  0  0  0
  140.3470   71.5200  224.7940 C   0  0  0  0  0  0  0  0  0  0  0  0
  140.0600   73.5790  222.6090 N   0  0  0  0  0  0  0  0  0  0  0  0
  141.0690   76.7890  222.4560 C   0  0  0  0  0  0  0  0  0  0  0  0
  139.0974   81.6780  223.5854 H   0  0  0  0  0  0  0  0  0  0  0  0
  141.5487   81.2594  223.3927 H   0  0  0  0  0  0  0  0  0  0  0  0
  142.4074   79.0177  222.8785 H   0  0  0  0  0  0  0  0  0  0  0  0
  137.5154   79.7428  223.2401 H   0  0  0  0  0  0  0  0  0  0  0  0
  138.0050   76.6929  223.6282 H   0  0  0  0  0  0  0  0  0  0  0  0
  137.1539   77.6384  222.3929 H   0  0  0  0  0  0  0  0  0  0  0  0
  138.0688   75.4554  221.5245 H   0  0  0  0  0  0  0  0  0  0  0  0
  138.7565   76.9120  220.6818 H   0  0  0  0  0  0  0  0  0  0  0  0
  142.3800   71.6470  218.9690 H   0  0  0  0  0  0  0  0  0  0  0  0
  142.8819   73.7190  217.6860 H   0  0  0  0  0  0  0  0  0  0  0  0
  142.5192   74.6654  219.1761 H   0  0  0  0  0  0  0  0  0  0  0  0
  144.8191   74.5270  218.4812 H   0  0  0  0  0  0  0  0  0  0  0  0
  144.5538   75.0566  220.8701 H   0  0  0  0  0  0  0  0  0  0  0  0
  143.9403   73.4928  221.2875 H   0  0  0  0  0  0  0  0  0  0  0  0
  146.8045   74.2645  220.3567 H   0  0  0  0  0  0  0  0  0  0  0  0
  146.4062   73.3383  221.7913 H   0  0  0  0  0  0  0  0  0  0  0  0
  145.9940   71.4970  220.5740 H   0  0  0  0  0  0  0  0  0  0  0  0
  145.6241   72.4458  217.9363 H   0  0  0  0  0  0  0  0  0  0  0  0
  144.4369   71.6036  218.9622 H   0  0  0  0  0  0  0  0  0  0  0  0
  138.7401   70.3972  222.0273 H   0  0  0  0  0  0  0  0  0  0  0  0
  140.0634   69.3495  222.6323 H   0  0  0  0  0  0  0  0  0  0  0  0
  137.6866   70.3645  224.2899 H   0  0  0  0  0  0  0  0  0  0  0  0
  137.8448   68.7205  223.6521 H   0  0  0  0  0  0  0  0  0  0  0  0
  138.4761   67.3039  225.5254 H   0  0  0  0  0  0  0  0  0  0  0  0
  140.0132   66.8600  227.4367 H   0  0  0  0  0  0  0  0  0  0  0  0
  141.6710   68.5706  228.0880 H   0  0  0  0  0  0  0  0  0  0  0  0
  141.8148   70.7101  226.8723 H   0  0  0  0  0  0  0  0  0  0  0  0
  139.6442   72.2483  225.2249 H   0  0  0  0  0  0  0  0  0  0  0  0
  141.3669   71.9200  224.8933 H   0  0  0  0  0  0  0  0  0  0  0  0
  141.4957   76.3555  223.3725 H   0  0  0  0  0  0  0  0  0  0  0  0
  141.8672   76.9165  221.7099 H   0  0  0  0  0  0  0  0  0  0  0  0
  1  2  2  0
  2  3  1  0
  3  4  2  0
  4  5  1  0
  5  6  2  0
  5  7  1  0
  7  8  1  0
  8  9  1  0
  9 10  1  0
 10 11  2  0
 11 12  1  0
 12 13  1  0
 13 14  1  0
 14 15  1  0
 15 16  1  0
 16 17  1  0
 17 18  1  0
 18 19  1  0
 12 20  2  0
 20 21  1  0
 21 22  1  0
 22 23  1  0
 23 24  1  0
 24 25  1  0
 25 26  2  0
 26 27  1  0
 27 28  2  0
 28 29  1  0
 29 30  2  0
 30 31  1  0
 21 32  2  0
  9 33  1  0
  6  1  1  0
 32 10  1  0
 33  4  1  0
 19 15  1  0
 31 22  1  0
 30 25  1  0
  1 34  1  0
  2 35  1  0
  3 36  1  0
  6 37  1  0
  7 38  1  0
  7 39  1  0
  8 40  1  0
  8 41  1  0
 13 42  1  0
 14 43  1  0
 14 44  1  0
 15 45  1  6
 16 46  1  0
 16 47  1  0
 17 48  1  0
 17 49  1  0
 18 50  1  0
 19 51  1  0
 19 52  1  0
 23 53  1  0
 23 54  1  0
 24 55  1  0
 24 56  1  0
 26 57  1  0
 27 58  1  0
 28 59  1  0
 29 60  1  0
 31 61  1  0
 31 62  1  0
 33 63  1  0
 33 64  1  0
M  END
>  <smiles>  (89) 
c1ccc2c(c1)CCN(c1nc(NCC3CCNC3)nc(N3CCc4ccccc4C3)n1)C2

>  <score_type>  (89) 
oracle

>  <origin>  (89) 
autodockgpu

>  <m_score__min__energy>  (89) 
-10.470000000000001

>  <m_primary>  (89) 
energy

>  <rmsd>  (89) 
5.076609563711432

>  <m_score__min__rmsd>  (89) 
5.076609563711432

>  <meeko>  (89) 
{"free_energy": -10.4, "intermolecular_energy": -11.89, "internal_energy": -1.02, "cluster_size": 50, "cluster_id": 1, "rank_in_cluster": 9}

>  <energy>  (89) 
-10.08

>  <cluster_rmsd>  (89) 
0.6

>  <cluster>  (89) 
1

$$$$

     RDKit          3D

 64 69  0  0  0  0  0  0  0  0999 V2000
  139.3600   80.5200  223.0910 C   0  0  0  0  0  0  0  0  0  0  0  0
  140.7230   80.3200  222.9270 C   0  0  0  0  0  0  0  0  0  0  0  0
  141.2360   79.0610  222.6930 C   0  0  0  0  0  0  0  0  0  0  0  0
  140.4170   77.9390  222.6110 C   0  0  0  0  0  0  0  0  0  0  0  0
  139.0700   78.1600  222.7780 C   0  0  0  0  0  0  0  0  0  0  0  0
  138.5180   79.4050  223.0140 C   0  0  0  0  0  0  0  0  0  0  0  0
  138.1200   77.0160  222.7130 C   0  0  0  0  0  0  0  0  0  0  0  0
  138.6740   76.0620  221.6760 C   0  0  0  0  0  0  0  0  0  0  0  0
  140.0400   75.6970  221.9440 N   0  0  0  0  0  0  0  0  0  0  0  0
  140.4540   74.3300  221.8190 C   0  0  0  0  0  0  0  0  0  0  0  0
  141.2450   73.9380  220.8070 N   0  0  0  0  0  0  0  0  0  0  0  0
  141.6410   72.6360  220.7110 C   0  0  0  0  0  0  0  0  0  0  0  0
  142.4810   72.3500  219.5810 N   0  0  0  0  0  0  0  0  0  0  0  0
  143.0440   73.5080  218.9120 C   0  0  0  0  0  0  0  0  0  0  0  0
  144.5110   73.5950  219.1750 C   0  0  1  0  0  0  0  0  0  0  0  0
  144.8180   74.0860  220.5720 C   0  0  0  0  0  0  0  0  0  0  0  0
  146.2870   73.6690  220.6810 C   0  0  0  0  0  0  0  0  0  0  0  0
  146.3090   72.3720  220.0870 N   0  0  0  0  0  0  0  0  0  0  0  0
  145.2540   72.3010  219.1190 C   0  0  0  0  0  0  0  0  0  0  0  0
  141.2710   71.7050  221.6000 N   0  0  0  0  0  0  0  0  0  0  0  0
  140.4750   72.1100  222.6160 C   0  0  0  0  0  0  0  0  0  0  0  0
  140.0810   71.1440  223.5990 N   0  0  0  0  0  0  0  0  0  0  0  0
  139.4260   69.9410  223.1220 C   0  0  0  0  0  0  0  0  0  0  0  0
  138.4840   69.4320  224.1970 C   0  0  0  0  0  0  0  0  0  0  0  0
  139.3410   69.1500  225.3920 C   0  0  0  0  0  0  0  0  0  0  0  0
  139.2570   67.9800  226.1050 C   0  0  0  0  0  0  0  0  0  0  0  0
  140.0810   67.7900  227.2000 C   0  0  0  0  0  0  0  0  0  0  0  0
  140.9690   68.7740  227.5530 C   0  0  0  0  0  0  0  0  0  0  0  0
  141.0480   69.9440  226.8330 C   0  0  0  0  0  0  0  0  0  0  0  0
  140.2330   70.1470  225.7400 C   0  0  0  0  0  0  0  0  0  0  0  0
  140.3490   71.4250  224.9820 C   0  0  0  0  0  0  0  0  0  0  0  0
  140.0840   73.3960  222.7100 N   0  0  0  0  0  0  0  0  0  0  0  0
  141.0500   76.6440  222.3560 C   0  0  0  0  0  0  0  0  0  0  0  0
  138.9533   81.5251  223.2761 H   0  0  0  0  0  0  0  0  0  0  0  0
  141.4064   81.1801  222.9845 H   0  0  0  0  0  0  0  0  0  0  0  0
  142.3222   78.9407  222.5678 H   0  0  0  0  0  0  0  0  0  0  0  0
  137.4310   79.5178  223.1397 H   0  0  0  0  0  0  0  0  0  0  0  0
  138.0552   76.5187  223.6920 H   0  0  0  0  0  0  0  0  0  0  0  0
  137.1071   77.3521  222.4464 H   0  0  0  0  0  0  0  0  0  0  0  0
  138.0589   75.1501  221.6699 H   0  0  0  0  0  0  0  0  0  0  0  0
  138.6469   76.5715  220.7015 H   0  0  0  0  0  0  0  0  0  0  0  0
  142.6510   71.3820  219.2850 H   0  0  0  0  0  0  0  0  0  0  0  0
  142.8740   73.4198  217.8288 H   0  0  0  0  0  0  0  0  0  0  0  0
  142.5567   74.4160  219.2968 H   0  0  0  0  0  0  0  0  0  0  0  0
  144.8303   74.2745  218.3711 H   0  0  0  0  0  0  0  0  0  0  0  0
  144.6951   75.1757  220.6583 H   0  0  0  0  0  0  0  0  0  0  0  0
  144.1622   73.6857  221.3593 H   0  0  0  0  0  0  0  0  0  0  0  0
  146.9356   74.3654  220.1292 H   0  0  0  0  0  0  0  0  0  0  0  0
  146.6582   73.6728  221.7165 H   0  0  0  0  0  0  0  0  0  0  0  0
  146.2370   71.6510  220.8380 H   0  0  0  0  0  0  0  0  0  0  0  0
  145.6751   72.1521  218.1138 H   0  0  0  0  0  0  0  0  0  0  0  0
  144.5827   71.4572  219.3364 H   0  0  0  0  0  0  0  0  0  0  0  0
  138.8555   70.1688  222.2095 H   0  0  0  0  0  0  0  0  0  0  0  0
  140.1797   69.1729  222.8943 H   0  0  0  0  0  0  0  0  0  0  0  0
  137.7300   70.1958  224.4383 H   0  0  0  0  0  0  0  0  0  0  0  0
  137.9418   68.5335  223.8672 H   0  0  0  0  0  0  0  0  0  0  0  0
  138.5405   67.1999  225.8082 H   0  0  0  0  0  0  0  0  0  0  0  0
  140.0245   66.8584  227.7822 H   0  0  0  0  0  0  0  0  0  0  0  0
  141.6262   68.6260  228.4226 H   0  0  0  0  0  0  0  0  0  0  0  0
  141.7660   70.7221  227.1315 H   0  0  0  0  0  0  0  0  0  0  0  0
  139.6186   72.1535  225.3637 H   0  0  0  0  0  0  0  0  0  0  0  0
  141.3572   71.8494  225.0984 H   0  0  0  0  0  0  0  0  0  0  0  0
  141.5383   76.2856  223.2742 H   0  0  0  0  0  0  0  0  0  0  0  0
  141.8042   76.7501  221.5623 H   0  0  0  0  0  0  0  0  0  0  0  0
  1  2  2  0
  2  3  1  0
  3  4  2  0
  4  5  1  0
  5  6  2  0
  5  7  1  0
  7  8  1  0
  8  9  1  0
  9 10  1  0
 10 11  2  0
 11 12  1  0
 12 13  1  0
 13 14  1  0
 14 15  1  0
 15 16  1  0
 16 17  1  0
 17 18  1  0
 18 19  1  0
 12 20  2  0
 20 21  1  0
 21 22  1  0
 22 23  1  0
 23 24  1  0
 24 25  1  0
 25 26  2  0
 26 27  1  0
 27 28  2  0
 28 29  1  0
 29 30  2  0
 30 31  1  0
 21 32  2  0
  9 33  1  0
  6  1  1  0
 32 10  1  0
 33  4  1  0
 19 15  1  0
 31 22  1  0
 30 25  1  0
  1 34  1  0
  2 35  1  0
  3 36  1  0
  6 37  1  0
  7 38  1  0
  7 39  1  0
  8 40  1  0
  8 41  1  0
 13 42  1  0
 14 43  1  0
 14 44  1  0
 15 45  1  6
 16 46  1  0
 16 47  1  0
 17 48  1  0
 17 49  1  0
 18 50  1  0
 19 51  1  0
 19 52  1  0
 23 53  1  0
 23 54  1  0
 24 55  1  0
 24 56  1  0
 26 57  1  0
 27 58  1  0
 28 59  1  0
 29 60  1  0
 31 61  1  0
 31 62  1  0
 33 63  1  0
 33 64  1  0
M  END
>  <smiles>  (90) 
c1ccc2c(c1)CCN(c1nc(NCC3CCNC3)nc(N3CCc4ccccc4C3)n1)C2

>  <score_type>  (90) 
oracle

>  <origin>  (90) 
autodockgpu

>  <m_score__min__energy>  (90) 
-10.470000000000001

>  <m_primary>  (90) 
energy

>  <rmsd>  (90) 
4.9555089017649

>  <m_score__min__rmsd>  (90) 
4.9555089017649

>  <meeko>  (90) 
{"free_energy": -10.47, "intermolecular_energy": -11.96, "internal_energy": -1.0, "cluster_size": 50, "cluster_id": 1, "rank_in_cluster": 1}

>  <energy>  (90) 
-10.05

>  <cluster_rmsd>  (90) 
1.12

>  <cluster>  (90) 
1

$$$$

     RDKit          3D

 64 69  0  0  0  0  0  0  0  0999 V2000
  139.7070   68.1270  227.4450 C   0  0  0  0  0  0  0  0  0  0  0  0
  140.3920   69.2580  227.8630 C   0  0  0  0  0  0  0  0  0  0  0  0
  140.6720   70.2870  226.9880 C   0  0  0  0  0  0  0  0  0  0  0  0
  140.2840   70.2390  225.6520 C   0  0  0  0  0  0  0  0  0  0  0  0
  139.6070   69.1090  225.2600 C   0  0  0  0  0  0  0  0  0  0  0  0
  139.3080   68.0570  226.1070 C   0  0  0  0  0  0  0  0  0  0  0  0
  139.1580   68.9690  223.8470 C   0  0  0  0  0  0  0  0  0  0  0  0
  138.7760   70.3580  223.3840 C   0  0  0  0  0  0  0  0  0  0  0  0
  139.8320   71.3130  223.5890 N   0  0  0  0  0  0  0  0  0  0  0  0
  140.1580   72.2560  222.5590 C   0  0  0  0  0  0  0  0  0  0  0  0
  140.6660   71.8470  221.3850 N   0  0  0  0  0  0  0  0  0  0  0  0
  140.9570   72.7570  220.4110 C   0  0  0  0  0  0  0  0  0  0  0  0
  141.4970   72.1890  219.2070 N   0  0  0  0  0  0  0  0  0  0  0  0
  142.6890   71.3790  219.3780 C   0  0  0  0  0  0  0  0  0  0  0  0
  143.9030   72.2480  219.4130 C   0  0  1  0  0  0  0  0  0  0  0  0
  144.1790   72.7980  220.7940 C   0  0  0  0  0  0  0  0  0  0  0  0
  145.6300   73.2500  220.6140 C   0  0  0  0  0  0  0  0  0  0  0  0
  146.2170   72.1870  219.8620 N   0  0  0  0  0  0  0  0  0  0  0  0
  145.1900   71.5710  219.0750 C   0  0  0  0  0  0  0  0  0  0  0  0
  140.7560   74.0720  220.5720 N   0  0  0  0  0  0  0  0  0  0  0  0
  140.2440   74.4720  221.7580 C   0  0  0  0  0  0  0  0  0  0  0  0
  139.9930   75.8700  221.9530 N   0  0  0  0  0  0  0  0  0  0  0  0
  138.6570   76.2520  222.3720 C   0  0  0  0  0  0  0  0  0  0  0  0
  138.3560   77.6440  221.8500 C   0  0  0  0  0  0  0  0  0  0  0  0
  139.3950   78.5410  222.4500 C   0  0  0  0  0  0  0  0  0  0  0  0
  139.0850   79.7350  223.0520 C   0  0  0  0  0  0  0  0  0  0  0  0
  140.0980   80.5120  223.5840 C   0  0  0  0  0  0  0  0  0  0  0  0
  141.3950   80.0740  223.5010 C   0  0  0  0  0  0  0  0  0  0  0  0
  141.6990   78.8760  222.8960 C   0  0  0  0  0  0  0  0  0  0  0  0
  140.6990   78.0920  222.3620 C   0  0  0  0  0  0  0  0  0  0  0  0
  141.0640   76.7980  221.7180 C   0  0  0  0  0  0  0  0  0  0  0  0
  139.9560   73.5740  222.7190 N   0  0  0  0  0  0  0  0  0  0  0  0
  140.6220   71.3780  224.7980 C   0  0  0  0  0  0  0  0  0  0  0  0
  139.4841   67.3089  228.1457 H   0  0  0  0  0  0  0  0  0  0  0  0
  140.7178   69.3360  228.9108 H   0  0  0  0  0  0  0  0  0  0  0  0
  141.2165   71.1692  227.3559 H   0  0  0  0  0  0  0  0  0  0  0  0
  138.7637   67.1774  225.7328 H   0  0  0  0  0  0  0  0  0  0  0  0
  139.9739   68.5712  223.2256 H   0  0  0  0  0  0  0  0  0  0  0  0
  138.3109   68.2723  223.7635 H   0  0  0  0  0  0  0  0  0  0  0  0
  138.5375   70.3197  222.3109 H   0  0  0  0  0  0  0  0  0  0  0  0
  137.9090   70.6833  223.9777 H   0  0  0  0  0  0  0  0  0  0  0  0
  141.0530   72.3640  218.2980 H   0  0  0  0  0  0  0  0  0  0  0  0
  142.6155   70.8194  220.3221 H   0  0  0  0  0  0  0  0  0  0  0  0
  142.7722   70.6803  218.5325 H   0  0  0  0  0  0  0  0  0  0  0  0
  143.6409   73.0079  218.6621 H   0  0  0  0  0  0  0  0  0  0  0  0
  143.5159   73.6411  221.0378 H   0  0  0  0  0  0  0  0  0  0  0  0
  144.0134   72.0878  221.6175 H   0  0  0  0  0  0  0  0  0  0  0  0
  145.6808   74.1989  220.0599 H   0  0  0  0  0  0  0  0  0  0  0  0
  146.1437   73.4352  221.5689 H   0  0  0  0  0  0  0  0  0  0  0  0
  146.6940   71.5290  220.5170 H   0  0  0  0  0  0  0  0  0  0  0  0
  145.4107   71.6956  218.0046 H   0  0  0  0  0  0  0  0  0  0  0  0
  145.1302   70.4936  219.2885 H   0  0  0  0  0  0  0  0  0  0  0  0
  137.9247   75.5390  221.9652 H   0  0  0  0  0  0  0  0  0  0  0  0
  138.5952   76.2450  223.4702 H   0  0  0  0  0  0  0  0  0  0  0  0
  138.4216   77.6634  220.7521 H   0  0  0  0  0  0  0  0  0  0  0  0
  137.3396   77.9658  222.1207 H   0  0  0  0  0  0  0  0  0  0  0  0
  138.0393   80.0712  223.1109 H   0  0  0  0  0  0  0  0  0  0  0  0
  139.8657   81.4717  224.0688 H   0  0  0  0  0  0  0  0  0  0  0  0
  142.2033   80.6887  223.9238 H   0  0  0  0  0  0  0  0  0  0  0  0
  142.7456   78.5423  222.8382 H   0  0  0  0  0  0  0  0  0  0  0  0
  141.2010   76.9444  220.6364 H   0  0  0  0  0  0  0  0  0  0  0  0
  142.0043   76.4124  222.1390 H   0  0  0  0  0  0  0  0  0  0  0  0
  141.6912   71.3420  224.5419 H   0  0  0  0  0  0  0  0  0  0  0  0
  140.4087   72.3167  225.3303 H   0  0  0  0  0  0  0  0  0  0  0  0
  1  2  2  0
  2  3  1  0
  3  4  2  0
  4  5  1  0
  5  6  2  0
  5  7  1  0
  7  8  1  0
  8  9  1  0
  9 10  1  0
 10 11  2  0
 11 12  1  0
 12 13  1  0
 13 14  1  0
 14 15  1  0
 15 16  1  0
 16 17  1  0
 17 18  1  0
 18 19  1  0
 12 20  2  0
 20 21  1  0
 21 22  1  0
 22 23  1  0
 23 24  1  0
 24 25  1  0
 25 26  2  0
 26 27  1  0
 27 28  2  0
 28 29  1  0
 29 30  2  0
 30 31  1  0
 21 32  2  0
  9 33  1  0
  6  1  1  0
 32 10  1  0
 33  4  1  0
 19 15  1  0
 31 22  1  0
 30 25  1  0
  1 34  1  0
  2 35  1  0
  3 36  1  0
  6 37  1  0
  7 38  1  0
  7 39  1  0
  8 40  1  0
  8 41  1  0
 13 42  1  0
 14 43  1  0
 14 44  1  0
 15 45  1  6
 16 46  1  0
 16 47  1  0
 17 48  1  0
 17 49  1  0
 18 50  1  0
 19 51  1  0
 19 52  1  0
 23 53  1  0
 23 54  1  0
 24 55  1  0
 24 56  1  0
 26 57  1  0
 27 58  1  0
 28 59  1  0
 29 60  1  0
 31 61  1  0
 31 62  1  0
 33 63  1  0
 33 64  1  0
M  END
>  <smiles>  (91) 
c1ccc2c(c1)CCN(c1nc(NCC3CCNC3)nc(N3CCc4ccccc4C3)n1)C2

>  <score_type>  (91) 
oracle

>  <origin>  (91) 
autodockgpu

>  <m_score__min__energy>  (91) 
-10.470000000000001

>  <m_primary>  (91) 
energy

>  <rmsd>  (91) 
11.213702242117696

>  <m_score__min__rmsd>  (91) 
11.213702242117696

>  <meeko>  (91) 
{"free_energy": -10.39, "intermolecular_energy": -11.88, "internal_energy": -1.0, "cluster_size": 50, "cluster_id": 1, "rank_in_cluster": 10}

>  <energy>  (91) 
-10.02

>  <cluster_rmsd>  (91) 
1.01

>  <cluster>  (91) 
1

$$$$

     RDKit          3D

 64 69  0  0  0  0  0  0  0  0999 V2000
  139.8100   80.5580  223.2630 C   0  0  0  0  0  0  0  0  0  0  0  0
  141.1450   80.2220  223.0900 C   0  0  0  0  0  0  0  0  0  0  0  0
  141.5220   78.9280  222.7920 C   0  0  0  0  0  0  0  0  0  0  0  0
  140.5880   77.9060  222.6520 C   0  0  0  0  0  0  0  0  0  0  0  0
  139.2720   78.2620  222.8280 C   0  0  0  0  0  0  0  0  0  0  0  0
  138.8540   79.5460  223.1270 C   0  0  0  0  0  0  0  0  0  0  0  0
  138.2040   77.2310  222.7030 C   0  0  0  0  0  0  0  0  0  0  0  0
  138.6610   76.2780  221.6190 C   0  0  0  0  0  0  0  0  0  0  0  0
  139.9770   75.7550  221.8700 N   0  0  0  0  0  0  0  0  0  0  0  0
  140.2440   74.3600  221.6760 C   0  0  0  0  0  0  0  0  0  0  0  0
  140.8190   73.9170  220.5450 N   0  0  0  0  0  0  0  0  0  0  0  0
  141.0770   72.5880  220.3840 C   0  0  0  0  0  0  0  0  0  0  0  0
  141.6900   72.2480  219.1290 N   0  0  0  0  0  0  0  0  0  0  0  0
  142.9040   71.4580  219.2200 C   0  0  0  0  0  0  0  0  0  0  0  0
  144.0970   72.3520  219.3030 C   0  0  1  0  0  0  0  0  0  0  0  0
  144.1790   73.0810  220.6250 C   0  0  0  0  0  0  0  0  0  0  0  0
  145.6390   73.5400  220.5830 C   0  0  0  0  0  0  0  0  0  0  0  0
  146.3280   72.4040  220.0610 N   0  0  0  0  0  0  0  0  0  0  0  0
  145.4210   71.6680  219.2310 C   0  0  0  0  0  0  0  0  0  0  0  0
  140.7790   71.6780  221.3210 N   0  0  0  0  0  0  0  0  0  0  0  0
  140.2020   72.1340  222.4550 C   0  0  0  0  0  0  0  0  0  0  0  0
  139.8930   71.1900  223.4890 N   0  0  0  0  0  0  0  0  0  0  0  0
  139.2600   69.9490  223.0860 C   0  0  0  0  0  0  0  0  0  0  0  0
  138.3930   69.4450  224.2240 C   0  0  0  0  0  0  0  0  0  0  0  0
  139.3180   69.2350  225.3830 C   0  0  0  0  0  0  0  0  0  0  0  0
  139.3130   68.0890  226.1380 C   0  0  0  0  0  0  0  0  0  0  0  0
  140.1970   67.9660  227.1950 C   0  0  0  0  0  0  0  0  0  0  0  0
  141.0640   68.9930  227.4690 C   0  0  0  0  0  0  0  0  0  0  0  0
  141.0640   70.1390  226.7080 C   0  0  0  0  0  0  0  0  0  0  0  0
  140.1890   70.2750  225.6520 C   0  0  0  0  0  0  0  0  0  0  0  0
  140.2200   71.5290  224.8460 C   0  0  0  0  0  0  0  0  0  0  0  0
  139.9460   73.4460  222.6150 N   0  0  0  0  0  0  0  0  0  0  0  0
  141.0800   76.5660  222.3320 C   0  0  0  0  0  0  0  0  0  0  0  0
  139.5121   81.5900  223.5002 H   0  0  0  0  0  0  0  0  0  0  0  0
  141.9160   80.9999  223.1920 H   0  0  0  0  0  0  0  0  0  0  0  0
  142.5899   78.6984  222.6617 H   0  0  0  0  0  0  0  0  0  0  0  0
  137.7845   79.7683  223.2561 H   0  0  0  0  0  0  0  0  0  0  0  0
  138.0792   76.6940  223.6549 H   0  0  0  0  0  0  0  0  0  0  0  0
  137.2345   77.6867  222.4532 H   0  0  0  0  0  0  0  0  0  0  0  0
  137.9517   75.4390  221.5638 H   0  0  0  0  0  0  0  0  0  0  0  0
  138.6966   76.8376  220.6726 H   0  0  0  0  0  0  0  0  0  0  0  0
  141.2780   72.5610  218.2420 H   0  0  0  0  0  0  0  0  0  0  0  0
  142.8599   70.8267  220.1197 H   0  0  0  0  0  0  0  0  0  0  0  0
  142.9899   70.8279  218.3224 H   0  0  0  0  0  0  0  0  0  0  0  0
  143.9356   73.0028  218.4310 H   0  0  0  0  0  0  0  0  0  0  0  0
  143.4840   73.9326  220.6657 H   0  0  0  0  0  0  0  0  0  0  0  0
  143.9069   72.4791  221.5046 H   0  0  0  0  0  0  0  0  0  0  0  0
  145.7589   74.4111  219.9220 H   0  0  0  0  0  0  0  0  0  0  0  0
  146.0177   73.8578  221.5656 H   0  0  0  0  0  0  0  0  0  0  0  0
  146.7160   71.8460  220.8540 H   0  0  0  0  0  0  0  0  0  0  0  0
  145.7840   71.6593  218.1926 H   0  0  0  0  0  0  0  0  0  0  0  0
  145.3394   70.6257  219.5731 H   0  0  0  0  0  0  0  0  0  0  0  0
  138.6364   70.1247  222.1971 H   0  0  0  0  0  0  0  0  0  0  0  0
  140.0292   69.2005  222.8449 H   0  0  0  0  0  0  0  0  0  0  0  0
  137.6243   70.1896  224.4781 H   0  0  0  0  0  0  0  0  0  0  0  0
  137.8692   68.5167  223.9521 H   0  0  0  0  0  0  0  0  0  0  0  0
  138.6115   67.2745  225.9045 H   0  0  0  0  0  0  0  0  0  0  0  0
  140.2045   67.0537  227.8096 H   0  0  0  0  0  0  0  0  0  0  0  0
  141.7687   68.8990  228.3084 H   0  0  0  0  0  0  0  0  0  0  0  0
  141.7667   70.9518  226.9438 H   0  0  0  0  0  0  0  0  0  0  0  0
  139.4837   72.2449  225.2402 H   0  0  0  0  0  0  0  0  0  0  0  0
  141.2166   71.9918  224.8957 H   0  0  0  0  0  0  0  0  0  0  0  0
  141.5204   76.1109  223.2314 H   0  0  0  0  0  0  0  0  0  0  0  0
  141.8469   76.6308  221.5461 H   0  0  0  0  0  0  0  0  0  0  0  0
  1  2  2  0
  2  3  1  0
  3  4  2  0
  4  5  1  0
  5  6  2  0
  5  7  1  0
  7  8  1  0
  8  9  1  0
  9 10  1  0
 10 11  2  0
 11 12  1  0
 12 13  1  0
 13 14  1  0
 14 15  1  0
 15 16  1  0
 16 17  1  0
 17 18  1  0
 18 19  1  0
 12 20  2  0
 20 21  1  0
 21 22  1  0
 22 23  1  0
 23 24  1  0
 24 25  1  0
 25 26  2  0
 26 27  1  0
 27 28  2  0
 28 29  1  0
 29 30  2  0
 30 31  1  0
 21 32  2  0
  9 33  1  0
  6  1  1  0
 32 10  1  0
 33  4  1  0
 19 15  1  0
 31 22  1  0
 30 25  1  0
  1 34  1  0
  2 35  1  0
  3 36  1  0
  6 37  1  0
  7 38  1  0
  7 39  1  0
  8 40  1  0
  8 41  1  0
 13 42  1  0
 14 43  1  0
 14 44  1  0
 15 45  1  6
 16 46  1  0
 16 47  1  0
 17 48  1  0
 17 49  1  0
 18 50  1  0
 19 51  1  0
 19 52  1  0
 23 53  1  0
 23 54  1  0
 24 55  1  0
 24 56  1  0
 26 57  1  0
 27 58  1  0
 28 59  1  0
 29 60  1  0
 31 61  1  0
 31 62  1  0
 33 63  1  0
 33 64  1  0
M  END
>  <smiles>  (92) 
c1ccc2c(c1)CCN(c1nc(NCC3CCNC3)nc(N3CCc4ccccc4C3)n1)C2

>  <score_type>  (92) 
oracle

>  <origin>  (92) 
autodockgpu

>  <m_score__min__energy>  (92) 
-10.470000000000001

>  <m_primary>  (92) 
energy

>  <rmsd>  (92) 
5.060068083932335

>  <m_score__min__rmsd>  (92) 
5.060068083932335

>  <meeko>  (92) 
{"free_energy": -10.33, "intermolecular_energy": -11.82, "internal_energy": -0.97, "cluster_size": 50, "cluster_id": 1, "rank_in_cluster": 16}

>  <energy>  (92) 
-10.01

>  <cluster_rmsd>  (92) 
1.01

>  <cluster>  (92) 
1

$$$$

     RDKit          3D

 64 69  0  0  0  0  0  0  0  0999 V2000
  139.7740   80.4210  223.1540 C   0  0  0  0  0  0  0  0  0  0  0  0
  141.1120   80.0900  222.9950 C   0  0  0  0  0  0  0  0  0  0  0  0
  141.4980   78.7920  222.7320 C   0  0  0  0  0  0  0  0  0  0  0  0
  140.5720   77.7600  222.6150 C   0  0  0  0  0  0  0  0  0  0  0  0
  139.2530   78.1110  222.7770 C   0  0  0  0  0  0  0  0  0  0  0  0
  138.8250   79.3990  223.0420 C   0  0  0  0  0  0  0  0  0  0  0  0
  138.1930   77.0700  222.6750 C   0  0  0  0  0  0  0  0  0  0  0  0
  138.6600   76.0920  221.6180 C   0  0  0  0  0  0  0  0  0  0  0  0
  139.9790   75.5850  221.8870 N   0  0  0  0  0  0  0  0  0  0  0  0
  140.2560   74.1870  221.7290 C   0  0  0  0  0  0  0  0  0  0  0  0
  140.8140   73.7160  220.6020 N   0  0  0  0  0  0  0  0  0  0  0  0
  141.0820   72.3850  220.4760 C   0  0  0  0  0  0  0  0  0  0  0  0
  141.6750   72.0130  219.2200 N   0  0  0  0  0  0  0  0  0  0  0  0
  142.9250   71.2810  219.3120 C   0  0  0  0  0  0  0  0  0  0  0  0
  144.0740   72.2300  219.4100 C   0  0  1  0  0  0  0  0  0  0  0  0
  144.1610   72.8890  220.7680 C   0  0  0  0  0  0  0  0  0  0  0  0
  145.5940   73.4250  220.7090 C   0  0  0  0  0  0  0  0  0  0  0  0
  146.3230   72.3560  220.1050 N   0  0  0  0  0  0  0  0  0  0  0  0
  145.4280   71.6200  219.2610 C   0  0  0  0  0  0  0  0  0  0  0  0
  140.8110   71.5010  221.4450 N   0  0  0  0  0  0  0  0  0  0  0  0
  140.2500   71.9860  222.5760 C   0  0  0  0  0  0  0  0  0  0  0  0
  139.9700   71.0700  223.6430 N   0  0  0  0  0  0  0  0  0  0  0  0
  139.5070   69.7460  223.2760 C   0  0  0  0  0  0  0  0  0  0  0  0
  138.6170   69.2100  224.3820 C   0  0  0  0  0  0  0  0  0  0  0  0
  139.4720   69.1690  225.6120 C   0  0  0  0  0  0  0  0  0  0  0  0
  139.5350   68.0720  226.4350 C   0  0  0  0  0  0  0  0  0  0  0  0
  140.3460   68.1070  227.5540 C   0  0  0  0  0  0  0  0  0  0  0  0
  141.0740   69.2380  227.8220 C   0  0  0  0  0  0  0  0  0  0  0  0
  141.0070   70.3340  226.9930 C   0  0  0  0  0  0  0  0  0  0  0  0
  140.2030   70.3130  225.8740 C   0  0  0  0  0  0  0  0  0  0  0  0
  140.1570   71.5170  224.9960 C   0  0  0  0  0  0  0  0  0  0  0  0
  139.9840   73.3000  222.7010 N   0  0  0  0  0  0  0  0  0  0  0  0
  141.0750   76.4150  222.3310 C   0  0  0  0  0  0  0  0  0  0  0  0
  139.4682   81.4569  223.3621 H   0  0  0  0  0  0  0  0  0  0  0  0
  141.8774   80.8754  223.0800 H   0  0  0  0  0  0  0  0  0  0  0  0
  142.5679   78.5665  222.6114 H   0  0  0  0  0  0  0  0  0  0  0  0
  137.7536   79.6170  223.1630 H   0  0  0  0  0  0  0  0  0  0  0  0
  138.0683   76.5572  223.6402 H   0  0  0  0  0  0  0  0  0  0  0  0
  137.2215   77.5125  222.4097 H   0  0  0  0  0  0  0  0  0  0  0  0
  137.9567   75.2469  221.5827 H   0  0  0  0  0  0  0  0  0  0  0  0
  138.6948   76.6266  220.6572 H   0  0  0  0  0  0  0  0  0  0  0  0
  141.2260   72.2670  218.3330 H   0  0  0  0  0  0  0  0  0  0  0  0
  142.9058   70.6405  220.2061 H   0  0  0  0  0  0  0  0  0  0  0  0
  143.0460   70.6637  218.4096 H   0  0  0  0  0  0  0  0  0  0  0  0
  143.8529   72.9183  218.5809 H   0  0  0  0  0  0  0  0  0  0  0  0
  143.4256   73.6998  220.8767 H   0  0  0  0  0  0  0  0  0  0  0  0
  143.9476   72.2268  221.6200 H   0  0  0  0  0  0  0  0  0  0  0  0
  145.6486   74.3354  220.0940 H   0  0  0  0  0  0  0  0  0  0  0  0
  145.9872   73.7087  221.6964 H   0  0  0  0  0  0  0  0  0  0  0  0
  146.7630   71.7770  220.8530 H   0  0  0  0  0  0  0  0  0  0  0  0
  145.7577   71.6870  218.2137 H   0  0  0  0  0  0  0  0  0  0  0  0
  145.4097   70.5577  219.5458 H   0  0  0  0  0  0  0  0  0  0  0  0
  138.9359   69.8019  222.3375 H   0  0  0  0  0  0  0  0  0  0  0  0
  140.3685   69.0768  223.1349 H   0  0  0  0  0  0  0  0  0  0  0  0
  137.7554   69.8761  224.5367 H   0  0  0  0  0  0  0  0  0  0  0  0
  138.2179   68.2155  224.1337 H   0  0  0  0  0  0  0  0  0  0  0  0
  138.9449   67.1724  226.2059 H   0  0  0  0  0  0  0  0  0  0  0  0
  140.4068   67.2360  228.2231 H   0  0  0  0  0  0  0  0  0  0  0  0
  141.7201   69.2693  228.7117 H   0  0  0  0  0  0  0  0  0  0  0  0
  141.5985   71.2320  227.2247 H   0  0  0  0  0  0  0  0  0  0  0  0
  139.3201   72.1655  225.2944 H   0  0  0  0  0  0  0  0  0  0  0  0
  141.0909   72.0915  225.0842 H   0  0  0  0  0  0  0  0  0  0  0  0
  141.5159   75.9863  223.2430 H   0  0  0  0  0  0  0  0  0  0  0  0
  141.8441   76.4648  221.5461 H   0  0  0  0  0  0  0  0  0  0  0  0
  1  2  2  0
  2  3  1  0
  3  4  2  0
  4  5  1  0
  5  6  2  0
  5  7  1  0
  7  8  1  0
  8  9  1  0
  9 10  1  0
 10 11  2  0
 11 12  1  0
 12 13  1  0
 13 14  1  0
 14 15  1  0
 15 16  1  0
 16 17  1  0
 17 18  1  0
 18 19  1  0
 12 20  2  0
 20 21  1  0
 21 22  1  0
 22 23  1  0
 23 24  1  0
 24 25  1  0
 25 26  2  0
 26 27  1  0
 27 28  2  0
 28 29  1  0
 29 30  2  0
 30 31  1  0
 21 32  2  0
  9 33  1  0
  6  1  1  0
 32 10  1  0
 33  4  1  0
 19 15  1  0
 31 22  1  0
 30 25  1  0
  1 34  1  0
  2 35  1  0
  3 36  1  0
  6 37  1  0
  7 38  1  0
  7 39  1  0
  8 40  1  0
  8 41  1  0
 13 42  1  0
 14 43  1  0
 14 44  1  0
 15 45  1  6
 16 46  1  0
 16 47  1  0
 17 48  1  0
 17 49  1  0
 18 50  1  0
 19 51  1  0
 19 52  1  0
 23 53  1  0
 23 54  1  0
 24 55  1  0
 24 56  1  0
 26 57  1  0
 27 58  1  0
 28 59  1  0
 29 60  1  0
 31 61  1  0
 31 62  1  0
 33 63  1  0
 33 64  1  0
M  END
>  <smiles>  (93) 
c1ccc2c(c1)CCN(c1nc(NCC3CCNC3)nc(N3CCc4ccccc4C3)n1)C2

>  <score_type>  (93) 
oracle

>  <origin>  (93) 
autodockgpu

>  <m_score__min__energy>  (93) 
-10.470000000000001

>  <m_primary>  (93) 
energy

>  <rmsd>  (93) 
5.014346501004331

>  <m_score__min__rmsd>  (93) 
5.014346501004331

>  <meeko>  (93) 
{"free_energy": -10.31, "intermolecular_energy": -11.8, "internal_energy": -0.98, "cluster_size": 50, "cluster_id": 1, "rank_in_cluster": 18}

>  <energy>  (93) 
-9.98

>  <cluster_rmsd>  (93) 
1.02

>  <cluster>  (93) 
1

$$$$

     RDKit          3D

 64 69  0  0  0  0  0  0  0  0999 V2000
  139.3880   80.5090  223.2190 C   0  0  0  0  0  0  0  0  0  0  0  0
  140.7520   80.3040  223.0710 C   0  0  0  0  0  0  0  0  0  0  0  0
  141.2610   79.0480  222.8150 C   0  0  0  0  0  0  0  0  0  0  0  0
  140.4360   77.9340  222.6930 C   0  0  0  0  0  0  0  0  0  0  0  0
  139.0890   78.1600  222.8440 C   0  0  0  0  0  0  0  0  0  0  0  0
  138.5400   79.4030  223.1020 C   0  0  0  0  0  0  0  0  0  0  0  0
  138.1320   77.0230  222.7360 C   0  0  0  0  0  0  0  0  0  0  0  0
  138.6970   76.0920  221.6860 C   0  0  0  0  0  0  0  0  0  0  0  0
  140.0560   75.7110  221.9660 N   0  0  0  0  0  0  0  0  0  0  0  0
  140.4640   74.3450  221.8150 C   0  0  0  0  0  0  0  0  0  0  0  0
  141.2330   73.9650  220.7820 N   0  0  0  0  0  0  0  0  0  0  0  0
  141.6230   72.6630  220.6610 C   0  0  0  0  0  0  0  0  0  0  0  0
  142.4400   72.3900  219.5110 N   0  0  0  0  0  0  0  0  0  0  0  0
  143.0460   73.5510  218.8860 C   0  0  0  0  0  0  0  0  0  0  0  0
  144.4780   73.6690  219.2940 C   0  0  1  0  0  0  0  0  0  0  0  0
  144.6430   73.7600  220.7940 C   0  0  0  0  0  0  0  0  0  0  0  0
  146.1360   73.4430  220.9160 C   0  0  0  0  0  0  0  0  0  0  0  0
  146.3240   72.3760  219.9850 N   0  0  0  0  0  0  0  0  0  0  0  0
  145.3470   72.5070  218.9450 C   0  0  0  0  0  0  0  0  0  0  0  0
  141.2680   71.7210  221.5450 N   0  0  0  0  0  0  0  0  0  0  0  0
  140.4930   72.1150  222.5820 C   0  0  0  0  0  0  0  0  0  0  0  0
  140.1160   71.1370  223.5590 N   0  0  0  0  0  0  0  0  0  0  0  0
  139.5030   69.9150  223.0730 C   0  0  0  0  0  0  0  0  0  0  0  0
  138.5630   69.3770  224.1360 C   0  0  0  0  0  0  0  0  0  0  0  0
  139.4140   69.1190  225.3420 C   0  0  0  0  0  0  0  0  0  0  0  0
  139.3550   67.9470  226.0530 C   0  0  0  0  0  0  0  0  0  0  0  0
  140.1710   67.7810  227.1580 C   0  0  0  0  0  0  0  0  0  0  0  0
  141.0240   68.7910  227.5220 C   0  0  0  0  0  0  0  0  0  0  0  0
  141.0770   69.9630  226.8050 C   0  0  0  0  0  0  0  0  0  0  0  0
  140.2710   70.1430  225.7020 C   0  0  0  0  0  0  0  0  0  0  0  0
  140.3590   71.4240  224.9450 C   0  0  0  0  0  0  0  0  0  0  0  0
  140.1080   73.4000  222.7010 N   0  0  0  0  0  0  0  0  0  0  0  0
  141.0650   76.6410  222.4170 C   0  0  0  0  0  0  0  0  0  0  0  0
  138.9851   81.5122  223.4224 H   0  0  0  0  0  0  0  0  0  0  0  0
  141.4396   81.1581  223.1594 H   0  0  0  0  0  0  0  0  0  0  0  0
  142.3483   78.9235  222.7043 H   0  0  0  0  0  0  0  0  0  0  0  0
  137.4519   79.5200  223.2136 H   0  0  0  0  0  0  0  0  0  0  0  0
  138.0482   76.5025  223.7014 H   0  0  0  0  0  0  0  0  0  0  0  0
  137.1255   77.3718  222.4617 H   0  0  0  0  0  0  0  0  0  0  0  0
  138.0764   75.1846  221.6474 H   0  0  0  0  0  0  0  0  0  0  0  0
  138.6894   76.6262  220.7245 H   0  0  0  0  0  0  0  0  0  0  0  0
  142.5660   71.4290  219.1730 H   0  0  0  0  0  0  0  0  0  0  0  0
  142.9873   73.4469  217.7925 H   0  0  0  0  0  0  0  0  0  0  0  0
  142.5061   74.4539  219.2073 H   0  0  0  0  0  0  0  0  0  0  0  0
  144.7808   74.5724  218.7443 H   0  0  0  0  0  0  0  0  0  0  0  0
  144.4071   74.7663  221.1705 H   0  0  0  0  0  0  0  0  0  0  0  0
  143.9802   73.1012  221.3742 H   0  0  0  0  0  0  0  0  0  0  0  0
  146.7475   74.3158  220.6434 H   0  0  0  0  0  0  0  0  0  0  0  0
  146.4368   73.1778  221.9403 H   0  0  0  0  0  0  0  0  0  0  0  0
  146.2760   71.4670  220.4940 H   0  0  0  0  0  0  0  0  0  0  0  0
  145.8455   72.6863  217.9810 H   0  0  0  0  0  0  0  0  0  0  0  0
  144.7494   71.5879  218.8550 H   0  0  0  0  0  0  0  0  0  0  0  0
  138.9375   70.1265  222.1535 H   0  0  0  0  0  0  0  0  0  0  0  0
  140.2821   69.1699  222.8544 H   0  0  0  0  0  0  0  0  0  0  0  0
  137.7838   70.1178  224.3686 H   0  0  0  0  0  0  0  0  0  0  0  0
  138.0516   68.4633  223.7988 H   0  0  0  0  0  0  0  0  0  0  0  0
  138.6652   67.1466  225.7473 H   0  0  0  0  0  0  0  0  0  0  0  0
  140.1358   66.8476  227.7390 H   0  0  0  0  0  0  0  0  0  0  0  0
  141.6747   68.6619  228.3995 H   0  0  0  0  0  0  0  0  0  0  0  0
  141.7672   70.7619  227.1138 H   0  0  0  0  0  0  0  0  0  0  0  0
  139.6033   72.1309  225.3181 H   0  0  0  0  0  0  0  0  0  0  0  0
  141.3533   71.8766  225.0733 H   0  0  0  0  0  0  0  0  0  0  0  0
  141.5360   76.2573  223.3341 H   0  0  0  0  0  0  0  0  0  0  0  0
  141.8327   76.7611  221.6384 H   0  0  0  0  0  0  0  0  0  0  0  0
  1  2  2  0
  2  3  1  0
  3  4  2  0
  4  5  1  0
  5  6  2  0
  5  7  1  0
  7  8  1  0
  8  9  1  0
  9 10  1  0
 10 11  2  0
 11 12  1  0
 12 13  1  0
 13 14  1  0
 14 15  1  0
 15 16  1  0
 16 17  1  0
 17 18  1  0
 18 19  1  0
 12 20  2  0
 20 21  1  0
 21 22  1  0
 22 23  1  0
 23 24  1  0
 24 25  1  0
 25 26  2  0
 26 27  1  0
 27 28  2  0
 28 29  1  0
 29 30  2  0
 30 31  1  0
 21 32  2  0
  9 33  1  0
  6  1  1  0
 32 10  1  0
 33  4  1  0
 19 15  1  0
 31 22  1  0
 30 25  1  0
  1 34  1  0
  2 35  1  0
  3 36  1  0
  6 37  1  0
  7 38  1  0
  7 39  1  0
  8 40  1  0
  8 41  1  0
 13 42  1  0
 14 43  1  0
 14 44  1  0
 15 45  1  6
 16 46  1  0
 16 47  1  0
 17 48  1  0
 17 49  1  0
 18 50  1  0
 19 51  1  0
 19 52  1  0
 23 53  1  0
 23 54  1  0
 24 55  1  0
 24 56  1  0
 26 57  1  0
 27 58  1  0
 28 59  1  0
 29 60  1  0
 31 61  1  0
 31 62  1  0
 33 63  1  0
 33 64  1  0
M  END
>  <smiles>  (94) 
c1ccc2c(c1)CCN(c1nc(NCC3CCNC3)nc(N3CCc4ccccc4C3)n1)C2

>  <score_type>  (94) 
oracle

>  <origin>  (94) 
autodockgpu

>  <m_score__min__energy>  (94) 
-10.470000000000001

>  <m_primary>  (94) 
energy

>  <rmsd>  (94) 
5.010189573474606

>  <m_score__min__rmsd>  (94) 
5.010189573474606

>  <meeko>  (94) 
{"free_energy": -10.46, "intermolecular_energy": -11.96, "internal_energy": -1.01, "cluster_size": 50, "cluster_id": 1, "rank_in_cluster": 2}

>  <energy>  (94) 
-9.97

>  <cluster_rmsd>  (94) 
0.65

>  <cluster>  (94) 
1

$$$$

     RDKit          3D

 64 69  0  0  0  0  0  0  0  0999 V2000
  139.7210   80.5080  223.2060 C   0  0  0  0  0  0  0  0  0  0  0  0
  141.0630   80.1930  223.0500 C   0  0  0  0  0  0  0  0  0  0  0  0
  141.4650   78.9010  222.7810 C   0  0  0  0  0  0  0  0  0  0  0  0
  140.5500   77.8590  222.6540 C   0  0  0  0  0  0  0  0  0  0  0  0
  139.2270   78.1950  222.8130 C   0  0  0  0  0  0  0  0  0  0  0  0
  138.7840   79.4770  223.0840 C   0  0  0  0  0  0  0  0  0  0  0  0
  138.1790   77.1420  222.7010 C   0  0  0  0  0  0  0  0  0  0  0  0
  138.6610   76.1760  221.6410 C   0  0  0  0  0  0  0  0  0  0  0  0
  139.9840   75.6820  221.9110 N   0  0  0  0  0  0  0  0  0  0  0  0
  140.2770   74.2880  221.7470 C   0  0  0  0  0  0  0  0  0  0  0  0
  140.8890   73.8370  220.6400 N   0  0  0  0  0  0  0  0  0  0  0  0
  141.1720   72.5090  220.5070 C   0  0  0  0  0  0  0  0  0  0  0  0
  141.8230   72.1590  219.2740 N   0  0  0  0  0  0  0  0  0  0  0  0
  142.9440   73.0020  218.8990 C   0  0  0  0  0  0  0  0  0  0  0  0
  143.8340   73.2310  220.0760 C   0  0  1  0  0  0  0  0  0  0  0  0
  145.0240   72.2980  220.0890 C   0  0  0  0  0  0  0  0  0  0  0  0
  145.9190   73.0240  221.0960 C   0  0  0  0  0  0  0  0  0  0  0  0
  145.7720   74.3990  220.7390 N   0  0  0  0  0  0  0  0  0  0  0  0
  144.4790   74.5750  220.1450 C   0  0  0  0  0  0  0  0  0  0  0  0
  140.8630   71.6100  221.4500 N   0  0  0  0  0  0  0  0  0  0  0  0
  140.2480   72.0750  222.5610 C   0  0  0  0  0  0  0  0  0  0  0  0
  139.9260   71.1420  223.6020 N   0  0  0  0  0  0  0  0  0  0  0  0
  139.2830   69.9040  223.2060 C   0  0  0  0  0  0  0  0  0  0  0  0
  138.4060   69.4180  224.3450 C   0  0  0  0  0  0  0  0  0  0  0  0
  139.3240   69.2090  225.5100 C   0  0  0  0  0  0  0  0  0  0  0  0
  139.3050   68.0700  226.2750 C   0  0  0  0  0  0  0  0  0  0  0  0
  140.1830   67.9480  227.3360 C   0  0  0  0  0  0  0  0  0  0  0  0
  141.0580   68.9690  227.6050 C   0  0  0  0  0  0  0  0  0  0  0  0
  141.0730   70.1080  226.8350 C   0  0  0  0  0  0  0  0  0  0  0  0
  140.2040   70.2430  225.7730 C   0  0  0  0  0  0  0  0  0  0  0  0
  140.2500   71.4900  224.9570 C   0  0  0  0  0  0  0  0  0  0  0  0
  139.9680   73.3850  222.6930 N   0  0  0  0  0  0  0  0  0  0  0  0
  141.0690   76.5220  222.3650 C   0  0  0  0  0  0  0  0  0  0  0  0
  139.4030   81.5392  223.4195 H   0  0  0  0  0  0  0  0  0  0  0  0
  141.8191   80.9866  223.1423 H   0  0  0  0  0  0  0  0  0  0  0  0
  142.5378   78.6881  222.6636 H   0  0  0  0  0  0  0  0  0  0  0  0
  137.7098   79.6827  223.2019 H   0  0  0  0  0  0  0  0  0  0  0  0
  138.0565   76.6224  223.6628 H   0  0  0  0  0  0  0  0  0  0  0  0
  137.2035   77.5748  222.4344 H   0  0  0  0  0  0  0  0  0  0  0  0
  137.9673   75.3233  221.5983 H   0  0  0  0  0  0  0  0  0  0  0  0
  138.6937   76.7171  220.6838 H   0  0  0  0  0  0  0  0  0  0  0  0
  141.4940   71.3650  218.7140 H   0  0  0  0  0  0  0  0  0  0  0  0
  143.5177   72.5094  218.1002 H   0  0  0  0  0  0  0  0  0  0  0  0
  142.5617   73.9706  218.5445 H   0  0  0  0  0  0  0  0  0  0  0  0
  143.1282   73.0835  220.9067 H   0  0  0  0  0  0  0  0  0  0  0  0
  144.7499   71.2914  220.4378 H   0  0  0  0  0  0  0  0  0  0  0  0
  145.4832   72.1186  219.1057 H   0  0  0  0  0  0  0  0  0  0  0  0
  145.5770   72.8462  222.1262 H   0  0  0  0  0  0  0  0  0  0  0  0
  146.9641   72.6821  221.0660 H   0  0  0  0  0  0  0  0  0  0  0  0
  146.5610   74.6750  220.1140 H   0  0  0  0  0  0  0  0  0  0  0  0
  143.8708   75.2529  220.7619 H   0  0  0  0  0  0  0  0  0  0  0  0
  144.5691   75.0150  219.1409 H   0  0  0  0  0  0  0  0  0  0  0  0
  138.6650   70.0784  222.3129 H   0  0  0  0  0  0  0  0  0  0  0  0
  140.0457   69.1461  222.9740 H   0  0  0  0  0  0  0  0  0  0  0  0
  137.6434   70.1722  224.5893 H   0  0  0  0  0  0  0  0  0  0  0  0
  137.8745   68.4925  224.0787 H   0  0  0  0  0  0  0  0  0  0  0  0
  138.5966   67.2602  226.0459 H   0  0  0  0  0  0  0  0  0  0  0  0
  140.1797   67.0409  227.9582 H   0  0  0  0  0  0  0  0  0  0  0  0
  141.7577   68.8755  228.4486 H   0  0  0  0  0  0  0  0  0  0  0  0
  141.7822   70.9161  227.0675 H   0  0  0  0  0  0  0  0  0  0  0  0
  139.5185   72.2158  225.3418 H   0  0  0  0  0  0  0  0  0  0  0  0
  141.2503   71.9447  225.0075 H   0  0  0  0  0  0  0  0  0  0  0  0
  141.5104   76.0931  223.2767 H   0  0  0  0  0  0  0  0  0  0  0  0
  141.8411   76.5848  221.5841 H   0  0  0  0  0  0  0  0  0  0  0  0
  1  2  2  0
  2  3  1  0
  3  4  2  0
  4  5  1  0
  5  6  2  0
  5  7  1  0
  7  8  1  0
  8  9  1  0
  9 10  1  0
 10 11  2  0
 11 12  1  0
 12 13  1  0
 13 14  1  0
 14 15  1  0
 15 16  1  0
 16 17  1  0
 17 18  1  0
 18 19  1  0
 12 20  2  0
 20 21  1  0
 21 22  1  0
 22 23  1  0
 23 24  1  0
 24 25  1  0
 25 26  2  0
 26 27  1  0
 27 28  2  0
 28 29  1  0
 29 30  2  0
 30 31  1  0
 21 32  2  0
  9 33  1  0
  6  1  1  0
 32 10  1  0
 33  4  1  0
 19 15  1  0
 31 22  1  0
 30 25  1  0
  1 34  1  0
  2 35  1  0
  3 36  1  0
  6 37  1  0
  7 38  1  0
  7 39  1  0
  8 40  1  0
  8 41  1  0
 13 42  1  0
 14 43  1  0
 14 44  1  0
 15 45  1  1
 16 46  1  0
 16 47  1  0
 17 48  1  0
 17 49  1  0
 18 50  1  0
 19 51  1  0
 19 52  1  0
 23 53  1  0
 23 54  1  0
 24 55  1  0
 24 56  1  0
 26 57  1  0
 27 58  1  0
 28 59  1  0
 29 60  1  0
 31 61  1  0
 31 62  1  0
 33 63  1  0
 33 64  1  0
M  END
>  <smiles>  (95) 
c1ccc2c(c1)CCN(c1nc(NCC3CCNC3)nc(N3CCc4ccccc4C3)n1)C2

>  <score_type>  (95) 
oracle

>  <origin>  (95) 
autodockgpu

>  <m_score__min__energy>  (95) 
-10.470000000000001

>  <m_primary>  (95) 
energy

>  <rmsd>  (95) 
5.034761040819291

>  <m_score__min__rmsd>  (95) 
5.034761040819291

>  <meeko>  (95) 
{"free_energy": -10.21, "intermolecular_energy": -11.7, "internal_energy": -1.1, "cluster_size": 50, "cluster_id": 1, "rank_in_cluster": 25}

>  <energy>  (95) 
-9.96

>  <cluster_rmsd>  (95) 
1.12

>  <cluster>  (95) 
1

$$$$

     RDKit          3D

 64 69  0  0  0  0  0  0  0  0999 V2000
  139.7100   80.5290  223.1670 C   0  0  0  0  0  0  0  0  0  0  0  0
  141.0530   80.2150  223.0160 C   0  0  0  0  0  0  0  0  0  0  0  0
  141.4580   78.9240  222.7460 C   0  0  0  0  0  0  0  0  0  0  0  0
  140.5450   77.8820  222.6130 C   0  0  0  0  0  0  0  0  0  0  0  0
  139.2210   78.2160  222.7660 C   0  0  0  0  0  0  0  0  0  0  0  0
  138.7750   79.4970  223.0380 C   0  0  0  0  0  0  0  0  0  0  0  0
  138.1750   77.1630  222.6470 C   0  0  0  0  0  0  0  0  0  0  0  0
  138.6620   76.1990  221.5860 C   0  0  0  0  0  0  0  0  0  0  0  0
  139.9850   75.7060  221.8620 N   0  0  0  0  0  0  0  0  0  0  0  0
  140.2810   74.3130  221.6960 C   0  0  0  0  0  0  0  0  0  0  0  0
  140.9090   73.8670  220.5960 N   0  0  0  0  0  0  0  0  0  0  0  0
  141.1940   72.5390  220.4610 C   0  0  0  0  0  0  0  0  0  0  0  0
  141.8650   72.1950  219.2370 N   0  0  0  0  0  0  0  0  0  0  0  0
  142.9860   73.0440  218.8800 C   0  0  0  0  0  0  0  0  0  0  0  0
  143.9210   73.1800  220.0360 C   0  0  1  0  0  0  0  0  0  0  0  0
  145.1850   72.3710  219.8540 C   0  0  0  0  0  0  0  0  0  0  0  0
  146.0710   73.0210  220.9180 C   0  0  0  0  0  0  0  0  0  0  0  0
  145.7870   74.4140  220.7810 N   0  0  0  0  0  0  0  0  0  0  0  0
  144.4510   74.5540  220.2790 C   0  0  0  0  0  0  0  0  0  0  0  0
  140.8700   71.6360  221.3950 N   0  0  0  0  0  0  0  0  0  0  0  0
  140.2380   72.0960  222.4990 C   0  0  0  0  0  0  0  0  0  0  0  0
  139.8990   71.1590  223.5300 N   0  0  0  0  0  0  0  0  0  0  0  0
  139.2240   69.9410  223.1230 C   0  0  0  0  0  0  0  0  0  0  0  0
  138.3420   69.4630  224.2610 C   0  0  0  0  0  0  0  0  0  0  0  0
  139.2620   69.2170  225.4180 C   0  0  0  0  0  0  0  0  0  0  0  0
  139.2190   68.0690  226.1680 C   0  0  0  0  0  0  0  0  0  0  0  0
  140.1000   67.9120  227.2230 C   0  0  0  0  0  0  0  0  0  0  0  0
  141.0020   68.9080  227.4990 C   0  0  0  0  0  0  0  0  0  0  0  0
  141.0400   70.0560  226.7420 C   0  0  0  0  0  0  0  0  0  0  0  0
  140.1680   70.2260  225.6880 C   0  0  0  0  0  0  0  0  0  0  0  0
  140.2400   71.4810  224.8870 C   0  0  0  0  0  0  0  0  0  0  0  0
  139.9560   73.4060  222.6320 N   0  0  0  0  0  0  0  0  0  0  0  0
  141.0670   76.5460  222.3230 C   0  0  0  0  0  0  0  0  0  0  0  0
  139.3901   81.5593  223.3819 H   0  0  0  0  0  0  0  0  0  0  0  0
  141.8079   81.0091  223.1132 H   0  0  0  0  0  0  0  0  0  0  0  0
  142.5315   78.7126  222.6328 H   0  0  0  0  0  0  0  0  0  0  0  0
  137.7000   79.7010  223.1512 H   0  0  0  0  0  0  0  0  0  0  0  0
  138.0490   76.6410  223.6070 H   0  0  0  0  0  0  0  0  0  0  0  0
  137.2005   77.5959  222.3771 H   0  0  0  0  0  0  0  0  0  0  0  0
  137.9693   75.3458  221.5385 H   0  0  0  0  0  0  0  0  0  0  0  0
  138.6977   76.7412  220.6296 H   0  0  0  0  0  0  0  0  0  0  0  0
  141.5480   71.4000  218.6710 H   0  0  0  0  0  0  0  0  0  0  0  0
  143.5226   72.5981  218.0296 H   0  0  0  0  0  0  0  0  0  0  0  0
  142.6079   74.0400  218.6062 H   0  0  0  0  0  0  0  0  0  0  0  0
  143.2805   72.8463  220.8657 H   0  0  0  0  0  0  0  0  0  0  0  0
  145.0190   71.3028  220.0577 H   0  0  0  0  0  0  0  0  0  0  0  0
  145.5999   72.3821  218.8353 H   0  0  0  0  0  0  0  0  0  0  0  0
  145.8057   72.6624  221.9235 H   0  0  0  0  0  0  0  0  0  0  0  0
  147.1379   72.7861  220.7897 H   0  0  0  0  0  0  0  0  0  0  0  0
  146.5110   74.8510  220.1700 H   0  0  0  0  0  0  0  0  0  0  0  0
  143.8239   75.0739  221.0182 H   0  0  0  0  0  0  0  0  0  0  0  0
  144.4441   75.1436  219.3504 H   0  0  0  0  0  0  0  0  0  0  0  0
  138.6055   70.1407  222.2355 H   0  0  0  0  0  0  0  0  0  0  0  0
  139.9670   69.1678  222.8778 H   0  0  0  0  0  0  0  0  0  0  0  0
  137.5998   70.2327  224.5192 H   0  0  0  0  0  0  0  0  0  0  0  0
  137.7859   68.5544  223.9868 H   0  0  0  0  0  0  0  0  0  0  0  0
  138.4899   67.2798  225.9324 H   0  0  0  0  0  0  0  0  0  0  0  0
  140.0775   66.9978  227.8343 H   0  0  0  0  0  0  0  0  0  0  0  0
  141.7044   68.7871  228.3369 H   0  0  0  0  0  0  0  0  0  0  0  0
  141.7708   70.8432  226.9792 H   0  0  0  0  0  0  0  0  0  0  0  0
  139.5294   72.2200  225.2856 H   0  0  0  0  0  0  0  0  0  0  0  0
  141.2520   71.9093  224.9363 H   0  0  0  0  0  0  0  0  0  0  0  0
  141.5047   76.1153  223.2356 H   0  0  0  0  0  0  0  0  0  0  0  0
  141.8426   76.6115  221.5458 H   0  0  0  0  0  0  0  0  0  0  0  0
  1  2  2  0
  2  3  1  0
  3  4  2  0
  4  5  1  0
  5  6  2  0
  5  7  1  0
  7  8  1  0
  8  9  1  0
  9 10  1  0
 10 11  2  0
 11 12  1  0
 12 13  1  0
 13 14  1  0
 14 15  1  0
 15 16  1  0
 16 17  1  0
 17 18  1  0
 18 19  1  0
 12 20  2  0
 20 21  1  0
 21 22  1  0
 22 23  1  0
 23 24  1  0
 24 25  1  0
 25 26  2  0
 26 27  1  0
 27 28  2  0
 28 29  1  0
 29 30  2  0
 30 31  1  0
 21 32  2  0
  9 33  1  0
  6  1  1  0
 32 10  1  0
 33  4  1  0
 19 15  1  0
 31 22  1  0
 30 25  1  0
  1 34  1  0
  2 35  1  0
  3 36  1  0
  6 37  1  0
  7 38  1  0
  7 39  1  0
  8 40  1  0
  8 41  1  0
 13 42  1  0
 14 43  1  0
 14 44  1  0
 15 45  1  1
 16 46  1  0
 16 47  1  0
 17 48  1  0
 17 49  1  0
 18 50  1  0
 19 51  1  0
 19 52  1  0
 23 53  1  0
 23 54  1  0
 24 55  1  0
 24 56  1  0
 26 57  1  0
 27 58  1  0
 28 59  1  0
 29 60  1  0
 31 61  1  0
 31 62  1  0
 33 63  1  0
 33 64  1  0
M  END
>  <smiles>  (96) 
c1ccc2c(c1)CCN(c1nc(NCC3CCNC3)nc(N3CCc4ccccc4C3)n1)C2

>  <score_type>  (96) 
oracle

>  <origin>  (96) 
autodockgpu

>  <m_score__min__energy>  (96) 
-10.470000000000001

>  <m_primary>  (96) 
energy

>  <rmsd>  (96) 
5.0101145888134235

>  <m_score__min__rmsd>  (96) 
5.0101145888134235

>  <meeko>  (96) 
{"free_energy": -10.16, "intermolecular_energy": -11.65, "internal_energy": -1.08, "cluster_size": 50, "cluster_id": 1, "rank_in_cluster": 33}

>  <energy>  (96) 
-9.77

>  <cluster_rmsd>  (96) 
1.04

>  <cluster>  (96) 
1

$$$$

     RDKit          3D

 64 69  0  0  0  0  0  0  0  0999 V2000
  140.1380   80.9020  222.9950 C   0  0  0  0  0  0  0  0  0  0  0  0
  141.1090   80.3070  223.7880 C   0  0  0  0  0  0  0  0  0  0  0  0
  141.3960   78.9620  223.6770 C   0  0  0  0  0  0  0  0  0  0  0  0
  140.7290   78.1430  222.7700 C   0  0  0  0  0  0  0  0  0  0  0  0
  139.7720   78.7530  221.9950 C   0  0  0  0  0  0  0  0  0  0  0  0
  139.4550   80.0970  222.0770 C   0  0  0  0  0  0  0  0  0  0  0  0
  139.0040   77.9520  221.0020 C   0  0  0  0  0  0  0  0  0  0  0  0
  139.9660   76.9170  220.4580 C   0  0  0  0  0  0  0  0  0  0  0  0
  140.5890   76.1470  221.5010 N   0  0  0  0  0  0  0  0  0  0  0  0
  140.7120   74.7250  221.3680 C   0  0  0  0  0  0  0  0  0  0  0  0
  141.2480   74.1790  220.2640 N   0  0  0  0  0  0  0  0  0  0  0  0
  141.3690   72.8240  220.1600 C   0  0  0  0  0  0  0  0  0  0  0  0
  141.9540   72.3710  218.9280 N   0  0  0  0  0  0  0  0  0  0  0  0
  143.2850   72.8760  218.6460 C   0  0  0  0  0  0  0  0  0  0  0  0
  144.0300   73.1070  219.9190 C   0  0  1  0  0  0  0  0  0  0  0  0
  145.3420   72.3560  219.9640 C   0  0  0  0  0  0  0  0  0  0  0  0
  146.0300   73.0950  221.1140 C   0  0  0  0  0  0  0  0  0  0  0  0
  145.7080   74.4640  220.8690 N   0  0  0  0  0  0  0  0  0  0  0  0
  144.4570   74.5150  220.1710 C   0  0  0  0  0  0  0  0  0  0  0  0
  140.9710   71.9900  221.1290 N   0  0  0  0  0  0  0  0  0  0  0  0
  140.4340   72.5500  222.2370 C   0  0  0  0  0  0  0  0  0  0  0  0
  140.0210   71.6870  223.3040 N   0  0  0  0  0  0  0  0  0  0  0  0
  138.9880   70.7120  223.0070 C   0  0  0  0  0  0  0  0  0  0  0  0
  138.1980   70.4290  224.2710 C   0  0  0  0  0  0  0  0  0  0  0  0
  139.1870   69.8930  225.2610 C   0  0  0  0  0  0  0  0  0  0  0  0
  138.9550   68.7620  226.0030 C   0  0  0  0  0  0  0  0  0  0  0  0
  139.9140   68.3280  226.8990 C   0  0  0  0  0  0  0  0  0  0  0  0
  141.0820   69.0350  227.0290 C   0  0  0  0  0  0  0  0  0  0  0  0
  141.3080   70.1680  226.2830 C   0  0  0  0  0  0  0  0  0  0  0  0
  140.3610   70.6130  225.3850 C   0  0  0  0  0  0  0  0  0  0  0  0
  140.6420   71.8420  224.5900 C   0  0  0  0  0  0  0  0  0  0  0  0
  140.3130   73.8870  222.3400 N   0  0  0  0  0  0  0  0  0  0  0  0
  141.1030   76.7290  222.7200 C   0  0  0  0  0  0  0  0  0  0  0  0
  139.9120   81.9747  223.0855 H   0  0  0  0  0  0  0  0  0  0  0  0
  141.6596   80.9185  224.5180 H   0  0  0  0  0  0  0  0  0  0  0  0
  142.1724   78.5252  224.3223 H   0  0  0  0  0  0  0  0  0  0  0  0
  138.6767   80.5268  221.4294 H   0  0  0  0  0  0  0  0  0  0  0  0
  138.1494   77.4594  221.4888 H   0  0  0  0  0  0  0  0  0  0  0  0
  138.6033   78.5876  220.1986 H   0  0  0  0  0  0  0  0  0  0  0  0
  139.4132   76.2338  219.7964 H   0  0  0  0  0  0  0  0  0  0  0  0
  140.7599   77.4496  219.9139 H   0  0  0  0  0  0  0  0  0  0  0  0
  141.4400   71.7380  218.3040 H   0  0  0  0  0  0  0  0  0  0  0  0
  143.8300   72.1419  218.0343 H   0  0  0  0  0  0  0  0  0  0  0  0
  143.1995   73.8286  218.1026 H   0  0  0  0  0  0  0  0  0  0  0  0
  143.2880   72.7760  220.6605 H   0  0  0  0  0  0  0  0  0  0  0  0
  145.1950   71.2902  220.1932 H   0  0  0  0  0  0  0  0  0  0  0  0
  145.9031   72.3452  219.0179 H   0  0  0  0  0  0  0  0  0  0  0  0
  145.6341   72.7656  222.0860 H   0  0  0  0  0  0  0  0  0  0  0  0
  147.1136   72.9101  221.1553 H   0  0  0  0  0  0  0  0  0  0  0  0
  146.4950   74.9130  220.3510 H   0  0  0  0  0  0  0  0  0  0  0  0
  143.7047   75.0322  220.7846 H   0  0  0  0  0  0  0  0  0  0  0  0
  144.5622   75.0648  219.2241 H   0  0  0  0  0  0  0  0  0  0  0  0
  138.3156   71.1111  222.2334 H   0  0  0  0  0  0  0  0  0  0  0  0
  139.4484   69.7826  222.6405 H   0  0  0  0  0  0  0  0  0  0  0  0
  137.7391   71.3538  224.6507 H   0  0  0  0  0  0  0  0  0  0  0  0
  137.3827   69.7140  224.0865 H   0  0  0  0  0  0  0  0  0  0  0  0
  138.0135   68.2054  225.8857 H   0  0  0  0  0  0  0  0  0  0  0  0
  139.7420   67.4242  227.5020 H   0  0  0  0  0  0  0  0  0  0  0  0
  141.8482   68.6912  227.7394 H   0  0  0  0  0  0  0  0  0  0  0  0
  142.2502   70.7227  226.4035 H   0  0  0  0  0  0  0  0  0  0  0  0
  140.2259   72.7220  225.1024 H   0  0  0  0  0  0  0  0  0  0  0  0
  141.7267   71.9859  224.4771 H   0  0  0  0  0  0  0  0  0  0  0  0
  140.6762   76.2041  223.5874 H   0  0  0  0  0  0  0  0  0  0  0  0
  142.1987   76.6343  222.7428 H   0  0  0  0  0  0  0  0  0  0  0  0
  1  2  2  0
  2  3  1  0
  3  4  2  0
  4  5  1  0
  5  6  2  0
  5  7  1  0
  7  8  1  0
  8  9  1  0
  9 10  1  0
 10 11  2  0
 11 12  1  0
 12 13  1  0
 13 14  1  0
 14 15  1  0
 15 16  1  0
 16 17  1  0
 17 18  1  0
 18 19  1  0
 12 20  2  0
 20 21  1  0
 21 22  1  0
 22 23  1  0
 23 24  1  0
 24 25  1  0
 25 26  2  0
 26 27  1  0
 27 28  2  0
 28 29  1  0
 29 30  2  0
 30 31  1  0
 21 32  2  0
  9 33  1  0
  6  1  1  0
 32 10  1  0
 33  4  1  0
 19 15  1  0
 31 22  1  0
 30 25  1  0
  1 34  1  0
  2 35  1  0
  3 36  1  0
  6 37  1  0
  7 38  1  0
  7 39  1  0
  8 40  1  0
  8 41  1  0
 13 42  1  0
 14 43  1  0
 14 44  1  0
 15 45  1  1
 16 46  1  0
 16 47  1  0
 17 48  1  0
 17 49  1  0
 18 50  1  0
 19 51  1  0
 19 52  1  0
 23 53  1  0
 23 54  1  0
 24 55  1  0
 24 56  1  0
 26 57  1  0
 27 58  1  0
 28 59  1  0
 29 60  1  0
 31 61  1  0
 31 62  1  0
 33 63  1  0
 33 64  1  0
M  END
>  <smiles>  (97) 
c1ccc2c(c1)CCN(c1nc(NCC3CCNC3)nc(N3CCc4ccccc4C3)n1)C2

>  <score_type>  (97) 
oracle

>  <origin>  (97) 
autodockgpu

>  <m_score__min__energy>  (97) 
-10.470000000000001

>  <m_primary>  (97) 
energy

>  <rmsd>  (97) 
4.911387529496282

>  <m_score__min__rmsd>  (97) 
4.911387529496282

>  <meeko>  (97) 
{"free_energy": -9.48, "intermolecular_energy": -10.97, "internal_energy": -1.13, "cluster_size": 50, "cluster_id": 1, "rank_in_cluster": 49}

>  <energy>  (97) 
-9.7

>  <cluster_rmsd>  (97) 
0.79

>  <cluster>  (97) 
1

$$$$

     RDKit          3D

 64 69  0  0  0  0  0  0  0  0999 V2000
  139.9410   80.5070  223.3770 C   0  0  0  0  0  0  0  0  0  0  0  0
  141.2650   80.1280  223.2130 C   0  0  0  0  0  0  0  0  0  0  0  0
  141.6000   78.8350  222.8670 C   0  0  0  0  0  0  0  0  0  0  0  0
  140.6310   77.8560  222.6670 C   0  0  0  0  0  0  0  0  0  0  0  0
  139.3260   78.2540  222.8350 C   0  0  0  0  0  0  0  0  0  0  0  0
  138.9510   79.5390  223.1820 C   0  0  0  0  0  0  0  0  0  0  0  0
  138.2230   77.2700  222.6470 C   0  0  0  0  0  0  0  0  0  0  0  0
  138.6640   76.3470  221.5320 C   0  0  0  0  0  0  0  0  0  0  0  0
  139.9550   75.7640  221.7830 N   0  0  0  0  0  0  0  0  0  0  0  0
  140.1740   74.3690  221.5340 C   0  0  0  0  0  0  0  0  0  0  0  0
  140.6510   73.9450  220.3520 N   0  0  0  0  0  0  0  0  0  0  0  0
  140.8640   72.6150  220.1380 C   0  0  0  0  0  0  0  0  0  0  0  0
  141.3730   72.2960  218.8320 N   0  0  0  0  0  0  0  0  0  0  0  0
  142.8180   72.3060  218.7040 C   0  0  0  0  0  0  0  0  0  0  0  0
  143.4380   72.9440  219.9030 C   0  0  1  0  0  0  0  0  0  0  0  0
  144.7220   72.2640  220.3200 C   0  0  0  0  0  0  0  0  0  0  0  0
  145.3090   73.3420  221.2340 C   0  0  0  0  0  0  0  0  0  0  0  0
  145.0430   74.5550  220.5280 N   0  0  0  0  0  0  0  0  0  0  0  0
  143.8690   74.3630  219.7290 C   0  0  0  0  0  0  0  0  0  0  0  0
  140.6170   71.6870  221.0710 N   0  0  0  0  0  0  0  0  0  0  0  0
  140.1370   72.1250  222.2580 C   0  0  0  0  0  0  0  0  0  0  0  0
  139.8850   71.1600  223.2870 N   0  0  0  0  0  0  0  0  0  0  0  0
  139.3870   69.8620  222.8730 C   0  0  0  0  0  0  0  0  0  0  0  0
  138.5330   69.2830  223.9850 C   0  0  0  0  0  0  0  0  0  0  0  0
  139.4350   69.1670  225.1760 C   0  0  0  0  0  0  0  0  0  0  0  0
  139.5130   68.0290  225.9390 C   0  0  0  0  0  0  0  0  0  0  0  0
  140.3680   67.9960  227.0260 C   0  0  0  0  0  0  0  0  0  0  0  0
  141.1230   69.1020  227.3210 C   0  0  0  0  0  0  0  0  0  0  0  0
  141.0400   70.2400  226.5520 C   0  0  0  0  0  0  0  0  0  0  0  0
  140.1930   70.2870  225.4660 C   0  0  0  0  0  0  0  0  0  0  0  0
  140.1310   71.5340  224.6520 C   0  0  0  0  0  0  0  0  0  0  0  0
  139.9260   73.4370  222.4700 N   0  0  0  0  0  0  0  0  0  0  0  0
  141.0790   76.5120  222.2980 C   0  0  0  0  0  0  0  0  0  0  0  0
  139.6774   81.5388  223.6524 H   0  0  0  0  0  0  0  0  0  0  0  0
  142.0621   80.8714  223.3614 H   0  0  0  0  0  0  0  0  0  0  0  0
  142.6609   78.5709  222.7460 H   0  0  0  0  0  0  0  0  0  0  0  0
  137.8883   79.7962  223.3030 H   0  0  0  0  0  0  0  0  0  0  0  0
  138.0602   76.6986  223.5727 H   0  0  0  0  0  0  0  0  0  0  0  0
  137.2763   77.7725  222.3997 H   0  0  0  0  0  0  0  0  0  0  0  0
  137.9250   75.5387  221.4290 H   0  0  0  0  0  0  0  0  0  0  0  0
  138.7381   76.9440  220.6111 H   0  0  0  0  0  0  0  0  0  0  0  0
  140.7330   72.0850  218.0570 H   0  0  0  0  0  0  0  0  0  0  0  0
  143.1818   71.2718  218.6138 H   0  0  0  0  0  0  0  0  0  0  0  0
  143.0947   72.8812  217.8082 H   0  0  0  0  0  0  0  0  0  0  0  0
  142.6189   72.8611  220.6325 H   0  0  0  0  0  0  0  0  0  0  0  0
  144.5299   71.3276  220.8643 H   0  0  0  0  0  0  0  0  0  0  0  0
  145.3739   71.9556  219.4894 H   0  0  0  0  0  0  0  0  0  0  0  0
  144.8113   73.3402  222.2149 H   0  0  0  0  0  0  0  0  0  0  0  0
  146.3786   73.1923  221.4429 H   0  0  0  0  0  0  0  0  0  0  0  0
  145.8870   74.8210  219.9760 H   0  0  0  0  0  0  0  0  0  0  0  0
  143.0711   75.0421  220.0638 H   0  0  0  0  0  0  0  0  0  0  0  0
  144.0796   74.5781  218.6710 H   0  0  0  0  0  0  0  0  0  0  0  0
  138.7805   69.9731  221.9620 H   0  0  0  0  0  0  0  0  0  0  0  0
  140.2318   69.1891  222.6645 H   0  0  0  0  0  0  0  0  0  0  0  0
  137.6891   69.9525  224.2077 H   0  0  0  0  0  0  0  0  0  0  0  0
  138.1084   68.3083  223.7029 H   0  0  0  0  0  0  0  0  0  0  0  0
  138.9007   67.1503  225.6883 H   0  0  0  0  0  0  0  0  0  0  0  0
  140.4415   67.0914  227.6476 H   0  0  0  0  0  0  0  0  0  0  0  0
  141.8044   69.0792  228.1843 H   0  0  0  0  0  0  0  0  0  0  0  0
  141.6533   71.1173  226.8056 H   0  0  0  0  0  0  0  0  0  0  0  0
  139.3162   72.1773  225.0157 H   0  0  0  0  0  0  0  0  0  0  0  0
  141.0765   72.0904  224.7318 H   0  0  0  0  0  0  0  0  0  0  0  0
  141.4854   76.0028  223.1843 H   0  0  0  0  0  0  0  0  0  0  0  0
  141.8624   76.5805  221.5289 H   0  0  0  0  0  0  0  0  0  0  0  0
  1  2  2  0
  2  3  1  0
  3  4  2  0
  4  5  1  0
  5  6  2  0
  5  7  1  0
  7  8  1  0
  8  9  1  0
  9 10  1  0
 10 11  2  0
 11 12  1  0
 12 13  1  0
 13 14  1  0
 14 15  1  0
 15 16  1  0
 16 17  1  0
 17 18  1  0
 18 19  1  0
 12 20  2  0
 20 21  1  0
 21 22  1  0
 22 23  1  0
 23 24  1  0
 24 25  1  0
 25 26  2  0
 26 27  1  0
 27 28  2  0
 28 29  1  0
 29 30  2  0
 30 31  1  0
 21 32  2  0
  9 33  1  0
  6  1  1  0
 32 10  1  0
 33  4  1  0
 19 15  1  0
 31 22  1  0
 30 25  1  0
  1 34  1  0
  2 35  1  0
  3 36  1  0
  6 37  1  0
  7 38  1  0
  7 39  1  0
  8 40  1  0
  8 41  1  0
 13 42  1  0
 14 43  1  0
 14 44  1  0
 15 45  1  1
 16 46  1  0
 16 47  1  0
 17 48  1  0
 17 49  1  0
 18 50  1  0
 19 51  1  0
 19 52  1  0
 23 53  1  0
 23 54  1  0
 24 55  1  0
 24 56  1  0
 26 57  1  0
 27 58  1  0
 28 59  1  0
 29 60  1  0
 31 61  1  0
 31 62  1  0
 33 63  1  0
 33 64  1  0
M  END
>  <smiles>  (98) 
c1ccc2c(c1)CCN(c1nc(NCC3CCNC3)nc(N3CCc4ccccc4C3)n1)C2

>  <score_type>  (98) 
oracle

>  <origin>  (98) 
autodockgpu

>  <m_score__min__energy>  (98) 
-10.470000000000001

>  <m_primary>  (98) 
energy

>  <rmsd>  (98) 
5.108107432587478

>  <m_score__min__rmsd>  (98) 
5.108107432587478

>  <meeko>  (98) 
{"free_energy": -9.77, "intermolecular_energy": -11.26, "internal_energy": -1.2, "cluster_size": 50, "cluster_id": 1, "rank_in_cluster": 46}

>  <energy>  (98) 
-9.65

>  <cluster_rmsd>  (98) 
1.2

>  <cluster>  (98) 
1

$$$$

     RDKit          3D

 64 69  0  0  0  0  0  0  0  0999 V2000
  139.7990   68.0170  227.5440 C   0  0  0  0  0  0  0  0  0  0  0  0
  140.5100   69.1450  227.9260 C   0  0  0  0  0  0  0  0  0  0  0  0
  140.7830   70.1550  227.0270 C   0  0  0  0  0  0  0  0  0  0  0  0
  140.3600   70.0910  225.7020 C   0  0  0  0  0  0  0  0  0  0  0  0
  139.6570   68.9650  225.3460 C   0  0  0  0  0  0  0  0  0  0  0  0
  139.3650   67.9320  226.2170 C   0  0  0  0  0  0  0  0  0  0  0  0
  139.1710   68.8090  223.9470 C   0  0  0  0  0  0  0  0  0  0  0  0
  138.7970   70.1970  223.4710 C   0  0  0  0  0  0  0  0  0  0  0  0
  139.8710   71.1390  223.6340 N   0  0  0  0  0  0  0  0  0  0  0  0
  140.1840   72.0600  222.5810 C   0  0  0  0  0  0  0  0  0  0  0  0
  140.6680   71.6270  221.4060 N   0  0  0  0  0  0  0  0  0  0  0  0
  140.9480   72.5180  220.4110 C   0  0  0  0  0  0  0  0  0  0  0  0
  141.4630   71.9230  219.2080 N   0  0  0  0  0  0  0  0  0  0  0  0
  142.6980   71.1770  219.3590 C   0  0  0  0  0  0  0  0  0  0  0  0
  143.8620   72.1110  219.4100 C   0  0  1  0  0  0  0  0  0  0  0  0
  144.1190   72.6360  220.8040 C   0  0  0  0  0  0  0  0  0  0  0  0
  145.5410   73.1740  220.6270 C   0  0  0  0  0  0  0  0  0  0  0  0
  146.1800   72.1670  219.8400 N   0  0  0  0  0  0  0  0  0  0  0  0
  145.1820   71.5180  219.0430 C   0  0  0  0  0  0  0  0  0  0  0  0
  140.7570   73.8360  220.5500 N   0  0  0  0  0  0  0  0  0  0  0  0
  140.2690   74.2620  221.7380 C   0  0  0  0  0  0  0  0  0  0  0  0
  140.0300   75.6640  221.9110 N   0  0  0  0  0  0  0  0  0  0  0  0
  138.6910   76.0660  222.3020 C   0  0  0  0  0  0  0  0  0  0  0  0
  138.4140   77.4540  221.7580 C   0  0  0  0  0  0  0  0  0  0  0  0
  139.4520   78.3480  222.3650 C   0  0  0  0  0  0  0  0  0  0  0  0
  139.1450   79.5520  222.9470 C   0  0  0  0  0  0  0  0  0  0  0  0
  140.1570   80.3240  223.4870 C   0  0  0  0  0  0  0  0  0  0  0  0
  141.4510   79.8720  223.4330 C   0  0  0  0  0  0  0  0  0  0  0  0
  141.7520   78.6630  222.8480 C   0  0  0  0  0  0  0  0  0  0  0  0
  140.7530   77.8830  222.3060 C   0  0  0  0  0  0  0  0  0  0  0  0
  141.1150   76.5770  221.6850 C   0  0  0  0  0  0  0  0  0  0  0  0
  139.9930   73.3830  222.7210 N   0  0  0  0  0  0  0  0  0  0  0  0
  140.6920   71.2120  224.8210 C   0  0  0  0  0  0  0  0  0  0  0  0
  139.5829   67.2132  228.2632 H   0  0  0  0  0  0  0  0  0  0  0  0
  140.8624   69.2358  228.9641 H   0  0  0  0  0  0  0  0  0  0  0  0
  141.3501   71.0345  227.3660 H   0  0  0  0  0  0  0  0  0  0  0  0
  138.7988   67.0547  225.8710 H   0  0  0  0  0  0  0  0  0  0  0  0
  139.9654   68.3896  223.3122 H   0  0  0  0  0  0  0  0  0  0  0  0
  138.3124   68.1233  223.8956 H   0  0  0  0  0  0  0  0  0  0  0  0
  138.5309   70.1453  222.4049 H   0  0  0  0  0  0  0  0  0  0  0  0
  137.9500   70.5444  224.0808 H   0  0  0  0  0  0  0  0  0  0  0  0
  140.9720   72.0390  218.3130 H   0  0  0  0  0  0  0  0  0  0  0  0
  142.6587   70.5942  220.2911 H   0  0  0  0  0  0  0  0  0  0  0  0
  142.8170   70.5020  218.4986 H   0  0  0  0  0  0  0  0  0  0  0  0
  143.5510   72.8756  218.6829 H   0  0  0  0  0  0  0  0  0  0  0  0
  143.4119   73.4332  221.0769 H   0  0  0  0  0  0  0  0  0  0  0  0
  144.0008   71.8943  221.6077 H   0  0  0  0  0  0  0  0  0  0  0  0
  145.5339   74.1397  220.1003 H   0  0  0  0  0  0  0  0  0  0  0  0
  146.0519   73.3606  221.5831 H   0  0  0  0  0  0  0  0  0  0  0  0
  146.6990   71.5190  220.4720 H   0  0  0  0  0  0  0  0  0  0  0  0
  145.3858   71.6861  217.9752 H   0  0  0  0  0  0  0  0  0  0  0  0
  145.1845   70.4332  219.2253 H   0  0  0  0  0  0  0  0  0  0  0  0
  137.9580   75.3559  221.8915 H   0  0  0  0  0  0  0  0  0  0  0  0
  138.6106   76.0738  223.3990 H   0  0  0  0  0  0  0  0  0  0  0  0
  138.4988   77.4590  220.6613 H   0  0  0  0  0  0  0  0  0  0  0  0
  137.3965   77.7896  222.0070 H   0  0  0  0  0  0  0  0  0  0  0  0
  138.1022   79.9002  222.9837 H   0  0  0  0  0  0  0  0  0  0  0  0
  139.9265   81.2921  223.9558 H   0  0  0  0  0  0  0  0  0  0  0  0
  142.2582   80.4834  223.8626 H   0  0  0  0  0  0  0  0  0  0  0  0
  142.7957   78.3173  222.8128 H   0  0  0  0  0  0  0  0  0  0  0  0
  141.2738   76.7084  220.6045 H   0  0  0  0  0  0  0  0  0  0  0  0
  142.0427   76.1863  222.1285 H   0  0  0  0  0  0  0  0  0  0  0  0
  141.7537   71.1568  224.5386 H   0  0  0  0  0  0  0  0  0  0  0  0
  140.5053   72.1620  225.3432 H   0  0  0  0  0  0  0  0  0  0  0  0
  1  2  2  0
  2  3  1  0
  3  4  2  0
  4  5  1  0
  5  6  2  0
  5  7  1  0
  7  8  1  0
  8  9  1  0
  9 10  1  0
 10 11  2  0
 11 12  1  0
 12 13  1  0
 13 14  1  0
 14 15  1  0
 15 16  1  0
 16 17  1  0
 17 18  1  0
 18 19  1  0
 12 20  2  0
 20 21  1  0
 21 22  1  0
 22 23  1  0
 23 24  1  0
 24 25  1  0
 25 26  2  0
 26 27  1  0
 27 28  2  0
 28 29  1  0
 29 30  2  0
 30 31  1  0
 21 32  2  0
  9 33  1  0
  6  1  1  0
 32 10  1  0
 33  4  1  0
 19 15  1  0
 31 22  1  0
 30 25  1  0
  1 34  1  0
  2 35  1  0
  3 36  1  0
  6 37  1  0
  7 38  1  0
  7 39  1  0
  8 40  1  0
  8 41  1  0
 13 42  1  0
 14 43  1  0
 14 44  1  0
 15 45  1  6
 16 46  1  0
 16 47  1  0
 17 48  1  0
 17 49  1  0
 18 50  1  0
 19 51  1  0
 19 52  1  0
 23 53  1  0
 23 54  1  0
 24 55  1  0
 24 56  1  0
 26 57  1  0
 27 58  1  0
 28 59  1  0
 29 60  1  0
 31 61  1  0
 31 62  1  0
 33 63  1  0
 33 64  1  0
M  END
>  <smiles>  (99) 
c1ccc2c(c1)CCN(c1nc(NCC3CCNC3)nc(N3CCc4ccccc4C3)n1)C2

>  <score_type>  (99) 
oracle

>  <origin>  (99) 
autodockgpu

>  <m_score__min__energy>  (99) 
-10.470000000000001

>  <m_primary>  (99) 
energy

>  <rmsd>  (99) 
11.362309378879093

>  <m_score__min__rmsd>  (99) 
11.362309378879093

>  <meeko>  (99) 
{"free_energy": -10.33, "intermolecular_energy": -11.82, "internal_energy": -1.02, "cluster_size": 50, "cluster_id": 1, "rank_in_cluster": 17}

>  <energy>  (99) 
-9.48

>  <cluster_rmsd>  (99) 
1.13

>  <cluster>  (99) 
1

$$$$

     RDKit          3D

 64 69  0  0  0  0  0  0  0  0999 V2000
  139.4000   80.6270  223.2340 C   0  0  0  0  0  0  0  0  0  0  0  0
  140.7640   80.4190  223.0910 C   0  0  0  0  0  0  0  0  0  0  0  0
  141.2700   79.1650  222.8190 C   0  0  0  0  0  0  0  0  0  0  0  0
  140.4410   78.0560  222.6750 C   0  0  0  0  0  0  0  0  0  0  0  0
  139.0940   78.2850  222.8200 C   0  0  0  0  0  0  0  0  0  0  0  0
  138.5490   79.5260  223.0940 C   0  0  0  0  0  0  0  0  0  0  0  0
  138.1330   77.1550  222.6890 C   0  0  0  0  0  0  0  0  0  0  0  0
  138.7010   76.2370  221.6280 C   0  0  0  0  0  0  0  0  0  0  0  0
  140.0560   75.8460  221.9110 N   0  0  0  0  0  0  0  0  0  0  0  0
  140.4600   74.4810  221.7410 C   0  0  0  0  0  0  0  0  0  0  0  0
  141.2420   74.1150  220.7130 N   0  0  0  0  0  0  0  0  0  0  0  0
  141.6270   72.8130  220.5740 C   0  0  0  0  0  0  0  0  0  0  0  0
  142.4580   72.5560  219.4310 N   0  0  0  0  0  0  0  0  0  0  0  0
  143.1210   73.7180  218.8660 C   0  0  0  0  0  0  0  0  0  0  0  0
  144.5560   73.7450  219.2780 C   0  0  1  0  0  0  0  0  0  0  0  0
  144.7230   73.8370  220.7780 C   0  0  0  0  0  0  0  0  0  0  0  0
  146.1910   73.4230  220.9050 C   0  0  0  0  0  0  0  0  0  0  0  0
  146.3120   72.3390  219.9840 N   0  0  0  0  0  0  0  0  0  0  0  0
  145.3470   72.5250  218.9400 C   0  0  0  0  0  0  0  0  0  0  0  0
  141.2550   71.8580  221.4360 N   0  0  0  0  0  0  0  0  0  0  0  0
  140.4680   72.2370  222.4690 C   0  0  0  0  0  0  0  0  0  0  0  0
  140.0720   71.2440  223.4240 N   0  0  0  0  0  0  0  0  0  0  0  0
  139.3850   70.0720  222.9150 C   0  0  0  0  0  0  0  0  0  0  0  0
  138.4520   69.5430  223.9880 C   0  0  0  0  0  0  0  0  0  0  0  0
  139.3250   69.2000  225.1570 C   0  0  0  0  0  0  0  0  0  0  0  0
  139.2300   68.0080  225.8290 C   0  0  0  0  0  0  0  0  0  0  0  0
  140.0690   67.7620  226.9010 C   0  0  0  0  0  0  0  0  0  0  0  0
  140.9820   68.7160  227.2730 C   0  0  0  0  0  0  0  0  0  0  0  0
  141.0720   69.9090  226.5950 C   0  0  0  0  0  0  0  0  0  0  0  0
  140.2420   70.1670  225.5250 C   0  0  0  0  0  0  0  0  0  0  0  0
  140.3700   71.4700  224.8110 C   0  0  0  0  0  0  0  0  0  0  0  0
  140.0870   73.5220  222.6050 N   0  0  0  0  0  0  0  0  0  0  0  0
  141.0670   76.7650  222.3830 C   0  0  0  0  0  0  0  0  0  0  0  0
  138.9995   81.6283  223.4511 H   0  0  0  0  0  0  0  0  0  0  0  0
  141.4542   81.2690  223.1964 H   0  0  0  0  0  0  0  0  0  0  0  0
  142.3575   79.0379  222.7131 H   0  0  0  0  0  0  0  0  0  0  0  0
  137.4607   79.6456  223.2004 H   0  0  0  0  0  0  0  0  0  0  0  0
  138.0406   76.6203  223.6459 H   0  0  0  0  0  0  0  0  0  0  0  0
  137.1297   77.5125  222.4138 H   0  0  0  0  0  0  0  0  0  0  0  0
  138.0767   75.3331  221.5716 H   0  0  0  0  0  0  0  0  0  0  0  0
  138.7019   76.7856  220.6746 H   0  0  0  0  0  0  0  0  0  0  0  0
  142.5560   71.6060  219.0560 H   0  0  0  0  0  0  0  0  0  0  0  0
  143.0590   73.6738  217.7686 H   0  0  0  0  0  0  0  0  0  0  0  0
  142.6250   74.6282  219.2342 H   0  0  0  0  0  0  0  0  0  0  0  0
  144.9193   74.6226  218.7232 H   0  0  0  0  0  0  0  0  0  0  0  0
  144.5535   74.8596  221.1461 H   0  0  0  0  0  0  0  0  0  0  0  0
  144.0168   73.2286  221.3620 H   0  0  0  0  0  0  0  0  0  0  0  0
  146.8588   74.2517  220.6269 H   0  0  0  0  0  0  0  0  0  0  0  0
  146.4709   73.1460  221.9321 H   0  0  0  0  0  0  0  0  0  0  0  0
  146.2020   71.4390  220.5000 H   0  0  0  0  0  0  0  0  0  0  0  0
  145.8578   72.6629  217.9756 H   0  0  0  0  0  0  0  0  0  0  0  0
  144.6904   71.6464  218.8559 H   0  0  0  0  0  0  0  0  0  0  0  0
  138.8035   70.3440  222.0217 H   0  0  0  0  0  0  0  0  0  0  0  0
  140.1189   69.2982  222.6455 H   0  0  0  0  0  0  0  0  0  0  0  0
  137.7184   70.3124  224.2707 H   0  0  0  0  0  0  0  0  0  0  0  0
  137.8855   68.6683  223.6359 H   0  0  0  0  0  0  0  0  0  0  0  0
  138.4924   67.2536  225.5179 H   0  0  0  0  0  0  0  0  0  0  0  0
  140.0047   66.8108  227.4498 H   0  0  0  0  0  0  0  0  0  0  0  0
  141.6509   68.5241  228.1249 H   0  0  0  0  0  0  0  0  0  0  0  0
  141.8105   70.6617  226.9082 H   0  0  0  0  0  0  0  0  0  0  0  0
  139.6610   72.1981  225.2319 H   0  0  0  0  0  0  0  0  0  0  0  0
  141.3881   71.8707  224.9241 H   0  0  0  0  0  0  0  0  0  0  0  0
  141.5306   76.3652  223.2969 H   0  0  0  0  0  0  0  0  0  0  0  0
  141.8404   76.8938  221.6115 H   0  0  0  0  0  0  0  0  0  0  0  0
  1  2  2  0
  2  3  1  0
  3  4  2  0
  4  5  1  0
  5  6  2  0
  5  7  1  0
  7  8  1  0
  8  9  1  0
  9 10  1  0
 10 11  2  0
 11 12  1  0
 12 13  1  0
 13 14  1  0
 14 15  1  0
 15 16  1  0
 16 17  1  0
 17 18  1  0
 18 19  1  0
 12 20  2  0
 20 21  1  0
 21 22  1  0
 22 23  1  0
 23 24  1  0
 24 25  1  0
 25 26  2  0
 26 27  1  0
 27 28  2  0
 28 29  1  0
 29 30  2  0
 30 31  1  0
 21 32  2  0
  9 33  1  0
  6  1  1  0
 32 10  1  0
 33  4  1  0
 19 15  1  0
 31 22  1  0
 30 25  1  0
  1 34  1  0
  2 35  1  0
  3 36  1  0
  6 37  1  0
  7 38  1  0
  7 39  1  0
  8 40  1  0
  8 41  1  0
 13 42  1  0
 14 43  1  0
 14 44  1  0
 15 45  1  6
 16 46  1  0
 16 47  1  0
 17 48  1  0
 17 49  1  0
 18 50  1  0
 19 51  1  0
 19 52  1  0
 23 53  1  0
 23 54  1  0
 24 55  1  0
 24 56  1  0
 26 57  1  0
 27 58  1  0
 28 59  1  0
 29 60  1  0
 31 61  1  0
 31 62  1  0
 33 63  1  0
 33 64  1  0
M  END
>  <smiles>  (100) 
c1ccc2c(c1)CCN(c1nc(NCC3CCNC3)nc(N3CCc4ccccc4C3)n1)C2

>  <score_type>  (100) 
oracle

>  <origin>  (100) 
autodockgpu

>  <m_score__min__energy>  (100) 
-10.470000000000001

>  <m_primary>  (100) 
energy

>  <rmsd>  (100) 
5.011447983186855

>  <m_score__min__rmsd>  (100) 
5.011447983186855

>  <meeko>  (100) 
{"free_energy": -10.44, "intermolecular_energy": -11.93, "internal_energy": -1.01, "cluster_size": 50, "cluster_id": 1, "rank_in_cluster": 6}

>  <energy>  (100) 
-9.39

>  <cluster_rmsd>  (100) 
1.26

>  <cluster>  (100) 
1

$$$$
