
     RDKit          3D

 45 48  0  0  0  0  0  0  0  0999 V2000
  143.3210   81.6880  216.8090 N   0  0  0  0  0  0  0  0  0  0  0  0
  141.8670   81.8240  217.7230 S   0  0  0  0  0  0  0  0  0  0  0  0
  141.9600   82.9420  218.7410 O   0  0  0  0  0  0  0  0  0  0  0  0
  140.6720   82.1280  216.8610 O   0  0  0  0  0  0  0  0  0  0  0  0
  141.5530   80.3040  218.5610 C   0  0  0  0  0  0  0  0  0  0  0  0
  142.1270   80.0930  219.8070 C   0  0  0  0  0  0  0  0  0  0  0  0
  141.8810   78.9020  220.4620 C   0  0  0  0  0  0  0  0  0  0  0  0
  141.0650   77.9110  219.8930 C   0  0  0  0  0  0  0  0  0  0  0  0
  140.8550   76.6710  220.5510 N   0  0  0  0  0  0  0  0  0  0  0  0
  139.9290   76.4420  221.4810 C   0  0  0  0  0  0  0  0  0  0  0  0
  138.9660   77.3460  222.0140 C   0  0  0  0  0  0  0  0  0  0  0  0
  139.0510   78.1940  223.0000 C   0  0  0  0  0  0  0  0  0  0  0  0
  140.1760   79.1310  223.1400 C   0  0  0  0  0  0  0  0  0  0  0  0
  141.3760   78.7480  223.6840 C   0  0  0  0  0  0  0  0  0  0  0  0
  142.3810   79.6800  223.7810 C   0  0  0  0  0  0  0  0  0  0  0  0
  142.2440   80.9900  223.3570 C   0  0  0  0  0  0  0  0  0  0  0  0
  141.0100   81.3330  222.8120 C   0  0  0  0  0  0  0  0  0  0  0  0
  140.0430   80.4030  222.7270 N   0  0  0  0  0  0  0  0  0  0  0  0
  139.9040   75.1660  221.9840 N   0  0  0  0  0  0  0  0  0  0  0  0
  140.7170   74.1920  221.6140 C   0  0  0  0  0  0  0  0  0  0  0  0
  140.5850   72.9600  222.1990 C   0  0  0  0  0  0  0  0  0  0  0  0
  141.4660   71.9730  221.7710 C   0  0  0  0  0  0  0  0  0  0  0  0
  142.4280   72.2040  220.8100 C   0  0  0  0  0  0  0  0  0  0  0  0
  142.5280   73.4430  220.2500 C   0  0  0  0  0  0  0  0  0  0  0  0
  141.6740   74.4230  220.6560 C   0  0  0  0  0  0  0  0  0  0  0  0
  141.7270   75.6860  220.1310 C   0  0  0  0  0  0  0  0  0  0  0  0
  142.5940   75.9140  219.2560 O   0  0  0  0  0  0  0  0  0  0  0  0
  140.4840   78.1280  218.6300 C   0  0  0  0  0  0  0  0  0  0  0  0
  140.7480   79.3270  217.9990 C   0  0  0  0  0  0  0  0  0  0  0  0
  143.1290   81.0330  216.0170 H   0  0  0  0  0  0  0  0  0  0  0  0
  144.0080   81.2270  217.4290 H   0  0  0  0  0  0  0  0  0  0  0  0
  142.7671   80.8614  220.2652 H   0  0  0  0  0  0  0  0  0  0  0  0
  142.3334   78.7264  221.4492 H   0  0  0  0  0  0  0  0  0  0  0  0
  137.9885   77.3249  221.5099 H   0  0  0  0  0  0  0  0  0  0  0  0
  138.2517   78.2095  223.7555 H   0  0  0  0  0  0  0  0  0  0  0  0
  141.5302   77.7170  224.0350 H   0  0  0  0  0  0  0  0  0  0  0  0
  143.3418   79.3694  224.2173 H   0  0  0  0  0  0  0  0  0  0  0  0
  143.0633   81.7186  223.4455 H   0  0  0  0  0  0  0  0  0  0  0  0
  140.8275   82.3569  222.4537 H   0  0  0  0  0  0  0  0  0  0  0  0
  139.8224   72.7622  222.9667 H   0  0  0  0  0  0  0  0  0  0  0  0
  141.3929   70.9696  222.2158 H   0  0  0  0  0  0  0  0  0  0  0  0
  143.1075   71.3969  220.4986 H   0  0  0  0  0  0  0  0  0  0  0  0
  143.2876   73.6481  219.4813 H   0  0  0  0  0  0  0  0  0  0  0  0
  139.8413   77.3681  218.1615 H   0  0  0  0  0  0  0  0  0  0  0  0
  140.3016   79.5138  217.0112 H   0  0  0  0  0  0  0  0  0  0  0  0
  1  2  1  0
  2  3  2  0
  2  4  2  0
  2  5  1  0
  5  6  2  0
  6  7  1  0
  7  8  2  0
  8  9  1  0
  9 10  1  0
 10 11  1  0
 11 12  2  0
 12 13  1  0
 13 14  2  0
 14 15  1  0
 15 16  2  0
 16 17  1  0
 17 18  2  0
 10 19  2  0
 19 20  1  0
 20 21  2  0
 21 22  1  0
 22 23  2  0
 23 24  1  0
 24 25  2  0
 25 26  1  0
 26 27  2  0
  8 28  1  0
 28 29  2  0
 29  5  1  0
 26  9  1  0
 18 13  1  0
 25 20  1  0
  1 30  1  0
  1 31  1  0
  6 32  1  0
  7 33  1  0
 11 34  1  0
 12 35  1  0
 14 36  1  0
 15 37  1  0
 16 38  1  0
 17 39  1  0
 21 40  1  0
 22 41  1  0
 23 42  1  0
 24 43  1  0
 28 44  1  0
 29 45  1  0
M  END
>  <smiles>  (1) 
NS(=O)(=O)c1ccc(-n2c(/C=C/c3ccccn3)nc3ccccc3c2=O)cc1

>  <score_type>  (1) 
oracle

>  <origin>  (1) 
autodockgpu

>  <m_score__min__energy>  (1) 
-8.5600000000000005

>  <m_primary>  (1) 
energy

>  <rmsd>  (1) 
6.984099636289558

>  <m_score__min__rmsd>  (1) 
6.984099636289558

>  <meeko>  (1) 
{"free_energy": -6.9, "intermolecular_energy": -8.69, "internal_energy": -1.87, "cluster_size": 21, "cluster_id": 7, "rank_in_cluster": 19}

>  <energy>  (1) 
-8.56

>  <cluster_rmsd>  (1) 
0.0

>  <cluster>  (1) 
1

$$$$

     RDKit          3D

 45 48  0  0  0  0  0  0  0  0999 V2000
  134.0070   66.9670  223.8690 N   0  0  0  0  0  0  0  0  0  0  0  0
  133.8320   68.4860  224.6630 S   0  0  0  0  0  0  0  0  0  0  0  0
  132.4790   69.1030  224.3760 O   0  0  0  0  0  0  0  0  0  0  0  0
  133.9410   68.3690  226.1580 O   0  0  0  0  0  0  0  0  0  0  0  0
  135.0970   69.5870  224.1160 C   0  0  0  0  0  0  0  0  0  0  0  0
  135.9970   69.1500  223.1520 C   0  0  0  0  0  0  0  0  0  0  0  0
  136.9870   70.0130  222.7250 C   0  0  0  0  0  0  0  0  0  0  0  0
  137.0960   71.3140  223.2450 C   0  0  0  0  0  0  0  0  0  0  0  0
  138.1450   72.1780  222.8340 N   0  0  0  0  0  0  0  0  0  0  0  0
  139.4460   71.9170  222.9510 C   0  0  0  0  0  0  0  0  0  0  0  0
  140.0720   70.7570  223.4900 C   0  0  0  0  0  0  0  0  0  0  0  0
  139.8440   70.1040  224.5950 C   0  0  0  0  0  0  0  0  0  0  0  0
  140.2420   70.6220  225.9140 C   0  0  0  0  0  0  0  0  0  0  0  0
  139.8560   70.0100  227.0800 C   0  0  0  0  0  0  0  0  0  0  0  0
  140.2680   70.5530  228.2730 C   0  0  0  0  0  0  0  0  0  0  0  0
  141.0550   71.6880  228.3590 C   0  0  0  0  0  0  0  0  0  0  0  0
  141.4210   72.2740  227.1510 C   0  0  0  0  0  0  0  0  0  0  0  0
  141.0060   71.7240  225.9970 N   0  0  0  0  0  0  0  0  0  0  0  0
  140.2860   72.8970  222.4870 N   0  0  0  0  0  0  0  0  0  0  0  0
  139.8910   74.0400  221.9540 C   0  0  0  0  0  0  0  0  0  0  0  0
  140.8380   74.9360  221.5300 C   0  0  0  0  0  0  0  0  0  0  0  0
  140.3660   76.1210  220.9770 C   0  0  0  0  0  0  0  0  0  0  0  0
  139.0200   76.3980  220.8540 C   0  0  0  0  0  0  0  0  0  0  0  0
  138.1080   75.4820  221.2870 C   0  0  0  0  0  0  0  0  0  0  0  0
  138.5500   74.3150  221.8320 C   0  0  0  0  0  0  0  0  0  0  0  0
  137.6830   73.3580  222.2840 C   0  0  0  0  0  0  0  0  0  0  0  0
  136.4560   73.5920  222.1800 O   0  0  0  0  0  0  0  0  0  0  0  0
  136.1830   71.7530  224.2200 C   0  0  0  0  0  0  0  0  0  0  0  0
  135.2050   70.8680  224.6280 C   0  0  0  0  0  0  0  0  0  0  0  0
  133.0620   66.6890  223.5200 H   0  0  0  0  0  0  0  0  0  0  0  0
  134.2760   66.2880  224.6010 H   0  0  0  0  0  0  0  0  0  0  0  0
  135.9223   68.1344  222.7361 H   0  0  0  0  0  0  0  0  0  0  0  0
  137.7045   69.6753  221.9627 H   0  0  0  0  0  0  0  0  0  0  0  0
  140.8822   70.3435  222.8715 H   0  0  0  0  0  0  0  0  0  0  0  0
  139.3355   69.1302  224.5396 H   0  0  0  0  0  0  0  0  0  0  0  0
  139.2309   69.1051  227.0600 H   0  0  0  0  0  0  0  0  0  0  0  0
  139.9568   70.0610  229.2063 H   0  0  0  0  0  0  0  0  0  0  0  0
  141.3730   72.1032  229.3267 H   0  0  0  0  0  0  0  0  0  0  0  0
  142.0449   73.1799  227.1407 H   0  0  0  0  0  0  0  0  0  0  0  0
  141.9143   74.7283  221.6224 H   0  0  0  0  0  0  0  0  0  0  0  0
  141.0937   76.8665  220.6239 H   0  0  0  0  0  0  0  0  0  0  0  0
  138.6863   77.3480  220.4112 H   0  0  0  0  0  0  0  0  0  0  0  0
  137.0302   75.6827  221.1974 H   0  0  0  0  0  0  0  0  0  0  0  0
  136.2457   72.7664  224.6431 H   0  0  0  0  0  0  0  0  0  0  0  0
  134.4827   71.1943  225.3907 H   0  0  0  0  0  0  0  0  0  0  0  0
  1  2  1  0
  2  3  2  0
  2  4  2  0
  2  5  1  0
  5  6  2  0
  6  7  1  0
  7  8  2  0
  8  9  1  0
  9 10  1  0
 10 11  1  0
 11 12  2  0
 12 13  1  0
 13 14  2  0
 14 15  1  0
 15 16  2  0
 16 17  1  0
 17 18  2  0
 10 19  2  0
 19 20  1  0
 20 21  2  0
 21 22  1  0
 22 23  2  0
 23 24  1  0
 24 25  2  0
 25 26  1  0
 26 27  2  0
  8 28  1  0
 28 29  2  0
 29  5  1  0
 26  9  1  0
 18 13  1  0
 25 20  1  0
  1 30  1  0
  1 31  1  0
  6 32  1  0
  7 33  1  0
 11 34  1  0
 12 35  1  0
 14 36  1  0
 15 37  1  0
 16 38  1  0
 17 39  1  0
 21 40  1  0
 22 41  1  0
 23 42  1  0
 24 43  1  0
 28 44  1  0
 29 45  1  0
M  END
>  <smiles>  (2) 
NS(=O)(=O)c1ccc(-n2c(/C=C/c3ccccn3)nc3ccccc3c2=O)cc1

>  <score_type>  (2) 
oracle

>  <origin>  (2) 
autodockgpu

>  <m_score__min__energy>  (2) 
-8.5600000000000005

>  <m_primary>  (2) 
energy

>  <rmsd>  (2) 
8.043533647024619

>  <m_score__min__rmsd>  (2) 
8.043533647024619

>  <meeko>  (2) 
{"free_energy": -7.64, "intermolecular_energy": -9.43, "internal_energy": -1.3, "cluster_size": 2, "cluster_id": 4, "rank_in_cluster": 1}

>  <energy>  (2) 
-8.44

>  <cluster_rmsd>  (2) 
0.81

>  <cluster>  (2) 
1

$$$$

     RDKit          3D

 45 48  0  0  0  0  0  0  0  0999 V2000
  144.6560   68.2040  217.7010 N   0  0  0  0  0  0  0  0  0  0  0  0
  145.4460   69.0940  218.9470 S   0  0  0  0  0  0  0  0  0  0  0  0
  145.8570   68.1900  220.0920 O   0  0  0  0  0  0  0  0  0  0  0  0
  146.6990   69.7710  218.4650 O   0  0  0  0  0  0  0  0  0  0  0  0
  144.3600   70.3420  219.5590 C   0  0  0  0  0  0  0  0  0  0  0  0
  144.9050   71.5000  220.0990 C   0  0  0  0  0  0  0  0  0  0  0  0
  144.0540   72.4770  220.5780 C   0  0  0  0  0  0  0  0  0  0  0  0
  142.6590   72.3190  220.5270 C   0  0  0  0  0  0  0  0  0  0  0  0
  141.7920   73.3070  221.0640 N   0  0  0  0  0  0  0  0  0  0  0  0
  140.8210   73.0790  221.9470 C   0  0  0  0  0  0  0  0  0  0  0  0
  140.4360   71.8440  222.5420 C   0  0  0  0  0  0  0  0  0  0  0  0
  139.5850   71.5880  223.4960 C   0  0  0  0  0  0  0  0  0  0  0  0
  140.0060   71.0880  224.8140 C   0  0  0  0  0  0  0  0  0  0  0  0
  140.7020   71.8730  225.7000 C   0  0  0  0  0  0  0  0  0  0  0  0
  141.0600   71.3350  226.9120 C   0  0  0  0  0  0  0  0  0  0  0  0
  140.7550   70.0390  227.2880 C   0  0  0  0  0  0  0  0  0  0  0  0
  140.0490   69.2810  226.3580 C   0  0  0  0  0  0  0  0  0  0  0  0
  139.7090   69.8290  225.1780 N   0  0  0  0  0  0  0  0  0  0  0  0
  140.1050   74.1840  222.3310 N   0  0  0  0  0  0  0  0  0  0  0  0
  140.3150   75.4120  221.8880 C   0  0  0  0  0  0  0  0  0  0  0  0
  139.5230   76.4280  222.3540 C   0  0  0  0  0  0  0  0  0  0  0  0
  139.7890   77.7000  221.8550 C   0  0  0  0  0  0  0  0  0  0  0  0
  140.7930   77.9410  220.9400 C   0  0  0  0  0  0  0  0  0  0  0  0
  141.5600   76.9040  220.5000 C   0  0  0  0  0  0  0  0  0  0  0  0
  141.3150   75.6520  220.9770 C   0  0  0  0  0  0  0  0  0  0  0  0
  142.0510   74.5710  220.5720 C   0  0  0  0  0  0  0  0  0  0  0  0
  142.9670   74.7720  219.7420 O   0  0  0  0  0  0  0  0  0  0  0  0
  142.1100   71.1450  219.9790 C   0  0  0  0  0  0  0  0  0  0  0  0
  142.9860   70.1860  219.5090 C   0  0  0  0  0  0  0  0  0  0  0  0
  145.1560   68.4120  216.8080 H   0  0  0  0  0  0  0  0  0  0  0  0
  143.7050   68.6040  217.6210 H   0  0  0  0  0  0  0  0  0  0  0  0
  145.9955   71.6367  220.1444 H   0  0  0  0  0  0  0  0  0  0  0  0
  144.4770   73.3969  221.0079 H   0  0  0  0  0  0  0  0  0  0  0  0
  140.9405   70.9586  222.1279 H   0  0  0  0  0  0  0  0  0  0  0  0
  138.5135   71.7518  223.3086 H   0  0  0  0  0  0  0  0  0  0  0  0
  140.9669   72.9097  225.4448 H   0  0  0  0  0  0  0  0  0  0  0  0
  141.6174   71.9665  227.6195 H   0  0  0  0  0  0  0  0  0  0  0  0
  141.0531   69.6312  228.2651 H   0  0  0  0  0  0  0  0  0  0  0  0
  139.7713   68.2415  226.5867 H   0  0  0  0  0  0  0  0  0  0  0  0
  138.7197   76.2482  223.0836 H   0  0  0  0  0  0  0  0  0  0  0  0
  139.1759   78.5443  222.2032 H   0  0  0  0  0  0  0  0  0  0  0  0
  140.9728   78.9608  220.5690 H   0  0  0  0  0  0  0  0  0  0  0  0
  142.3651   77.0756  219.7704 H   0  0  0  0  0  0  0  0  0  0  0  0
  141.0214   70.9962  219.9267 H   0  0  0  0  0  0  0  0  0  0  0  0
  142.5749   69.2613  219.0777 H   0  0  0  0  0  0  0  0  0  0  0  0
  1  2  1  0
  2  3  2  0
  2  4  2  0
  2  5  1  0
  5  6  2  0
  6  7  1  0
  7  8  2  0
  8  9  1  0
  9 10  1  0
 10 11  1  0
 11 12  2  0
 12 13  1  0
 13 14  2  0
 14 15  1  0
 15 16  2  0
 16 17  1  0
 17 18  2  0
 10 19  2  0
 19 20  1  0
 20 21  2  0
 21 22  1  0
 22 23  2  0
 23 24  1  0
 24 25  2  0
 25 26  1  0
 26 27  2  0
  8 28  1  0
 28 29  2  0
 29  5  1  0
 26  9  1  0
 18 13  1  0
 25 20  1  0
  1 30  1  0
  1 31  1  0
  6 32  1  0
  7 33  1  0
 11 34  1  0
 12 35  1  0
 14 36  1  0
 15 37  1  0
 16 38  1  0
 17 39  1  0
 21 40  1  0
 22 41  1  0
 23 42  1  0
 24 43  1  0
 28 44  1  0
 29 45  1  0
M  END
>  <smiles>  (3) 
NS(=O)(=O)c1ccc(-n2c(/C=C/c3ccccn3)nc3ccccc3c2=O)cc1

>  <score_type>  (3) 
oracle

>  <origin>  (3) 
autodockgpu

>  <m_score__min__energy>  (3) 
-8.5600000000000005

>  <m_primary>  (3) 
energy

>  <rmsd>  (3) 
5.683277962782262

>  <m_score__min__rmsd>  (3) 
5.683277962782262

>  <meeko>  (3) 
{"free_energy": -8.21, "intermolecular_energy": -10.0, "internal_energy": -0.91, "cluster_size": 13, "cluster_id": 1, "rank_in_cluster": 7}

>  <energy>  (3) 
-8.4

>  <cluster_rmsd>  (3) 
0.62

>  <cluster>  (3) 
1

$$$$

     RDKit          3D

 45 48  0  0  0  0  0  0  0  0999 V2000
  143.7200   81.8060  217.1880 N   0  0  0  0  0  0  0  0  0  0  0  0
  142.0860   81.8100  217.7330 S   0  0  0  0  0  0  0  0  0  0  0  0
  141.8250   82.9630  218.6810 O   0  0  0  0  0  0  0  0  0  0  0  0
  141.1030   81.9520  216.6050 O   0  0  0  0  0  0  0  0  0  0  0  0
  141.7380   80.2920  218.5620 C   0  0  0  0  0  0  0  0  0  0  0  0
  142.1410   80.1390  219.8820 C   0  0  0  0  0  0  0  0  0  0  0  0
  141.8680   78.9490  220.5290 C   0  0  0  0  0  0  0  0  0  0  0  0
  141.1940   77.9020  219.8790 C   0  0  0  0  0  0  0  0  0  0  0  0
  140.9590   76.6660  220.5360 N   0  0  0  0  0  0  0  0  0  0  0  0
  140.0090   76.4470  221.4430 C   0  0  0  0  0  0  0  0  0  0  0  0
  139.0400   77.3600  221.9500 C   0  0  0  0  0  0  0  0  0  0  0  0
  139.0940   78.1840  222.9590 C   0  0  0  0  0  0  0  0  0  0  0  0
  140.2000   79.1370  223.1400 C   0  0  0  0  0  0  0  0  0  0  0  0
  141.4010   78.7590  223.6870 C   0  0  0  0  0  0  0  0  0  0  0  0
  142.3860   79.7070  223.8240 C   0  0  0  0  0  0  0  0  0  0  0  0
  142.2300   81.0260  223.4380 C   0  0  0  0  0  0  0  0  0  0  0  0
  140.9950   81.3630  222.8890 C   0  0  0  0  0  0  0  0  0  0  0  0
  140.0470   80.4180  222.7650 N   0  0  0  0  0  0  0  0  0  0  0  0
  139.9620   75.1730  221.9500 N   0  0  0  0  0  0  0  0  0  0  0  0
  140.7770   74.1920  221.6020 C   0  0  0  0  0  0  0  0  0  0  0  0
  140.6220   72.9630  222.1890 C   0  0  0  0  0  0  0  0  0  0  0  0
  141.5060   71.9680  221.7850 C   0  0  0  0  0  0  0  0  0  0  0  0
  142.4920   72.1890  220.8460 C   0  0  0  0  0  0  0  0  0  0  0  0
  142.6150   73.4250  220.2850 C   0  0  0  0  0  0  0  0  0  0  0  0
  141.7590   74.4130  220.6670 C   0  0  0  0  0  0  0  0  0  0  0  0
  141.8340   75.6740  220.1400 C   0  0  0  0  0  0  0  0  0  0  0  0
  142.7240   75.8920  219.2850 O   0  0  0  0  0  0  0  0  0  0  0  0
  140.7860   78.0610  218.5410 C   0  0  0  0  0  0  0  0  0  0  0  0
  141.0740   79.2590  217.9210 C   0  0  0  0  0  0  0  0  0  0  0  0
  143.7010   81.6550  216.1540 H   0  0  0  0  0  0  0  0  0  0  0  0
  144.1640   80.9740  217.6120 H   0  0  0  0  0  0  0  0  0  0  0  0
  142.6685   80.9512  220.4036 H   0  0  0  0  0  0  0  0  0  0  0  0
  142.1849   78.8189  221.5743 H   0  0  0  0  0  0  0  0  0  0  0  0
  138.0882   77.3717  221.3987 H   0  0  0  0  0  0  0  0  0  0  0  0
  138.2830   78.1659  223.7020 H   0  0  0  0  0  0  0  0  0  0  0  0
  141.5709   77.7208  224.0083 H   0  0  0  0  0  0  0  0  0  0  0  0
  143.3473   79.4016  224.2629 H   0  0  0  0  0  0  0  0  0  0  0  0
  143.0348   81.7662  223.5577 H   0  0  0  0  0  0  0  0  0  0  0  0
  140.7971   82.3937  222.5597 H   0  0  0  0  0  0  0  0  0  0  0  0
  139.8403   72.7738  222.9394 H   0  0  0  0  0  0  0  0  0  0  0  0
  141.4154   70.9667  222.2313 H   0  0  0  0  0  0  0  0  0  0  0  0
  143.1722   71.3758  220.5529 H   0  0  0  0  0  0  0  0  0  0  0  0
  143.3946   73.6218  219.5343 H   0  0  0  0  0  0  0  0  0  0  0  0
  140.2559   77.2577  218.0084 H   0  0  0  0  0  0  0  0  0  0  0  0
  140.7638   79.3998  216.8751 H   0  0  0  0  0  0  0  0  0  0  0  0
  1  2  1  0
  2  3  2  0
  2  4  2  0
  2  5  1  0
  5  6  2  0
  6  7  1  0
  7  8  2  0
  8  9  1  0
  9 10  1  0
 10 11  1  0
 11 12  2  0
 12 13  1  0
 13 14  2  0
 14 15  1  0
 15 16  2  0
 16 17  1  0
 17 18  2  0
 10 19  2  0
 19 20  1  0
 20 21  2  0
 21 22  1  0
 22 23  2  0
 23 24  1  0
 24 25  2  0
 25 26  1  0
 26 27  2  0
  8 28  1  0
 28 29  2  0
 29  5  1  0
 26  9  1  0
 18 13  1  0
 25 20  1  0
  1 30  1  0
  1 31  1  0
  6 32  1  0
  7 33  1  0
 11 34  1  0
 12 35  1  0
 14 36  1  0
 15 37  1  0
 16 38  1  0
 17 39  1  0
 21 40  1  0
 22 41  1  0
 23 42  1  0
 24 43  1  0
 28 44  1  0
 29 45  1  0
M  END
>  <smiles>  (4) 
NS(=O)(=O)c1ccc(-n2c(/C=C/c3ccccn3)nc3ccccc3c2=O)cc1

>  <score_type>  (4) 
oracle

>  <origin>  (4) 
autodockgpu

>  <m_score__min__energy>  (4) 
-8.5600000000000005

>  <m_primary>  (4) 
energy

>  <rmsd>  (4) 
7.010158943820324

>  <m_score__min__rmsd>  (4) 
7.010158943820324

>  <meeko>  (4) 
{"free_energy": -7.13, "intermolecular_energy": -8.92, "internal_energy": -1.76, "cluster_size": 21, "cluster_id": 7, "rank_in_cluster": 13}

>  <energy>  (4) 
-8.35

>  <cluster_rmsd>  (4) 
0.15

>  <cluster>  (4) 
1

$$$$

     RDKit          3D

 45 48  0  0  0  0  0  0  0  0999 V2000
  144.6670   68.2560  217.6730 N   0  0  0  0  0  0  0  0  0  0  0  0
  145.4280   69.1100  218.9610 S   0  0  0  0  0  0  0  0  0  0  0  0
  145.8030   68.1760  220.0930 O   0  0  0  0  0  0  0  0  0  0  0  0
  146.6970   69.7910  218.5300 O   0  0  0  0  0  0  0  0  0  0  0  0
  144.3330   70.3500  219.5740 C   0  0  0  0  0  0  0  0  0  0  0  0
  144.8680   71.5190  220.0990 C   0  0  0  0  0  0  0  0  0  0  0  0
  144.0100   72.4890  220.5790 C   0  0  0  0  0  0  0  0  0  0  0  0
  142.6170   72.3130  220.5440 C   0  0  0  0  0  0  0  0  0  0  0  0
  141.7430   73.2940  221.0820 N   0  0  0  0  0  0  0  0  0  0  0  0
  140.7660   73.0570  221.9550 C   0  0  0  0  0  0  0  0  0  0  0  0
  140.3800   71.8160  222.5370 C   0  0  0  0  0  0  0  0  0  0  0  0
  139.5320   71.5520  223.4920 C   0  0  0  0  0  0  0  0  0  0  0  0
  139.9610   71.0900  224.8210 C   0  0  0  0  0  0  0  0  0  0  0  0
  140.7170   71.8760  225.6540 C   0  0  0  0  0  0  0  0  0  0  0  0
  141.0780   71.3740  226.8810 C   0  0  0  0  0  0  0  0  0  0  0  0
  140.7190   70.1130  227.3210 C   0  0  0  0  0  0  0  0  0  0  0  0
  139.9530   69.3510  226.4430 C   0  0  0  0  0  0  0  0  0  0  0  0
  139.6110   69.8640  225.2480 N   0  0  0  0  0  0  0  0  0  0  0  0
  140.0440   74.1570  222.3420 N   0  0  0  0  0  0  0  0  0  0  0  0
  140.2540   75.3880  221.9110 C   0  0  0  0  0  0  0  0  0  0  0  0
  139.4560   76.4000  222.3780 C   0  0  0  0  0  0  0  0  0  0  0  0
  139.7230   77.6750  221.8920 C   0  0  0  0  0  0  0  0  0  0  0  0
  140.7320   77.9270  220.9860 C   0  0  0  0  0  0  0  0  0  0  0  0
  141.5060   76.8950  220.5440 C   0  0  0  0  0  0  0  0  0  0  0  0
  141.2610   75.6390  221.0090 C   0  0  0  0  0  0  0  0  0  0  0  0
  142.0030   74.5630  220.6020 C   0  0  0  0  0  0  0  0  0  0  0  0
  142.9250   74.7730  219.7800 O   0  0  0  0  0  0  0  0  0  0  0  0
  142.0780   71.1270  220.0110 C   0  0  0  0  0  0  0  0  0  0  0  0
  142.9600   70.1760  219.5390 C   0  0  0  0  0  0  0  0  0  0  0  0
  145.3800   68.1320  216.9190 H   0  0  0  0  0  0  0  0  0  0  0  0
  143.9350   68.8860  217.3020 H   0  0  0  0  0  0  0  0  0  0  0  0
  145.9571   71.6699  220.1320 H   0  0  0  0  0  0  0  0  0  0  0  0
  144.4258   73.4177  220.9969 H   0  0  0  0  0  0  0  0  0  0  0  0
  140.8799   70.9339  222.1104 H   0  0  0  0  0  0  0  0  0  0  0  0
  138.4570   71.6794  223.2966 H   0  0  0  0  0  0  0  0  0  0  0  0
  141.0271   72.8855  225.3462 H   0  0  0  0  0  0  0  0  0  0  0  0
  141.6830   72.0069  227.5468 H   0  0  0  0  0  0  0  0  0  0  0  0
  141.0214   69.7337  228.3083 H   0  0  0  0  0  0  0  0  0  0  0  0
  139.6303   68.3378  226.7245 H   0  0  0  0  0  0  0  0  0  0  0  0
  138.6469   76.2132  223.0994 H   0  0  0  0  0  0  0  0  0  0  0  0
  139.1059   78.5150  222.2435 H   0  0  0  0  0  0  0  0  0  0  0  0
  140.9105   78.9501  220.6236 H   0  0  0  0  0  0  0  0  0  0  0  0
  142.3165   77.0746  219.8223 H   0  0  0  0  0  0  0  0  0  0  0  0
  140.9909   70.9636  219.9720 H   0  0  0  0  0  0  0  0  0  0  0  0
  142.5561   69.2432  219.1185 H   0  0  0  0  0  0  0  0  0  0  0  0
  1  2  1  0
  2  3  2  0
  2  4  2  0
  2  5  1  0
  5  6  2  0
  6  7  1  0
  7  8  2  0
  8  9  1  0
  9 10  1  0
 10 11  1  0
 11 12  2  0
 12 13  1  0
 13 14  2  0
 14 15  1  0
 15 16  2  0
 16 17  1  0
 17 18  2  0
 10 19  2  0
 19 20  1  0
 20 21  2  0
 21 22  1  0
 22 23  2  0
 23 24  1  0
 24 25  2  0
 25 26  1  0
 26 27  2  0
  8 28  1  0
 28 29  2  0
 29  5  1  0
 26  9  1  0
 18 13  1  0
 25 20  1  0
  1 30  1  0
  1 31  1  0
  6 32  1  0
  7 33  1  0
 11 34  1  0
 12 35  1  0
 14 36  1  0
 15 37  1  0
 16 38  1  0
 17 39  1  0
 21 40  1  0
 22 41  1  0
 23 42  1  0
 24 43  1  0
 28 44  1  0
 29 45  1  0
M  END
>  <smiles>  (5) 
NS(=O)(=O)c1ccc(-n2c(/C=C/c3ccccn3)nc3ccccc3c2=O)cc1

>  <score_type>  (5) 
oracle

>  <origin>  (5) 
autodockgpu

>  <m_score__min__energy>  (5) 
-8.5600000000000005

>  <m_primary>  (5) 
energy

>  <rmsd>  (5) 
5.677022064319031

>  <m_score__min__rmsd>  (5) 
5.677022064319031

>  <meeko>  (5) 
{"free_energy": -8.25, "intermolecular_energy": -10.04, "internal_energy": -0.89, "cluster_size": 13, "cluster_id": 1, "rank_in_cluster": 6}

>  <energy>  (5) 
-8.25

>  <cluster_rmsd>  (5) 
0.9

>  <cluster>  (5) 
1

$$$$

     RDKit          3D

 45 48  0  0  0  0  0  0  0  0999 V2000
  144.1530   82.4240  216.5790 N   0  0  0  0  0  0  0  0  0  0  0  0
  142.5560   82.3020  217.2120 S   0  0  0  0  0  0  0  0  0  0  0  0
  142.2900   83.3780  218.2450 O   0  0  0  0  0  0  0  0  0  0  0  0
  141.5020   82.4580  216.1510 O   0  0  0  0  0  0  0  0  0  0  0  0
  142.3370   80.7190  217.9590 C   0  0  0  0  0  0  0  0  0  0  0  0
  142.2540   80.6350  219.3430 C   0  0  0  0  0  0  0  0  0  0  0  0
  142.0830   79.3940  219.9260 C   0  0  0  0  0  0  0  0  0  0  0  0
  141.9920   78.2280  219.1490 C   0  0  0  0  0  0  0  0  0  0  0  0
  141.8640   76.9520  219.7580 N   0  0  0  0  0  0  0  0  0  0  0  0
  140.9210   76.6110  220.6350 C   0  0  0  0  0  0  0  0  0  0  0  0
  139.8580   77.4080  221.1480 C   0  0  0  0  0  0  0  0  0  0  0  0
  139.7260   78.0110  222.2970 C   0  0  0  0  0  0  0  0  0  0  0  0
  140.6110   79.1080  222.7180 C   0  0  0  0  0  0  0  0  0  0  0  0
  141.7140   78.8900  223.5040 C   0  0  0  0  0  0  0  0  0  0  0  0
  142.4920   79.9660  223.8560 C   0  0  0  0  0  0  0  0  0  0  0  0
  142.2200   81.2620  223.4580 C   0  0  0  0  0  0  0  0  0  0  0  0
  141.0910   81.4360  222.6620 C   0  0  0  0  0  0  0  0  0  0  0  0
  140.3460   80.3670  222.3300 N   0  0  0  0  0  0  0  0  0  0  0  0
  140.9870   75.3210  221.0970 N   0  0  0  0  0  0  0  0  0  0  0  0
  141.8990   74.4360  220.7370 C   0  0  0  0  0  0  0  0  0  0  0  0
  141.8510   73.1770  221.2770 C   0  0  0  0  0  0  0  0  0  0  0  0
  142.8350   72.2860  220.8620 C   0  0  0  0  0  0  0  0  0  0  0  0
  143.8150   72.6340  219.9560 C   0  0  0  0  0  0  0  0  0  0  0  0
  143.8300   73.8960  219.4390 C   0  0  0  0  0  0  0  0  0  0  0  0
  142.8750   74.7830  219.8330 C   0  0  0  0  0  0  0  0  0  0  0  0
  142.8390   76.0630  219.3500 C   0  0  0  0  0  0  0  0  0  0  0  0
  143.7210   76.3960  218.5250 O   0  0  0  0  0  0  0  0  0  0  0  0
  142.0770   78.3170  217.7470 C   0  0  0  0  0  0  0  0  0  0  0  0
  142.2480   79.5690  217.1930 C   0  0  0  0  0  0  0  0  0  0  0  0
  144.2580   81.6750  215.8570 H   0  0  0  0  0  0  0  0  0  0  0  0
  144.7910   82.1900  217.3580 H   0  0  0  0  0  0  0  0  0  0  0  0
  142.3232   81.5404  219.9639 H   0  0  0  0  0  0  0  0  0  0  0  0
  142.0168   79.3179  221.0214 H   0  0  0  0  0  0  0  0  0  0  0  0
  139.0078   77.5362  220.4618 H   0  0  0  0  0  0  0  0  0  0  0  0
  138.9235   77.6874  222.9761 H   0  0  0  0  0  0  0  0  0  0  0  0
  141.9698   77.8759  223.8449 H   0  0  0  0  0  0  0  0  0  0  0  0
  143.3758   79.7877  224.4862 H   0  0  0  0  0  0  0  0  0  0  0  0
  142.8591   82.1072  223.7534 H   0  0  0  0  0  0  0  0  0  0  0  0
  140.8110   82.4391  222.3079 H   0  0  0  0  0  0  0  0  0  0  0  0
  141.0750   72.8866  222.0005 H   0  0  0  0  0  0  0  0  0  0  0  0
  142.8316   71.2652  221.2718 H   0  0  0  0  0  0  0  0  0  0  0  0
  144.5771   71.9008  219.6533 H   0  0  0  0  0  0  0  0  0  0  0  0
  144.6024   74.1930  218.7143 H   0  0  0  0  0  0  0  0  0  0  0  0
  142.0094   77.4194  217.1147 H   0  0  0  0  0  0  0  0  0  0  0  0
  142.3164   79.6571  216.0987 H   0  0  0  0  0  0  0  0  0  0  0  0
  1  2  1  0
  2  3  2  0
  2  4  2  0
  2  5  1  0
  5  6  2  0
  6  7  1  0
  7  8  2  0
  8  9  1  0
  9 10  1  0
 10 11  1  0
 11 12  2  0
 12 13  1  0
 13 14  2  0
 14 15  1  0
 15 16  2  0
 16 17  1  0
 17 18  2  0
 10 19  2  0
 19 20  1  0
 20 21  2  0
 21 22  1  0
 22 23  2  0
 23 24  1  0
 24 25  2  0
 25 26  1  0
 26 27  2  0
  8 28  1  0
 28 29  2  0
 29  5  1  0
 26  9  1  0
 18 13  1  0
 25 20  1  0
  1 30  1  0
  1 31  1  0
  6 32  1  0
  7 33  1  0
 11 34  1  0
 12 35  1  0
 14 36  1  0
 15 37  1  0
 16 38  1  0
 17 39  1  0
 21 40  1  0
 22 41  1  0
 23 42  1  0
 24 43  1  0
 28 44  1  0
 29 45  1  0
M  END
>  <smiles>  (6) 
NS(=O)(=O)c1ccc(-n2c(/C=C/c3ccccn3)nc3ccccc3c2=O)cc1

>  <score_type>  (6) 
oracle

>  <origin>  (6) 
autodockgpu

>  <m_score__min__energy>  (6) 
-8.5600000000000005

>  <m_primary>  (6) 
energy

>  <rmsd>  (6) 
7.1889212559028355

>  <m_score__min__rmsd>  (6) 
7.1889212559028355

>  <meeko>  (6) 
{"free_energy": -7.46, "intermolecular_energy": -9.25, "internal_energy": -1.43, "cluster_size": 21, "cluster_id": 7, "rank_in_cluster": 2}

>  <energy>  (6) 
-8.25

>  <cluster_rmsd>  (6) 
0.81

>  <cluster>  (6) 
1

$$$$

     RDKit          3D

 45 48  0  0  0  0  0  0  0  0999 V2000
  143.4780   81.7090  217.0650 N   0  0  0  0  0  0  0  0  0  0  0  0
  141.9280   81.7770  217.8120 S   0  0  0  0  0  0  0  0  0  0  0  0
  141.8530   82.9050  218.8210 O   0  0  0  0  0  0  0  0  0  0  0  0
  140.8210   82.0120  216.8220 O   0  0  0  0  0  0  0  0  0  0  0  0
  141.6010   80.2480  218.6310 C   0  0  0  0  0  0  0  0  0  0  0  0
  142.0870   80.0580  219.9180 C   0  0  0  0  0  0  0  0  0  0  0  0
  141.8310   78.8610  220.5580 C   0  0  0  0  0  0  0  0  0  0  0  0
  141.0920   77.8430  219.9330 C   0  0  0  0  0  0  0  0  0  0  0  0
  140.8730   76.5980  220.5790 N   0  0  0  0  0  0  0  0  0  0  0  0
  139.9270   76.3590  221.4850 C   0  0  0  0  0  0  0  0  0  0  0  0
  138.9470   77.2540  222.0000 C   0  0  0  0  0  0  0  0  0  0  0  0
  139.0030   78.0950  222.9950 C   0  0  0  0  0  0  0  0  0  0  0  0
  140.1240   79.0320  223.1730 C   0  0  0  0  0  0  0  0  0  0  0  0
  141.3280   78.6310  223.6950 C   0  0  0  0  0  0  0  0  0  0  0  0
  142.3270   79.5650  223.8310 C   0  0  0  0  0  0  0  0  0  0  0  0
  142.1810   80.8920  223.4680 C   0  0  0  0  0  0  0  0  0  0  0  0
  140.9420   81.2520  222.9440 C   0  0  0  0  0  0  0  0  0  0  0  0
  139.9810   80.3210  222.8200 N   0  0  0  0  0  0  0  0  0  0  0  0
  139.8970   75.0800  221.9790 N   0  0  0  0  0  0  0  0  0  0  0  0
  140.7240   74.1120  221.6230 C   0  0  0  0  0  0  0  0  0  0  0  0
  140.5850   72.8760  222.1980 C   0  0  0  0  0  0  0  0  0  0  0  0
  141.4810   71.8960  221.7840 C   0  0  0  0  0  0  0  0  0  0  0  0
  142.4640   72.1380  220.8480 C   0  0  0  0  0  0  0  0  0  0  0  0
  142.5710   73.3810  220.2980 C   0  0  0  0  0  0  0  0  0  0  0  0
  141.7030   74.3540  220.6890 C   0  0  0  0  0  0  0  0  0  0  0  0
  141.7610   75.6200  220.1730 C   0  0  0  0  0  0  0  0  0  0  0  0
  142.6470   75.8580  219.3200 O   0  0  0  0  0  0  0  0  0  0  0  0
  140.6010   78.0390  218.6290 C   0  0  0  0  0  0  0  0  0  0  0  0
  140.8730   79.2450  218.0150 C   0  0  0  0  0  0  0  0  0  0  0  0
  143.3480   81.2810  216.1200 H   0  0  0  0  0  0  0  0  0  0  0  0
  144.0410   81.0470  217.6260 H   0  0  0  0  0  0  0  0  0  0  0  0
  142.6661   80.8475  220.4193 H   0  0  0  0  0  0  0  0  0  0  0  0
  142.2133   78.7018  221.5771 H   0  0  0  0  0  0  0  0  0  0  0  0
  137.9828   77.2326  221.4710 H   0  0  0  0  0  0  0  0  0  0  0  0
  138.1827   78.1045  223.7278 H   0  0  0  0  0  0  0  0  0  0  0  0
  141.4899   77.5859  223.9977 H   0  0  0  0  0  0  0  0  0  0  0  0
  143.2913   79.2411  224.2496 H   0  0  0  0  0  0  0  0  0  0  0  0
  142.9965   81.6206  223.5865 H   0  0  0  0  0  0  0  0  0  0  0  0
  140.7515   82.2901  222.6341 H   0  0  0  0  0  0  0  0  0  0  0  0
  139.8063   72.6698  222.9471 H   0  0  0  0  0  0  0  0  0  0  0  0
  141.4023   70.8892  222.2201 H   0  0  0  0  0  0  0  0  0  0  0  0
  143.1549   71.3364  220.5480 H   0  0  0  0  0  0  0  0  0  0  0  0
  143.3477   73.5945  219.5489 H   0  0  0  0  0  0  0  0  0  0  0  0
  140.0203   77.2579  218.1164 H   0  0  0  0  0  0  0  0  0  0  0  0
  140.4962   79.4156  216.9957 H   0  0  0  0  0  0  0  0  0  0  0  0
  1  2  1  0
  2  3  2  0
  2  4  2  0
  2  5  1  0
  5  6  2  0
  6  7  1  0
  7  8  2  0
  8  9  1  0
  9 10  1  0
 10 11  1  0
 11 12  2  0
 12 13  1  0
 13 14  2  0
 14 15  1  0
 15 16  2  0
 16 17  1  0
 17 18  2  0
 10 19  2  0
 19 20  1  0
 20 21  2  0
 21 22  1  0
 22 23  2  0
 23 24  1  0
 24 25  2  0
 25 26  1  0
 26 27  2  0
  8 28  1  0
 28 29  2  0
 29  5  1  0
 26  9  1  0
 18 13  1  0
 25 20  1  0
  1 30  1  0
  1 31  1  0
  6 32  1  0
  7 33  1  0
 11 34  1  0
 12 35  1  0
 14 36  1  0
 15 37  1  0
 16 38  1  0
 17 39  1  0
 21 40  1  0
 22 41  1  0
 23 42  1  0
 24 43  1  0
 28 44  1  0
 29 45  1  0
M  END
>  <smiles>  (7) 
NS(=O)(=O)c1ccc(-n2c(/C=C/c3ccccn3)nc3ccccc3c2=O)cc1

>  <score_type>  (7) 
oracle

>  <origin>  (7) 
autodockgpu

>  <m_score__min__energy>  (7) 
-8.5600000000000005

>  <m_primary>  (7) 
energy

>  <rmsd>  (7) 
7.027152251673287

>  <m_score__min__rmsd>  (7) 
7.027152251673287

>  <meeko>  (7) 
{"free_energy": -7.03, "intermolecular_energy": -8.82, "internal_energy": -1.81, "cluster_size": 21, "cluster_id": 7, "rank_in_cluster": 16}

>  <energy>  (7) 
-8.21

>  <cluster_rmsd>  (7) 
0.83

>  <cluster>  (7) 
1

$$$$

     RDKit          3D

 45 48  0  0  0  0  0  0  0  0999 V2000
  143.4530   81.7480  216.9910 N   0  0  0  0  0  0  0  0  0  0  0  0
  141.9160   81.7770  217.7690 S   0  0  0  0  0  0  0  0  0  0  0  0
  141.8320   82.9060  218.7760 O   0  0  0  0  0  0  0  0  0  0  0  0
  140.7840   81.9810  216.8010 O   0  0  0  0  0  0  0  0  0  0  0  0
  141.6460   80.2430  218.5980 C   0  0  0  0  0  0  0  0  0  0  0  0
  140.9970   79.2190  217.9200 C   0  0  0  0  0  0  0  0  0  0  0  0
  140.7860   78.0190  218.5710 C   0  0  0  0  0  0  0  0  0  0  0  0
  141.2150   77.8200  219.8940 C   0  0  0  0  0  0  0  0  0  0  0  0
  140.9520   76.6000  220.5700 N   0  0  0  0  0  0  0  0  0  0  0  0
  139.9960   76.4150  221.4780 C   0  0  0  0  0  0  0  0  0  0  0  0
  139.0450   77.3550  221.9670 C   0  0  0  0  0  0  0  0  0  0  0  0
  139.1040   78.1760  222.9780 C   0  0  0  0  0  0  0  0  0  0  0  0
  140.1960   79.1480  223.1430 C   0  0  0  0  0  0  0  0  0  0  0  0
  141.3940   78.8020  223.7160 C   0  0  0  0  0  0  0  0  0  0  0  0
  142.3670   79.7650  223.8350 C   0  0  0  0  0  0  0  0  0  0  0  0
  142.2000   81.0700  223.4060 C   0  0  0  0  0  0  0  0  0  0  0  0
  140.9680   81.3740  222.8320 C   0  0  0  0  0  0  0  0  0  0  0  0
  140.0330   80.4150  222.7260 N   0  0  0  0  0  0  0  0  0  0  0  0
  139.9220   75.1510  222.0050 N   0  0  0  0  0  0  0  0  0  0  0  0
  140.7170   74.1480  221.6750 C   0  0  0  0  0  0  0  0  0  0  0  0
  140.5350   72.9320  222.2810 C   0  0  0  0  0  0  0  0  0  0  0  0
  141.3990   71.9120  221.8960 C   0  0  0  0  0  0  0  0  0  0  0  0
  142.3920   72.0970  220.9570 C   0  0  0  0  0  0  0  0  0  0  0  0
  142.5420   73.3220  220.3760 C   0  0  0  0  0  0  0  0  0  0  0  0
  141.7060   74.3330  220.7400 C   0  0  0  0  0  0  0  0  0  0  0  0
  141.8080   75.5830  220.1920 C   0  0  0  0  0  0  0  0  0  0  0  0
  142.7040   75.7700  219.3370 O   0  0  0  0  0  0  0  0  0  0  0  0
  141.8720   78.8600  220.5770 C   0  0  0  0  0  0  0  0  0  0  0  0
  142.0680   80.0470  219.9020 C   0  0  0  0  0  0  0  0  0  0  0  0
  143.3200   81.2960  216.0580 H   0  0  0  0  0  0  0  0  0  0  0  0
  144.0500   81.1190  217.5540 H   0  0  0  0  0  0  0  0  0  0  0  0
  140.6572   79.3611  216.8835 H   0  0  0  0  0  0  0  0  0  0  0  0
  140.2716   77.2026  218.0428 H   0  0  0  0  0  0  0  0  0  0  0  0
  138.1048   77.3952  221.3975 H   0  0  0  0  0  0  0  0  0  0  0  0
  138.3076   78.1407  223.7359 H   0  0  0  0  0  0  0  0  0  0  0  0
  141.5715   77.7765  224.0722 H   0  0  0  0  0  0  0  0  0  0  0  0
  143.3264   79.4846  224.2942 H   0  0  0  0  0  0  0  0  0  0  0  0
  142.9943   81.8236  223.5122 H   0  0  0  0  0  0  0  0  0  0  0  0
  140.7620   82.3915  222.4682 H   0  0  0  0  0  0  0  0  0  0  0  0
  139.7475   72.7713  223.0320 H   0  0  0  0  0  0  0  0  0  0  0  0
  141.2859   70.9202  222.3581 H   0  0  0  0  0  0  0  0  0  0  0  0
  143.0562   71.2653  220.6794 H   0  0  0  0  0  0  0  0  0  0  0  0
  143.3271   73.4906  219.6242 H   0  0  0  0  0  0  0  0  0  0  0  0
  142.2174   78.7310  221.6134 H   0  0  0  0  0  0  0  0  0  0  0  0
  142.5801   80.8709  220.4206 H   0  0  0  0  0  0  0  0  0  0  0  0
  1  2  1  0
  2  3  2  0
  2  4  2  0
  2  5  1  0
  5  6  2  0
  6  7  1  0
  7  8  2  0
  8  9  1  0
  9 10  1  0
 10 11  1  0
 11 12  2  0
 12 13  1  0
 13 14  2  0
 14 15  1  0
 15 16  2  0
 16 17  1  0
 17 18  2  0
 10 19  2  0
 19 20  1  0
 20 21  2  0
 21 22  1  0
 22 23  2  0
 23 24  1  0
 24 25  2  0
 25 26  1  0
 26 27  2  0
  8 28  1  0
 28 29  2  0
 29  5  1  0
 26  9  1  0
 18 13  1  0
 25 20  1  0
  1 30  1  0
  1 31  1  0
  6 32  1  0
  7 33  1  0
 11 34  1  0
 12 35  1  0
 14 36  1  0
 15 37  1  0
 16 38  1  0
 17 39  1  0
 21 40  1  0
 22 41  1  0
 23 42  1  0
 24 43  1  0
 28 44  1  0
 29 45  1  0
M  END
>  <smiles>  (8) 
NS(=O)(=O)c1ccc(-n2c(/C=C/c3ccccn3)nc3ccccc3c2=O)cc1

>  <score_type>  (8) 
oracle

>  <origin>  (8) 
autodockgpu

>  <m_score__min__energy>  (8) 
-8.5600000000000005

>  <m_primary>  (8) 
energy

>  <rmsd>  (8) 
7.083631900217121

>  <m_score__min__rmsd>  (8) 
7.083631900217121

>  <meeko>  (8) 
{"free_energy": -7.07, "intermolecular_energy": -8.86, "internal_energy": -1.75, "cluster_size": 21, "cluster_id": 7, "rank_in_cluster": 15}

>  <energy>  (8) 
-8.17

>  <cluster_rmsd>  (8) 
0.27

>  <cluster>  (8) 
1

$$$$

     RDKit          3D

 45 48  0  0  0  0  0  0  0  0999 V2000
  144.2160   82.4010  216.6410 N   0  0  0  0  0  0  0  0  0  0  0  0
  142.6020   82.3000  217.2350 S   0  0  0  0  0  0  0  0  0  0  0  0
  142.3090   83.4140  218.2200 O   0  0  0  0  0  0  0  0  0  0  0  0
  141.5780   82.4150  216.1410 O   0  0  0  0  0  0  0  0  0  0  0  0
  142.3650   80.7450  218.0340 C   0  0  0  0  0  0  0  0  0  0  0  0
  142.3190   79.5930  217.2600 C   0  0  0  0  0  0  0  0  0  0  0  0
  142.1320   78.3760  217.8870 C   0  0  0  0  0  0  0  0  0  0  0  0
  141.9900   78.2870  219.2820 C   0  0  0  0  0  0  0  0  0  0  0  0
  141.7520   77.0390  219.9130 N   0  0  0  0  0  0  0  0  0  0  0  0
  140.7320   76.7710  220.7260 C   0  0  0  0  0  0  0  0  0  0  0  0
  139.6770   77.6340  221.1380 C   0  0  0  0  0  0  0  0  0  0  0  0
  139.5050   78.2960  222.2480 C   0  0  0  0  0  0  0  0  0  0  0  0
  140.5030   79.2460  222.7630 C   0  0  0  0  0  0  0  0  0  0  0  0
  141.6270   78.8280  223.4300 C   0  0  0  0  0  0  0  0  0  0  0  0
  142.5130   79.7760  223.8810 C   0  0  0  0  0  0  0  0  0  0  0  0
  142.3300   81.1350  223.6970 C   0  0  0  0  0  0  0  0  0  0  0  0
  141.1760   81.5120  223.0150 C   0  0  0  0  0  0  0  0  0  0  0  0
  140.3240   80.5660  222.5830 N   0  0  0  0  0  0  0  0  0  0  0  0
  140.6980   75.4940  221.2250 N   0  0  0  0  0  0  0  0  0  0  0  0
  141.5870   74.5540  220.9560 C   0  0  0  0  0  0  0  0  0  0  0  0
  141.4350   73.3160  221.5250 C   0  0  0  0  0  0  0  0  0  0  0  0
  142.3990   72.3650  221.2070 C   0  0  0  0  0  0  0  0  0  0  0  0
  143.4590   72.6370  220.3670 C   0  0  0  0  0  0  0  0  0  0  0  0
  143.5770   73.8800  219.8210 C   0  0  0  0  0  0  0  0  0  0  0  0
  142.6420   74.8250  220.1190 C   0  0  0  0  0  0  0  0  0  0  0  0
  142.7080   76.0900  219.6020 C   0  0  0  0  0  0  0  0  0  0  0  0
  143.6630   76.3550  218.8360 O   0  0  0  0  0  0  0  0  0  0  0  0
  142.0380   79.4570  220.0620 C   0  0  0  0  0  0  0  0  0  0  0  0
  142.2250   80.6580  219.4080 C   0  0  0  0  0  0  0  0  0  0  0  0
  144.3300   81.6500  215.9230 H   0  0  0  0  0  0  0  0  0  0  0  0
  144.8320   82.1620  217.4360 H   0  0  0  0  0  0  0  0  0  0  0  0
  142.4295   79.6483  216.1670 H   0  0  0  0  0  0  0  0  0  0  0  0
  142.0935   77.4583  217.2818 H   0  0  0  0  0  0  0  0  0  0  0  0
  138.8743   77.7636  220.3972 H   0  0  0  0  0  0  0  0  0  0  0  0
  138.5792   78.1382  222.8207 H   0  0  0  0  0  0  0  0  0  0  0  0
  141.8144   77.7575  223.5998 H   0  0  0  0  0  0  0  0  0  0  0  0
  143.4131   79.4377  224.4152 H   0  0  0  0  0  0  0  0  0  0  0  0
  143.0544   81.8750  224.0681 H   0  0  0  0  0  0  0  0  0  0  0  0
  140.9632   82.5754  222.8312 H   0  0  0  0  0  0  0  0  0  0  0  0
  140.5951   73.0869  222.1974 H   0  0  0  0  0  0  0  0  0  0  0  0
  142.3129   71.3582  221.6417 H   0  0  0  0  0  0  0  0  0  0  0  0
  144.2018   71.8580  220.1401 H   0  0  0  0  0  0  0  0  0  0  0  0
  144.4152   74.1169  219.1492 H   0  0  0  0  0  0  0  0  0  0  0  0
  141.9301   79.4160  221.1559 H   0  0  0  0  0  0  0  0  0  0  0  0
  142.2643   81.5826  220.0025 H   0  0  0  0  0  0  0  0  0  0  0  0
  1  2  1  0
  2  3  2  0
  2  4  2  0
  2  5  1  0
  5  6  2  0
  6  7  1  0
  7  8  2  0
  8  9  1  0
  9 10  1  0
 10 11  1  0
 11 12  2  0
 12 13  1  0
 13 14  2  0
 14 15  1  0
 15 16  2  0
 16 17  1  0
 17 18  2  0
 10 19  2  0
 19 20  1  0
 20 21  2  0
 21 22  1  0
 22 23  2  0
 23 24  1  0
 24 25  2  0
 25 26  1  0
 26 27  2  0
  8 28  1  0
 28 29  2  0
 29  5  1  0
 26  9  1  0
 18 13  1  0
 25 20  1  0
  1 30  1  0
  1 31  1  0
  6 32  1  0
  7 33  1  0
 11 34  1  0
 12 35  1  0
 14 36  1  0
 15 37  1  0
 16 38  1  0
 17 39  1  0
 21 40  1  0
 22 41  1  0
 23 42  1  0
 24 43  1  0
 28 44  1  0
 29 45  1  0
M  END
>  <smiles>  (9) 
NS(=O)(=O)c1ccc(-n2c(/C=C/c3ccccn3)nc3ccccc3c2=O)cc1

>  <score_type>  (9) 
oracle

>  <origin>  (9) 
autodockgpu

>  <m_score__min__energy>  (9) 
-8.5600000000000005

>  <m_primary>  (9) 
energy

>  <rmsd>  (9) 
7.132647993209031

>  <m_score__min__rmsd>  (9) 
7.132647993209031

>  <meeko>  (9) 
{"free_energy": -7.5, "intermolecular_energy": -9.29, "internal_energy": -1.48, "cluster_size": 21, "cluster_id": 7, "rank_in_cluster": 1}

>  <energy>  (9) 
-8.14

>  <cluster_rmsd>  (9) 
0.8

>  <cluster>  (9) 
1

$$$$

     RDKit          3D

 45 48  0  0  0  0  0  0  0  0999 V2000
  144.7830   68.1630  217.7010 N   0  0  0  0  0  0  0  0  0  0  0  0
  145.4970   69.0640  218.9830 S   0  0  0  0  0  0  0  0  0  0  0  0
  145.9410   68.1570  220.1120 O   0  0  0  0  0  0  0  0  0  0  0  0
  146.7160   69.8270  218.5420 O   0  0  0  0  0  0  0  0  0  0  0  0
  144.3290   70.2310  219.6060 C   0  0  0  0  0  0  0  0  0  0  0  0
  144.7880   71.4510  220.0850 C   0  0  0  0  0  0  0  0  0  0  0  0
  143.8730   72.3630  220.5730 C   0  0  0  0  0  0  0  0  0  0  0  0
  142.4970   72.0790  220.5900 C   0  0  0  0  0  0  0  0  0  0  0  0
  141.5670   73.0020  221.1360 N   0  0  0  0  0  0  0  0  0  0  0  0
  140.7690   72.7650  222.1750 C   0  0  0  0  0  0  0  0  0  0  0  0
  140.6600   71.5800  222.9570 C   0  0  0  0  0  0  0  0  0  0  0  0
  139.7630   71.2170  223.8300 C   0  0  0  0  0  0  0  0  0  0  0  0
  140.0870   70.9980  225.2490 C   0  0  0  0  0  0  0  0  0  0  0  0
  140.8350   71.8950  225.9690 C   0  0  0  0  0  0  0  0  0  0  0  0
  141.0960   71.6200  227.2900 C   0  0  0  0  0  0  0  0  0  0  0  0
  140.6420   70.4830  227.9330 C   0  0  0  0  0  0  0  0  0  0  0  0
  139.8870   69.6020  227.1620 C   0  0  0  0  0  0  0  0  0  0  0  0
  139.6450   69.8930  225.8720 N   0  0  0  0  0  0  0  0  0  0  0  0
  139.9480   73.8040  222.5340 N   0  0  0  0  0  0  0  0  0  0  0  0
  139.9070   74.9780  221.9280 C   0  0  0  0  0  0  0  0  0  0  0  0
  139.0360   75.9310  222.3890 C   0  0  0  0  0  0  0  0  0  0  0  0
  139.0360   77.1480  221.7150 C   0  0  0  0  0  0  0  0  0  0  0  0
  139.8600   77.3990  220.6380 C   0  0  0  0  0  0  0  0  0  0  0  0
  140.7120   76.4260  220.2080 C   0  0  0  0  0  0  0  0  0  0  0  0
  140.7280   75.2280  220.8550 C   0  0  0  0  0  0  0  0  0  0  0  0
  141.5620   74.2130  220.4700 C   0  0  0  0  0  0  0  0  0  0  0  0
  142.3180   74.4230  219.4940 O   0  0  0  0  0  0  0  0  0  0  0  0
  142.0350   70.8420  220.1030 C   0  0  0  0  0  0  0  0  0  0  0  0
  142.9740   69.9510  219.6230 C   0  0  0  0  0  0  0  0  0  0  0  0
  143.7980   67.9550  217.9800 H   0  0  0  0  0  0  0  0  0  0  0  0
  145.2890   67.2620  217.6650 H   0  0  0  0  0  0  0  0  0  0  0  0
  145.8624   71.6869  220.0759 H   0  0  0  0  0  0  0  0  0  0  0  0
  144.2284   73.3310  220.9560 H   0  0  0  0  0  0  0  0  0  0  0  0
  141.4670   70.8496  222.7978 H   0  0  0  0  0  0  0  0  0  0  0  0
  138.7260   71.0689  223.4942 H   0  0  0  0  0  0  0  0  0  0  0  0
  141.2172   72.8135  225.4995 H   0  0  0  0  0  0  0  0  0  0  0  0
  141.6963   72.3406  227.8648 H   0  0  0  0  0  0  0  0  0  0  0  0
  140.8642   70.2856  228.9921 H   0  0  0  0  0  0  0  0  0  0  0  0
  139.4921   68.6759  227.6051 H   0  0  0  0  0  0  0  0  0  0  0  0
  138.3725   75.7434  223.2461 H   0  0  0  0  0  0  0  0  0  0  0  0
  138.3526   77.9404  222.0541 H   0  0  0  0  0  0  0  0  0  0  0  0
  139.8299   78.3748  220.1311 H   0  0  0  0  0  0  0  0  0  0  0  0
  141.3772   76.6059  219.3506 H   0  0  0  0  0  0  0  0  0  0  0  0
  140.9634   70.5938  220.1047 H   0  0  0  0  0  0  0  0  0  0  0  0
  142.6311   68.9791  219.2385 H   0  0  0  0  0  0  0  0  0  0  0  0
  1  2  1  0
  2  3  2  0
  2  4  2  0
  2  5  1  0
  5  6  2  0
  6  7  1  0
  7  8  2  0
  8  9  1  0
  9 10  1  0
 10 11  1  0
 11 12  2  0
 12 13  1  0
 13 14  2  0
 14 15  1  0
 15 16  2  0
 16 17  1  0
 17 18  2  0
 10 19  2  0
 19 20  1  0
 20 21  2  0
 21 22  1  0
 22 23  2  0
 23 24  1  0
 24 25  2  0
 25 26  1  0
 26 27  2  0
  8 28  1  0
 28 29  2  0
 29  5  1  0
 26  9  1  0
 18 13  1  0
 25 20  1  0
  1 30  1  0
  1 31  1  0
  6 32  1  0
  7 33  1  0
 11 34  1  0
 12 35  1  0
 14 36  1  0
 15 37  1  0
 16 38  1  0
 17 39  1  0
 21 40  1  0
 22 41  1  0
 23 42  1  0
 24 43  1  0
 28 44  1  0
 29 45  1  0
M  END
>  <smiles>  (10) 
NS(=O)(=O)c1ccc(-n2c(/C=C/c3ccccn3)nc3ccccc3c2=O)cc1

>  <score_type>  (10) 
oracle

>  <origin>  (10) 
autodockgpu

>  <m_score__min__energy>  (10) 
-8.5600000000000005

>  <m_primary>  (10) 
energy

>  <rmsd>  (10) 
5.92119209014072

>  <m_score__min__rmsd>  (10) 
5.92119209014072

>  <meeko>  (10) 
{"free_energy": -7.94, "intermolecular_energy": -9.73, "internal_energy": -1.02, "cluster_size": 13, "cluster_id": 1, "rank_in_cluster": 13}

>  <energy>  (10) 
-8.02

>  <cluster_rmsd>  (10) 
0.87

>  <cluster>  (10) 
1

$$$$

     RDKit          3D

 45 48  0  0  0  0  0  0  0  0999 V2000
  143.7130   81.7190  217.3470 N   0  0  0  0  0  0  0  0  0  0  0  0
  142.0700   81.7250  217.8630 S   0  0  0  0  0  0  0  0  0  0  0  0
  141.7940   82.8770  218.8070 O   0  0  0  0  0  0  0  0  0  0  0  0
  141.1070   81.8700  216.7170 O   0  0  0  0  0  0  0  0  0  0  0  0
  141.7050   80.2060  218.6830 C   0  0  0  0  0  0  0  0  0  0  0  0
  142.1630   80.0150  219.9800 C   0  0  0  0  0  0  0  0  0  0  0  0
  141.8770   78.8260  220.6200 C   0  0  0  0  0  0  0  0  0  0  0  0
  141.1350   77.8150  219.9870 C   0  0  0  0  0  0  0  0  0  0  0  0
  140.8850   76.5770  220.6350 N   0  0  0  0  0  0  0  0  0  0  0  0
  139.8900   76.3450  221.4890 C   0  0  0  0  0  0  0  0  0  0  0  0
  138.8790   77.2410  221.9370 C   0  0  0  0  0  0  0  0  0  0  0  0
  138.8760   78.0970  222.9200 C   0  0  0  0  0  0  0  0  0  0  0  0
  139.9680   79.0610  223.1300 C   0  0  0  0  0  0  0  0  0  0  0  0
  139.8220   80.3950  222.8450 C   0  0  0  0  0  0  0  0  0  0  0  0
  140.8880   81.2340  223.0670 C   0  0  0  0  0  0  0  0  0  0  0  0
  142.1030   80.8010  223.5660 C   0  0  0  0  0  0  0  0  0  0  0  0
  142.2040   79.4400  223.8400 C   0  0  0  0  0  0  0  0  0  0  0  0
  141.1480   78.6390  223.6140 N   0  0  0  0  0  0  0  0  0  0  0  0
  139.8370   75.0720  221.9970 N   0  0  0  0  0  0  0  0  0  0  0  0
  140.6870   74.1040  221.6990 C   0  0  0  0  0  0  0  0  0  0  0  0
  140.5210   72.8740  222.2810 C   0  0  0  0  0  0  0  0  0  0  0  0
  141.4430   71.8930  221.9310 C   0  0  0  0  0  0  0  0  0  0  0  0
  142.4760   72.1290  221.0490 C   0  0  0  0  0  0  0  0  0  0  0  0
  142.6090   73.3650  220.4900 C   0  0  0  0  0  0  0  0  0  0  0  0
  141.7160   74.3390  220.8200 C   0  0  0  0  0  0  0  0  0  0  0  0
  141.7980   75.5990  220.2920 C   0  0  0  0  0  0  0  0  0  0  0  0
  142.7300   75.8310  219.4870 O   0  0  0  0  0  0  0  0  0  0  0  0
  140.6710   78.0120  218.6730 C   0  0  0  0  0  0  0  0  0  0  0  0
  140.9730   79.2100  218.0580 C   0  0  0  0  0  0  0  0  0  0  0  0
  143.7110   81.6410  216.3050 H   0  0  0  0  0  0  0  0  0  0  0  0
  144.1300   80.8490  217.7190 H   0  0  0  0  0  0  0  0  0  0  0  0
  142.7440   80.7982  220.4888 H   0  0  0  0  0  0  0  0  0  0  0  0
  142.2376   78.6668  221.6470 H   0  0  0  0  0  0  0  0  0  0  0  0
  137.9448   77.2052  221.3573 H   0  0  0  0  0  0  0  0  0  0  0  0
  138.0260   78.0989  223.6182 H   0  0  0  0  0  0  0  0  0  0  0  0
  138.8731   80.7845  222.4477 H   0  0  0  0  0  0  0  0  0  0  0  0
  140.7687   82.3029  222.8363 H   0  0  0  0  0  0  0  0  0  0  0  0
  142.9414   81.4924  223.7365 H   0  0  0  0  0  0  0  0  0  0  0  0
  143.1407   79.0229  224.2384 H   0  0  0  0  0  0  0  0  0  0  0  0
  139.7020   72.6734  222.9874 H   0  0  0  0  0  0  0  0  0  0  0  0
  141.3442   70.8913  222.3746 H   0  0  0  0  0  0  0  0  0  0  0  0
  143.1863   71.3272  220.7987 H   0  0  0  0  0  0  0  0  0  0  0  0
  143.4255   73.5728  219.7828 H   0  0  0  0  0  0  0  0  0  0  0  0
  140.0875   77.2374  218.1538 H   0  0  0  0  0  0  0  0  0  0  0  0
  140.6184   79.3806  217.0308 H   0  0  0  0  0  0  0  0  0  0  0  0
  1  2  1  0
  2  3  2  0
  2  4  2  0
  2  5  1  0
  5  6  2  0
  6  7  1  0
  7  8  2  0
  8  9  1  0
  9 10  1  0
 10 11  1  0
 11 12  2  0
 12 13  1  0
 13 14  2  0
 14 15  1  0
 15 16  2  0
 16 17  1  0
 17 18  2  0
 10 19  2  0
 19 20  1  0
 20 21  2  0
 21 22  1  0
 22 23  2  0
 23 24  1  0
 24 25  2  0
 25 26  1  0
 26 27  2  0
  8 28  1  0
 28 29  2  0
 29  5  1  0
 26  9  1  0
 18 13  1  0
 25 20  1  0
  1 30  1  0
  1 31  1  0
  6 32  1  0
  7 33  1  0
 11 34  1  0
 12 35  1  0
 14 36  1  0
 15 37  1  0
 16 38  1  0
 17 39  1  0
 21 40  1  0
 22 41  1  0
 23 42  1  0
 24 43  1  0
 28 44  1  0
 29 45  1  0
M  END
>  <smiles>  (11) 
NS(=O)(=O)c1ccc(-n2c(/C=C/c3ccccn3)nc3ccccc3c2=O)cc1

>  <score_type>  (11) 
oracle

>  <origin>  (11) 
autodockgpu

>  <m_score__min__energy>  (11) 
-8.5600000000000005

>  <m_primary>  (11) 
energy

>  <rmsd>  (11) 
7.034773420131655

>  <m_score__min__rmsd>  (11) 
7.034773420131655

>  <meeko>  (11) 
{"free_energy": -7.01, "intermolecular_energy": -8.8, "internal_energy": -1.84, "cluster_size": 21, "cluster_id": 7, "rank_in_cluster": 17}

>  <energy>  (11) 
-8.01

>  <cluster_rmsd>  (11) 
0.76

>  <cluster>  (11) 
1

$$$$

     RDKit          3D

 45 48  0  0  0  0  0  0  0  0999 V2000
  144.2470   82.5310  216.5590 N   0  0  0  0  0  0  0  0  0  0  0  0
  142.6250   82.4830  217.1380 S   0  0  0  0  0  0  0  0  0  0  0  0
  142.3670   83.5890  218.1420 O   0  0  0  0  0  0  0  0  0  0  0  0
  141.6150   82.6590  216.0380 O   0  0  0  0  0  0  0  0  0  0  0  0
  142.3190   80.9240  217.9050 C   0  0  0  0  0  0  0  0  0  0  0  0
  142.2030   80.8670  219.2880 C   0  0  0  0  0  0  0  0  0  0  0  0
  141.9640   79.6460  219.8870 C   0  0  0  0  0  0  0  0  0  0  0  0
  141.8360   78.4720  219.1260 C   0  0  0  0  0  0  0  0  0  0  0  0
  141.6370   77.2140  219.7530 N   0  0  0  0  0  0  0  0  0  0  0  0
  140.5630   76.8700  220.4630 C   0  0  0  0  0  0  0  0  0  0  0  0
  139.4050   77.6470  220.7500 C   0  0  0  0  0  0  0  0  0  0  0  0
  139.1820   78.5270  221.6850 C   0  0  0  0  0  0  0  0  0  0  0  0
  140.2700   79.1700  222.4390 C   0  0  0  0  0  0  0  0  0  0  0  0
  141.1970   78.4400  223.1390 C   0  0  0  0  0  0  0  0  0  0  0  0
  142.1840   79.1120  223.8190 C   0  0  0  0  0  0  0  0  0  0  0  0
  142.2910   80.4910  223.8340 C   0  0  0  0  0  0  0  0  0  0  0  0
  141.3280   81.1900  223.1110 C   0  0  0  0  0  0  0  0  0  0  0  0
  140.3730   80.5100  222.4540 N   0  0  0  0  0  0  0  0  0  0  0  0
  140.5820   75.6000  220.9790 N   0  0  0  0  0  0  0  0  0  0  0  0
  141.5680   74.7340  220.8200 C   0  0  0  0  0  0  0  0  0  0  0  0
  141.4600   73.4940  221.3930 C   0  0  0  0  0  0  0  0  0  0  0  0
  142.5260   72.6230  221.1920 C   0  0  0  0  0  0  0  0  0  0  0  0
  143.6410   72.9730  220.4590 C   0  0  0  0  0  0  0  0  0  0  0  0
  143.7120   74.2170  219.9050 C   0  0  0  0  0  0  0  0  0  0  0  0
  142.6780   75.0830  220.0890 C   0  0  0  0  0  0  0  0  0  0  0  0
  142.6930   76.3440  219.5580 C   0  0  0  0  0  0  0  0  0  0  0  0
  143.6970   76.6800  218.8890 O   0  0  0  0  0  0  0  0  0  0  0  0
  141.9530   78.5330  217.7260 C   0  0  0  0  0  0  0  0  0  0  0  0
  142.1930   79.7670  217.1550 C   0  0  0  0  0  0  0  0  0  0  0  0
  144.3620   81.7320  215.8950 H   0  0  0  0  0  0  0  0  0  0  0  0
  144.8500   82.3400  217.3770 H   0  0  0  0  0  0  0  0  0  0  0  0
  142.2999   81.7788  219.8956 H   0  0  0  0  0  0  0  0  0  0  0  0
  141.8720   79.5915  220.9818 H   0  0  0  0  0  0  0  0  0  0  0  0
  138.5578   77.4762  220.0695 H   0  0  0  0  0  0  0  0  0  0  0  0
  138.1423   78.7992  221.9192 H   0  0  0  0  0  0  0  0  0  0  0  0
  141.1512   77.3411  223.1555 H   0  0  0  0  0  0  0  0  0  0  0  0
  142.9259   78.5241  224.3793 H   0  0  0  0  0  0  0  0  0  0  0  0
  143.0912   81.0060  224.3857 H   0  0  0  0  0  0  0  0  0  0  0  0
  141.3487   82.2893  223.0779 H   0  0  0  0  0  0  0  0  0  0  0  0
  140.5771   73.2027  221.9809 H   0  0  0  0  0  0  0  0  0  0  0  0
  142.4780   71.6170  221.6344 H   0  0  0  0  0  0  0  0  0  0  0  0
  144.4642   72.2561  220.3228 H   0  0  0  0  0  0  0  0  0  0  0  0
  144.5925   74.5165  219.3176 H   0  0  0  0  0  0  0  0  0  0  0  0
  141.8567   77.6288  217.1071 H   0  0  0  0  0  0  0  0  0  0  0  0
  142.2878   79.8335  216.0611 H   0  0  0  0  0  0  0  0  0  0  0  0
  1  2  1  0
  2  3  2  0
  2  4  2  0
  2  5  1  0
  5  6  2  0
  6  7  1  0
  7  8  2  0
  8  9  1  0
  9 10  1  0
 10 11  1  0
 11 12  2  0
 12 13  1  0
 13 14  2  0
 14 15  1  0
 15 16  2  0
 16 17  1  0
 17 18  2  0
 10 19  2  0
 19 20  1  0
 20 21  2  0
 21 22  1  0
 22 23  2  0
 23 24  1  0
 24 25  2  0
 25 26  1  0
 26 27  2  0
  8 28  1  0
 28 29  2  0
 29  5  1  0
 26  9  1  0
 18 13  1  0
 25 20  1  0
  1 30  1  0
  1 31  1  0
  6 32  1  0
  7 33  1  0
 11 34  1  0
 12 35  1  0
 14 36  1  0
 15 37  1  0
 16 38  1  0
 17 39  1  0
 21 40  1  0
 22 41  1  0
 23 42  1  0
 24 43  1  0
 28 44  1  0
 29 45  1  0
M  END
>  <smiles>  (12) 
NS(=O)(=O)c1ccc(-n2c(/C=C/c3ccccn3)nc3ccccc3c2=O)cc1

>  <score_type>  (12) 
oracle

>  <origin>  (12) 
autodockgpu

>  <m_score__min__energy>  (12) 
-8.5600000000000005

>  <m_primary>  (12) 
energy

>  <rmsd>  (12) 
6.978292119426042

>  <m_score__min__rmsd>  (12) 
6.978292119426042

>  <meeko>  (12) 
{"free_energy": -7.27, "intermolecular_energy": -9.06, "internal_energy": -1.64, "cluster_size": 21, "cluster_id": 7, "rank_in_cluster": 10}

>  <energy>  (12) 
-7.99

>  <cluster_rmsd>  (12) 
0.89

>  <cluster>  (12) 
1

$$$$

     RDKit          3D

 45 48  0  0  0  0  0  0  0  0999 V2000
  138.6670   75.5340  222.6950 N   0  0  0  0  0  0  0  0  0  0  0  0
  139.8500   75.3890  221.4510 S   0  0  0  0  0  0  0  0  0  0  0  0
  141.1170   74.7410  221.9700 O   0  0  0  0  0  0  0  0  0  0  0  0
  139.3760   74.5440  220.3010 O   0  0  0  0  0  0  0  0  0  0  0  0
  140.2380   76.9890  220.8180 C   0  0  0  0  0  0  0  0  0  0  0  0
  141.5090   77.5070  221.0340 C   0  0  0  0  0  0  0  0  0  0  0  0
  141.8110   78.7600  220.5380 C   0  0  0  0  0  0  0  0  0  0  0  0
  140.8630   79.5120  219.8240 C   0  0  0  0  0  0  0  0  0  0  0  0
  141.1670   80.8180  219.3580 N   0  0  0  0  0  0  0  0  0  0  0  0
  140.5760   81.9380  219.7720 C   0  0  0  0  0  0  0  0  0  0  0  0
  139.5440   82.0890  220.7400 C   0  0  0  0  0  0  0  0  0  0  0  0
  139.5790   82.0070  222.0410 C   0  0  0  0  0  0  0  0  0  0  0  0
  140.4430   81.0480  222.7470 C   0  0  0  0  0  0  0  0  0  0  0  0
  139.9520   79.8780  223.2700 C   0  0  0  0  0  0  0  0  0  0  0  0
  140.8210   79.0330  223.9160 C   0  0  0  0  0  0  0  0  0  0  0  0
  142.1700   79.3010  224.0670 C   0  0  0  0  0  0  0  0  0  0  0  0
  142.6220   80.4990  223.5210 C   0  0  0  0  0  0  0  0  0  0  0  0
  141.7530   81.3100  222.8930 N   0  0  0  0  0  0  0  0  0  0  0  0
  141.0290   83.0920  219.1850 N   0  0  0  0  0  0  0  0  0  0  0  0
  141.9790   83.1510  218.2670 C   0  0  0  0  0  0  0  0  0  0  0  0
  142.3360   84.3730  217.7610 C   0  0  0  0  0  0  0  0  0  0  0  0
  143.3410   84.3760  216.7990 C   0  0  0  0  0  0  0  0  0  0  0  0
  143.9550   83.2190  216.3660 C   0  0  0  0  0  0  0  0  0  0  0  0
  143.5730   82.0210  216.8940 C   0  0  0  0  0  0  0  0  0  0  0  0
  142.5910   81.9980  217.8370 C   0  0  0  0  0  0  0  0  0  0  0  0
  142.1640   80.8270  218.4020 C   0  0  0  0  0  0  0  0  0  0  0  0
  142.7120   79.7660  218.0220 O   0  0  0  0  0  0  0  0  0  0  0  0
  139.5770   78.9840  219.6070 C   0  0  0  0  0  0  0  0  0  0  0  0
  139.3040   77.7300  220.1150 C   0  0  0  0  0  0  0  0  0  0  0  0
  139.1800   75.6300  223.6000 H   0  0  0  0  0  0  0  0  0  0  0  0
  138.1640   74.6310  222.7210 H   0  0  0  0  0  0  0  0  0  0  0  0
  142.2616   76.9291  221.5904 H   0  0  0  0  0  0  0  0  0  0  0  0
  142.8146   79.1780  220.7054 H   0  0  0  0  0  0  0  0  0  0  0  0
  138.5516   82.3120  220.3212 H   0  0  0  0  0  0  0  0  0  0  0  0
  138.9394   82.6791  222.6319 H   0  0  0  0  0  0  0  0  0  0  0  0
  138.8864   79.6227  223.1740 H   0  0  0  0  0  0  0  0  0  0  0  0
  140.4246   78.0961  224.3344 H   0  0  0  0  0  0  0  0  0  0  0  0
  142.8462   78.6075  224.5884 H   0  0  0  0  0  0  0  0  0  0  0  0
  143.6823   80.7800  223.6028 H   0  0  0  0  0  0  0  0  0  0  0  0
  141.8536   85.3025  218.0975 H   0  0  0  0  0  0  0  0  0  0  0  0
  143.6579   85.3369  216.3675 H   0  0  0  0  0  0  0  0  0  0  0  0
  144.7453   83.2623  215.6021 H   0  0  0  0  0  0  0  0  0  0  0  0
  144.0510   81.0872  216.5630 H   0  0  0  0  0  0  0  0  0  0  0  0
  138.8154   79.5510  219.0516 H   0  0  0  0  0  0  0  0  0  0  0  0
  138.3034   77.3021  219.9546 H   0  0  0  0  0  0  0  0  0  0  0  0
  1  2  1  0
  2  3  2  0
  2  4  2  0
  2  5  1  0
  5  6  2  0
  6  7  1  0
  7  8  2  0
  8  9  1  0
  9 10  1  0
 10 11  1  0
 11 12  2  0
 12 13  1  0
 13 14  2  0
 14 15  1  0
 15 16  2  0
 16 17  1  0
 17 18  2  0
 10 19  2  0
 19 20  1  0
 20 21  2  0
 21 22  1  0
 22 23  2  0
 23 24  1  0
 24 25  2  0
 25 26  1  0
 26 27  2  0
  8 28  1  0
 28 29  2  0
 29  5  1  0
 26  9  1  0
 18 13  1  0
 25 20  1  0
  1 30  1  0
  1 31  1  0
  6 32  1  0
  7 33  1  0
 11 34  1  0
 12 35  1  0
 14 36  1  0
 15 37  1  0
 16 38  1  0
 17 39  1  0
 21 40  1  0
 22 41  1  0
 23 42  1  0
 24 43  1  0
 28 44  1  0
 29 45  1  0
M  END
>  <smiles>  (13) 
NS(=O)(=O)c1ccc(-n2c(/C=C/c3ccccn3)nc3ccccc3c2=O)cc1

>  <score_type>  (13) 
oracle

>  <origin>  (13) 
autodockgpu

>  <m_score__min__energy>  (13) 
-8.5600000000000005

>  <m_primary>  (13) 
energy

>  <rmsd>  (13) 
4.413310756132941

>  <m_score__min__rmsd>  (13) 
4.413310756132941

>  <meeko>  (13) 
{"free_energy": -6.77, "intermolecular_energy": -8.56, "internal_energy": -2.08, "cluster_size": 4, "cluster_id": 9, "rank_in_cluster": 4}

>  <energy>  (13) 
-7.94

>  <cluster_rmsd>  (13) 
0.97

>  <cluster>  (13) 
1

$$$$

     RDKit          3D

 45 48  0  0  0  0  0  0  0  0999 V2000
  138.6750   75.5060  222.6850 N   0  0  0  0  0  0  0  0  0  0  0  0
  139.8600   75.3710  221.4420 S   0  0  0  0  0  0  0  0  0  0  0  0
  141.1290   74.7270  221.9610 O   0  0  0  0  0  0  0  0  0  0  0  0
  139.3920   74.5270  220.2890 O   0  0  0  0  0  0  0  0  0  0  0  0
  140.2420   76.9750  220.8140 C   0  0  0  0  0  0  0  0  0  0  0  0
  141.5170   77.4880  221.0120 C   0  0  0  0  0  0  0  0  0  0  0  0
  141.8140   78.7440  220.5210 C   0  0  0  0  0  0  0  0  0  0  0  0
  140.8550   79.5040  219.8290 C   0  0  0  0  0  0  0  0  0  0  0  0
  141.1550   80.8120  219.3690 N   0  0  0  0  0  0  0  0  0  0  0  0
  140.5480   81.9270  219.7730 C   0  0  0  0  0  0  0  0  0  0  0  0
  139.4990   82.0690  220.7250 C   0  0  0  0  0  0  0  0  0  0  0  0
  139.5010   81.9230  222.0210 C   0  0  0  0  0  0  0  0  0  0  0  0
  140.4630   81.0530  222.7150 C   0  0  0  0  0  0  0  0  0  0  0  0
  141.7830   81.3980  222.8560 C   0  0  0  0  0  0  0  0  0  0  0  0
  142.6210   80.5320  223.5170 C   0  0  0  0  0  0  0  0  0  0  0  0
  142.2000   79.3260  224.0490 C   0  0  0  0  0  0  0  0  0  0  0  0
  140.8520   79.0180  223.8810 C   0  0  0  0  0  0  0  0  0  0  0  0
  140.0530   79.8820  223.2310 N   0  0  0  0  0  0  0  0  0  0  0  0
  140.9990   83.0850  219.1930 N   0  0  0  0  0  0  0  0  0  0  0  0
  141.9620   83.1530  218.2900 C   0  0  0  0  0  0  0  0  0  0  0  0
  142.3160   84.3780  217.7890 C   0  0  0  0  0  0  0  0  0  0  0  0
  143.3360   84.3900  216.8430 C   0  0  0  0  0  0  0  0  0  0  0  0
  143.9670   83.2390  216.4200 C   0  0  0  0  0  0  0  0  0  0  0  0
  143.5880   82.0380  216.9420 C   0  0  0  0  0  0  0  0  0  0  0  0
  142.5910   82.0060  217.8690 C   0  0  0  0  0  0  0  0  0  0  0  0
  142.1670   80.8310  218.4280 C   0  0  0  0  0  0  0  0  0  0  0  0
  142.7300   79.7750  218.0560 O   0  0  0  0  0  0  0  0  0  0  0  0
  139.5640   78.9810  219.6310 C   0  0  0  0  0  0  0  0  0  0  0  0
  139.2970   77.7240  220.1340 C   0  0  0  0  0  0  0  0  0  0  0  0
  139.1860   75.6210  223.5890 H   0  0  0  0  0  0  0  0  0  0  0  0
  138.1890   74.5940  222.7200 H   0  0  0  0  0  0  0  0  0  0  0  0
  142.2775   76.9038  221.5508 H   0  0  0  0  0  0  0  0  0  0  0  0
  142.8214   79.1582  220.6745 H   0  0  0  0  0  0  0  0  0  0  0  0
  138.5252   82.3482  220.2963 H   0  0  0  0  0  0  0  0  0  0  0  0
  138.7560   82.4705  222.6170 H   0  0  0  0  0  0  0  0  0  0  0  0
  142.1626   82.3468  222.4491 H   0  0  0  0  0  0  0  0  0  0  0  0
  143.6790   80.8115  223.6286 H   0  0  0  0  0  0  0  0  0  0  0  0
  142.8901   78.6494  224.5743 H   0  0  0  0  0  0  0  0  0  0  0  0
  140.4447   78.0759  224.2768 H   0  0  0  0  0  0  0  0  0  0  0  0
  141.8199   85.3032  218.1174 H   0  0  0  0  0  0  0  0  0  0  0  0
  143.6510   85.3537  216.4164 H   0  0  0  0  0  0  0  0  0  0  0  0
  144.7686   83.2895  215.6684 H   0  0  0  0  0  0  0  0  0  0  0  0
  144.0802   81.1087  216.6192 H   0  0  0  0  0  0  0  0  0  0  0  0
  138.7941   79.5543  219.0938 H   0  0  0  0  0  0  0  0  0  0  0  0
  138.2925   77.3000  219.9887 H   0  0  0  0  0  0  0  0  0  0  0  0
  1  2  1  0
  2  3  2  0
  2  4  2  0
  2  5  1  0
  5  6  2  0
  6  7  1  0
  7  8  2  0
  8  9  1  0
  9 10  1  0
 10 11  1  0
 11 12  2  0
 12 13  1  0
 13 14  2  0
 14 15  1  0
 15 16  2  0
 16 17  1  0
 17 18  2  0
 10 19  2  0
 19 20  1  0
 20 21  2  0
 21 22  1  0
 22 23  2  0
 23 24  1  0
 24 25  2  0
 25 26  1  0
 26 27  2  0
  8 28  1  0
 28 29  2  0
 29  5  1  0
 26  9  1  0
 18 13  1  0
 25 20  1  0
  1 30  1  0
  1 31  1  0
  6 32  1  0
  7 33  1  0
 11 34  1  0
 12 35  1  0
 14 36  1  0
 15 37  1  0
 16 38  1  0
 17 39  1  0
 21 40  1  0
 22 41  1  0
 23 42  1  0
 24 43  1  0
 28 44  1  0
 29 45  1  0
M  END
>  <smiles>  (14) 
NS(=O)(=O)c1ccc(-n2c(/C=C/c3ccccn3)nc3ccccc3c2=O)cc1

>  <score_type>  (14) 
oracle

>  <origin>  (14) 
autodockgpu

>  <m_score__min__energy>  (14) 
-8.5600000000000005

>  <m_primary>  (14) 
energy

>  <rmsd>  (14) 
4.393529679369619

>  <m_score__min__rmsd>  (14) 
4.393529679369619

>  <meeko>  (14) 
{"free_energy": -6.82, "intermolecular_energy": -8.61, "internal_energy": -2.08, "cluster_size": 4, "cluster_id": 9, "rank_in_cluster": 1}

>  <energy>  (14) 
-8.0

>  <cluster_rmsd>  (14) 
0.0

>  <cluster>  (14) 
2

$$$$

     RDKit          3D

 45 48  0  0  0  0  0  0  0  0999 V2000
  146.1430   69.5690  217.4260 N   0  0  0  0  0  0  0  0  0  0  0  0
  146.1310   69.5840  219.1480 S   0  0  0  0  0  0  0  0  0  0  0  0
  145.8450   68.2060  219.7080 O   0  0  0  0  0  0  0  0  0  0  0  0
  147.4480   70.0190  219.7290 O   0  0  0  0  0  0  0  0  0  0  0  0
  144.8950   70.7070  219.7180 C   0  0  0  0  0  0  0  0  0  0  0  0
  145.2890   71.9320  220.2400 C   0  0  0  0  0  0  0  0  0  0  0  0
  144.3200   72.8100  220.6860 C   0  0  0  0  0  0  0  0  0  0  0  0
  142.9550   72.4850  220.6200 C   0  0  0  0  0  0  0  0  0  0  0  0
  141.9690   73.3730  221.1240 N   0  0  0  0  0  0  0  0  0  0  0  0
  141.0090   73.0450  221.9870 C   0  0  0  0  0  0  0  0  0  0  0  0
  140.7510   71.7800  222.5880 C   0  0  0  0  0  0  0  0  0  0  0  0
  139.8230   71.4100  223.4250 C   0  0  0  0  0  0  0  0  0  0  0  0
  140.1160   71.0630  224.8250 C   0  0  0  0  0  0  0  0  0  0  0  0
  139.6370   69.9140  225.4030 C   0  0  0  0  0  0  0  0  0  0  0  0
  139.9540   69.6590  226.7150 C   0  0  0  0  0  0  0  0  0  0  0  0
  140.7340   70.5030  227.4860 C   0  0  0  0  0  0  0  0  0  0  0  0
  141.1970   71.6550  226.8570 C   0  0  0  0  0  0  0  0  0  0  0  0
  140.8740   71.8830  225.5720 N   0  0  0  0  0  0  0  0  0  0  0  0
  140.1620   74.0650  222.3390 N   0  0  0  0  0  0  0  0  0  0  0  0
  140.2420   75.3040  221.8860 C   0  0  0  0  0  0  0  0  0  0  0  0
  139.3280   76.2290  222.3200 C   0  0  0  0  0  0  0  0  0  0  0  0
  139.4610   77.5170  221.8110 C   0  0  0  0  0  0  0  0  0  0  0  0
  140.4520   77.8620  220.9170 C   0  0  0  0  0  0  0  0  0  0  0  0
  141.3430   76.9140  220.5080 C   0  0  0  0  0  0  0  0  0  0  0  0
  141.2300   75.6480  220.9950 C   0  0  0  0  0  0  0  0  0  0  0  0
  142.0950   74.6540  220.6220 C   0  0  0  0  0  0  0  0  0  0  0  0
  143.0020   74.9500  219.8110 O   0  0  0  0  0  0  0  0  0  0  0  0
  142.5590   71.2430  220.0910 C   0  0  0  0  0  0  0  0  0  0  0  0
  143.5490   70.3870  219.6540 C   0  0  0  0  0  0  0  0  0  0  0  0
  145.4190   68.8810  217.1170 H   0  0  0  0  0  0  0  0  0  0  0  0
  147.0640   69.1900  217.1470 H   0  0  0  0  0  0  0  0  0  0  0  0
  146.3546   72.1988  220.2974 H   0  0  0  0  0  0  0  0  0  0  0  0
  144.6233   73.7825  221.1009 H   0  0  0  0  0  0  0  0  0  0  0  0
  141.4512   70.9828  222.2976 H   0  0  0  0  0  0  0  0  0  0  0  0
  138.7826   71.3551  223.0721 H   0  0  0  0  0  0  0  0  0  0  0  0
  139.0134   69.2132  224.8286 H   0  0  0  0  0  0  0  0  0  0  0  0
  139.5685   68.7376  227.1760 H   0  0  0  0  0  0  0  0  0  0  0  0
  140.9742   70.2765  228.5353 H   0  0  0  0  0  0  0  0  0  0  0  0
  141.8225   72.3735  227.4071 H   0  0  0  0  0  0  0  0  0  0  0  0
  138.5320   75.9669  223.0326 H   0  0  0  0  0  0  0  0  0  0  0  0
  138.7480   78.2897  222.1344 H   0  0  0  0  0  0  0  0  0  0  0  0
  140.5234   78.8919  220.5372 H   0  0  0  0  0  0  0  0  0  0  0  0
  142.1411   77.1687  219.7951 H   0  0  0  0  0  0  0  0  0  0  0  0
  141.4969   70.9640  220.0280 H   0  0  0  0  0  0  0  0  0  0  0  0
  143.2575   69.4113  219.2381 H   0  0  0  0  0  0  0  0  0  0  0  0
  1  2  1  0
  2  3  2  0
  2  4  2  0
  2  5  1  0
  5  6  2  0
  6  7  1  0
  7  8  2  0
  8  9  1  0
  9 10  1  0
 10 11  1  0
 11 12  2  0
 12 13  1  0
 13 14  2  0
 14 15  1  0
 15 16  2  0
 16 17  1  0
 17 18  2  0
 10 19  2  0
 19 20  1  0
 20 21  2  0
 21 22  1  0
 22 23  2  0
 23 24  1  0
 24 25  2  0
 25 26  1  0
 26 27  2  0
  8 28  1  0
 28 29  2  0
 29  5  1  0
 26  9  1  0
 18 13  1  0
 25 20  1  0
  1 30  1  0
  1 31  1  0
  6 32  1  0
  7 33  1  0
 11 34  1  0
 12 35  1  0
 14 36  1  0
 15 37  1  0
 16 38  1  0
 17 39  1  0
 21 40  1  0
 22 41  1  0
 23 42  1  0
 24 43  1  0
 28 44  1  0
 29 45  1  0
M  END
>  <smiles>  (15) 
NS(=O)(=O)c1ccc(-n2c(/C=C/c3ccccn3)nc3ccccc3c2=O)cc1

>  <score_type>  (15) 
oracle

>  <origin>  (15) 
autodockgpu

>  <m_score__min__energy>  (15) 
-8.5600000000000005

>  <m_primary>  (15) 
energy

>  <rmsd>  (15) 
5.723121652051341

>  <m_score__min__rmsd>  (15) 
5.723121652051341

>  <meeko>  (15) 
{"free_energy": -8.56, "intermolecular_energy": -10.35, "internal_energy": -0.89, "cluster_size": 13, "cluster_id": 1, "rank_in_cluster": 1}

>  <energy>  (15) 
-7.92

>  <cluster_rmsd>  (15) 
0.35

>  <cluster>  (15) 
2

$$$$

     RDKit          3D

 45 48  0  0  0  0  0  0  0  0999 V2000
  144.1180   82.4190  216.7090 N   0  0  0  0  0  0  0  0  0  0  0  0
  142.5180   82.2960  217.3360 S   0  0  0  0  0  0  0  0  0  0  0  0
  142.2530   83.3640  218.3780 O   0  0  0  0  0  0  0  0  0  0  0  0
  141.4690   82.4650  216.2730 O   0  0  0  0  0  0  0  0  0  0  0  0
  142.2920   80.7070  218.0680 C   0  0  0  0  0  0  0  0  0  0  0  0
  142.1890   80.6110  219.4490 C   0  0  0  0  0  0  0  0  0  0  0  0
  142.0130   79.3660  220.0210 C   0  0  0  0  0  0  0  0  0  0  0  0
  141.9360   78.2060  219.2330 C   0  0  0  0  0  0  0  0  0  0  0  0
  141.8020   76.9250  219.8310 N   0  0  0  0  0  0  0  0  0  0  0  0
  140.8350   76.5690  220.6750 C   0  0  0  0  0  0  0  0  0  0  0  0
  139.7490   77.3520  221.1590 C   0  0  0  0  0  0  0  0  0  0  0  0
  139.5920   77.9800  222.2910 C   0  0  0  0  0  0  0  0  0  0  0  0
  140.5300   79.0130  222.7560 C   0  0  0  0  0  0  0  0  0  0  0  0
  141.7160   78.6940  223.3680 C   0  0  0  0  0  0  0  0  0  0  0  0
  142.5400   79.7150  223.7750 C   0  0  0  0  0  0  0  0  0  0  0  0
  142.2360   81.0530  223.5990 C   0  0  0  0  0  0  0  0  0  0  0  0
  141.0230   81.3290  222.9740 C   0  0  0  0  0  0  0  0  0  0  0  0
  140.2340   80.3130  222.5840 N   0  0  0  0  0  0  0  0  0  0  0  0
  140.9000   75.2770  221.1310 N   0  0  0  0  0  0  0  0  0  0  0  0
  141.8330   74.4030  220.7940 C   0  0  0  0  0  0  0  0  0  0  0  0
  141.7810   73.1410  221.3260 C   0  0  0  0  0  0  0  0  0  0  0  0
  142.7870   72.2620  220.9360 C   0  0  0  0  0  0  0  0  0  0  0  0
  143.7910   72.6260  220.0630 C   0  0  0  0  0  0  0  0  0  0  0  0
  143.8090   73.8910  219.5550 C   0  0  0  0  0  0  0  0  0  0  0  0
  142.8330   74.7650  219.9240 C   0  0  0  0  0  0  0  0  0  0  0  0
  142.7990   76.0480  219.4480 C   0  0  0  0  0  0  0  0  0  0  0  0
  143.7020   76.3950  218.6530 O   0  0  0  0  0  0  0  0  0  0  0  0
  142.0400   78.3060  217.8330 C   0  0  0  0  0  0  0  0  0  0  0  0
  142.2170   79.5630  217.2910 C   0  0  0  0  0  0  0  0  0  0  0  0
  144.2040   81.7180  215.9390 H   0  0  0  0  0  0  0  0  0  0  0  0
  144.7500   82.1180  217.4710 H   0  0  0  0  0  0  0  0  0  0  0  0
  142.2466   81.5118  220.0777 H   0  0  0  0  0  0  0  0  0  0  0  0
  141.9316   79.2815  221.1147 H   0  0  0  0  0  0  0  0  0  0  0  0
  138.9021   77.4422  220.4628 H   0  0  0  0  0  0  0  0  0  0  0  0
  138.7263   77.7279  222.9212 H   0  0  0  0  0  0  0  0  0  0  0  0
  142.0007   77.6438  223.5292 H   0  0  0  0  0  0  0  0  0  0  0  0
  143.4897   79.4555  224.2657 H   0  0  0  0  0  0  0  0  0  0  0  0
  142.9134   81.8525  223.9335 H   0  0  0  0  0  0  0  0  0  0  0  0
  140.7128   82.3700  222.8007 H   0  0  0  0  0  0  0  0  0  0  0  0
  140.9864   72.8389  222.0241 H   0  0  0  0  0  0  0  0  0  0  0  0
  142.7813   71.2385  221.3391 H   0  0  0  0  0  0  0  0  0  0  0  0
  144.5696   71.9026  219.7794 H   0  0  0  0  0  0  0  0  0  0  0  0
  144.6008   74.2008  218.8571 H   0  0  0  0  0  0  0  0  0  0  0  0
  141.9822   77.4133  217.1929 H   0  0  0  0  0  0  0  0  0  0  0  0
  142.3018   79.6600  216.1986 H   0  0  0  0  0  0  0  0  0  0  0  0
  1  2  1  0
  2  3  2  0
  2  4  2  0
  2  5  1  0
  5  6  2  0
  6  7  1  0
  7  8  2  0
  8  9  1  0
  9 10  1  0
 10 11  1  0
 11 12  2  0
 12 13  1  0
 13 14  2  0
 14 15  1  0
 15 16  2  0
 16 17  1  0
 17 18  2  0
 10 19  2  0
 19 20  1  0
 20 21  2  0
 21 22  1  0
 22 23  2  0
 23 24  1  0
 24 25  2  0
 25 26  1  0
 26 27  2  0
  8 28  1  0
 28 29  2  0
 29  5  1  0
 26  9  1  0
 18 13  1  0
 25 20  1  0
  1 30  1  0
  1 31  1  0
  6 32  1  0
  7 33  1  0
 11 34  1  0
 12 35  1  0
 14 36  1  0
 15 37  1  0
 16 38  1  0
 17 39  1  0
 21 40  1  0
 22 41  1  0
 23 42  1  0
 24 43  1  0
 28 44  1  0
 29 45  1  0
M  END
>  <smiles>  (16) 
NS(=O)(=O)c1ccc(-n2c(/C=C/c3ccccn3)nc3ccccc3c2=O)cc1

>  <score_type>  (16) 
oracle

>  <origin>  (16) 
autodockgpu

>  <m_score__min__energy>  (16) 
-8.5600000000000005

>  <m_primary>  (16) 
energy

>  <rmsd>  (16) 
7.175436297363722

>  <m_score__min__rmsd>  (16) 
7.175436297363722

>  <meeko>  (16) 
{"free_energy": -7.46, "intermolecular_energy": -9.25, "internal_energy": -1.48, "cluster_size": 21, "cluster_id": 7, "rank_in_cluster": 3}

>  <energy>  (16) 
-7.75

>  <cluster_rmsd>  (16) 
0.0

>  <cluster>  (16) 
3

$$$$

     RDKit          3D

 45 48  0  0  0  0  0  0  0  0999 V2000
  142.8290   76.9010  220.0010 N   0  0  0  0  0  0  0  0  0  0  0  0
  143.0320   75.2450  219.5740 S   0  0  0  0  0  0  0  0  0  0  0  0
  142.6780   75.0050  218.1200 O   0  0  0  0  0  0  0  0  0  0  0  0
  144.4480   74.7740  219.7540 O   0  0  0  0  0  0  0  0  0  0  0  0
  141.9970   74.2430  220.5920 C   0  0  0  0  0  0  0  0  0  0  0  0
  142.3550   72.9200  220.8170 C   0  0  0  0  0  0  0  0  0  0  0  0
  141.5440   72.1360  221.6140 C   0  0  0  0  0  0  0  0  0  0  0  0
  140.3740   72.6520  222.1960 C   0  0  0  0  0  0  0  0  0  0  0  0
  139.5220   71.8270  222.9760 N   0  0  0  0  0  0  0  0  0  0  0  0
  139.7280   71.4950  224.2490 C   0  0  0  0  0  0  0  0  0  0  0  0
  140.8050   71.8720  225.1000 C   0  0  0  0  0  0  0  0  0  0  0  0
  141.5390   71.1610  225.9090 C   0  0  0  0  0  0  0  0  0  0  0  0
  140.9640   70.1610  226.8220 C   0  0  0  0  0  0  0  0  0  0  0  0
  140.0390   70.4990  227.7790 C   0  0  0  0  0  0  0  0  0  0  0  0
  139.5480   69.5090  228.5940 C   0  0  0  0  0  0  0  0  0  0  0  0
  139.9380   68.1850  228.5020 C   0  0  0  0  0  0  0  0  0  0  0  0
  140.8780   67.8900  227.5180 C   0  0  0  0  0  0  0  0  0  0  0  0
  141.3440   68.8750  226.7320 N   0  0  0  0  0  0  0  0  0  0  0  0
  138.7720   70.6850  224.8080 N   0  0  0  0  0  0  0  0  0  0  0  0
  137.7030   70.2330  224.1760 C   0  0  0  0  0  0  0  0  0  0  0  0
  136.8240   69.4270  224.8540 C   0  0  0  0  0  0  0  0  0  0  0  0
  135.7160   68.9810  224.1410 C   0  0  0  0  0  0  0  0  0  0  0  0
  135.4980   69.3210  222.8220 C   0  0  0  0  0  0  0  0  0  0  0  0
  136.3940   70.1240  222.1820 C   0  0  0  0  0  0  0  0  0  0  0  0
  137.4850   70.5710  222.8630 C   0  0  0  0  0  0  0  0  0  0  0  0
  138.4190   71.3800  222.2730 C   0  0  0  0  0  0  0  0  0  0  0  0
  138.2370   71.6990  221.0760 O   0  0  0  0  0  0  0  0  0  0  0  0
  140.0150   73.9930  221.9670 C   0  0  0  0  0  0  0  0  0  0  0  0
  140.8440   74.7510  221.1650 C   0  0  0  0  0  0  0  0  0  0  0  0
  143.7610   77.3640  219.9000 H   0  0  0  0  0  0  0  0  0  0  0  0
  142.5880   76.9120  221.0070 H   0  0  0  0  0  0  0  0  0  0  0  0
  143.2689   72.5037  220.3681 H   0  0  0  0  0  0  0  0  0  0  0  0
  141.8196   71.0869  221.7967 H   0  0  0  0  0  0  0  0  0  0  0  0
  141.0603   72.9415  225.0698 H   0  0  0  0  0  0  0  0  0  0  0  0
  142.6283   71.3143  225.9091 H   0  0  0  0  0  0  0  0  0  0  0  0
  139.6991   71.5392  227.8902 H   0  0  0  0  0  0  0  0  0  0  0  0
  138.8066   69.7827  229.3591 H   0  0  0  0  0  0  0  0  0  0  0  0
  139.5293   67.4103  229.1674 H   0  0  0  0  0  0  0  0  0  0  0  0
  141.2363   66.8585  227.3852 H   0  0  0  0  0  0  0  0  0  0  0  0
  136.9867   69.1482  225.9056 H   0  0  0  0  0  0  0  0  0  0  0  0
  134.9862   68.3328  224.6481 H   0  0  0  0  0  0  0  0  0  0  0  0
  134.6095   68.9475  222.2919 H   0  0  0  0  0  0  0  0  0  0  0  0
  136.2381   70.4069  221.1305 H   0  0  0  0  0  0  0  0  0  0  0  0
  139.1052   74.4224  222.4117 H   0  0  0  0  0  0  0  0  0  0  0  0
  140.5777   75.8010  220.9735 H   0  0  0  0  0  0  0  0  0  0  0  0
  1  2  1  0
  2  3  2  0
  2  4  2  0
  2  5  1  0
  5  6  2  0
  6  7  1  0
  7  8  2  0
  8  9  1  0
  9 10  1  0
 10 11  1  0
 11 12  2  0
 12 13  1  0
 13 14  2  0
 14 15  1  0
 15 16  2  0
 16 17  1  0
 17 18  2  0
 10 19  2  0
 19 20  1  0
 20 21  2  0
 21 22  1  0
 22 23  2  0
 23 24  1  0
 24 25  2  0
 25 26  1  0
 26 27  2  0
  8 28  1  0
 28 29  2  0
 29  5  1  0
 26  9  1  0
 18 13  1  0
 25 20  1  0
  1 30  1  0
  1 31  1  0
  6 32  1  0
  7 33  1  0
 11 34  1  0
 12 35  1  0
 14 36  1  0
 15 37  1  0
 16 38  1  0
 17 39  1  0
 21 40  1  0
 22 41  1  0
 23 42  1  0
 24 43  1  0
 28 44  1  0
 29 45  1  0
M  END
>  <smiles>  (17) 
NS(=O)(=O)c1ccc(-n2c(/C=C/c3ccccn3)nc3ccccc3c2=O)cc1

>  <score_type>  (17) 
oracle

>  <origin>  (17) 
autodockgpu

>  <m_score__min__energy>  (17) 
-8.5600000000000005

>  <m_primary>  (17) 
energy

>  <rmsd>  (17) 
9.865415908178965

>  <m_score__min__rmsd>  (17) 
9.865415908178965

>  <meeko>  (17) 
{"free_energy": -7.22, "intermolecular_energy": -9.01, "internal_energy": -1.41, "cluster_size": 4, "cluster_id": 6, "rank_in_cluster": 3}

>  <energy>  (17) 
-7.64

>  <cluster_rmsd>  (17) 
0.0

>  <cluster>  (17) 
4

$$$$

     RDKit          3D

 45 48  0  0  0  0  0  0  0  0999 V2000
  142.9390   76.8430  219.9530 N   0  0  0  0  0  0  0  0  0  0  0  0
  143.4390   75.1980  219.8350 S   0  0  0  0  0  0  0  0  0  0  0  0
  143.5130   74.7490  218.3900 O   0  0  0  0  0  0  0  0  0  0  0  0
  144.8010   74.9670  220.4260 O   0  0  0  0  0  0  0  0  0  0  0  0
  142.2950   74.1710  220.7000 C   0  0  0  0  0  0  0  0  0  0  0  0
  141.1600   74.7480  221.2550 C   0  0  0  0  0  0  0  0  0  0  0  0
  140.2660   73.9430  221.9330 C   0  0  0  0  0  0  0  0  0  0  0  0
  140.4840   72.5610  222.0680 C   0  0  0  0  0  0  0  0  0  0  0  0
  139.5840   71.7490  222.8060 N   0  0  0  0  0  0  0  0  0  0  0  0
  139.7020   71.4500  224.0980 C   0  0  0  0  0  0  0  0  0  0  0  0
  140.7150   71.8560  225.0130 C   0  0  0  0  0  0  0  0  0  0  0  0
  140.8210   71.6750  226.2990 C   0  0  0  0  0  0  0  0  0  0  0  0
  140.7620   70.3400  226.9150 C   0  0  0  0  0  0  0  0  0  0  0  0
  140.2830   70.1470  228.1870 C   0  0  0  0  0  0  0  0  0  0  0  0
  140.2590   68.8700  228.6920 C   0  0  0  0  0  0  0  0  0  0  0  0
  140.6940   67.7640  227.9840 C   0  0  0  0  0  0  0  0  0  0  0  0
  141.1710   68.0080  226.6990 C   0  0  0  0  0  0  0  0  0  0  0  0
  141.1840   69.2660  226.2260 N   0  0  0  0  0  0  0  0  0  0  0  0
  138.7150   70.6460  224.6080 N   0  0  0  0  0  0  0  0  0  0  0  0
  137.6950   70.1700  223.9140 C   0  0  0  0  0  0  0  0  0  0  0  0
  136.7760   69.3740  224.5480 C   0  0  0  0  0  0  0  0  0  0  0  0
  135.7240   68.9020  223.7700 C   0  0  0  0  0  0  0  0  0  0  0  0
  135.5970   69.2080  222.4320 C   0  0  0  0  0  0  0  0  0  0  0  0
  136.5310   70.0020  221.8360 C   0  0  0  0  0  0  0  0  0  0  0  0
  137.5690   70.4750  222.5810 C   0  0  0  0  0  0  0  0  0  0  0  0
  138.5370   71.2760  222.0380 C   0  0  0  0  0  0  0  0  0  0  0  0
  138.4370   71.5650  220.8230 O   0  0  0  0  0  0  0  0  0  0  0  0
  141.6340   71.9800  221.5040 C   0  0  0  0  0  0  0  0  0  0  0  0
  142.5100   72.8100  220.8330 C   0  0  0  0  0  0  0  0  0  0  0  0
  143.7900   77.4350  219.8260 H   0  0  0  0  0  0  0  0  0  0  0  0
  142.6140   76.9760  220.9260 H   0  0  0  0  0  0  0  0  0  0  0  0
  140.9763   75.8280  221.1561 H   0  0  0  0  0  0  0  0  0  0  0  0
  139.3652   74.3923  222.3763 H   0  0  0  0  0  0  0  0  0  0  0  0
  141.5460   72.4153  224.5586 H   0  0  0  0  0  0  0  0  0  0  0  0
  140.9597   72.5523  226.9479 H   0  0  0  0  0  0  0  0  0  0  0  0
  139.9264   70.9962  228.7884 H   0  0  0  0  0  0  0  0  0  0  0  0
  139.8743   68.7190  229.7114 H   0  0  0  0  0  0  0  0  0  0  0  0
  140.6647   66.7508  228.4114 H   0  0  0  0  0  0  0  0  0  0  0  0
  141.5344   67.1777  226.0757 H   0  0  0  0  0  0  0  0  0  0  0  0
  136.8659   69.1221  225.6150 H   0  0  0  0  0  0  0  0  0  0  0  0
  134.9645   68.2601  224.2404 H   0  0  0  0  0  0  0  0  0  0  0  0
  134.7498   68.8151  221.8507 H   0  0  0  0  0  0  0  0  0  0  0  0
  136.4479   70.2571  220.7692 H   0  0  0  0  0  0  0  0  0  0  0  0
  141.8289   70.9012  221.5944 H   0  0  0  0  0  0  0  0  0  0  0  0
  143.4149   72.3722  220.3863 H   0  0  0  0  0  0  0  0  0  0  0  0
  1  2  1  0
  2  3  2  0
  2  4  2  0
  2  5  1  0
  5  6  2  0
  6  7  1  0
  7  8  2  0
  8  9  1  0
  9 10  1  0
 10 11  1  0
 11 12  2  0
 12 13  1  0
 13 14  2  0
 14 15  1  0
 15 16  2  0
 16 17  1  0
 17 18  2  0
 10 19  2  0
 19 20  1  0
 20 21  2  0
 21 22  1  0
 22 23  2  0
 23 24  1  0
 24 25  2  0
 25 26  1  0
 26 27  2  0
  8 28  1  0
 28 29  2  0
 29  5  1  0
 26  9  1  0
 18 13  1  0
 25 20  1  0
  1 30  1  0
  1 31  1  0
  6 32  1  0
  7 33  1  0
 11 34  1  0
 12 35  1  0
 14 36  1  0
 15 37  1  0
 16 38  1  0
 17 39  1  0
 21 40  1  0
 22 41  1  0
 23 42  1  0
 24 43  1  0
 28 44  1  0
 29 45  1  0
M  END
>  <smiles>  (18) 
NS(=O)(=O)c1ccc(-n2c(/C=C/c3ccccn3)nc3ccccc3c2=O)cc1

>  <score_type>  (18) 
oracle

>  <origin>  (18) 
autodockgpu

>  <m_score__min__energy>  (18) 
-8.5600000000000005

>  <m_primary>  (18) 
energy

>  <rmsd>  (18) 
9.748107965375008

>  <m_score__min__rmsd>  (18) 
9.748107965375008

>  <meeko>  (18) 
{"free_energy": -7.58, "intermolecular_energy": -9.37, "internal_energy": -1.37, "cluster_size": 4, "cluster_id": 6, "rank_in_cluster": 1}

>  <energy>  (18) 
-7.29

>  <cluster_rmsd>  (18) 
0.97

>  <cluster>  (18) 
4

$$$$

     RDKit          3D

 45 48  0  0  0  0  0  0  0  0999 V2000
  146.6940   69.6640  217.9810 N   0  0  0  0  0  0  0  0  0  0  0  0
  145.3930   68.9390  218.8470 S   0  0  0  0  0  0  0  0  0  0  0  0
  144.5630   68.0470  217.9470 O   0  0  0  0  0  0  0  0  0  0  0  0
  145.8680   68.0770  219.9840 O   0  0  0  0  0  0  0  0  0  0  0  0
  144.3600   70.1990  219.5230 C   0  0  0  0  0  0  0  0  0  0  0  0
  142.9820   70.0340  219.4780 C   0  0  0  0  0  0  0  0  0  0  0  0
  142.1740   71.0210  220.0060 C   0  0  0  0  0  0  0  0  0  0  0  0
  142.7200   72.1790  220.5850 C   0  0  0  0  0  0  0  0  0  0  0  0
  141.8820   73.2110  221.0840 N   0  0  0  0  0  0  0  0  0  0  0  0
  140.9330   73.0510  222.0050 C   0  0  0  0  0  0  0  0  0  0  0  0
  140.5470   71.8600  222.6830 C   0  0  0  0  0  0  0  0  0  0  0  0
  139.7080   71.6740  223.6630 C   0  0  0  0  0  0  0  0  0  0  0  0
  140.1230   71.1190  224.9610 C   0  0  0  0  0  0  0  0  0  0  0  0
  140.7090   71.8960  225.9290 C   0  0  0  0  0  0  0  0  0  0  0  0
  141.0690   71.3050  227.1160 C   0  0  0  0  0  0  0  0  0  0  0  0
  140.8720   69.9620  227.3860 C   0  0  0  0  0  0  0  0  0  0  0  0
  140.2750   69.2140  226.3750 C   0  0  0  0  0  0  0  0  0  0  0  0
  139.9310   69.8150  225.2230 N   0  0  0  0  0  0  0  0  0  0  0  0
  140.2420   74.1880  222.3390 N   0  0  0  0  0  0  0  0  0  0  0  0
  140.4570   75.3840  221.8180 C   0  0  0  0  0  0  0  0  0  0  0  0
  139.6920   76.4390  222.2420 C   0  0  0  0  0  0  0  0  0  0  0  0
  139.9620   77.6740  221.6610 C   0  0  0  0  0  0  0  0  0  0  0  0
  140.9430   77.8440  220.7060 C   0  0  0  0  0  0  0  0  0  0  0  0
  141.6840   76.7710  220.3100 C   0  0  0  0  0  0  0  0  0  0  0  0
  141.4350   75.5540  220.8680 C   0  0  0  0  0  0  0  0  0  0  0  0
  142.1450   74.4400  220.5100 C   0  0  0  0  0  0  0  0  0  0  0  0
  143.0400   74.5760  219.6440 O   0  0  0  0  0  0  0  0  0  0  0  0
  144.1170   72.3430  220.6300 C   0  0  0  0  0  0  0  0  0  0  0  0
  144.8980   71.3400  220.0930 C   0  0  0  0  0  0  0  0  0  0  0  0
  146.9470   69.0150  217.2020 H   0  0  0  0  0  0  0  0  0  0  0  0
  147.4960   69.6890  218.6330 H   0  0  0  0  0  0  0  0  0  0  0  0
  142.5414   69.1316  219.0290 H   0  0  0  0  0  0  0  0  0  0  0  0
  141.0813   70.8985  219.9728 H   0  0  0  0  0  0  0  0  0  0  0  0
  141.0382   70.9453  222.3196 H   0  0  0  0  0  0  0  0  0  0  0  0
  138.6515   71.9416  223.5143 H   0  0  0  0  0  0  0  0  0  0  0  0
  140.8865   72.9681  225.7582 H   0  0  0  0  0  0  0  0  0  0  0  0
  141.5372   71.9305  227.8903 H   0  0  0  0  0  0  0  0  0  0  0  0
  141.1700   69.5115  228.3443 H   0  0  0  0  0  0  0  0  0  0  0  0
  140.0863   68.1397  226.5178 H   0  0  0  0  0  0  0  0  0  0  0  0
  138.9060   76.3159  223.0016 H   0  0  0  0  0  0  0  0  0  0  0  0
  139.3714   78.5473  221.9747 H   0  0  0  0  0  0  0  0  0  0  0  0
  141.1254   78.8365  220.2682 H   0  0  0  0  0  0  0  0  0  0  0  0
  142.4716   76.8863  219.5508 H   0  0  0  0  0  0  0  0  0  0  0  0
  144.5706   73.2396  221.0777 H   0  0  0  0  0  0  0  0  0  0  0  0
  145.9920   71.4517  220.1189 H   0  0  0  0  0  0  0  0  0  0  0  0
  1  2  1  0
  2  3  2  0
  2  4  2  0
  2  5  1  0
  5  6  2  0
  6  7  1  0
  7  8  2  0
  8  9  1  0
  9 10  1  0
 10 11  1  0
 11 12  2  0
 12 13  1  0
 13 14  2  0
 14 15  1  0
 15 16  2  0
 16 17  1  0
 17 18  2  0
 10 19  2  0
 19 20  1  0
 20 21  2  0
 21 22  1  0
 22 23  2  0
 23 24  1  0
 24 25  2  0
 25 26  1  0
 26 27  2  0
  8 28  1  0
 28 29  2  0
 29  5  1  0
 26  9  1  0
 18 13  1  0
 25 20  1  0
  1 30  1  0
  1 31  1  0
  6 32  1  0
  7 33  1  0
 11 34  1  0
 12 35  1  0
 14 36  1  0
 15 37  1  0
 16 38  1  0
 17 39  1  0
 21 40  1  0
 22 41  1  0
 23 42  1  0
 24 43  1  0
 28 44  1  0
 29 45  1  0
M  END
>  <smiles>  (19) 
NS(=O)(=O)c1ccc(-n2c(/C=C/c3ccccn3)nc3ccccc3c2=O)cc1

>  <score_type>  (19) 
oracle

>  <origin>  (19) 
autodockgpu

>  <m_score__min__energy>  (19) 
-8.5600000000000005

>  <m_primary>  (19) 
energy

>  <rmsd>  (19) 
5.986145619094652

>  <m_score__min__rmsd>  (19) 
5.986145619094652

>  <meeko>  (19) 
{"free_energy": -8.44, "intermolecular_energy": -10.23, "internal_energy": -0.92, "cluster_size": 13, "cluster_id": 1, "rank_in_cluster": 2}

>  <energy>  (19) 
-7.6

>  <cluster_rmsd>  (19) 
0.0

>  <cluster>  (19) 
5

$$$$

     RDKit          3D

 45 48  0  0  0  0  0  0  0  0999 V2000
  143.4630   81.6360  217.1060 N   0  0  0  0  0  0  0  0  0  0  0  0
  141.9000   81.7070  217.8270 S   0  0  0  0  0  0  0  0  0  0  0  0
  141.8060   82.8440  218.8240 O   0  0  0  0  0  0  0  0  0  0  0  0
  140.8100   81.9330  216.8160 O   0  0  0  0  0  0  0  0  0  0  0  0
  141.5610   80.1860  218.6530 C   0  0  0  0  0  0  0  0  0  0  0  0
  142.1240   79.9590  219.9020 C   0  0  0  0  0  0  0  0  0  0  0  0
  141.8590   78.7670  220.5470 C   0  0  0  0  0  0  0  0  0  0  0  0
  141.0340   77.7900  219.9650 C   0  0  0  0  0  0  0  0  0  0  0  0
  140.8040   76.5480  220.6140 N   0  0  0  0  0  0  0  0  0  0  0  0
  139.8090   76.2980  221.4620 C   0  0  0  0  0  0  0  0  0  0  0  0
  138.7780   77.1760  221.9030 C   0  0  0  0  0  0  0  0  0  0  0  0
  138.7800   78.0910  222.8320 C   0  0  0  0  0  0  0  0  0  0  0  0
  139.9310   78.9770  223.0630 C   0  0  0  0  0  0  0  0  0  0  0  0
  139.8560   80.3320  222.8600 C   0  0  0  0  0  0  0  0  0  0  0  0
  140.9740   81.0940  223.0980 C   0  0  0  0  0  0  0  0  0  0  0  0
  142.1760   80.5650  223.5330 C   0  0  0  0  0  0  0  0  0  0  0  0
  142.2050   79.1860  223.7250 C   0  0  0  0  0  0  0  0  0  0  0  0
  141.0980   78.4620  223.4860 N   0  0  0  0  0  0  0  0  0  0  0  0
  139.7770   75.0250  221.9720 N   0  0  0  0  0  0  0  0  0  0  0  0
  140.6470   74.0730  221.6810 C   0  0  0  0  0  0  0  0  0  0  0  0
  140.5010   72.8410  222.2640 C   0  0  0  0  0  0  0  0  0  0  0  0
  141.4430   71.8770  221.9210 C   0  0  0  0  0  0  0  0  0  0  0  0
  142.4770   72.1310  221.0440 C   0  0  0  0  0  0  0  0  0  0  0  0
  142.5900   73.3690  220.4840 C   0  0  0  0  0  0  0  0  0  0  0  0
  141.6760   74.3260  220.8070 C   0  0  0  0  0  0  0  0  0  0  0  0
  141.7380   75.5870  220.2770 C   0  0  0  0  0  0  0  0  0  0  0  0
  142.6700   75.8350  219.4780 O   0  0  0  0  0  0  0  0  0  0  0  0
  140.4650   78.0230  218.6990 C   0  0  0  0  0  0  0  0  0  0  0  0
  140.7490   79.2220  218.0790 C   0  0  0  0  0  0  0  0  0  0  0  0
  143.3360   81.3050  216.1230 H   0  0  0  0  0  0  0  0  0  0  0  0
  143.9810   80.8980  217.6140 H   0  0  0  0  0  0  0  0  0  0  0  0
  142.7704   80.7162  220.3699 H   0  0  0  0  0  0  0  0  0  0  0  0
  142.3025   78.5788  221.5358 H   0  0  0  0  0  0  0  0  0  0  0  0
  137.8213   77.0636  221.3718 H   0  0  0  0  0  0  0  0  0  0  0  0
  137.8883   78.2044  223.4661 H   0  0  0  0  0  0  0  0  0  0  0  0
  138.9214   80.7978  222.5143 H   0  0  0  0  0  0  0  0  0  0  0  0
  140.9102   82.1799  222.9344 H   0  0  0  0  0  0  0  0  0  0  0  0
  143.0575   81.1969  223.7165 H   0  0  0  0  0  0  0  0  0  0  0  0
  143.1262   78.6933  224.0694 H   0  0  0  0  0  0  0  0  0  0  0  0
  139.6820   72.6261  222.9661 H   0  0  0  0  0  0  0  0  0  0  0  0
  141.3604   70.8743  222.3658 H   0  0  0  0  0  0  0  0  0  0  0  0
  143.2035   71.3423  220.7988 H   0  0  0  0  0  0  0  0  0  0  0  0
  143.4070   73.5917  219.7819 H   0  0  0  0  0  0  0  0  0  0  0  0
  139.8161   77.2747  218.2204 H   0  0  0  0  0  0  0  0  0  0  0  0
  140.3130   79.4205  217.0888 H   0  0  0  0  0  0  0  0  0  0  0  0
  1  2  1  0
  2  3  2  0
  2  4  2  0
  2  5  1  0
  5  6  2  0
  6  7  1  0
  7  8  2  0
  8  9  1  0
  9 10  1  0
 10 11  1  0
 11 12  2  0
 12 13  1  0
 13 14  2  0
 14 15  1  0
 15 16  2  0
 16 17  1  0
 17 18  2  0
 10 19  2  0
 19 20  1  0
 20 21  2  0
 21 22  1  0
 22 23  2  0
 23 24  1  0
 24 25  2  0
 25 26  1  0
 26 27  2  0
  8 28  1  0
 28 29  2  0
 29  5  1  0
 26  9  1  0
 18 13  1  0
 25 20  1  0
  1 30  1  0
  1 31  1  0
  6 32  1  0
  7 33  1  0
 11 34  1  0
 12 35  1  0
 14 36  1  0
 15 37  1  0
 16 38  1  0
 17 39  1  0
 21 40  1  0
 22 41  1  0
 23 42  1  0
 24 43  1  0
 28 44  1  0
 29 45  1  0
M  END
>  <smiles>  (20) 
NS(=O)(=O)c1ccc(-n2c(/C=C/c3ccccn3)nc3ccccc3c2=O)cc1

>  <score_type>  (20) 
oracle

>  <origin>  (20) 
autodockgpu

>  <m_score__min__energy>  (20) 
-8.5600000000000005

>  <m_primary>  (20) 
energy

>  <rmsd>  (20) 
7.025212154068847

>  <m_score__min__rmsd>  (20) 
7.025212154068847

>  <meeko>  (20) 
{"free_energy": -6.91, "intermolecular_energy": -8.7, "internal_energy": -1.88, "cluster_size": 21, "cluster_id": 7, "rank_in_cluster": 18}

>  <energy>  (20) 
-7.58

>  <cluster_rmsd>  (20) 
0.0

>  <cluster>  (20) 
6

$$$$

     RDKit          3D

 45 48  0  0  0  0  0  0  0  0999 V2000
  138.6640   75.5090  222.6960 N   0  0  0  0  0  0  0  0  0  0  0  0
  139.8430   75.3670  221.4480 S   0  0  0  0  0  0  0  0  0  0  0  0
  141.1100   74.7140  221.9620 O   0  0  0  0  0  0  0  0  0  0  0  0
  139.3650   74.5270  220.2970 O   0  0  0  0  0  0  0  0  0  0  0  0
  140.2330   76.9690  220.8210 C   0  0  0  0  0  0  0  0  0  0  0  0
  141.5060   77.4830  221.0340 C   0  0  0  0  0  0  0  0  0  0  0  0
  141.8090   78.7380  220.5420 C   0  0  0  0  0  0  0  0  0  0  0  0
  140.8600   79.4950  219.8360 C   0  0  0  0  0  0  0  0  0  0  0  0
  141.1650   80.8020  219.3750 N   0  0  0  0  0  0  0  0  0  0  0  0
  140.5620   81.9190  219.7770 C   0  0  0  0  0  0  0  0  0  0  0  0
  139.5120   82.0660  220.7270 C   0  0  0  0  0  0  0  0  0  0  0  0
  139.5120   81.9270  222.0230 C   0  0  0  0  0  0  0  0  0  0  0  0
  140.4690   81.0550  222.7230 C   0  0  0  0  0  0  0  0  0  0  0  0
  141.7890   81.4010  222.8730 C   0  0  0  0  0  0  0  0  0  0  0  0
  142.6220   80.5340  223.5390 C   0  0  0  0  0  0  0  0  0  0  0  0
  142.1980   79.3280  224.0670 C   0  0  0  0  0  0  0  0  0  0  0  0
  140.8520   79.0200  223.8900 C   0  0  0  0  0  0  0  0  0  0  0  0
  140.0560   79.8840  223.2350 N   0  0  0  0  0  0  0  0  0  0  0  0
  141.0190   83.0750  219.1970 N   0  0  0  0  0  0  0  0  0  0  0  0
  141.9840   83.1380  218.2970 C   0  0  0  0  0  0  0  0  0  0  0  0
  142.3440   84.3620  217.7960 C   0  0  0  0  0  0  0  0  0  0  0  0
  143.3660   84.3690  216.8520 C   0  0  0  0  0  0  0  0  0  0  0  0
  143.9930   83.2160  216.4310 C   0  0  0  0  0  0  0  0  0  0  0  0
  143.6080   82.0170  216.9520 C   0  0  0  0  0  0  0  0  0  0  0  0
  142.6090   81.9890  217.8780 C   0  0  0  0  0  0  0  0  0  0  0  0
  142.1790   80.8160  218.4360 C   0  0  0  0  0  0  0  0  0  0  0  0
  142.7390   79.7580  218.0660 O   0  0  0  0  0  0  0  0  0  0  0  0
  139.5710   78.9710  219.6220 C   0  0  0  0  0  0  0  0  0  0  0  0
  139.2970   77.7160  220.1250 C   0  0  0  0  0  0  0  0  0  0  0  0
  139.1790   75.6340  223.5960 H   0  0  0  0  0  0  0  0  0  0  0  0
  138.1810   74.5960  222.7420 H   0  0  0  0  0  0  0  0  0  0  0  0
  142.2596   76.9009  221.5848 H   0  0  0  0  0  0  0  0  0  0  0  0
  142.8144   79.1528  220.7067 H   0  0  0  0  0  0  0  0  0  0  0  0
  138.5388   82.3430  220.2956 H   0  0  0  0  0  0  0  0  0  0  0  0
  138.7695   82.4818  222.6153 H   0  0  0  0  0  0  0  0  0  0  0  0
  142.1712   82.3502  222.4695 H   0  0  0  0  0  0  0  0  0  0  0  0
  143.6792   80.8134  223.6581 H   0  0  0  0  0  0  0  0  0  0  0  0
  142.8848   78.6512  224.5963 H   0  0  0  0  0  0  0  0  0  0  0  0
  140.4427   78.0775  224.2827 H   0  0  0  0  0  0  0  0  0  0  0  0
  141.8511   85.2894  218.1229 H   0  0  0  0  0  0  0  0  0  0  0  0
  143.6858   85.3312  216.4255 H   0  0  0  0  0  0  0  0  0  0  0  0
  144.7967   83.2632  215.6814 H   0  0  0  0  0  0  0  0  0  0  0  0
  144.0966   81.0856  216.6297 H   0  0  0  0  0  0  0  0  0  0  0  0
  138.8085   79.5426  219.0726 H   0  0  0  0  0  0  0  0  0  0  0  0
  138.2946   77.2914  219.9670 H   0  0  0  0  0  0  0  0  0  0  0  0
  1  2  1  0
  2  3  2  0
  2  4  2  0
  2  5  1  0
  5  6  2  0
  6  7  1  0
  7  8  2  0
  8  9  1  0
  9 10  1  0
 10 11  1  0
 11 12  2  0
 12 13  1  0
 13 14  2  0
 14 15  1  0
 15 16  2  0
 16 17  1  0
 17 18  2  0
 10 19  2  0
 19 20  1  0
 20 21  2  0
 21 22  1  0
 22 23  2  0
 23 24  1  0
 24 25  2  0
 25 26  1  0
 26 27  2  0
  8 28  1  0
 28 29  2  0
 29  5  1  0
 26  9  1  0
 18 13  1  0
 25 20  1  0
  1 30  1  0
  1 31  1  0
  6 32  1  0
  7 33  1  0
 11 34  1  0
 12 35  1  0
 14 36  1  0
 15 37  1  0
 16 38  1  0
 17 39  1  0
 21 40  1  0
 22 41  1  0
 23 42  1  0
 24 43  1  0
 28 44  1  0
 29 45  1  0
M  END
>  <smiles>  (21) 
NS(=O)(=O)c1ccc(-n2c(/C=C/c3ccccn3)nc3ccccc3c2=O)cc1

>  <score_type>  (21) 
oracle

>  <origin>  (21) 
autodockgpu

>  <m_score__min__energy>  (21) 
-8.5600000000000005

>  <m_primary>  (21) 
energy

>  <rmsd>  (21) 
4.395809270185216

>  <m_score__min__rmsd>  (21) 
4.395809270185216

>  <meeko>  (21) 
{"free_energy": -6.82, "intermolecular_energy": -8.61, "internal_energy": -2.08, "cluster_size": 4, "cluster_id": 9, "rank_in_cluster": 2}

>  <energy>  (21) 
-7.53

>  <cluster_rmsd>  (21) 
0.58

>  <cluster>  (21) 
6

$$$$

     RDKit          3D

 45 48  0  0  0  0  0  0  0  0999 V2000
  146.1850   69.7930  217.3850 N   0  0  0  0  0  0  0  0  0  0  0  0
  146.1300   69.6830  219.1030 S   0  0  0  0  0  0  0  0  0  0  0  0
  145.7960   68.2750  219.5530 O   0  0  0  0  0  0  0  0  0  0  0  0
  147.4420   70.0380  219.7450 O   0  0  0  0  0  0  0  0  0  0  0  0
  144.9080   70.7920  219.7260 C   0  0  0  0  0  0  0  0  0  0  0  0
  143.5670   70.4570  219.5960 C   0  0  0  0  0  0  0  0  0  0  0  0
  142.6120   71.3270  220.0840 C   0  0  0  0  0  0  0  0  0  0  0  0
  142.9730   72.5350  220.7050 C   0  0  0  0  0  0  0  0  0  0  0  0
  141.9840   73.4450  221.1610 N   0  0  0  0  0  0  0  0  0  0  0  0
  140.9690   73.1360  221.9670 C   0  0  0  0  0  0  0  0  0  0  0  0
  140.6470   71.8740  222.5420 C   0  0  0  0  0  0  0  0  0  0  0  0
  139.7170   71.5400  223.3930 C   0  0  0  0  0  0  0  0  0  0  0  0
  140.0210   71.1410  224.7760 C   0  0  0  0  0  0  0  0  0  0  0  0
  139.5240   69.9850  225.3230 C   0  0  0  0  0  0  0  0  0  0  0  0
  139.8530   69.6790  226.6220 C   0  0  0  0  0  0  0  0  0  0  0  0
  140.6600   70.4800  227.4100 C   0  0  0  0  0  0  0  0  0  0  0  0
  141.1400   71.6430  226.8120 C   0  0  0  0  0  0  0  0  0  0  0  0
  140.8060   71.9200  225.5400 N   0  0  0  0  0  0  0  0  0  0  0  0
  140.1320   74.1760  222.2820 N   0  0  0  0  0  0  0  0  0  0  0  0
  140.2690   75.4160  221.8450 C   0  0  0  0  0  0  0  0  0  0  0  0
  139.3570   76.3610  222.2360 C   0  0  0  0  0  0  0  0  0  0  0  0
  139.5510   77.6490  221.7470 C   0  0  0  0  0  0  0  0  0  0  0  0
  140.5990   77.9740  220.9110 C   0  0  0  0  0  0  0  0  0  0  0  0
  141.4860   77.0060  220.5440 C   0  0  0  0  0  0  0  0  0  0  0  0
  141.3140   75.7390  221.0120 C   0  0  0  0  0  0  0  0  0  0  0  0
  142.1710   74.7260  220.6780 C   0  0  0  0  0  0  0  0  0  0  0  0
  143.1290   75.0030  219.9200 O   0  0  0  0  0  0  0  0  0  0  0  0
  144.3330   72.8710  220.8350 C   0  0  0  0  0  0  0  0  0  0  0  0
  145.2640   71.9830  220.3370 C   0  0  0  0  0  0  0  0  0  0  0  0
  145.3580   69.2710  217.0140 H   0  0  0  0  0  0  0  0  0  0  0  0
  147.0310   69.2770  217.0890 H   0  0  0  0  0  0  0  0  0  0  0  0
  143.2702   69.5146  219.1125 H   0  0  0  0  0  0  0  0  0  0  0  0
  141.5472   71.0693  219.9847 H   0  0  0  0  0  0  0  0  0  0  0  0
  141.2890   71.0431  222.2142 H   0  0  0  0  0  0  0  0  0  0  0  0
  138.6672   71.5572  223.0649 H   0  0  0  0  0  0  0  0  0  0  0  0
  138.8766   69.3179  224.7350 H   0  0  0  0  0  0  0  0  0  0  0  0
  139.4546   68.7505  227.0569 H   0  0  0  0  0  0  0  0  0  0  0  0
  140.9082   70.2141  228.4481 H   0  0  0  0  0  0  0  0  0  0  0  0
  141.7877   72.3297  227.3768 H   0  0  0  0  0  0  0  0  0  0  0  0
  138.5162   76.1144  222.9011 H   0  0  0  0  0  0  0  0  0  0  0  0
  138.8419   78.4380  222.0380 H   0  0  0  0  0  0  0  0  0  0  0  0
  140.7178   79.0042  220.5441 H   0  0  0  0  0  0  0  0  0  0  0  0
  142.3290   77.2452  219.8790 H   0  0  0  0  0  0  0  0  0  0  0  0
  144.6434   73.8097  221.3172 H   0  0  0  0  0  0  0  0  0  0  0  0
  146.3318   72.2307  220.4289 H   0  0  0  0  0  0  0  0  0  0  0  0
  1  2  1  0
  2  3  2  0
  2  4  2  0
  2  5  1  0
  5  6  2  0
  6  7  1  0
  7  8  2  0
  8  9  1  0
  9 10  1  0
 10 11  1  0
 11 12  2  0
 12 13  1  0
 13 14  2  0
 14 15  1  0
 15 16  2  0
 16 17  1  0
 17 18  2  0
 10 19  2  0
 19 20  1  0
 20 21  2  0
 21 22  1  0
 22 23  2  0
 23 24  1  0
 24 25  2  0
 25 26  1  0
 26 27  2  0
  8 28  1  0
 28 29  2  0
 29  5  1  0
 26  9  1  0
 18 13  1  0
 25 20  1  0
  1 30  1  0
  1 31  1  0
  6 32  1  0
  7 33  1  0
 11 34  1  0
 12 35  1  0
 14 36  1  0
 15 37  1  0
 16 38  1  0
 17 39  1  0
 21 40  1  0
 22 41  1  0
 23 42  1  0
 24 43  1  0
 28 44  1  0
 29 45  1  0
M  END
>  <smiles>  (22) 
NS(=O)(=O)c1ccc(-n2c(/C=C/c3ccccn3)nc3ccccc3c2=O)cc1

>  <score_type>  (22) 
oracle

>  <origin>  (22) 
autodockgpu

>  <m_score__min__energy>  (22) 
-8.5600000000000005

>  <m_primary>  (22) 
energy

>  <rmsd>  (22) 
5.880865376110702

>  <m_score__min__rmsd>  (22) 
5.880865376110702

>  <meeko>  (22) 
{"free_energy": -8.35, "intermolecular_energy": -10.14, "internal_energy": -0.84, "cluster_size": 13, "cluster_id": 1, "rank_in_cluster": 4}

>  <energy>  (22) 
-7.22

>  <cluster_rmsd>  (22) 
0.47

>  <cluster>  (22) 
6

$$$$

     RDKit          3D

 45 48  0  0  0  0  0  0  0  0999 V2000
  143.3290   76.7830  219.9220 N   0  0  0  0  0  0  0  0  0  0  0  0
  143.8240   75.1360  219.8180 S   0  0  0  0  0  0  0  0  0  0  0  0
  143.9790   74.7000  218.3750 O   0  0  0  0  0  0  0  0  0  0  0  0
  145.1490   74.8900  220.4840 O   0  0  0  0  0  0  0  0  0  0  0  0
  142.6260   74.1090  220.6060 C   0  0  0  0  0  0  0  0  0  0  0  0
  141.5010   74.6990  221.1680 C   0  0  0  0  0  0  0  0  0  0  0  0
  140.5640   73.8940  221.7850 C   0  0  0  0  0  0  0  0  0  0  0  0
  140.7290   72.5000  221.8530 C   0  0  0  0  0  0  0  0  0  0  0  0
  139.7850   71.6850  222.5300 N   0  0  0  0  0  0  0  0  0  0  0  0
  139.7890   71.4280  223.8360 C   0  0  0  0  0  0  0  0  0  0  0  0
  140.7000   71.8920  224.8280 C   0  0  0  0  0  0  0  0  0  0  0  0
  141.4540   71.2340  225.6640 C   0  0  0  0  0  0  0  0  0  0  0  0
  140.9570   70.0860  226.4380 C   0  0  0  0  0  0  0  0  0  0  0  0
  140.5500   70.2120  227.7430 C   0  0  0  0  0  0  0  0  0  0  0  0
  140.0980   69.0930  228.4000 C   0  0  0  0  0  0  0  0  0  0  0  0
  140.0320   67.8420  227.8130 C   0  0  0  0  0  0  0  0  0  0  0  0
  140.4550   67.7630  226.4890 C   0  0  0  0  0  0  0  0  0  0  0  0
  140.8930   68.8710  225.8670 N   0  0  0  0  0  0  0  0  0  0  0  0
  138.7780   70.6130  224.2780 N   0  0  0  0  0  0  0  0  0  0  0  0
  137.8410   70.0870  223.5080 C   0  0  0  0  0  0  0  0  0  0  0  0
  136.8880   69.2840  224.0790 C   0  0  0  0  0  0  0  0  0  0  0  0
  135.9260   68.7590  223.2230 C   0  0  0  0  0  0  0  0  0  0  0  0
  135.9180   69.0200  221.8680 C   0  0  0  0  0  0  0  0  0  0  0  0
  136.8830   69.8230  221.3370 C   0  0  0  0  0  0  0  0  0  0  0  0
  137.8330   70.3470  222.1590 C   0  0  0  0  0  0  0  0  0  0  0  0
  138.8270   71.1590  221.6840 C   0  0  0  0  0  0  0  0  0  0  0  0
  138.8350   71.4080  220.4560 O   0  0  0  0  0  0  0  0  0  0  0  0
  141.8700   71.9060  221.2820 C   0  0  0  0  0  0  0  0  0  0  0  0
  142.7890   72.7360  220.6730 C   0  0  0  0  0  0  0  0  0  0  0  0
  143.8080   77.3000  219.1510 H   0  0  0  0  0  0  0  0  0  0  0  0
  143.7090   77.1420  220.8150 H   0  0  0  0  0  0  0  0  0  0  0  0
  141.3590   75.7888  221.1223 H   0  0  0  0  0  0  0  0  0  0  0  0
  139.6702   74.3532  222.2324 H   0  0  0  0  0  0  0  0  0  0  0  0
  140.7808   72.9866  224.9009 H   0  0  0  0  0  0  0  0  0  0  0  0
  142.4998   71.5488  225.7952 H   0  0  0  0  0  0  0  0  0  0  0  0
  140.5849   71.1869  228.2513 H   0  0  0  0  0  0  0  0  0  0  0  0
  139.7722   69.1972  229.4455 H   0  0  0  0  0  0  0  0  0  0  0  0
  139.6665   66.9608  228.3607 H   0  0  0  0  0  0  0  0  0  0  0  0
  140.4309   66.8011  225.9560 H   0  0  0  0  0  0  0  0  0  0  0  0
  136.8844   69.0664  225.1573 H   0  0  0  0  0  0  0  0  0  0  0  0
  135.1418   68.1112  223.6418 H   0  0  0  0  0  0  0  0  0  0  0  0
  135.1407   68.5844  221.2229 H   0  0  0  0  0  0  0  0  0  0  0  0
  136.8939   70.0444  220.2596 H   0  0  0  0  0  0  0  0  0  0  0  0
  142.0239   70.8175  221.3198 H   0  0  0  0  0  0  0  0  0  0  0  0
  143.6873   72.2885  220.2227 H   0  0  0  0  0  0  0  0  0  0  0  0
  1  2  1  0
  2  3  2  0
  2  4  2  0
  2  5  1  0
  5  6  2  0
  6  7  1  0
  7  8  2  0
  8  9  1  0
  9 10  1  0
 10 11  1  0
 11 12  2  0
 12 13  1  0
 13 14  2  0
 14 15  1  0
 15 16  2  0
 16 17  1  0
 17 18  2  0
 10 19  2  0
 19 20  1  0
 20 21  2  0
 21 22  1  0
 22 23  2  0
 23 24  1  0
 24 25  2  0
 25 26  1  0
 26 27  2  0
  8 28  1  0
 28 29  2  0
 29  5  1  0
 26  9  1  0
 18 13  1  0
 25 20  1  0
  1 30  1  0
  1 31  1  0
  6 32  1  0
  7 33  1  0
 11 34  1  0
 12 35  1  0
 14 36  1  0
 15 37  1  0
 16 38  1  0
 17 39  1  0
 21 40  1  0
 22 41  1  0
 23 42  1  0
 24 43  1  0
 28 44  1  0
 29 45  1  0
M  END
>  <smiles>  (23) 
NS(=O)(=O)c1ccc(-n2c(/C=C/c3ccccn3)nc3ccccc3c2=O)cc1

>  <score_type>  (23) 
oracle

>  <origin>  (23) 
autodockgpu

>  <m_score__min__energy>  (23) 
-8.5600000000000005

>  <m_primary>  (23) 
energy

>  <rmsd>  (23) 
9.74839949503038

>  <m_score__min__rmsd>  (23) 
9.74839949503038

>  <meeko>  (23) 
{"free_energy": -7.13, "intermolecular_energy": -8.92, "internal_energy": -1.46, "cluster_size": 4, "cluster_id": 6, "rank_in_cluster": 4}

>  <energy>  (23) 
-7.13

>  <cluster_rmsd>  (23) 
0.54

>  <cluster>  (23) 
6

$$$$

     RDKit          3D

 45 48  0  0  0  0  0  0  0  0999 V2000
  144.2670   82.3860  216.8140 N   0  0  0  0  0  0  0  0  0  0  0  0
  142.6130   82.2890  217.2840 S   0  0  0  0  0  0  0  0  0  0  0  0
  142.2480   83.4040  218.2430 O   0  0  0  0  0  0  0  0  0  0  0  0
  141.6740   82.4060  216.1150 O   0  0  0  0  0  0  0  0  0  0  0  0
  142.3120   80.7350  218.0630 C   0  0  0  0  0  0  0  0  0  0  0  0
  142.2150   80.6850  219.4470 C   0  0  0  0  0  0  0  0  0  0  0  0
  141.9800   79.4680  220.0560 C   0  0  0  0  0  0  0  0  0  0  0  0
  141.8370   78.2910  219.3030 C   0  0  0  0  0  0  0  0  0  0  0  0
  141.6410   77.0360  219.9390 N   0  0  0  0  0  0  0  0  0  0  0  0
  140.6500   76.7480  220.7800 C   0  0  0  0  0  0  0  0  0  0  0  0
  139.5910   77.5890  221.2240 C   0  0  0  0  0  0  0  0  0  0  0  0
  139.4490   78.2660  222.3290 C   0  0  0  0  0  0  0  0  0  0  0  0
  140.4660   79.2150  222.8090 C   0  0  0  0  0  0  0  0  0  0  0  0
  141.5930   78.7970  223.4710 C   0  0  0  0  0  0  0  0  0  0  0  0
  142.4970   79.7430  223.8880 C   0  0  0  0  0  0  0  0  0  0  0  0
  142.3300   81.1000  223.6760 C   0  0  0  0  0  0  0  0  0  0  0  0
  141.1720   81.4770  223.0010 C   0  0  0  0  0  0  0  0  0  0  0  0
  140.3020   80.5320  222.6020 N   0  0  0  0  0  0  0  0  0  0  0  0
  140.6550   75.4690  221.2770 N   0  0  0  0  0  0  0  0  0  0  0  0
  141.5550   74.5470  220.9820 C   0  0  0  0  0  0  0  0  0  0  0  0
  141.4440   73.3060  221.5520 C   0  0  0  0  0  0  0  0  0  0  0  0
  142.4170   72.3750  221.2050 C   0  0  0  0  0  0  0  0  0  0  0  0
  143.4470   72.6690  220.3360 C   0  0  0  0  0  0  0  0  0  0  0  0
  143.5240   73.9150  219.7880 C   0  0  0  0  0  0  0  0  0  0  0  0
  142.5800   74.8400  220.1150 C   0  0  0  0  0  0  0  0  0  0  0  0
  142.6060   76.1070  219.5980 C   0  0  0  0  0  0  0  0  0  0  0  0
  143.5340   76.3920  218.8060 O   0  0  0  0  0  0  0  0  0  0  0  0
  141.9340   78.3450  217.9000 C   0  0  0  0  0  0  0  0  0  0  0  0
  142.1710   79.5750  217.3210 C   0  0  0  0  0  0  0  0  0  0  0  0
  144.4090   81.7010  216.0370 H   0  0  0  0  0  0  0  0  0  0  0  0
  144.8170   82.0500  217.6230 H   0  0  0  0  0  0  0  0  0  0  0  0
  142.3235   81.5995  220.0485 H   0  0  0  0  0  0  0  0  0  0  0  0
  141.9033   79.4195  221.1522 H   0  0  0  0  0  0  0  0  0  0  0  0
  138.7533   77.6834  220.5174 H   0  0  0  0  0  0  0  0  0  0  0  0
  138.5353   78.1225  222.9245 H   0  0  0  0  0  0  0  0  0  0  0  0
  141.7684   77.7282  223.6633 H   0  0  0  0  0  0  0  0  0  0  0  0
  143.3998   79.4046  224.4175 H   0  0  0  0  0  0  0  0  0  0  0  0
  143.0691   81.8382  224.0207 H   0  0  0  0  0  0  0  0  0  0  0  0
  140.9704   82.5387  222.7958 H   0  0  0  0  0  0  0  0  0  0  0  0
  140.6283   73.0591  222.2474 H   0  0  0  0  0  0  0  0  0  0  0  0
  142.3632   71.3661  221.6400 H   0  0  0  0  0  0  0  0  0  0  0  0
  144.1990   71.9056  220.0875 H   0  0  0  0  0  0  0  0  0  0  0  0
  144.3369   74.1692  219.0919 H   0  0  0  0  0  0  0  0  0  0  0  0
  141.8247   77.4385  217.2865 H   0  0  0  0  0  0  0  0  0  0  0  0
  142.2511   79.6361  216.2256 H   0  0  0  0  0  0  0  0  0  0  0  0
  1  2  1  0
  2  3  2  0
  2  4  2  0
  2  5  1  0
  5  6  2  0
  6  7  1  0
  7  8  2  0
  8  9  1  0
  9 10  1  0
 10 11  1  0
 11 12  2  0
 12 13  1  0
 13 14  2  0
 14 15  1  0
 15 16  2  0
 16 17  1  0
 17 18  2  0
 10 19  2  0
 19 20  1  0
 20 21  2  0
 21 22  1  0
 22 23  2  0
 23 24  1  0
 24 25  2  0
 25 26  1  0
 26 27  2  0
  8 28  1  0
 28 29  2  0
 29  5  1  0
 26  9  1  0
 18 13  1  0
 25 20  1  0
  1 30  1  0
  1 31  1  0
  6 32  1  0
  7 33  1  0
 11 34  1  0
 12 35  1  0
 14 36  1  0
 15 37  1  0
 16 38  1  0
 17 39  1  0
 21 40  1  0
 22 41  1  0
 23 42  1  0
 24 43  1  0
 28 44  1  0
 29 45  1  0
M  END
>  <smiles>  (24) 
NS(=O)(=O)c1ccc(-n2c(/C=C/c3ccccn3)nc3ccccc3c2=O)cc1

>  <score_type>  (24) 
oracle

>  <origin>  (24) 
autodockgpu

>  <m_score__min__energy>  (24) 
-8.5600000000000005

>  <m_primary>  (24) 
energy

>  <rmsd>  (24) 
7.053691376198904

>  <m_score__min__rmsd>  (24) 
7.053691376198904

>  <meeko>  (24) 
{"free_energy": -7.44, "intermolecular_energy": -9.22, "internal_energy": -1.52, "cluster_size": 21, "cluster_id": 7, "rank_in_cluster": 4}

>  <energy>  (24) 
-7.5

>  <cluster_rmsd>  (24) 
0.0

>  <cluster>  (24) 
7

$$$$

     RDKit          3D

 45 48  0  0  0  0  0  0  0  0999 V2000
  144.2410   82.4220  216.5560 N   0  0  0  0  0  0  0  0  0  0  0  0
  142.6210   82.3800  217.1420 S   0  0  0  0  0  0  0  0  0  0  0  0
  142.3600   83.5100  218.1170 O   0  0  0  0  0  0  0  0  0  0  0  0
  141.6070   82.5220  216.0410 O   0  0  0  0  0  0  0  0  0  0  0  0
  142.3270   80.8400  217.9500 C   0  0  0  0  0  0  0  0  0  0  0  0
  142.2190   79.6880  217.1820 C   0  0  0  0  0  0  0  0  0  0  0  0
  141.9880   78.4830  217.8170 C   0  0  0  0  0  0  0  0  0  0  0  0
  141.8630   78.4060  219.2140 C   0  0  0  0  0  0  0  0  0  0  0  0
  141.5790   77.1710  219.8540 N   0  0  0  0  0  0  0  0  0  0  0  0
  140.4910   76.9130  220.5780 C   0  0  0  0  0  0  0  0  0  0  0  0
  139.3970   77.7760  220.8710 C   0  0  0  0  0  0  0  0  0  0  0  0
  139.1870   78.5710  221.8820 C   0  0  0  0  0  0  0  0  0  0  0  0
  140.2790   79.2850  222.5630 C   0  0  0  0  0  0  0  0  0  0  0  0
  141.2370   78.6230  223.2890 C   0  0  0  0  0  0  0  0  0  0  0  0
  142.2250   79.3600  223.8960 C   0  0  0  0  0  0  0  0  0  0  0  0
  142.3050   80.7380  223.8130 C   0  0  0  0  0  0  0  0  0  0  0  0
  141.3120   81.3660  223.0660 C   0  0  0  0  0  0  0  0  0  0  0  0
  140.3560   80.6240  222.4820 N   0  0  0  0  0  0  0  0  0  0  0  0
  140.4230   75.6490  221.1060 N   0  0  0  0  0  0  0  0  0  0  0  0
  141.3410   74.7120  220.9430 C   0  0  0  0  0  0  0  0  0  0  0  0
  141.1480   73.4870  221.5280 C   0  0  0  0  0  0  0  0  0  0  0  0
  142.1450   72.5390  221.3240 C   0  0  0  0  0  0  0  0  0  0  0  0
  143.2740   72.8010  220.5760 C   0  0  0  0  0  0  0  0  0  0  0  0
  143.4300   74.0310  220.0100 C   0  0  0  0  0  0  0  0  0  0  0  0
  142.4650   74.9730  220.1980 C   0  0  0  0  0  0  0  0  0  0  0  0
  142.5660   76.2250  219.6550 C   0  0  0  0  0  0  0  0  0  0  0  0
  143.5850   76.4800  218.9720 O   0  0  0  0  0  0  0  0  0  0  0  0
  141.9730   79.5750  219.9890 C   0  0  0  0  0  0  0  0  0  0  0  0
  142.2030   80.7640  219.3270 C   0  0  0  0  0  0  0  0  0  0  0  0
  144.3400   81.6470  215.8630 H   0  0  0  0  0  0  0  0  0  0  0  0
  144.8450   82.1920  217.3630 H   0  0  0  0  0  0  0  0  0  0  0  0
  142.3157   79.7342  216.0872 H   0  0  0  0  0  0  0  0  0  0  0  0
  141.9002   77.5655  217.2166 H   0  0  0  0  0  0  0  0  0  0  0  0
  138.5951   77.7708  220.1181 H   0  0  0  0  0  0  0  0  0  0  0  0
  138.1564   78.7135  222.2393 H   0  0  0  0  0  0  0  0  0  0  0  0
  141.2144   77.5272  223.3829 H   0  0  0  0  0  0  0  0  0  0  0  0
  142.9914   78.8267  224.4776 H   0  0  0  0  0  0  0  0  0  0  0  0
  143.1067   81.3052  224.3085 H   0  0  0  0  0  0  0  0  0  0  0  0
  141.3101   82.4604  222.9548 H   0  0  0  0  0  0  0  0  0  0  0  0
  140.2522   73.2658  222.1268 H   0  0  0  0  0  0  0  0  0  0  0  0
  142.0289   71.5429  221.7761 H   0  0  0  0  0  0  0  0  0  0  0  0
  144.0410   72.0247  220.4377 H   0  0  0  0  0  0  0  0  0  0  0  0
  144.3230   74.2595  219.4097 H   0  0  0  0  0  0  0  0  0  0  0  0
  141.8790   79.5425  221.0845 H   0  0  0  0  0  0  0  0  0  0  0  0
  142.2913   81.6882  219.9169 H   0  0  0  0  0  0  0  0  0  0  0  0
  1  2  1  0
  2  3  2  0
  2  4  2  0
  2  5  1  0
  5  6  2  0
  6  7  1  0
  7  8  2  0
  8  9  1  0
  9 10  1  0
 10 11  1  0
 11 12  2  0
 12 13  1  0
 13 14  2  0
 14 15  1  0
 15 16  2  0
 16 17  1  0
 17 18  2  0
 10 19  2  0
 19 20  1  0
 20 21  2  0
 21 22  1  0
 22 23  2  0
 23 24  1  0
 24 25  2  0
 25 26  1  0
 26 27  2  0
  8 28  1  0
 28 29  2  0
 29  5  1  0
 26  9  1  0
 18 13  1  0
 25 20  1  0
  1 30  1  0
  1 31  1  0
  6 32  1  0
  7 33  1  0
 11 34  1  0
 12 35  1  0
 14 36  1  0
 15 37  1  0
 16 38  1  0
 17 39  1  0
 21 40  1  0
 22 41  1  0
 23 42  1  0
 24 43  1  0
 28 44  1  0
 29 45  1  0
M  END
>  <smiles>  (25) 
NS(=O)(=O)c1ccc(-n2c(/C=C/c3ccccn3)nc3ccccc3c2=O)cc1

>  <score_type>  (25) 
oracle

>  <origin>  (25) 
autodockgpu

>  <m_score__min__energy>  (25) 
-8.5600000000000005

>  <m_primary>  (25) 
energy

>  <rmsd>  (25) 
7.012607846742831

>  <m_score__min__rmsd>  (25) 
7.012607846742831

>  <meeko>  (25) 
{"free_energy": -7.28, "intermolecular_energy": -9.07, "internal_energy": -1.61, "cluster_size": 21, "cluster_id": 7, "rank_in_cluster": 9}

>  <energy>  (25) 
-7.46

>  <cluster_rmsd>  (25) 
0.29

>  <cluster>  (25) 
7

$$$$

     RDKit          3D

 45 48  0  0  0  0  0  0  0  0999 V2000
  144.2360   82.5300  216.3150 N   0  0  0  0  0  0  0  0  0  0  0  0
  142.6210   82.5030  216.9140 S   0  0  0  0  0  0  0  0  0  0  0  0
  142.3730   83.6440  217.8800 O   0  0  0  0  0  0  0  0  0  0  0  0
  141.5990   82.6380  215.8190 O   0  0  0  0  0  0  0  0  0  0  0  0
  142.3250   80.9720  217.7400 C   0  0  0  0  0  0  0  0  0  0  0  0
  142.1930   79.8150  216.9840 C   0  0  0  0  0  0  0  0  0  0  0  0
  141.9600   78.6180  217.6320 C   0  0  0  0  0  0  0  0  0  0  0  0
  141.8580   78.5530  219.0320 C   0  0  0  0  0  0  0  0  0  0  0  0
  141.5720   77.3270  219.6870 N   0  0  0  0  0  0  0  0  0  0  0  0
  140.4720   77.0700  220.3920 C   0  0  0  0  0  0  0  0  0  0  0  0
  139.3620   77.9250  220.6460 C   0  0  0  0  0  0  0  0  0  0  0  0
  139.1950   78.8590  221.5400 C   0  0  0  0  0  0  0  0  0  0  0  0
  140.3090   79.3940  222.3390 C   0  0  0  0  0  0  0  0  0  0  0  0
  140.5280   80.7420  222.4680 C   0  0  0  0  0  0  0  0  0  0  0  0
  141.5890   81.1650  223.2320 C   0  0  0  0  0  0  0  0  0  0  0  0
  142.4520   80.2980  223.8790 C   0  0  0  0  0  0  0  0  0  0  0  0
  142.1920   78.9400  223.7180 C   0  0  0  0  0  0  0  0  0  0  0  0
  141.1470   78.5510  222.9670 N   0  0  0  0  0  0  0  0  0  0  0  0
  140.4050   75.8140  220.9400 N   0  0  0  0  0  0  0  0  0  0  0  0
  141.3350   74.8840  220.8140 C   0  0  0  0  0  0  0  0  0  0  0  0
  141.1420   73.6680  221.4150 C   0  0  0  0  0  0  0  0  0  0  0  0
  142.1530   72.7270  221.2490 C   0  0  0  0  0  0  0  0  0  0  0  0
  143.2960   72.9880  220.5210 C   0  0  0  0  0  0  0  0  0  0  0  0
  143.4520   74.2100  219.9370 C   0  0  0  0  0  0  0  0  0  0  0  0
  142.4730   75.1440  220.0880 C   0  0  0  0  0  0  0  0  0  0  0  0
  142.5730   76.3880  219.5260 C   0  0  0  0  0  0  0  0  0  0  0  0
  143.6040   76.6420  218.8610 O   0  0  0  0  0  0  0  0  0  0  0  0
  141.9930   79.7280  219.7950 C   0  0  0  0  0  0  0  0  0  0  0  0
  142.2230   80.9090  219.1200 C   0  0  0  0  0  0  0  0  0  0  0  0
  144.3390   81.7190  215.6640 H   0  0  0  0  0  0  0  0  0  0  0  0
  144.8480   82.3510  217.1290 H   0  0  0  0  0  0  0  0  0  0  0  0
  142.2726   79.8512  215.8875 H   0  0  0  0  0  0  0  0  0  0  0  0
  141.8521   77.6969  217.0404 H   0  0  0  0  0  0  0  0  0  0  0  0
  138.5026   77.7720  219.9766 H   0  0  0  0  0  0  0  0  0  0  0  0
  138.1845   79.2619  221.7030 H   0  0  0  0  0  0  0  0  0  0  0  0
  139.8686   81.4686  221.9707 H   0  0  0  0  0  0  0  0  0  0  0  0
  141.7609   82.2467  223.3344 H   0  0  0  0  0  0  0  0  0  0  0  0
  143.2948   80.6610  224.4855 H   0  0  0  0  0  0  0  0  0  0  0  0
  142.8365   78.1911  224.2015 H   0  0  0  0  0  0  0  0  0  0  0  0
  140.2356   73.4475  221.9979 H   0  0  0  0  0  0  0  0  0  0  0  0
  142.0370   71.7376  221.7156 H   0  0  0  0  0  0  0  0  0  0  0  0
  144.0737   72.2175  220.4130 H   0  0  0  0  0  0  0  0  0  0  0  0
  144.3555   74.4380  219.3524 H   0  0  0  0  0  0  0  0  0  0  0  0
  141.9177   79.7054  220.8922 H   0  0  0  0  0  0  0  0  0  0  0  0
  142.3296   81.8372  219.7006 H   0  0  0  0  0  0  0  0  0  0  0  0
  1  2  1  0
  2  3  2  0
  2  4  2  0
  2  5  1  0
  5  6  2  0
  6  7  1  0
  7  8  2  0
  8  9  1  0
  9 10  1  0
 10 11  1  0
 11 12  2  0
 12 13  1  0
 13 14  2  0
 14 15  1  0
 15 16  2  0
 16 17  1  0
 17 18  2  0
 10 19  2  0
 19 20  1  0
 20 21  2  0
 21 22  1  0
 22 23  2  0
 23 24  1  0
 24 25  2  0
 25 26  1  0
 26 27  2  0
  8 28  1  0
 28 29  2  0
 29  5  1  0
 26  9  1  0
 18 13  1  0
 25 20  1  0
  1 30  1  0
  1 31  1  0
  6 32  1  0
  7 33  1  0
 11 34  1  0
 12 35  1  0
 14 36  1  0
 15 37  1  0
 16 38  1  0
 17 39  1  0
 21 40  1  0
 22 41  1  0
 23 42  1  0
 24 43  1  0
 28 44  1  0
 29 45  1  0
M  END
>  <smiles>  (26) 
NS(=O)(=O)c1ccc(-n2c(/C=C/c3ccccn3)nc3ccccc3c2=O)cc1

>  <score_type>  (26) 
oracle

>  <origin>  (26) 
autodockgpu

>  <m_score__min__energy>  (26) 
-8.5600000000000005

>  <m_primary>  (26) 
energy

>  <rmsd>  (26) 
6.955618344575878

>  <m_score__min__rmsd>  (26) 
6.955618344575878

>  <meeko>  (26) 
{"free_energy": -7.1, "intermolecular_energy": -8.89, "internal_energy": -1.62, "cluster_size": 21, "cluster_id": 7, "rank_in_cluster": 14}

>  <energy>  (26) 
-7.46

>  <cluster_rmsd>  (26) 
0.24

>  <cluster>  (26) 
7

$$$$

     RDKit          3D

 45 48  0  0  0  0  0  0  0  0999 V2000
  144.2150   82.4020  216.6680 N   0  0  0  0  0  0  0  0  0  0  0  0
  142.5920   82.3420  217.2430 S   0  0  0  0  0  0  0  0  0  0  0  0
  142.3240   83.4470  218.2450 O   0  0  0  0  0  0  0  0  0  0  0  0
  141.5840   82.5100  216.1400 O   0  0  0  0  0  0  0  0  0  0  0  0
  142.2960   80.7820  218.0100 C   0  0  0  0  0  0  0  0  0  0  0  0
  142.1770   80.7250  219.3930 C   0  0  0  0  0  0  0  0  0  0  0  0
  141.9460   79.5020  219.9930 C   0  0  0  0  0  0  0  0  0  0  0  0
  141.8280   78.3270  219.2320 C   0  0  0  0  0  0  0  0  0  0  0  0
  141.6360   77.0680  219.8600 N   0  0  0  0  0  0  0  0  0  0  0  0
  140.6000   76.7440  220.6310 C   0  0  0  0  0  0  0  0  0  0  0  0
  139.4810   77.5460  220.9950 C   0  0  0  0  0  0  0  0  0  0  0  0
  139.2640   78.2720  222.0550 C   0  0  0  0  0  0  0  0  0  0  0  0
  140.3040   79.1250  222.6520 C   0  0  0  0  0  0  0  0  0  0  0  0
  141.3860   78.5970  223.3100 C   0  0  0  0  0  0  0  0  0  0  0  0
  142.3160   79.4590  223.8410 C   0  0  0  0  0  0  0  0  0  0  0  0
  142.2160   80.8360  223.7460 C   0  0  0  0  0  0  0  0  0  0  0  0
  141.1020   81.3250  223.0700 C   0  0  0  0  0  0  0  0  0  0  0  0
  140.2070   80.4630  222.5590 N   0  0  0  0  0  0  0  0  0  0  0  0
  140.6190   75.4680  221.1350 N   0  0  0  0  0  0  0  0  0  0  0  0
  141.5710   74.5810  220.9080 C   0  0  0  0  0  0  0  0  0  0  0  0
  141.4680   73.3380  221.4760 C   0  0  0  0  0  0  0  0  0  0  0  0
  142.4980   72.4430  221.2030 C   0  0  0  0  0  0  0  0  0  0  0  0
  143.5740   72.7740  220.4060 C   0  0  0  0  0  0  0  0  0  0  0  0
  143.6420   74.0210  219.8590 C   0  0  0  0  0  0  0  0  0  0  0  0
  142.6430   74.9100  220.1140 C   0  0  0  0  0  0  0  0  0  0  0  0
  142.6570   76.1760  219.5930 C   0  0  0  0  0  0  0  0  0  0  0  0
  143.6270   76.4930  218.8660 O   0  0  0  0  0  0  0  0  0  0  0  0
  141.9480   78.3880  217.8320 C   0  0  0  0  0  0  0  0  0  0  0  0
  142.1800   79.6230  217.2610 C   0  0  0  0  0  0  0  0  0  0  0  0
  144.3110   81.6630  215.9350 H   0  0  0  0  0  0  0  0  0  0  0  0
  144.8130   82.1240  217.4640 H   0  0  0  0  0  0  0  0  0  0  0  0
  142.2652   81.6381  220.0001 H   0  0  0  0  0  0  0  0  0  0  0  0
  141.8527   79.4473  221.0877 H   0  0  0  0  0  0  0  0  0  0  0  0
  138.6638   77.5539  220.2587 H   0  0  0  0  0  0  0  0  0  0  0  0
  138.2676   78.2464  222.5203 H   0  0  0  0  0  0  0  0  0  0  0  0
  141.5066   77.5083  223.4104 H   0  0  0  0  0  0  0  0  0  0  0  0
  143.1827   79.0330  224.3676 H   0  0  0  0  0  0  0  0  0  0  0  0
  142.9734   81.5055  224.1798 H   0  0  0  0  0  0  0  0  0  0  0  0
  140.9554   82.4091  222.9550 H   0  0  0  0  0  0  0  0  0  0  0  0
  140.6157   73.0622  222.1143 H   0  0  0  0  0  0  0  0  0  0  0  0
  142.4524   71.4341  221.6390 H   0  0  0  0  0  0  0  0  0  0  0  0
  144.3695   72.0390  220.2136 H   0  0  0  0  0  0  0  0  0  0  0  0
  144.4918   74.3047  219.2208 H   0  0  0  0  0  0  0  0  0  0  0  0
  141.8600   77.4827  217.2134 H   0  0  0  0  0  0  0  0  0  0  0  0
  142.2766   79.6893  216.1673 H   0  0  0  0  0  0  0  0  0  0  0  0
  1  2  1  0
  2  3  2  0
  2  4  2  0
  2  5  1  0
  5  6  2  0
  6  7  1  0
  7  8  2  0
  8  9  1  0
  9 10  1  0
 10 11  1  0
 11 12  2  0
 12 13  1  0
 13 14  2  0
 14 15  1  0
 15 16  2  0
 16 17  1  0
 17 18  2  0
 10 19  2  0
 19 20  1  0
 20 21  2  0
 21 22  1  0
 22 23  2  0
 23 24  1  0
 24 25  2  0
 25 26  1  0
 26 27  2  0
  8 28  1  0
 28 29  2  0
 29  5  1  0
 26  9  1  0
 18 13  1  0
 25 20  1  0
  1 30  1  0
  1 31  1  0
  6 32  1  0
  7 33  1  0
 11 34  1  0
 12 35  1  0
 14 36  1  0
 15 37  1  0
 16 38  1  0
 17 39  1  0
 21 40  1  0
 22 41  1  0
 23 42  1  0
 24 43  1  0
 28 44  1  0
 29 45  1  0
M  END
>  <smiles>  (27) 
NS(=O)(=O)c1ccc(-n2c(/C=C/c3ccccn3)nc3ccccc3c2=O)cc1

>  <score_type>  (27) 
oracle

>  <origin>  (27) 
autodockgpu

>  <m_score__min__energy>  (27) 
-8.5600000000000005

>  <m_primary>  (27) 
energy

>  <rmsd>  (27) 
7.036624031036781

>  <m_score__min__rmsd>  (27) 
7.036624031036781

>  <meeko>  (27) 
{"free_energy": -7.39, "intermolecular_energy": -9.18, "internal_energy": -1.6, "cluster_size": 21, "cluster_id": 7, "rank_in_cluster": 5}

>  <energy>  (27) 
-7.44

>  <cluster_rmsd>  (27) 
0.1

>  <cluster>  (27) 
7

$$$$

     RDKit          3D

 45 48  0  0  0  0  0  0  0  0999 V2000
  144.2160   82.3980  216.6980 N   0  0  0  0  0  0  0  0  0  0  0  0
  142.5950   82.2900  217.2700 S   0  0  0  0  0  0  0  0  0  0  0  0
  142.2880   83.3940  218.2620 O   0  0  0  0  0  0  0  0  0  0  0  0
  141.5840   82.4150  216.1630 O   0  0  0  0  0  0  0  0  0  0  0  0
  142.3480   80.7270  218.0500 C   0  0  0  0  0  0  0  0  0  0  0  0
  142.3030   79.5840  217.2640 C   0  0  0  0  0  0  0  0  0  0  0  0
  142.1090   78.3600  217.8760 C   0  0  0  0  0  0  0  0  0  0  0  0
  141.9590   78.2570  219.2690 C   0  0  0  0  0  0  0  0  0  0  0  0
  141.7130   77.0020  219.8850 N   0  0  0  0  0  0  0  0  0  0  0  0
  140.6480   76.7060  220.6280 C   0  0  0  0  0  0  0  0  0  0  0  0
  139.5450   77.5400  220.9660 C   0  0  0  0  0  0  0  0  0  0  0  0
  139.2890   78.2120  222.0530 C   0  0  0  0  0  0  0  0  0  0  0  0
  140.2630   79.1350  222.6580 C   0  0  0  0  0  0  0  0  0  0  0  0
  140.0900   80.4960  222.6260 C   0  0  0  0  0  0  0  0  0  0  0  0
  141.0440   81.2920  223.2120 C   0  0  0  0  0  0  0  0  0  0  0  0
  142.1730   80.7910  223.8350 C   0  0  0  0  0  0  0  0  0  0  0  0
  142.3060   79.4050  223.8420 C   0  0  0  0  0  0  0  0  0  0  0  0
  141.3600   78.6470  223.2620 N   0  0  0  0  0  0  0  0  0  0  0  0
  140.6160   75.4290  221.1260 N   0  0  0  0  0  0  0  0  0  0  0  0
  141.5470   74.5140  220.9200 C   0  0  0  0  0  0  0  0  0  0  0  0
  141.3910   73.2720  221.4790 C   0  0  0  0  0  0  0  0  0  0  0  0
  142.4010   72.3480  221.2290 C   0  0  0  0  0  0  0  0  0  0  0  0
  143.5070   72.6500  220.4620 C   0  0  0  0  0  0  0  0  0  0  0  0
  143.6270   73.8960  219.9220 C   0  0  0  0  0  0  0  0  0  0  0  0
  142.6490   74.8140  220.1560 C   0  0  0  0  0  0  0  0  0  0  0  0
  142.7130   76.0800  219.6410 C   0  0  0  0  0  0  0  0  0  0  0  0
  143.7110   76.3710  218.9410 O   0  0  0  0  0  0  0  0  0  0  0  0
  142.0050   79.4180  220.0630 C   0  0  0  0  0  0  0  0  0  0  0  0
  142.1990   80.6250  219.4230 C   0  0  0  0  0  0  0  0  0  0  0  0
  144.3220   81.6930  215.9330 H   0  0  0  0  0  0  0  0  0  0  0  0
  144.8190   82.0940  217.4810 H   0  0  0  0  0  0  0  0  0  0  0  0
  142.4198   79.6511  216.1723 H   0  0  0  0  0  0  0  0  0  0  0  0
  142.0713   77.4491  217.2605 H   0  0  0  0  0  0  0  0  0  0  0  0
  138.7820   77.6327  220.1791 H   0  0  0  0  0  0  0  0  0  0  0  0
  138.3090   78.0847  222.5361 H   0  0  0  0  0  0  0  0  0  0  0  0
  139.2073   80.9395  222.1421 H   0  0  0  0  0  0  0  0  0  0  0  0
  140.9031   82.3826  223.1845 H   0  0  0  0  0  0  0  0  0  0  0  0
  142.9225   81.4496  224.2982 H   0  0  0  0  0  0  0  0  0  0  0  0
  143.1785   78.9342  224.3185 H   0  0  0  0  0  0  0  0  0  0  0  0
  140.5138   73.0192  222.0927 H   0  0  0  0  0  0  0  0  0  0  0  0
  142.3142   71.3393  221.6590 H   0  0  0  0  0  0  0  0  0  0  0  0
  144.2851   71.8923  220.2877 H   0  0  0  0  0  0  0  0  0  0  0  0
  144.5008   74.1559  219.3064 H   0  0  0  0  0  0  0  0  0  0  0  0
  141.8903   79.3651  221.1557 H   0  0  0  0  0  0  0  0  0  0  0  0
  142.2368   81.5431  220.0277 H   0  0  0  0  0  0  0  0  0  0  0  0
  1  2  1  0
  2  3  2  0
  2  4  2  0
  2  5  1  0
  5  6  2  0
  6  7  1  0
  7  8  2  0
  8  9  1  0
  9 10  1  0
 10 11  1  0
 11 12  2  0
 12 13  1  0
 13 14  2  0
 14 15  1  0
 15 16  2  0
 16 17  1  0
 17 18  2  0
 10 19  2  0
 19 20  1  0
 20 21  2  0
 21 22  1  0
 22 23  2  0
 23 24  1  0
 24 25  2  0
 25 26  1  0
 26 27  2  0
  8 28  1  0
 28 29  2  0
 29  5  1  0
 26  9  1  0
 18 13  1  0
 25 20  1  0
  1 30  1  0
  1 31  1  0
  6 32  1  0
  7 33  1  0
 11 34  1  0
 12 35  1  0
 14 36  1  0
 15 37  1  0
 16 38  1  0
 17 39  1  0
 21 40  1  0
 22 41  1  0
 23 42  1  0
 24 43  1  0
 28 44  1  0
 29 45  1  0
M  END
>  <smiles>  (28) 
NS(=O)(=O)c1ccc(-n2c(/C=C/c3ccccn3)nc3ccccc3c2=O)cc1

>  <score_type>  (28) 
oracle

>  <origin>  (28) 
autodockgpu

>  <m_score__min__energy>  (28) 
-8.5600000000000005

>  <m_primary>  (28) 
energy

>  <rmsd>  (28) 
7.134646298995723

>  <m_score__min__rmsd>  (28) 
7.134646298995723

>  <meeko>  (28) 
{"free_energy": -7.29, "intermolecular_energy": -9.08, "internal_energy": -1.57, "cluster_size": 21, "cluster_id": 7, "rank_in_cluster": 8}

>  <energy>  (28) 
-7.39

>  <cluster_rmsd>  (28) 
0.18

>  <cluster>  (28) 
7

$$$$

     RDKit          3D

 45 48  0  0  0  0  0  0  0  0999 V2000
  146.0860   69.6340  217.4020 N   0  0  0  0  0  0  0  0  0  0  0  0
  146.0690   69.6070  219.1240 S   0  0  0  0  0  0  0  0  0  0  0  0
  145.7920   68.2130  219.6490 O   0  0  0  0  0  0  0  0  0  0  0  0
  147.3810   70.0350  219.7200 O   0  0  0  0  0  0  0  0  0  0  0  0
  144.8240   70.7060  219.7190 C   0  0  0  0  0  0  0  0  0  0  0  0
  143.4940   70.3110  219.6560 C   0  0  0  0  0  0  0  0  0  0  0  0
  142.5190   71.1720  220.1220 C   0  0  0  0  0  0  0  0  0  0  0  0
  142.8510   72.4300  220.6530 C   0  0  0  0  0  0  0  0  0  0  0  0
  141.8400   73.3280  221.0860 N   0  0  0  0  0  0  0  0  0  0  0  0
  140.9340   73.0690  222.0270 C   0  0  0  0  0  0  0  0  0  0  0  0
  140.7660   71.8810  222.7930 C   0  0  0  0  0  0  0  0  0  0  0  0
  139.8080   71.5160  223.5980 C   0  0  0  0  0  0  0  0  0  0  0  0
  140.0600   71.0990  224.9860 C   0  0  0  0  0  0  0  0  0  0  0  0
  139.5270   69.9450  225.5050 C   0  0  0  0  0  0  0  0  0  0  0  0
  139.8080   69.6230  226.8110 C   0  0  0  0  0  0  0  0  0  0  0  0
  140.6020   70.4030  227.6320 C   0  0  0  0  0  0  0  0  0  0  0  0
  141.1190   71.5640  227.0630 C   0  0  0  0  0  0  0  0  0  0  0  0
  140.8310   71.8580  225.7830 N   0  0  0  0  0  0  0  0  0  0  0  0
  140.0500   74.0850  222.2870 N   0  0  0  0  0  0  0  0  0  0  0  0
  140.0480   75.2590  221.6780 C   0  0  0  0  0  0  0  0  0  0  0  0
  139.1050   76.1880  222.0340 C   0  0  0  0  0  0  0  0  0  0  0  0
  139.1500   77.4050  221.3620 C   0  0  0  0  0  0  0  0  0  0  0  0
  140.0860   77.6790  220.3870 C   0  0  0  0  0  0  0  0  0  0  0  0
  141.0080   76.7290  220.0600 C   0  0  0  0  0  0  0  0  0  0  0  0
  140.9810   75.5310  220.7070 C   0  0  0  0  0  0  0  0  0  0  0  0
  141.8800   74.5390  220.4220 C   0  0  0  0  0  0  0  0  0  0  0  0
  142.7380   74.7700  219.5390 O   0  0  0  0  0  0  0  0  0  0  0  0
  144.1990   72.8270  220.7160 C   0  0  0  0  0  0  0  0  0  0  0  0
  145.1500   71.9450  220.2430 C   0  0  0  0  0  0  0  0  0  0  0  0
  145.3580   68.9600  217.0740 H   0  0  0  0  0  0  0  0  0  0  0  0
  147.0050   69.2550  217.1170 H   0  0  0  0  0  0  0  0  0  0  0  0
  143.2214   69.3290  219.2420 H   0  0  0  0  0  0  0  0  0  0  0  0
  141.4631   70.8670  220.0765 H   0  0  0  0  0  0  0  0  0  0  0  0
  141.5804   71.1490  222.6881 H   0  0  0  0  0  0  0  0  0  0  0  0
  138.7729   71.5199  223.2257 H   0  0  0  0  0  0  0  0  0  0  0  0
  138.8896   69.2932  224.8895 H   0  0  0  0  0  0  0  0  0  0  0  0
  139.3797   68.6980  227.2244 H   0  0  0  0  0  0  0  0  0  0  0  0
  140.8130   70.1224  228.6745 H   0  0  0  0  0  0  0  0  0  0  0  0
  141.7578   72.2351  227.6559 H   0  0  0  0  0  0  0  0  0  0  0  0
  138.3528   75.9820  222.8097 H   0  0  0  0  0  0  0  0  0  0  0  0
  138.4108   78.1784  221.6180 H   0  0  0  0  0  0  0  0  0  0  0  0
  140.0888   78.6542  219.8781 H   0  0  0  0  0  0  0  0  0  0  0  0
  141.7627   76.9275  219.2847 H   0  0  0  0  0  0  0  0  0  0  0  0
  144.4854   73.8060  221.1278 H   0  0  0  0  0  0  0  0  0  0  0  0
  146.2093   72.2387  220.2842 H   0  0  0  0  0  0  0  0  0  0  0  0
  1  2  1  0
  2  3  2  0
  2  4  2  0
  2  5  1  0
  5  6  2  0
  6  7  1  0
  7  8  2  0
  8  9  1  0
  9 10  1  0
 10 11  1  0
 11 12  2  0
 12 13  1  0
 13 14  2  0
 14 15  1  0
 15 16  2  0
 16 17  1  0
 17 18  2  0
 10 19  2  0
 19 20  1  0
 20 21  2  0
 21 22  1  0
 22 23  2  0
 23 24  1  0
 24 25  2  0
 25 26  1  0
 26 27  2  0
  8 28  1  0
 28 29  2  0
 29  5  1  0
 26  9  1  0
 18 13  1  0
 25 20  1  0
  1 30  1  0
  1 31  1  0
  6 32  1  0
  7 33  1  0
 11 34  1  0
 12 35  1  0
 14 36  1  0
 15 37  1  0
 16 38  1  0
 17 39  1  0
 21 40  1  0
 22 41  1  0
 23 42  1  0
 24 43  1  0
 28 44  1  0
 29 45  1  0
M  END
>  <smiles>  (29) 
NS(=O)(=O)c1ccc(-n2c(/C=C/c3ccccn3)nc3ccccc3c2=O)cc1

>  <score_type>  (29) 
oracle

>  <origin>  (29) 
autodockgpu

>  <m_score__min__energy>  (29) 
-8.5600000000000005

>  <m_primary>  (29) 
energy

>  <rmsd>  (29) 
5.990467614246292

>  <m_score__min__rmsd>  (29) 
5.990467614246292

>  <meeko>  (29) 
{"free_energy": -8.17, "intermolecular_energy": -9.96, "internal_energy": -0.93, "cluster_size": 13, "cluster_id": 1, "rank_in_cluster": 8}

>  <energy>  (29) 
-7.37

>  <cluster_rmsd>  (29) 
0.32

>  <cluster>  (29) 
7

$$$$

     RDKit          3D

 45 48  0  0  0  0  0  0  0  0999 V2000
  142.9470   76.8890  219.9150 N   0  0  0  0  0  0  0  0  0  0  0  0
  143.3950   75.2370  219.7190 S   0  0  0  0  0  0  0  0  0  0  0  0
  143.3840   74.8340  218.2580 O   0  0  0  0  0  0  0  0  0  0  0  0
  144.7790   74.9510  220.2320 O   0  0  0  0  0  0  0  0  0  0  0  0
  142.2680   74.2110  220.6090 C   0  0  0  0  0  0  0  0  0  0  0  0
  141.1630   74.7950  221.2140 C   0  0  0  0  0  0  0  0  0  0  0  0
  140.2820   73.9900  221.9110 C   0  0  0  0  0  0  0  0  0  0  0  0
  140.4860   72.6040  222.0160 C   0  0  0  0  0  0  0  0  0  0  0  0
  139.6010   71.7920  222.7730 N   0  0  0  0  0  0  0  0  0  0  0  0
  139.8330   71.3480  224.0070 C   0  0  0  0  0  0  0  0  0  0  0  0
  140.9730   71.5720  224.8300 C   0  0  0  0  0  0  0  0  0  0  0  0
  141.1090   71.5260  226.1260 C   0  0  0  0  0  0  0  0  0  0  0  0
  140.7630   70.3330  226.9140 C   0  0  0  0  0  0  0  0  0  0  0  0
  141.2940   69.0990  226.6310 C   0  0  0  0  0  0  0  0  0  0  0  0
  140.9230   68.0310  227.4130 C   0  0  0  0  0  0  0  0  0  0  0  0
  140.0400   68.1360  228.4720 C   0  0  0  0  0  0  0  0  0  0  0  0
  139.5280   69.4060  228.7210 C   0  0  0  0  0  0  0  0  0  0  0  0
  139.9060   70.4350  227.9430 N   0  0  0  0  0  0  0  0  0  0  0  0
  138.8380   70.5760  224.5500 N   0  0  0  0  0  0  0  0  0  0  0  0
  137.7090   70.2600  223.9400 C   0  0  0  0  0  0  0  0  0  0  0  0
  136.7960   69.4770  224.5980 C   0  0  0  0  0  0  0  0  0  0  0  0
  135.6260   69.1770  223.9090 C   0  0  0  0  0  0  0  0  0  0  0  0
  135.3810   69.6340  222.6310 C   0  0  0  0  0  0  0  0  0  0  0  0
  136.3130   70.4100  222.0080 C   0  0  0  0  0  0  0  0  0  0  0  0
  137.4650   70.7150  222.6670 C   0  0  0  0  0  0  0  0  0  0  0  0
  138.4370   71.4900  222.0940 C   0  0  0  0  0  0  0  0  0  0  0  0
  138.2310   71.9140  220.9330 O   0  0  0  0  0  0  0  0  0  0  0  0
  141.6070   72.0170  221.4020 C   0  0  0  0  0  0  0  0  0  0  0  0
  142.4690   72.8450  220.7130 C   0  0  0  0  0  0  0  0  0  0  0  0
  143.8130   77.4610  219.7980 H   0  0  0  0  0  0  0  0  0  0  0  0
  142.6410   76.9900  220.8970 H   0  0  0  0  0  0  0  0  0  0  0  0
  140.9919   75.8791  221.1398 H   0  0  0  0  0  0  0  0  0  0  0  0
  139.4035   74.4436  222.3932 H   0  0  0  0  0  0  0  0  0  0  0  0
  141.8919   71.8261  224.2813 H   0  0  0  0  0  0  0  0  0  0  0  0
  141.4969   72.4123  226.6495 H   0  0  0  0  0  0  0  0  0  0  0  0
  142.0000   68.9679  225.7977 H   0  0  0  0  0  0  0  0  0  0  0  0
  141.3500   67.0433  227.1849 H   0  0  0  0  0  0  0  0  0  0  0  0
  139.7583   67.2655  229.0827 H   0  0  0  0  0  0  0  0  0  0  0  0
  138.8200   69.5664  229.5474 H   0  0  0  0  0  0  0  0  0  0  0  0
  136.9793   69.1057  225.6171 H   0  0  0  0  0  0  0  0  0  0  0  0
  134.8672   68.5515  224.4019 H   0  0  0  0  0  0  0  0  0  0  0  0
  134.4425   69.3749  222.1191 H   0  0  0  0  0  0  0  0  0  0  0  0
  136.1371   70.7840  220.9886 H   0  0  0  0  0  0  0  0  0  0  0  0
  141.7902   70.9344  221.4689 H   0  0  0  0  0  0  0  0  0  0  0  0
  143.3510   72.4024  220.2270 H   0  0  0  0  0  0  0  0  0  0  0  0
  1  2  1  0
  2  3  2  0
  2  4  2  0
  2  5  1  0
  5  6  2  0
  6  7  1  0
  7  8  2  0
  8  9  1  0
  9 10  1  0
 10 11  1  0
 11 12  2  0
 12 13  1  0
 13 14  2  0
 14 15  1  0
 15 16  2  0
 16 17  1  0
 17 18  2  0
 10 19  2  0
 19 20  1  0
 20 21  2  0
 21 22  1  0
 22 23  2  0
 23 24  1  0
 24 25  2  0
 25 26  1  0
 26 27  2  0
  8 28  1  0
 28 29  2  0
 29  5  1  0
 26  9  1  0
 18 13  1  0
 25 20  1  0
  1 30  1  0
  1 31  1  0
  6 32  1  0
  7 33  1  0
 11 34  1  0
 12 35  1  0
 14 36  1  0
 15 37  1  0
 16 38  1  0
 17 39  1  0
 21 40  1  0
 22 41  1  0
 23 42  1  0
 24 43  1  0
 28 44  1  0
 29 45  1  0
M  END
>  <smiles>  (30) 
NS(=O)(=O)c1ccc(-n2c(/C=C/c3ccccn3)nc3ccccc3c2=O)cc1

>  <score_type>  (30) 
oracle

>  <origin>  (30) 
autodockgpu

>  <m_score__min__energy>  (30) 
-8.5600000000000005

>  <m_primary>  (30) 
energy

>  <rmsd>  (30) 
9.600236326635839

>  <m_score__min__rmsd>  (30) 
9.600236326635839

>  <meeko>  (30) 
{"free_energy": -7.53, "intermolecular_energy": -9.32, "internal_energy": -1.36, "cluster_size": 4, "cluster_id": 6, "rank_in_cluster": 2}

>  <energy>  (30) 
-7.35

>  <cluster_rmsd>  (30) 
0.51

>  <cluster>  (30) 
7

$$$$

     RDKit          3D

 45 48  0  0  0  0  0  0  0  0999 V2000
  146.4660   69.8290  217.8390 N   0  0  0  0  0  0  0  0  0  0  0  0
  145.3300   69.0710  218.8880 S   0  0  0  0  0  0  0  0  0  0  0  0
  144.5350   68.0070  218.1600 O   0  0  0  0  0  0  0  0  0  0  0  0
  145.9880   68.3910  220.0560 O   0  0  0  0  0  0  0  0  0  0  0  0
  144.2190   70.2840  219.5280 C   0  0  0  0  0  0  0  0  0  0  0  0
  144.7410   71.4170  220.1370 C   0  0  0  0  0  0  0  0  0  0  0  0
  143.8700   72.3660  220.6390 C   0  0  0  0  0  0  0  0  0  0  0  0
  142.4790   72.2030  220.5410 C   0  0  0  0  0  0  0  0  0  0  0  0
  141.5910   73.1590  221.1000 N   0  0  0  0  0  0  0  0  0  0  0  0
  140.5490   72.8770  221.8810 C   0  0  0  0  0  0  0  0  0  0  0  0
  140.0950   71.6030  222.3250 C   0  0  0  0  0  0  0  0  0  0  0  0
  139.3160   71.2770  223.3190 C   0  0  0  0  0  0  0  0  0  0  0  0
  139.8260   71.0590  224.6820 C   0  0  0  0  0  0  0  0  0  0  0  0
  140.7720   71.8790  225.2430 C   0  0  0  0  0  0  0  0  0  0  0  0
  141.1980   71.6110  226.5210 C   0  0  0  0  0  0  0  0  0  0  0  0
  140.7220   70.5530  227.2740 C   0  0  0  0  0  0  0  0  0  0  0  0
  139.7640   69.7480  226.6640 C   0  0  0  0  0  0  0  0  0  0  0  0
  139.3620   70.0310  225.4130 N   0  0  0  0  0  0  0  0  0  0  0  0
  139.8260   73.9600  222.3100 N   0  0  0  0  0  0  0  0  0  0  0  0
  140.0930   75.2170  222.0020 C   0  0  0  0  0  0  0  0  0  0  0  0
  139.2860   76.2070  222.4980 C   0  0  0  0  0  0  0  0  0  0  0  0
  139.6150   77.5120  222.1430 C   0  0  0  0  0  0  0  0  0  0  0  0
  140.6920   77.8100  221.3350 C   0  0  0  0  0  0  0  0  0  0  0  0
  141.4720   76.7980  220.8600 C   0  0  0  0  0  0  0  0  0  0  0  0
  141.1660   75.5140  221.1970 C   0  0  0  0  0  0  0  0  0  0  0  0
  141.9120   74.4570  220.7500 C   0  0  0  0  0  0  0  0  0  0  0  0
  142.8940   74.7090  220.0150 O   0  0  0  0  0  0  0  0  0  0  0  0
  141.9530   71.0530  219.9230 C   0  0  0  0  0  0  0  0  0  0  0  0
  142.8470   70.1230  219.4320 C   0  0  0  0  0  0  0  0  0  0  0  0
  146.0610   69.8070  216.8750 H   0  0  0  0  0  0  0  0  0  0  0  0
  147.3030   69.2220  217.8330 H   0  0  0  0  0  0  0  0  0  0  0  0
  145.8289   71.5573  220.2187 H   0  0  0  0  0  0  0  0  0  0  0  0
  144.2747   73.2662  221.1246 H   0  0  0  0  0  0  0  0  0  0  0  0
  140.4619   70.7526  221.7315 H   0  0  0  0  0  0  0  0  0  0  0  0
  138.2383   71.1608  223.1316 H   0  0  0  0  0  0  0  0  0  0  0  0
  141.1804   72.7323  224.6817 H   0  0  0  0  0  0  0  0  0  0  0  0
  141.9559   72.2711  226.9681 H   0  0  0  0  0  0  0  0  0  0  0  0
  141.0798   70.3589  228.2959 H   0  0  0  0  0  0  0  0  0  0  0  0
  139.3394   68.8872  227.2014 H   0  0  0  0  0  0  0  0  0  0  0  0
  138.4236   75.9823  223.1428 H   0  0  0  0  0  0  0  0  0  0  0  0
  138.9927   78.3364  222.5211 H   0  0  0  0  0  0  0  0  0  0  0  0
  140.9196   78.8546  221.0762 H   0  0  0  0  0  0  0  0  0  0  0  0
  142.3356   77.0149  220.2142 H   0  0  0  0  0  0  0  0  0  0  0  0
  140.8672   70.9007  219.8344 H   0  0  0  0  0  0  0  0  0  0  0  0
  142.4541   69.2182  218.9452 H   0  0  0  0  0  0  0  0  0  0  0  0
  1  2  1  0
  2  3  2  0
  2  4  2  0
  2  5  1  0
  5  6  2  0
  6  7  1  0
  7  8  2  0
  8  9  1  0
  9 10  1  0
 10 11  1  0
 11 12  2  0
 12 13  1  0
 13 14  2  0
 14 15  1  0
 15 16  2  0
 16 17  1  0
 17 18  2  0
 10 19  2  0
 19 20  1  0
 20 21  2  0
 21 22  1  0
 22 23  2  0
 23 24  1  0
 24 25  2  0
 25 26  1  0
 26 27  2  0
  8 28  1  0
 28 29  2  0
 29  5  1  0
 26  9  1  0
 18 13  1  0
 25 20  1  0
  1 30  1  0
  1 31  1  0
  6 32  1  0
  7 33  1  0
 11 34  1  0
 12 35  1  0
 14 36  1  0
 15 37  1  0
 16 38  1  0
 17 39  1  0
 21 40  1  0
 22 41  1  0
 23 42  1  0
 24 43  1  0
 28 44  1  0
 29 45  1  0
M  END
>  <smiles>  (31) 
NS(=O)(=O)c1ccc(-n2c(/C=C/c3ccccn3)nc3ccccc3c2=O)cc1

>  <score_type>  (31) 
oracle

>  <origin>  (31) 
autodockgpu

>  <m_score__min__energy>  (31) 
-8.5600000000000005

>  <m_primary>  (31) 
energy

>  <rmsd>  (31) 
5.755425164271908

>  <m_score__min__rmsd>  (31) 
5.755425164271908

>  <meeko>  (31) 
{"free_energy": -8.14, "intermolecular_energy": -9.93, "internal_energy": -0.92, "cluster_size": 13, "cluster_id": 1, "rank_in_cluster": 9}

>  <energy>  (31) 
-7.29

>  <cluster_rmsd>  (31) 
0.5

>  <cluster>  (31) 
7

$$$$

     RDKit          3D

 45 48  0  0  0  0  0  0  0  0999 V2000
  146.4380   69.9730  218.0890 N   0  0  0  0  0  0  0  0  0  0  0  0
  145.1330   69.2540  218.9530 S   0  0  0  0  0  0  0  0  0  0  0  0
  144.3030   68.3620  218.0530 O   0  0  0  0  0  0  0  0  0  0  0  0
  145.6020   68.3950  220.0940 O   0  0  0  0  0  0  0  0  0  0  0  0
  144.1010   70.5190  219.6220 C   0  0  0  0  0  0  0  0  0  0  0  0
  142.7240   70.4090  219.4790 C   0  0  0  0  0  0  0  0  0  0  0  0
  141.9170   71.4000  220.0030 C   0  0  0  0  0  0  0  0  0  0  0  0
  142.4630   72.5080  220.6720 C   0  0  0  0  0  0  0  0  0  0  0  0
  141.6300   73.5460  221.1670 N   0  0  0  0  0  0  0  0  0  0  0  0
  140.6010   73.3760  221.9950 C   0  0  0  0  0  0  0  0  0  0  0  0
  140.1110   72.1650  222.5630 C   0  0  0  0  0  0  0  0  0  0  0  0
  140.7290   71.2190  223.2120 C   0  0  0  0  0  0  0  0  0  0  0  0
  140.5480   71.0060  224.6570 C   0  0  0  0  0  0  0  0  0  0  0  0
  141.0750   71.8660  225.5880 C   0  0  0  0  0  0  0  0  0  0  0  0
  140.8630   71.6000  226.9190 C   0  0  0  0  0  0  0  0  0  0  0  0
  140.1440   70.5080  227.3710 C   0  0  0  0  0  0  0  0  0  0  0  0
  139.6300   69.6640  226.3900 C   0  0  0  0  0  0  0  0  0  0  0  0
  139.8500   69.9450  225.0940 N   0  0  0  0  0  0  0  0  0  0  0  0
  139.9330   74.5210  222.3450 N   0  0  0  0  0  0  0  0  0  0  0  0
  140.2410   75.7350  221.9200 C   0  0  0  0  0  0  0  0  0  0  0  0
  139.4870   76.7970  222.3470 C   0  0  0  0  0  0  0  0  0  0  0  0
  139.8560   78.0510  221.8700 C   0  0  0  0  0  0  0  0  0  0  0  0
  140.9200   78.2320  221.0110 C   0  0  0  0  0  0  0  0  0  0  0  0
  141.6460   77.1510  220.6080 C   0  0  0  0  0  0  0  0  0  0  0  0
  141.3010   75.9160  221.0650 C   0  0  0  0  0  0  0  0  0  0  0  0
  141.9910   74.7930  220.6950 C   0  0  0  0  0  0  0  0  0  0  0  0
  142.9610   74.9390  219.9160 O   0  0  0  0  0  0  0  0  0  0  0  0
  143.8590   72.6170  220.8160 C   0  0  0  0  0  0  0  0  0  0  0  0
  144.6390   71.6110  220.2820 C   0  0  0  0  0  0  0  0  0  0  0  0
  146.0650   70.2780  217.1620 H   0  0  0  0  0  0  0  0  0  0  0  0
  147.1190   69.2150  217.9120 H   0  0  0  0  0  0  0  0  0  0  0  0
  142.2832   69.5469  218.9570 H   0  0  0  0  0  0  0  0  0  0  0  0
  140.8253   71.3200  219.8943 H   0  0  0  0  0  0  0  0  0  0  0  0
  139.0312   72.0012  222.4319 H   0  0  0  0  0  0  0  0  0  0  0  0
  141.4108   70.5555  222.6598 H   0  0  0  0  0  0  0  0  0  0  0  0
  141.6537   72.7478  225.2756 H   0  0  0  0  0  0  0  0  0  0  0  0
  141.2865   72.2905  227.6632 H   0  0  0  0  0  0  0  0  0  0  0  0
  139.9874   70.3175  228.4430 H   0  0  0  0  0  0  0  0  0  0  0  0
  139.0485   68.7743  226.6733 H   0  0  0  0  0  0  0  0  0  0  0  0
  138.6353   76.6650  223.0305 H   0  0  0  0  0  0  0  0  0  0  0  0
  139.2779   78.9305  222.1897 H   0  0  0  0  0  0  0  0  0  0  0  0
  141.1803   79.2395  220.6544 H   0  0  0  0  0  0  0  0  0  0  0  0
  142.4982   77.2748  219.9235 H   0  0  0  0  0  0  0  0  0  0  0  0
  144.3125   73.4738  221.3358 H   0  0  0  0  0  0  0  0  0  0  0  0
  145.7320   71.6796  220.3849 H   0  0  0  0  0  0  0  0  0  0  0  0
  1  2  1  0
  2  3  2  0
  2  4  2  0
  2  5  1  0
  5  6  2  0
  6  7  1  0
  7  8  2  0
  8  9  1  0
  9 10  1  0
 10 11  1  0
 11 12  2  0
 12 13  1  0
 13 14  2  0
 14 15  1  0
 15 16  2  0
 16 17  1  0
 17 18  2  0
 10 19  2  0
 19 20  1  0
 20 21  2  0
 21 22  1  0
 22 23  2  0
 23 24  1  0
 24 25  2  0
 25 26  1  0
 26 27  2  0
  8 28  1  0
 28 29  2  0
 29  5  1  0
 26  9  1  0
 18 13  1  0
 25 20  1  0
  1 30  1  0
  1 31  1  0
  6 32  1  0
  7 33  1  0
 11 34  1  0
 12 35  1  0
 14 36  1  0
 15 37  1  0
 16 38  1  0
 17 39  1  0
 21 40  1  0
 22 41  1  0
 23 42  1  0
 24 43  1  0
 28 44  1  0
 29 45  1  0
M  END
>  <smiles>  (32) 
NS(=O)(=O)c1ccc(-n2c(/C=C/c3ccccn3)nc3ccccc3c2=O)cc1

>  <score_type>  (32) 
oracle

>  <origin>  (32) 
autodockgpu

>  <m_score__min__energy>  (32) 
-8.5600000000000005

>  <m_primary>  (32) 
energy

>  <rmsd>  (32) 
5.620817121258076

>  <m_score__min__rmsd>  (32) 
5.620817121258076

>  <meeko>  (32) 
{"free_energy": -8.02, "intermolecular_energy": -9.81, "internal_energy": -0.98, "cluster_size": 13, "cluster_id": 1, "rank_in_cluster": 10}

>  <energy>  (32) 
-7.28

>  <cluster_rmsd>  (32) 
0.28

>  <cluster>  (32) 
7

$$$$

     RDKit          3D

 45 48  0  0  0  0  0  0  0  0999 V2000
  144.0930   82.3810  216.6930 N   0  0  0  0  0  0  0  0  0  0  0  0
  142.4890   82.2440  217.3050 S   0  0  0  0  0  0  0  0  0  0  0  0
  142.2050   83.3070  218.3470 O   0  0  0  0  0  0  0  0  0  0  0  0
  141.4470   82.4060  216.2330 O   0  0  0  0  0  0  0  0  0  0  0  0
  142.2700   80.6510  218.0310 C   0  0  0  0  0  0  0  0  0  0  0  0
  142.2160   80.5450  219.4150 C   0  0  0  0  0  0  0  0  0  0  0  0
  142.0450   79.2970  219.9820 C   0  0  0  0  0  0  0  0  0  0  0  0
  141.9240   78.1440  219.1880 C   0  0  0  0  0  0  0  0  0  0  0  0
  141.7960   76.8610  219.7800 N   0  0  0  0  0  0  0  0  0  0  0  0
  140.8260   76.4940  220.6150 C   0  0  0  0  0  0  0  0  0  0  0  0
  139.7300   77.2660  221.0940 C   0  0  0  0  0  0  0  0  0  0  0  0
  139.5280   77.8290  222.2530 C   0  0  0  0  0  0  0  0  0  0  0  0
  140.3970   78.8970  222.7720 C   0  0  0  0  0  0  0  0  0  0  0  0
  141.5950   78.6240  223.3840 C   0  0  0  0  0  0  0  0  0  0  0  0
  142.3510   79.6750  223.8430 C   0  0  0  0  0  0  0  0  0  0  0  0
  141.9670   80.9980  223.7200 C   0  0  0  0  0  0  0  0  0  0  0  0
  140.7440   81.2260  223.0940 C   0  0  0  0  0  0  0  0  0  0  0  0
  140.0230   80.1820  222.6520 N   0  0  0  0  0  0  0  0  0  0  0  0
  140.8970   75.2000  221.0670 N   0  0  0  0  0  0  0  0  0  0  0  0
  141.8390   74.3350  220.7340 C   0  0  0  0  0  0  0  0  0  0  0  0
  141.7930   73.0700  221.2600 C   0  0  0  0  0  0  0  0  0  0  0  0
  142.8090   72.2010  220.8750 C   0  0  0  0  0  0  0  0  0  0  0  0
  143.8170   72.5760  220.0110 C   0  0  0  0  0  0  0  0  0  0  0  0
  143.8290   73.8430  219.5080 C   0  0  0  0  0  0  0  0  0  0  0  0
  142.8430   74.7090  219.8730 C   0  0  0  0  0  0  0  0  0  0  0  0
  142.8020   75.9930  219.4010 C   0  0  0  0  0  0  0  0  0  0  0  0
  143.7090   76.3500  218.6150 O   0  0  0  0  0  0  0  0  0  0  0  0
  141.9790   78.2550  217.7860 C   0  0  0  0  0  0  0  0  0  0  0  0
  142.1520   79.5150  217.2490 C   0  0  0  0  0  0  0  0  0  0  0  0
  144.1920   81.6810  215.9230 H   0  0  0  0  0  0  0  0  0  0  0  0
  144.7210   82.0850  217.4590 H   0  0  0  0  0  0  0  0  0  0  0  0
  142.3078   81.4395  220.0486 H   0  0  0  0  0  0  0  0  0  0  0  0
  142.0027   79.2039  221.0772 H   0  0  0  0  0  0  0  0  0  0  0  0
  138.9187   77.4119  220.3656 H   0  0  0  0  0  0  0  0  0  0  0  0
  138.6774   77.4934  222.8645 H   0  0  0  0  0  0  0  0  0  0  0  0
  141.9418   77.5870  223.5041 H   0  0  0  0  0  0  0  0  0  0  0  0
  143.3104   79.4532  224.3332 H   0  0  0  0  0  0  0  0  0  0  0  0
  142.5914   81.8224  224.0949 H   0  0  0  0  0  0  0  0  0  0  0  0
  140.3713   82.2526  222.9625 H   0  0  0  0  0  0  0  0  0  0  0  0
  140.9950   72.7584  221.9500 H   0  0  0  0  0  0  0  0  0  0  0  0
  142.8085   71.1762  221.2746 H   0  0  0  0  0  0  0  0  0  0  0  0
  144.6033   71.8597  219.7307 H   0  0  0  0  0  0  0  0  0  0  0  0
  144.6236   74.1615  218.8172 H   0  0  0  0  0  0  0  0  0  0  0  0
  141.8874   77.3688  217.1408 H   0  0  0  0  0  0  0  0  0  0  0  0
  142.1979   79.6205  216.1550 H   0  0  0  0  0  0  0  0  0  0  0  0
  1  2  1  0
  2  3  2  0
  2  4  2  0
  2  5  1  0
  5  6  2  0
  6  7  1  0
  7  8  2  0
  8  9  1  0
  9 10  1  0
 10 11  1  0
 11 12  2  0
 12 13  1  0
 13 14  2  0
 14 15  1  0
 15 16  2  0
 16 17  1  0
 17 18  2  0
 10 19  2  0
 19 20  1  0
 20 21  2  0
 21 22  1  0
 22 23  2  0
 23 24  1  0
 24 25  2  0
 25 26  1  0
 26 27  2  0
  8 28  1  0
 28 29  2  0
 29  5  1  0
 26  9  1  0
 18 13  1  0
 25 20  1  0
  1 30  1  0
  1 31  1  0
  6 32  1  0
  7 33  1  0
 11 34  1  0
 12 35  1  0
 14 36  1  0
 15 37  1  0
 16 38  1  0
 17 39  1  0
 21 40  1  0
 22 41  1  0
 23 42  1  0
 24 43  1  0
 28 44  1  0
 29 45  1  0
M  END
>  <smiles>  (33) 
NS(=O)(=O)c1ccc(-n2c(/C=C/c3ccccn3)nc3ccccc3c2=O)cc1

>  <score_type>  (33) 
oracle

>  <origin>  (33) 
autodockgpu

>  <m_score__min__energy>  (33) 
-8.5600000000000005

>  <m_primary>  (33) 
energy

>  <rmsd>  (33) 
7.203725056891483

>  <m_score__min__rmsd>  (33) 
7.203725056891483

>  <meeko>  (33) 
{"free_energy": -7.37, "intermolecular_energy": -9.16, "internal_energy": -1.53, "cluster_size": 21, "cluster_id": 7, "rank_in_cluster": 6}

>  <energy>  (33) 
-7.27

>  <cluster_rmsd>  (33) 
0.36

>  <cluster>  (33) 
7

$$$$

     RDKit          3D

 45 48  0  0  0  0  0  0  0  0999 V2000
  142.5880   81.1820  215.8140 N   0  0  0  0  0  0  0  0  0  0  0  0
  141.9090   81.5960  217.3430 S   0  0  0  0  0  0  0  0  0  0  0  0
  142.8450   82.4840  218.1370 O   0  0  0  0  0  0  0  0  0  0  0  0
  140.6130   82.3470  217.2130 O   0  0  0  0  0  0  0  0  0  0  0  0
  141.5880   80.1250  218.2630 C   0  0  0  0  0  0  0  0  0  0  0  0
  142.0960   80.0150  219.5510 C   0  0  0  0  0  0  0  0  0  0  0  0
  141.8450   78.8620  220.2700 C   0  0  0  0  0  0  0  0  0  0  0  0
  141.0890   77.8120  219.7240 C   0  0  0  0  0  0  0  0  0  0  0  0
  140.8740   76.6120  220.4530 N   0  0  0  0  0  0  0  0  0  0  0  0
  139.9480   76.4400  221.3940 C   0  0  0  0  0  0  0  0  0  0  0  0
  138.9890   77.3760  221.8750 C   0  0  0  0  0  0  0  0  0  0  0  0
  139.0550   78.2340  222.8540 C   0  0  0  0  0  0  0  0  0  0  0  0
  140.2210   79.1080  223.0600 C   0  0  0  0  0  0  0  0  0  0  0  0
  140.1140   80.4760  223.0490 C   0  0  0  0  0  0  0  0  0  0  0  0
  141.2490   81.2240  223.2490 C   0  0  0  0  0  0  0  0  0  0  0  0
  142.4980   80.6690  223.4600 C   0  0  0  0  0  0  0  0  0  0  0  0
  142.5580   79.2780  223.4610 C   0  0  0  0  0  0  0  0  0  0  0  0
  141.4340   78.5670  223.2650 N   0  0  0  0  0  0  0  0  0  0  0  0
  139.9190   75.1950  221.9680 N   0  0  0  0  0  0  0  0  0  0  0  0
  140.7280   74.1980  221.6540 C   0  0  0  0  0  0  0  0  0  0  0  0
  140.5910   73.0020  222.3090 C   0  0  0  0  0  0  0  0  0  0  0  0
  141.4680   71.9880  221.9370 C   0  0  0  0  0  0  0  0  0  0  0  0
  142.4300   72.1610  220.9640 C   0  0  0  0  0  0  0  0  0  0  0  0
  142.5350   73.3660  220.3340 C   0  0  0  0  0  0  0  0  0  0  0  0
  141.6860   74.3710  220.6840 C   0  0  0  0  0  0  0  0  0  0  0  0
  141.7430   75.6010  220.0880 C   0  0  0  0  0  0  0  0  0  0  0  0
  142.6100   75.7760  219.2010 O   0  0  0  0  0  0  0  0  0  0  0  0
  140.5750   77.9280  218.4200 C   0  0  0  0  0  0  0  0  0  0  0  0
  140.8430   79.0900  217.7250 C   0  0  0  0  0  0  0  0  0  0  0  0
  142.7220   80.1450  215.8060 H   0  0  0  0  0  0  0  0  0  0  0  0
  143.5270   81.6130  215.7900 H   0  0  0  0  0  0  0  0  0  0  0  0
  142.6877   80.8313  219.9909 H   0  0  0  0  0  0  0  0  0  0  0  0
  142.2452   78.7647  221.2900 H   0  0  0  0  0  0  0  0  0  0  0  0
  138.0336   77.3749  221.3298 H   0  0  0  0  0  0  0  0  0  0  0  0
  138.2080   78.3075  223.5520 H   0  0  0  0  0  0  0  0  0  0  0  0
  139.1415   80.9628  222.8838 H   0  0  0  0  0  0  0  0  0  0  0  0
  141.1597   82.3203  223.2409 H   0  0  0  0  0  0  0  0  0  0  0  0
  143.3919   81.2903  223.6179 H   0  0  0  0  0  0  0  0  0  0  0  0
  143.5177   78.7647  223.6209 H   0  0  0  0  0  0  0  0  0  0  0  0
  139.8284   72.8518  223.0873 H   0  0  0  0  0  0  0  0  0  0  0  0
  141.3912   71.0116  222.4378 H   0  0  0  0  0  0  0  0  0  0  0  0
  143.1061   71.3349  220.6986 H   0  0  0  0  0  0  0  0  0  0  0  0
  143.2947   73.5236  219.5543 H   0  0  0  0  0  0  0  0  0  0  0  0
  139.9797   77.1202  217.9694 H   0  0  0  0  0  0  0  0  0  0  0  0
  140.4491   79.1977  216.7036 H   0  0  0  0  0  0  0  0  0  0  0  0
  1  2  1  0
  2  3  2  0
  2  4  2  0
  2  5  1  0
  5  6  2  0
  6  7  1  0
  7  8  2  0
  8  9  1  0
  9 10  1  0
 10 11  1  0
 11 12  2  0
 12 13  1  0
 13 14  2  0
 14 15  1  0
 15 16  2  0
 16 17  1  0
 17 18  2  0
 10 19  2  0
 19 20  1  0
 20 21  2  0
 21 22  1  0
 22 23  2  0
 23 24  1  0
 24 25  2  0
 25 26  1  0
 26 27  2  0
  8 28  1  0
 28 29  2  0
 29  5  1  0
 26  9  1  0
 18 13  1  0
 25 20  1  0
  1 30  1  0
  1 31  1  0
  6 32  1  0
  7 33  1  0
 11 34  1  0
 12 35  1  0
 14 36  1  0
 15 37  1  0
 16 38  1  0
 17 39  1  0
 21 40  1  0
 22 41  1  0
 23 42  1  0
 24 43  1  0
 28 44  1  0
 29 45  1  0
M  END
>  <smiles>  (34) 
NS(=O)(=O)c1ccc(-n2c(/C=C/c3ccccn3)nc3ccccc3c2=O)cc1

>  <score_type>  (34) 
oracle

>  <origin>  (34) 
autodockgpu

>  <m_score__min__energy>  (34) 
-8.5600000000000005

>  <m_primary>  (34) 
energy

>  <rmsd>  (34) 
6.972703962956829

>  <m_score__min__rmsd>  (34) 
6.972703962956829

>  <meeko>  (34) 
{"free_energy": -6.8, "intermolecular_energy": -8.59, "internal_energy": -1.8, "cluster_size": 21, "cluster_id": 7, "rank_in_cluster": 21}

>  <energy>  (34) 
-7.15

>  <cluster_rmsd>  (34) 
0.34

>  <cluster>  (34) 
7

$$$$

     RDKit          3D

 45 48  0  0  0  0  0  0  0  0999 V2000
  133.9390   67.0120  227.2190 N   0  0  0  0  0  0  0  0  0  0  0  0
  133.2660   67.7540  225.8190 S   0  0  0  0  0  0  0  0  0  0  0  0
  134.0280   67.3630  224.5690 O   0  0  0  0  0  0  0  0  0  0  0  0
  131.8340   67.3580  225.5890 O   0  0  0  0  0  0  0  0  0  0  0  0
  133.3160   69.5090  226.0000 C   0  0  0  0  0  0  0  0  0  0  0  0
  132.4000   70.2830  225.2990 C   0  0  0  0  0  0  0  0  0  0  0  0
  132.4410   71.6560  225.4420 C   0  0  0  0  0  0  0  0  0  0  0  0
  133.3850   72.2760  226.2780 C   0  0  0  0  0  0  0  0  0  0  0  0
  133.4500   73.6900  226.3830 N   0  0  0  0  0  0  0  0  0  0  0  0
  134.3100   74.4700  225.7310 C   0  0  0  0  0  0  0  0  0  0  0  0
  135.3270   74.0900  224.8090 C   0  0  0  0  0  0  0  0  0  0  0  0
  135.2620   73.3920  223.7100 C   0  0  0  0  0  0  0  0  0  0  0  0
  135.6460   71.9730  223.6530 C   0  0  0  0  0  0  0  0  0  0  0  0
  134.8610   71.0330  223.0340 C   0  0  0  0  0  0  0  0  0  0  0  0
  135.2880   69.7270  223.0220 C   0  0  0  0  0  0  0  0  0  0  0  0
  136.4710   69.3090  223.6040 C   0  0  0  0  0  0  0  0  0  0  0  0
  137.2340   70.2980  224.2210 C   0  0  0  0  0  0  0  0  0  0  0  0
  136.7960   71.5690  224.2190 N   0  0  0  0  0  0  0  0  0  0  0  0
  134.1940   75.8130  225.9840 N   0  0  0  0  0  0  0  0  0  0  0  0
  133.3120   76.3530  226.8070 C   0  0  0  0  0  0  0  0  0  0  0  0
  133.3040   77.7140  226.9700 C   0  0  0  0  0  0  0  0  0  0  0  0
  132.3550   78.2280  227.8470 C   0  0  0  0  0  0  0  0  0  0  0  0
  131.4620   77.4250  228.5260 C   0  0  0  0  0  0  0  0  0  0  0  0
  131.5010   76.0750  228.3380 C   0  0  0  0  0  0  0  0  0  0  0  0
  132.4230   75.5530  227.4830 C   0  0  0  0  0  0  0  0  0  0  0  0
  132.5100   74.2060  227.2540 C   0  0  0  0  0  0  0  0  0  0  0  0
  131.7060   73.4620  227.8610 O   0  0  0  0  0  0  0  0  0  0  0  0
  134.3110   71.4880  226.9870 C   0  0  0  0  0  0  0  0  0  0  0  0
  134.2460   70.1190  226.8240 C   0  0  0  0  0  0  0  0  0  0  0  0
  134.5290   66.2130  226.8930 H   0  0  0  0  0  0  0  0  0  0  0  0
  133.1430   66.6110  227.7440 H   0  0  0  0  0  0  0  0  0  0  0  0
  131.6552   69.8107  224.6416 H   0  0  0  0  0  0  0  0  0  0  0  0
  131.7199   72.2769  224.8902 H   0  0  0  0  0  0  0  0  0  0  0  0
  136.3356   74.4447  225.0675 H   0  0  0  0  0  0  0  0  0  0  0  0
  134.9069   73.8820  222.7914 H   0  0  0  0  0  0  0  0  0  0  0  0
  133.9113   71.3185  222.5581 H   0  0  0  0  0  0  0  0  0  0  0  0
  134.6570   68.9759  222.5243 H   0  0  0  0  0  0  0  0  0  0  0  0
  136.7909   68.2568  223.5811 H   0  0  0  0  0  0  0  0  0  0  0  0
  138.1873   70.0409  224.7059 H   0  0  0  0  0  0  0  0  0  0  0  0
  134.0110   78.3653  226.4353 H   0  0  0  0  0  0  0  0  0  0  0  0
  132.3148   79.3158  228.0053 H   0  0  0  0  0  0  0  0  0  0  0  0
  130.7259   77.8693  229.2121 H   0  0  0  0  0  0  0  0  0  0  0  0
  130.7976   75.4171  228.8695 H   0  0  0  0  0  0  0  0  0  0  0  0
  135.0606   71.9474  227.6481 H   0  0  0  0  0  0  0  0  0  0  0  0
  134.9618   69.4875  227.3707 H   0  0  0  0  0  0  0  0  0  0  0  0
  1  2  1  0
  2  3  2  0
  2  4  2  0
  2  5  1  0
  5  6  2  0
  6  7  1  0
  7  8  2  0
  8  9  1  0
  9 10  1  0
 10 11  1  0
 11 12  2  0
 12 13  1  0
 13 14  2  0
 14 15  1  0
 15 16  2  0
 16 17  1  0
 17 18  2  0
 10 19  2  0
 19 20  1  0
 20 21  2  0
 21 22  1  0
 22 23  2  0
 23 24  1  0
 24 25  2  0
 25 26  1  0
 26 27  2  0
  8 28  1  0
 28 29  2  0
 29  5  1  0
 26  9  1  0
 18 13  1  0
 25 20  1  0
  1 30  1  0
  1 31  1  0
  6 32  1  0
  7 33  1  0
 11 34  1  0
 12 35  1  0
 14 36  1  0
 15 37  1  0
 16 38  1  0
 17 39  1  0
 21 40  1  0
 22 41  1  0
 23 42  1  0
 24 43  1  0
 28 44  1  0
 29 45  1  0
M  END
>  <smiles>  (35) 
NS(=O)(=O)c1ccc(-n2c(/C=C/c3ccccn3)nc3ccccc3c2=O)cc1

>  <score_type>  (35) 
oracle

>  <origin>  (35) 
autodockgpu

>  <m_score__min__energy>  (35) 
-8.5600000000000005

>  <m_primary>  (35) 
energy

>  <rmsd>  (35) 
11.670486144583963

>  <m_score__min__rmsd>  (35) 
11.670486144583963

>  <meeko>  (35) 
{"free_energy": -6.32, "intermolecular_energy": -8.11, "internal_energy": -2.14, "cluster_size": 1, "cluster_id": 10, "rank_in_cluster": 1}

>  <energy>  (35) 
-7.14

>  <cluster_rmsd>  (35) 
0.92

>  <cluster>  (35) 
7

$$$$

     RDKit          3D

 45 48  0  0  0  0  0  0  0  0999 V2000
  146.2550   69.9080  217.9560 N   0  0  0  0  0  0  0  0  0  0  0  0
  145.0220   69.2180  218.9420 S   0  0  0  0  0  0  0  0  0  0  0  0
  144.1530   68.2650  218.1470 O   0  0  0  0  0  0  0  0  0  0  0  0
  145.5800   68.4310  220.0950 O   0  0  0  0  0  0  0  0  0  0  0  0
  144.0120   70.5020  219.6070 C   0  0  0  0  0  0  0  0  0  0  0  0
  142.6370   70.4400  219.4200 C   0  0  0  0  0  0  0  0  0  0  0  0
  141.8470   71.4470  219.9400 C   0  0  0  0  0  0  0  0  0  0  0  0
  142.4070   72.5210  220.6510 C   0  0  0  0  0  0  0  0  0  0  0  0
  141.5930   73.5750  221.1420 N   0  0  0  0  0  0  0  0  0  0  0  0
  140.5720   73.4280  221.9850 C   0  0  0  0  0  0  0  0  0  0  0  0
  140.0730   72.2310  222.5720 C   0  0  0  0  0  0  0  0  0  0  0  0
  140.6890   71.2780  223.2150 C   0  0  0  0  0  0  0  0  0  0  0  0
  140.4670   71.0210  224.6460 C   0  0  0  0  0  0  0  0  0  0  0  0
  140.9800   71.8410  225.6190 C   0  0  0  0  0  0  0  0  0  0  0  0
  140.7290   71.5350  226.9350 C   0  0  0  0  0  0  0  0  0  0  0  0
  139.9840   70.4390  227.3310 C   0  0  0  0  0  0  0  0  0  0  0  0
  139.4840   69.6360  226.3090 C   0  0  0  0  0  0  0  0  0  0  0  0
  139.7420   69.9560  225.0300 N   0  0  0  0  0  0  0  0  0  0  0  0
  139.9230   74.5860  222.3280 N   0  0  0  0  0  0  0  0  0  0  0  0
  140.2400   75.7900  221.8850 C   0  0  0  0  0  0  0  0  0  0  0  0
  139.5050   76.8670  222.3080 C   0  0  0  0  0  0  0  0  0  0  0  0
  139.8840   78.1100  221.8110 C   0  0  0  0  0  0  0  0  0  0  0  0
  140.9400   78.2680  220.9380 C   0  0  0  0  0  0  0  0  0  0  0  0
  141.6470   77.1730  220.5390 C   0  0  0  0  0  0  0  0  0  0  0  0
  141.2920   75.9480  221.0150 C   0  0  0  0  0  0  0  0  0  0  0  0
  141.9640   74.8120  220.6510 C   0  0  0  0  0  0  0  0  0  0  0  0
  142.9260   74.9370  219.8590 O   0  0  0  0  0  0  0  0  0  0  0  0
  143.8000   72.5810  220.8390 C   0  0  0  0  0  0  0  0  0  0  0  0
  144.5640   71.5620  220.3070 C   0  0  0  0  0  0  0  0  0  0  0  0
  145.9090   69.8930  216.9710 H   0  0  0  0  0  0  0  0  0  0  0  0
  147.0610   69.2630  218.0080 H   0  0  0  0  0  0  0  0  0  0  0  0
  142.1848   69.6033  218.8673 H   0  0  0  0  0  0  0  0  0  0  0  0
  140.7574   71.4068  219.7943 H   0  0  0  0  0  0  0  0  0  0  0  0
  138.9878   72.0857  222.4657 H   0  0  0  0  0  0  0  0  0  0  0  0
  141.4007   70.6431  222.6669 H   0  0  0  0  0  0  0  0  0  0  0  0
  141.5790   72.7240  225.3516 H   0  0  0  0  0  0  0  0  0  0  0  0
  141.1413   72.1949  227.7125 H   0  0  0  0  0  0  0  0  0  0  0  0
  139.7973   70.2147  228.3916 H   0  0  0  0  0  0  0  0  0  0  0  0
  138.8824   68.7464  226.5472 H   0  0  0  0  0  0  0  0  0  0  0  0
  138.6603   76.7544  223.0035 H   0  0  0  0  0  0  0  0  0  0  0  0
  139.3202   79.0003  222.1262 H   0  0  0  0  0  0  0  0  0  0  0  0
  141.2091   79.2681  220.5673 H   0  0  0  0  0  0  0  0  0  0  0  0
  142.4920   77.2777  219.8426 H   0  0  0  0  0  0  0  0  0  0  0  0
  144.2643   73.4115  221.3910 H   0  0  0  0  0  0  0  0  0  0  0  0
  145.6549   71.5930  220.4445 H   0  0  0  0  0  0  0  0  0  0  0  0
  1  2  1  0
  2  3  2  0
  2  4  2  0
  2  5  1  0
  5  6  2  0
  6  7  1  0
  7  8  2  0
  8  9  1  0
  9 10  1  0
 10 11  1  0
 11 12  2  0
 12 13  1  0
 13 14  2  0
 14 15  1  0
 15 16  2  0
 16 17  1  0
 17 18  2  0
 10 19  2  0
 19 20  1  0
 20 21  2  0
 21 22  1  0
 22 23  2  0
 23 24  1  0
 24 25  2  0
 25 26  1  0
 26 27  2  0
  8 28  1  0
 28 29  2  0
 29  5  1  0
 26  9  1  0
 18 13  1  0
 25 20  1  0
  1 30  1  0
  1 31  1  0
  6 32  1  0
  7 33  1  0
 11 34  1  0
 12 35  1  0
 14 36  1  0
 15 37  1  0
 16 38  1  0
 17 39  1  0
 21 40  1  0
 22 41  1  0
 23 42  1  0
 24 43  1  0
 28 44  1  0
 29 45  1  0
M  END
>  <smiles>  (36) 
NS(=O)(=O)c1ccc(-n2c(/C=C/c3ccccn3)nc3ccccc3c2=O)cc1

>  <score_type>  (36) 
oracle

>  <origin>  (36) 
autodockgpu

>  <m_score__min__energy>  (36) 
-8.5600000000000005

>  <m_primary>  (36) 
energy

>  <rmsd>  (36) 
5.574449470966702

>  <m_score__min__rmsd>  (36) 
5.574449470966702

>  <meeko>  (36) 
{"free_energy": -7.99, "intermolecular_energy": -9.78, "internal_energy": -1.04, "cluster_size": 13, "cluster_id": 1, "rank_in_cluster": 12}

>  <energy>  (36) 
-7.13

>  <cluster_rmsd>  (36) 
0.92

>  <cluster>  (36) 
7

$$$$

     RDKit          3D

 45 48  0  0  0  0  0  0  0  0999 V2000
  144.6620   68.2090  217.6930 N   0  0  0  0  0  0  0  0  0  0  0  0
  145.4400   69.0790  218.9600 S   0  0  0  0  0  0  0  0  0  0  0  0
  145.8260   68.1600  220.1010 O   0  0  0  0  0  0  0  0  0  0  0  0
  146.7060   69.7510  218.5040 O   0  0  0  0  0  0  0  0  0  0  0  0
  144.3560   70.3310  219.5680 C   0  0  0  0  0  0  0  0  0  0  0  0
  144.9000   71.4980  220.0850 C   0  0  0  0  0  0  0  0  0  0  0  0
  144.0500   72.4770  220.5610 C   0  0  0  0  0  0  0  0  0  0  0  0
  142.6550   72.3110  220.5300 C   0  0  0  0  0  0  0  0  0  0  0  0
  141.7900   73.3020  221.0640 N   0  0  0  0  0  0  0  0  0  0  0  0
  140.8370   73.0830  221.9680 C   0  0  0  0  0  0  0  0  0  0  0  0
  140.4730   71.8560  222.5920 C   0  0  0  0  0  0  0  0  0  0  0  0
  139.6090   71.6060  223.5360 C   0  0  0  0  0  0  0  0  0  0  0  0
  140.0080   71.0730  224.8480 C   0  0  0  0  0  0  0  0  0  0  0  0
  140.7000   71.8310  225.7600 C   0  0  0  0  0  0  0  0  0  0  0  0
  141.0370   71.2630  226.9640 C   0  0  0  0  0  0  0  0  0  0  0  0
  140.7140   69.9620  227.3070 C   0  0  0  0  0  0  0  0  0  0  0  0
  140.0140   69.2310  226.3510 C   0  0  0  0  0  0  0  0  0  0  0  0
  139.6950   69.8090  225.1800 N   0  0  0  0  0  0  0  0  0  0  0  0
  140.1180   74.1890  222.3430 N   0  0  0  0  0  0  0  0  0  0  0  0
  140.3110   75.4100  221.8750 C   0  0  0  0  0  0  0  0  0  0  0  0
  139.5180   76.4290  222.3350 C   0  0  0  0  0  0  0  0  0  0  0  0
  139.7650   77.6930  221.8090 C   0  0  0  0  0  0  0  0  0  0  0  0
  140.7500   77.9250  220.8710 C   0  0  0  0  0  0  0  0  0  0  0  0
  141.5180   76.8860  220.4370 C   0  0  0  0  0  0  0  0  0  0  0  0
  141.2920   75.6410  220.9410 C   0  0  0  0  0  0  0  0  0  0  0  0
  142.0300   74.5590  220.5440 C   0  0  0  0  0  0  0  0  0  0  0  0
  142.9290   74.7520  219.6930 O   0  0  0  0  0  0  0  0  0  0  0  0
  142.1070   71.1270  220.0040 C   0  0  0  0  0  0  0  0  0  0  0  0
  142.9810   70.1670  219.5370 C   0  0  0  0  0  0  0  0  0  0  0  0
  143.6360   68.2320  217.8860 H   0  0  0  0  0  0  0  0  0  0  0  0
  144.9700   67.2260  217.7860 H   0  0  0  0  0  0  0  0  0  0  0  0
  145.9902   71.6411  220.1153 H   0  0  0  0  0  0  0  0  0  0  0  0
  144.4734   73.4051  220.9725 H   0  0  0  0  0  0  0  0  0  0  0  0
  141.0096   70.9727  222.2153 H   0  0  0  0  0  0  0  0  0  0  0  0
  138.5434   71.8006  223.3446 H   0  0  0  0  0  0  0  0  0  0  0  0
  140.9783   72.8703  225.5313 H   0  0  0  0  0  0  0  0  0  0  0  0
  141.5916   71.8729  227.6923 H   0  0  0  0  0  0  0  0  0  0  0  0
  140.9942   69.5301  228.2791 H   0  0  0  0  0  0  0  0  0  0  0  0
  139.7244   68.1891  226.5522 H   0  0  0  0  0  0  0  0  0  0  0  0
  138.7280   76.2564  223.0807 H   0  0  0  0  0  0  0  0  0  0  0  0
  139.1522   78.5390  222.1537 H   0  0  0  0  0  0  0  0  0  0  0  0
  140.9139   78.9389  220.4772 H   0  0  0  0  0  0  0  0  0  0  0  0
  142.3089   77.0506  219.6905 H   0  0  0  0  0  0  0  0  0  0  0  0
  141.0186   70.9718  219.9663 H   0  0  0  0  0  0  0  0  0  0  0  0
  142.5695   69.2344  219.1237 H   0  0  0  0  0  0  0  0  0  0  0  0
  1  2  1  0
  2  3  2  0
  2  4  2  0
  2  5  1  0
  5  6  2  0
  6  7  1  0
  7  8  2  0
  8  9  1  0
  9 10  1  0
 10 11  1  0
 11 12  2  0
 12 13  1  0
 13 14  2  0
 14 15  1  0
 15 16  2  0
 16 17  1  0
 17 18  2  0
 10 19  2  0
 19 20  1  0
 20 21  2  0
 21 22  1  0
 22 23  2  0
 23 24  1  0
 24 25  2  0
 25 26  1  0
 26 27  2  0
  8 28  1  0
 28 29  2  0
 29  5  1  0
 26  9  1  0
 18 13  1  0
 25 20  1  0
  1 30  1  0
  1 31  1  0
  6 32  1  0
  7 33  1  0
 11 34  1  0
 12 35  1  0
 14 36  1  0
 15 37  1  0
 16 38  1  0
 17 39  1  0
 21 40  1  0
 22 41  1  0
 23 42  1  0
 24 43  1  0
 28 44  1  0
 29 45  1  0
M  END
>  <smiles>  (37) 
NS(=O)(=O)c1ccc(-n2c(/C=C/c3ccccn3)nc3ccccc3c2=O)cc1

>  <score_type>  (37) 
oracle

>  <origin>  (37) 
autodockgpu

>  <m_score__min__energy>  (37) 
-8.5600000000000005

>  <m_primary>  (37) 
energy

>  <rmsd>  (37) 
5.685503769785913

>  <m_score__min__rmsd>  (37) 
5.685503769785913

>  <meeko>  (37) 
{"free_energy": -8.25, "intermolecular_energy": -10.04, "internal_energy": -0.91, "cluster_size": 13, "cluster_id": 1, "rank_in_cluster": 5}

>  <energy>  (37) 
-7.1

>  <cluster_rmsd>  (37) 
0.63

>  <cluster>  (37) 
7

$$$$

     RDKit          3D

 45 48  0  0  0  0  0  0  0  0999 V2000
  145.8860   73.7220  217.6080 N   0  0  0  0  0  0  0  0  0  0  0  0
  145.6650   73.0620  219.1840 S   0  0  0  0  0  0  0  0  0  0  0  0
  145.7450   71.5490  219.1620 O   0  0  0  0  0  0  0  0  0  0  0  0
  146.7100   73.5330  220.1570 O   0  0  0  0  0  0  0  0  0  0  0  0
  144.0890   73.5470  219.8100 C   0  0  0  0  0  0  0  0  0  0  0  0
  143.5370   74.7480  219.3830 C   0  0  0  0  0  0  0  0  0  0  0  0
  142.3030   75.1270  219.8740 C   0  0  0  0  0  0  0  0  0  0  0  0
  141.6040   74.3230  220.7910 C   0  0  0  0  0  0  0  0  0  0  0  0
  140.3580   74.7420  221.3270 N   0  0  0  0  0  0  0  0  0  0  0  0
  140.1370   75.9030  221.9420 C   0  0  0  0  0  0  0  0  0  0  0  0
  141.0580   76.9580  222.1990 C   0  0  0  0  0  0  0  0  0  0  0  0
  141.1930   78.1250  221.6330 C   0  0  0  0  0  0  0  0  0  0  0  0
  141.5760   79.3280  222.3880 C   0  0  0  0  0  0  0  0  0  0  0  0
  142.7120   79.3720  223.1560 C   0  0  0  0  0  0  0  0  0  0  0  0
  143.0030   80.5320  223.8320 C   0  0  0  0  0  0  0  0  0  0  0  0
  142.2070   81.6620  223.7780 C   0  0  0  0  0  0  0  0  0  0  0  0
  141.0660   81.5710  222.9860 C   0  0  0  0  0  0  0  0  0  0  0  0
  140.8030   80.4250  222.3340 N   0  0  0  0  0  0  0  0  0  0  0  0
  138.8530   76.1000  222.3820 N   0  0  0  0  0  0  0  0  0  0  0  0
  137.8630   75.2360  222.2360 C   0  0  0  0  0  0  0  0  0  0  0  0
  136.6240   75.5590  222.7250 C   0  0  0  0  0  0  0  0  0  0  0  0
  135.6200   74.6130  222.5420 C   0  0  0  0  0  0  0  0  0  0  0  0
  135.8430   73.4100  221.9060 C   0  0  0  0  0  0  0  0  0  0  0  0
  137.0900   73.1240  221.4330 C   0  0  0  0  0  0  0  0  0  0  0  0
  138.0860   74.0370  221.6020 C   0  0  0  0  0  0  0  0  0  0  0  0
  139.3560   73.8070  221.1490 C   0  0  0  0  0  0  0  0  0  0  0  0
  139.5770   72.7190  220.5680 O   0  0  0  0  0  0  0  0  0  0  0  0
  142.1660   73.1080  221.2210 C   0  0  0  0  0  0  0  0  0  0  0  0
  143.4000   72.7560  220.7140 C   0  0  0  0  0  0  0  0  0  0  0  0
  146.8490   74.1270  217.5740 H   0  0  0  0  0  0  0  0  0  0  0  0
  145.2190   74.5080  217.5290 H   0  0  0  0  0  0  0  0  0  0  0  0
  144.0737   75.3865  218.6658 H   0  0  0  0  0  0  0  0  0  0  0  0
  141.8585   76.0765  219.5410 H   0  0  0  0  0  0  0  0  0  0  0  0
  141.7741   76.7551  223.0090 H   0  0  0  0  0  0  0  0  0  0  0  0
  141.0139   78.2131  220.5513 H   0  0  0  0  0  0  0  0  0  0  0  0
  143.3753   78.4975  223.2289 H   0  0  0  0  0  0  0  0  0  0  0  0
  143.9145   80.5638  224.4469 H   0  0  0  0  0  0  0  0  0  0  0  0
  142.4610   82.5795  224.3291 H   0  0  0  0  0  0  0  0  0  0  0  0
  140.3849   82.4299  222.8943 H   0  0  0  0  0  0  0  0  0  0  0  0
  136.4335   76.5149  223.2349 H   0  0  0  0  0  0  0  0  0  0  0  0
  134.6103   74.8332  222.9189 H   0  0  0  0  0  0  0  0  0  0  0  0
  135.0228   72.6877  221.7813 H   0  0  0  0  0  0  0  0  0  0  0  0
  137.2881   72.1699  220.9226 H   0  0  0  0  0  0  0  0  0  0  0  0
  141.6397   72.4600  221.9373 H   0  0  0  0  0  0  0  0  0  0  0  0
  143.8546   71.8092  221.0410 H   0  0  0  0  0  0  0  0  0  0  0  0
  1  2  1  0
  2  3  2  0
  2  4  2  0
  2  5  1  0
  5  6  2  0
  6  7  1  0
  7  8  2  0
  8  9  1  0
  9 10  1  0
 10 11  1  0
 11 12  2  0
 12 13  1  0
 13 14  2  0
 14 15  1  0
 15 16  2  0
 16 17  1  0
 17 18  2  0
 10 19  2  0
 19 20  1  0
 20 21  2  0
 21 22  1  0
 22 23  2  0
 23 24  1  0
 24 25  2  0
 25 26  1  0
 26 27  2  0
  8 28  1  0
 28 29  2  0
 29  5  1  0
 26  9  1  0
 18 13  1  0
 25 20  1  0
  1 30  1  0
  1 31  1  0
  6 32  1  0
  7 33  1  0
 11 34  1  0
 12 35  1  0
 14 36  1  0
 15 37  1  0
 16 38  1  0
 17 39  1  0
 21 40  1  0
 22 41  1  0
 23 42  1  0
 24 43  1  0
 28 44  1  0
 29 45  1  0
M  END
>  <smiles>  (38) 
NS(=O)(=O)c1ccc(-n2c(/C=C/c3ccccn3)nc3ccccc3c2=O)cc1

>  <score_type>  (38) 
oracle

>  <origin>  (38) 
autodockgpu

>  <m_score__min__energy>  (38) 
-8.5600000000000005

>  <m_primary>  (38) 
energy

>  <rmsd>  (38) 
6.726176998225344

>  <m_score__min__rmsd>  (38) 
6.726176998225344

>  <meeko>  (38) 
{"free_energy": -7.92, "intermolecular_energy": -9.71, "internal_energy": -0.9, "cluster_size": 2, "cluster_id": 2, "rank_in_cluster": 2}

>  <energy>  (38) 
-7.07

>  <cluster_rmsd>  (38) 
0.98

>  <cluster>  (38) 
7

$$$$

     RDKit          3D

 45 48  0  0  0  0  0  0  0  0999 V2000
  143.4340   81.6450  217.1090 N   0  0  0  0  0  0  0  0  0  0  0  0
  141.8740   81.7180  217.8350 S   0  0  0  0  0  0  0  0  0  0  0  0
  141.7840   82.8550  218.8320 O   0  0  0  0  0  0  0  0  0  0  0  0
  140.7790   81.9430  216.8290 O   0  0  0  0  0  0  0  0  0  0  0  0
  141.5380   80.1970  218.6640 C   0  0  0  0  0  0  0  0  0  0  0  0
  142.1640   79.9400  219.8760 C   0  0  0  0  0  0  0  0  0  0  0  0
  141.9010   78.7480  220.5240 C   0  0  0  0  0  0  0  0  0  0  0  0
  141.0170   77.8020  219.9790 C   0  0  0  0  0  0  0  0  0  0  0  0
  140.7880   76.5600  220.6280 N   0  0  0  0  0  0  0  0  0  0  0  0
  139.7840   76.3030  221.4640 C   0  0  0  0  0  0  0  0  0  0  0  0
  138.7410   77.1740  221.8900 C   0  0  0  0  0  0  0  0  0  0  0  0
  138.7420   78.1350  222.7720 C   0  0  0  0  0  0  0  0  0  0  0  0
  139.9380   78.9450  223.0530 C   0  0  0  0  0  0  0  0  0  0  0  0
  139.9440   80.3080  222.8950 C   0  0  0  0  0  0  0  0  0  0  0  0
  141.0990   80.9960  223.1780 C   0  0  0  0  0  0  0  0  0  0  0  0
  142.2600   80.3840  223.6160 C   0  0  0  0  0  0  0  0  0  0  0  0
  142.2060   79.0000  223.7620 C   0  0  0  0  0  0  0  0  0  0  0  0
  141.0650   78.3500  223.4790 N   0  0  0  0  0  0  0  0  0  0  0  0
  139.7560   75.0310  221.9760 N   0  0  0  0  0  0  0  0  0  0  0  0
  140.6360   74.0850  221.6980 C   0  0  0  0  0  0  0  0  0  0  0  0
  140.4920   72.8530  222.2810 C   0  0  0  0  0  0  0  0  0  0  0  0
  141.4460   71.8960  221.9520 C   0  0  0  0  0  0  0  0  0  0  0  0
  142.4880   72.1560  221.0870 C   0  0  0  0  0  0  0  0  0  0  0  0
  142.5990   73.3940  220.5270 C   0  0  0  0  0  0  0  0  0  0  0  0
  141.6740   74.3440  220.8360 C   0  0  0  0  0  0  0  0  0  0  0  0
  141.7330   75.6050  220.3050 C   0  0  0  0  0  0  0  0  0  0  0  0
  142.6730   75.8580  219.5170 O   0  0  0  0  0  0  0  0  0  0  0  0
  140.3840   78.0650  218.7510 C   0  0  0  0  0  0  0  0  0  0  0  0
  140.6670   79.2640  218.1270 C   0  0  0  0  0  0  0  0  0  0  0  0
  143.3040   81.3040  216.1290 H   0  0  0  0  0  0  0  0  0  0  0  0
  143.9570   80.9160  217.6210 H   0  0  0  0  0  0  0  0  0  0  0  0
  142.8579   80.6729  220.3134 H   0  0  0  0  0  0  0  0  0  0  0  0
  142.3932   78.5360  221.4846 H   0  0  0  0  0  0  0  0  0  0  0  0
  137.7738   77.0090  221.3926 H   0  0  0  0  0  0  0  0  0  0  0  0
  137.8156   78.3476  223.3256 H   0  0  0  0  0  0  0  0  0  0  0  0
  139.0441   80.8380  222.5495 H   0  0  0  0  0  0  0  0  0  0  0  0
  141.1008   82.0885  223.0499 H   0  0  0  0  0  0  0  0  0  0  0  0
  143.1727   80.9572  223.8361 H   0  0  0  0  0  0  0  0  0  0  0  0
  143.0904   78.4438  224.1062 H   0  0  0  0  0  0  0  0  0  0  0  0
  139.6655   72.6328  222.9727 H   0  0  0  0  0  0  0  0  0  0  0  0
  141.3663   70.8939  222.3986 H   0  0  0  0  0  0  0  0  0  0  0  0
  143.2226   71.3720  220.8511 H   0  0  0  0  0  0  0  0  0  0  0  0
  143.4237   73.6220  219.8357 H   0  0  0  0  0  0  0  0  0  0  0  0
  139.6876   77.3408  218.3031 H   0  0  0  0  0  0  0  0  0  0  0  0
  140.1814   79.4867  217.1654 H   0  0  0  0  0  0  0  0  0  0  0  0
  1  2  1  0
  2  3  2  0
  2  4  2  0
  2  5  1  0
  5  6  2  0
  6  7  1  0
  7  8  2  0
  8  9  1  0
  9 10  1  0
 10 11  1  0
 11 12  2  0
 12 13  1  0
 13 14  2  0
 14 15  1  0
 15 16  2  0
 16 17  1  0
 17 18  2  0
 10 19  2  0
 19 20  1  0
 20 21  2  0
 21 22  1  0
 22 23  2  0
 23 24  1  0
 24 25  2  0
 25 26  1  0
 26 27  2  0
  8 28  1  0
 28 29  2  0
 29  5  1  0
 26  9  1  0
 18 13  1  0
 25 20  1  0
  1 30  1  0
  1 31  1  0
  6 32  1  0
  7 33  1  0
 11 34  1  0
 12 35  1  0
 14 36  1  0
 15 37  1  0
 16 38  1  0
 17 39  1  0
 21 40  1  0
 22 41  1  0
 23 42  1  0
 24 43  1  0
 28 44  1  0
 29 45  1  0
M  END
>  <smiles>  (39) 
NS(=O)(=O)c1ccc(-n2c(/C=C/c3ccccn3)nc3ccccc3c2=O)cc1

>  <score_type>  (39) 
oracle

>  <origin>  (39) 
autodockgpu

>  <m_score__min__energy>  (39) 
-8.5600000000000005

>  <m_primary>  (39) 
energy

>  <rmsd>  (39) 
7.014107308086767

>  <m_score__min__rmsd>  (39) 
7.014107308086767

>  <meeko>  (39) 
{"free_energy": -6.82, "intermolecular_energy": -8.61, "internal_energy": -1.93, "cluster_size": 21, "cluster_id": 7, "rank_in_cluster": 20}

>  <energy>  (39) 
-7.03

>  <cluster_rmsd>  (39) 
1.01

>  <cluster>  (39) 
7

$$$$

     RDKit          3D

 45 48  0  0  0  0  0  0  0  0999 V2000
  144.2460   82.3890  216.6690 N   0  0  0  0  0  0  0  0  0  0  0  0
  142.6240   82.3230  217.2460 S   0  0  0  0  0  0  0  0  0  0  0  0
  142.3520   83.4250  218.2500 O   0  0  0  0  0  0  0  0  0  0  0  0
  141.6140   82.4870  216.1450 O   0  0  0  0  0  0  0  0  0  0  0  0
  142.3350   80.7600  218.0130 C   0  0  0  0  0  0  0  0  0  0  0  0
  142.2080   80.7030  219.3940 C   0  0  0  0  0  0  0  0  0  0  0  0
  141.9820   79.4790  219.9930 C   0  0  0  0  0  0  0  0  0  0  0  0
  141.8790   78.3020  219.2330 C   0  0  0  0  0  0  0  0  0  0  0  0
  141.6930   77.0420  219.8600 N   0  0  0  0  0  0  0  0  0  0  0  0
  140.6670   76.7170  220.6430 C   0  0  0  0  0  0  0  0  0  0  0  0
  139.5540   77.5200  221.0240 C   0  0  0  0  0  0  0  0  0  0  0  0
  139.3440   78.2270  222.0990 C   0  0  0  0  0  0  0  0  0  0  0  0
  140.3620   79.1260  222.6640 C   0  0  0  0  0  0  0  0  0  0  0  0
  140.1190   80.4610  222.8680 C   0  0  0  0  0  0  0  0  0  0  0  0
  141.1210   81.2360  223.4000 C   0  0  0  0  0  0  0  0  0  0  0  0
  142.3660   80.7400  223.7410 C   0  0  0  0  0  0  0  0  0  0  0  0
  142.5670   79.3800  223.5160 C   0  0  0  0  0  0  0  0  0  0  0  0
  141.5710   78.6420  222.9950 N   0  0  0  0  0  0  0  0  0  0  0  0
  140.6900   75.4410  221.1440 N   0  0  0  0  0  0  0  0  0  0  0  0
  141.6380   74.5520  220.9030 C   0  0  0  0  0  0  0  0  0  0  0  0
  141.5400   73.3070  221.4690 C   0  0  0  0  0  0  0  0  0  0  0  0
  142.5640   72.4120  221.1800 C   0  0  0  0  0  0  0  0  0  0  0  0
  143.6310   72.7430  220.3700 C   0  0  0  0  0  0  0  0  0  0  0  0
  143.6940   73.9910  219.8250 C   0  0  0  0  0  0  0  0  0  0  0  0
  142.7000   74.8810  220.0950 C   0  0  0  0  0  0  0  0  0  0  0  0
  142.7090   76.1480  219.5770 C   0  0  0  0  0  0  0  0  0  0  0  0
  143.6700   76.4660  218.8390 O   0  0  0  0  0  0  0  0  0  0  0  0
  142.0080   78.3630  217.8330 C   0  0  0  0  0  0  0  0  0  0  0  0
  142.2340   79.6000  217.2640 C   0  0  0  0  0  0  0  0  0  0  0  0
  144.3370   81.6700  215.9160 H   0  0  0  0  0  0  0  0  0  0  0  0
  144.8450   82.0870  217.4560 H   0  0  0  0  0  0  0  0  0  0  0  0
  142.2860   81.6170  220.0011 H   0  0  0  0  0  0  0  0  0  0  0  0
  141.8806   79.4248  221.0870 H   0  0  0  0  0  0  0  0  0  0  0  0
  138.7359   77.5483  220.2893 H   0  0  0  0  0  0  0  0  0  0  0  0
  138.3691   78.1483  222.6024 H   0  0  0  0  0  0  0  0  0  0  0  0
  139.1439   80.9008  222.6114 H   0  0  0  0  0  0  0  0  0  0  0  0
  140.9228   82.3056  223.5630 H   0  0  0  0  0  0  0  0  0  0  0  0
  143.1520   81.3821  224.1653 H   0  0  0  0  0  0  0  0  0  0  0  0
  143.5323   78.9138  223.7625 H   0  0  0  0  0  0  0  0  0  0  0  0
  140.6956   73.0308  222.1176 H   0  0  0  0  0  0  0  0  0  0  0  0
  142.5220   71.4019  221.6134 H   0  0  0  0  0  0  0  0  0  0  0  0
  144.4228   72.0072  220.1661 H   0  0  0  0  0  0  0  0  0  0  0  0
  144.5359   74.2747  219.1764 H   0  0  0  0  0  0  0  0  0  0  0  0
  141.9314   77.4569  217.2140 H   0  0  0  0  0  0  0  0  0  0  0  0
  142.3381   79.6669  216.1710 H   0  0  0  0  0  0  0  0  0  0  0  0
  1  2  1  0
  2  3  2  0
  2  4  2  0
  2  5  1  0
  5  6  2  0
  6  7  1  0
  7  8  2  0
  8  9  1  0
  9 10  1  0
 10 11  1  0
 11 12  2  0
 12 13  1  0
 13 14  2  0
 14 15  1  0
 15 16  2  0
 16 17  1  0
 17 18  2  0
 10 19  2  0
 19 20  1  0
 20 21  2  0
 21 22  1  0
 22 23  2  0
 23 24  1  0
 24 25  2  0
 25 26  1  0
 26 27  2  0
  8 28  1  0
 28 29  2  0
 29  5  1  0
 26  9  1  0
 18 13  1  0
 25 20  1  0
  1 30  1  0
  1 31  1  0
  6 32  1  0
  7 33  1  0
 11 34  1  0
 12 35  1  0
 14 36  1  0
 15 37  1  0
 16 38  1  0
 17 39  1  0
 21 40  1  0
 22 41  1  0
 23 42  1  0
 24 43  1  0
 28 44  1  0
 29 45  1  0
M  END
>  <smiles>  (40) 
NS(=O)(=O)c1ccc(-n2c(/C=C/c3ccccn3)nc3ccccc3c2=O)cc1

>  <score_type>  (40) 
oracle

>  <origin>  (40) 
autodockgpu

>  <m_score__min__energy>  (40) 
-8.5600000000000005

>  <m_primary>  (40) 
energy

>  <rmsd>  (40) 
7.067756121713464

>  <m_score__min__rmsd>  (40) 
7.067756121713464

>  <meeko>  (40) 
{"free_energy": -7.35, "intermolecular_energy": -9.14, "internal_energy": -1.57, "cluster_size": 21, "cluster_id": 7, "rank_in_cluster": 7}

>  <energy>  (40) 
-7.01

>  <cluster_rmsd>  (40) 
1.11

>  <cluster>  (40) 
7

$$$$

     RDKit          3D

 45 48  0  0  0  0  0  0  0  0999 V2000
  146.6800   69.7260  218.0040 N   0  0  0  0  0  0  0  0  0  0  0  0
  145.4460   68.9360  218.9090 S   0  0  0  0  0  0  0  0  0  0  0  0
  144.6830   67.9460  218.0510 O   0  0  0  0  0  0  0  0  0  0  0  0
  145.9940   68.1600  220.0740 O   0  0  0  0  0  0  0  0  0  0  0  0
  144.3200   70.1360  219.5440 C   0  0  0  0  0  0  0  0  0  0  0  0
  142.9620   69.8450  219.5540 C   0  0  0  0  0  0  0  0  0  0  0  0
  142.0810   70.7860  220.0510 C   0  0  0  0  0  0  0  0  0  0  0  0
  142.5340   72.0220  220.5420 C   0  0  0  0  0  0  0  0  0  0  0  0
  141.6190   73.0020  221.0080 N   0  0  0  0  0  0  0  0  0  0  0  0
  140.8260   72.8690  222.0700 C   0  0  0  0  0  0  0  0  0  0  0  0
  140.7110   71.7620  222.9570 C   0  0  0  0  0  0  0  0  0  0  0  0
  139.7760   71.4490  223.8100 C   0  0  0  0  0  0  0  0  0  0  0  0
  140.0710   71.0700  225.2010 C   0  0  0  0  0  0  0  0  0  0  0  0
  139.6340   69.8860  225.7390 C   0  0  0  0  0  0  0  0  0  0  0  0
  139.9500   69.6030  227.0450 C   0  0  0  0  0  0  0  0  0  0  0  0
  140.6890   70.4520  227.8490 C   0  0  0  0  0  0  0  0  0  0  0  0
  141.1100   71.6420  227.2610 C   0  0  0  0  0  0  0  0  0  0  0  0
  140.7890   71.8960  225.9810 N   0  0  0  0  0  0  0  0  0  0  0  0
  140.0200   73.9460  222.3380 N   0  0  0  0  0  0  0  0  0  0  0  0
  139.9860   75.0610  221.6290 C   0  0  0  0  0  0  0  0  0  0  0  0
  139.1290   76.0610  222.0070 C   0  0  0  0  0  0  0  0  0  0  0  0
  139.1370   77.2120  221.2250 C   0  0  0  0  0  0  0  0  0  0  0  0
  139.9550   77.3540  220.1240 C   0  0  0  0  0  0  0  0  0  0  0  0
  140.7930   76.3360  219.7790 C   0  0  0  0  0  0  0  0  0  0  0  0
  140.8010   75.2020  220.5320 C   0  0  0  0  0  0  0  0  0  0  0  0
  141.6210   74.1470  220.2350 C   0  0  0  0  0  0  0  0  0  0  0  0
  142.3720   74.2590  219.2380 O   0  0  0  0  0  0  0  0  0  0  0  0
  143.9110   72.3140  220.5310 C   0  0  0  0  0  0  0  0  0  0  0  0
  144.7660   71.3540  220.0280 C   0  0  0  0  0  0  0  0  0  0  0  0
  146.2680   69.9840  217.0780 H   0  0  0  0  0  0  0  0  0  0  0  0
  147.4090   69.0140  217.8280 H   0  0  0  0  0  0  0  0  0  0  0  0
  142.5940   68.8812  219.1725 H   0  0  0  0  0  0  0  0  0  0  0  0
  141.0039   70.5632  220.0625 H   0  0  0  0  0  0  0  0  0  0  0  0
  141.5506   71.0525  222.9161 H   0  0  0  0  0  0  0  0  0  0  0  0
  138.7276   71.4690  223.4775 H   0  0  0  0  0  0  0  0  0  0  0  0
  139.0436   69.1791  225.1375 H   0  0  0  0  0  0  0  0  0  0  0  0
  139.5976   68.6531  227.4735 H   0  0  0  0  0  0  0  0  0  0  0  0
  140.9302   70.2016  228.8926 H   0  0  0  0  0  0  0  0  0  0  0  0
  141.7003   72.3680  227.8394 H   0  0  0  0  0  0  0  0  0  0  0  0
  138.4699   75.9594  222.8818 H   0  0  0  0  0  0  0  0  0  0  0  0
  138.4653   78.0400  221.4954 H   0  0  0  0  0  0  0  0  0  0  0  0
  139.9314   78.2796  219.5301 H   0  0  0  0  0  0  0  0  0  0  0  0
  141.4536   76.4294  218.9044 H   0  0  0  0  0  0  0  0  0  0  0  0
  144.2924   73.2736  220.9100 H   0  0  0  0  0  0  0  0  0  0  0  0
  145.8454   71.5653  220.0111 H   0  0  0  0  0  0  0  0  0  0  0  0
  1  2  1  0
  2  3  2  0
  2  4  2  0
  2  5  1  0
  5  6  2  0
  6  7  1  0
  7  8  2  0
  8  9  1  0
  9 10  1  0
 10 11  1  0
 11 12  2  0
 12 13  1  0
 13 14  2  0
 14 15  1  0
 15 16  2  0
 16 17  1  0
 17 18  2  0
 10 19  2  0
 19 20  1  0
 20 21  2  0
 21 22  1  0
 22 23  2  0
 23 24  1  0
 24 25  2  0
 25 26  1  0
 26 27  2  0
  8 28  1  0
 28 29  2  0
 29  5  1  0
 26  9  1  0
 18 13  1  0
 25 20  1  0
  1 30  1  0
  1 31  1  0
  6 32  1  0
  7 33  1  0
 11 34  1  0
 12 35  1  0
 14 36  1  0
 15 37  1  0
 16 38  1  0
 17 39  1  0
 21 40  1  0
 22 41  1  0
 23 42  1  0
 24 43  1  0
 28 44  1  0
 29 45  1  0
M  END
>  <smiles>  (41) 
NS(=O)(=O)c1ccc(-n2c(/C=C/c3ccccn3)nc3ccccc3c2=O)cc1

>  <score_type>  (41) 
oracle

>  <origin>  (41) 
autodockgpu

>  <m_score__min__energy>  (41) 
-8.5600000000000005

>  <m_primary>  (41) 
energy

>  <rmsd>  (41) 
6.195917489591769

>  <m_score__min__rmsd>  (41) 
6.195917489591769

>  <meeko>  (41) 
{"free_energy": -8.01, "intermolecular_energy": -9.8, "internal_energy": -1.0, "cluster_size": 13, "cluster_id": 1, "rank_in_cluster": 11}

>  <energy>  (41) 
-6.91

>  <cluster_rmsd>  (41) 
1.18

>  <cluster>  (41) 
7

$$$$

     RDKit          3D

 45 48  0  0  0  0  0  0  0  0999 V2000
  145.9750   73.7290  217.7030 N   0  0  0  0  0  0  0  0  0  0  0  0
  145.8020   73.1810  219.3270 S   0  0  0  0  0  0  0  0  0  0  0  0
  145.9540   71.6760  219.4190 O   0  0  0  0  0  0  0  0  0  0  0  0
  146.8330   73.7720  220.2470 O   0  0  0  0  0  0  0  0  0  0  0  0
  144.2110   73.6380  219.9370 C   0  0  0  0  0  0  0  0  0  0  0  0
  143.5140   72.7410  220.7350 C   0  0  0  0  0  0  0  0  0  0  0  0
  142.2680   73.1000  221.2120 C   0  0  0  0  0  0  0  0  0  0  0  0
  141.7010   74.3490  220.9060 C   0  0  0  0  0  0  0  0  0  0  0  0
  140.4010   74.6920  221.3610 N   0  0  0  0  0  0  0  0  0  0  0  0
  140.0850   75.8100  222.0120 C   0  0  0  0  0  0  0  0  0  0  0  0
  140.9380   76.8860  222.3900 C   0  0  0  0  0  0  0  0  0  0  0  0
  141.1290   78.0530  221.8420 C   0  0  0  0  0  0  0  0  0  0  0  0
  141.6160   79.2120  222.6050 C   0  0  0  0  0  0  0  0  0  0  0  0
  142.9530   79.4280  222.8230 C   0  0  0  0  0  0  0  0  0  0  0  0
  143.3300   80.5340  223.5460 C   0  0  0  0  0  0  0  0  0  0  0  0
  142.4290   81.4450  224.0660 C   0  0  0  0  0  0  0  0  0  0  0  0
  141.0830   81.1850  223.8190 C   0  0  0  0  0  0  0  0  0  0  0  0
  140.7390   80.0970  223.1100 N   0  0  0  0  0  0  0  0  0  0  0  0
  138.7640   75.9350  222.3570 N   0  0  0  0  0  0  0  0  0  0  0  0
  137.8260   75.0420  222.0920 C   0  0  0  0  0  0  0  0  0  0  0  0
  136.5400   75.2920  222.4970 C   0  0  0  0  0  0  0  0  0  0  0  0
  135.5940   74.3190  222.1910 C   0  0  0  0  0  0  0  0  0  0  0  0
  135.9160   73.1590  221.5180 C   0  0  0  0  0  0  0  0  0  0  0  0
  137.2060   72.9460  221.1320 C   0  0  0  0  0  0  0  0  0  0  0  0
  138.1460   73.8870  221.4220 C   0  0  0  0  0  0  0  0  0  0  0  0
  139.4570   73.7290  221.0600 C   0  0  0  0  0  0  0  0  0  0  0  0
  139.7670   72.6810  220.4480 O   0  0  0  0  0  0  0  0  0  0  0  0
  142.4110   75.2560  220.0970 C   0  0  0  0  0  0  0  0  0  0  0  0
  143.6520   74.8690  219.6350 C   0  0  0  0  0  0  0  0  0  0  0  0
  146.9220   74.1610  217.6210 H   0  0  0  0  0  0  0  0  0  0  0  0
  145.2800   74.4850  217.5790 H   0  0  0  0  0  0  0  0  0  0  0  0
  143.9466   71.7606  220.9834 H   0  0  0  0  0  0  0  0  0  0  0  0
  141.7087   72.3943  221.8438 H   0  0  0  0  0  0  0  0  0  0  0  0
  141.5351   76.7014  223.2952 H   0  0  0  0  0  0  0  0  0  0  0  0
  140.9182   78.1755  220.7694 H   0  0  0  0  0  0  0  0  0  0  0  0
  143.7067   78.7311  222.4277 H   0  0  0  0  0  0  0  0  0  0  0  0
  144.4029   80.7033  223.7200 H   0  0  0  0  0  0  0  0  0  0  0  0
  142.7561   82.3238  224.6411 H   0  0  0  0  0  0  0  0  0  0  0  0
  140.3078   81.8652  224.2015 H   0  0  0  0  0  0  0  0  0  0  0  0
  136.2707   76.2128  223.0351 H   0  0  0  0  0  0  0  0  0  0  0  0
  134.5500   74.4809  222.4973 H   0  0  0  0  0  0  0  0  0  0  0  0
  135.1393   72.4127  221.2948 H   0  0  0  0  0  0  0  0  0  0  0  0
  137.4832   72.0274  220.5942 H   0  0  0  0  0  0  0  0  0  0  0  0
  141.9906   76.2400  219.8418 H   0  0  0  0  0  0  0  0  0  0  0  0
  144.2204   75.5658  219.0014 H   0  0  0  0  0  0  0  0  0  0  0  0
  1  2  1  0
  2  3  2  0
  2  4  2  0
  2  5  1  0
  5  6  2  0
  6  7  1  0
  7  8  2  0
  8  9  1  0
  9 10  1  0
 10 11  1  0
 11 12  2  0
 12 13  1  0
 13 14  2  0
 14 15  1  0
 15 16  2  0
 16 17  1  0
 17 18  2  0
 10 19  2  0
 19 20  1  0
 20 21  2  0
 21 22  1  0
 22 23  2  0
 23 24  1  0
 24 25  2  0
 25 26  1  0
 26 27  2  0
  8 28  1  0
 28 29  2  0
 29  5  1  0
 26  9  1  0
 18 13  1  0
 25 20  1  0
  1 30  1  0
  1 31  1  0
  6 32  1  0
  7 33  1  0
 11 34  1  0
 12 35  1  0
 14 36  1  0
 15 37  1  0
 16 38  1  0
 17 39  1  0
 21 40  1  0
 22 41  1  0
 23 42  1  0
 24 43  1  0
 28 44  1  0
 29 45  1  0
M  END
>  <smiles>  (42) 
NS(=O)(=O)c1ccc(-n2c(/C=C/c3ccccn3)nc3ccccc3c2=O)cc1

>  <score_type>  (42) 
oracle

>  <origin>  (42) 
autodockgpu

>  <m_score__min__energy>  (42) 
-8.5600000000000005

>  <m_primary>  (42) 
energy

>  <rmsd>  (42) 
7.089952708500931

>  <m_score__min__rmsd>  (42) 
7.089952708500931

>  <meeko>  (42) 
{"free_energy": -8.0, "intermolecular_energy": -9.79, "internal_energy": -0.86, "cluster_size": 2, "cluster_id": 2, "rank_in_cluster": 1}

>  <energy>  (42) 
-6.9

>  <cluster_rmsd>  (42) 
1.02

>  <cluster>  (42) 
7

$$$$

     RDKit          3D

 45 48  0  0  0  0  0  0  0  0999 V2000
  138.7110   75.4480  222.6750 N   0  0  0  0  0  0  0  0  0  0  0  0
  139.9050   75.3720  221.4350 S   0  0  0  0  0  0  0  0  0  0  0  0
  141.1820   74.7310  221.9400 O   0  0  0  0  0  0  0  0  0  0  0  0
  139.4560   74.5600  220.2520 O   0  0  0  0  0  0  0  0  0  0  0  0
  140.2650   77.0020  220.8630 C   0  0  0  0  0  0  0  0  0  0  0  0
  139.2690   77.7220  220.2170 C   0  0  0  0  0  0  0  0  0  0  0  0
  139.5520   78.9980  219.7690 C   0  0  0  0  0  0  0  0  0  0  0  0
  140.8200   79.5730  219.9570 C   0  0  0  0  0  0  0  0  0  0  0  0
  141.1170   80.8670  219.4530 N   0  0  0  0  0  0  0  0  0  0  0  0
  140.5340   81.9970  219.8480 C   0  0  0  0  0  0  0  0  0  0  0  0
  139.5180   82.1750  220.8290 C   0  0  0  0  0  0  0  0  0  0  0  0
  139.5590   82.0560  222.1270 C   0  0  0  0  0  0  0  0  0  0  0  0
  140.4950   81.1470  222.8060 C   0  0  0  0  0  0  0  0  0  0  0  0
  141.8130   81.4750  223.0010 C   0  0  0  0  0  0  0  0  0  0  0  0
  142.6250   80.5740  223.6450 C   0  0  0  0  0  0  0  0  0  0  0  0
  142.1820   79.3480  224.1080 C   0  0  0  0  0  0  0  0  0  0  0  0
  140.8380   79.0580  223.8870 C   0  0  0  0  0  0  0  0  0  0  0  0
  140.0630   79.9560  223.2560 N   0  0  0  0  0  0  0  0  0  0  0  0
  140.9770   83.1350  219.2240 N   0  0  0  0  0  0  0  0  0  0  0  0
  141.9120   83.1700  218.2890 C   0  0  0  0  0  0  0  0  0  0  0  0
  142.2610   84.3780  217.7460 C   0  0  0  0  0  0  0  0  0  0  0  0
  143.2500   84.3550  216.7680 C   0  0  0  0  0  0  0  0  0  0  0  0
  143.8560   83.1870  216.3550 C   0  0  0  0  0  0  0  0  0  0  0  0
  143.4820   82.0040  216.9190 C   0  0  0  0  0  0  0  0  0  0  0  0
  142.5160   82.0060  217.8780 C   0  0  0  0  0  0  0  0  0  0  0  0
  142.0980   80.8500  218.4810 C   0  0  0  0  0  0  0  0  0  0  0  0
  142.6380   79.7800  218.1180 O   0  0  0  0  0  0  0  0  0  0  0  0
  141.8260   78.8410  220.6130 C   0  0  0  0  0  0  0  0  0  0  0  0
  141.5140   77.5690  221.0480 C   0  0  0  0  0  0  0  0  0  0  0  0
  139.2090   75.6440  223.5730 H   0  0  0  0  0  0  0  0  0  0  0  0
  138.3100   74.4970  222.7470 H   0  0  0  0  0  0  0  0  0  0  0  0
  138.2716   77.2840  220.0645 H   0  0  0  0  0  0  0  0  0  0  0  0
  138.7691   79.5750  219.2550 H   0  0  0  0  0  0  0  0  0  0  0  0
  138.5353   82.4602  220.4252 H   0  0  0  0  0  0  0  0  0  0  0  0
  138.8683   82.6574  222.7363 H   0  0  0  0  0  0  0  0  0  0  0  0
  142.2105   82.4385  222.6492 H   0  0  0  0  0  0  0  0  0  0  0  0
  143.6808   80.8406  223.8005 H   0  0  0  0  0  0  0  0  0  0  0  0
  142.8526   78.6430  224.6211 H   0  0  0  0  0  0  0  0  0  0  0  0
  140.4142   78.1013  224.2263 H   0  0  0  0  0  0  0  0  0  0  0  0
  141.7846   85.3164  218.0662 H   0  0  0  0  0  0  0  0  0  0  0  0
  143.5604   85.3041  216.3067 H   0  0  0  0  0  0  0  0  0  0  0  0
  144.6339   83.2100  215.5776 H   0  0  0  0  0  0  0  0  0  0  0  0
  143.9538   81.0616  216.6039 H   0  0  0  0  0  0  0  0  0  0  0  0
  142.8270   79.2677  220.7738 H   0  0  0  0  0  0  0  0  0  0  0  0
  142.2892   76.9821  221.5625 H   0  0  0  0  0  0  0  0  0  0  0  0
  1  2  1  0
  2  3  2  0
  2  4  2  0
  2  5  1  0
  5  6  2  0
  6  7  1  0
  7  8  2  0
  8  9  1  0
  9 10  1  0
 10 11  1  0
 11 12  2  0
 12 13  1  0
 13 14  2  0
 14 15  1  0
 15 16  2  0
 16 17  1  0
 17 18  2  0
 10 19  2  0
 19 20  1  0
 20 21  2  0
 21 22  1  0
 22 23  2  0
 23 24  1  0
 24 25  2  0
 25 26  1  0
 26 27  2  0
  8 28  1  0
 28 29  2  0
 29  5  1  0
 26  9  1  0
 18 13  1  0
 25 20  1  0
  1 30  1  0
  1 31  1  0
  6 32  1  0
  7 33  1  0
 11 34  1  0
 12 35  1  0
 14 36  1  0
 15 37  1  0
 16 38  1  0
 17 39  1  0
 21 40  1  0
 22 41  1  0
 23 42  1  0
 24 43  1  0
 28 44  1  0
 29 45  1  0
M  END
>  <smiles>  (43) 
NS(=O)(=O)c1ccc(-n2c(/C=C/c3ccccn3)nc3ccccc3c2=O)cc1

>  <score_type>  (43) 
oracle

>  <origin>  (43) 
autodockgpu

>  <m_score__min__energy>  (43) 
-8.5600000000000005

>  <m_primary>  (43) 
energy

>  <rmsd>  (43) 
4.493162286063186

>  <m_score__min__rmsd>  (43) 
4.493162286063186

>  <meeko>  (43) 
{"free_energy": -6.8, "intermolecular_energy": -8.59, "internal_energy": -2.03, "cluster_size": 4, "cluster_id": 9, "rank_in_cluster": 3}

>  <energy>  (43) 
-6.82

>  <cluster_rmsd>  (43) 
1.2

>  <cluster>  (43) 
7

$$$$

     RDKit          3D

 45 48  0  0  0  0  0  0  0  0999 V2000
  134.1070   67.0420  224.1210 N   0  0  0  0  0  0  0  0  0  0  0  0
  134.0350   68.5670  224.9190 S   0  0  0  0  0  0  0  0  0  0  0  0
  132.6890   69.2320  224.7140 O   0  0  0  0  0  0  0  0  0  0  0  0
  134.2320   68.4490  226.4050 O   0  0  0  0  0  0  0  0  0  0  0  0
  135.3010   69.6220  224.2900 C   0  0  0  0  0  0  0  0  0  0  0  0
  135.2710   70.9730  224.6090 C   0  0  0  0  0  0  0  0  0  0  0  0
  136.2630   71.7980  224.1150 C   0  0  0  0  0  0  0  0  0  0  0  0
  137.2930   71.2950  223.3040 C   0  0  0  0  0  0  0  0  0  0  0  0
  138.2820   72.1570  222.7620 N   0  0  0  0  0  0  0  0  0  0  0  0
  139.5800   72.1170  223.0560 C   0  0  0  0  0  0  0  0  0  0  0  0
  140.2610   71.2360  223.9430 C   0  0  0  0  0  0  0  0  0  0  0  0
  140.5610   71.3650  225.2060 C   0  0  0  0  0  0  0  0  0  0  0  0
  140.3830   70.2720  226.1740 C   0  0  0  0  0  0  0  0  0  0  0  0
  140.7020   70.4180  227.5010 C   0  0  0  0  0  0  0  0  0  0  0  0
  140.5070   69.3510  228.3440 C   0  0  0  0  0  0  0  0  0  0  0  0
  140.0040   68.1330  227.9240 C   0  0  0  0  0  0  0  0  0  0  0  0
  139.6940   68.0310  226.5700 C   0  0  0  0  0  0  0  0  0  0  0  0
  139.8930   69.0890  225.7650 N   0  0  0  0  0  0  0  0  0  0  0  0
  140.3570   73.0470  222.4130 N   0  0  0  0  0  0  0  0  0  0  0  0
  139.9060   73.9460  221.5560 C   0  0  0  0  0  0  0  0  0  0  0  0
  140.7930   74.8210  220.9840 C   0  0  0  0  0  0  0  0  0  0  0  0
  140.2630   75.7440  220.0890 C   0  0  0  0  0  0  0  0  0  0  0  0
  138.9190   75.7920  219.7820 C   0  0  0  0  0  0  0  0  0  0  0  0
  138.0670   74.9050  220.3710 C   0  0  0  0  0  0  0  0  0  0  0  0
  138.5670   73.9930  221.2500 C   0  0  0  0  0  0  0  0  0  0  0  0
  137.7620   73.0780  221.8720 C   0  0  0  0  0  0  0  0  0  0  0  0
  136.5380   73.1050  221.6050 O   0  0  0  0  0  0  0  0  0  0  0  0
  137.3210   69.9260  222.9820 C   0  0  0  0  0  0  0  0  0  0  0  0
  136.3170   69.1270  223.4890 C   0  0  0  0  0  0  0  0  0  0  0  0
  133.1510   66.8420  223.7480 H   0  0  0  0  0  0  0  0  0  0  0  0
  134.3020   66.3410  224.8550 H   0  0  0  0  0  0  0  0  0  0  0  0
  134.4706   71.3797  225.2445 H   0  0  0  0  0  0  0  0  0  0  0  0
  136.2456   72.8698  224.3618 H   0  0  0  0  0  0  0  0  0  0  0  0
  140.5885   70.2896  223.4879 H   0  0  0  0  0  0  0  0  0  0  0  0
  140.9617   72.3263  225.5600 H   0  0  0  0  0  0  0  0  0  0  0  0
  141.1049   71.3684  227.8811 H   0  0  0  0  0  0  0  0  0  0  0  0
  140.7639   69.4714  229.4068 H   0  0  0  0  0  0  0  0  0  0  0  0
  139.8572   67.2933  228.6192 H   0  0  0  0  0  0  0  0  0  0  0  0
  139.2897   67.0925  226.1628 H   0  0  0  0  0  0  0  0  0  0  0  0
  141.8670   74.7944  221.2205 H   0  0  0  0  0  0  0  0  0  0  0  0
  140.9415   76.4635  219.6074 H   0  0  0  0  0  0  0  0  0  0  0  0
  138.5383   76.5383  219.0692 H   0  0  0  0  0  0  0  0  0  0  0  0
  136.9918   74.9259  220.1395 H   0  0  0  0  0  0  0  0  0  0  0  0
  138.1160   69.5069  222.3478 H   0  0  0  0  0  0  0  0  0  0  0  0
  136.3236   68.0539  223.2475 H   0  0  0  0  0  0  0  0  0  0  0  0
  1  2  1  0
  2  3  2  0
  2  4  2  0
  2  5  1  0
  5  6  2  0
  6  7  1  0
  7  8  2  0
  8  9  1  0
  9 10  1  0
 10 11  1  0
 11 12  2  0
 12 13  1  0
 13 14  2  0
 14 15  1  0
 15 16  2  0
 16 17  1  0
 17 18  2  0
 10 19  2  0
 19 20  1  0
 20 21  2  0
 21 22  1  0
 22 23  2  0
 23 24  1  0
 24 25  2  0
 25 26  1  0
 26 27  2  0
  8 28  1  0
 28 29  2  0
 29  5  1  0
 26  9  1  0
 18 13  1  0
 25 20  1  0
  1 30  1  0
  1 31  1  0
  6 32  1  0
  7 33  1  0
 11 34  1  0
 12 35  1  0
 14 36  1  0
 15 37  1  0
 16 38  1  0
 17 39  1  0
 21 40  1  0
 22 41  1  0
 23 42  1  0
 24 43  1  0
 28 44  1  0
 29 45  1  0
M  END
>  <smiles>  (44) 
NS(=O)(=O)c1ccc(-n2c(/C=C/c3ccccn3)nc3ccccc3c2=O)cc1

>  <score_type>  (44) 
oracle

>  <origin>  (44) 
autodockgpu

>  <m_score__min__energy>  (44) 
-8.5600000000000005

>  <m_primary>  (44) 
energy

>  <rmsd>  (44) 
8.068498632843832

>  <m_score__min__rmsd>  (44) 
8.068498632843832

>  <meeko>  (44) 
{"free_energy": -7.29, "intermolecular_energy": -9.08, "internal_energy": -1.34, "cluster_size": 2, "cluster_id": 4, "rank_in_cluster": 2}

>  <energy>  (44) 
-6.8

>  <cluster_rmsd>  (44) 
1.21

>  <cluster>  (44) 
7

$$$$

     RDKit          3D

 45 48  0  0  0  0  0  0  0  0999 V2000
  144.2480   82.4620  216.6110 N   0  0  0  0  0  0  0  0  0  0  0  0
  142.6220   82.4090  217.1760 S   0  0  0  0  0  0  0  0  0  0  0  0
  142.3500   83.5160  218.1740 O   0  0  0  0  0  0  0  0  0  0  0  0
  141.6210   82.5790  216.0660 O   0  0  0  0  0  0  0  0  0  0  0  0
  142.3140   80.8510  217.9430 C   0  0  0  0  0  0  0  0  0  0  0  0
  142.2830   80.7790  219.3290 C   0  0  0  0  0  0  0  0  0  0  0  0
  142.0430   79.5580  219.9290 C   0  0  0  0  0  0  0  0  0  0  0  0
  141.8310   78.3990  219.1650 C   0  0  0  0  0  0  0  0  0  0  0  0
  141.6310   77.1390  219.7890 N   0  0  0  0  0  0  0  0  0  0  0  0
  140.5560   76.7940  220.4950 C   0  0  0  0  0  0  0  0  0  0  0  0
  139.3960   77.5690  220.7800 C   0  0  0  0  0  0  0  0  0  0  0  0
  139.1790   78.4690  221.6980 C   0  0  0  0  0  0  0  0  0  0  0  0
  140.2720   79.1120  222.4450 C   0  0  0  0  0  0  0  0  0  0  0  0
  141.2010   78.3820  223.1440 C   0  0  0  0  0  0  0  0  0  0  0  0
  142.1920   79.0550  223.8170 C   0  0  0  0  0  0  0  0  0  0  0  0
  142.3020   80.4340  223.8280 C   0  0  0  0  0  0  0  0  0  0  0  0
  141.3370   81.1320  223.1060 C   0  0  0  0  0  0  0  0  0  0  0  0
  140.3780   80.4520  222.4550 N   0  0  0  0  0  0  0  0  0  0  0  0
  140.5740   75.5220  221.0090 N   0  0  0  0  0  0  0  0  0  0  0  0
  141.5610   74.6580  220.8510 C   0  0  0  0  0  0  0  0  0  0  0  0
  141.4530   73.4160  221.4210 C   0  0  0  0  0  0  0  0  0  0  0  0
  142.5200   72.5470  221.2220 C   0  0  0  0  0  0  0  0  0  0  0  0
  143.6370   72.9000  220.4930 C   0  0  0  0  0  0  0  0  0  0  0  0
  143.7080   74.1440  219.9410 C   0  0  0  0  0  0  0  0  0  0  0  0
  142.6730   75.0090  220.1240 C   0  0  0  0  0  0  0  0  0  0  0  0
  142.6880   76.2720  219.5950 C   0  0  0  0  0  0  0  0  0  0  0  0
  143.6940   76.6090  218.9290 O   0  0  0  0  0  0  0  0  0  0  0  0
  141.8620   78.4750  217.7600 C   0  0  0  0  0  0  0  0  0  0  0  0
  142.1050   79.7080  217.1900 C   0  0  0  0  0  0  0  0  0  0  0  0
  144.3730   81.6630  215.9500 H   0  0  0  0  0  0  0  0  0  0  0  0
  144.8450   82.2750  217.4350 H   0  0  0  0  0  0  0  0  0  0  0  0
  142.4468   81.6793  219.9394 H   0  0  0  0  0  0  0  0  0  0  0  0
  142.0175   79.4924  221.0267 H   0  0  0  0  0  0  0  0  0  0  0  0
  138.5410   77.3764  220.1153 H   0  0  0  0  0  0  0  0  0  0  0  0
  138.1417   78.7582  221.9223 H   0  0  0  0  0  0  0  0  0  0  0  0
  141.1531   77.2832  223.1648 H   0  0  0  0  0  0  0  0  0  0  0  0
  142.9357   78.4675  224.3754 H   0  0  0  0  0  0  0  0  0  0  0  0
  143.1051   80.9493  224.3753 H   0  0  0  0  0  0  0  0  0  0  0  0
  141.3597   82.2311  223.0689 H   0  0  0  0  0  0  0  0  0  0  0  0
  140.5685   73.1222  222.0053 H   0  0  0  0  0  0  0  0  0  0  0  0
  142.4718   71.5401  221.6623 H   0  0  0  0  0  0  0  0  0  0  0  0
  144.4618   72.1847  220.3587 H   0  0  0  0  0  0  0  0  0  0  0  0
  144.5894   74.4449  219.3557 H   0  0  0  0  0  0  0  0  0  0  0  0
  141.6982   77.5827  217.1379 H   0  0  0  0  0  0  0  0  0  0  0  0
  142.1338   79.7860  216.0931 H   0  0  0  0  0  0  0  0  0  0  0  0
  1  2  1  0
  2  3  2  0
  2  4  2  0
  2  5  1  0
  5  6  2  0
  6  7  1  0
  7  8  2  0
  8  9  1  0
  9 10  1  0
 10 11  1  0
 11 12  2  0
 12 13  1  0
 13 14  2  0
 14 15  1  0
 15 16  2  0
 16 17  1  0
 17 18  2  0
 10 19  2  0
 19 20  1  0
 20 21  2  0
 21 22  1  0
 22 23  2  0
 23 24  1  0
 24 25  2  0
 25 26  1  0
 26 27  2  0
  8 28  1  0
 28 29  2  0
 29  5  1  0
 26  9  1  0
 18 13  1  0
 25 20  1  0
  1 30  1  0
  1 31  1  0
  6 32  1  0
  7 33  1  0
 11 34  1  0
 12 35  1  0
 14 36  1  0
 15 37  1  0
 16 38  1  0
 17 39  1  0
 21 40  1  0
 22 41  1  0
 23 42  1  0
 24 43  1  0
 28 44  1  0
 29 45  1  0
M  END
>  <smiles>  (45) 
NS(=O)(=O)c1ccc(-n2c(/C=C/c3ccccn3)nc3ccccc3c2=O)cc1

>  <score_type>  (45) 
oracle

>  <origin>  (45) 
autodockgpu

>  <m_score__min__energy>  (45) 
-8.5600000000000005

>  <m_primary>  (45) 
energy

>  <rmsd>  (45) 
7.001086559927503

>  <m_score__min__rmsd>  (45) 
7.001086559927503

>  <meeko>  (45) 
{"free_energy": -7.15, "intermolecular_energy": -8.94, "internal_energy": -1.69, "cluster_size": 21, "cluster_id": 7, "rank_in_cluster": 11}

>  <energy>  (45) 
-7.4

>  <cluster_rmsd>  (45) 
0.0

>  <cluster>  (45) 
8

$$$$

     RDKit          3D

 45 48  0  0  0  0  0  0  0  0999 V2000
  146.6030   69.6870  217.9780 N   0  0  0  0  0  0  0  0  0  0  0  0
  145.3610   68.9560  218.9220 S   0  0  0  0  0  0  0  0  0  0  0  0
  144.5570   67.9680  218.1020 O   0  0  0  0  0  0  0  0  0  0  0  0
  145.9050   68.1940  220.0980 O   0  0  0  0  0  0  0  0  0  0  0  0
  144.2800   70.2040  219.5430 C   0  0  0  0  0  0  0  0  0  0  0  0
  144.8290   71.3540  220.0970 C   0  0  0  0  0  0  0  0  0  0  0  0
  143.9820   72.3300  220.5830 C   0  0  0  0  0  0  0  0  0  0  0  0
  142.5860   72.1800  220.5260 C   0  0  0  0  0  0  0  0  0  0  0  0
  141.7230   73.1670  221.0710 N   0  0  0  0  0  0  0  0  0  0  0  0
  140.7270   72.9310  221.9220 C   0  0  0  0  0  0  0  0  0  0  0  0
  140.3050   71.6860  222.4690 C   0  0  0  0  0  0  0  0  0  0  0  0
  139.5120   71.4230  223.4700 C   0  0  0  0  0  0  0  0  0  0  0  0
  140.0180   71.0310  224.7950 C   0  0  0  0  0  0  0  0  0  0  0  0
  139.8620   69.7580  225.2840 C   0  0  0  0  0  0  0  0  0  0  0  0
  140.3620   69.4690  226.5310 C   0  0  0  0  0  0  0  0  0  0  0  0
  141.0170   70.3960  227.3210 C   0  0  0  0  0  0  0  0  0  0  0  0
  141.1510   71.6740  226.7830 C   0  0  0  0  0  0  0  0  0  0  0  0
  140.6540   71.9330  225.5620 N   0  0  0  0  0  0  0  0  0  0  0  0
  140.0200   74.0370  222.3200 N   0  0  0  0  0  0  0  0  0  0  0  0
  140.2630   75.2730  221.9200 C   0  0  0  0  0  0  0  0  0  0  0  0
  139.4760   76.2900  222.3950 C   0  0  0  0  0  0  0  0  0  0  0  0
  139.7770   77.5710  221.9420 C   0  0  0  0  0  0  0  0  0  0  0  0
  140.8080   77.8210  221.0590 C   0  0  0  0  0  0  0  0  0  0  0  0
  141.5680   76.7830  220.6080 C   0  0  0  0  0  0  0  0  0  0  0  0
  141.2890   75.5220  221.0410 C   0  0  0  0  0  0  0  0  0  0  0  0
  142.0170   74.4410  220.6230 C   0  0  0  0  0  0  0  0  0  0  0  0
  142.9570   74.6500  219.8220 O   0  0  0  0  0  0  0  0  0  0  0  0
  142.0330   71.0150  219.9640 C   0  0  0  0  0  0  0  0  0  0  0  0
  142.9050   70.0570  219.4880 C   0  0  0  0  0  0  0  0  0  0  0  0
  146.2230   69.8160  217.0130 H   0  0  0  0  0  0  0  0  0  0  0  0
  147.3660   68.9920  217.9180 H   0  0  0  0  0  0  0  0  0  0  0  0
  145.9201   71.4846  220.1475 H   0  0  0  0  0  0  0  0  0  0  0  0
  144.4085   73.2432  221.0236 H   0  0  0  0  0  0  0  0  0  0  0  0
  140.7159   70.7996  221.9636 H   0  0  0  0  0  0  0  0  0  0  0  0
  138.4250   71.4968  223.3185 H   0  0  0  0  0  0  0  0  0  0  0  0
  139.3485   68.9867  224.6912 H   0  0  0  0  0  0  0  0  0  0  0  0
  140.2347   68.4482  226.9207 H   0  0  0  0  0  0  0  0  0  0  0  0
  141.4093   70.1392  228.3161 H   0  0  0  0  0  0  0  0  0  0  0  0
  141.6598   72.4650  227.3535 H   0  0  0  0  0  0  0  0  0  0  0  0
  138.6501   76.1034  223.0972 H   0  0  0  0  0  0  0  0  0  0  0  0
  139.1707   78.4157  222.3010 H   0  0  0  0  0  0  0  0  0  0  0  0
  141.0144   78.8477  220.7225 H   0  0  0  0  0  0  0  0  0  0  0  0
  142.3947   76.9612  219.9045 H   0  0  0  0  0  0  0  0  0  0  0  0
  140.9438   70.8726  219.9060 H   0  0  0  0  0  0  0  0  0  0  0  0
  142.4900   69.1388  219.0467 H   0  0  0  0  0  0  0  0  0  0  0  0
  1  2  1  0
  2  3  2  0
  2  4  2  0
  2  5  1  0
  5  6  2  0
  6  7  1  0
  7  8  2  0
  8  9  1  0
  9 10  1  0
 10 11  1  0
 11 12  2  0
 12 13  1  0
 13 14  2  0
 14 15  1  0
 15 16  2  0
 16 17  1  0
 17 18  2  0
 10 19  2  0
 19 20  1  0
 20 21  2  0
 21 22  1  0
 22 23  2  0
 23 24  1  0
 24 25  2  0
 25 26  1  0
 26 27  2  0
  8 28  1  0
 28 29  2  0
 29  5  1  0
 26  9  1  0
 18 13  1  0
 25 20  1  0
  1 30  1  0
  1 31  1  0
  6 32  1  0
  7 33  1  0
 11 34  1  0
 12 35  1  0
 14 36  1  0
 15 37  1  0
 16 38  1  0
 17 39  1  0
 21 40  1  0
 22 41  1  0
 23 42  1  0
 24 43  1  0
 28 44  1  0
 29 45  1  0
M  END
>  <smiles>  (46) 
NS(=O)(=O)c1ccc(-n2c(/C=C/c3ccccn3)nc3ccccc3c2=O)cc1

>  <score_type>  (46) 
oracle

>  <origin>  (46) 
autodockgpu

>  <m_score__min__energy>  (46) 
-8.5600000000000005

>  <m_primary>  (46) 
energy

>  <rmsd>  (46) 
5.780487599429275

>  <m_score__min__rmsd>  (46) 
5.780487599429275

>  <meeko>  (46) 
{"free_energy": -8.4, "intermolecular_energy": -10.19, "internal_energy": -0.91, "cluster_size": 13, "cluster_id": 1, "rank_in_cluster": 3}

>  <energy>  (46) 
-6.82

>  <cluster_rmsd>  (46) 
0.0

>  <cluster>  (46) 
9

$$$$

     RDKit          3D

 45 48  0  0  0  0  0  0  0  0999 V2000
  132.3100   71.9440  227.7730 N   0  0  0  0  0  0  0  0  0  0  0  0
  132.8870   72.8300  226.4130 S   0  0  0  0  0  0  0  0  0  0  0  0
  131.7650   73.1410  225.4430 O   0  0  0  0  0  0  0  0  0  0  0  0
  133.4960   74.1490  226.8010 O   0  0  0  0  0  0  0  0  0  0  0  0
  134.1260   71.8900  225.5800 C   0  0  0  0  0  0  0  0  0  0  0  0
  134.8110   72.4710  224.5200 C   0  0  0  0  0  0  0  0  0  0  0  0
  135.7810   71.7340  223.8690 C   0  0  0  0  0  0  0  0  0  0  0  0
  136.0830   70.4190  224.2580 C   0  0  0  0  0  0  0  0  0  0  0  0
  137.0470   69.6520  223.5540 N   0  0  0  0  0  0  0  0  0  0  0  0
  138.3590   69.8850  223.5480 C   0  0  0  0  0  0  0  0  0  0  0  0
  139.0790   70.9130  224.2200 C   0  0  0  0  0  0  0  0  0  0  0  0
  140.1460   70.8550  224.9670 C   0  0  0  0  0  0  0  0  0  0  0  0
  140.2880   69.8870  226.0660 C   0  0  0  0  0  0  0  0  0  0  0  0
  139.9990   68.5560  225.9030 C   0  0  0  0  0  0  0  0  0  0  0  0
  140.1560   67.7140  226.9770 C   0  0  0  0  0  0  0  0  0  0  0  0
  140.5930   68.1400  228.2190 C   0  0  0  0  0  0  0  0  0  0  0  0
  140.8740   69.4990  228.3370 C   0  0  0  0  0  0  0  0  0  0  0  0
  140.7120   70.3020  227.2720 N   0  0  0  0  0  0  0  0  0  0  0  0
  139.1070   69.0150  222.7970 N   0  0  0  0  0  0  0  0  0  0  0  0
  138.6170   68.0010  222.1040 C   0  0  0  0  0  0  0  0  0  0  0  0
  139.4780   67.2070  221.3920 C   0  0  0  0  0  0  0  0  0  0  0  0
  138.9090   66.1550  220.6830 C   0  0  0  0  0  0  0  0  0  0  0  0
  137.5510   65.9100  220.6840 C   0  0  0  0  0  0  0  0  0  0  0  0
  136.7260   66.7220  221.4040 C   0  0  0  0  0  0  0  0  0  0  0  0
  137.2650   67.7570  222.1050 C   0  0  0  0  0  0  0  0  0  0  0  0
  136.4870   68.6050  222.8460 C   0  0  0  0  0  0  0  0  0  0  0  0
  135.2520   68.3970  222.8590 O   0  0  0  0  0  0  0  0  0  0  0  0
  135.3870   69.8330  225.3330 C   0  0  0  0  0  0  0  0  0  0  0  0
  134.4240   70.5940  225.9640 C   0  0  0  0  0  0  0  0  0  0  0  0
  131.7980   72.6170  228.3860 H   0  0  0  0  0  0  0  0  0  0  0  0
  133.1490   71.6330  228.2910 H   0  0  0  0  0  0  0  0  0  0  0  0
  134.5847   73.5002  224.2046 H   0  0  0  0  0  0  0  0  0  0  0  0
  136.3281   72.1864  223.0287 H   0  0  0  0  0  0  0  0  0  0  0  0
  138.6666   71.9241  224.0869 H   0  0  0  0  0  0  0  0  0  0  0  0
  140.9705   71.5556  224.7683 H   0  0  0  0  0  0  0  0  0  0  0  0
  139.6492   68.1714  224.9336 H   0  0  0  0  0  0  0  0  0  0  0  0
  139.9226   66.6474  226.8430 H   0  0  0  0  0  0  0  0  0  0  0  0
  140.7115   67.4457  229.0639 H   0  0  0  0  0  0  0  0  0  0  0  0
  141.2256   69.9115  229.2942 H   0  0  0  0  0  0  0  0  0  0  0  0
  140.5622   67.3924  221.3820 H   0  0  0  0  0  0  0  0  0  0  0  0
  139.5659   65.4933  220.0994 H   0  0  0  0  0  0  0  0  0  0  0  0
  137.1382   65.0677  220.1094 H   0  0  0  0  0  0  0  0  0  0  0  0
  135.6407   66.5435  221.4183 H   0  0  0  0  0  0  0  0  0  0  0  0
  135.6034   68.8047  225.6583 H   0  0  0  0  0  0  0  0  0  0  0  0
  133.8709   70.1527  226.8062 H   0  0  0  0  0  0  0  0  0  0  0  0
  1  2  1  0
  2  3  2  0
  2  4  2  0
  2  5  1  0
  5  6  2  0
  6  7  1  0
  7  8  2  0
  8  9  1  0
  9 10  1  0
 10 11  1  0
 11 12  2  0
 12 13  1  0
 13 14  2  0
 14 15  1  0
 15 16  2  0
 16 17  1  0
 17 18  2  0
 10 19  2  0
 19 20  1  0
 20 21  2  0
 21 22  1  0
 22 23  2  0
 23 24  1  0
 24 25  2  0
 25 26  1  0
 26 27  2  0
  8 28  1  0
 28 29  2  0
 29  5  1  0
 26  9  1  0
 18 13  1  0
 25 20  1  0
  1 30  1  0
  1 31  1  0
  6 32  1  0
  7 33  1  0
 11 34  1  0
 12 35  1  0
 14 36  1  0
 15 37  1  0
 16 38  1  0
 17 39  1  0
 21 40  1  0
 22 41  1  0
 23 42  1  0
 24 43  1  0
 28 44  1  0
 29 45  1  0
M  END
>  <smiles>  (47) 
NS(=O)(=O)c1ccc(-n2c(/C=C/c3ccccn3)nc3ccccc3c2=O)cc1

>  <score_type>  (47) 
oracle

>  <origin>  (47) 
autodockgpu

>  <m_score__min__energy>  (47) 
-8.5600000000000005

>  <m_primary>  (47) 
energy

>  <rmsd>  (47) 
12.81822521548321

>  <m_score__min__rmsd>  (47) 
12.81822521548321

>  <meeko>  (47) 
{"free_energy": -7.4, "intermolecular_energy": -9.19, "internal_energy": -1.36, "cluster_size": 1, "cluster_id": 8, "rank_in_cluster": 1}

>  <energy>  (47) 
-6.82

>  <cluster_rmsd>  (47) 
0.02

>  <cluster>  (47) 
9

$$$$

     RDKit          3D

 45 48  0  0  0  0  0  0  0  0999 V2000
  139.1910   67.3860  224.9400 N   0  0  0  0  0  0  0  0  0  0  0  0
  138.4710   68.9510  224.9800 S   0  0  0  0  0  0  0  0  0  0  0  0
  137.0320   68.9060  224.5070 O   0  0  0  0  0  0  0  0  0  0  0  0
  138.4490   69.5400  226.3630 O   0  0  0  0  0  0  0  0  0  0  0  0
  139.3850   70.0470  223.9430 C   0  0  0  0  0  0  0  0  0  0  0  0
  140.1710   71.0290  224.5310 C   0  0  0  0  0  0  0  0  0  0  0  0
  140.8860   71.8870  223.7170 C   0  0  0  0  0  0  0  0  0  0  0  0
  140.8320   71.7810  222.3170 C   0  0  0  0  0  0  0  0  0  0  0  0
  141.5320   72.6950  221.4880 N   0  0  0  0  0  0  0  0  0  0  0  0
  142.5610   72.3860  220.7010 C   0  0  0  0  0  0  0  0  0  0  0  0
  143.1790   71.1180  220.5080 C   0  0  0  0  0  0  0  0  0  0  0  0
  144.0650   70.7280  219.6350 C   0  0  0  0  0  0  0  0  0  0  0  0
  144.4340   69.3130  219.4640 C   0  0  0  0  0  0  0  0  0  0  0  0
  143.5180   68.3660  219.0810 C   0  0  0  0  0  0  0  0  0  0  0  0
  143.9390   67.0650  218.9420 C   0  0  0  0  0  0  0  0  0  0  0  0
  145.2420   66.6600  219.1690 C   0  0  0  0  0  0  0  0  0  0  0  0
  146.1350   67.6560  219.5560 C   0  0  0  0  0  0  0  0  0  0  0  0
  145.7000   68.9210  219.6840 N   0  0  0  0  0  0  0  0  0  0  0  0
  143.0880   73.4300  219.9850 N   0  0  0  0  0  0  0  0  0  0  0  0
  142.6490   74.6760  220.0320 C   0  0  0  0  0  0  0  0  0  0  0  0
  143.2690   75.6270  219.2640 C   0  0  0  0  0  0  0  0  0  0  0  0
  142.7660   76.9200  219.3520 C   0  0  0  0  0  0  0  0  0  0  0  0
  141.7010   77.2470  220.1670 C   0  0  0  0  0  0  0  0  0  0  0  0
  141.1110   76.2740  220.9170 C   0  0  0  0  0  0  0  0  0  0  0  0
  141.5890   75.0010  220.8430 C   0  0  0  0  0  0  0  0  0  0  0  0
  141.0370   73.9830  221.5730 C   0  0  0  0  0  0  0  0  0  0  0  0
  140.0690   74.2610  222.3170 O   0  0  0  0  0  0  0  0  0  0  0  0
  140.0350   70.7830  221.7250 C   0  0  0  0  0  0  0  0  0  0  0  0
  139.3320   69.9420  222.5630 C   0  0  0  0  0  0  0  0  0  0  0  0
  140.1500   67.4770  225.3440 H   0  0  0  0  0  0  0  0  0  0  0  0
  139.3000   67.1440  223.9410 H   0  0  0  0  0  0  0  0  0  0  0  0
  140.2237   71.1224  225.6258 H   0  0  0  0  0  0  0  0  0  0  0  0
  141.5101   72.6688  224.1745 H   0  0  0  0  0  0  0  0  0  0  0  0
  142.8550   70.3379  221.2126 H   0  0  0  0  0  0  0  0  0  0  0  0
  144.5548   71.4835  219.0031 H   0  0  0  0  0  0  0  0  0  0  0  0
  142.4705   68.6417  218.8895 H   0  0  0  0  0  0  0  0  0  0  0  0
  143.2027   66.3077  218.6348 H   0  0  0  0  0  0  0  0  0  0  0  0
  145.5547   65.6120  219.0507 H   0  0  0  0  0  0  0  0  0  0  0  0
  147.1882   67.4092  219.7554 H   0  0  0  0  0  0  0  0  0  0  0  0
  144.1200   75.3801  218.6122 H   0  0  0  0  0  0  0  0  0  0  0  0
  143.2343   77.7123  218.7495 H   0  0  0  0  0  0  0  0  0  0  0  0
  141.3323   78.2824  220.2107 H   0  0  0  0  0  0  0  0  0  0  0  0
  140.2609   76.5135  221.5727 H   0  0  0  0  0  0  0  0  0  0  0  0
  139.9748   70.6773  220.6318 H   0  0  0  0  0  0  0  0  0  0  0  0
  138.7042   69.1565  222.1171 H   0  0  0  0  0  0  0  0  0  0  0  0
  1  2  1  0
  2  3  2  0
  2  4  2  0
  2  5  1  0
  5  6  2  0
  6  7  1  0
  7  8  2  0
  8  9  1  0
  9 10  1  0
 10 11  1  0
 11 12  2  0
 12 13  1  0
 13 14  2  0
 14 15  1  0
 15 16  2  0
 16 17  1  0
 17 18  2  0
 10 19  2  0
 19 20  1  0
 20 21  2  0
 21 22  1  0
 22 23  2  0
 23 24  1  0
 24 25  2  0
 25 26  1  0
 26 27  2  0
  8 28  1  0
 28 29  2  0
 29  5  1  0
 26  9  1  0
 18 13  1  0
 25 20  1  0
  1 30  1  0
  1 31  1  0
  6 32  1  0
  7 33  1  0
 11 34  1  0
 12 35  1  0
 14 36  1  0
 15 37  1  0
 16 38  1  0
 17 39  1  0
 21 40  1  0
 22 41  1  0
 23 42  1  0
 24 43  1  0
 28 44  1  0
 29 45  1  0
M  END
>  <smiles>  (48) 
NS(=O)(=O)c1ccc(-n2c(/C=C/c3ccccn3)nc3ccccc3c2=O)cc1

>  <score_type>  (48) 
oracle

>  <origin>  (48) 
autodockgpu

>  <m_score__min__energy>  (48) 
-8.5600000000000005

>  <m_primary>  (48) 
energy

>  <rmsd>  (48) 
6.924750354214106

>  <m_score__min__rmsd>  (48) 
6.924750354214106

>  <meeko>  (48) 
{"free_energy": -7.6, "intermolecular_energy": -9.39, "internal_energy": -1.02, "cluster_size": 1, "cluster_id": 5, "rank_in_cluster": 1}

>  <energy>  (48) 
-6.8

>  <cluster_rmsd>  (48) 
0.11

>  <cluster>  (48) 
9

$$$$

     RDKit          3D

 45 48  0  0  0  0  0  0  0  0999 V2000
  145.9450   73.4450  218.1700 N   0  0  0  0  0  0  0  0  0  0  0  0
  145.8450   72.7280  219.7330 S   0  0  0  0  0  0  0  0  0  0  0  0
  146.3730   71.3080  219.7200 O   0  0  0  0  0  0  0  0  0  0  0  0
  146.6500   73.4750  220.7610 O   0  0  0  0  0  0  0  0  0  0  0  0
  144.1650   72.7150  220.2700 C   0  0  0  0  0  0  0  0  0  0  0  0
  143.5210   71.4960  220.4320 C   0  0  0  0  0  0  0  0  0  0  0  0
  142.2050   71.4870  220.8520 C   0  0  0  0  0  0  0  0  0  0  0  0
  141.5150   72.6820  221.1160 C   0  0  0  0  0  0  0  0  0  0  0  0
  140.1490   72.6670  221.5020 N   0  0  0  0  0  0  0  0  0  0  0  0
  139.6690   72.0950  222.6050 C   0  0  0  0  0  0  0  0  0  0  0  0
  140.3790   71.3930  223.6200 C   0  0  0  0  0  0  0  0  0  0  0  0
  140.3790   71.5410  224.9150 C   0  0  0  0  0  0  0  0  0  0  0  0
  140.4360   70.3980  225.8400 C   0  0  0  0  0  0  0  0  0  0  0  0
  140.7260   70.5560  227.1720 C   0  0  0  0  0  0  0  0  0  0  0  0
  140.7600   69.4400  227.9730 C   0  0  0  0  0  0  0  0  0  0  0  0
  140.5170   68.1610  227.5040 C   0  0  0  0  0  0  0  0  0  0  0  0
  140.2270   68.0500  226.1470 C   0  0  0  0  0  0  0  0  0  0  0  0
  140.1990   69.1560  225.3840 N   0  0  0  0  0  0  0  0  0  0  0  0
  138.3130   72.2020  222.7800 N   0  0  0  0  0  0  0  0  0  0  0  0
  137.4900   72.8140  221.9470 C   0  0  0  0  0  0  0  0  0  0  0  0
  136.1520   72.8470  222.2410 C   0  0  0  0  0  0  0  0  0  0  0  0
  135.3320   73.5060  221.3300 C   0  0  0  0  0  0  0  0  0  0  0  0
  135.8240   74.0990  220.1860 C   0  0  0  0  0  0  0  0  0  0  0  0
  137.1610   74.0450  219.9270 C   0  0  0  0  0  0  0  0  0  0  0  0
  137.9800   73.4050  220.8070 C   0  0  0  0  0  0  0  0  0  0  0  0
  139.3300   73.3190  220.6010 C   0  0  0  0  0  0  0  0  0  0  0  0
  139.7940   73.8530  219.5670 O   0  0  0  0  0  0  0  0  0  0  0  0
  142.1710   73.9160  220.9510 C   0  0  0  0  0  0  0  0  0  0  0  0
  143.4850   73.8930  220.5300 C   0  0  0  0  0  0  0  0  0  0  0  0
  146.8500   73.9650  218.1240 H   0  0  0  0  0  0  0  0  0  0  0  0
  145.1860   74.1470  218.1260 H   0  0  0  0  0  0  0  0  0  0  0  0
  144.0497   70.5530  220.2293 H   0  0  0  0  0  0  0  0  0  0  0  0
  141.6872   70.5253  220.9823 H   0  0  0  0  0  0  0  0  0  0  0  0
  141.0368   70.5928  223.2498 H   0  0  0  0  0  0  0  0  0  0  0  0
  140.3347   72.5580  225.3318 H   0  0  0  0  0  0  0  0  0  0  0  0
  140.9268   71.5538  227.5892 H   0  0  0  0  0  0  0  0  0  0  0  0
  140.9920   69.5698  229.0404 H   0  0  0  0  0  0  0  0  0  0  0  0
  140.5510   67.2827  228.1653 H   0  0  0  0  0  0  0  0  0  0  0  0
  140.0224   67.0648  225.7027 H   0  0  0  0  0  0  0  0  0  0  0  0
  135.7473   72.3772  223.1495 H   0  0  0  0  0  0  0  0  0  0  0  0
  134.2514   73.5558  221.5297 H   0  0  0  0  0  0  0  0  0  0  0  0
  135.1437   74.6107  219.4893 H   0  0  0  0  0  0  0  0  0  0  0  0
  137.5727   74.5117  219.0200 H   0  0  0  0  0  0  0  0  0  0  0  0
  141.6542   74.8662  221.1508 H   0  0  0  0  0  0  0  0  0  0  0  0
  144.0133   74.8484  220.3956 H   0  0  0  0  0  0  0  0  0  0  0  0
  1  2  1  0
  2  3  2  0
  2  4  2  0
  2  5  1  0
  5  6  2  0
  6  7  1  0
  7  8  2  0
  8  9  1  0
  9 10  1  0
 10 11  1  0
 11 12  2  0
 12 13  1  0
 13 14  2  0
 14 15  1  0
 15 16  2  0
 16 17  1  0
 17 18  2  0
 10 19  2  0
 19 20  1  0
 20 21  2  0
 21 22  1  0
 22 23  2  0
 23 24  1  0
 24 25  2  0
 25 26  1  0
 26 27  2  0
  8 28  1  0
 28 29  2  0
 29  5  1  0
 26  9  1  0
 18 13  1  0
 25 20  1  0
  1 30  1  0
  1 31  1  0
  6 32  1  0
  7 33  1  0
 11 34  1  0
 12 35  1  0
 14 36  1  0
 15 37  1  0
 16 38  1  0
 17 39  1  0
 21 40  1  0
 22 41  1  0
 23 42  1  0
 24 43  1  0
 28 44  1  0
 29 45  1  0
M  END
>  <smiles>  (49) 
NS(=O)(=O)c1ccc(-n2c(/C=C/c3ccccn3)nc3ccccc3c2=O)cc1

>  <score_type>  (49) 
oracle

>  <origin>  (49) 
autodockgpu

>  <m_score__min__energy>  (49) 
-8.5600000000000005

>  <m_primary>  (49) 
energy

>  <rmsd>  (49) 
7.612144298955489

>  <m_score__min__rmsd>  (49) 
7.612144298955489

>  <meeko>  (49) 
{"free_energy": -7.75, "intermolecular_energy": -9.54, "internal_energy": -0.96, "cluster_size": 1, "cluster_id": 3, "rank_in_cluster": 1}

>  <energy>  (49) 
-6.77

>  <cluster_rmsd>  (49) 
0.48

>  <cluster>  (49) 
9

$$$$

     RDKit          3D

 45 48  0  0  0  0  0  0  0  0999 V2000
  143.9860   81.7660  217.4470 N   0  0  0  0  0  0  0  0  0  0  0  0
  142.2880   81.6320  217.7050 S   0  0  0  0  0  0  0  0  0  0  0  0
  141.7620   82.7970  218.5180 O   0  0  0  0  0  0  0  0  0  0  0  0
  141.5090   81.6200  216.4190 O   0  0  0  0  0  0  0  0  0  0  0  0
  141.9390   80.1280  218.5580 C   0  0  0  0  0  0  0  0  0  0  0  0
  141.4260   79.0530  217.8440 C   0  0  0  0  0  0  0  0  0  0  0  0
  141.1520   77.8760  218.5130 C   0  0  0  0  0  0  0  0  0  0  0  0
  141.3840   77.7510  219.8930 C   0  0  0  0  0  0  0  0  0  0  0  0
  141.0570   76.5530  220.5820 N   0  0  0  0  0  0  0  0  0  0  0  0
  140.0800   76.4250  221.4780 C   0  0  0  0  0  0  0  0  0  0  0  0
  139.1660   77.4140  221.9400 C   0  0  0  0  0  0  0  0  0  0  0  0
  139.2140   78.1960  222.9820 C   0  0  0  0  0  0  0  0  0  0  0  0
  140.2660   79.2090  223.1610 C   0  0  0  0  0  0  0  0  0  0  0  0
  141.4520   78.9200  223.7880 C   0  0  0  0  0  0  0  0  0  0  0  0
  142.3860   79.9190  223.9170 C   0  0  0  0  0  0  0  0  0  0  0  0
  142.1930   81.2050  223.4440 C   0  0  0  0  0  0  0  0  0  0  0  0
  140.9760   81.4510  222.8150 C   0  0  0  0  0  0  0  0  0  0  0  0
  140.0780   80.4570  222.7010 N   0  0  0  0  0  0  0  0  0  0  0  0
  139.9410   75.1730  222.0210 N   0  0  0  0  0  0  0  0  0  0  0  0
  140.6950   74.1300  221.7170 C   0  0  0  0  0  0  0  0  0  0  0  0
  140.4490   72.9330  222.3370 C   0  0  0  0  0  0  0  0  0  0  0  0
  141.2720   71.8690  221.9780 C   0  0  0  0  0  0  0  0  0  0  0  0
  142.2850   71.9970  221.0520 C   0  0  0  0  0  0  0  0  0  0  0  0
  142.5000   73.2040  220.4570 C   0  0  0  0  0  0  0  0  0  0  0  0
  141.7050   74.2570  220.7940 C   0  0  0  0  0  0  0  0  0  0  0  0
  141.8710   75.4940  220.2310 C   0  0  0  0  0  0  0  0  0  0  0  0
  142.7870   75.6270  219.3870 O   0  0  0  0  0  0  0  0  0  0  0  0
  141.9050   78.8410  220.6140 C   0  0  0  0  0  0  0  0  0  0  0  0
  142.1670   80.0040  219.9180 C   0  0  0  0  0  0  0  0  0  0  0  0
  144.1410   81.7900  216.4130 H   0  0  0  0  0  0  0  0  0  0  0  0
  144.4010   80.8870  217.7990 H   0  0  0  0  0  0  0  0  0  0  0  0
  141.2408   79.1375  216.7630 H   0  0  0  0  0  0  0  0  0  0  0  0
  140.7444   77.0203  217.9547 H   0  0  0  0  0  0  0  0  0  0  0  0
  138.2704   77.5391  221.3136 H   0  0  0  0  0  0  0  0  0  0  0  0
  138.4392   78.0947  223.7562 H   0  0  0  0  0  0  0  0  0  0  0  0
  141.6503   77.9110  224.1785 H   0  0  0  0  0  0  0  0  0  0  0  0
  143.3350   79.6849  224.4217 H   0  0  0  0  0  0  0  0  0  0  0  0
  142.9573   81.9878  223.5585 H   0  0  0  0  0  0  0  0  0  0  0  0
  140.7508   82.4504  222.4145 H   0  0  0  0  0  0  0  0  0  0  0  0
  139.6445   72.8189  223.0785 H   0  0  0  0  0  0  0  0  0  0  0  0
  141.1077   70.8896  222.4510 H   0  0  0  0  0  0  0  0  0  0  0  0
  142.9145   71.1322  220.7955 H   0  0  0  0  0  0  0  0  0  0  0  0
  143.3035   73.3258  219.7157 H   0  0  0  0  0  0  0  0  0  0  0  0
  142.0969   78.7690  221.6947 H   0  0  0  0  0  0  0  0  0  0  0  0
  142.5733   80.8669  220.4660 H   0  0  0  0  0  0  0  0  0  0  0  0
  1  2  1  0
  2  3  2  0
  2  4  2  0
  2  5  1  0
  5  6  2  0
  6  7  1  0
  7  8  2  0
  8  9  1  0
  9 10  1  0
 10 11  1  0
 11 12  2  0
 12 13  1  0
 13 14  2  0
 14 15  1  0
 15 16  2  0
 16 17  1  0
 17 18  2  0
 10 19  2  0
 19 20  1  0
 20 21  2  0
 21 22  1  0
 22 23  2  0
 23 24  1  0
 24 25  2  0
 25 26  1  0
 26 27  2  0
  8 28  1  0
 28 29  2  0
 29  5  1  0
 26  9  1  0
 18 13  1  0
 25 20  1  0
  1 30  1  0
  1 31  1  0
  6 32  1  0
  7 33  1  0
 11 34  1  0
 12 35  1  0
 14 36  1  0
 15 37  1  0
 16 38  1  0
 17 39  1  0
 21 40  1  0
 22 41  1  0
 23 42  1  0
 24 43  1  0
 28 44  1  0
 29 45  1  0
M  END
>  <smiles>  (50) 
NS(=O)(=O)c1ccc(-n2c(/C=C/c3ccccn3)nc3ccccc3c2=O)cc1

>  <score_type>  (50) 
oracle

>  <origin>  (50) 
autodockgpu

>  <m_score__min__energy>  (50) 
-8.5600000000000005

>  <m_primary>  (50) 
energy

>  <rmsd>  (50) 
7.1161548121655125

>  <m_score__min__rmsd>  (50) 
7.1161548121655125

>  <meeko>  (50) 
{"free_energy": -7.14, "intermolecular_energy": -8.93, "internal_energy": -1.64, "cluster_size": 21, "cluster_id": 7, "rank_in_cluster": 12}

>  <energy>  (50) 
-6.32

>  <cluster_rmsd>  (50) 
0.0

>  <cluster>  (50) 
10

$$$$
