
     RDKit          3D

 64 68  0  0  0  0  0  0  0  0999 V2000
  140.8870   68.1540  228.0060 C   0  0  0  0  0  0  0  0  0  0  0  0
  140.6900   69.5150  228.0560 C   0  0  0  0  0  0  0  0  0  0  0  0
  140.1370   70.2100  226.9850 C   0  0  0  0  0  0  0  0  0  0  0  0
  139.7820   69.4880  225.8490 C   0  0  0  0  0  0  0  0  0  0  0  0
  139.1820   70.2150  224.6790 C   0  0  0  0  0  0  0  0  0  0  0  0
  140.1260   71.3270  224.2980 C   0  0  0  0  0  0  0  0  0  0  0  0
  140.2910   71.4420  222.8040 C   0  0  0  0  0  0  0  0  0  0  0  0
  140.6570   72.7860  222.4020 N   0  0  0  0  0  0  0  0  0  0  0  0
  139.6440   73.7490  222.1260 C   0  0  0  0  0  0  0  0  0  0  0  0
  138.3480   73.3890  221.9700 N   0  0  0  0  0  0  0  0  0  0  0  0
  137.3880   74.3100  221.7070 C   0  0  0  0  0  0  0  0  0  0  0  0
  136.0180   73.9490  221.5400 N   0  0  0  0  0  0  0  0  0  0  0  0
  135.0310   74.3450  222.5290 C   0  0  0  0  0  0  0  0  0  0  0  0
  134.9000   75.8330  222.4800 C   0  0  0  0  0  0  0  0  0  0  0  0
  135.5900   76.3180  223.7170 C   0  0  0  0  0  0  0  0  0  0  0  0
  135.5230   75.2210  224.7360 C   0  0  0  0  0  0  0  0  0  0  0  0
  135.5820   73.9860  223.8870 C   0  0  0  0  0  0  0  0  0  0  0  0
  137.7530   75.6220  221.6030 N   0  0  0  0  0  0  0  0  0  0  0  0
  139.0390   76.0010  221.7560 C   0  0  0  0  0  0  0  0  0  0  0  0
  139.4320   77.3630  221.6490 N   0  0  0  0  0  0  0  0  0  0  0  0
  138.4960   78.4660  221.7690 C   0  0  0  0  0  0  0  0  0  0  0  0
  138.8100   79.2150  223.0390 C   0  0  0  0  0  0  0  0  0  0  0  0
  140.2620   79.5100  223.0450 C   0  0  0  0  0  0  0  0  0  0  0  0
  140.6920   80.5470  223.8450 C   0  0  0  0  0  0  0  0  0  0  0  0
  142.0140   80.8920  223.9150 C   0  0  0  0  0  0  0  0  0  0  0  0
  142.9650   80.2010  223.1740 C   0  0  0  0  0  0  0  0  0  0  0  0
  142.5360   79.1540  222.3650 C   0  0  0  0  0  0  0  0  0  0  0  0
  141.1870   78.8090  222.3000 C   0  0  0  0  0  0  0  0  0  0  0  0
  140.8310   77.6780  221.4090 C   0  0  0  0  0  0  0  0  0  0  0  0
  139.9350   75.0450  222.0120 N   0  0  0  0  0  0  0  0  0  0  0  0
  139.9750   68.1130  225.7820 C   0  0  0  0  0  0  0  0  0  0  0  0
  140.5270   67.4630  226.8650 C   0  0  0  0  0  0  0  0  0  0  0  0
  141.3256   67.6229  228.8636 H   0  0  0  0  0  0  0  0  0  0  0  0
  140.9764   70.0663  228.9638 H   0  0  0  0  0  0  0  0  0  0  0  0
  139.9847   71.2983  227.0345 H   0  0  0  0  0  0  0  0  0  0  0  0
  139.0563   69.5237  223.8327 H   0  0  0  0  0  0  0  0  0  0  0  0
  138.1944   70.6212  224.9428 H   0  0  0  0  0  0  0  0  0  0  0  0
  139.7299   72.2772  224.6856 H   0  0  0  0  0  0  0  0  0  0  0  0
  141.1110   71.0995  224.7317 H   0  0  0  0  0  0  0  0  0  0  0  0
  141.0788   70.7466  222.4787 H   0  0  0  0  0  0  0  0  0  0  0  0
  139.3268   71.1967  222.3348 H   0  0  0  0  0  0  0  0  0  0  0  0
  141.6410   73.0520  222.3120 H   0  0  0  0  0  0  0  0  0  0  0  0
  135.7720   73.4000  220.6890 H   0  0  0  0  0  0  0  0  0  0  0  0
  134.0642   73.8551  222.3409 H   0  0  0  0  0  0  0  0  0  0  0  0
  135.3885   76.2357  221.5805 H   0  0  0  0  0  0  0  0  0  0  0  0
  133.8495   76.1564  222.4363 H   0  0  0  0  0  0  0  0  0  0  0  0
  136.6399   76.5561  223.4914 H   0  0  0  0  0  0  0  0  0  0  0  0
  135.1033   77.2280  224.0980 H   0  0  0  0  0  0  0  0  0  0  0  0
  136.3765   75.2687  225.4283 H   0  0  0  0  0  0  0  0  0  0  0  0
  134.6300   75.2709  225.3763 H   0  0  0  0  0  0  0  0  0  0  0  0
  136.6233   73.6446  223.7919 H   0  0  0  0  0  0  0  0  0  0  0  0
  134.9957   73.1739  224.3416 H   0  0  0  0  0  0  0  0  0  0  0  0
  138.6003   79.1385  220.9048 H   0  0  0  0  0  0  0  0  0  0  0  0
  137.4638   78.0867  221.7972 H   0  0  0  0  0  0  0  0  0  0  0  0
  138.2375   80.1537  223.0708 H   0  0  0  0  0  0  0  0  0  0  0  0
  138.5373   78.6119  223.9176 H   0  0  0  0  0  0  0  0  0  0  0  0
  139.9567   81.1089  224.4396 H   0  0  0  0  0  0  0  0  0  0  0  0
  142.3269   81.7236  224.5635 H   0  0  0  0  0  0  0  0  0  0  0  0
  144.0291   80.4748  223.2258 H   0  0  0  0  0  0  0  0  0  0  0  0
  143.2701   78.5915  221.7694 H   0  0  0  0  0  0  0  0  0  0  0  0
  140.9770   77.9666  220.3576 H   0  0  0  0  0  0  0  0  0  0  0  0
  141.4678   76.8049  221.6142 H   0  0  0  0  0  0  0  0  0  0  0  0
  139.6917   67.5525  224.8789 H   0  0  0  0  0  0  0  0  0  0  0  0
  140.6836   66.3751  226.8201 H   0  0  0  0  0  0  0  0  0  0  0  0
  1  2  2  0
  2  3  1  0
  3  4  2  0
  4  5  1  0
  5  6  1  0
  6  7  1  0
  7  8  1  0
  8  9  1  0
  9 10  2  0
 10 11  1  0
 11 12  1  0
 12 13  1  0
 13 14  1  0
 14 15  1  0
 15 16  1  0
 16 17  1  0
 11 18  2  0
 18 19  1  0
 19 20  1  0
 20 21  1  0
 21 22  1  0
 22 23  1  0
 23 24  2  0
 24 25  1  0
 25 26  2  0
 26 27  1  0
 27 28  2  0
 28 29  1  0
 19 30  2  0
  4 31  1  0
 31 32  2  0
 32  1  1  0
 30  9  1  0
 17 13  1  0
 29 20  1  0
 28 23  1  0
  1 33  1  0
  2 34  1  0
  3 35  1  0
  5 36  1  0
  5 37  1  0
  6 38  1  0
  6 39  1  0
  7 40  1  0
  7 41  1  0
  8 42  1  0
 12 43  1  0
 13 44  1  0
 14 45  1  0
 14 46  1  0
 15 47  1  0
 15 48  1  0
 16 49  1  0
 16 50  1  0
 17 51  1  0
 17 52  1  0
 21 53  1  0
 21 54  1  0
 22 55  1  0
 22 56  1  0
 24 57  1  0
 25 58  1  0
 26 59  1  0
 27 60  1  0
 29 61  1  0
 29 62  1  0
 31 63  1  0
 32 64  1  0
M  END
>  <smiles>  (1) 
c1ccc(CCCNc2nc(NC3CCCC3)nc(N3CCc4ccccc4C3)n2)cc1

>  <score_type>  (1) 
oracle

>  <origin>  (1) 
autodockgpu

>  <m_score__min__energy>  (1) 
-10.24

>  <m_primary>  (1) 
energy

>  <rmsd>  (1) 
1.633580761440289

>  <m_score__min__rmsd>  (1) 
1.633580761440289

>  <meeko>  (1) 
{"free_energy": -8.4, "intermolecular_energy": -10.79, "internal_energy": -1.44, "cluster_size": 1, "cluster_id": 5, "rank_in_cluster": 1}

>  <energy>  (1) 
-10.24

>  <cluster_rmsd>  (1) 
0.0

>  <cluster>  (1) 
1

$$$$

     RDKit          3D

 64 68  0  0  0  0  0  0  0  0999 V2000
  142.3420   81.5720  223.8640 C   0  0  0  0  0  0  0  0  0  0  0  0
  141.5860   81.8440  222.7460 C   0  0  0  0  0  0  0  0  0  0  0  0
  141.0680   80.8250  221.9530 C   0  0  0  0  0  0  0  0  0  0  0  0
  141.3350   79.5090  222.3200 C   0  0  0  0  0  0  0  0  0  0  0  0
  140.7880   78.3900  221.4800 C   0  0  0  0  0  0  0  0  0  0  0  0
  139.8280   77.6030  222.3350 C   0  0  0  0  0  0  0  0  0  0  0  0
  139.6760   76.1820  221.8530 C   0  0  0  0  0  0  0  0  0  0  0  0
  140.9570   75.5170  221.7170 N   0  0  0  0  0  0  0  0  0  0  0  0
  141.0260   74.0940  221.7160 C   0  0  0  0  0  0  0  0  0  0  0  0
  141.7160   73.4190  220.7670 N   0  0  0  0  0  0  0  0  0  0  0  0
  141.7780   72.0640  220.7710 C   0  0  0  0  0  0  0  0  0  0  0  0
  142.5010   71.3370  219.7790 N   0  0  0  0  0  0  0  0  0  0  0  0
  143.9180   71.5860  219.5760 C   0  0  0  0  0  0  0  0  0  0  0  0
  144.4530   72.2370  220.8110 C   0  0  0  0  0  0  0  0  0  0  0  0
  144.6640   73.6690  220.4270 C   0  0  0  0  0  0  0  0  0  0  0  0
  144.8970   73.7140  218.9470 C   0  0  0  0  0  0  0  0  0  0  0  0
  144.0460   72.5840  218.4510 C   0  0  0  0  0  0  0  0  0  0  0  0
  141.1280   71.3840  221.7600 N   0  0  0  0  0  0  0  0  0  0  0  0
  140.4350   72.0380  222.7150 C   0  0  0  0  0  0  0  0  0  0  0  0
  139.7530   71.3420  223.7500 N   0  0  0  0  0  0  0  0  0  0  0  0
  138.5500   70.5630  223.5160 C   0  0  0  0  0  0  0  0  0  0  0  0
  138.8810   69.1080  223.7290 C   0  0  0  0  0  0  0  0  0  0  0  0
  139.5650   68.9840  225.0370 C   0  0  0  0  0  0  0  0  0  0  0  0
  139.5530   67.7450  225.6410 C   0  0  0  0  0  0  0  0  0  0  0  0
  140.1590   67.5360  226.8500 C   0  0  0  0  0  0  0  0  0  0  0  0
  140.8060   68.5760  227.5050 C   0  0  0  0  0  0  0  0  0  0  0  0
  140.8210   69.8280  226.9000 C   0  0  0  0  0  0  0  0  0  0  0  0
  140.2010   70.0330  225.6690 C   0  0  0  0  0  0  0  0  0  0  0  0
  140.2720   71.4030  225.1060 C   0  0  0  0  0  0  0  0  0  0  0  0
  140.4130   73.3720  222.6540 N   0  0  0  0  0  0  0  0  0  0  0  0
  142.0960   79.2180  223.4460 C   0  0  0  0  0  0  0  0  0  0  0  0
  142.5910   80.2570  224.2040 C   0  0  0  0  0  0  0  0  0  0  0  0
  142.7425   82.3917  224.4785 H   0  0  0  0  0  0  0  0  0  0  0  0
  141.3870   82.8910  222.4735 H   0  0  0  0  0  0  0  0  0  0  0  0
  140.4648   81.0526  221.0617 H   0  0  0  0  0  0  0  0  0  0  0  0
  140.2613   78.8005  220.6059 H   0  0  0  0  0  0  0  0  0  0  0  0
  141.6026   77.7441  221.1205 H   0  0  0  0  0  0  0  0  0  0  0  0
  140.2029   77.5890  223.3690 H   0  0  0  0  0  0  0  0  0  0  0  0
  138.8430   78.0891  222.2753 H   0  0  0  0  0  0  0  0  0  0  0  0
  139.0613   75.6253  222.5756 H   0  0  0  0  0  0  0  0  0  0  0  0
  139.1984   76.2074  220.8624 H   0  0  0  0  0  0  0  0  0  0  0  0
  141.8180   76.0620  221.6230 H   0  0  0  0  0  0  0  0  0  0  0  0
  141.9690   70.6350  219.2230 H   0  0  0  0  0  0  0  0  0  0  0  0
  144.4554   70.6523  219.3536 H   0  0  0  0  0  0  0  0  0  0  0  0
  143.7285   72.1594  221.6350 H   0  0  0  0  0  0  0  0  0  0  0  0
  145.3796   71.7605  221.1638 H   0  0  0  0  0  0  0  0  0  0  0  0
  143.7733   74.2611  220.6843 H   0  0  0  0  0  0  0  0  0  0  0  0
  145.5259   74.0895  220.9658 H   0  0  0  0  0  0  0  0  0  0  0  0
  144.5700   74.6744  218.5220 H   0  0  0  0  0  0  0  0  0  0  0  0
  145.9566   73.6213  218.6665 H   0  0  0  0  0  0  0  0  0  0  0  0
  143.0518   72.9591  218.1666 H   0  0  0  0  0  0  0  0  0  0  0  0
  144.5014   72.1149  217.5664 H   0  0  0  0  0  0  0  0  0  0  0  0
  137.7633   70.8726  224.2198 H   0  0  0  0  0  0  0  0  0  0  0  0
  138.1875   70.7235  222.4899 H   0  0  0  0  0  0  0  0  0  0  0  0
  137.9571   68.5110  223.7322 H   0  0  0  0  0  0  0  0  0  0  0  0
  139.5299   68.7401  222.9206 H   0  0  0  0  0  0  0  0  0  0  0  0
  139.0457   66.9069  225.1408 H   0  0  0  0  0  0  0  0  0  0  0  0
  140.1335   66.5358  227.3070 H   0  0  0  0  0  0  0  0  0  0  0  0
  141.2940   68.4134  228.4773 H   0  0  0  0  0  0  0  0  0  0  0  0
  141.3284   70.6667  227.3992 H   0  0  0  0  0  0  0  0  0  0  0  0
  139.6629   72.0905  225.7113 H   0  0  0  0  0  0  0  0  0  0  0  0
  141.3084   71.7715  225.1094 H   0  0  0  0  0  0  0  0  0  0  0  0
  142.3000   78.1745  223.7278 H   0  0  0  0  0  0  0  0  0  0  0  0
  143.1953   80.0348  225.0959 H   0  0  0  0  0  0  0  0  0  0  0  0
  1  2  2  0
  2  3  1  0
  3  4  2  0
  4  5  1  0
  5  6  1  0
  6  7  1  0
  7  8  1  0
  8  9  1  0
  9 10  2  0
 10 11  1  0
 11 12  1  0
 12 13  1  0
 13 14  1  0
 14 15  1  0
 15 16  1  0
 16 17  1  0
 11 18  2  0
 18 19  1  0
 19 20  1  0
 20 21  1  0
 21 22  1  0
 22 23  1  0
 23 24  2  0
 24 25  1  0
 25 26  2  0
 26 27  1  0
 27 28  2  0
 28 29  1  0
 19 30  2  0
  4 31  1  0
 31 32  2  0
 32  1  1  0
 30  9  1  0
 17 13  1  0
 29 20  1  0
 28 23  1  0
  1 33  1  0
  2 34  1  0
  3 35  1  0
  5 36  1  0
  5 37  1  0
  6 38  1  0
  6 39  1  0
  7 40  1  0
  7 41  1  0
  8 42  1  0
 12 43  1  0
 13 44  1  0
 14 45  1  0
 14 46  1  0
 15 47  1  0
 15 48  1  0
 16 49  1  0
 16 50  1  0
 17 51  1  0
 17 52  1  0
 21 53  1  0
 21 54  1  0
 22 55  1  0
 22 56  1  0
 24 57  1  0
 25 58  1  0
 26 59  1  0
 27 60  1  0
 29 61  1  0
 29 62  1  0
 31 63  1  0
 32 64  1  0
M  END
>  <smiles>  (2) 
c1ccc(CCCNc2nc(NC3CCCC3)nc(N3CCc4ccccc4C3)n2)cc1

>  <score_type>  (2) 
oracle

>  <origin>  (2) 
autodockgpu

>  <m_score__min__energy>  (2) 
-10.24

>  <m_primary>  (2) 
energy

>  <rmsd>  (2) 
10.014981899109793

>  <m_score__min__rmsd>  (2) 
10.014981899109793

>  <meeko>  (2) 
{"free_energy": -9.33, "intermolecular_energy": -11.71, "internal_energy": -1.12, "cluster_size": 39, "cluster_id": 1, "rank_in_cluster": 22}

>  <energy>  (2) 
-10.24

>  <cluster_rmsd>  (2) 
0.99

>  <cluster>  (2) 
1

$$$$

     RDKit          3D

 64 68  0  0  0  0  0  0  0  0999 V2000
  140.9890   68.2460  227.8590 C   0  0  0  0  0  0  0  0  0  0  0  0
  140.3720   67.6230  226.7980 C   0  0  0  0  0  0  0  0  0  0  0  0
  139.6870   68.3470  225.8270 C   0  0  0  0  0  0  0  0  0  0  0  0
  139.6410   69.7330  225.9550 C   0  0  0  0  0  0  0  0  0  0  0  0
  138.9070   70.5380  224.9210 C   0  0  0  0  0  0  0  0  0  0  0  0
  139.5250   70.2330  223.5810 C   0  0  0  0  0  0  0  0  0  0  0  0
  140.5970   71.2290  223.2130 C   0  0  0  0  0  0  0  0  0  0  0  0
  140.0500   72.5510  222.9790 N   0  0  0  0  0  0  0  0  0  0  0  0
  140.6020   73.3830  221.9630 C   0  0  0  0  0  0  0  0  0  0  0  0
  141.3560   72.8720  220.9620 N   0  0  0  0  0  0  0  0  0  0  0  0
  141.8790   73.6680  219.9970 C   0  0  0  0  0  0  0  0  0  0  0  0
  142.6760   73.1460  218.9340 N   0  0  0  0  0  0  0  0  0  0  0  0
  144.1220   73.2700  218.9760 C   0  0  0  0  0  0  0  0  0  0  0  0
  144.6640   72.1010  219.7340 C   0  0  0  0  0  0  0  0  0  0  0  0
  145.0850   72.6640  221.0560 C   0  0  0  0  0  0  0  0  0  0  0  0
  145.4090   74.1130  220.8510 C   0  0  0  0  0  0  0  0  0  0  0  0
  144.4480   74.5100  219.7710 C   0  0  0  0  0  0  0  0  0  0  0  0
  141.6290   75.0090  220.0510 N   0  0  0  0  0  0  0  0  0  0  0  0
  140.8800   75.5380  221.0410 C   0  0  0  0  0  0  0  0  0  0  0  0
  140.6120   76.9330  221.1090 N   0  0  0  0  0  0  0  0  0  0  0  0
  139.2870   77.4700  221.3610 C   0  0  0  0  0  0  0  0  0  0  0  0
  139.2950   78.1280  222.7180 C   0  0  0  0  0  0  0  0  0  0  0  0
  140.4570   79.0450  222.7720 C   0  0  0  0  0  0  0  0  0  0  0  0
  140.4150   80.0630  223.6990 C   0  0  0  0  0  0  0  0  0  0  0  0
  141.4430   80.9590  223.8220 C   0  0  0  0  0  0  0  0  0  0  0  0
  142.5640   80.8630  223.0070 C   0  0  0  0  0  0  0  0  0  0  0  0
  142.6110   79.8380  222.0690 C   0  0  0  0  0  0  0  0  0  0  0  0
  141.5600   78.9300  221.9500 C   0  0  0  0  0  0  0  0  0  0  0  0
  141.7060   77.8720  220.9210 C   0  0  0  0  0  0  0  0  0  0  0  0
  140.3940   74.7000  221.9600 N   0  0  0  0  0  0  0  0  0  0  0  0
  140.2580   70.3770  227.0210 C   0  0  0  0  0  0  0  0  0  0  0  0
  140.9260   69.6220  227.9610 C   0  0  0  0  0  0  0  0  0  0  0  0
  141.5255   67.6554  228.6162 H   0  0  0  0  0  0  0  0  0  0  0  0
  140.4216   66.5272  226.7158 H   0  0  0  0  0  0  0  0  0  0  0  0
  139.1964   67.8396  224.9833 H   0  0  0  0  0  0  0  0  0  0  0  0
  137.8428   70.2595  224.9151 H   0  0  0  0  0  0  0  0  0  0  0  0
  138.9813   71.6125  225.1445 H   0  0  0  0  0  0  0  0  0  0  0  0
  139.9709   69.2280  223.6160 H   0  0  0  0  0  0  0  0  0  0  0  0
  138.7324   70.2904  222.8204 H   0  0  0  0  0  0  0  0  0  0  0  0
  141.3262   71.2863  224.0346 H   0  0  0  0  0  0  0  0  0  0  0  0
  141.0738   70.8880  222.2822 H   0  0  0  0  0  0  0  0  0  0  0  0
  139.2670   72.8960  223.5410 H   0  0  0  0  0  0  0  0  0  0  0  0
  142.1740   72.6830  218.1480 H   0  0  0  0  0  0  0  0  0  0  0  0
  144.5434   73.3159  217.9610 H   0  0  0  0  0  0  0  0  0  0  0  0
  143.8878   71.3333  219.8693 H   0  0  0  0  0  0  0  0  0  0  0  0
  145.4970   71.6140  219.2059 H   0  0  0  0  0  0  0  0  0  0  0  0
  144.2669   72.5623  221.7843 H   0  0  0  0  0  0  0  0  0  0  0  0
  145.9615   72.1240  221.4436 H   0  0  0  0  0  0  0  0  0  0  0  0
  145.2364   74.6929  221.7697 H   0  0  0  0  0  0  0  0  0  0  0  0
  146.4620   74.2945  220.5898 H   0  0  0  0  0  0  0  0  0  0  0  0
  143.5308   74.9220  220.2172 H   0  0  0  0  0  0  0  0  0  0  0  0
  144.8904   75.2807  219.1227 H   0  0  0  0  0  0  0  0  0  0  0  0
  139.0328   78.2115  220.5892 H   0  0  0  0  0  0  0  0  0  0  0  0
  138.5391   76.6638  221.3342 H   0  0  0  0  0  0  0  0  0  0  0  0
  138.3640   78.6954  222.8638 H   0  0  0  0  0  0  0  0  0  0  0  0
  139.3680   77.3696  223.5114 H   0  0  0  0  0  0  0  0  0  0  0  0
  139.5368   80.1582  224.3545 H   0  0  0  0  0  0  0  0  0  0  0  0
  141.3808   81.7612  224.5721 H   0  0  0  0  0  0  0  0  0  0  0  0
  143.3931   81.5796  223.1015 H   0  0  0  0  0  0  0  0  0  0  0  0
  143.4884   79.7423  221.4125 H   0  0  0  0  0  0  0  0  0  0  0  0
  141.6535   78.3149  219.9155 H   0  0  0  0  0  0  0  0  0  0  0  0
  142.6767   77.3641  221.0193 H   0  0  0  0  0  0  0  0  0  0  0  0
  140.2139   71.4723  227.1131 H   0  0  0  0  0  0  0  0  0  0  0  0
  141.4176   70.1241  228.8073 H   0  0  0  0  0  0  0  0  0  0  0  0
  1  2  2  0
  2  3  1  0
  3  4  2  0
  4  5  1  0
  5  6  1  0
  6  7  1  0
  7  8  1  0
  8  9  1  0
  9 10  2  0
 10 11  1  0
 11 12  1  0
 12 13  1  0
 13 14  1  0
 14 15  1  0
 15 16  1  0
 16 17  1  0
 11 18  2  0
 18 19  1  0
 19 20  1  0
 20 21  1  0
 21 22  1  0
 22 23  1  0
 23 24  2  0
 24 25  1  0
 25 26  2  0
 26 27  1  0
 27 28  2  0
 28 29  1  0
 19 30  2  0
  4 31  1  0
 31 32  2  0
 32  1  1  0
 30  9  1  0
 17 13  1  0
 29 20  1  0
 28 23  1  0
  1 33  1  0
  2 34  1  0
  3 35  1  0
  5 36  1  0
  5 37  1  0
  6 38  1  0
  6 39  1  0
  7 40  1  0
  7 41  1  0
  8 42  1  0
 12 43  1  0
 13 44  1  0
 14 45  1  0
 14 46  1  0
 15 47  1  0
 15 48  1  0
 16 49  1  0
 16 50  1  0
 17 51  1  0
 17 52  1  0
 21 53  1  0
 21 54  1  0
 22 55  1  0
 22 56  1  0
 24 57  1  0
 25 58  1  0
 26 59  1  0
 27 60  1  0
 29 61  1  0
 29 62  1  0
 31 63  1  0
 32 64  1  0
M  END
>  <smiles>  (3) 
c1ccc(CCCNc2nc(NC3CCCC3)nc(N3CCc4ccccc4C3)n2)cc1

>  <score_type>  (3) 
oracle

>  <origin>  (3) 
autodockgpu

>  <m_score__min__energy>  (3) 
-10.24

>  <m_primary>  (3) 
energy

>  <rmsd>  (3) 
2.755207356695683

>  <m_score__min__rmsd>  (3) 
2.755207356695683

>  <meeko>  (3) 
{"free_energy": -9.5, "intermolecular_energy": -11.89, "internal_energy": -1.25, "cluster_size": 39, "cluster_id": 1, "rank_in_cluster": 19}

>  <energy>  (3) 
-10.07

>  <cluster_rmsd>  (3) 
0.48

>  <cluster>  (3) 
1

$$$$

     RDKit          3D

 64 68  0  0  0  0  0  0  0  0999 V2000
  141.7560   81.1360  223.7600 C   0  0  0  0  0  0  0  0  0  0  0  0
  142.7800   80.4490  223.1490 C   0  0  0  0  0  0  0  0  0  0  0  0
  142.5840   79.1820  222.6060 C   0  0  0  0  0  0  0  0  0  0  0  0
  141.3130   78.6210  222.6960 C   0  0  0  0  0  0  0  0  0  0  0  0
  141.0750   77.2550  222.1190 C   0  0  0  0  0  0  0  0  0  0  0  0
  139.8000   76.7210  222.7190 C   0  0  0  0  0  0  0  0  0  0  0  0
  138.9010   76.1010  221.6770 C   0  0  0  0  0  0  0  0  0  0  0  0
  139.6340   75.2270  220.7820 N   0  0  0  0  0  0  0  0  0  0  0  0
  140.2700   74.0570  221.2880 C   0  0  0  0  0  0  0  0  0  0  0  0
  141.3960   73.5630  220.7220 N   0  0  0  0  0  0  0  0  0  0  0  0
  141.9980   72.4480  221.2080 C   0  0  0  0  0  0  0  0  0  0  0  0
  143.1850   71.9130  220.6240 N   0  0  0  0  0  0  0  0  0  0  0  0
  144.0890   72.7770  219.8850 C   0  0  0  0  0  0  0  0  0  0  0  0
  145.3890   72.0550  219.7250 C   0  0  0  0  0  0  0  0  0  0  0  0
  146.3240   72.7380  220.6750 C   0  0  0  0  0  0  0  0  0  0  0  0
  145.8390   74.1440  220.8590 C   0  0  0  0  0  0  0  0  0  0  0  0
  144.3530   73.9930  220.7390 C   0  0  0  0  0  0  0  0  0  0  0  0
  141.4440   71.8270  222.2900 N   0  0  0  0  0  0  0  0  0  0  0  0
  140.3230   72.3050  222.8690 C   0  0  0  0  0  0  0  0  0  0  0  0
  139.7360   71.6670  223.9960 N   0  0  0  0  0  0  0  0  0  0  0  0
  138.3960   71.1100  223.9770 C   0  0  0  0  0  0  0  0  0  0  0  0
  138.5070   69.6100  224.0810 C   0  0  0  0  0  0  0  0  0  0  0  0
  139.3910   69.2980  225.2280 C   0  0  0  0  0  0  0  0  0  0  0  0
  139.2810   68.0440  225.7870 C   0  0  0  0  0  0  0  0  0  0  0  0
  140.0570   67.6660  226.8500 C   0  0  0  0  0  0  0  0  0  0  0  0
  140.9820   68.5460  227.3960 C   0  0  0  0  0  0  0  0  0  0  0  0
  141.0970   69.8130  226.8370 C   0  0  0  0  0  0  0  0  0  0  0  0
  140.3030   70.1900  225.7540 C   0  0  0  0  0  0  0  0  0  0  0  0
  140.5010   71.5620  225.2270 C   0  0  0  0  0  0  0  0  0  0  0  0
  139.7800   73.4050  222.3420 N   0  0  0  0  0  0  0  0  0  0  0  0
  140.2690   79.3020  223.3110 C   0  0  0  0  0  0  0  0  0  0  0  0
  140.5060   80.5540  223.8360 C   0  0  0  0  0  0  0  0  0  0  0  0
  141.9310   82.1364  224.1826 H   0  0  0  0  0  0  0  0  0  0  0  0
  143.7762   80.9115  223.0882 H   0  0  0  0  0  0  0  0  0  0  0  0
  143.4090   78.6403  222.1203 H   0  0  0  0  0  0  0  0  0  0  0  0
  140.9753   77.3221  221.0256 H   0  0  0  0  0  0  0  0  0  0  0  0
  141.9184   76.5872  222.3484 H   0  0  0  0  0  0  0  0  0  0  0  0
  140.0531   75.9575  223.4693 H   0  0  0  0  0  0  0  0  0  0  0  0
  139.2602   77.5638  223.1754 H   0  0  0  0  0  0  0  0  0  0  0  0
  138.1193   75.5163  222.1841 H   0  0  0  0  0  0  0  0  0  0  0  0
  138.4628   76.9128  221.0779 H   0  0  0  0  0  0  0  0  0  0  0  0
  139.7010   75.4440  219.7840 H   0  0  0  0  0  0  0  0  0  0  0  0
  143.3610   70.8950  220.7550 H   0  0  0  0  0  0  0  0  0  0  0  0
  143.6634   73.0513  218.9085 H   0  0  0  0  0  0  0  0  0  0  0  0
  145.2773   70.9926  219.9875 H   0  0  0  0  0  0  0  0  0  0  0  0
  145.7556   72.0836  218.6883 H   0  0  0  0  0  0  0  0  0  0  0  0
  146.3259   72.2128  221.6415 H   0  0  0  0  0  0  0  0  0  0  0  0
  147.3495   72.7329  220.2771 H   0  0  0  0  0  0  0  0  0  0  0  0
  146.1202   74.5353  221.8478 H   0  0  0  0  0  0  0  0  0  0  0  0
  146.2674   74.8537  220.1359 H   0  0  0  0  0  0  0  0  0  0  0  0
  143.9076   73.8562  221.7354 H   0  0  0  0  0  0  0  0  0  0  0  0
  143.9075   74.8902  220.2845 H   0  0  0  0  0  0  0  0  0  0  0  0
  137.8185   71.5004  224.8280 H   0  0  0  0  0  0  0  0  0  0  0  0
  137.8821   71.3890  223.0453 H   0  0  0  0  0  0  0  0  0  0  0  0
  137.5116   69.1720  224.2462 H   0  0  0  0  0  0  0  0  0  0  0  0
  138.9215   69.1909  223.1523 H   0  0  0  0  0  0  0  0  0  0  0  0
  138.5543   67.3309  225.3706 H   0  0  0  0  0  0  0  0  0  0  0  0
  139.9468   66.6573  227.2747 H   0  0  0  0  0  0  0  0  0  0  0  0
  141.6081   68.2476  228.2498 H   0  0  0  0  0  0  0  0  0  0  0  0
  141.8227   70.5270  227.2535 H   0  0  0  0  0  0  0  0  0  0  0  0
  140.1415   72.3014  225.9578 H   0  0  0  0  0  0  0  0  0  0  0  0
  141.5674   71.7573  225.0405 H   0  0  0  0  0  0  0  0  0  0  0  0
  139.2690   78.8486  223.3777 H   0  0  0  0  0  0  0  0  0  0  0  0
  139.6849   81.0994  224.3242 H   0  0  0  0  0  0  0  0  0  0  0  0
  1  2  2  0
  2  3  1  0
  3  4  2  0
  4  5  1  0
  5  6  1  0
  6  7  1  0
  7  8  1  0
  8  9  1  0
  9 10  2  0
 10 11  1  0
 11 12  1  0
 12 13  1  0
 13 14  1  0
 14 15  1  0
 15 16  1  0
 16 17  1  0
 11 18  2  0
 18 19  1  0
 19 20  1  0
 20 21  1  0
 21 22  1  0
 22 23  1  0
 23 24  2  0
 24 25  1  0
 25 26  2  0
 26 27  1  0
 27 28  2  0
 28 29  1  0
 19 30  2  0
  4 31  1  0
 31 32  2  0
 32  1  1  0
 30  9  1  0
 17 13  1  0
 29 20  1  0
 28 23  1  0
  1 33  1  0
  2 34  1  0
  3 35  1  0
  5 36  1  0
  5 37  1  0
  6 38  1  0
  6 39  1  0
  7 40  1  0
  7 41  1  0
  8 42  1  0
 12 43  1  0
 13 44  1  0
 14 45  1  0
 14 46  1  0
 15 47  1  0
 15 48  1  0
 16 49  1  0
 16 50  1  0
 17 51  1  0
 17 52  1  0
 21 53  1  0
 21 54  1  0
 22 55  1  0
 22 56  1  0
 24 57  1  0
 25 58  1  0
 26 59  1  0
 27 60  1  0
 29 61  1  0
 29 62  1  0
 31 63  1  0
 32 64  1  0
M  END
>  <smiles>  (4) 
c1ccc(CCCNc2nc(NC3CCCC3)nc(N3CCc4ccccc4C3)n2)cc1

>  <score_type>  (4) 
oracle

>  <origin>  (4) 
autodockgpu

>  <m_score__min__energy>  (4) 
-10.24

>  <m_primary>  (4) 
energy

>  <rmsd>  (4) 
9.27312370266245

>  <m_score__min__rmsd>  (4) 
9.27312370266245

>  <meeko>  (4) 
{"free_energy": -9.53, "intermolecular_energy": -11.92, "internal_energy": -1.24, "cluster_size": 39, "cluster_id": 1, "rank_in_cluster": 16}

>  <energy>  (4) 
-10.03

>  <cluster_rmsd>  (4) 
1.27

>  <cluster>  (4) 
1

$$$$

     RDKit          3D

 64 68  0  0  0  0  0  0  0  0999 V2000
  140.5900   69.6230  228.0770 C   0  0  0  0  0  0  0  0  0  0  0  0
  140.2900   68.9550  226.9110 C   0  0  0  0  0  0  0  0  0  0  0  0
  140.2440   69.6150  225.6860 C   0  0  0  0  0  0  0  0  0  0  0  0
  140.5130   70.9810  225.6670 C   0  0  0  0  0  0  0  0  0  0  0  0
  140.4690   71.7160  224.3580 C   0  0  0  0  0  0  0  0  0  0  0  0
  139.9910   70.7500  223.3060 C   0  0  0  0  0  0  0  0  0  0  0  0
  140.2300   71.2690  221.9100 C   0  0  0  0  0  0  0  0  0  0  0  0
  141.0460   72.4670  221.9120 N   0  0  0  0  0  0  0  0  0  0  0  0
  140.4320   73.7490  222.0130 C   0  0  0  0  0  0  0  0  0  0  0  0
  141.1550   74.8900  221.9150 N   0  0  0  0  0  0  0  0  0  0  0  0
  140.5650   76.1080  222.0120 C   0  0  0  0  0  0  0  0  0  0  0  0
  141.3120   77.3200  221.9100 N   0  0  0  0  0  0  0  0  0  0  0  0
  140.8310   78.5300  222.5540 C   0  0  0  0  0  0  0  0  0  0  0  0
  141.1470   79.6850  221.6600 C   0  0  0  0  0  0  0  0  0  0  0  0
  142.2870   80.3870  222.3310 C   0  0  0  0  0  0  0  0  0  0  0  0
  142.1980   80.0990  223.7990 C   0  0  0  0  0  0  0  0  0  0  0  0
  141.6260   78.7140  223.8240 C   0  0  0  0  0  0  0  0  0  0  0  0
  139.2160   76.1660  222.2110 N   0  0  0  0  0  0  0  0  0  0  0  0
  138.4780   75.0400  222.3100 C   0  0  0  0  0  0  0  0  0  0  0  0
  137.0730   75.0860  222.5190 N   0  0  0  0  0  0  0  0  0  0  0  0
  136.1420   74.2240  221.8120 C   0  0  0  0  0  0  0  0  0  0  0  0
  135.5410   73.2640  222.8080 C   0  0  0  0  0  0  0  0  0  0  0  0
  135.0450   74.0540  223.9590 C   0  0  0  0  0  0  0  0  0  0  0  0
  134.0800   73.4750  224.7530 C   0  0  0  0  0  0  0  0  0  0  0  0
  133.5630   74.1290  225.8380 C   0  0  0  0  0  0  0  0  0  0  0  0
  134.0010   75.4050  226.1680 C   0  0  0  0  0  0  0  0  0  0  0  0
  134.9740   75.9950  225.3700 C   0  0  0  0  0  0  0  0  0  0  0  0
  135.4960   75.3220  224.2660 C   0  0  0  0  0  0  0  0  0  0  0  0
  136.5300   76.0340  223.4780 C   0  0  0  0  0  0  0  0  0  0  0  0
  139.1190   73.8730  222.2070 N   0  0  0  0  0  0  0  0  0  0  0  0
  140.8160   71.6690  226.8360 C   0  0  0  0  0  0  0  0  0  0  0  0
  140.8510   70.9780  228.0280 C   0  0  0  0  0  0  0  0  0  0  0  0
  140.6213   69.0840  229.0354 H   0  0  0  0  0  0  0  0  0  0  0  0
  140.0820   67.8755  226.9482 H   0  0  0  0  0  0  0  0  0  0  0  0
  140.0021   69.0729  224.7599 H   0  0  0  0  0  0  0  0  0  0  0  0
  139.7747   72.5663  224.4290 H   0  0  0  0  0  0  0  0  0  0  0  0
  141.4656   72.1039  224.1004 H   0  0  0  0  0  0  0  0  0  0  0  0
  140.5287   69.7981  223.4276 H   0  0  0  0  0  0  0  0  0  0  0  0
  138.9072   70.6150  223.4368 H   0  0  0  0  0  0  0  0  0  0  0  0
  140.7414   70.4912  221.3239 H   0  0  0  0  0  0  0  0  0  0  0  0
  139.2548   71.5211  221.4680 H   0  0  0  0  0  0  0  0  0  0  0  0
  142.0650   72.4030  221.8390 H   0  0  0  0  0  0  0  0  0  0  0  0
  142.1980   77.2880  221.3630 H   0  0  0  0  0  0  0  0  0  0  0  0
  139.7515   78.4676  222.7562 H   0  0  0  0  0  0  0  0  0  0  0  0
  141.4431   79.3322  220.6611 H   0  0  0  0  0  0  0  0  0  0  0  0
  140.2802   80.3463  221.5137 H   0  0  0  0  0  0  0  0  0  0  0  0
  143.2426   80.0147  221.9333 H   0  0  0  0  0  0  0  0  0  0  0  0
  142.2349   81.4702  222.1468 H   0  0  0  0  0  0  0  0  0  0  0  0
  143.1914   80.1273  224.2706 H   0  0  0  0  0  0  0  0  0  0  0  0
  141.5947   80.8326  224.3539 H   0  0  0  0  0  0  0  0  0  0  0  0
  142.4376   77.9730  223.8700 H   0  0  0  0  0  0  0  0  0  0  0  0
  140.9847   78.5749  224.7068 H   0  0  0  0  0  0  0  0  0  0  0  0
  135.3474   74.8307  221.3532 H   0  0  0  0  0  0  0  0  0  0  0  0
  136.6642   73.6706  221.0176 H   0  0  0  0  0  0  0  0  0  0  0  0
  134.7077   72.7165  222.3435 H   0  0  0  0  0  0  0  0  0  0  0  0
  136.2944   72.5344  223.1399 H   0  0  0  0  0  0  0  0  0  0  0  0
  133.7172   72.4654  224.5098 H   0  0  0  0  0  0  0  0  0  0  0  0
  132.7940   73.6400  226.4541 H   0  0  0  0  0  0  0  0  0  0  0  0
  133.5883   75.9352  227.0389 H   0  0  0  0  0  0  0  0  0  0  0  0
  135.3366   77.0049  225.6122 H   0  0  0  0  0  0  0  0  0  0  0  0
  136.0793   76.8872  222.9498 H   0  0  0  0  0  0  0  0  0  0  0  0
  137.3231   76.4197  224.1354 H   0  0  0  0  0  0  0  0  0  0  0  0
  141.0247   72.7487  226.8102 H   0  0  0  0  0  0  0  0  0  0  0  0
  141.0912   71.5157  228.9571 H   0  0  0  0  0  0  0  0  0  0  0  0
  1  2  2  0
  2  3  1  0
  3  4  2  0
  4  5  1  0
  5  6  1  0
  6  7  1  0
  7  8  1  0
  8  9  1  0
  9 10  2  0
 10 11  1  0
 11 12  1  0
 12 13  1  0
 13 14  1  0
 14 15  1  0
 15 16  1  0
 16 17  1  0
 11 18  2  0
 18 19  1  0
 19 20  1  0
 20 21  1  0
 21 22  1  0
 22 23  1  0
 23 24  2  0
 24 25  1  0
 25 26  2  0
 26 27  1  0
 27 28  2  0
 28 29  1  0
 19 30  2  0
  4 31  1  0
 31 32  2  0
 32  1  1  0
 30  9  1  0
 17 13  1  0
 29 20  1  0
 28 23  1  0
  1 33  1  0
  2 34  1  0
  3 35  1  0
  5 36  1  0
  5 37  1  0
  6 38  1  0
  6 39  1  0
  7 40  1  0
  7 41  1  0
  8 42  1  0
 12 43  1  0
 13 44  1  0
 14 45  1  0
 14 46  1  0
 15 47  1  0
 15 48  1  0
 16 49  1  0
 16 50  1  0
 17 51  1  0
 17 52  1  0
 21 53  1  0
 21 54  1  0
 22 55  1  0
 22 56  1  0
 24 57  1  0
 25 58  1  0
 26 59  1  0
 27 60  1  0
 29 61  1  0
 29 62  1  0
 31 63  1  0
 32 64  1  0
M  END
>  <smiles>  (5) 
c1ccc(CCCNc2nc(NC3CCCC3)nc(N3CCc4ccccc4C3)n2)cc1

>  <score_type>  (5) 
oracle

>  <origin>  (5) 
autodockgpu

>  <m_score__min__energy>  (5) 
-10.24

>  <m_primary>  (5) 
energy

>  <rmsd>  (5) 
2.991571027103292

>  <m_score__min__rmsd>  (5) 
2.991571027103292

>  <meeko>  (5) 
{"free_energy": -9.15, "intermolecular_energy": -11.54, "internal_energy": -1.27, "cluster_size": 4, "cluster_id": 3, "rank_in_cluster": 1}

>  <energy>  (5) 
-10.03

>  <cluster_rmsd>  (5) 
0.28

>  <cluster>  (5) 
1

$$$$

     RDKit          3D

 64 68  0  0  0  0  0  0  0  0999 V2000
  140.9710   68.4460  227.6750 C   0  0  0  0  0  0  0  0  0  0  0  0
  140.7640   69.8020  227.5510 C   0  0  0  0  0  0  0  0  0  0  0  0
  139.9630   70.3250  226.5410 C   0  0  0  0  0  0  0  0  0  0  0  0
  139.3690   69.4370  225.6490 C   0  0  0  0  0  0  0  0  0  0  0  0
  138.5000   69.9770  224.5490 C   0  0  0  0  0  0  0  0  0  0  0  0
  139.3590   70.1330  223.3220 C   0  0  0  0  0  0  0  0  0  0  0  0
  140.2900   71.3150  223.4290 C   0  0  0  0  0  0  0  0  0  0  0  0
  139.6800   72.5300  222.9260 N   0  0  0  0  0  0  0  0  0  0  0  0
  140.3980   73.3710  222.0270 C   0  0  0  0  0  0  0  0  0  0  0  0
  141.3060   72.8660  221.1590 N   0  0  0  0  0  0  0  0  0  0  0  0
  141.9870   73.6710  220.3050 C   0  0  0  0  0  0  0  0  0  0  0  0
  142.9470   73.1560  219.3830 N   0  0  0  0  0  0  0  0  0  0  0  0
  144.2810   73.7270  219.3220 C   0  0  0  0  0  0  0  0  0  0  0  0
  145.2240   72.6530  218.8850 C   0  0  0  0  0  0  0  0  0  0  0  0
  145.9870   72.2880  220.1210 C   0  0  0  0  0  0  0  0  0  0  0  0
  145.9940   73.4860  221.0210 C   0  0  0  0  0  0  0  0  0  0  0  0
  144.6700   74.1220  220.7260 C   0  0  0  0  0  0  0  0  0  0  0  0
  141.7380   75.0130  220.3350 N   0  0  0  0  0  0  0  0  0  0  0  0
  140.8370   75.5350  221.1930 C   0  0  0  0  0  0  0  0  0  0  0  0
  140.5690   76.9310  221.2340 N   0  0  0  0  0  0  0  0  0  0  0  0
  139.2470   77.4720  221.4910 C   0  0  0  0  0  0  0  0  0  0  0  0
  139.2710   78.1590  222.8330 C   0  0  0  0  0  0  0  0  0  0  0  0
  140.4330   79.0780  222.8520 C   0  0  0  0  0  0  0  0  0  0  0  0
  140.4010   80.1170  223.7580 C   0  0  0  0  0  0  0  0  0  0  0  0
  141.4300   81.0150  223.8480 C   0  0  0  0  0  0  0  0  0  0  0  0
  142.5400   80.9030  223.0200 C   0  0  0  0  0  0  0  0  0  0  0  0
  142.5770   79.8580  222.1040 C   0  0  0  0  0  0  0  0  0  0  0  0
  141.5250   78.9470  222.0200 C   0  0  0  0  0  0  0  0  0  0  0  0
  141.6580   77.8670  221.0120 C   0  0  0  0  0  0  0  0  0  0  0  0
  140.2010   74.6890  222.0070 N   0  0  0  0  0  0  0  0  0  0  0  0
  139.5680   68.0660  225.7610 C   0  0  0  0  0  0  0  0  0  0  0  0
  140.3690   67.5880  226.7750 C   0  0  0  0  0  0  0  0  0  0  0  0
  141.6076   68.0512  228.4805 H   0  0  0  0  0  0  0  0  0  0  0  0
  141.2427   70.4867  228.2665 H   0  0  0  0  0  0  0  0  0  0  0  0
  139.8036   71.4096  226.4500 H   0  0  0  0  0  0  0  0  0  0  0  0
  137.6770   69.2766  224.3436 H   0  0  0  0  0  0  0  0  0  0  0  0
  138.0656   70.9445  224.8409 H   0  0  0  0  0  0  0  0  0  0  0  0
  139.9582   69.2201  223.1899 H   0  0  0  0  0  0  0  0  0  0  0  0
  138.6944   70.3015  222.4618 H   0  0  0  0  0  0  0  0  0  0  0  0
  140.5577   71.4625  224.4857 H   0  0  0  0  0  0  0  0  0  0  0  0
  141.1814   71.1034  222.8202 H   0  0  0  0  0  0  0  0  0  0  0  0
  138.7330   72.7940  223.2130 H   0  0  0  0  0  0  0  0  0  0  0  0
  142.6440   72.3680  218.7740 H   0  0  0  0  0  0  0  0  0  0  0  0
  144.3112   74.5858  218.6353 H   0  0  0  0  0  0  0  0  0  0  0  0
  144.6701   71.7838  218.5006 H   0  0  0  0  0  0  0  0  0  0  0  0
  145.8855   72.9867  218.0719 H   0  0  0  0  0  0  0  0  0  0  0  0
  145.4987   71.4420  220.6268 H   0  0  0  0  0  0  0  0  0  0  0  0
  147.0150   71.9910  219.8661 H   0  0  0  0  0  0  0  0  0  0  0  0
  146.0654   73.1888  222.0777 H   0  0  0  0  0  0  0  0  0  0  0  0
  146.8496   74.1563  220.8516 H   0  0  0  0  0  0  0  0  0  0  0  0
  143.9138   73.7642  221.4402 H   0  0  0  0  0  0  0  0  0  0  0  0
  144.7364   75.2162  220.8168 H   0  0  0  0  0  0  0  0  0  0  0  0
  138.9823   78.1964  220.7067 H   0  0  0  0  0  0  0  0  0  0  0  0
  138.4998   76.6647  221.4911 H   0  0  0  0  0  0  0  0  0  0  0  0
  138.3413   78.7287  222.9782 H   0  0  0  0  0  0  0  0  0  0  0  0
  139.3544   77.4182  223.6418 H   0  0  0  0  0  0  0  0  0  0  0  0
  139.5308   80.2264  224.4219 H   0  0  0  0  0  0  0  0  0  0  0  0
  141.3777   81.8324  224.5822 H   0  0  0  0  0  0  0  0  0  0  0  0
  143.3687   81.6231  223.0876 H   0  0  0  0  0  0  0  0  0  0  0  0
  143.4458   79.7487  221.4382 H   0  0  0  0  0  0  0  0  0  0  0  0
  141.5912   78.2883  219.9981 H   0  0  0  0  0  0  0  0  0  0  0  0
  142.6306   77.3623  221.1086 H   0  0  0  0  0  0  0  0  0  0  0  0
  139.0931   67.3731  225.0508 H   0  0  0  0  0  0  0  0  0  0  0  0
  140.5320   66.5043  226.8696 H   0  0  0  0  0  0  0  0  0  0  0  0
  1  2  2  0
  2  3  1  0
  3  4  2  0
  4  5  1  0
  5  6  1  0
  6  7  1  0
  7  8  1  0
  8  9  1  0
  9 10  2  0
 10 11  1  0
 11 12  1  0
 12 13  1  0
 13 14  1  0
 14 15  1  0
 15 16  1  0
 16 17  1  0
 11 18  2  0
 18 19  1  0
 19 20  1  0
 20 21  1  0
 21 22  1  0
 22 23  1  0
 23 24  2  0
 24 25  1  0
 25 26  2  0
 26 27  1  0
 27 28  2  0
 28 29  1  0
 19 30  2  0
  4 31  1  0
 31 32  2  0
 32  1  1  0
 30  9  1  0
 17 13  1  0
 29 20  1  0
 28 23  1  0
  1 33  1  0
  2 34  1  0
  3 35  1  0
  5 36  1  0
  5 37  1  0
  6 38  1  0
  6 39  1  0
  7 40  1  0
  7 41  1  0
  8 42  1  0
 12 43  1  0
 13 44  1  0
 14 45  1  0
 14 46  1  0
 15 47  1  0
 15 48  1  0
 16 49  1  0
 16 50  1  0
 17 51  1  0
 17 52  1  0
 21 53  1  0
 21 54  1  0
 22 55  1  0
 22 56  1  0
 24 57  1  0
 25 58  1  0
 26 59  1  0
 27 60  1  0
 29 61  1  0
 29 62  1  0
 31 63  1  0
 32 64  1  0
M  END
>  <smiles>  (6) 
c1ccc(CCCNc2nc(NC3CCCC3)nc(N3CCc4ccccc4C3)n2)cc1

>  <score_type>  (6) 
oracle

>  <origin>  (6) 
autodockgpu

>  <m_score__min__energy>  (6) 
-10.24

>  <m_primary>  (6) 
energy

>  <rmsd>  (6) 
1.3272425812762205

>  <m_score__min__rmsd>  (6) 
1.3272425812762205

>  <meeko>  (6) 
{"free_energy": -9.91, "intermolecular_energy": -12.3, "internal_energy": -1.12, "cluster_size": 39, "cluster_id": 1, "rank_in_cluster": 10}

>  <energy>  (6) 
-10.01

>  <cluster_rmsd>  (6) 
0.5

>  <cluster>  (6) 
1

$$$$

     RDKit          3D

 64 68  0  0  0  0  0  0  0  0999 V2000
  141.1710   69.7650  228.3030 C   0  0  0  0  0  0  0  0  0  0  0  0
  141.0140   70.9830  227.6820 C   0  0  0  0  0  0  0  0  0  0  0  0
  140.2200   71.1230  226.5470 C   0  0  0  0  0  0  0  0  0  0  0  0
  139.5810   69.9910  226.0500 C   0  0  0  0  0  0  0  0  0  0  0  0
  138.7190   70.1160  224.8260 C   0  0  0  0  0  0  0  0  0  0  0  0
  139.6210   70.0400  223.6220 C   0  0  0  0  0  0  0  0  0  0  0  0
  139.3320   71.1390  222.6290 C   0  0  0  0  0  0  0  0  0  0  0  0
  139.9830   72.3810  222.9940 N   0  0  0  0  0  0  0  0  0  0  0  0
  140.5410   73.2180  221.9850 C   0  0  0  0  0  0  0  0  0  0  0  0
  141.3200   72.7150  221.0000 N   0  0  0  0  0  0  0  0  0  0  0  0
  141.8490   73.5170  220.0410 C   0  0  0  0  0  0  0  0  0  0  0  0
  142.6730   73.0030  218.9950 N   0  0  0  0  0  0  0  0  0  0  0  0
  144.1100   73.2090  219.0270 C   0  0  0  0  0  0  0  0  0  0  0  0
  144.7150   72.1160  219.8470 C   0  0  0  0  0  0  0  0  0  0  0  0
  145.1020   72.7740  221.1350 C   0  0  0  0  0  0  0  0  0  0  0  0
  145.3450   74.2250  220.8510 C   0  0  0  0  0  0  0  0  0  0  0  0
  144.3650   74.5080  219.7520 C   0  0  0  0  0  0  0  0  0  0  0  0
  141.5790   74.8540  220.0870 N   0  0  0  0  0  0  0  0  0  0  0  0
  140.8040   75.3750  221.0610 C   0  0  0  0  0  0  0  0  0  0  0  0
  140.5150   76.7660  221.1200 N   0  0  0  0  0  0  0  0  0  0  0  0
  139.1840   77.2840  221.3770 C   0  0  0  0  0  0  0  0  0  0  0  0
  139.1910   77.9530  222.7290 C   0  0  0  0  0  0  0  0  0  0  0  0
  140.3380   78.8890  222.7670 C   0  0  0  0  0  0  0  0  0  0  0  0
  140.2870   79.9140  223.6860 C   0  0  0  0  0  0  0  0  0  0  0  0
  141.3010   80.8260  223.7940 C   0  0  0  0  0  0  0  0  0  0  0  0
  142.4170   80.7420  222.9720 C   0  0  0  0  0  0  0  0  0  0  0  0
  142.4750   79.7100  222.0420 C   0  0  0  0  0  0  0  0  0  0  0  0
  141.4370   78.7850  221.9390 C   0  0  0  0  0  0  0  0  0  0  0  0
  141.5920   77.7210  220.9170 C   0  0  0  0  0  0  0  0  0  0  0  0
  140.3150   74.5320  221.9740 N   0  0  0  0  0  0  0  0  0  0  0  0
  139.7310   68.7540  226.6660 C   0  0  0  0  0  0  0  0  0  0  0  0
  140.5260   68.6580  227.7870 C   0  0  0  0  0  0  0  0  0  0  0  0
  141.8023   69.6742  229.1992 H   0  0  0  0  0  0  0  0  0  0  0  0
  141.5272   71.8656  228.0915 H   0  0  0  0  0  0  0  0  0  0  0  0
  140.1011   72.1006  226.0570 H   0  0  0  0  0  0  0  0  0  0  0  0
  137.9866   69.2957  224.7980 H   0  0  0  0  0  0  0  0  0  0  0  0
  138.1697   71.0690  224.8368 H   0  0  0  0  0  0  0  0  0  0  0  0
  140.6658   70.1278  223.9548 H   0  0  0  0  0  0  0  0  0  0  0  0
  139.4419   69.0759  223.1235 H   0  0  0  0  0  0  0  0  0  0  0  0
  139.6921   70.8265  221.6377 H   0  0  0  0  0  0  0  0  0  0  0  0
  138.2459   71.3131  222.6192 H   0  0  0  0  0  0  0  0  0  0  0  0
  140.0480   72.6650  223.9760 H   0  0  0  0  0  0  0  0  0  0  0  0
  142.1960   72.4850  218.2270 H   0  0  0  0  0  0  0  0  0  0  0  0
  144.5298   73.2218  218.0103 H   0  0  0  0  0  0  0  0  0  0  0  0
  143.9827   71.3149  220.0258 H   0  0  0  0  0  0  0  0  0  0  0  0
  145.5745   71.6475  219.3453 H   0  0  0  0  0  0  0  0  0  0  0  0
  144.2898   72.6669  221.8691 H   0  0  0  0  0  0  0  0  0  0  0  0
  146.0070   72.3060  221.5497 H   0  0  0  0  0  0  0  0  0  0  0  0
  145.1387   74.8436  221.7369 H   0  0  0  0  0  0  0  0  0  0  0  0
  146.3867   74.4506  220.5790 H   0  0  0  0  0  0  0  0  0  0  0  0
  143.4256   74.8923  220.1761 H   0  0  0  0  0  0  0  0  0  0  0  0
  144.7647   75.2654  219.0616 H   0  0  0  0  0  0  0  0  0  0  0  0
  138.9129   78.0152  220.6012 H   0  0  0  0  0  0  0  0  0  0  0  0
  138.4487   76.4660  221.3619 H   0  0  0  0  0  0  0  0  0  0  0  0
  138.2519   78.5063  222.8772 H   0  0  0  0  0  0  0  0  0  0  0  0
  139.2820   77.2023  223.5279 H   0  0  0  0  0  0  0  0  0  0  0  0
  139.4122   80.0010  224.3472 H   0  0  0  0  0  0  0  0  0  0  0  0
  141.2316   81.6328  224.5385 H   0  0  0  0  0  0  0  0  0  0  0  0
  143.2345   81.4734  223.0545 H   0  0  0  0  0  0  0  0  0  0  0  0
  143.3494   79.6224  221.3804 H   0  0  0  0  0  0  0  0  0  0  0  0
  141.5249   78.1552  219.9085 H   0  0  0  0  0  0  0  0  0  0  0  0
  142.5714   77.2293  221.0123 H   0  0  0  0  0  0  0  0  0  0  0  0
  139.2226   67.8651  226.2644 H   0  0  0  0  0  0  0  0  0  0  0  0
  140.6493   67.6824  228.2799 H   0  0  0  0  0  0  0  0  0  0  0  0
  1  2  2  0
  2  3  1  0
  3  4  2  0
  4  5  1  0
  5  6  1  0
  6  7  1  0
  7  8  1  0
  8  9  1  0
  9 10  2  0
 10 11  1  0
 11 12  1  0
 12 13  1  0
 13 14  1  0
 14 15  1  0
 15 16  1  0
 16 17  1  0
 11 18  2  0
 18 19  1  0
 19 20  1  0
 20 21  1  0
 21 22  1  0
 22 23  1  0
 23 24  2  0
 24 25  1  0
 25 26  2  0
 26 27  1  0
 27 28  2  0
 28 29  1  0
 19 30  2  0
  4 31  1  0
 31 32  2  0
 32  1  1  0
 30  9  1  0
 17 13  1  0
 29 20  1  0
 28 23  1  0
  1 33  1  0
  2 34  1  0
  3 35  1  0
  5 36  1  0
  5 37  1  0
  6 38  1  0
  6 39  1  0
  7 40  1  0
  7 41  1  0
  8 42  1  0
 12 43  1  0
 13 44  1  0
 14 45  1  0
 14 46  1  0
 15 47  1  0
 15 48  1  0
 16 49  1  0
 16 50  1  0
 17 51  1  0
 17 52  1  0
 21 53  1  0
 21 54  1  0
 22 55  1  0
 22 56  1  0
 24 57  1  0
 25 58  1  0
 26 59  1  0
 27 60  1  0
 29 61  1  0
 29 62  1  0
 31 63  1  0
 32 64  1  0
M  END
>  <smiles>  (7) 
c1ccc(CCCNc2nc(NC3CCCC3)nc(N3CCc4ccccc4C3)n2)cc1

>  <score_type>  (7) 
oracle

>  <origin>  (7) 
autodockgpu

>  <m_score__min__energy>  (7) 
-10.24

>  <m_primary>  (7) 
energy

>  <rmsd>  (7) 
1.511764137253337

>  <m_score__min__rmsd>  (7) 
1.511764137253337

>  <meeko>  (7) 
{"free_energy": -9.32, "intermolecular_energy": -11.7, "internal_energy": -1.24, "cluster_size": 39, "cluster_id": 1, "rank_in_cluster": 24}

>  <energy>  (7) 
-10.0

>  <cluster_rmsd>  (7) 
0.89

>  <cluster>  (7) 
1

$$$$

     RDKit          3D

 64 68  0  0  0  0  0  0  0  0999 V2000
  140.6790   71.7660  228.3080 C   0  0  0  0  0  0  0  0  0  0  0  0
  141.2290   72.2410  227.1390 C   0  0  0  0  0  0  0  0  0  0  0  0
  141.0500   71.5770  225.9290 C   0  0  0  0  0  0  0  0  0  0  0  0
  140.2920   70.4100  225.9280 C   0  0  0  0  0  0  0  0  0  0  0  0
  140.0850   69.6740  224.6350 C   0  0  0  0  0  0  0  0  0  0  0  0
  138.6590   69.9030  224.2020 C   0  0  0  0  0  0  0  0  0  0  0  0
  138.5790   70.6300  222.8830 C   0  0  0  0  0  0  0  0  0  0  0  0
  138.6430   72.0680  223.0540 N   0  0  0  0  0  0  0  0  0  0  0  0
  139.6790   72.8170  222.4240 C   0  0  0  0  0  0  0  0  0  0  0  0
  140.8180   72.2250  221.9930 N   0  0  0  0  0  0  0  0  0  0  0  0
  141.8010   72.9420  221.3930 C   0  0  0  0  0  0  0  0  0  0  0  0
  143.0080   72.3360  220.9330 N   0  0  0  0  0  0  0  0  0  0  0  0
  143.7050   72.8780  219.7810 C   0  0  0  0  0  0  0  0  0  0  0  0
  144.5370   74.0300  220.2450 C   0  0  0  0  0  0  0  0  0  0  0  0
  143.8190   75.2450  219.7450 C   0  0  0  0  0  0  0  0  0  0  0  0
  143.0390   74.8450  218.5290 C   0  0  0  0  0  0  0  0  0  0  0  0
  142.6640   73.4270  218.8370 C   0  0  0  0  0  0  0  0  0  0  0  0
  141.6200   74.2860  221.2280 N   0  0  0  0  0  0  0  0  0  0  0  0
  140.4920   74.8930  221.6500 C   0  0  0  0  0  0  0  0  0  0  0  0
  140.2920   76.2910  221.4850 N   0  0  0  0  0  0  0  0  0  0  0  0
  138.9770   76.9070  221.5010 C   0  0  0  0  0  0  0  0  0  0  0  0
  138.8710   77.7590  222.7400 C   0  0  0  0  0  0  0  0  0  0  0  0
  140.0660   78.6330  222.7950 C   0  0  0  0  0  0  0  0  0  0  0  0
  139.9760   79.7790  223.5540 C   0  0  0  0  0  0  0  0  0  0  0  0
  141.0290   80.6460  223.6640 C   0  0  0  0  0  0  0  0  0  0  0  0
  142.2260   80.3900  223.0070 C   0  0  0  0  0  0  0  0  0  0  0  0
  142.3220   79.2350  222.2390 C   0  0  0  0  0  0  0  0  0  0  0  0
  141.2440   78.3570  222.1320 C   0  0  0  0  0  0  0  0  0  0  0  0
  141.4460   77.1530  221.2910 C   0  0  0  0  0  0  0  0  0  0  0  0
  139.5640   74.1310  222.2320 N   0  0  0  0  0  0  0  0  0  0  0  0
  139.7300   69.9170  227.1000 C   0  0  0  0  0  0  0  0  0  0  0  0
  139.9320   70.6050  228.2770 C   0  0  0  0  0  0  0  0  0  0  0  0
  140.8326   72.3044  229.2549 H   0  0  0  0  0  0  0  0  0  0  0  0
  141.8234   73.1663  227.1617 H   0  0  0  0  0  0  0  0  0  0  0  0
  141.4949   71.9636  225.0002 H   0  0  0  0  0  0  0  0  0  0  0  0
  140.7755   70.0587  223.8700 H   0  0  0  0  0  0  0  0  0  0  0  0
  140.2803   68.5996  224.7671 H   0  0  0  0  0  0  0  0  0  0  0  0
  138.1575   68.9291  224.1017 H   0  0  0  0  0  0  0  0  0  0  0  0
  138.1684   70.5265  224.9640 H   0  0  0  0  0  0  0  0  0  0  0  0
  139.4186   70.3095  222.2487 H   0  0  0  0  0  0  0  0  0  0  0  0
  137.6136   70.3847  222.4164 H   0  0  0  0  0  0  0  0  0  0  0  0
  137.9490   72.5550  223.6280 H   0  0  0  0  0  0  0  0  0  0  0  0
  143.3510   71.5040  221.4580 H   0  0  0  0  0  0  0  0  0  0  0  0
  144.3252   72.1088  219.2975 H   0  0  0  0  0  0  0  0  0  0  0  0
  144.6030   74.0431  221.3429 H   0  0  0  0  0  0  0  0  0  0  0  0
  145.5698   73.9741  219.8706 H   0  0  0  0  0  0  0  0  0  0  0  0
  143.1364   75.6225  220.5206 H   0  0  0  0  0  0  0  0  0  0  0  0
  144.5359   76.0419  219.4980 H   0  0  0  0  0  0  0  0  0  0  0  0
  142.1456   75.4746  218.4048 H   0  0  0  0  0  0  0  0  0  0  0  0
  143.6019   74.9561  217.5905 H   0  0  0  0  0  0  0  0  0  0  0  0
  141.6723   73.3954  219.3118 H   0  0  0  0  0  0  0  0  0  0  0  0
  142.6222   72.8281  217.9153 H   0  0  0  0  0  0  0  0  0  0  0  0
  138.8484   77.5336  220.6061 H   0  0  0  0  0  0  0  0  0  0  0  0
  138.1950   76.1333  221.5039 H   0  0  0  0  0  0  0  0  0  0  0  0
  137.9600   78.3738  222.6940 H   0  0  0  0  0  0  0  0  0  0  0  0
  138.8181   77.1253  223.6375 H   0  0  0  0  0  0  0  0  0  0  0  0
  139.0377   80.0020  224.0830 H   0  0  0  0  0  0  0  0  0  0  0  0
  140.9268   81.5531  224.2777 H   0  0  0  0  0  0  0  0  0  0  0  0
  143.0759   81.0832  223.0922 H   0  0  0  0  0  0  0  0  0  0  0  0
  143.2597   79.0111  221.7094 H   0  0  0  0  0  0  0  0  0  0  0  0
  141.5260   77.4423  220.2327 H   0  0  0  0  0  0  0  0  0  0  0  0
  142.3728   76.6321  221.5734 H   0  0  0  0  0  0  0  0  0  0  0  0
  139.1337   68.9927  227.0882 H   0  0  0  0  0  0  0  0  0  0  0  0
  139.4901   70.2223  229.2088 H   0  0  0  0  0  0  0  0  0  0  0  0
  1  2  2  0
  2  3  1  0
  3  4  2  0
  4  5  1  0
  5  6  1  0
  6  7  1  0
  7  8  1  0
  8  9  1  0
  9 10  2  0
 10 11  1  0
 11 12  1  0
 12 13  1  0
 13 14  1  0
 14 15  1  0
 15 16  1  0
 16 17  1  0
 11 18  2  0
 18 19  1  0
 19 20  1  0
 20 21  1  0
 21 22  1  0
 22 23  1  0
 23 24  2  0
 24 25  1  0
 25 26  2  0
 26 27  1  0
 27 28  2  0
 28 29  1  0
 19 30  2  0
  4 31  1  0
 31 32  2  0
 32  1  1  0
 30  9  1  0
 17 13  1  0
 29 20  1  0
 28 23  1  0
  1 33  1  0
  2 34  1  0
  3 35  1  0
  5 36  1  0
  5 37  1  0
  6 38  1  0
  6 39  1  0
  7 40  1  0
  7 41  1  0
  8 42  1  0
 12 43  1  0
 13 44  1  0
 14 45  1  0
 14 46  1  0
 15 47  1  0
 15 48  1  0
 16 49  1  0
 16 50  1  0
 17 51  1  0
 17 52  1  0
 21 53  1  0
 21 54  1  0
 22 55  1  0
 22 56  1  0
 24 57  1  0
 25 58  1  0
 26 59  1  0
 27 60  1  0
 29 61  1  0
 29 62  1  0
 31 63  1  0
 32 64  1  0
M  END
>  <smiles>  (8) 
c1ccc(CCCNc2nc(NC3CCCC3)nc(N3CCc4ccccc4C3)n2)cc1

>  <score_type>  (8) 
oracle

>  <origin>  (8) 
autodockgpu

>  <m_score__min__energy>  (8) 
-10.24

>  <m_primary>  (8) 
energy

>  <rmsd>  (8) 
2.169472248739962

>  <m_score__min__rmsd>  (8) 
2.169472248739962

>  <meeko>  (8) 
{"free_energy": -9.59, "intermolecular_energy": -11.97, "internal_energy": -1.39, "cluster_size": 39, "cluster_id": 1, "rank_in_cluster": 15}

>  <energy>  (8) 
-9.99

>  <cluster_rmsd>  (8) 
1.14

>  <cluster>  (8) 
1

$$$$

     RDKit          3D

 64 68  0  0  0  0  0  0  0  0999 V2000
  140.2740   70.2600  228.3290 C   0  0  0  0  0  0  0  0  0  0  0  0
  139.8620   69.4200  227.3200 C   0  0  0  0  0  0  0  0  0  0  0  0
  140.0020   69.7700  225.9800 C   0  0  0  0  0  0  0  0  0  0  0  0
  140.5760   71.0020  225.6810 C   0  0  0  0  0  0  0  0  0  0  0  0
  140.7390   71.4040  224.2430 C   0  0  0  0  0  0  0  0  0  0  0  0
  139.4380   71.1180  223.5380 C   0  0  0  0  0  0  0  0  0  0  0  0
  139.6050   71.0690  222.0400 C   0  0  0  0  0  0  0  0  0  0  0  0
  140.3270   72.2230  221.5390 N   0  0  0  0  0  0  0  0  0  0  0  0
  139.8540   73.5370  221.8180 C   0  0  0  0  0  0  0  0  0  0  0  0
  140.6920   74.6000  221.8480 N   0  0  0  0  0  0  0  0  0  0  0  0
  140.2360   75.8490  222.1140 C   0  0  0  0  0  0  0  0  0  0  0  0
  141.1050   76.9800  222.1500 N   0  0  0  0  0  0  0  0  0  0  0  0
  140.6560   78.2300  222.7380 C   0  0  0  0  0  0  0  0  0  0  0  0
  140.7580   79.2950  221.6940 C   0  0  0  0  0  0  0  0  0  0  0  0
  141.9410   80.1170  222.1020 C   0  0  0  0  0  0  0  0  0  0  0  0
  142.0970   79.9860  223.5870 C   0  0  0  0  0  0  0  0  0  0  0  0
  141.6230   78.5860  223.8400 C   0  0  0  0  0  0  0  0  0  0  0  0
  138.9030   76.0210  222.3520 N   0  0  0  0  0  0  0  0  0  0  0  0
  138.0510   74.9750  222.3250 C   0  0  0  0  0  0  0  0  0  0  0  0
  136.6600   75.1390  222.5720 N   0  0  0  0  0  0  0  0  0  0  0  0
  135.6360   74.4680  221.7920 C   0  0  0  0  0  0  0  0  0  0  0  0
  134.9500   73.4620  222.6810 C   0  0  0  0  0  0  0  0  0  0  0  0
  134.5540   74.1540  223.9290 C   0  0  0  0  0  0  0  0  0  0  0  0
  133.5430   73.5860  224.6730 C   0  0  0  0  0  0  0  0  0  0  0  0
  133.1110   74.1540  225.8410 C   0  0  0  0  0  0  0  0  0  0  0  0
  133.6840   75.3300  226.3080 C   0  0  0  0  0  0  0  0  0  0  0  0
  134.7040   75.9090  225.5610 C   0  0  0  0  0  0  0  0  0  0  0  0
  135.1380   75.3230  224.3730 C   0  0  0  0  0  0  0  0  0  0  0  0
  136.2320   76.0160  223.6500 C   0  0  0  0  0  0  0  0  0  0  0  0
  138.5630   73.7710  222.0580 N   0  0  0  0  0  0  0  0  0  0  0  0
  140.9970   71.8620  226.6900 C   0  0  0  0  0  0  0  0  0  0  0  0
  140.8390   71.4780  228.0040 C   0  0  0  0  0  0  0  0  0  0  0  0
  140.1549   69.9651  229.3820 H   0  0  0  0  0  0  0  0  0  0  0  0
  139.4119   68.4501  227.5781 H   0  0  0  0  0  0  0  0  0  0  0  0
  139.6685   69.0922  225.1804 H   0  0  0  0  0  0  0  0  0  0  0  0
  140.9726   72.4769  224.1779 H   0  0  0  0  0  0  0  0  0  0  0  0
  141.5620   70.8426  223.7765 H   0  0  0  0  0  0  0  0  0  0  0  0
  139.0526   70.1476  223.8841 H   0  0  0  0  0  0  0  0  0  0  0  0
  138.7375   71.9323  223.7749 H   0  0  0  0  0  0  0  0  0  0  0  0
  140.1612   70.1582  221.7736 H   0  0  0  0  0  0  0  0  0  0  0  0
  138.6036   71.0690  221.5848 H   0  0  0  0  0  0  0  0  0  0  0  0
  141.1780   72.1020  220.9830 H   0  0  0  0  0  0  0  0  0  0  0  0
  142.0560   76.8610  221.7420 H   0  0  0  0  0  0  0  0  0  0  0  0
  139.6264   78.1412  223.1149 H   0  0  0  0  0  0  0  0  0  0  0  0
  140.9189   78.8502  220.7009 H   0  0  0  0  0  0  0  0  0  0  0  0
  139.8394   79.8958  221.6220 H   0  0  0  0  0  0  0  0  0  0  0  0
  142.8456   79.7483  221.5964 H   0  0  0  0  0  0  0  0  0  0  0  0
  141.7932   81.1704  221.8217 H   0  0  0  0  0  0  0  0  0  0  0  0
  143.1473   80.1109  223.8891 H   0  0  0  0  0  0  0  0  0  0  0  0
  141.5418   80.7467  224.1554 H   0  0  0  0  0  0  0  0  0  0  0  0
  142.4768   77.8925  223.8294 H   0  0  0  0  0  0  0  0  0  0  0  0
  141.1348   78.5133  224.8231 H   0  0  0  0  0  0  0  0  0  0  0  0
  134.9036   75.2035  221.4278 H   0  0  0  0  0  0  0  0  0  0  0  0
  136.0882   73.9633  220.9256 H   0  0  0  0  0  0  0  0  0  0  0  0
  134.0582   73.0631  222.1755 H   0  0  0  0  0  0  0  0  0  0  0  0
  135.6264   72.6240  222.9052 H   0  0  0  0  0  0  0  0  0  0  0  0
  133.0729   72.6560  224.3207 H   0  0  0  0  0  0  0  0  0  0  0  0
  132.3035   73.6753  226.4145 H   0  0  0  0  0  0  0  0  0  0  0  0
  133.3396   75.7917  227.2451 H   0  0  0  0  0  0  0  0  0  0  0  0
  135.1737   76.8399  225.9115 H   0  0  0  0  0  0  0  0  0  0  0  0
  135.8671   76.9685  223.2382 H   0  0  0  0  0  0  0  0  0  0  0  0
  137.0691   76.2368  224.3286 H   0  0  0  0  0  0  0  0  0  0  0  0
  141.4491   72.8338  226.4428 H   0  0  0  0  0  0  0  0  0  0  0  0
  141.1684   72.1528  228.8078 H   0  0  0  0  0  0  0  0  0  0  0  0
  1  2  2  0
  2  3  1  0
  3  4  2  0
  4  5  1  0
  5  6  1  0
  6  7  1  0
  7  8  1  0
  8  9  1  0
  9 10  2  0
 10 11  1  0
 11 12  1  0
 12 13  1  0
 13 14  1  0
 14 15  1  0
 15 16  1  0
 16 17  1  0
 11 18  2  0
 18 19  1  0
 19 20  1  0
 20 21  1  0
 21 22  1  0
 22 23  1  0
 23 24  2  0
 24 25  1  0
 25 26  2  0
 26 27  1  0
 27 28  2  0
 28 29  1  0
 19 30  2  0
  4 31  1  0
 31 32  2  0
 32  1  1  0
 30  9  1  0
 17 13  1  0
 29 20  1  0
 28 23  1  0
  1 33  1  0
  2 34  1  0
  3 35  1  0
  5 36  1  0
  5 37  1  0
  6 38  1  0
  6 39  1  0
  7 40  1  0
  7 41  1  0
  8 42  1  0
 12 43  1  0
 13 44  1  0
 14 45  1  0
 14 46  1  0
 15 47  1  0
 15 48  1  0
 16 49  1  0
 16 50  1  0
 17 51  1  0
 17 52  1  0
 21 53  1  0
 21 54  1  0
 22 55  1  0
 22 56  1  0
 24 57  1  0
 25 58  1  0
 26 59  1  0
 27 60  1  0
 29 61  1  0
 29 62  1  0
 31 63  1  0
 32 64  1  0
M  END
>  <smiles>  (9) 
c1ccc(CCCNc2nc(NC3CCCC3)nc(N3CCc4ccccc4C3)n2)cc1

>  <score_type>  (9) 
oracle

>  <origin>  (9) 
autodockgpu

>  <m_score__min__energy>  (9) 
-10.24

>  <m_primary>  (9) 
energy

>  <rmsd>  (9) 
2.986695339103333

>  <m_score__min__rmsd>  (9) 
2.986695339103333

>  <meeko>  (9) 
{"free_energy": -9.1, "intermolecular_energy": -11.49, "internal_energy": -1.3, "cluster_size": 4, "cluster_id": 3, "rank_in_cluster": 2}

>  <energy>  (9) 
-9.95

>  <cluster_rmsd>  (9) 
1.0

>  <cluster>  (9) 
1

$$$$

     RDKit          3D

 64 68  0  0  0  0  0  0  0  0999 V2000
  141.0030   71.8950  228.2270 C   0  0  0  0  0  0  0  0  0  0  0  0
  141.4500   72.2610  226.9770 C   0  0  0  0  0  0  0  0  0  0  0  0
  141.1430   71.5100  225.8470 C   0  0  0  0  0  0  0  0  0  0  0  0
  140.3640   70.3680  226.0100 C   0  0  0  0  0  0  0  0  0  0  0  0
  140.0190   69.5390  224.8060 C   0  0  0  0  0  0  0  0  0  0  0  0
  138.5980   69.8610  224.4210 C   0  0  0  0  0  0  0  0  0  0  0  0
  138.4670   71.2540  223.8570 C   0  0  0  0  0  0  0  0  0  0  0  0
  138.8560   71.3100  222.4610 N   0  0  0  0  0  0  0  0  0  0  0  0
  139.8930   72.1940  222.0440 C   0  0  0  0  0  0  0  0  0  0  0  0
  141.1430   71.7460  221.7840 N   0  0  0  0  0  0  0  0  0  0  0  0
  142.1260   72.5920  221.3870 C   0  0  0  0  0  0  0  0  0  0  0  0
  143.4500   72.1360  221.1080 N   0  0  0  0  0  0  0  0  0  0  0  0
  144.2190   72.7390  220.0340 C   0  0  0  0  0  0  0  0  0  0  0  0
  144.8520   73.9860  220.5620 C   0  0  0  0  0  0  0  0  0  0  0  0
  144.0690   75.1020  219.9440 C   0  0  0  0  0  0  0  0  0  0  0  0
  143.4950   74.5970  218.6550 C   0  0  0  0  0  0  0  0  0  0  0  0
  143.2470   73.1500  218.9550 C   0  0  0  0  0  0  0  0  0  0  0  0
  141.8310   73.9180  221.2510 N   0  0  0  0  0  0  0  0  0  0  0  0
  140.5910   74.3840  221.5060 C   0  0  0  0  0  0  0  0  0  0  0  0
  140.2710   75.7630  221.3700 N   0  0  0  0  0  0  0  0  0  0  0  0
  138.9110   76.2670  221.4450 C   0  0  0  0  0  0  0  0  0  0  0  0
  138.7840   77.0930  222.7000 C   0  0  0  0  0  0  0  0  0  0  0  0
  139.9050   78.0610  222.7230 C   0  0  0  0  0  0  0  0  0  0  0  0
  139.7500   79.1870  223.5020 C   0  0  0  0  0  0  0  0  0  0  0  0
  140.7330   80.1370  223.5860 C   0  0  0  0  0  0  0  0  0  0  0  0
  141.9200   79.9880  222.8800 C   0  0  0  0  0  0  0  0  0  0  0  0
  142.0810   78.8550  222.0910 C   0  0  0  0  0  0  0  0  0  0  0  0
  141.0750   77.8920  222.0120 C   0  0  0  0  0  0  0  0  0  0  0  0
  141.3420   76.7190  221.1450 C   0  0  0  0  0  0  0  0  0  0  0  0
  139.6690   73.5000  221.8930 N   0  0  0  0  0  0  0  0  0  0  0  0
  139.9050   69.9850  227.2660 C   0  0  0  0  0  0  0  0  0  0  0  0
  140.2330   70.7560  228.3600 C   0  0  0  0  0  0  0  0  0  0  0  0
  141.2560   72.5022  229.1087 H   0  0  0  0  0  0  0  0  0  0  0  0
  142.0636   73.1676  226.8696 H   0  0  0  0  0  0  0  0  0  0  0  0
  141.5056   71.8101  224.8528 H   0  0  0  0  0  0  0  0  0  0  0  0
  140.6971   69.7842  223.9753 H   0  0  0  0  0  0  0  0  0  0  0  0
  140.1238   68.4677  225.0325 H   0  0  0  0  0  0  0  0  0  0  0  0
  138.2630   69.1379  223.6628 H   0  0  0  0  0  0  0  0  0  0  0  0
  137.9786   69.8022  225.3281 H   0  0  0  0  0  0  0  0  0  0  0  0
  137.4196   71.5775  223.9477 H   0  0  0  0  0  0  0  0  0  0  0  0
  139.1368   71.9165  224.4248 H   0  0  0  0  0  0  0  0  0  0  0  0
  138.3900   70.7200  221.7670 H   0  0  0  0  0  0  0  0  0  0  0  0
  143.8230   71.3670  221.7040 H   0  0  0  0  0  0  0  0  0  0  0  0
  144.9775   72.0400  219.6518 H   0  0  0  0  0  0  0  0  0  0  0  0
  144.7799   74.0229  221.6590 H   0  0  0  0  0  0  0  0  0  0  0  0
  145.9229   74.0443  220.3174 H   0  0  0  0  0  0  0  0  0  0  0  0
  143.2578   75.4097  220.6202 H   0  0  0  0  0  0  0  0  0  0  0  0
  144.7166   75.9724  219.7624 H   0  0  0  0  0  0  0  0  0  0  0  0
  142.5585   75.1175  218.4060 H   0  0  0  0  0  0  0  0  0  0  0  0
  144.1534   74.7586  217.7888 H   0  0  0  0  0  0  0  0  0  0  0  0
  142.2141   73.0107  219.3067 H   0  0  0  0  0  0  0  0  0  0  0  0
  143.3871   72.5370  218.0525 H   0  0  0  0  0  0  0  0  0  0  0  0
  138.6959   76.8910  220.5650 H   0  0  0  0  0  0  0  0  0  0  0  0
  138.1963   75.4311  221.4660 H   0  0  0  0  0  0  0  0  0  0  0  0
  137.8249   77.6317  222.6975 H   0  0  0  0  0  0  0  0  0  0  0  0
  138.8175   76.4465  223.5894 H   0  0  0  0  0  0  0  0  0  0  0  0
  138.8172   79.3258  224.0683 H   0  0  0  0  0  0  0  0  0  0  0  0
  140.5814   81.0249  224.2174 H   0  0  0  0  0  0  0  0  0  0  0  0
  142.7129   80.7478  222.9437 H   0  0  0  0  0  0  0  0  0  0  0  0
  143.0124   78.7162  221.5224 H   0  0  0  0  0  0  0  0  0  0  0  0
  141.3562   77.0268  220.0890 H   0  0  0  0  0  0  0  0  0  0  0  0
  142.3188   76.2728  221.3832 H   0  0  0  0  0  0  0  0  0  0  0  0
  139.2898   69.0808  227.3841 H   0  0  0  0  0  0  0  0  0  0  0  0
  139.8753   70.4591  229.3569 H   0  0  0  0  0  0  0  0  0  0  0  0
  1  2  2  0
  2  3  1  0
  3  4  2  0
  4  5  1  0
  5  6  1  0
  6  7  1  0
  7  8  1  0
  8  9  1  0
  9 10  2  0
 10 11  1  0
 11 12  1  0
 12 13  1  0
 13 14  1  0
 14 15  1  0
 15 16  1  0
 16 17  1  0
 11 18  2  0
 18 19  1  0
 19 20  1  0
 20 21  1  0
 21 22  1  0
 22 23  1  0
 23 24  2  0
 24 25  1  0
 25 26  2  0
 26 27  1  0
 27 28  2  0
 28 29  1  0
 19 30  2  0
  4 31  1  0
 31 32  2  0
 32  1  1  0
 30  9  1  0
 17 13  1  0
 29 20  1  0
 28 23  1  0
  1 33  1  0
  2 34  1  0
  3 35  1  0
  5 36  1  0
  5 37  1  0
  6 38  1  0
  6 39  1  0
  7 40  1  0
  7 41  1  0
  8 42  1  0
 12 43  1  0
 13 44  1  0
 14 45  1  0
 14 46  1  0
 15 47  1  0
 15 48  1  0
 16 49  1  0
 16 50  1  0
 17 51  1  0
 17 52  1  0
 21 53  1  0
 21 54  1  0
 22 55  1  0
 22 56  1  0
 24 57  1  0
 25 58  1  0
 26 59  1  0
 27 60  1  0
 29 61  1  0
 29 62  1  0
 31 63  1  0
 32 64  1  0
M  END
>  <smiles>  (10) 
c1ccc(CCCNc2nc(NC3CCCC3)nc(N3CCc4ccccc4C3)n2)cc1

>  <score_type>  (10) 
oracle

>  <origin>  (10) 
autodockgpu

>  <m_score__min__energy>  (10) 
-10.24

>  <m_primary>  (10) 
energy

>  <rmsd>  (10) 
2.4123418407088724

>  <m_score__min__rmsd>  (10) 
2.4123418407088724

>  <meeko>  (10) 
{"free_energy": -8.9, "intermolecular_energy": -11.29, "internal_energy": -1.52, "cluster_size": 39, "cluster_id": 1, "rank_in_cluster": 36}

>  <energy>  (10) 
-9.91

>  <cluster_rmsd>  (10) 
1.21

>  <cluster>  (10) 
1

$$$$

     RDKit          3D

 64 68  0  0  0  0  0  0  0  0999 V2000
  141.0480   68.1490  227.8870 C   0  0  0  0  0  0  0  0  0  0  0  0
  140.7090   69.4810  227.9660 C   0  0  0  0  0  0  0  0  0  0  0  0
  139.9690   70.1030  226.9660 C   0  0  0  0  0  0  0  0  0  0  0  0
  139.5740   69.3390  225.8710 C   0  0  0  0  0  0  0  0  0  0  0  0
  138.7740   69.9880  224.7770 C   0  0  0  0  0  0  0  0  0  0  0  0
  139.6880   70.1790  223.5940 C   0  0  0  0  0  0  0  0  0  0  0  0
  140.4180   71.4980  223.6510 C   0  0  0  0  0  0  0  0  0  0  0  0
  139.7110   72.5380  222.9300 N   0  0  0  0  0  0  0  0  0  0  0  0
  140.4090   73.3680  222.0060 C   0  0  0  0  0  0  0  0  0  0  0  0
  141.2880   72.8520  221.1150 N   0  0  0  0  0  0  0  0  0  0  0  0
  141.9500   73.6460  220.2380 C   0  0  0  0  0  0  0  0  0  0  0  0
  142.8790   73.1190  219.2920 N   0  0  0  0  0  0  0  0  0  0  0  0
  144.1930   73.7200  219.1450 C   0  0  0  0  0  0  0  0  0  0  0  0
  145.1660   72.6310  218.8240 C   0  0  0  0  0  0  0  0  0  0  0  0
  145.9530   72.4400  220.0830 C   0  0  0  0  0  0  0  0  0  0  0  0
  145.9310   73.7350  220.8360 C   0  0  0  0  0  0  0  0  0  0  0  0
  144.5840   74.2910  220.4860 C   0  0  0  0  0  0  0  0  0  0  0  0
  141.7130   74.9910  220.2670 N   0  0  0  0  0  0  0  0  0  0  0  0
  140.8410   75.5240  221.1480 C   0  0  0  0  0  0  0  0  0  0  0  0
  140.5860   76.9220  221.1900 N   0  0  0  0  0  0  0  0  0  0  0  0
  139.2610   77.4760  221.4040 C   0  0  0  0  0  0  0  0  0  0  0  0
  139.2450   78.1540  222.7510 C   0  0  0  0  0  0  0  0  0  0  0  0
  140.4140   79.0610  222.8170 C   0  0  0  0  0  0  0  0  0  0  0  0
  140.3620   80.0940  223.7270 C   0  0  0  0  0  0  0  0  0  0  0  0
  141.3950   80.9810  223.8590 C   0  0  0  0  0  0  0  0  0  0  0  0
  142.5320   80.8630  223.0700 C   0  0  0  0  0  0  0  0  0  0  0  0
  142.5910   79.8240  222.1490 C   0  0  0  0  0  0  0  0  0  0  0  0
  141.5340   78.9240  222.0210 C   0  0  0  0  0  0  0  0  0  0  0  0
  141.6910   77.8490  221.0120 C   0  0  0  0  0  0  0  0  0  0  0  0
  140.2220   74.6880  221.9840 N   0  0  0  0  0  0  0  0  0  0  0  0
  139.9080   67.9930  225.7770 C   0  0  0  0  0  0  0  0  0  0  0  0
  140.6430   67.4150  226.7890 C   0  0  0  0  0  0  0  0  0  0  0  0
  141.6341   67.6751  228.6882 H   0  0  0  0  0  0  0  0  0  0  0  0
  141.0307   70.0666  228.8398 H   0  0  0  0  0  0  0  0  0  0  0  0
  139.7034   71.1680  227.0381 H   0  0  0  0  0  0  0  0  0  0  0  0
  137.9287   69.3421  224.4971 H   0  0  0  0  0  0  0  0  0  0  0  0
  138.3726   70.9550  225.1144 H   0  0  0  0  0  0  0  0  0  0  0  0
  140.4270   69.3644  223.5810 H   0  0  0  0  0  0  0  0  0  0  0  0
  139.0711   70.1711  222.6833 H   0  0  0  0  0  0  0  0  0  0  0  0
  140.5217   71.8020  224.7031 H   0  0  0  0  0  0  0  0  0  0  0  0
  141.4022   71.3639  223.1784 H   0  0  0  0  0  0  0  0  0  0  0  0
  138.7090   72.6850  223.0800 H   0  0  0  0  0  0  0  0  0  0  0  0
  142.5690   72.3000  218.7280 H   0  0  0  0  0  0  0  0  0  0  0  0
  144.1878   74.4920  218.3614 H   0  0  0  0  0  0  0  0  0  0  0  0
  144.6367   71.7055  218.5534 H   0  0  0  0  0  0  0  0  0  0  0  0
  145.8073   72.8856  217.9673 H   0  0  0  0  0  0  0  0  0  0  0  0
  145.4981   71.6449  220.6920 H   0  0  0  0  0  0  0  0  0  0  0  0
  146.9876   72.1481  219.8496 H   0  0  0  0  0  0  0  0  0  0  0  0
  146.0223   73.5666  221.9192 H   0  0  0  0  0  0  0  0  0  0  0  0
  146.7631   74.4065  220.5778 H   0  0  0  0  0  0  0  0  0  0  0  0
  143.8470   73.9982  221.2483 H   0  0  0  0  0  0  0  0  0  0  0  0
  144.6168   75.3897  220.4449 H   0  0  0  0  0  0  0  0  0  0  0  0
  139.0320   78.2084  220.6159 H   0  0  0  0  0  0  0  0  0  0  0  0
  138.5057   76.6770  221.3721 H   0  0  0  0  0  0  0  0  0  0  0  0
  138.3163   78.7319  222.8677 H   0  0  0  0  0  0  0  0  0  0  0  0
  139.2931   77.4070  223.5570 H   0  0  0  0  0  0  0  0  0  0  0  0
  139.4705   80.2080  224.3612 H   0  0  0  0  0  0  0  0  0  0  0  0
  141.3246   81.7945  224.5961 H   0  0  0  0  0  0  0  0  0  0  0  0
  143.3650   81.5742  223.1716 H   0  0  0  0  0  0  0  0  0  0  0  0
  143.4818   79.7104  221.5138 H   0  0  0  0  0  0  0  0  0  0  0  0
  141.6634   78.2770  219.9990 H   0  0  0  0  0  0  0  0  0  0  0  0
  142.6547   77.3341  221.1394 H   0  0  0  0  0  0  0  0  0  0  0  0
  139.5904   67.3983  224.9078 H   0  0  0  0  0  0  0  0  0  0  0  0
  140.9120   66.3505  226.7215 H   0  0  0  0  0  0  0  0  0  0  0  0
  1  2  2  0
  2  3  1  0
  3  4  2  0
  4  5  1  0
  5  6  1  0
  6  7  1  0
  7  8  1  0
  8  9  1  0
  9 10  2  0
 10 11  1  0
 11 12  1  0
 12 13  1  0
 13 14  1  0
 14 15  1  0
 15 16  1  0
 16 17  1  0
 11 18  2  0
 18 19  1  0
 19 20  1  0
 20 21  1  0
 21 22  1  0
 22 23  1  0
 23 24  2  0
 24 25  1  0
 25 26  2  0
 26 27  1  0
 27 28  2  0
 28 29  1  0
 19 30  2  0
  4 31  1  0
 31 32  2  0
 32  1  1  0
 30  9  1  0
 17 13  1  0
 29 20  1  0
 28 23  1  0
  1 33  1  0
  2 34  1  0
  3 35  1  0
  5 36  1  0
  5 37  1  0
  6 38  1  0
  6 39  1  0
  7 40  1  0
  7 41  1  0
  8 42  1  0
 12 43  1  0
 13 44  1  0
 14 45  1  0
 14 46  1  0
 15 47  1  0
 15 48  1  0
 16 49  1  0
 16 50  1  0
 17 51  1  0
 17 52  1  0
 21 53  1  0
 21 54  1  0
 22 55  1  0
 22 56  1  0
 24 57  1  0
 25 58  1  0
 26 59  1  0
 27 60  1  0
 29 61  1  0
 29 62  1  0
 31 63  1  0
 32 64  1  0
M  END
>  <smiles>  (11) 
c1ccc(CCCNc2nc(NC3CCCC3)nc(N3CCc4ccccc4C3)n2)cc1

>  <score_type>  (11) 
oracle

>  <origin>  (11) 
autodockgpu

>  <m_score__min__energy>  (11) 
-10.24

>  <m_primary>  (11) 
energy

>  <rmsd>  (11) 
1.508863868931812

>  <m_score__min__rmsd>  (11) 
1.508863868931812

>  <meeko>  (11) 
{"free_energy": -10.03, "intermolecular_energy": -12.41, "internal_energy": -1.1, "cluster_size": 39, "cluster_id": 1, "rank_in_cluster": 4}

>  <energy>  (11) 
-9.76

>  <cluster_rmsd>  (11) 
0.81

>  <cluster>  (11) 
1

$$$$

     RDKit          3D

 64 68  0  0  0  0  0  0  0  0999 V2000
  141.8580   81.0890  223.8730 C   0  0  0  0  0  0  0  0  0  0  0  0
  140.5560   80.9100  223.4650 C   0  0  0  0  0  0  0  0  0  0  0  0
  140.2200   79.9630  222.5020 C   0  0  0  0  0  0  0  0  0  0  0  0
  141.2420   79.1920  221.9560 C   0  0  0  0  0  0  0  0  0  0  0  0
  140.9060   78.1630  220.9150 C   0  0  0  0  0  0  0  0  0  0  0  0
  139.6670   77.4370  221.3720 C   0  0  0  0  0  0  0  0  0  0  0  0
  139.9860   76.3330  222.3480 C   0  0  0  0  0  0  0  0  0  0  0  0
  141.1300   75.5500  221.9230 N   0  0  0  0  0  0  0  0  0  0  0  0
  141.0110   74.1380  221.7690 C   0  0  0  0  0  0  0  0  0  0  0  0
  141.5160   73.4990  220.6880 N   0  0  0  0  0  0  0  0  0  0  0  0
  141.4000   72.1550  220.5460 C   0  0  0  0  0  0  0  0  0  0  0  0
  141.9280   71.4650  219.4140 N   0  0  0  0  0  0  0  0  0  0  0  0
  143.3580   71.4650  219.1590 C   0  0  0  0  0  0  0  0  0  0  0  0
  144.0620   71.3910  220.4760 C   0  0  0  0  0  0  0  0  0  0  0  0
  144.6140   72.7660  220.6900 C   0  0  0  0  0  0  0  0  0  0  0  0
  144.8210   73.3890  219.3430 C   0  0  0  0  0  0  0  0  0  0  0  0
  143.7080   72.7940  218.5360 C   0  0  0  0  0  0  0  0  0  0  0  0
  140.7590   71.4490  221.5230 N   0  0  0  0  0  0  0  0  0  0  0  0
  140.2480   72.0680  222.6080 C   0  0  0  0  0  0  0  0  0  0  0  0
  139.5770   71.3440  223.6310 N   0  0  0  0  0  0  0  0  0  0  0  0
  138.4590   70.4560  223.3660 C   0  0  0  0  0  0  0  0  0  0  0  0
  138.9040   69.0420  223.6430 C   0  0  0  0  0  0  0  0  0  0  0  0
  139.5290   69.0170  224.9860 C   0  0  0  0  0  0  0  0  0  0  0  0
  139.5940   67.8010  225.6290 C   0  0  0  0  0  0  0  0  0  0  0  0
  140.1550   67.6810  226.8720 C   0  0  0  0  0  0  0  0  0  0  0  0
  140.6750   68.7920  227.5220 C   0  0  0  0  0  0  0  0  0  0  0  0
  140.6120   70.0220  226.8780 C   0  0  0  0  0  0  0  0  0  0  0  0
  140.0390   70.1360  225.6120 C   0  0  0  0  0  0  0  0  0  0  0  0
  140.0200   71.4900  225.0080 C   0  0  0  0  0  0  0  0  0  0  0  0
  140.3960   73.3920  222.6870 N   0  0  0  0  0  0  0  0  0  0  0  0
  142.5620   79.3620  222.3580 C   0  0  0  0  0  0  0  0  0  0  0  0
  142.8520   80.3110  223.3140 C   0  0  0  0  0  0  0  0  0  0  0  0
  142.1038   81.8429  224.6354 H   0  0  0  0  0  0  0  0  0  0  0  0
  139.7631   81.5292  223.9099 H   0  0  0  0  0  0  0  0  0  0  0  0
  139.1764   79.8277  222.1816 H   0  0  0  0  0  0  0  0  0  0  0  0
  140.7174   78.6547  219.9493 H   0  0  0  0  0  0  0  0  0  0  0  0
  141.7405   77.4580  220.7866 H   0  0  0  0  0  0  0  0  0  0  0  0
  138.9927   78.1571  221.8586 H   0  0  0  0  0  0  0  0  0  0  0  0
  139.1944   76.9830  220.4886 H   0  0  0  0  0  0  0  0  0  0  0  0
  140.2047   76.7783  223.3298 H   0  0  0  0  0  0  0  0  0  0  0  0
  139.1152   75.6631  222.4018 H   0  0  0  0  0  0  0  0  0  0  0  0
  142.0280   76.0020  221.7330 H   0  0  0  0  0  0  0  0  0  0  0  0
  141.2470   70.9740  218.7980 H   0  0  0  0  0  0  0  0  0  0  0  0
  143.6427   70.6248  218.5086 H   0  0  0  0  0  0  0  0  0  0  0  0
  143.3572   71.1268  221.2782 H   0  0  0  0  0  0  0  0  0  0  0  0
  144.8477   70.6212  220.4851 H   0  0  0  0  0  0  0  0  0  0  0  0
  143.9036   73.3678  221.2759 H   0  0  0  0  0  0  0  0  0  0  0  0
  145.5642   72.7179  221.2422 H   0  0  0  0  0  0  0  0  0  0  0  0
  144.7335   74.4843  219.3940 H   0  0  0  0  0  0  0  0  0  0  0  0
  145.8188   73.1991  218.9207 H   0  0  0  0  0  0  0  0  0  0  0  0
  142.8327   73.4599  218.5547 H   0  0  0  0  0  0  0  0  0  0  0  0
  144.0160   72.6622  217.4882 H   0  0  0  0  0  0  0  0  0  0  0  0
  137.6141   70.7155  224.0209 H   0  0  0  0  0  0  0  0  0  0  0  0
  138.1357   70.5543  222.3192 H   0  0  0  0  0  0  0  0  0  0  0  0
  138.0365   68.3660  223.6217 H   0  0  0  0  0  0  0  0  0  0  0  0
  139.6225   68.7095  222.8794 H   0  0  0  0  0  0  0  0  0  0  0  0
  139.1866   66.9074  225.1335 H   0  0  0  0  0  0  0  0  0  0  0  0
  140.1941   66.6959  227.3599 H   0  0  0  0  0  0  0  0  0  0  0  0
  141.1255   68.7011  228.5214 H   0  0  0  0  0  0  0  0  0  0  0  0
  141.0190   70.9161  227.3729 H   0  0  0  0  0  0  0  0  0  0  0  0
  139.3242   72.1387  225.5603 H   0  0  0  0  0  0  0  0  0  0  0  0
  141.0192   71.9482  225.0487 H   0  0  0  0  0  0  0  0  0  0  0  0
  143.3627   78.7482  221.9196 H   0  0  0  0  0  0  0  0  0  0  0  0
  143.8940   80.4512  223.6375 H   0  0  0  0  0  0  0  0  0  0  0  0
  1  2  2  0
  2  3  1  0
  3  4  2  0
  4  5  1  0
  5  6  1  0
  6  7  1  0
  7  8  1  0
  8  9  1  0
  9 10  2  0
 10 11  1  0
 11 12  1  0
 12 13  1  0
 13 14  1  0
 14 15  1  0
 15 16  1  0
 16 17  1  0
 11 18  2  0
 18 19  1  0
 19 20  1  0
 20 21  1  0
 21 22  1  0
 22 23  1  0
 23 24  2  0
 24 25  1  0
 25 26  2  0
 26 27  1  0
 27 28  2  0
 28 29  1  0
 19 30  2  0
  4 31  1  0
 31 32  2  0
 32  1  1  0
 30  9  1  0
 17 13  1  0
 29 20  1  0
 28 23  1  0
  1 33  1  0
  2 34  1  0
  3 35  1  0
  5 36  1  0
  5 37  1  0
  6 38  1  0
  6 39  1  0
  7 40  1  0
  7 41  1  0
  8 42  1  0
 12 43  1  0
 13 44  1  0
 14 45  1  0
 14 46  1  0
 15 47  1  0
 15 48  1  0
 16 49  1  0
 16 50  1  0
 17 51  1  0
 17 52  1  0
 21 53  1  0
 21 54  1  0
 22 55  1  0
 22 56  1  0
 24 57  1  0
 25 58  1  0
 26 59  1  0
 27 60  1  0
 29 61  1  0
 29 62  1  0
 31 63  1  0
 32 64  1  0
M  END
>  <smiles>  (12) 
c1ccc(CCCNc2nc(NC3CCCC3)nc(N3CCc4ccccc4C3)n2)cc1

>  <score_type>  (12) 
oracle

>  <origin>  (12) 
autodockgpu

>  <m_score__min__energy>  (12) 
-10.24

>  <m_primary>  (12) 
energy

>  <rmsd>  (12) 
9.721819415764159

>  <m_score__min__rmsd>  (12) 
9.721819415764159

>  <meeko>  (12) 
{"free_energy": -9.02, "intermolecular_energy": -11.4, "internal_energy": -1.32, "cluster_size": 39, "cluster_id": 1, "rank_in_cluster": 33}

>  <energy>  (12) 
-9.65

>  <cluster_rmsd>  (12) 
0.94

>  <cluster>  (12) 
1

$$$$

     RDKit          3D

 64 68  0  0  0  0  0  0  0  0999 V2000
  142.0680   80.7560  223.8460 C   0  0  0  0  0  0  0  0  0  0  0  0
  142.1960   81.1270  222.5260 C   0  0  0  0  0  0  0  0  0  0  0  0
  142.1000   80.1950  221.4970 C   0  0  0  0  0  0  0  0  0  0  0  0
  141.8690   78.8650  221.8370 C   0  0  0  0  0  0  0  0  0  0  0  0
  141.7620   77.8390  220.7450 C   0  0  0  0  0  0  0  0  0  0  0  0
  140.2970   77.5620  220.5200 C   0  0  0  0  0  0  0  0  0  0  0  0
  139.8620   76.2680  221.1610 C   0  0  0  0  0  0  0  0  0  0  0  0
  140.9910   75.4990  221.6470 N   0  0  0  0  0  0  0  0  0  0  0  0
  140.9540   74.0760  221.6090 C   0  0  0  0  0  0  0  0  0  0  0  0
  141.4850   73.3820  220.5750 N   0  0  0  0  0  0  0  0  0  0  0  0
  141.4480   72.0260  220.5440 C   0  0  0  0  0  0  0  0  0  0  0  0
  142.0020   71.2780  219.4620 N   0  0  0  0  0  0  0  0  0  0  0  0
  143.4390   71.2540  219.2500 C   0  0  0  0  0  0  0  0  0  0  0  0
  144.1030   71.5360  220.5590 C   0  0  0  0  0  0  0  0  0  0  0  0
  144.6190   72.9360  220.4320 C   0  0  0  0  0  0  0  0  0  0  0  0
  144.8540   73.2040  218.9760 C   0  0  0  0  0  0  0  0  0  0  0  0
  143.7790   72.3920  218.3190 C   0  0  0  0  0  0  0  0  0  0  0  0
  140.8610   71.3650  221.5840 N   0  0  0  0  0  0  0  0  0  0  0  0
  140.3270   72.0390  222.6240 C   0  0  0  0  0  0  0  0  0  0  0  0
  139.7130   71.3630  223.7140 N   0  0  0  0  0  0  0  0  0  0  0  0
  138.4980   70.5800  223.5720 C   0  0  0  0  0  0  0  0  0  0  0  0
  138.8440   69.1290  223.7920 C   0  0  0  0  0  0  0  0  0  0  0  0
  139.6100   69.0310  225.0560 C   0  0  0  0  0  0  0  0  0  0  0  0
  139.6390   67.8050  225.6840 C   0  0  0  0  0  0  0  0  0  0  0  0
  140.3210   67.6190  226.8560 C   0  0  0  0  0  0  0  0  0  0  0  0
  141.0070   68.6720  227.4480 C   0  0  0  0  0  0  0  0  0  0  0  0
  140.9810   69.9120  226.8190 C   0  0  0  0  0  0  0  0  0  0  0  0
  140.2840   70.0920  225.6260 C   0  0  0  0  0  0  0  0  0  0  0  0
  140.3170   71.4510  225.0330 C   0  0  0  0  0  0  0  0  0  0  0  0
  140.3960   73.3720  222.5940 N   0  0  0  0  0  0  0  0  0  0  0  0
  141.7380   78.4750  223.1650 C   0  0  0  0  0  0  0  0  0  0  0  0
  141.8410   79.4300  224.1540 C   0  0  0  0  0  0  0  0  0  0  0  0
  142.1457   81.5076  224.6454 H   0  0  0  0  0  0  0  0  0  0  0  0
  142.3782   82.1834  222.2795 H   0  0  0  0  0  0  0  0  0  0  0  0
  142.2037   80.5004  220.4453 H   0  0  0  0  0  0  0  0  0  0  0  0
  142.2165   78.2261  219.8211 H   0  0  0  0  0  0  0  0  0  0  0  0
  142.2898   76.9167  221.0291 H   0  0  0  0  0  0  0  0  0  0  0  0
  139.7095   78.3865  220.9501 H   0  0  0  0  0  0  0  0  0  0  0  0
  140.1296   77.4775  219.4361 H   0  0  0  0  0  0  0  0  0  0  0  0
  139.1966   76.4961  222.0067 H   0  0  0  0  0  0  0  0  0  0  0  0
  139.3433   75.6676  220.3991 H   0  0  0  0  0  0  0  0  0  0  0  0
  141.8190   75.9710  222.0220 H   0  0  0  0  0  0  0  0  0  0  0  0
  141.3350   70.7630  218.8500 H   0  0  0  0  0  0  0  0  0  0  0  0
  143.7618   70.2852  218.8411 H   0  0  0  0  0  0  0  0  0  0  0  0
  143.3794   71.4630  221.3843 H   0  0  0  0  0  0  0  0  0  0  0  0
  144.9047   70.8164  220.7816 H   0  0  0  0  0  0  0  0  0  0  0  0
  143.8784   73.6458  220.8290 H   0  0  0  0  0  0  0  0  0  0  0  0
  145.5523   73.0561  221.0017 H   0  0  0  0  0  0  0  0  0  0  0  0
  144.7412   74.2736  218.7454 H   0  0  0  0  0  0  0  0  0  0  0  0
  145.8683   72.9424  218.6401 H   0  0  0  0  0  0  0  0  0  0  0  0
  142.8892   73.0155  218.1470 H   0  0  0  0  0  0  0  0  0  0  0  0
  144.1219   72.0086  217.3467 H   0  0  0  0  0  0  0  0  0  0  0  0
  137.7573   70.9034  224.3182 H   0  0  0  0  0  0  0  0  0  0  0  0
  138.0706   70.7207  222.5683 H   0  0  0  0  0  0  0  0  0  0  0  0
  137.9230   68.5320  223.8657 H   0  0  0  0  0  0  0  0  0  0  0  0
  139.4406   68.7453  222.9513 H   0  0  0  0  0  0  0  0  0  0  0  0
  139.1023   66.9571  225.2336 H   0  0  0  0  0  0  0  0  0  0  0  0
  140.3260   66.6278  227.3330 H   0  0  0  0  0  0  0  0  0  0  0  0
  141.5566   68.5286  228.3900 H   0  0  0  0  0  0  0  0  0  0  0  0
  141.5171   70.7608  227.2686 H   0  0  0  0  0  0  0  0  0  0  0  0
  139.7464   72.1500  225.6622 H   0  0  0  0  0  0  0  0  0  0  0  0
  141.3509   71.8200  224.9635 H   0  0  0  0  0  0  0  0  0  0  0  0
  141.5551   77.4213  223.4225 H   0  0  0  0  0  0  0  0  0  0  0  0
  141.7405   79.1297  225.2074 H   0  0  0  0  0  0  0  0  0  0  0  0
  1  2  2  0
  2  3  1  0
  3  4  2  0
  4  5  1  0
  5  6  1  0
  6  7  1  0
  7  8  1  0
  8  9  1  0
  9 10  2  0
 10 11  1  0
 11 12  1  0
 12 13  1  0
 13 14  1  0
 14 15  1  0
 15 16  1  0
 16 17  1  0
 11 18  2  0
 18 19  1  0
 19 20  1  0
 20 21  1  0
 21 22  1  0
 22 23  1  0
 23 24  2  0
 24 25  1  0
 25 26  2  0
 26 27  1  0
 27 28  2  0
 28 29  1  0
 19 30  2  0
  4 31  1  0
 31 32  2  0
 32  1  1  0
 30  9  1  0
 17 13  1  0
 29 20  1  0
 28 23  1  0
  1 33  1  0
  2 34  1  0
  3 35  1  0
  5 36  1  0
  5 37  1  0
  6 38  1  0
  6 39  1  0
  7 40  1  0
  7 41  1  0
  8 42  1  0
 12 43  1  0
 13 44  1  0
 14 45  1  0
 14 46  1  0
 15 47  1  0
 15 48  1  0
 16 49  1  0
 16 50  1  0
 17 51  1  0
 17 52  1  0
 21 53  1  0
 21 54  1  0
 22 55  1  0
 22 56  1  0
 24 57  1  0
 25 58  1  0
 26 59  1  0
 27 60  1  0
 29 61  1  0
 29 62  1  0
 31 63  1  0
 32 64  1  0
M  END
>  <smiles>  (13) 
c1ccc(CCCNc2nc(NC3CCCC3)nc(N3CCc4ccccc4C3)n2)cc1

>  <score_type>  (13) 
oracle

>  <origin>  (13) 
autodockgpu

>  <m_score__min__energy>  (13) 
-10.24

>  <m_primary>  (13) 
energy

>  <rmsd>  (13) 
9.63673418232812

>  <m_score__min__rmsd>  (13) 
9.63673418232812

>  <meeko>  (13) 
{"free_energy": -9.19, "intermolecular_energy": -11.58, "internal_energy": -1.31, "cluster_size": 39, "cluster_id": 1, "rank_in_cluster": 26}

>  <energy>  (13) 
-9.61

>  <cluster_rmsd>  (13) 
0.42

>  <cluster>  (13) 
1

$$$$

     RDKit          3D

 64 68  0  0  0  0  0  0  0  0999 V2000
  140.4680   68.1280  228.3280 C   0  0  0  0  0  0  0  0  0  0  0  0
  141.0160   67.9890  227.0720 C   0  0  0  0  0  0  0  0  0  0  0  0
  141.0500   69.0500  226.1730 C   0  0  0  0  0  0  0  0  0  0  0  0
  140.5120   70.2690  226.5760 C   0  0  0  0  0  0  0  0  0  0  0  0
  140.5370   71.4300  225.6230 C   0  0  0  0  0  0  0  0  0  0  0  0
  140.7110   70.8770  224.2320 C   0  0  0  0  0  0  0  0  0  0  0  0
  139.4230   70.9040  223.4480 C   0  0  0  0  0  0  0  0  0  0  0  0
  139.1320   72.2270  222.9310 N   0  0  0  0  0  0  0  0  0  0  0  0
  140.1150   72.9290  222.1750 C   0  0  0  0  0  0  0  0  0  0  0  0
  140.3020   74.2620  222.3230 N   0  0  0  0  0  0  0  0  0  0  0  0
  141.2390   74.9260  221.6010 C   0  0  0  0  0  0  0  0  0  0  0  0
  141.4500   76.3300  221.7440 N   0  0  0  0  0  0  0  0  0  0  0  0
  140.5980   77.1110  222.6230 C   0  0  0  0  0  0  0  0  0  0  0  0
  139.5310   77.7450  221.7900 C   0  0  0  0  0  0  0  0  0  0  0  0
  139.9140   79.1900  221.7120 C   0  0  0  0  0  0  0  0  0  0  0  0
  140.7210   79.5130  222.9340 C   0  0  0  0  0  0  0  0  0  0  0  0
  141.4390   78.2240  223.1980 C   0  0  0  0  0  0  0  0  0  0  0  0
  141.9990   74.2210  220.7130 N   0  0  0  0  0  0  0  0  0  0  0  0
  141.8280   72.8920  220.5520 C   0  0  0  0  0  0  0  0  0  0  0  0
  142.6130   72.1460  219.6310 N   0  0  0  0  0  0  0  0  0  0  0  0
  143.5970   72.7590  218.7560 C   0  0  0  0  0  0  0  0  0  0  0  0
  144.9660   72.3050  219.1960 C   0  0  0  0  0  0  0  0  0  0  0  0
  144.9400   70.8290  219.3130 C   0  0  0  0  0  0  0  0  0  0  0  0
  146.1480   70.1690  219.2530 C   0  0  0  0  0  0  0  0  0  0  0  0
  146.2220   68.8060  219.3530 C   0  0  0  0  0  0  0  0  0  0  0  0
  145.0710   68.0470  219.5170 C   0  0  0  0  0  0  0  0  0  0  0  0
  143.8490   68.7070  219.5770 C   0  0  0  0  0  0  0  0  0  0  0  0
  143.7820   70.0960  219.4750 C   0  0  0  0  0  0  0  0  0  0  0  0
  142.4330   70.7060  219.5510 C   0  0  0  0  0  0  0  0  0  0  0  0
  140.8890   72.2980  221.2930 N   0  0  0  0  0  0  0  0  0  0  0  0
  139.9560   70.4250  227.8400 C   0  0  0  0  0  0  0  0  0  0  0  0
  139.9410   69.3490  228.7010 C   0  0  0  0  0  0  0  0  0  0  0  0
  140.4503   67.2773  229.0252 H   0  0  0  0  0  0  0  0  0  0  0  0
  141.4361   67.0173  226.7732 H   0  0  0  0  0  0  0  0  0  0  0  0
  141.4896   68.9292  225.1719 H   0  0  0  0  0  0  0  0  0  0  0  0
  139.5918   71.9889  225.6885 H   0  0  0  0  0  0  0  0  0  0  0  0
  141.3613   72.1147  225.8714 H   0  0  0  0  0  0  0  0  0  0  0  0
  141.4624   71.4803  223.7014 H   0  0  0  0  0  0  0  0  0  0  0  0
  141.0327   69.8289  224.3209 H   0  0  0  0  0  0  0  0  0  0  0  0
  139.5054   70.2028  222.6045 H   0  0  0  0  0  0  0  0  0  0  0  0
  138.6057   70.6155  224.1253 H   0  0  0  0  0  0  0  0  0  0  0  0
  138.2240   72.6650  223.1050 H   0  0  0  0  0  0  0  0  0  0  0  0
  142.2300   76.7510  221.1970 H   0  0  0  0  0  0  0  0  0  0  0  0
  140.1632   76.4806  223.4127 H   0  0  0  0  0  0  0  0  0  0  0  0
  139.5055   77.2963  220.7860 H   0  0  0  0  0  0  0  0  0  0  0  0
  138.5290   77.6040  222.2214 H   0  0  0  0  0  0  0  0  0  0  0  0
  140.5141   79.3705  220.8080 H   0  0  0  0  0  0  0  0  0  0  0  0
  139.0170   79.8248  221.6631 H   0  0  0  0  0  0  0  0  0  0  0  0
  141.4305   80.3303  222.7374 H   0  0  0  0  0  0  0  0  0  0  0  0
  140.1126   79.8581  223.7830 H   0  0  0  0  0  0  0  0  0  0  0  0
  142.4263   78.2378  222.7131 H   0  0  0  0  0  0  0  0  0  0  0  0
  141.5893   78.0781  224.2779 H   0  0  0  0  0  0  0  0  0  0  0  0
  143.4172   72.4466  217.7167 H   0  0  0  0  0  0  0  0  0  0  0  0
  143.5241   73.8552  218.8110 H   0  0  0  0  0  0  0  0  0  0  0  0
  145.7173   72.6078  218.4518 H   0  0  0  0  0  0  0  0  0  0  0  0
  145.2292   72.7614  220.1616 H   0  0  0  0  0  0  0  0  0  0  0  0
  147.0728   70.7500  219.1219 H   0  0  0  0  0  0  0  0  0  0  0  0
  147.2014   68.3078  219.3030 H   0  0  0  0  0  0  0  0  0  0  0  0
  145.1247   66.9513  219.5974 H   0  0  0  0  0  0  0  0  0  0  0  0
  142.9237   68.1264  219.7065 H   0  0  0  0  0  0  0  0  0  0  0  0
  141.8525   70.4487  218.6528 H   0  0  0  0  0  0  0  0  0  0  0  0
  141.8860   70.3328  220.4294 H   0  0  0  0  0  0  0  0  0  0  0  0
  139.5342   71.3929  228.1487 H   0  0  0  0  0  0  0  0  0  0  0  0
  139.5016   69.4646  229.7028 H   0  0  0  0  0  0  0  0  0  0  0  0
  1  2  2  0
  2  3  1  0
  3  4  2  0
  4  5  1  0
  5  6  1  0
  6  7  1  0
  7  8  1  0
  8  9  1  0
  9 10  2  0
 10 11  1  0
 11 12  1  0
 12 13  1  0
 13 14  1  0
 14 15  1  0
 15 16  1  0
 16 17  1  0
 11 18  2  0
 18 19  1  0
 19 20  1  0
 20 21  1  0
 21 22  1  0
 22 23  1  0
 23 24  2  0
 24 25  1  0
 25 26  2  0
 26 27  1  0
 27 28  2  0
 28 29  1  0
 19 30  2  0
  4 31  1  0
 31 32  2  0
 32  1  1  0
 30  9  1  0
 17 13  1  0
 29 20  1  0
 28 23  1  0
  1 33  1  0
  2 34  1  0
  3 35  1  0
  5 36  1  0
  5 37  1  0
  6 38  1  0
  6 39  1  0
  7 40  1  0
  7 41  1  0
  8 42  1  0
 12 43  1  0
 13 44  1  0
 14 45  1  0
 14 46  1  0
 15 47  1  0
 15 48  1  0
 16 49  1  0
 16 50  1  0
 17 51  1  0
 17 52  1  0
 21 53  1  0
 21 54  1  0
 22 55  1  0
 22 56  1  0
 24 57  1  0
 25 58  1  0
 26 59  1  0
 27 60  1  0
 29 61  1  0
 29 62  1  0
 31 63  1  0
 32 64  1  0
M  END
>  <smiles>  (14) 
c1ccc(CCCNc2nc(NC3CCCC3)nc(N3CCc4ccccc4C3)n2)cc1

>  <score_type>  (14) 
oracle

>  <origin>  (14) 
autodockgpu

>  <m_score__min__energy>  (14) 
-10.24

>  <m_primary>  (14) 
energy

>  <rmsd>  (14) 
2.824676721895628

>  <m_score__min__rmsd>  (14) 
2.824676721895628

>  <meeko>  (14) 
{"free_energy": -9.24, "intermolecular_energy": -11.63, "internal_energy": -1.16, "cluster_size": 3, "cluster_id": 2, "rank_in_cluster": 1}

>  <energy>  (14) 
-9.61

>  <cluster_rmsd>  (14) 
1.0

>  <cluster>  (14) 
1

$$$$

     RDKit          3D

 64 68  0  0  0  0  0  0  0  0999 V2000
  141.1030   71.7990  228.1310 C   0  0  0  0  0  0  0  0  0  0  0  0
  140.3000   70.6980  228.3310 C   0  0  0  0  0  0  0  0  0  0  0  0
  139.7560   69.9910  227.2630 C   0  0  0  0  0  0  0  0  0  0  0  0
  140.0460   70.4270  225.9730 C   0  0  0  0  0  0  0  0  0  0  0  0
  139.4700   69.6810  224.8030 C   0  0  0  0  0  0  0  0  0  0  0  0
  138.5030   70.6020  224.1050 C   0  0  0  0  0  0  0  0  0  0  0  0
  139.0720   71.1510  222.8200 C   0  0  0  0  0  0  0  0  0  0  0  0
  138.8490   72.5780  222.6960 N   0  0  0  0  0  0  0  0  0  0  0  0
  139.7860   73.3890  221.9940 C   0  0  0  0  0  0  0  0  0  0  0  0
  140.8250   72.8460  221.3170 N   0  0  0  0  0  0  0  0  0  0  0  0
  141.7150   73.6230  220.6510 C   0  0  0  0  0  0  0  0  0  0  0  0
  142.8150   73.0680  219.9320 N   0  0  0  0  0  0  0  0  0  0  0  0
  143.9000   72.4170  220.6450 C   0  0  0  0  0  0  0  0  0  0  0  0
  144.9870   73.4220  220.8490 C   0  0  0  0  0  0  0  0  0  0  0  0
  146.0600   73.0260  219.8830 C   0  0  0  0  0  0  0  0  0  0  0  0
  145.9290   71.5530  219.6350 C   0  0  0  0  0  0  0  0  0  0  0  0
  144.4500   71.3370  219.7450 C   0  0  0  0  0  0  0  0  0  0  0  0
  141.5430   74.9770  220.6730 N   0  0  0  0  0  0  0  0  0  0  0  0
  140.5140   75.5380  221.3410 C   0  0  0  0  0  0  0  0  0  0  0  0
  140.3240   76.9460  221.3730 N   0  0  0  0  0  0  0  0  0  0  0  0
  139.0490   77.5640  221.6900 C   0  0  0  0  0  0  0  0  0  0  0  0
  139.1830   78.2670  223.0170 C   0  0  0  0  0  0  0  0  0  0  0  0
  140.3910   79.1220  222.9580 C   0  0  0  0  0  0  0  0  0  0  0  0
  140.4650   80.1730  223.8450 C   0  0  0  0  0  0  0  0  0  0  0  0
  141.5430   81.0160  223.8650 C   0  0  0  0  0  0  0  0  0  0  0  0
  142.6000   80.8310  222.9820 C   0  0  0  0  0  0  0  0  0  0  0  0
  142.5310   79.7720  222.0840 C   0  0  0  0  0  0  0  0  0  0  0  0
  141.4280   78.9180  222.0710 C   0  0  0  0  0  0  0  0  0  0  0  0
  141.4490   77.8180  221.0760 C   0  0  0  0  0  0  0  0  0  0  0  0
  139.6740   74.7170  221.9770 N   0  0  0  0  0  0  0  0  0  0  0  0
  140.8540   71.5360  225.7540 C   0  0  0  0  0  0  0  0  0  0  0  0
  141.3730   72.2090  226.8400 C   0  0  0  0  0  0  0  0  0  0  0  0
  141.5238   72.3447  228.9884 H   0  0  0  0  0  0  0  0  0  0  0  0
  140.0838   70.3700  229.3585 H   0  0  0  0  0  0  0  0  0  0  0  0
  139.1154   69.1131  227.4331 H   0  0  0  0  0  0  0  0  0  0  0  0
  140.2744   69.3887  224.1120 H   0  0  0  0  0  0  0  0  0  0  0  0
  138.9575   68.7686  225.1418 H   0  0  0  0  0  0  0  0  0  0  0  0
  137.5833   70.0437  223.8761 H   0  0  0  0  0  0  0  0  0  0  0  0
  138.2977   71.4499  224.7751 H   0  0  0  0  0  0  0  0  0  0  0  0
  140.1546   70.9571  222.7990 H   0  0  0  0  0  0  0  0  0  0  0  0
  138.5635   70.6525  221.9817 H   0  0  0  0  0  0  0  0  0  0  0  0
  138.0200   73.0120  223.1120 H   0  0  0  0  0  0  0  0  0  0  0  0
  142.7950   73.1530  218.8940 H   0  0  0  0  0  0  0  0  0  0  0  0
  143.5520   72.0077  221.6049 H   0  0  0  0  0  0  0  0  0  0  0  0
  144.6230   74.4365  220.6294 H   0  0  0  0  0  0  0  0  0  0  0  0
  145.3485   73.4376  221.8878 H   0  0  0  0  0  0  0  0  0  0  0  0
  145.9365   73.5773  218.9392 H   0  0  0  0  0  0  0  0  0  0  0  0
  147.0534   73.2609  220.2929 H   0  0  0  0  0  0  0  0  0  0  0  0
  146.2969   71.2840  218.6338 H   0  0  0  0  0  0  0  0  0  0  0  0
  146.5157   70.9366  220.3320 H   0  0  0  0  0  0  0  0  0  0  0  0
  143.9855   71.4044  218.7502 H   0  0  0  0  0  0  0  0  0  0  0  0
  144.2334   70.3407  220.1579 H   0  0  0  0  0  0  0  0  0  0  0  0
  138.7832   78.2912  220.9086 H   0  0  0  0  0  0  0  0  0  0  0  0
  138.2593   76.8001  221.7428 H   0  0  0  0  0  0  0  0  0  0  0  0
  138.2941   78.8878  223.2027 H   0  0  0  0  0  0  0  0  0  0  0  0
  139.2713   77.5339  223.8323 H   0  0  0  0  0  0  0  0  0  0  0  0
  139.6395   80.3385  224.5529 H   0  0  0  0  0  0  0  0  0  0  0  0
  141.5730   81.8465  224.5857 H   0  0  0  0  0  0  0  0  0  0  0  0
  143.4691   81.5053  222.9933 H   0  0  0  0  0  0  0  0  0  0  0  0
  143.3558   79.6055  221.3754 H   0  0  0  0  0  0  0  0  0  0  0  0
  141.3501   78.2274  220.0598 H   0  0  0  0  0  0  0  0  0  0  0  0
  142.3971   77.2628  221.1287 H   0  0  0  0  0  0  0  0  0  0  0  0
  141.0762   71.8719  224.7304 H   0  0  0  0  0  0  0  0  0  0  0  0
  142.0134   73.0880  226.6752 H   0  0  0  0  0  0  0  0  0  0  0  0
  1  2  2  0
  2  3  1  0
  3  4  2  0
  4  5  1  0
  5  6  1  0
  6  7  1  0
  7  8  1  0
  8  9  1  0
  9 10  2  0
 10 11  1  0
 11 12  1  0
 12 13  1  0
 13 14  1  0
 14 15  1  0
 15 16  1  0
 16 17  1  0
 11 18  2  0
 18 19  1  0
 19 20  1  0
 20 21  1  0
 21 22  1  0
 22 23  1  0
 23 24  2  0
 24 25  1  0
 25 26  2  0
 26 27  1  0
 27 28  2  0
 28 29  1  0
 19 30  2  0
  4 31  1  0
 31 32  2  0
 32  1  1  0
 30  9  1  0
 17 13  1  0
 29 20  1  0
 28 23  1  0
  1 33  1  0
  2 34  1  0
  3 35  1  0
  5 36  1  0
  5 37  1  0
  6 38  1  0
  6 39  1  0
  7 40  1  0
  7 41  1  0
  8 42  1  0
 12 43  1  0
 13 44  1  0
 14 45  1  0
 14 46  1  0
 15 47  1  0
 15 48  1  0
 16 49  1  0
 16 50  1  0
 17 51  1  0
 17 52  1  0
 21 53  1  0
 21 54  1  0
 22 55  1  0
 22 56  1  0
 24 57  1  0
 25 58  1  0
 26 59  1  0
 27 60  1  0
 29 61  1  0
 29 62  1  0
 31 63  1  0
 32 64  1  0
M  END
>  <smiles>  (15) 
c1ccc(CCCNc2nc(NC3CCCC3)nc(N3CCc4ccccc4C3)n2)cc1

>  <score_type>  (15) 
oracle

>  <origin>  (15) 
autodockgpu

>  <m_score__min__energy>  (15) 
-10.24

>  <m_primary>  (15) 
energy

>  <rmsd>  (15) 
2.618127665338893

>  <m_score__min__rmsd>  (15) 
2.618127665338893

>  <meeko>  (15) 
{"free_energy": -10.0, "intermolecular_energy": -12.38, "internal_energy": -1.15, "cluster_size": 39, "cluster_id": 1, "rank_in_cluster": 7}

>  <energy>  (15) 
-9.59

>  <cluster_rmsd>  (15) 
0.66

>  <cluster>  (15) 
1

$$$$

     RDKit          3D

 64 68  0  0  0  0  0  0  0  0999 V2000
  140.5750   69.5200  227.8200 C   0  0  0  0  0  0  0  0  0  0  0  0
  140.8110   70.8750  227.8870 C   0  0  0  0  0  0  0  0  0  0  0  0
  140.8430   71.6650  226.7420 C   0  0  0  0  0  0  0  0  0  0  0  0
  140.6280   71.0470  225.5130 C   0  0  0  0  0  0  0  0  0  0  0  0
  140.6580   71.8780  224.2620 C   0  0  0  0  0  0  0  0  0  0  0  0
  140.3340   70.9710  223.1030 C   0  0  0  0  0  0  0  0  0  0  0  0
  139.6920   71.7200  221.9610 C   0  0  0  0  0  0  0  0  0  0  0  0
  139.3810   73.0900  222.3210 N   0  0  0  0  0  0  0  0  0  0  0  0
  140.1530   74.1610  221.7860 C   0  0  0  0  0  0  0  0  0  0  0  0
  140.9280   73.9960  220.6890 N   0  0  0  0  0  0  0  0  0  0  0  0
  141.6620   75.0200  220.1840 C   0  0  0  0  0  0  0  0  0  0  0  0
  142.4840   74.8640  219.0280 N   0  0  0  0  0  0  0  0  0  0  0  0
  143.7280   74.1190  219.1110 C   0  0  0  0  0  0  0  0  0  0  0  0
  143.3890   72.6720  219.2780 C   0  0  0  0  0  0  0  0  0  0  0  0
  143.7030   72.3690  220.7100 C   0  0  0  0  0  0  0  0  0  0  0  0
  144.7630   73.3300  221.1570 C   0  0  0  0  0  0  0  0  0  0  0  0
  144.4390   74.5610  220.3660 C   0  0  0  0  0  0  0  0  0  0  0  0
  141.6030   76.2340  220.8060 N   0  0  0  0  0  0  0  0  0  0  0  0
  140.8360   76.4180  221.9010 C   0  0  0  0  0  0  0  0  0  0  0  0
  140.7670   77.6760  222.5590 N   0  0  0  0  0  0  0  0  0  0  0  0
  141.7920   78.1440  223.4750 C   0  0  0  0  0  0  0  0  0  0  0  0
  142.4940   79.3170  222.8380 C   0  0  0  0  0  0  0  0  0  0  0  0
  141.4590   80.2730  222.3810 C   0  0  0  0  0  0  0  0  0  0  0  0
  141.8470   81.5810  222.1920 C   0  0  0  0  0  0  0  0  0  0  0  0
  140.9600   82.5340  221.7700 C   0  0  0  0  0  0  0  0  0  0  0  0
  139.6340   82.2040  221.5220 C   0  0  0  0  0  0  0  0  0  0  0  0
  139.2360   80.8850  221.7120 C   0  0  0  0  0  0  0  0  0  0  0  0
  140.1470   79.9200  222.1410 C   0  0  0  0  0  0  0  0  0  0  0  0
  139.6260   78.5420  222.3130 C   0  0  0  0  0  0  0  0  0  0  0  0
  140.1400   75.3700  222.3470 N   0  0  0  0  0  0  0  0  0  0  0  0
  140.3890   69.6810  225.4290 C   0  0  0  0  0  0  0  0  0  0  0  0
  140.3660   68.9340  226.5870 C   0  0  0  0  0  0  0  0  0  0  0  0
  140.5532   68.9123  228.7366 H   0  0  0  0  0  0  0  0  0  0  0  0
  140.9781   71.3436  228.8681 H   0  0  0  0  0  0  0  0  0  0  0  0
  141.0327   72.7466  226.8060 H   0  0  0  0  0  0  0  0  0  0  0  0
  139.9110   72.6827  224.3285 H   0  0  0  0  0  0  0  0  0  0  0  0
  141.6486   72.3370  224.1274 H   0  0  0  0  0  0  0  0  0  0  0  0
  141.2645   70.5066  222.7446 H   0  0  0  0  0  0  0  0  0  0  0  0
  139.6202   70.2117  223.4551 H   0  0  0  0  0  0  0  0  0  0  0  0
  140.3834   71.7251  221.1055 H   0  0  0  0  0  0  0  0  0  0  0  0
  138.7503   71.2119  221.7061 H   0  0  0  0  0  0  0  0  0  0  0  0
  138.6090   73.2970  222.9600 H   0  0  0  0  0  0  0  0  0  0  0  0
  142.1490   75.3030  218.1440 H   0  0  0  0  0  0  0  0  0  0  0  0
  144.3460   74.2822  218.2158 H   0  0  0  0  0  0  0  0  0  0  0  0
  142.3232   72.4970  219.0695 H   0  0  0  0  0  0  0  0  0  0  0  0
  143.9525   72.0306  218.5844 H   0  0  0  0  0  0  0  0  0  0  0  0
  142.8003   72.4937  221.3260 H   0  0  0  0  0  0  0  0  0  0  0  0
  144.0534   71.3318  220.8166 H   0  0  0  0  0  0  0  0  0  0  0  0
  144.6948   73.5226  222.2379 H   0  0  0  0  0  0  0  0  0  0  0  0
  145.7864   72.9609  220.9944 H   0  0  0  0  0  0  0  0  0  0  0  0
  143.7869   75.2241  220.9534 H   0  0  0  0  0  0  0  0  0  0  0  0
  145.3565   75.1145  220.1172 H   0  0  0  0  0  0  0  0  0  0  0  0
  141.3296   78.4568  224.4228 H   0  0  0  0  0  0  0  0  0  0  0  0
  142.5114   77.3384  223.6835 H   0  0  0  0  0  0  0  0  0  0  0  0
  143.1529   79.8025  223.5730 H   0  0  0  0  0  0  0  0  0  0  0  0
  143.1077   78.9816  221.9890 H   0  0  0  0  0  0  0  0  0  0  0  0
  142.8920   81.8657  222.3843 H   0  0  0  0  0  0  0  0  0  0  0  0
  141.3002   83.5701  221.6260 H   0  0  0  0  0  0  0  0  0  0  0  0
  138.9168   82.9664  221.1839 H   0  0  0  0  0  0  0  0  0  0  0  0
  138.1908   80.5996  221.5218 H   0  0  0  0  0  0  0  0  0  0  0  0
  138.9343   78.5050  223.1675 H   0  0  0  0  0  0  0  0  0  0  0  0
  139.0777   78.2182  221.4161 H   0  0  0  0  0  0  0  0  0  0  0  0
  140.2206   69.2028  224.4528 H   0  0  0  0  0  0  0  0  0  0  0  0
  140.1778   67.8518  226.5281 H   0  0  0  0  0  0  0  0  0  0  0  0
  1  2  2  0
  2  3  1  0
  3  4  2  0
  4  5  1  0
  5  6  1  0
  6  7  1  0
  7  8  1  0
  8  9  1  0
  9 10  2  0
 10 11  1  0
 11 12  1  0
 12 13  1  0
 13 14  1  0
 14 15  1  0
 15 16  1  0
 16 17  1  0
 11 18  2  0
 18 19  1  0
 19 20  1  0
 20 21  1  0
 21 22  1  0
 22 23  1  0
 23 24  2  0
 24 25  1  0
 25 26  2  0
 26 27  1  0
 27 28  2  0
 28 29  1  0
 19 30  2  0
  4 31  1  0
 31 32  2  0
 32  1  1  0
 30  9  1  0
 17 13  1  0
 29 20  1  0
 28 23  1  0
  1 33  1  0
  2 34  1  0
  3 35  1  0
  5 36  1  0
  5 37  1  0
  6 38  1  0
  6 39  1  0
  7 40  1  0
  7 41  1  0
  8 42  1  0
 12 43  1  0
 13 44  1  0
 14 45  1  0
 14 46  1  0
 15 47  1  0
 15 48  1  0
 16 49  1  0
 16 50  1  0
 17 51  1  0
 17 52  1  0
 21 53  1  0
 21 54  1  0
 22 55  1  0
 22 56  1  0
 24 57  1  0
 25 58  1  0
 26 59  1  0
 27 60  1  0
 29 61  1  0
 29 62  1  0
 31 63  1  0
 32 64  1  0
M  END
>  <smiles>  (16) 
c1ccc(CCCNc2nc(NC3CCCC3)nc(N3CCc4ccccc4C3)n2)cc1

>  <score_type>  (16) 
oracle

>  <origin>  (16) 
autodockgpu

>  <m_score__min__energy>  (16) 
-10.24

>  <m_primary>  (16) 
energy

>  <rmsd>  (16) 
1.7938166295165676

>  <m_score__min__rmsd>  (16) 
1.7938166295165676

>  <meeko>  (16) 
{"free_energy": -8.8, "intermolecular_energy": -11.19, "internal_energy": -1.53, "cluster_size": 39, "cluster_id": 1, "rank_in_cluster": 38}

>  <energy>  (16) 
-9.53

>  <cluster_rmsd>  (16) 
1.41

>  <cluster>  (16) 
1

$$$$

     RDKit          3D

 64 68  0  0  0  0  0  0  0  0999 V2000
  141.0030   71.8560  228.0200 C   0  0  0  0  0  0  0  0  0  0  0  0
  141.4840   71.9300  226.7320 C   0  0  0  0  0  0  0  0  0  0  0  0
  141.0530   71.0510  225.7430 C   0  0  0  0  0  0  0  0  0  0  0  0
  140.1120   70.0850  226.0900 C   0  0  0  0  0  0  0  0  0  0  0  0
  139.6300   69.1240  225.0400 C   0  0  0  0  0  0  0  0  0  0  0  0
  139.4590   69.8950  223.7570 C   0  0  0  0  0  0  0  0  0  0  0  0
  138.6570   71.1570  223.9580 C   0  0  0  0  0  0  0  0  0  0  0  0
  138.4920   71.8950  222.7220 N   0  0  0  0  0  0  0  0  0  0  0  0
  139.5680   72.6700  222.2030 C   0  0  0  0  0  0  0  0  0  0  0  0
  140.7380   72.0990  221.8330 N   0  0  0  0  0  0  0  0  0  0  0  0
  141.7610   72.8420  221.3400 C   0  0  0  0  0  0  0  0  0  0  0  0
  143.0000   72.2560  220.9450 N   0  0  0  0  0  0  0  0  0  0  0  0
  143.8750   72.9520  220.0180 C   0  0  0  0  0  0  0  0  0  0  0  0
  144.8620   71.9650  219.4840 C   0  0  0  0  0  0  0  0  0  0  0  0
  146.1510   72.3070  220.1650 C   0  0  0  0  0  0  0  0  0  0  0  0
  146.1040   73.7620  220.5240 C   0  0  0  0  0  0  0  0  0  0  0  0
  144.6490   73.9790  220.8080 C   0  0  0  0  0  0  0  0  0  0  0  0
  141.5880   74.1910  221.2210 N   0  0  0  0  0  0  0  0  0  0  0  0
  140.4290   74.7790  221.5840 C   0  0  0  0  0  0  0  0  0  0  0  0
  140.2370   76.1830  221.4660 N   0  0  0  0  0  0  0  0  0  0  0  0
  138.9250   76.8050  221.4920 C   0  0  0  0  0  0  0  0  0  0  0  0
  138.8110   77.6140  222.7590 C   0  0  0  0  0  0  0  0  0  0  0  0
  140.0100   78.4790  222.8550 C   0  0  0  0  0  0  0  0  0  0  0  0
  139.9180   79.5980  223.6530 C   0  0  0  0  0  0  0  0  0  0  0  0
  140.9740   80.4560  223.8020 C   0  0  0  0  0  0  0  0  0  0  0  0
  142.1760   80.2170  223.1470 C   0  0  0  0  0  0  0  0  0  0  0  0
  142.2740   79.0890  222.3410 C   0  0  0  0  0  0  0  0  0  0  0  0
  141.1930   78.2210  222.1940 C   0  0  0  0  0  0  0  0  0  0  0  0
  141.3970   77.0450  221.3130 C   0  0  0  0  0  0  0  0  0  0  0  0
  139.4630   73.9920  222.0620 N   0  0  0  0  0  0  0  0  0  0  0  0
  139.6160   69.9980  227.3850 C   0  0  0  0  0  0  0  0  0  0  0  0
  140.0710   70.8870  228.3350 C   0  0  0  0  0  0  0  0  0  0  0  0
  141.3566   72.5596  228.7881 H   0  0  0  0  0  0  0  0  0  0  0  0
  142.2260   72.7016  226.4790 H   0  0  0  0  0  0  0  0  0  0  0  0
  141.4442   71.1173  224.7171 H   0  0  0  0  0  0  0  0  0  0  0  0
  140.3690   68.3215  224.8991 H   0  0  0  0  0  0  0  0  0  0  0  0
  138.6770   68.6668  225.3446 H   0  0  0  0  0  0  0  0  0  0  0  0
  140.4527   70.1638  223.3692 H   0  0  0  0  0  0  0  0  0  0  0  0
  138.9139   69.2558  223.0468 H   0  0  0  0  0  0  0  0  0  0  0  0
  137.6638   70.8889  224.3474 H   0  0  0  0  0  0  0  0  0  0  0  0
  139.2015   71.7975  224.6674 H   0  0  0  0  0  0  0  0  0  0  0  0
  137.6030   71.8660  222.2140 H   0  0  0  0  0  0  0  0  0  0  0  0
  143.2360   71.3260  221.3490 H   0  0  0  0  0  0  0  0  0  0  0  0
  143.2979   73.4163  219.2047 H   0  0  0  0  0  0  0  0  0  0  0  0
  144.5545   70.9378  219.7296 H   0  0  0  0  0  0  0  0  0  0  0  0
  144.9457   72.0126  218.3882 H   0  0  0  0  0  0  0  0  0  0  0  0
  146.2666   71.7000  221.0750 H   0  0  0  0  0  0  0  0  0  0  0  0
  147.0040   72.1009  219.5017 H   0  0  0  0  0  0  0  0  0  0  0  0
  146.7181   73.9724  221.4121 H   0  0  0  0  0  0  0  0  0  0  0  0
  146.5003   74.4208  219.7373 H   0  0  0  0  0  0  0  0  0  0  0  0
  144.4530   73.8519  221.8829 H   0  0  0  0  0  0  0  0  0  0  0  0
  144.3459   74.9970  220.5221 H   0  0  0  0  0  0  0  0  0  0  0  0
  138.8078   77.4631  220.6184 H   0  0  0  0  0  0  0  0  0  0  0  0
  138.1396   76.0355  221.4611 H   0  0  0  0  0  0  0  0  0  0  0  0
  137.9036   78.2349  222.7259 H   0  0  0  0  0  0  0  0  0  0  0  0
  138.7459   76.9501  223.6336 H   0  0  0  0  0  0  0  0  0  0  0  0
  138.9761   79.8064  224.1816 H   0  0  0  0  0  0  0  0  0  0  0  0
  140.8703   81.3420  224.4456 H   0  0  0  0  0  0  0  0  0  0  0  0
  143.0280   80.9029  223.2634 H   0  0  0  0  0  0  0  0  0  0  0  0
  143.2157   78.8786  221.8128 H   0  0  0  0  0  0  0  0  0  0  0  0
  141.4886   77.3704  220.2662 H   0  0  0  0  0  0  0  0  0  0  0  0
  142.3183   76.5096  221.5859 H   0  0  0  0  0  0  0  0  0  0  0  0
  138.8719   69.2317  227.6479 H   0  0  0  0  0  0  0  0  0  0  0  0
  139.6846   70.8234  229.3629 H   0  0  0  0  0  0  0  0  0  0  0  0
  1  2  2  0
  2  3  1  0
  3  4  2  0
  4  5  1  0
  5  6  1  0
  6  7  1  0
  7  8  1  0
  8  9  1  0
  9 10  2  0
 10 11  1  0
 11 12  1  0
 12 13  1  0
 13 14  1  0
 14 15  1  0
 15 16  1  0
 16 17  1  0
 11 18  2  0
 18 19  1  0
 19 20  1  0
 20 21  1  0
 21 22  1  0
 22 23  1  0
 23 24  2  0
 24 25  1  0
 25 26  2  0
 26 27  1  0
 27 28  2  0
 28 29  1  0
 19 30  2  0
  4 31  1  0
 31 32  2  0
 32  1  1  0
 30  9  1  0
 17 13  1  0
 29 20  1  0
 28 23  1  0
  1 33  1  0
  2 34  1  0
  3 35  1  0
  5 36  1  0
  5 37  1  0
  6 38  1  0
  6 39  1  0
  7 40  1  0
  7 41  1  0
  8 42  1  0
 12 43  1  0
 13 44  1  0
 14 45  1  0
 14 46  1  0
 15 47  1  0
 15 48  1  0
 16 49  1  0
 16 50  1  0
 17 51  1  0
 17 52  1  0
 21 53  1  0
 21 54  1  0
 22 55  1  0
 22 56  1  0
 24 57  1  0
 25 58  1  0
 26 59  1  0
 27 60  1  0
 29 61  1  0
 29 62  1  0
 31 63  1  0
 32 64  1  0
M  END
>  <smiles>  (17) 
c1ccc(CCCNc2nc(NC3CCCC3)nc(N3CCc4ccccc4C3)n2)cc1

>  <score_type>  (17) 
oracle

>  <origin>  (17) 
autodockgpu

>  <m_score__min__energy>  (17) 
-10.24

>  <m_primary>  (17) 
energy

>  <rmsd>  (17) 
2.3605564851930088

>  <m_score__min__rmsd>  (17) 
2.3605564851930088

>  <meeko>  (17) 
{"free_energy": -9.61, "intermolecular_energy": -12.0, "internal_energy": -1.21, "cluster_size": 39, "cluster_id": 1, "rank_in_cluster": 13}

>  <energy>  (17) 
-9.53

>  <cluster_rmsd>  (17) 
1.33

>  <cluster>  (17) 
1

$$$$

     RDKit          3D

 64 68  0  0  0  0  0  0  0  0999 V2000
  142.2180   81.4370  223.7880 C   0  0  0  0  0  0  0  0  0  0  0  0
  140.8730   81.1480  223.7310 C   0  0  0  0  0  0  0  0  0  0  0  0
  140.4130   79.9070  223.3030 C   0  0  0  0  0  0  0  0  0  0  0  0
  141.3550   78.9530  222.9290 C   0  0  0  0  0  0  0  0  0  0  0  0
  140.8850   77.6040  222.4620 C   0  0  0  0  0  0  0  0  0  0  0  0
  140.9290   77.6010  220.9560 C   0  0  0  0  0  0  0  0  0  0  0  0
  140.8200   76.2070  220.3900 C   0  0  0  0  0  0  0  0  0  0  0  0
  139.9950   75.3510  221.2190 N   0  0  0  0  0  0  0  0  0  0  0  0
  140.4400   74.0400  221.5560 C   0  0  0  0  0  0  0  0  0  0  0  0
  141.3910   73.4070  220.8310 N   0  0  0  0  0  0  0  0  0  0  0  0
  141.8110   72.1580  221.1560 C   0  0  0  0  0  0  0  0  0  0  0  0
  142.8130   71.4770  220.4020 N   0  0  0  0  0  0  0  0  0  0  0  0
  144.2120   71.8360  220.5530 C   0  0  0  0  0  0  0  0  0  0  0  0
  144.2840   73.2950  220.8670 C   0  0  0  0  0  0  0  0  0  0  0  0
  144.7810   73.9330  219.6070 C   0  0  0  0  0  0  0  0  0  0  0  0
  145.5810   72.9070  218.8630 C   0  0  0  0  0  0  0  0  0  0  0  0
  144.8800   71.6300  219.2150 C   0  0  0  0  0  0  0  0  0  0  0  0
  141.2530   71.5440  222.2400 N   0  0  0  0  0  0  0  0  0  0  0  0
  140.3040   72.1590  222.9760 C   0  0  0  0  0  0  0  0  0  0  0  0
  139.7150   71.5290  224.1070 N   0  0  0  0  0  0  0  0  0  0  0  0
  138.4460   70.8270  224.0460 C   0  0  0  0  0  0  0  0  0  0  0  0
  138.7100   69.3570  224.2580 C   0  0  0  0  0  0  0  0  0  0  0  0
  139.5440   69.2160  225.4740 C   0  0  0  0  0  0  0  0  0  0  0  0
  139.5310   67.9940  226.1100 C   0  0  0  0  0  0  0  0  0  0  0  0
  140.2700   67.7700  227.2400 C   0  0  0  0  0  0  0  0  0  0  0  0
  141.0570   68.7780  227.7790 C   0  0  0  0  0  0  0  0  0  0  0  0
  141.0740   70.0140  227.1430 C   0  0  0  0  0  0  0  0  0  0  0  0
  140.3180   70.2340  225.9920 C   0  0  0  0  0  0  0  0  0  0  0  0
  140.4030   71.5850  225.3860 C   0  0  0  0  0  0  0  0  0  0  0  0
  139.9350   73.3860  222.6030 N   0  0  0  0  0  0  0  0  0  0  0  0
  142.7170   79.2290  222.9800 C   0  0  0  0  0  0  0  0  0  0  0  0
  143.1300   80.4720  223.4100 C   0  0  0  0  0  0  0  0  0  0  0  0
  142.5615   82.4243  224.1304 H   0  0  0  0  0  0  0  0  0  0  0  0
  140.1453   81.9164  224.0309 H   0  0  0  0  0  0  0  0  0  0  0  0
  139.3362   79.6860  223.2613 H   0  0  0  0  0  0  0  0  0  0  0  0
  141.5461   76.8190  222.8579 H   0  0  0  0  0  0  0  0  0  0  0  0
  139.8632   77.4068  222.8185 H   0  0  0  0  0  0  0  0  0  0  0  0
  140.0925   78.2053  220.5751 H   0  0  0  0  0  0  0  0  0  0  0  0
  141.8971   78.0197  220.6436 H   0  0  0  0  0  0  0  0  0  0  0  0
  140.3757   76.2646  219.3854 H   0  0  0  0  0  0  0  0  0  0  0  0
  141.8305   75.7741  220.3520 H   0  0  0  0  0  0  0  0  0  0  0  0
  139.0890   75.6790  221.5670 H   0  0  0  0  0  0  0  0  0  0  0  0
  142.4920   70.7260  219.7550 H   0  0  0  0  0  0  0  0  0  0  0  0
  144.6900   71.2366  221.3418 H   0  0  0  0  0  0  0  0  0  0  0  0
  143.2898   73.6839  221.1323 H   0  0  0  0  0  0  0  0  0  0  0  0
  144.9402   73.5033  221.7249 H   0  0  0  0  0  0  0  0  0  0  0  0
  143.9300   74.2625  218.9927 H   0  0  0  0  0  0  0  0  0  0  0  0
  145.4006   74.8120  219.8381 H   0  0  0  0  0  0  0  0  0  0  0  0
  145.5522   73.0903  217.7788 H   0  0  0  0  0  0  0  0  0  0  0  0
  146.6488   72.9079  219.1273 H   0  0  0  0  0  0  0  0  0  0  0  0
  144.1255   71.3922  218.4507 H   0  0  0  0  0  0  0  0  0  0  0  0
  145.5944   70.7948  219.2619 H   0  0  0  0  0  0  0  0  0  0  0  0
  137.7748   71.2020  224.8327 H   0  0  0  0  0  0  0  0  0  0  0  0
  137.9680   70.9902  223.0688 H   0  0  0  0  0  0  0  0  0  0  0  0
  137.7585   68.8219  224.3931 H   0  0  0  0  0  0  0  0  0  0  0  0
  139.2278   68.9306  223.3862 H   0  0  0  0  0  0  0  0  0  0  0  0
  138.9134   67.1809  225.7008 H   0  0  0  0  0  0  0  0  0  0  0  0
  140.2399   66.7831  227.7249 H   0  0  0  0  0  0  0  0  0  0  0  0
  141.6527   68.6032  228.6871 H   0  0  0  0  0  0  0  0  0  0  0  0
  141.6908   70.8277  227.5523 H   0  0  0  0  0  0  0  0  0  0  0  0
  139.9184   72.3230  226.0421 H   0  0  0  0  0  0  0  0  0  0  0  0
  141.4524   71.8859  225.2509 H   0  0  0  0  0  0  0  0  0  0  0  0
  143.4530   78.4677  222.6820 H   0  0  0  0  0  0  0  0  0  0  0  0
  144.2055   80.6990  223.4527 H   0  0  0  0  0  0  0  0  0  0  0  0
  1  2  2  0
  2  3  1  0
  3  4  2  0
  4  5  1  0
  5  6  1  0
  6  7  1  0
  7  8  1  0
  8  9  1  0
  9 10  2  0
 10 11  1  0
 11 12  1  0
 12 13  1  0
 13 14  1  0
 14 15  1  0
 15 16  1  0
 16 17  1  0
 11 18  2  0
 18 19  1  0
 19 20  1  0
 20 21  1  0
 21 22  1  0
 22 23  1  0
 23 24  2  0
 24 25  1  0
 25 26  2  0
 26 27  1  0
 27 28  2  0
 28 29  1  0
 19 30  2  0
  4 31  1  0
 31 32  2  0
 32  1  1  0
 30  9  1  0
 17 13  1  0
 29 20  1  0
 28 23  1  0
  1 33  1  0
  2 34  1  0
  3 35  1  0
  5 36  1  0
  5 37  1  0
  6 38  1  0
  6 39  1  0
  7 40  1  0
  7 41  1  0
  8 42  1  0
 12 43  1  0
 13 44  1  0
 14 45  1  0
 14 46  1  0
 15 47  1  0
 15 48  1  0
 16 49  1  0
 16 50  1  0
 17 51  1  0
 17 52  1  0
 21 53  1  0
 21 54  1  0
 22 55  1  0
 22 56  1  0
 24 57  1  0
 25 58  1  0
 26 59  1  0
 27 60  1  0
 29 61  1  0
 29 62  1  0
 31 63  1  0
 32 64  1  0
M  END
>  <smiles>  (18) 
c1ccc(CCCNc2nc(NC3CCCC3)nc(N3CCc4ccccc4C3)n2)cc1

>  <score_type>  (18) 
oracle

>  <origin>  (18) 
autodockgpu

>  <m_score__min__energy>  (18) 
-10.24

>  <m_primary>  (18) 
energy

>  <rmsd>  (18) 
9.5387383552182

>  <m_score__min__rmsd>  (18) 
9.5387383552182

>  <meeko>  (18) 
{"free_energy": -9.32, "intermolecular_energy": -11.7, "internal_energy": -1.15, "cluster_size": 39, "cluster_id": 1, "rank_in_cluster": 23}

>  <energy>  (18) 
-9.51

>  <cluster_rmsd>  (18) 
1.41

>  <cluster>  (18) 
1

$$$$

     RDKit          3D

 64 68  0  0  0  0  0  0  0  0999 V2000
  143.2900   76.0560  218.4520 C   0  0  0  0  0  0  0  0  0  0  0  0
  143.6860   75.9170  219.7630 C   0  0  0  0  0  0  0  0  0  0  0  0
  144.3010   74.7550  220.2180 C   0  0  0  0  0  0  0  0  0  0  0  0
  144.5100   73.7240  219.3050 C   0  0  0  0  0  0  0  0  0  0  0  0
  145.1720   72.4590  219.7710 C   0  0  0  0  0  0  0  0  0  0  0  0
  144.1020   71.5720  220.3550 C   0  0  0  0  0  0  0  0  0  0  0  0
  143.2590   70.9240  219.2860 C   0  0  0  0  0  0  0  0  0  0  0  0
  141.8470   70.9610  219.6140 N   0  0  0  0  0  0  0  0  0  0  0  0
  141.3810   71.7980  220.6690 C   0  0  0  0  0  0  0  0  0  0  0  0
  141.5170   73.1430  220.6170 N   0  0  0  0  0  0  0  0  0  0  0  0
  141.0720   73.9360  221.6240 C   0  0  0  0  0  0  0  0  0  0  0  0
  141.2070   75.3560  221.5860 N   0  0  0  0  0  0  0  0  0  0  0  0
  140.1020   76.1840  221.1330 C   0  0  0  0  0  0  0  0  0  0  0  0
  139.6580   77.0310  222.2810 C   0  0  0  0  0  0  0  0  0  0  0  0
  138.3610   76.4280  222.7220 C   0  0  0  0  0  0  0  0  0  0  0  0
  137.7530   75.7400  221.5370 C   0  0  0  0  0  0  0  0  0  0  0  0
  138.9580   75.2620  220.7860 C   0  0  0  0  0  0  0  0  0  0  0  0
  140.4760   73.3480  222.7020 N   0  0  0  0  0  0  0  0  0  0  0  0
  140.3300   72.0080  222.7720 C   0  0  0  0  0  0  0  0  0  0  0  0
  139.7120   71.3830  223.8900 N   0  0  0  0  0  0  0  0  0  0  0  0
  138.5010   70.5900  223.7800 C   0  0  0  0  0  0  0  0  0  0  0  0
  138.8510   69.1520  224.0710 C   0  0  0  0  0  0  0  0  0  0  0  0
  139.6110   69.1180  225.3420 C   0  0  0  0  0  0  0  0  0  0  0  0
  139.6400   67.9240  226.0280 C   0  0  0  0  0  0  0  0  0  0  0  0
  140.3170   67.7970  227.2110 C   0  0  0  0  0  0  0  0  0  0  0  0
  140.9960   68.8800  227.7560 C   0  0  0  0  0  0  0  0  0  0  0  0
  140.9690   70.0880  227.0680 C   0  0  0  0  0  0  0  0  0  0  0  0
  140.2780   70.2080  225.8640 C   0  0  0  0  0  0  0  0  0  0  0  0
  140.3090   71.5370  225.2060 C   0  0  0  0  0  0  0  0  0  0  0  0
  140.7900   71.2850  221.7480 N   0  0  0  0  0  0  0  0  0  0  0  0
  144.1160   73.8490  217.9780 C   0  0  0  0  0  0  0  0  0  0  0  0
  143.5100   75.0170  217.5690 C   0  0  0  0  0  0  0  0  0  0  0  0
  142.8046   76.9827  218.1120 H   0  0  0  0  0  0  0  0  0  0  0  0
  143.5122   76.7439  220.4673 H   0  0  0  0  0  0  0  0  0  0  0  0
  144.6130   74.6534  221.2679 H   0  0  0  0  0  0  0  0  0  0  0  0
  145.6554   71.9540  218.9217 H   0  0  0  0  0  0  0  0  0  0  0  0
  145.9424   72.6813  220.5240 H   0  0  0  0  0  0  0  0  0  0  0  0
  144.5819   70.7845  220.9546 H   0  0  0  0  0  0  0  0  0  0  0  0
  143.4427   72.1980  220.9742 H   0  0  0  0  0  0  0  0  0  0  0  0
  143.4176   71.4565  218.3366 H   0  0  0  0  0  0  0  0  0  0  0  0
  143.5625   69.8698  219.2050 H   0  0  0  0  0  0  0  0  0  0  0  0
  141.1770   70.3870  219.0950 H   0  0  0  0  0  0  0  0  0  0  0  0
  142.1180   75.7550  221.8940 H   0  0  0  0  0  0  0  0  0  0  0  0
  140.3995   76.8037  220.2743 H   0  0  0  0  0  0  0  0  0  0  0  0
  140.3971   76.9985  223.0951 H   0  0  0  0  0  0  0  0  0  0  0  0
  139.5495   78.0887  221.9990 H   0  0  0  0  0  0  0  0  0  0  0  0
  138.5406   75.6999  223.5267 H   0  0  0  0  0  0  0  0  0  0  0  0
  137.6845   77.2061  223.1052 H   0  0  0  0  0  0  0  0  0  0  0  0
  137.1188   74.8971  221.8489 H   0  0  0  0  0  0  0  0  0  0  0  0
  137.0952   76.3906  220.9421 H   0  0  0  0  0  0  0  0  0  0  0  0
  139.2021   74.2316  221.0837 H   0  0  0  0  0  0  0  0  0  0  0  0
  138.7683   75.2696  219.7025 H   0  0  0  0  0  0  0  0  0  0  0  0
  137.7555   70.9461  224.5063 H   0  0  0  0  0  0  0  0  0  0  0  0
  138.0780   70.6808  222.7686 H   0  0  0  0  0  0  0  0  0  0  0  0
  137.9318   68.5558  224.1689 H   0  0  0  0  0  0  0  0  0  0  0  0
  139.4530   68.7304  223.2525 H   0  0  0  0  0  0  0  0  0  0  0  0
  139.1077   67.0538  225.6164 H   0  0  0  0  0  0  0  0  0  0  0  0
  140.3236   66.8296  227.7345 H   0  0  0  0  0  0  0  0  0  0  0  0
  141.5406   68.7841  228.7069 H   0  0  0  0  0  0  0  0  0  0  0  0
  141.4995   70.9595  227.4792 H   0  0  0  0  0  0  0  0  0  0  0  0
  139.7328   72.2634  225.7979 H   0  0  0  0  0  0  0  0  0  0  0  0
  141.3419   71.9063  225.1237 H   0  0  0  0  0  0  0  0  0  0  0  0
  144.2853   73.0283  217.2654 H   0  0  0  0  0  0  0  0  0  0  0  0
  143.1958   75.1238  216.5203 H   0  0  0  0  0  0  0  0  0  0  0  0
  1  2  2  0
  2  3  1  0
  3  4  2  0
  4  5  1  0
  5  6  1  0
  6  7  1  0
  7  8  1  0
  8  9  1  0
  9 10  2  0
 10 11  1  0
 11 12  1  0
 12 13  1  0
 13 14  1  0
 14 15  1  0
 15 16  1  0
 16 17  1  0
 11 18  2  0
 18 19  1  0
 19 20  1  0
 20 21  1  0
 21 22  1  0
 22 23  1  0
 23 24  2  0
 24 25  1  0
 25 26  2  0
 26 27  1  0
 27 28  2  0
 28 29  1  0
 19 30  2  0
  4 31  1  0
 31 32  2  0
 32  1  1  0
 30  9  1  0
 17 13  1  0
 29 20  1  0
 28 23  1  0
  1 33  1  0
  2 34  1  0
  3 35  1  0
  5 36  1  0
  5 37  1  0
  6 38  1  0
  6 39  1  0
  7 40  1  0
  7 41  1  0
  8 42  1  0
 12 43  1  0
 13 44  1  0
 14 45  1  0
 14 46  1  0
 15 47  1  0
 15 48  1  0
 16 49  1  0
 16 50  1  0
 17 51  1  0
 17 52  1  0
 21 53  1  0
 21 54  1  0
 22 55  1  0
 22 56  1  0
 24 57  1  0
 25 58  1  0
 26 59  1  0
 27 60  1  0
 29 61  1  0
 29 62  1  0
 31 63  1  0
 32 64  1  0
M  END
>  <smiles>  (19) 
c1ccc(CCCNc2nc(NC3CCCC3)nc(N3CCc4ccccc4C3)n2)cc1

>  <score_type>  (19) 
oracle

>  <origin>  (19) 
autodockgpu

>  <m_score__min__energy>  (19) 
-10.24

>  <m_primary>  (19) 
energy

>  <rmsd>  (19) 
8.69488133534777

>  <m_score__min__rmsd>  (19) 
8.69488133534777

>  <meeko>  (19) 
{"free_energy": -8.01, "intermolecular_energy": -10.39, "internal_energy": -2.14, "cluster_size": 2, "cluster_id": 6, "rank_in_cluster": 2}

>  <energy>  (19) 
-9.5

>  <cluster_rmsd>  (19) 
1.38

>  <cluster>  (19) 
1

$$$$

     RDKit          3D

 64 68  0  0  0  0  0  0  0  0999 V2000
  141.0680   71.7630  227.9330 C   0  0  0  0  0  0  0  0  0  0  0  0
  141.4020   71.9130  226.6060 C   0  0  0  0  0  0  0  0  0  0  0  0
  140.8740   71.0790  225.6250 C   0  0  0  0  0  0  0  0  0  0  0  0
  139.9900   70.0800  226.0210 C   0  0  0  0  0  0  0  0  0  0  0  0
  139.4060   69.1660  224.9810 C   0  0  0  0  0  0  0  0  0  0  0  0
  139.7160   69.7540  223.6290 C   0  0  0  0  0  0  0  0  0  0  0  0
  138.5230   70.4600  223.0330 C   0  0  0  0  0  0  0  0  0  0  0  0
  138.6110   71.8980  223.1930 N   0  0  0  0  0  0  0  0  0  0  0  0
  139.6110   72.6350  222.4950 C   0  0  0  0  0  0  0  0  0  0  0  0
  140.7200   72.0340  222.0040 N   0  0  0  0  0  0  0  0  0  0  0  0
  141.6690   72.7390  221.3400 C   0  0  0  0  0  0  0  0  0  0  0  0
  142.8440   72.1220  220.8170 N   0  0  0  0  0  0  0  0  0  0  0  0
  143.7220   72.8590  219.9250 C   0  0  0  0  0  0  0  0  0  0  0  0
  144.7460   71.9080  219.3950 C   0  0  0  0  0  0  0  0  0  0  0  0
  146.0100   72.2680  220.1130 C   0  0  0  0  0  0  0  0  0  0  0  0
  145.9170   73.7130  220.4990 C   0  0  0  0  0  0  0  0  0  0  0  0
  144.4510   73.8880  220.7540 C   0  0  0  0  0  0  0  0  0  0  0  0
  141.4850   74.0810  221.1700 N   0  0  0  0  0  0  0  0  0  0  0  0
  140.3860   74.6990  221.6510 C   0  0  0  0  0  0  0  0  0  0  0  0
  140.1820   76.0960  221.4820 N   0  0  0  0  0  0  0  0  0  0  0  0
  138.8650   76.7070  221.4850 C   0  0  0  0  0  0  0  0  0  0  0  0
  138.7430   77.5610  222.7220 C   0  0  0  0  0  0  0  0  0  0  0  0
  139.9350   78.4380  222.7870 C   0  0  0  0  0  0  0  0  0  0  0  0
  139.8330   79.5850  223.5440 C   0  0  0  0  0  0  0  0  0  0  0  0
  140.8820   80.4560  223.6620 C   0  0  0  0  0  0  0  0  0  0  0  0
  142.0860   80.2040  223.0170 C   0  0  0  0  0  0  0  0  0  0  0  0
  142.1940   79.0490  222.2510 C   0  0  0  0  0  0  0  0  0  0  0  0
  141.1210   78.1670  222.1360 C   0  0  0  0  0  0  0  0  0  0  0  0
  141.3350   76.9620  221.2980 C   0  0  0  0  0  0  0  0  0  0  0  0
  139.4900   73.9470  222.2960 N   0  0  0  0  0  0  0  0  0  0  0  0
  139.6430   69.9150  227.3570 C   0  0  0  0  0  0  0  0  0  0  0  0
  140.1890   70.7620  228.2970 C   0  0  0  0  0  0  0  0  0  0  0  0
  141.4959   72.4322  228.6940 H   0  0  0  0  0  0  0  0  0  0  0  0
  142.1019   72.7099  226.3145 H   0  0  0  0  0  0  0  0  0  0  0  0
  141.1475   71.2058  224.5671 H   0  0  0  0  0  0  0  0  0  0  0  0
  139.8553   68.1656  225.0665 H   0  0  0  0  0  0  0  0  0  0  0  0
  138.3190   69.0695  225.1193 H   0  0  0  0  0  0  0  0  0  0  0  0
  140.5391   70.4759  223.7359 H   0  0  0  0  0  0  0  0  0  0  0  0
  139.9946   68.9299  222.9557 H   0  0  0  0  0  0  0  0  0  0  0  0
  138.4695   70.2241  221.9599 H   0  0  0  0  0  0  0  0  0  0  0  0
  137.6224   70.1126  223.5605 H   0  0  0  0  0  0  0  0  0  0  0  0
  137.9590   72.3940  223.8080 H   0  0  0  0  0  0  0  0  0  0  0  0
  143.0320   71.1380  221.1040 H   0  0  0  0  0  0  0  0  0  0  0  0
  143.1524   73.3256  219.1078 H   0  0  0  0  0  0  0  0  0  0  0  0
  144.4591   70.8686  219.6128 H   0  0  0  0  0  0  0  0  0  0  0  0
  144.8539   71.9802  218.3027 H   0  0  0  0  0  0  0  0  0  0  0  0
  146.1200   71.6457  221.0134 H   0  0  0  0  0  0  0  0  0  0  0  0
  146.8833   72.0966  219.4665 H   0  0  0  0  0  0  0  0  0  0  0  0
  146.5055   73.9210  221.4048 H   0  0  0  0  0  0  0  0  0  0  0  0
  146.3133   74.3971  219.7342 H   0  0  0  0  0  0  0  0  0  0  0  0
  144.2340   73.7332  221.8212 H   0  0  0  0  0  0  0  0  0  0  0  0
  144.1285   74.9041  220.4828 H   0  0  0  0  0  0  0  0  0  0  0  0
  138.7426   77.3318  220.5880 H   0  0  0  0  0  0  0  0  0  0  0  0
  138.0863   75.9300  221.4821 H   0  0  0  0  0  0  0  0  0  0  0  0
  137.8308   78.1732  222.6654 H   0  0  0  0  0  0  0  0  0  0  0  0
  138.6818   76.9291  223.6203 H   0  0  0  0  0  0  0  0  0  0  0  0
  138.8890   79.8050  224.0641 H   0  0  0  0  0  0  0  0  0  0  0  0
  140.7706   81.3638  224.2732 H   0  0  0  0  0  0  0  0  0  0  0  0
  142.9323   80.9005  223.1099 H   0  0  0  0  0  0  0  0  0  0  0  0
  143.1372   78.8286  221.7296 H   0  0  0  0  0  0  0  0  0  0  0  0
  141.4240   77.2503  220.2402 H   0  0  0  0  0  0  0  0  0  0  0  0
  142.2607   76.4445  221.5899 H   0  0  0  0  0  0  0  0  0  0  0  0
  138.9439   69.1212  227.6589 H   0  0  0  0  0  0  0  0  0  0  0  0
  139.9198   70.6385  229.3564 H   0  0  0  0  0  0  0  0  0  0  0  0
  1  2  2  0
  2  3  1  0
  3  4  2  0
  4  5  1  0
  5  6  1  0
  6  7  1  0
  7  8  1  0
  8  9  1  0
  9 10  2  0
 10 11  1  0
 11 12  1  0
 12 13  1  0
 13 14  1  0
 14 15  1  0
 15 16  1  0
 16 17  1  0
 11 18  2  0
 18 19  1  0
 19 20  1  0
 20 21  1  0
 21 22  1  0
 22 23  1  0
 23 24  2  0
 24 25  1  0
 25 26  2  0
 26 27  1  0
 27 28  2  0
 28 29  1  0
 19 30  2  0
  4 31  1  0
 31 32  2  0
 32  1  1  0
 30  9  1  0
 17 13  1  0
 29 20  1  0
 28 23  1  0
  1 33  1  0
  2 34  1  0
  3 35  1  0
  5 36  1  0
  5 37  1  0
  6 38  1  0
  6 39  1  0
  7 40  1  0
  7 41  1  0
  8 42  1  0
 12 43  1  0
 13 44  1  0
 14 45  1  0
 14 46  1  0
 15 47  1  0
 15 48  1  0
 16 49  1  0
 16 50  1  0
 17 51  1  0
 17 52  1  0
 21 53  1  0
 21 54  1  0
 22 55  1  0
 22 56  1  0
 24 57  1  0
 25 58  1  0
 26 59  1  0
 27 60  1  0
 29 61  1  0
 29 62  1  0
 31 63  1  0
 32 64  1  0
M  END
>  <smiles>  (20) 
c1ccc(CCCNc2nc(NC3CCCC3)nc(N3CCc4ccccc4C3)n2)cc1

>  <score_type>  (20) 
oracle

>  <origin>  (20) 
autodockgpu

>  <m_score__min__energy>  (20) 
-10.24

>  <m_primary>  (20) 
energy

>  <rmsd>  (20) 
2.290693421345138

>  <m_score__min__rmsd>  (20) 
2.290693421345138

>  <meeko>  (20) 
{"free_energy": -10.03, "intermolecular_energy": -12.41, "internal_energy": -1.37, "cluster_size": 39, "cluster_id": 1, "rank_in_cluster": 5}

>  <energy>  (20) 
-9.41

>  <cluster_rmsd>  (20) 
1.18

>  <cluster>  (20) 
1

$$$$

     RDKit          3D

 64 68  0  0  0  0  0  0  0  0999 V2000
  142.7670   80.5030  223.6770 C   0  0  0  0  0  0  0  0  0  0  0  0
  142.5550   80.8140  222.3530 C   0  0  0  0  0  0  0  0  0  0  0  0
  141.7190   80.0440  221.5500 C   0  0  0  0  0  0  0  0  0  0  0  0
  141.0940   78.9400  222.1240 C   0  0  0  0  0  0  0  0  0  0  0  0
  140.1870   78.0920  221.2790 C   0  0  0  0  0  0  0  0  0  0  0  0
  139.1040   77.5470  222.1750 C   0  0  0  0  0  0  0  0  0  0  0  0
  139.1940   76.0480  222.3220 C   0  0  0  0  0  0  0  0  0  0  0  0
  140.3520   75.5060  221.6380 N   0  0  0  0  0  0  0  0  0  0  0  0
  140.6630   74.1210  221.7490 C   0  0  0  0  0  0  0  0  0  0  0  0
  141.5090   73.5130  220.8840 N   0  0  0  0  0  0  0  0  0  0  0  0
  141.8030   72.1940  220.9950 C   0  0  0  0  0  0  0  0  0  0  0  0
  142.6920   71.5380  220.0930 N   0  0  0  0  0  0  0  0  0  0  0  0
  143.6890   72.3020  219.3640 C   0  0  0  0  0  0  0  0  0  0  0  0
  144.5650   71.3380  218.6300 C   0  0  0  0  0  0  0  0  0  0  0  0
  145.8550   71.3400  219.3900 C   0  0  0  0  0  0  0  0  0  0  0  0
  145.9790   72.6680  220.0750 C   0  0  0  0  0  0  0  0  0  0  0  0
  144.5520   73.0090  220.3810 C   0  0  0  0  0  0  0  0  0  0  0  0
  141.2250   71.4790  222.0050 N   0  0  0  0  0  0  0  0  0  0  0  0
  140.3800   72.0660  222.8770 C   0  0  0  0  0  0  0  0  0  0  0  0
  139.7710   71.3340  223.9330 N   0  0  0  0  0  0  0  0  0  0  0  0
  138.6790   70.4010  223.7180 C   0  0  0  0  0  0  0  0  0  0  0  0
  139.1850   69.0090  223.9990 C   0  0  0  0  0  0  0  0  0  0  0  0
  139.8550   69.0270  225.3190 C   0  0  0  0  0  0  0  0  0  0  0  0
  139.9870   67.8240  225.9770 C   0  0  0  0  0  0  0  0  0  0  0  0
  140.5930   67.7430  227.2020 C   0  0  0  0  0  0  0  0  0  0  0  0
  141.0930   68.8820  227.8180 C   0  0  0  0  0  0  0  0  0  0  0  0
  140.9620   70.1000  227.1600 C   0  0  0  0  0  0  0  0  0  0  0  0
  140.3440   70.1730  225.9130 C   0  0  0  0  0  0  0  0  0  0  0  0
  140.2540   71.5170  225.2910 C   0  0  0  0  0  0  0  0  0  0  0  0
  140.1330   73.3680  222.7130 N   0  0  0  0  0  0  0  0  0  0  0  0
  141.2980   78.6130  223.4600 C   0  0  0  0  0  0  0  0  0  0  0  0
  142.1340   79.4020  224.2200 C   0  0  0  0  0  0  0  0  0  0  0  0
  143.4324   81.1237  224.2951 H   0  0  0  0  0  0  0  0  0  0  0  0
  143.0578   81.6912  221.9198 H   0  0  0  0  0  0  0  0  0  0  0  0
  141.5566   80.3000  220.4926 H   0  0  0  0  0  0  0  0  0  0  0  0
  139.7406   78.7020  220.4799 H   0  0  0  0  0  0  0  0  0  0  0  0
  140.7509   77.2709  220.8125 H   0  0  0  0  0  0  0  0  0  0  0  0
  139.2001   78.0079  223.1692 H   0  0  0  0  0  0  0  0  0  0  0  0
  138.1324   77.7861  221.7181 H   0  0  0  0  0  0  0  0  0  0  0  0
  139.2638   75.7991  223.3912 H   0  0  0  0  0  0  0  0  0  0  0  0
  138.2936   75.6065  221.8699 H   0  0  0  0  0  0  0  0  0  0  0  0
  140.9530   76.1130  221.0730 H   0  0  0  0  0  0  0  0  0  0  0  0
  142.5890   70.5060  219.9900 H   0  0  0  0  0  0  0  0  0  0  0  0
  143.2128   73.0121  218.6719 H   0  0  0  0  0  0  0  0  0  0  0  0
  144.1182   70.3328  218.6273 H   0  0  0  0  0  0  0  0  0  0  0  0
  144.7031   71.6213  217.5761 H   0  0  0  0  0  0  0  0  0  0  0  0
  145.8510   70.5323  220.1367 H   0  0  0  0  0  0  0  0  0  0  0  0
  146.7034   71.1773  218.7090 H   0  0  0  0  0  0  0  0  0  0  0  0
  146.5746   72.5862  220.9962 H   0  0  0  0  0  0  0  0  0  0  0  0
  146.4914   73.4287  219.4677 H   0  0  0  0  0  0  0  0  0  0  0  0
  144.2935   72.6687  221.3946 H   0  0  0  0  0  0  0  0  0  0  0  0
  144.3946   74.0967  220.3338 H   0  0  0  0  0  0  0  0  0  0  0  0
  137.8471   70.6388  224.3973 H   0  0  0  0  0  0  0  0  0  0  0  0
  138.3182   70.4715  222.6813 H   0  0  0  0  0  0  0  0  0  0  0  0
  138.3428   68.3016  224.0168 H   0  0  0  0  0  0  0  0  0  0  0  0
  139.8892   68.6916  223.2158 H   0  0  0  0  0  0  0  0  0  0  0  0
  139.5970   66.9086  225.5080 H   0  0  0  0  0  0  0  0  0  0  0  0
  140.6844   66.7675  227.7021 H   0  0  0  0  0  0  0  0  0  0  0  0
  141.5807   68.8226  228.8022 H   0  0  0  0  0  0  0  0  0  0  0  0
  141.3505   71.0161  227.6290 H   0  0  0  0  0  0  0  0  0  0  0  0
  139.5534   72.1478  225.8578 H   0  0  0  0  0  0  0  0  0  0  0  0
  141.2361   72.0124  225.2912 H   0  0  0  0  0  0  0  0  0  0  0  0
  140.7999   77.7382  223.9033 H   0  0  0  0  0  0  0  0  0  0  0  0
  142.3002   79.1505  225.2779 H   0  0  0  0  0  0  0  0  0  0  0  0
  1  2  2  0
  2  3  1  0
  3  4  2  0
  4  5  1  0
  5  6  1  0
  6  7  1  0
  7  8  1  0
  8  9  1  0
  9 10  2  0
 10 11  1  0
 11 12  1  0
 12 13  1  0
 13 14  1  0
 14 15  1  0
 15 16  1  0
 16 17  1  0
 11 18  2  0
 18 19  1  0
 19 20  1  0
 20 21  1  0
 21 22  1  0
 22 23  1  0
 23 24  2  0
 24 25  1  0
 25 26  2  0
 26 27  1  0
 27 28  2  0
 28 29  1  0
 19 30  2  0
  4 31  1  0
 31 32  2  0
 32  1  1  0
 30  9  1  0
 17 13  1  0
 29 20  1  0
 28 23  1  0
  1 33  1  0
  2 34  1  0
  3 35  1  0
  5 36  1  0
  5 37  1  0
  6 38  1  0
  6 39  1  0
  7 40  1  0
  7 41  1  0
  8 42  1  0
 12 43  1  0
 13 44  1  0
 14 45  1  0
 14 46  1  0
 15 47  1  0
 15 48  1  0
 16 49  1  0
 16 50  1  0
 17 51  1  0
 17 52  1  0
 21 53  1  0
 21 54  1  0
 22 55  1  0
 22 56  1  0
 24 57  1  0
 25 58  1  0
 26 59  1  0
 27 60  1  0
 29 61  1  0
 29 62  1  0
 31 63  1  0
 32 64  1  0
M  END
>  <smiles>  (21) 
c1ccc(CCCNc2nc(NC3CCCC3)nc(N3CCc4ccccc4C3)n2)cc1

>  <score_type>  (21) 
oracle

>  <origin>  (21) 
autodockgpu

>  <m_score__min__energy>  (21) 
-10.24

>  <m_primary>  (21) 
energy

>  <rmsd>  (21) 
9.48356426868943

>  <m_score__min__rmsd>  (21) 
9.48356426868943

>  <meeko>  (21) 
{"free_energy": -9.08, "intermolecular_energy": -11.47, "internal_energy": -1.01, "cluster_size": 39, "cluster_id": 1, "rank_in_cluster": 31}

>  <energy>  (21) 
-9.35

>  <cluster_rmsd>  (21) 
1.6

>  <cluster>  (21) 
1

$$$$

     RDKit          3D

 64 68  0  0  0  0  0  0  0  0999 V2000
  145.1930   74.5310  220.8400 C   0  0  0  0  0  0  0  0  0  0  0  0
  144.2610   74.4200  219.8330 C   0  0  0  0  0  0  0  0  0  0  0  0
  144.1680   73.2730  219.0520 C   0  0  0  0  0  0  0  0  0  0  0  0
  145.0490   72.2270  219.3140 C   0  0  0  0  0  0  0  0  0  0  0  0
  144.9700   70.9780  218.4840 C   0  0  0  0  0  0  0  0  0  0  0  0
  143.5170   70.7280  218.1710 C   0  0  0  0  0  0  0  0  0  0  0  0
  142.8080   70.0240  219.3000 C   0  0  0  0  0  0  0  0  0  0  0  0
  141.4720   70.5450  219.5080 N   0  0  0  0  0  0  0  0  0  0  0  0
  141.2070   71.4160  220.6040 C   0  0  0  0  0  0  0  0  0  0  0  0
  141.5240   72.7310  220.5550 N   0  0  0  0  0  0  0  0  0  0  0  0
  141.2700   73.5560  221.6020 C   0  0  0  0  0  0  0  0  0  0  0  0
  141.5970   74.9450  221.5680 N   0  0  0  0  0  0  0  0  0  0  0  0
  140.6150   75.9160  221.1210 C   0  0  0  0  0  0  0  0  0  0  0  0
  141.3450   77.1460  220.6880 C   0  0  0  0  0  0  0  0  0  0  0  0
  141.0910   78.1440  221.7750 C   0  0  0  0  0  0  0  0  0  0  0  0
  139.7890   77.7860  222.4260 C   0  0  0  0  0  0  0  0  0  0  0  0
  139.7720   76.2910  222.3150 C   0  0  0  0  0  0  0  0  0  0  0  0
  140.6820   73.0330  222.7170 N   0  0  0  0  0  0  0  0  0  0  0  0
  140.3580   71.7250  222.7850 C   0  0  0  0  0  0  0  0  0  0  0  0
  139.7460   71.1670  223.9410 N   0  0  0  0  0  0  0  0  0  0  0  0
  138.6220   70.2500  223.8730 C   0  0  0  0  0  0  0  0  0  0  0  0
  139.0920   68.8950  224.3410 C   0  0  0  0  0  0  0  0  0  0  0  0
  139.7850   69.0770  225.6370 C   0  0  0  0  0  0  0  0  0  0  0  0
  139.8920   67.9740  226.4550 C   0  0  0  0  0  0  0  0  0  0  0  0
  140.5170   68.0460  227.6710 C   0  0  0  0  0  0  0  0  0  0  0  0
  141.0610   69.2440  228.1150 C   0  0  0  0  0  0  0  0  0  0  0  0
  140.9550   70.3610  227.2940 C   0  0  0  0  0  0  0  0  0  0  0  0
  140.3180   70.2780  226.0570 C   0  0  0  0  0  0  0  0  0  0  0  0
  140.2570   71.5240  225.2540 C   0  0  0  0  0  0  0  0  0  0  0  0
  140.6350   70.9670  221.7210 N   0  0  0  0  0  0  0  0  0  0  0  0
  145.9970   72.3240  220.3270 C   0  0  0  0  0  0  0  0  0  0  0  0
  146.0560   73.4790  221.0780 C   0  0  0  0  0  0  0  0  0  0  0  0
  145.2498   75.4462  221.4477 H   0  0  0  0  0  0  0  0  0  0  0  0
  143.5741   75.2576  219.6417 H   0  0  0  0  0  0  0  0  0  0  0  0
  143.4195   73.1943  218.2498 H   0  0  0  0  0  0  0  0  0  0  0  0
  145.5368   71.1117  217.5508 H   0  0  0  0  0  0  0  0  0  0  0  0
  145.3993   70.1247  219.0295 H   0  0  0  0  0  0  0  0  0  0  0  0
  143.0221   71.6932  217.9881 H   0  0  0  0  0  0  0  0  0  0  0  0
  143.4677   70.0805  217.2832 H   0  0  0  0  0  0  0  0  0  0  0  0
  142.7387   68.9521  219.0629 H   0  0  0  0  0  0  0  0  0  0  0  0
  143.3857   70.1900  220.2213 H   0  0  0  0  0  0  0  0  0  0  0  0
  140.7100   70.2910  218.8730 H   0  0  0  0  0  0  0  0  0  0  0  0
  142.5560   75.2140  221.8740 H   0  0  0  0  0  0  0  0  0  0  0  0
  140.0023   75.5091  220.3030 H   0  0  0  0  0  0  0  0  0  0  0  0
  142.4219   76.9437  220.5916 H   0  0  0  0  0  0  0  0  0  0  0  0
  141.0053   77.5063  219.7058 H   0  0  0  0  0  0  0  0  0  0  0  0
  141.9033   78.1062  222.5158 H   0  0  0  0  0  0  0  0  0  0  0  0
  141.0482   79.1623  221.3613 H   0  0  0  0  0  0  0  0  0  0  0  0
  139.7689   78.1069  223.4779 H   0  0  0  0  0  0  0  0  0  0  0  0
  138.9179   78.2705  221.9608 H   0  0  0  0  0  0  0  0  0  0  0  0
  140.1916   75.8417  223.2272 H   0  0  0  0  0  0  0  0  0  0  0  0
  138.7425   75.9229  222.1938 H   0  0  0  0  0  0  0  0  0  0  0  0
  137.8096   70.6075  224.5228 H   0  0  0  0  0  0  0  0  0  0  0  0
  138.2444   70.1866  222.8418 H   0  0  0  0  0  0  0  0  0  0  0  0
  138.2299   68.2239  224.4691 H   0  0  0  0  0  0  0  0  0  0  0  0
  139.7730   68.4488  223.6013 H   0  0  0  0  0  0  0  0  0  0  0  0
  139.4663   67.0151  226.1243 H   0  0  0  0  0  0  0  0  0  0  0  0
  140.5888   67.1475  228.3015 H   0  0  0  0  0  0  0  0  0  0  0  0
  141.5631   69.3076  229.0916 H   0  0  0  0  0  0  0  0  0  0  0  0
  141.3786   71.3209  227.6243 H   0  0  0  0  0  0  0  0  0  0  0  0
  139.5846   72.2495  225.7352 H   0  0  0  0  0  0  0  0  0  0  0  0
  141.2528   71.9842  225.1726 H   0  0  0  0  0  0  0  0  0  0  0  0
  146.6889   71.4923  220.5260 H   0  0  0  0  0  0  0  0  0  0  0  0
  146.8034   73.5641  221.8806 H   0  0  0  0  0  0  0  0  0  0  0  0
  1  2  2  0
  2  3  1  0
  3  4  2  0
  4  5  1  0
  5  6  1  0
  6  7  1  0
  7  8  1  0
  8  9  1  0
  9 10  2  0
 10 11  1  0
 11 12  1  0
 12 13  1  0
 13 14  1  0
 14 15  1  0
 15 16  1  0
 16 17  1  0
 11 18  2  0
 18 19  1  0
 19 20  1  0
 20 21  1  0
 21 22  1  0
 22 23  1  0
 23 24  2  0
 24 25  1  0
 25 26  2  0
 26 27  1  0
 27 28  2  0
 28 29  1  0
 19 30  2  0
  4 31  1  0
 31 32  2  0
 32  1  1  0
 30  9  1  0
 17 13  1  0
 29 20  1  0
 28 23  1  0
  1 33  1  0
  2 34  1  0
  3 35  1  0
  5 36  1  0
  5 37  1  0
  6 38  1  0
  6 39  1  0
  7 40  1  0
  7 41  1  0
  8 42  1  0
 12 43  1  0
 13 44  1  0
 14 45  1  0
 14 46  1  0
 15 47  1  0
 15 48  1  0
 16 49  1  0
 16 50  1  0
 17 51  1  0
 17 52  1  0
 21 53  1  0
 21 54  1  0
 22 55  1  0
 22 56  1  0
 24 57  1  0
 25 58  1  0
 26 59  1  0
 27 60  1  0
 29 61  1  0
 29 62  1  0
 31 63  1  0
 32 64  1  0
M  END
>  <smiles>  (22) 
c1ccc(CCCNc2nc(NC3CCCC3)nc(N3CCc4ccccc4C3)n2)cc1

>  <score_type>  (22) 
oracle

>  <origin>  (22) 
autodockgpu

>  <m_score__min__energy>  (22) 
-10.24

>  <m_primary>  (22) 
energy

>  <rmsd>  (22) 
8.1566932282479

>  <m_score__min__rmsd>  (22) 
8.1566932282479

>  <meeko>  (22) 
{"free_energy": -8.61, "intermolecular_energy": -10.99, "internal_energy": -1.81, "cluster_size": 3, "cluster_id": 2, "rank_in_cluster": 2}

>  <energy>  (22) 
-9.33

>  <cluster_rmsd>  (22) 
1.63

>  <cluster>  (22) 
1

$$$$

     RDKit          3D

 64 68  0  0  0  0  0  0  0  0999 V2000
  140.9560   69.2210  228.4080 C   0  0  0  0  0  0  0  0  0  0  0  0
  140.6460   68.4680  227.2970 C   0  0  0  0  0  0  0  0  0  0  0  0
  140.3890   69.0610  226.0650 C   0  0  0  0  0  0  0  0  0  0  0  0
  140.4530   70.4500  225.9800 C   0  0  0  0  0  0  0  0  0  0  0  0
  140.1790   71.1150  224.6620 C   0  0  0  0  0  0  0  0  0  0  0  0
  139.4260   70.1330  223.8020 C   0  0  0  0  0  0  0  0  0  0  0  0
  138.6790   70.8170  222.6840 C   0  0  0  0  0  0  0  0  0  0  0  0
  138.6070   72.2520  222.8800 N   0  0  0  0  0  0  0  0  0  0  0  0
  139.5750   73.1040  222.2750 C   0  0  0  0  0  0  0  0  0  0  0  0
  140.7590   72.6240  221.8270 N   0  0  0  0  0  0  0  0  0  0  0  0
  141.6780   73.4400  221.2510 C   0  0  0  0  0  0  0  0  0  0  0  0
  142.9300   72.9520  220.7730 N   0  0  0  0  0  0  0  0  0  0  0  0
  143.9950   73.8790  220.4330 C   0  0  0  0  0  0  0  0  0  0  0  0
  144.2610   73.7590  218.9670 C   0  0  0  0  0  0  0  0  0  0  0  0
  145.5620   73.0230  218.8750 C   0  0  0  0  0  0  0  0  0  0  0  0
  146.3290   73.2940  220.1340 C   0  0  0  0  0  0  0  0  0  0  0  0
  145.2400   73.4250  221.1550 C   0  0  0  0  0  0  0  0  0  0  0  0
  141.3850   74.7680  221.1290 N   0  0  0  0  0  0  0  0  0  0  0  0
  140.2100   75.2650  221.5690 C   0  0  0  0  0  0  0  0  0  0  0  0
  139.8930   76.6460  221.4480 N   0  0  0  0  0  0  0  0  0  0  0  0
  139.1720   77.3820  222.4710 C   0  0  0  0  0  0  0  0  0  0  0  0
  140.1170   78.3830  223.0860 C   0  0  0  0  0  0  0  0  0  0  0  0
  140.7590   79.1380  221.9850 C   0  0  0  0  0  0  0  0  0  0  0  0
  141.2930   80.3710  222.2920 C   0  0  0  0  0  0  0  0  0  0  0  0
  141.9050   81.1400  221.3400 C   0  0  0  0  0  0  0  0  0  0  0  0
  142.0040   80.6940  220.0280 C   0  0  0  0  0  0  0  0  0  0  0  0
  141.4660   79.4510  219.7120 C   0  0  0  0  0  0  0  0  0  0  0  0
  140.8440   78.6740  220.6880 C   0  0  0  0  0  0  0  0  0  0  0  0
  140.3030   77.3640  220.2520 C   0  0  0  0  0  0  0  0  0  0  0  0
  139.3500   74.4090  222.1260 N   0  0  0  0  0  0  0  0  0  0  0  0
  140.7640   71.2230  227.0930 C   0  0  0  0  0  0  0  0  0  0  0  0
  141.0110   70.5960  228.2940 C   0  0  0  0  0  0  0  0  0  0  0  0
  141.1571   68.7334  229.3733 H   0  0  0  0  0  0  0  0  0  0  0  0
  140.6006   67.3725  227.3859 H   0  0  0  0  0  0  0  0  0  0  0  0
  140.1424   68.4508  225.1836 H   0  0  0  0  0  0  0  0  0  0  0  0
  139.5722   72.0193  224.8174 H   0  0  0  0  0  0  0  0  0  0  0  0
  141.1206   71.4103  224.1760 H   0  0  0  0  0  0  0  0  0  0  0  0
  140.1420   69.4203  223.3667 H   0  0  0  0  0  0  0  0  0  0  0  0
  138.6898   69.6195  224.4379 H   0  0  0  0  0  0  0  0  0  0  0  0
  139.1956   70.6133  221.7345 H   0  0  0  0  0  0  0  0  0  0  0  0
  137.6520   70.4231  222.6694 H   0  0  0  0  0  0  0  0  0  0  0  0
  137.8650   72.6620  223.4540 H   0  0  0  0  0  0  0  0  0  0  0  0
  143.0350   71.9190  220.6860 H   0  0  0  0  0  0  0  0  0  0  0  0
  143.7224   74.9096  220.7042 H   0  0  0  0  0  0  0  0  0  0  0  0
  143.4587   73.1917  218.4725 H   0  0  0  0  0  0  0  0  0  0  0  0
  144.3018   74.7395  218.4701 H   0  0  0  0  0  0  0  0  0  0  0  0
  145.3755   71.9436  218.7749 H   0  0  0  0  0  0  0  0  0  0  0  0
  146.1329   73.3581  217.9965 H   0  0  0  0  0  0  0  0  0  0  0  0
  147.0030   72.4591  220.3765 H   0  0  0  0  0  0  0  0  0  0  0  0
  146.9788   74.1792  220.0698 H   0  0  0  0  0  0  0  0  0  0  0  0
  145.0604   72.4539  221.6395 H   0  0  0  0  0  0  0  0  0  0  0  0
  145.5230   74.1492  221.9332 H   0  0  0  0  0  0  0  0  0  0  0  0
  138.3167   77.9061  222.0195 H   0  0  0  0  0  0  0  0  0  0  0  0
  138.7955   76.6924  223.2408 H   0  0  0  0  0  0  0  0  0  0  0  0
  139.5595   79.0726  223.7368 H   0  0  0  0  0  0  0  0  0  0  0  0
  140.8772   77.8699  223.6933 H   0  0  0  0  0  0  0  0  0  0  0  0
  141.2257   80.7448  223.3244 H   0  0  0  0  0  0  0  0  0  0  0  0
  142.3222   82.1197  221.6158 H   0  0  0  0  0  0  0  0  0  0  0  0
  142.4952   81.3081  219.2589 H   0  0  0  0  0  0  0  0  0  0  0  0
  141.5321   79.0766  218.6798 H   0  0  0  0  0  0  0  0  0  0  0  0
  139.4385   77.5156  219.5890 H   0  0  0  0  0  0  0  0  0  0  0  0
  141.0626   76.7942  219.6968 H   0  0  0  0  0  0  0  0  0  0  0  0
  140.8121   72.3192  227.0154 H   0  0  0  0  0  0  0  0  0  0  0  0
  141.2566   71.2017  229.1788 H   0  0  0  0  0  0  0  0  0  0  0  0
  1  2  2  0
  2  3  1  0
  3  4  2  0
  4  5  1  0
  5  6  1  0
  6  7  1  0
  7  8  1  0
  8  9  1  0
  9 10  2  0
 10 11  1  0
 11 12  1  0
 12 13  1  0
 13 14  1  0
 14 15  1  0
 15 16  1  0
 16 17  1  0
 11 18  2  0
 18 19  1  0
 19 20  1  0
 20 21  1  0
 21 22  1  0
 22 23  1  0
 23 24  2  0
 24 25  1  0
 25 26  2  0
 26 27  1  0
 27 28  2  0
 28 29  1  0
 19 30  2  0
  4 31  1  0
 31 32  2  0
 32  1  1  0
 30  9  1  0
 17 13  1  0
 29 20  1  0
 28 23  1  0
  1 33  1  0
  2 34  1  0
  3 35  1  0
  5 36  1  0
  5 37  1  0
  6 38  1  0
  6 39  1  0
  7 40  1  0
  7 41  1  0
  8 42  1  0
 12 43  1  0
 13 44  1  0
 14 45  1  0
 14 46  1  0
 15 47  1  0
 15 48  1  0
 16 49  1  0
 16 50  1  0
 17 51  1  0
 17 52  1  0
 21 53  1  0
 21 54  1  0
 22 55  1  0
 22 56  1  0
 24 57  1  0
 25 58  1  0
 26 59  1  0
 27 60  1  0
 29 61  1  0
 29 62  1  0
 31 63  1  0
 32 64  1  0
M  END
>  <smiles>  (23) 
c1ccc(CCCNc2nc(NC3CCCC3)nc(N3CCc4ccccc4C3)n2)cc1

>  <score_type>  (23) 
oracle

>  <origin>  (23) 
autodockgpu

>  <m_score__min__energy>  (23) 
-10.24

>  <m_primary>  (23) 
energy

>  <rmsd>  (23) 
2.724850198788184

>  <m_score__min__rmsd>  (23) 
2.724850198788184

>  <meeko>  (23) 
{"free_energy": -9.14, "intermolecular_energy": -11.52, "internal_energy": -1.14, "cluster_size": 39, "cluster_id": 1, "rank_in_cluster": 28}

>  <energy>  (23) 
-9.32

>  <cluster_rmsd>  (23) 
1.39

>  <cluster>  (23) 
1

$$$$

     RDKit          3D

 64 68  0  0  0  0  0  0  0  0999 V2000
  140.7860   68.2950  227.2090 C   0  0  0  0  0  0  0  0  0  0  0  0
  139.9910   67.9300  226.1470 C   0  0  0  0  0  0  0  0  0  0  0  0
  139.4650   68.8770  225.2730 C   0  0  0  0  0  0  0  0  0  0  0  0
  139.7660   70.2170  225.5010 C   0  0  0  0  0  0  0  0  0  0  0  0
  139.2100   71.2590  224.5720 C   0  0  0  0  0  0  0  0  0  0  0  0
  139.6820   70.9300  223.1800 C   0  0  0  0  0  0  0  0  0  0  0  0
  141.0400   71.5190  222.8900 C   0  0  0  0  0  0  0  0  0  0  0  0
  141.0000   72.4490  221.7780 N   0  0  0  0  0  0  0  0  0  0  0  0
  140.4020   73.7320  221.9420 C   0  0  0  0  0  0  0  0  0  0  0  0
  141.1390   74.8670  221.9020 N   0  0  0  0  0  0  0  0  0  0  0  0
  140.5640   76.0860  222.0580 C   0  0  0  0  0  0  0  0  0  0  0  0
  141.3260   77.2920  222.0180 N   0  0  0  0  0  0  0  0  0  0  0  0
  140.8540   78.4770  222.7130 C   0  0  0  0  0  0  0  0  0  0  0  0
  140.9590   79.6350  221.7740 C   0  0  0  0  0  0  0  0  0  0  0  0
  142.1280   80.4270  222.2730 C   0  0  0  0  0  0  0  0  0  0  0  0
  142.2650   80.1600  223.7410 C   0  0  0  0  0  0  0  0  0  0  0  0
  141.8030   78.7390  223.8570 C   0  0  0  0  0  0  0  0  0  0  0  0
  139.2150   76.1510  222.2570 N   0  0  0  0  0  0  0  0  0  0  0  0
  138.4630   75.0310  222.2990 C   0  0  0  0  0  0  0  0  0  0  0  0
  137.0580   75.0850  222.5060 N   0  0  0  0  0  0  0  0  0  0  0  0
  136.1230   74.2300  221.7960 C   0  0  0  0  0  0  0  0  0  0  0  0
  135.5150   73.2700  222.7870 C   0  0  0  0  0  0  0  0  0  0  0  0
  135.0230   74.0590  223.9410 C   0  0  0  0  0  0  0  0  0  0  0  0
  134.0540   73.4820  224.7330 C   0  0  0  0  0  0  0  0  0  0  0  0
  133.5400   74.1350  225.8200 C   0  0  0  0  0  0  0  0  0  0  0  0
  133.9860   75.4070  226.1560 C   0  0  0  0  0  0  0  0  0  0  0  0
  134.9630   75.9940  225.3600 C   0  0  0  0  0  0  0  0  0  0  0  0
  135.4810   75.3220  224.2540 C   0  0  0  0  0  0  0  0  0  0  0  0
  136.5210   76.0320  223.4690 C   0  0  0  0  0  0  0  0  0  0  0  0
  139.0900   73.8630  222.1390 N   0  0  0  0  0  0  0  0  0  0  0  0
  140.5670   70.6020  226.5700 C   0  0  0  0  0  0  0  0  0  0  0  0
  141.0670   69.6320  227.4120 C   0  0  0  0  0  0  0  0  0  0  0  0
  141.1928   67.5313  227.8881 H   0  0  0  0  0  0  0  0  0  0  0  0
  139.7660   66.8655  225.9850 H   0  0  0  0  0  0  0  0  0  0  0  0
  138.8300   68.5755  224.4269 H   0  0  0  0  0  0  0  0  0  0  0  0
  138.1107   71.2448  224.6080 H   0  0  0  0  0  0  0  0  0  0  0  0
  139.5526   72.2615  224.8682 H   0  0  0  0  0  0  0  0  0  0  0  0
  139.7390   69.8367  223.0734 H   0  0  0  0  0  0  0  0  0  0  0  0
  138.9647   71.3624  222.4669 H   0  0  0  0  0  0  0  0  0  0  0  0
  141.3957   72.0502  223.7852 H   0  0  0  0  0  0  0  0  0  0  0  0
  141.7183   70.6957  222.6215 H   0  0  0  0  0  0  0  0  0  0  0  0
  141.3970   72.1920  220.8710 H   0  0  0  0  0  0  0  0  0  0  0  0
  142.2160   77.2740  221.4780 H   0  0  0  0  0  0  0  0  0  0  0  0
  139.8205   78.3431  223.0650 H   0  0  0  0  0  0  0  0  0  0  0  0
  141.1378   79.2857  220.7464 H   0  0  0  0  0  0  0  0  0  0  0  0
  140.0352   80.2314  221.7451 H   0  0  0  0  0  0  0  0  0  0  0  0
  143.0432   80.1153  221.7484 H   0  0  0  0  0  0  0  0  0  0  0  0
  141.9732   81.5004  222.0892 H   0  0  0  0  0  0  0  0  0  0  0  0
  143.3097   80.2663  224.0685 H   0  0  0  0  0  0  0  0  0  0  0  0
  141.6937   80.8594  224.3690 H   0  0  0  0  0  0  0  0  0  0  0  0
  142.6642   78.0575  223.7944 H   0  0  0  0  0  0  0  0  0  0  0  0
  141.3027   78.5713  224.8222 H   0  0  0  0  0  0  0  0  0  0  0  0
  135.3324   74.8426  221.3381 H   0  0  0  0  0  0  0  0  0  0  0  0
  136.6438   73.6758  221.0012 H   0  0  0  0  0  0  0  0  0  0  0  0
  134.6785   72.7299  222.3195 H   0  0  0  0  0  0  0  0  0  0  0  0
  136.2631   72.5340  223.1166 H   0  0  0  0  0  0  0  0  0  0  0  0
  133.6860   72.4752  224.4861 H   0  0  0  0  0  0  0  0  0  0  0  0
  132.7670   73.6486  226.4331 H   0  0  0  0  0  0  0  0  0  0  0  0
  133.5767   75.9361  227.0293 H   0  0  0  0  0  0  0  0  0  0  0  0
  135.3317   77.0008  225.6059 H   0  0  0  0  0  0  0  0  0  0  0  0
  136.0761   76.8905  222.9446 H   0  0  0  0  0  0  0  0  0  0  0  0
  137.3162   76.4097  224.1285 H   0  0  0  0  0  0  0  0  0  0  0  0
  140.7981   71.6637  226.7412 H   0  0  0  0  0  0  0  0  0  0  0  0
  141.7011   69.9279  228.2607 H   0  0  0  0  0  0  0  0  0  0  0  0
  1  2  2  0
  2  3  1  0
  3  4  2  0
  4  5  1  0
  5  6  1  0
  6  7  1  0
  7  8  1  0
  8  9  1  0
  9 10  2  0
 10 11  1  0
 11 12  1  0
 12 13  1  0
 13 14  1  0
 14 15  1  0
 15 16  1  0
 16 17  1  0
 11 18  2  0
 18 19  1  0
 19 20  1  0
 20 21  1  0
 21 22  1  0
 22 23  1  0
 23 24  2  0
 24 25  1  0
 25 26  2  0
 26 27  1  0
 27 28  2  0
 28 29  1  0
 19 30  2  0
  4 31  1  0
 31 32  2  0
 32  1  1  0
 30  9  1  0
 17 13  1  0
 29 20  1  0
 28 23  1  0
  1 33  1  0
  2 34  1  0
  3 35  1  0
  5 36  1  0
  5 37  1  0
  6 38  1  0
  6 39  1  0
  7 40  1  0
  7 41  1  0
  8 42  1  0
 12 43  1  0
 13 44  1  0
 14 45  1  0
 14 46  1  0
 15 47  1  0
 15 48  1  0
 16 49  1  0
 16 50  1  0
 17 51  1  0
 17 52  1  0
 21 53  1  0
 21 54  1  0
 22 55  1  0
 22 56  1  0
 24 57  1  0
 25 58  1  0
 26 59  1  0
 27 60  1  0
 29 61  1  0
 29 62  1  0
 31 63  1  0
 32 64  1  0
M  END
>  <smiles>  (24) 
c1ccc(CCCNc2nc(NC3CCCC3)nc(N3CCc4ccccc4C3)n2)cc1

>  <score_type>  (24) 
oracle

>  <origin>  (24) 
autodockgpu

>  <m_score__min__energy>  (24) 
-10.24

>  <m_primary>  (24) 
energy

>  <rmsd>  (24) 
2.9248445139305446

>  <m_score__min__rmsd>  (24) 
2.9248445139305446

>  <meeko>  (24) 
{"free_energy": -8.66, "intermolecular_energy": -11.05, "internal_energy": -1.36, "cluster_size": 4, "cluster_id": 3, "rank_in_cluster": 4}

>  <energy>  (24) 
-9.32

>  <cluster_rmsd>  (24) 
1.21

>  <cluster>  (24) 
1

$$$$

     RDKit          3D

 64 68  0  0  0  0  0  0  0  0999 V2000
  140.4270   69.8010  227.9740 C   0  0  0  0  0  0  0  0  0  0  0  0
  140.0530   69.1810  226.8030 C   0  0  0  0  0  0  0  0  0  0  0  0
  140.1300   69.8350  225.5770 C   0  0  0  0  0  0  0  0  0  0  0  0
  140.6010   71.1450  225.5620 C   0  0  0  0  0  0  0  0  0  0  0  0
  140.6930   71.8730  224.2510 C   0  0  0  0  0  0  0  0  0  0  0  0
  140.0290   71.0160  223.2040 C   0  0  0  0  0  0  0  0  0  0  0  0
  139.6590   71.8090  221.9760 C   0  0  0  0  0  0  0  0  0  0  0  0
  139.3160   73.1800  222.3010 N   0  0  0  0  0  0  0  0  0  0  0  0
  140.0870   74.2540  221.7700 C   0  0  0  0  0  0  0  0  0  0  0  0
  140.8520   74.0970  220.6640 N   0  0  0  0  0  0  0  0  0  0  0  0
  141.5840   75.1230  220.1620 C   0  0  0  0  0  0  0  0  0  0  0  0
  142.3960   74.9750  218.9980 N   0  0  0  0  0  0  0  0  0  0  0  0
  143.6420   74.2320  219.0660 C   0  0  0  0  0  0  0  0  0  0  0  0
  143.3080   72.7800  219.1860 C   0  0  0  0  0  0  0  0  0  0  0  0
  143.6140   72.4340  220.6100 C   0  0  0  0  0  0  0  0  0  0  0  0
  144.6680   73.3850  221.0940 C   0  0  0  0  0  0  0  0  0  0  0  0
  144.3440   74.6390  220.3390 C   0  0  0  0  0  0  0  0  0  0  0  0
  141.5340   76.3310  220.7960 N   0  0  0  0  0  0  0  0  0  0  0  0
  140.7770   76.5080  221.8990 C   0  0  0  0  0  0  0  0  0  0  0  0
  140.7170   77.7600  222.5690 N   0  0  0  0  0  0  0  0  0  0  0  0
  141.7520   78.2180  223.4780 C   0  0  0  0  0  0  0  0  0  0  0  0
  142.4500   79.3950  222.8440 C   0  0  0  0  0  0  0  0  0  0  0  0
  141.4120   80.3570  222.4060 C   0  0  0  0  0  0  0  0  0  0  0  0
  141.8010   81.6660  222.2240 C   0  0  0  0  0  0  0  0  0  0  0  0
  140.9110   82.6240  221.8210 C   0  0  0  0  0  0  0  0  0  0  0  0
  139.5820   82.2990  221.5830 C   0  0  0  0  0  0  0  0  0  0  0  0
  139.1840   80.9790  221.7650 C   0  0  0  0  0  0  0  0  0  0  0  0
  140.0960   80.0090  222.1760 C   0  0  0  0  0  0  0  0  0  0  0  0
  139.5750   78.6300  222.3410 C   0  0  0  0  0  0  0  0  0  0  0  0
  140.0810   75.4580  222.3420 N   0  0  0  0  0  0  0  0  0  0  0  0
  140.9820   71.7850  226.7350 C   0  0  0  0  0  0  0  0  0  0  0  0
  140.8890   71.1020  227.9290 C   0  0  0  0  0  0  0  0  0  0  0  0
  140.3588   69.2671  228.9333 H   0  0  0  0  0  0  0  0  0  0  0  0
  139.6849   68.1450  226.8372 H   0  0  0  0  0  0  0  0  0  0  0  0
  139.8275   69.3315  224.6469 H   0  0  0  0  0  0  0  0  0  0  0  0
  140.1780   72.8423  224.3237 H   0  0  0  0  0  0  0  0  0  0  0  0
  141.7443   72.0595  223.9866 H   0  0  0  0  0  0  0  0  0  0  0  0
  140.7207   70.2119  222.9124 H   0  0  0  0  0  0  0  0  0  0  0  0
  139.1036   70.6077  223.6362 H   0  0  0  0  0  0  0  0  0  0  0  0
  140.5133   71.8108  221.2830 H   0  0  0  0  0  0  0  0  0  0  0  0
  138.7777   71.3365  221.5177 H   0  0  0  0  0  0  0  0  0  0  0  0
  138.5220   73.3860  222.9140 H   0  0  0  0  0  0  0  0  0  0  0  0
  142.0520   75.4170  218.1200 H   0  0  0  0  0  0  0  0  0  0  0  0
  144.2649   74.4242  218.1800 H   0  0  0  0  0  0  0  0  0  0  0  0
  142.2443   72.6075  218.9652 H   0  0  0  0  0  0  0  0  0  0  0  0
  143.8786   72.1625  218.4767 H   0  0  0  0  0  0  0  0  0  0  0  0
  142.7068   72.5363  221.2236 H   0  0  0  0  0  0  0  0  0  0  0  0
  143.9678   71.3953  220.6866 H   0  0  0  0  0  0  0  0  0  0  0  0
  144.5920   73.5437  222.1798 H   0  0  0  0  0  0  0  0  0  0  0  0
  145.6939   73.0250  220.9270 H   0  0  0  0  0  0  0  0  0  0  0  0
  143.6857   75.2814  220.9423 H   0  0  0  0  0  0  0  0  0  0  0  0
  145.2606   75.2037  220.1131 H   0  0  0  0  0  0  0  0  0  0  0  0
  141.3000   78.5236  224.4331 H   0  0  0  0  0  0  0  0  0  0  0  0
  142.4719   77.4092  223.6721 H   0  0  0  0  0  0  0  0  0  0  0  0
  143.1174   79.8728  223.5763 H   0  0  0  0  0  0  0  0  0  0  0  0
  143.0544   79.0658  221.9859 H   0  0  0  0  0  0  0  0  0  0  0  0
  142.8488   81.9469  222.4064 H   0  0  0  0  0  0  0  0  0  0  0  0
  141.2513   83.6611  221.6843 H   0  0  0  0  0  0  0  0  0  0  0  0
  138.8629   83.0657  221.2589 H   0  0  0  0  0  0  0  0  0  0  0  0
  138.1365   80.6972  221.5823 H   0  0  0  0  0  0  0  0  0  0  0  0
  138.8912   78.5866  223.2015 H   0  0  0  0  0  0  0  0  0  0  0  0
  139.0182   78.3148  221.4462 H   0  0  0  0  0  0  0  0  0  0  0  0
  141.3521   72.8206  226.7113 H   0  0  0  0  0  0  0  0  0  0  0  0
  141.1880   71.6018  228.8622 H   0  0  0  0  0  0  0  0  0  0  0  0
  1  2  2  0
  2  3  1  0
  3  4  2  0
  4  5  1  0
  5  6  1  0
  6  7  1  0
  7  8  1  0
  8  9  1  0
  9 10  2  0
 10 11  1  0
 11 12  1  0
 12 13  1  0
 13 14  1  0
 14 15  1  0
 15 16  1  0
 16 17  1  0
 11 18  2  0
 18 19  1  0
 19 20  1  0
 20 21  1  0
 21 22  1  0
 22 23  1  0
 23 24  2  0
 24 25  1  0
 25 26  2  0
 26 27  1  0
 27 28  2  0
 28 29  1  0
 19 30  2  0
  4 31  1  0
 31 32  2  0
 32  1  1  0
 30  9  1  0
 17 13  1  0
 29 20  1  0
 28 23  1  0
  1 33  1  0
  2 34  1  0
  3 35  1  0
  5 36  1  0
  5 37  1  0
  6 38  1  0
  6 39  1  0
  7 40  1  0
  7 41  1  0
  8 42  1  0
 12 43  1  0
 13 44  1  0
 14 45  1  0
 14 46  1  0
 15 47  1  0
 15 48  1  0
 16 49  1  0
 16 50  1  0
 17 51  1  0
 17 52  1  0
 21 53  1  0
 21 54  1  0
 22 55  1  0
 22 56  1  0
 24 57  1  0
 25 58  1  0
 26 59  1  0
 27 60  1  0
 29 61  1  0
 29 62  1  0
 31 63  1  0
 32 64  1  0
M  END
>  <smiles>  (25) 
c1ccc(CCCNc2nc(NC3CCCC3)nc(N3CCc4ccccc4C3)n2)cc1

>  <score_type>  (25) 
oracle

>  <origin>  (25) 
autodockgpu

>  <m_score__min__energy>  (25) 
-10.24

>  <m_primary>  (25) 
energy

>  <rmsd>  (25) 
2.819622544774025

>  <m_score__min__rmsd>  (25) 
2.819622544774025

>  <meeko>  (25) 
{"free_energy": -8.98, "intermolecular_energy": -11.37, "internal_energy": -1.51, "cluster_size": 39, "cluster_id": 1, "rank_in_cluster": 34}

>  <energy>  (25) 
-9.26

>  <cluster_rmsd>  (25) 
1.6

>  <cluster>  (25) 
1

$$$$

     RDKit          3D

 64 68  0  0  0  0  0  0  0  0999 V2000
  140.3280   68.1700  228.1930 C   0  0  0  0  0  0  0  0  0  0  0  0
  139.8390   69.3890  228.6070 C   0  0  0  0  0  0  0  0  0  0  0  0
  139.9700   70.5300  227.8200 C   0  0  0  0  0  0  0  0  0  0  0  0
  140.6120   70.4080  226.5910 C   0  0  0  0  0  0  0  0  0  0  0  0
  140.7670   71.6250  225.7230 C   0  0  0  0  0  0  0  0  0  0  0  0
  140.7560   71.1670  224.2880 C   0  0  0  0  0  0  0  0  0  0  0  0
  139.3540   71.0310  223.7480 C   0  0  0  0  0  0  0  0  0  0  0  0
  138.9010   72.2500  223.1080 N   0  0  0  0  0  0  0  0  0  0  0  0
  139.7980   73.0100  222.3030 C   0  0  0  0  0  0  0  0  0  0  0  0
  140.8000   72.4200  221.6110 N   0  0  0  0  0  0  0  0  0  0  0  0
  141.6520   73.1480  220.8460 C   0  0  0  0  0  0  0  0  0  0  0  0
  142.7140   72.5430  220.1100 N   0  0  0  0  0  0  0  0  0  0  0  0
  143.8270   73.3480  219.6370 C   0  0  0  0  0  0  0  0  0  0  0  0
  144.8630   72.4230  219.0840 C   0  0  0  0  0  0  0  0  0  0  0  0
  145.9580   72.4230  220.1050 C   0  0  0  0  0  0  0  0  0  0  0  0
  145.8990   73.7290  220.8370 C   0  0  0  0  0  0  0  0  0  0  0  0
  144.4310   74.0350  220.8360 C   0  0  0  0  0  0  0  0  0  0  0  0
  141.4780   74.5010  220.7840 N   0  0  0  0  0  0  0  0  0  0  0  0
  140.4850   75.1070  221.4660 C   0  0  0  0  0  0  0  0  0  0  0  0
  140.2940   76.5150  221.4100 N   0  0  0  0  0  0  0  0  0  0  0  0
  138.9890   77.1400  221.5380 C   0  0  0  0  0  0  0  0  0  0  0  0
  138.9570   77.9030  222.8380 C   0  0  0  0  0  0  0  0  0  0  0  0
  140.1650   78.7590  222.8920 C   0  0  0  0  0  0  0  0  0  0  0  0
  140.1280   79.8500  223.7340 C   0  0  0  0  0  0  0  0  0  0  0  0
  141.1960   80.6970  223.8490 C   0  0  0  0  0  0  0  0  0  0  0  0
  142.3540   80.4790  223.1140 C   0  0  0  0  0  0  0  0  0  0  0  0
  142.3970   79.3800  222.2620 C   0  0  0  0  0  0  0  0  0  0  0  0
  141.3040   78.5220  222.1510 C   0  0  0  0  0  0  0  0  0  0  0  0
  141.4470   77.3780  221.2170 C   0  0  0  0  0  0  0  0  0  0  0  0
  139.6820   74.3340  222.2000 N   0  0  0  0  0  0  0  0  0  0  0  0
  141.1110   69.1850  226.1600 C   0  0  0  0  0  0  0  0  0  0  0  0
  140.9620   68.0800  226.9690 C   0  0  0  0  0  0  0  0  0  0  0  0
  140.2152   67.2795  228.8288 H   0  0  0  0  0  0  0  0  0  0  0  0
  139.3336   69.4629  229.5812 H   0  0  0  0  0  0  0  0  0  0  0  0
  139.5775   71.4998  228.1596 H   0  0  0  0  0  0  0  0  0  0  0  0
  139.9338   72.3208  225.9008 H   0  0  0  0  0  0  0  0  0  0  0  0
  141.7075   72.1465  225.9543 H   0  0  0  0  0  0  0  0  0  0  0  0
  141.3021   71.9008  223.6770 H   0  0  0  0  0  0  0  0  0  0  0  0
  141.2341   70.1773  224.2439 H   0  0  0  0  0  0  0  0  0  0  0  0
  139.3342   70.2141  223.0116 H   0  0  0  0  0  0  0  0  0  0  0  0
  138.6822   70.8194  224.5929 H   0  0  0  0  0  0  0  0  0  0  0  0
  137.9370   72.5740  223.2290 H   0  0  0  0  0  0  0  0  0  0  0  0
  142.6480   71.5180  219.9360 H   0  0  0  0  0  0  0  0  0  0  0  0
  143.4962   74.0728  218.8785 H   0  0  0  0  0  0  0  0  0  0  0  0
  144.4511   71.4109  218.9572 H   0  0  0  0  0  0  0  0  0  0  0  0
  145.2186   72.7418  218.0931 H   0  0  0  0  0  0  0  0  0  0  0  0
  145.8125   71.5914  220.8102 H   0  0  0  0  0  0  0  0  0  0  0  0
  146.9371   72.2976  219.6196 H   0  0  0  0  0  0  0  0  0  0  0  0
  146.2833   73.6276  221.8627 H   0  0  0  0  0  0  0  0  0  0  0  0
  146.5119   74.5180  220.3767 H   0  0  0  0  0  0  0  0  0  0  0  0
  143.9676   73.6565  221.7590 H   0  0  0  0  0  0  0  0  0  0  0  0
  144.2610   75.1207  220.7876 H   0  0  0  0  0  0  0  0  0  0  0  0
  138.8225   77.8296  220.6974 H   0  0  0  0  0  0  0  0  0  0  0  0
  138.1988   76.3749  221.5272 H   0  0  0  0  0  0  0  0  0  0  0  0
  138.0532   78.5284  222.8824 H   0  0  0  0  0  0  0  0  0  0  0  0
  138.9408   77.2080  223.6905 H   0  0  0  0  0  0  0  0  0  0  0  0
  139.2210   80.0434  224.3255 H   0  0  0  0  0  0  0  0  0  0  0  0
  141.1370   81.5588  224.5300 H   0  0  0  0  0  0  0  0  0  0  0  0
  143.2150   81.1578  223.2032 H   0  0  0  0  0  0  0  0  0  0  0  0
  143.3033   79.1860  221.6695 H   0  0  0  0  0  0  0  0  0  0  0  0
  141.4758   77.7410  220.1790 H   0  0  0  0  0  0  0  0  0  0  0  0
  142.3804   76.8300  221.4129 H   0  0  0  0  0  0  0  0  0  0  0  0
  141.6175   69.1004  225.1872 H   0  0  0  0  0  0  0  0  0  0  0  0
  141.3549   67.1086  226.6343 H   0  0  0  0  0  0  0  0  0  0  0  0
  1  2  2  0
  2  3  1  0
  3  4  2  0
  4  5  1  0
  5  6  1  0
  6  7  1  0
  7  8  1  0
  8  9  1  0
  9 10  2  0
 10 11  1  0
 11 12  1  0
 12 13  1  0
 13 14  1  0
 14 15  1  0
 15 16  1  0
 16 17  1  0
 11 18  2  0
 18 19  1  0
 19 20  1  0
 20 21  1  0
 21 22  1  0
 22 23  1  0
 23 24  2  0
 24 25  1  0
 25 26  2  0
 26 27  1  0
 27 28  2  0
 28 29  1  0
 19 30  2  0
  4 31  1  0
 31 32  2  0
 32  1  1  0
 30  9  1  0
 17 13  1  0
 29 20  1  0
 28 23  1  0
  1 33  1  0
  2 34  1  0
  3 35  1  0
  5 36  1  0
  5 37  1  0
  6 38  1  0
  6 39  1  0
  7 40  1  0
  7 41  1  0
  8 42  1  0
 12 43  1  0
 13 44  1  0
 14 45  1  0
 14 46  1  0
 15 47  1  0
 15 48  1  0
 16 49  1  0
 16 50  1  0
 17 51  1  0
 17 52  1  0
 21 53  1  0
 21 54  1  0
 22 55  1  0
 22 56  1  0
 24 57  1  0
 25 58  1  0
 26 59  1  0
 27 60  1  0
 29 61  1  0
 29 62  1  0
 31 63  1  0
 32 64  1  0
M  END
>  <smiles>  (26) 
c1ccc(CCCNc2nc(NC3CCCC3)nc(N3CCc4ccccc4C3)n2)cc1

>  <score_type>  (26) 
oracle

>  <origin>  (26) 
autodockgpu

>  <m_score__min__energy>  (26) 
-10.24

>  <m_primary>  (26) 
energy

>  <rmsd>  (26) 
2.38554647142866

>  <m_score__min__rmsd>  (26) 
2.38554647142866

>  <meeko>  (26) 
{"free_energy": -10.24, "intermolecular_energy": -12.62, "internal_energy": -1.21, "cluster_size": 39, "cluster_id": 1, "rank_in_cluster": 2}

>  <energy>  (26) 
-9.19

>  <cluster_rmsd>  (26) 
1.65

>  <cluster>  (26) 
1

$$$$

     RDKit          3D

 64 68  0  0  0  0  0  0  0  0999 V2000
  141.0720   71.8720  228.1480 C   0  0  0  0  0  0  0  0  0  0  0  0
  141.4520   72.2550  226.8810 C   0  0  0  0  0  0  0  0  0  0  0  0
  141.0730   71.5260  225.7570 C   0  0  0  0  0  0  0  0  0  0  0  0
  140.2930   70.3890  225.9460 C   0  0  0  0  0  0  0  0  0  0  0  0
  139.8710   69.5850  224.7490 C   0  0  0  0  0  0  0  0  0  0  0  0
  138.5910   70.1820  224.2240 C   0  0  0  0  0  0  0  0  0  0  0  0
  138.7800   70.8230  222.8720 C   0  0  0  0  0  0  0  0  0  0  0  0
  138.7130   72.2690  222.9460 N   0  0  0  0  0  0  0  0  0  0  0  0
  139.7340   73.0630  222.3480 C   0  0  0  0  0  0  0  0  0  0  0  0
  140.8780   72.5100  221.8810 N   0  0  0  0  0  0  0  0  0  0  0  0
  141.8480   73.2700  221.3130 C   0  0  0  0  0  0  0  0  0  0  0  0
  143.0590   72.7040  220.8160 N   0  0  0  0  0  0  0  0  0  0  0  0
  143.7290   73.2980  219.6720 C   0  0  0  0  0  0  0  0  0  0  0  0
  144.4980   74.4850  220.1530 C   0  0  0  0  0  0  0  0  0  0  0  0
  143.7180   75.6680  219.6680 C   0  0  0  0  0  0  0  0  0  0  0  0
  142.9610   75.2440  218.4460 C   0  0  0  0  0  0  0  0  0  0  0  0
  142.6600   73.8040  218.7340 C   0  0  0  0  0  0  0  0  0  0  0  0
  141.6480   74.6170  221.2160 N   0  0  0  0  0  0  0  0  0  0  0  0
  140.5140   75.1870  221.6750 C   0  0  0  0  0  0  0  0  0  0  0  0
  140.2940   76.5880  221.5810 N   0  0  0  0  0  0  0  0  0  0  0  0
  138.9840   77.1940  221.7440 C   0  0  0  0  0  0  0  0  0  0  0  0
  138.9930   77.9990  223.0190 C   0  0  0  0  0  0  0  0  0  0  0  0
  140.1840   78.8790  222.9920 C   0  0  0  0  0  0  0  0  0  0  0  0
  140.1630   79.9960  223.7980 C   0  0  0  0  0  0  0  0  0  0  0  0
  141.2180   80.8660  223.8400 C   0  0  0  0  0  0  0  0  0  0  0  0
  142.3480   80.6430  223.0630 C   0  0  0  0  0  0  0  0  0  0  0  0
  142.3750   79.5180  222.2470 C   0  0  0  0  0  0  0  0  0  0  0  0
  141.2960   78.6370  222.2110 C   0  0  0  0  0  0  0  0  0  0  0  0
  141.4210   77.4650  221.3100 C   0  0  0  0  0  0  0  0  0  0  0  0
  139.6000   74.3830  222.2240 N   0  0  0  0  0  0  0  0  0  0  0  0
  139.9020   69.9900  227.2190 C   0  0  0  0  0  0  0  0  0  0  0  0
  140.2980   70.7390  228.3050 C   0  0  0  0  0  0  0  0  0  0  0  0
  141.3811   72.4611  229.0240 H   0  0  0  0  0  0  0  0  0  0  0  0
  142.0687   73.1570  226.7541 H   0  0  0  0  0  0  0  0  0  0  0  0
  141.3812   71.8397  224.7487 H   0  0  0  0  0  0  0  0  0  0  0  0
  140.6505   69.6294  223.9741 H   0  0  0  0  0  0  0  0  0  0  0  0
  139.7192   68.5315  225.0267 H   0  0  0  0  0  0  0  0  0  0  0  0
  137.8370   69.3858  224.1374 H   0  0  0  0  0  0  0  0  0  0  0  0
  138.2661   70.9624  224.9278 H   0  0  0  0  0  0  0  0  0  0  0  0
  139.7638   70.5323  222.4749 H   0  0  0  0  0  0  0  0  0  0  0  0
  137.9692   70.4771  222.2141 H   0  0  0  0  0  0  0  0  0  0  0  0
  137.9360   72.7300  223.4280 H   0  0  0  0  0  0  0  0  0  0  0  0
  143.4270   71.8620  221.3080 H   0  0  0  0  0  0  0  0  0  0  0  0
  144.3901   72.5700  219.1791 H   0  0  0  0  0  0  0  0  0  0  0  0
  144.5616   74.4865  221.2512 H   0  0  0  0  0  0  0  0  0  0  0  0
  145.5328   74.4885  219.7799 H   0  0  0  0  0  0  0  0  0  0  0  0
  143.0161   75.9992  220.4475 H   0  0  0  0  0  0  0  0  0  0  0  0
  144.3926   76.5044  219.4327 H   0  0  0  0  0  0  0  0  0  0  0  0
  142.0360   75.8277  218.3290 H   0  0  0  0  0  0  0  0  0  0  0  0
  143.5183   75.3967  217.5100 H   0  0  0  0  0  0  0  0  0  0  0  0
  141.6712   73.7140  219.2074 H   0  0  0  0  0  0  0  0  0  0  0  0
  142.6492   73.2161  217.8043 H   0  0  0  0  0  0  0  0  0  0  0  0
  138.7693   77.8524  220.8894 H   0  0  0  0  0  0  0  0  0  0  0  0
  138.2083   76.4155  221.7915 H   0  0  0  0  0  0  0  0  0  0  0  0
  138.0793   78.6082  223.0831 H   0  0  0  0  0  0  0  0  0  0  0  0
  139.0282   77.3324  223.8933 H   0  0  0  0  0  0  0  0  0  0  0  0
  139.2784   80.1928  224.4216 H   0  0  0  0  0  0  0  0  0  0  0  0
  141.1712   81.7491  224.4942 H   0  0  0  0  0  0  0  0  0  0  0  0
  143.1994   81.3388  223.0928 H   0  0  0  0  0  0  0  0  0  0  0  0
  143.2586   79.3209  221.6222 H   0  0  0  0  0  0  0  0  0  0  0  0
  141.3984   77.7933  220.2604 H   0  0  0  0  0  0  0  0  0  0  0  0
  142.3724   76.9407  221.4834 H   0  0  0  0  0  0  0  0  0  0  0  0
  139.2855   69.0895  227.3569 H   0  0  0  0  0  0  0  0  0  0  0  0
  139.9924   70.4293  229.3153 H   0  0  0  0  0  0  0  0  0  0  0  0
  1  2  2  0
  2  3  1  0
  3  4  2  0
  4  5  1  0
  5  6  1  0
  6  7  1  0
  7  8  1  0
  8  9  1  0
  9 10  2  0
 10 11  1  0
 11 12  1  0
 12 13  1  0
 13 14  1  0
 14 15  1  0
 15 16  1  0
 16 17  1  0
 11 18  2  0
 18 19  1  0
 19 20  1  0
 20 21  1  0
 21 22  1  0
 22 23  1  0
 23 24  2  0
 24 25  1  0
 25 26  2  0
 26 27  1  0
 27 28  2  0
 28 29  1  0
 19 30  2  0
  4 31  1  0
 31 32  2  0
 32  1  1  0
 30  9  1  0
 17 13  1  0
 29 20  1  0
 28 23  1  0
  1 33  1  0
  2 34  1  0
  3 35  1  0
  5 36  1  0
  5 37  1  0
  6 38  1  0
  6 39  1  0
  7 40  1  0
  7 41  1  0
  8 42  1  0
 12 43  1  0
 13 44  1  0
 14 45  1  0
 14 46  1  0
 15 47  1  0
 15 48  1  0
 16 49  1  0
 16 50  1  0
 17 51  1  0
 17 52  1  0
 21 53  1  0
 21 54  1  0
 22 55  1  0
 22 56  1  0
 24 57  1  0
 25 58  1  0
 26 59  1  0
 27 60  1  0
 29 61  1  0
 29 62  1  0
 31 63  1  0
 32 64  1  0
M  END
>  <smiles>  (27) 
c1ccc(CCCNc2nc(NC3CCCC3)nc(N3CCc4ccccc4C3)n2)cc1

>  <score_type>  (27) 
oracle

>  <origin>  (27) 
autodockgpu

>  <m_score__min__energy>  (27) 
-10.24

>  <m_primary>  (27) 
energy

>  <rmsd>  (27) 
2.221508291029652

>  <m_score__min__rmsd>  (27) 
2.221508291029652

>  <meeko>  (27) 
{"free_energy": -9.76, "intermolecular_energy": -12.15, "internal_energy": -1.37, "cluster_size": 39, "cluster_id": 1, "rank_in_cluster": 11}

>  <energy>  (27) 
-9.19

>  <cluster_rmsd>  (27) 
0.91

>  <cluster>  (27) 
1

$$$$

     RDKit          3D

 64 68  0  0  0  0  0  0  0  0999 V2000
  141.0640   69.4590  227.7770 C   0  0  0  0  0  0  0  0  0  0  0  0
  140.3670   68.3550  227.3390 C   0  0  0  0  0  0  0  0  0  0  0  0
  139.5170   68.4220  226.2400 C   0  0  0  0  0  0  0  0  0  0  0  0
  139.3860   69.6440  225.5850 C   0  0  0  0  0  0  0  0  0  0  0  0
  138.4740   69.7430  224.3960 C   0  0  0  0  0  0  0  0  0  0  0  0
  139.2670   70.3340  223.2590 C   0  0  0  0  0  0  0  0  0  0  0  0
  138.4130   71.1950  222.3620 C   0  0  0  0  0  0  0  0  0  0  0  0
  138.5090   72.5990  222.7090 N   0  0  0  0  0  0  0  0  0  0  0  0
  139.5710   73.3930  222.1870 C   0  0  0  0  0  0  0  0  0  0  0  0
  140.7280   72.8340  221.7610 N   0  0  0  0  0  0  0  0  0  0  0  0
  141.7370   73.5940  221.2650 C   0  0  0  0  0  0  0  0  0  0  0  0
  142.9630   73.0230  220.8120 N   0  0  0  0  0  0  0  0  0  0  0  0
  144.0850   73.8780  220.4670 C   0  0  0  0  0  0  0  0  0  0  0  0
  144.2760   73.8140  218.9860 C   0  0  0  0  0  0  0  0  0  0  0  0
  145.5070   72.9820  218.7960 C   0  0  0  0  0  0  0  0  0  0  0  0
  146.3470   73.1240  220.0280 C   0  0  0  0  0  0  0  0  0  0  0  0
  145.3180   73.2880  221.1060 C   0  0  0  0  0  0  0  0  0  0  0  0
  141.5630   74.9470  221.2000 N   0  0  0  0  0  0  0  0  0  0  0  0
  140.4160   75.5220  221.6190 C   0  0  0  0  0  0  0  0  0  0  0  0
  140.2230   76.9300  221.5570 N   0  0  0  0  0  0  0  0  0  0  0  0
  138.9370   77.5600  221.7980 C   0  0  0  0  0  0  0  0  0  0  0  0
  139.0300   78.3450  223.0820 C   0  0  0  0  0  0  0  0  0  0  0  0
  140.2380   79.1990  223.0060 C   0  0  0  0  0  0  0  0  0  0  0  0
  140.2840   80.3040  223.8280 C   0  0  0  0  0  0  0  0  0  0  0  0
  141.3590   81.1500  223.8270 C   0  0  0  0  0  0  0  0  0  0  0  0
  142.4410   80.9150  222.9880 C   0  0  0  0  0  0  0  0  0  0  0  0
  142.4010   79.8020  222.1560 C   0  0  0  0  0  0  0  0  0  0  0  0
  141.3020   78.9450  222.1640 C   0  0  0  0  0  0  0  0  0  0  0  0
  141.3540   77.7860  221.2400 C   0  0  0  0  0  0  0  0  0  0  0  0
  139.4630   74.7180  222.0970 N   0  0  0  0  0  0  0  0  0  0  0  0
  140.0830   70.7670  226.0160 C   0  0  0  0  0  0  0  0  0  0  0  0
  140.9140   70.6580  227.1100 C   0  0  0  0  0  0  0  0  0  0  0  0
  141.7321   69.3862  228.6478 H   0  0  0  0  0  0  0  0  0  0  0  0
  140.4851   67.3989  227.8701 H   0  0  0  0  0  0  0  0  0  0  0  0
  138.9639   67.5348  225.8979 H   0  0  0  0  0  0  0  0  0  0  0  0
  138.1098   68.7427  224.1187 H   0  0  0  0  0  0  0  0  0  0  0  0
  137.6043   70.3749  224.6288 H   0  0  0  0  0  0  0  0  0  0  0  0
  140.0786   70.9495  223.6743 H   0  0  0  0  0  0  0  0  0  0  0  0
  139.6652   69.5050  222.6555 H   0  0  0  0  0  0  0  0  0  0  0  0
  138.7442   71.0624  221.3215 H   0  0  0  0  0  0  0  0  0  0  0  0
  137.3654   70.8838  222.4875 H   0  0  0  0  0  0  0  0  0  0  0  0
  137.8180   73.0290  223.3300 H   0  0  0  0  0  0  0  0  0  0  0  0
  143.0070   71.9840  220.7450 H   0  0  0  0  0  0  0  0  0  0  0  0
  143.9108   74.9117  220.8004 H   0  0  0  0  0  0  0  0  0  0  0  0
  143.4089   73.3394  218.5034 H   0  0  0  0  0  0  0  0  0  0  0  0
  144.3757   74.8128  218.5361 H   0  0  0  0  0  0  0  0  0  0  0  0
  145.2281   71.9277  218.6521 H   0  0  0  0  0  0  0  0  0  0  0  0
  146.0648   73.3161  217.9087 H   0  0  0  0  0  0  0  0  0  0  0  0
  146.9598   72.2262  220.1968 H   0  0  0  0  0  0  0  0  0  0  0  0
  147.0639   73.9567  219.9761 H   0  0  0  0  0  0  0  0  0  0  0  0
  145.0799   72.3103  221.5504 H   0  0  0  0  0  0  0  0  0  0  0  0
  145.6935   73.9446  221.9047 H   0  0  0  0  0  0  0  0  0  0  0  0
  138.6915   78.2357  220.9654 H   0  0  0  0  0  0  0  0  0  0  0  0
  138.1487   76.7968  221.8756 H   0  0  0  0  0  0  0  0  0  0  0  0
  138.1350   78.9731  223.2019 H   0  0  0  0  0  0  0  0  0  0  0  0
  139.0950   77.6645  223.9438 H   0  0  0  0  0  0  0  0  0  0  0  0
  139.4377   80.5103  224.4997 H   0  0  0  0  0  0  0  0  0  0  0  0
  141.3667   82.0233  224.4958 H   0  0  0  0  0  0  0  0  0  0  0  0
  143.3076   81.5925  222.9822 H   0  0  0  0  0  0  0  0  0  0  0  0
  143.2466   79.5953  221.4835 H   0  0  0  0  0  0  0  0  0  0  0  0
  141.2841   78.1317  220.1981 H   0  0  0  0  0  0  0  0  0  0  0  0
  142.3012   77.2385  221.3546 H   0  0  0  0  0  0  0  0  0  0  0  0
  139.9729   71.7278  225.4919 H   0  0  0  0  0  0  0  0  0  0  0  0
  141.4677   71.5425  227.4579 H   0  0  0  0  0  0  0  0  0  0  0  0
  1  2  2  0
  2  3  1  0
  3  4  2  0
  4  5  1  0
  5  6  1  0
  6  7  1  0
  7  8  1  0
  8  9  1  0
  9 10  2  0
 10 11  1  0
 11 12  1  0
 12 13  1  0
 13 14  1  0
 14 15  1  0
 15 16  1  0
 16 17  1  0
 11 18  2  0
 18 19  1  0
 19 20  1  0
 20 21  1  0
 21 22  1  0
 22 23  1  0
 23 24  2  0
 24 25  1  0
 25 26  2  0
 26 27  1  0
 27 28  2  0
 28 29  1  0
 19 30  2  0
  4 31  1  0
 31 32  2  0
 32  1  1  0
 30  9  1  0
 17 13  1  0
 29 20  1  0
 28 23  1  0
  1 33  1  0
  2 34  1  0
  3 35  1  0
  5 36  1  0
  5 37  1  0
  6 38  1  0
  6 39  1  0
  7 40  1  0
  7 41  1  0
  8 42  1  0
 12 43  1  0
 13 44  1  0
 14 45  1  0
 14 46  1  0
 15 47  1  0
 15 48  1  0
 16 49  1  0
 16 50  1  0
 17 51  1  0
 17 52  1  0
 21 53  1  0
 21 54  1  0
 22 55  1  0
 22 56  1  0
 24 57  1  0
 25 58  1  0
 26 59  1  0
 27 60  1  0
 29 61  1  0
 29 62  1  0
 31 63  1  0
 32 64  1  0
M  END
>  <smiles>  (28) 
c1ccc(CCCNc2nc(NC3CCCC3)nc(N3CCc4ccccc4C3)n2)cc1

>  <score_type>  (28) 
oracle

>  <origin>  (28) 
autodockgpu

>  <m_score__min__energy>  (28) 
-10.24

>  <m_primary>  (28) 
energy

>  <rmsd>  (28) 
2.442120360600148

>  <m_score__min__rmsd>  (28) 
2.442120360600148

>  <meeko>  (28) 
{"free_energy": -9.65, "intermolecular_energy": -12.04, "internal_energy": -1.1, "cluster_size": 39, "cluster_id": 1, "rank_in_cluster": 12}

>  <energy>  (28) 
-9.14

>  <cluster_rmsd>  (28) 
1.25

>  <cluster>  (28) 
1

$$$$

     RDKit          3D

 64 68  0  0  0  0  0  0  0  0999 V2000
  142.3160   81.5780  223.6750 C   0  0  0  0  0  0  0  0  0  0  0  0
  142.5610   80.3100  224.1520 C   0  0  0  0  0  0  0  0  0  0  0  0
  141.8080   79.2180  223.7330 C   0  0  0  0  0  0  0  0  0  0  0  0
  140.7900   79.4390  222.8090 C   0  0  0  0  0  0  0  0  0  0  0  0
  139.9620   78.2760  222.3410 C   0  0  0  0  0  0  0  0  0  0  0  0
  140.7830   77.0260  222.5260 C   0  0  0  0  0  0  0  0  0  0  0  0
  141.0620   76.3330  221.2160 C   0  0  0  0  0  0  0  0  0  0  0  0
  140.1380   75.2440  220.9730 N   0  0  0  0  0  0  0  0  0  0  0  0
  140.5080   73.9070  221.2980 C   0  0  0  0  0  0  0  0  0  0  0  0
  141.3830   73.2100  220.5360 N   0  0  0  0  0  0  0  0  0  0  0  0
  141.7320   71.9370  220.8500 C   0  0  0  0  0  0  0  0  0  0  0  0
  142.6530   71.1880  220.0580 N   0  0  0  0  0  0  0  0  0  0  0  0
  143.9530   71.7430  219.7260 C   0  0  0  0  0  0  0  0  0  0  0  0
  144.4230   72.5490  220.8940 C   0  0  0  0  0  0  0  0  0  0  0  0
  144.2680   73.9740  220.4620 C   0  0  0  0  0  0  0  0  0  0  0  0
  144.3630   74.0100  218.9670 C   0  0  0  0  0  0  0  0  0  0  0  0
  143.7580   72.6960  218.5720 C   0  0  0  0  0  0  0  0  0  0  0  0
  141.1820   71.3650  221.9600 N   0  0  0  0  0  0  0  0  0  0  0  0
  140.3090   72.0430  222.7330 C   0  0  0  0  0  0  0  0  0  0  0  0
  139.7280   71.4580  223.8920 N   0  0  0  0  0  0  0  0  0  0  0  0
  138.4390   70.7890  223.8750 C   0  0  0  0  0  0  0  0  0  0  0  0
  138.6690   69.3190  224.1180 C   0  0  0  0  0  0  0  0  0  0  0  0
  139.5250   69.1850  225.3190 C   0  0  0  0  0  0  0  0  0  0  0  0
  139.4940   67.9790  225.9860 C   0  0  0  0  0  0  0  0  0  0  0  0
  140.2510   67.7630  227.1050 C   0  0  0  0  0  0  0  0  0  0  0  0
  141.0770   68.7630  227.6030 C   0  0  0  0  0  0  0  0  0  0  0  0
  141.1120   69.9820  226.9350 C   0  0  0  0  0  0  0  0  0  0  0  0
  140.3370   70.1940  225.7950 C   0  0  0  0  0  0  0  0  0  0  0  0
  140.4450   71.5270  225.1540 C   0  0  0  0  0  0  0  0  0  0  0  0
  140.0060   73.2920  222.3690 N   0  0  0  0  0  0  0  0  0  0  0  0
  140.5310   80.7130  222.3180 C   0  0  0  0  0  0  0  0  0  0  0  0
  141.3000   81.7680  222.7600 C   0  0  0  0  0  0  0  0  0  0  0  0
  142.9222   82.4291  224.0187 H   0  0  0  0  0  0  0  0  0  0  0  0
  143.3705   80.1569  224.8809 H   0  0  0  0  0  0  0  0  0  0  0  0
  142.0109   78.2087  224.1205 H   0  0  0  0  0  0  0  0  0  0  0  0
  139.0391   78.2096  222.9358 H   0  0  0  0  0  0  0  0  0  0  0  0
  139.6836   78.4015  221.2843 H   0  0  0  0  0  0  0  0  0  0  0  0
  141.7404   77.2964  222.9954 H   0  0  0  0  0  0  0  0  0  0  0  0
  140.2095   76.3342  223.1604 H   0  0  0  0  0  0  0  0  0  0  0  0
  140.9712   77.0651  220.4001 H   0  0  0  0  0  0  0  0  0  0  0  0
  142.0780   75.9140  221.2618 H   0  0  0  0  0  0  0  0  0  0  0  0
  139.2160   75.4250  220.5660 H   0  0  0  0  0  0  0  0  0  0  0  0
  142.3480   70.2440  219.7410 H   0  0  0  0  0  0  0  0  0  0  0  0
  144.6703   70.9467  219.4782 H   0  0  0  0  0  0  0  0  0  0  0  0
  143.8051   72.3434  221.7805 H   0  0  0  0  0  0  0  0  0  0  0  0
  145.4598   72.3101  221.1733 H   0  0  0  0  0  0  0  0  0  0  0  0
  143.2893   74.3589  220.7845 H   0  0  0  0  0  0  0  0  0  0  0  0
  145.0516   74.6006  220.9129 H   0  0  0  0  0  0  0  0  0  0  0  0
  143.7898   74.8523  218.5524 H   0  0  0  0  0  0  0  0  0  0  0  0
  145.3890   74.1497  218.5959 H   0  0  0  0  0  0  0  0  0  0  0  0
  142.6848   72.8230  218.3667 H   0  0  0  0  0  0  0  0  0  0  0  0
  144.2372   72.3063  217.6618 H   0  0  0  0  0  0  0  0  0  0  0  0
  137.7950   71.2010  224.6659 H   0  0  0  0  0  0  0  0  0  0  0  0
  137.9442   70.9412  222.9044 H   0  0  0  0  0  0  0  0  0  0  0  0
  137.7069   68.8129  224.2863 H   0  0  0  0  0  0  0  0  0  0  0  0
  139.1567   68.8581  223.2464 H   0  0  0  0  0  0  0  0  0  0  0  0
  138.8466   67.1729  225.6104 H   0  0  0  0  0  0  0  0  0  0  0  0
  140.2053   66.7893  227.6147 H   0  0  0  0  0  0  0  0  0  0  0  0
  141.6875   68.5948  228.5024 H   0  0  0  0  0  0  0  0  0  0  0  0
  141.7587   70.7889  227.3102 H   0  0  0  0  0  0  0  0  0  0  0  0
  139.9948   72.2938  225.8015 H   0  0  0  0  0  0  0  0  0  0  0  0
  141.4988   71.7962  224.9894 H   0  0  0  0  0  0  0  0  0  0  0  0
  139.7247   80.8769  221.5879 H   0  0  0  0  0  0  0  0  0  0  0  0
  141.1005   82.7796  222.3767 H   0  0  0  0  0  0  0  0  0  0  0  0
  1  2  2  0
  2  3  1  0
  3  4  2  0
  4  5  1  0
  5  6  1  0
  6  7  1  0
  7  8  1  0
  8  9  1  0
  9 10  2  0
 10 11  1  0
 11 12  1  0
 12 13  1  0
 13 14  1  0
 14 15  1  0
 15 16  1  0
 16 17  1  0
 11 18  2  0
 18 19  1  0
 19 20  1  0
 20 21  1  0
 21 22  1  0
 22 23  1  0
 23 24  2  0
 24 25  1  0
 25 26  2  0
 26 27  1  0
 27 28  2  0
 28 29  1  0
 19 30  2  0
  4 31  1  0
 31 32  2  0
 32  1  1  0
 30  9  1  0
 17 13  1  0
 29 20  1  0
 28 23  1  0
  1 33  1  0
  2 34  1  0
  3 35  1  0
  5 36  1  0
  5 37  1  0
  6 38  1  0
  6 39  1  0
  7 40  1  0
  7 41  1  0
  8 42  1  0
 12 43  1  0
 13 44  1  0
 14 45  1  0
 14 46  1  0
 15 47  1  0
 15 48  1  0
 16 49  1  0
 16 50  1  0
 17 51  1  0
 17 52  1  0
 21 53  1  0
 21 54  1  0
 22 55  1  0
 22 56  1  0
 24 57  1  0
 25 58  1  0
 26 59  1  0
 27 60  1  0
 29 61  1  0
 29 62  1  0
 31 63  1  0
 32 64  1  0
M  END
>  <smiles>  (29) 
c1ccc(CCCNc2nc(NC3CCCC3)nc(N3CCc4ccccc4C3)n2)cc1

>  <score_type>  (29) 
oracle

>  <origin>  (29) 
autodockgpu

>  <m_score__min__energy>  (29) 
-10.24

>  <m_primary>  (29) 
energy

>  <rmsd>  (29) 
9.670795246833467

>  <m_score__min__rmsd>  (29) 
9.670795246833467

>  <meeko>  (29) 
{"free_energy": -8.95, "intermolecular_energy": -11.34, "internal_energy": -1.25, "cluster_size": 39, "cluster_id": 1, "rank_in_cluster": 35}

>  <energy>  (29) 
-9.1

>  <cluster_rmsd>  (29) 
1.45

>  <cluster>  (29) 
1

$$$$

     RDKit          3D

 64 68  0  0  0  0  0  0  0  0999 V2000
  140.7230   69.9360  228.1510 C   0  0  0  0  0  0  0  0  0  0  0  0
  141.0580   71.2630  227.9960 C   0  0  0  0  0  0  0  0  0  0  0  0
  140.9920   71.8900  226.7560 C   0  0  0  0  0  0  0  0  0  0  0  0
  140.5760   71.1360  225.6620 C   0  0  0  0  0  0  0  0  0  0  0  0
  140.4970   71.7890  224.3110 C   0  0  0  0  0  0  0  0  0  0  0  0
  139.9470   70.7730  223.3430 C   0  0  0  0  0  0  0  0  0  0  0  0
  139.5580   71.3980  222.0280 C   0  0  0  0  0  0  0  0  0  0  0  0
  140.4000   72.5310  221.6970 N   0  0  0  0  0  0  0  0  0  0  0  0
  139.9310   73.8580  221.9150 C   0  0  0  0  0  0  0  0  0  0  0  0
  140.7740   74.9170  221.9080 N   0  0  0  0  0  0  0  0  0  0  0  0
  140.3220   76.1790  222.1150 C   0  0  0  0  0  0  0  0  0  0  0  0
  141.1970   77.3070  222.1110 N   0  0  0  0  0  0  0  0  0  0  0  0
  140.7430   78.5860  222.6260 C   0  0  0  0  0  0  0  0  0  0  0  0
  141.0480   79.6310  221.6030 C   0  0  0  0  0  0  0  0  0  0  0  0
  142.2090   80.3900  222.1670 C   0  0  0  0  0  0  0  0  0  0  0  0
  142.1510   80.2680  223.6590 C   0  0  0  0  0  0  0  0  0  0  0  0
  141.5680   78.9010  223.8500 C   0  0  0  0  0  0  0  0  0  0  0  0
  138.9880   76.3660  222.3330 N   0  0  0  0  0  0  0  0  0  0  0  0
  138.1310   75.3240  222.3430 C   0  0  0  0  0  0  0  0  0  0  0  0
  136.7390   75.5050  222.5700 N   0  0  0  0  0  0  0  0  0  0  0  0
  135.8310   74.4010  222.8210 C   0  0  0  0  0  0  0  0  0  0  0  0
  135.3510   74.4990  224.2470 C   0  0  0  0  0  0  0  0  0  0  0  0
  134.8690   75.8820  224.4690 C   0  0  0  0  0  0  0  0  0  0  0  0
  133.9900   76.0840  225.5120 C   0  0  0  0  0  0  0  0  0  0  0  0
  133.4920   77.3270  225.7930 C   0  0  0  0  0  0  0  0  0  0  0  0
  133.8610   78.4260  225.0280 C   0  0  0  0  0  0  0  0  0  0  0  0
  134.7470   78.2280  223.9750 C   0  0  0  0  0  0  0  0  0  0  0  0
  135.2500   76.9590  223.6950 C   0  0  0  0  0  0  0  0  0  0  0  0
  136.1890   76.8510  222.5520 C   0  0  0  0  0  0  0  0  0  0  0  0
  138.6400   74.1080  222.1330 N   0  0  0  0  0  0  0  0  0  0  0  0
  140.2350   69.7950  225.8020 C   0  0  0  0  0  0  0  0  0  0  0  0
  140.3150   69.2130  227.0480 C   0  0  0  0  0  0  0  0  0  0  0  0
  140.7798   69.4587  229.1404 H   0  0  0  0  0  0  0  0  0  0  0  0
  141.3853   71.8404  228.8732 H   0  0  0  0  0  0  0  0  0  0  0  0
  141.2607   72.9507  226.6431 H   0  0  0  0  0  0  0  0  0  0  0  0
  139.8307   72.6631  224.3557 H   0  0  0  0  0  0  0  0  0  0  0  0
  141.4921   72.1294  223.9886 H   0  0  0  0  0  0  0  0  0  0  0  0
  140.7143   70.0066  223.1586 H   0  0  0  0  0  0  0  0  0  0  0  0
  139.0436   70.3326  223.7900 H   0  0  0  0  0  0  0  0  0  0  0  0
  139.6506   70.6423  221.2340 H   0  0  0  0  0  0  0  0  0  0  0  0
  138.5220   71.7575  222.1150 H   0  0  0  0  0  0  0  0  0  0  0  0
  141.3350   72.3860  221.3040 H   0  0  0  0  0  0  0  0  0  0  0  0
  142.1550   77.1630  221.7280 H   0  0  0  0  0  0  0  0  0  0  0  0
  139.6679   78.5585  222.8571 H   0  0  0  0  0  0  0  0  0  0  0  0
  141.3180   79.1666  220.6431 H   0  0  0  0  0  0  0  0  0  0  0  0
  140.1838   80.2816  221.4032 H   0  0  0  0  0  0  0  0  0  0  0  0
  143.1520   79.9649  221.7927 H   0  0  0  0  0  0  0  0  0  0  0  0
  142.1622   81.4466  221.8646 H   0  0  0  0  0  0  0  0  0  0  0  0
  143.1551   80.3376  224.1029 H   0  0  0  0  0  0  0  0  0  0  0  0
  141.5669   81.0653  224.1419 H   0  0  0  0  0  0  0  0  0  0  0  0
  142.3741   78.1607  223.9606 H   0  0  0  0  0  0  0  0  0  0  0  0
  140.9457   78.8678  224.7564 H   0  0  0  0  0  0  0  0  0  0  0  0
  134.9734   74.4611  222.1347 H   0  0  0  0  0  0  0  0  0  0  0  0
  136.3454   73.4423  222.6588 H   0  0  0  0  0  0  0  0  0  0  0  0
  134.5310   73.7854  224.4156 H   0  0  0  0  0  0  0  0  0  0  0  0
  136.1676   74.2603  224.9443 H   0  0  0  0  0  0  0  0  0  0  0  0
  133.6828   75.2281  226.1309 H   0  0  0  0  0  0  0  0  0  0  0  0
  132.7931   77.4571  226.6324 H   0  0  0  0  0  0  0  0  0  0  0  0
  133.4626   79.4271  225.2495 H   0  0  0  0  0  0  0  0  0  0  0  0
  135.0546   79.0833  223.3555 H   0  0  0  0  0  0  0  0  0  0  0  0
  135.6537   77.0263  221.6072 H   0  0  0  0  0  0  0  0  0  0  0  0
  136.9902   77.6002  222.6340 H   0  0  0  0  0  0  0  0  0  0  0  0
  139.9066   69.2083  224.9314 H   0  0  0  0  0  0  0  0  0  0  0  0
  140.0488   68.1523  227.1663 H   0  0  0  0  0  0  0  0  0  0  0  0
  1  2  2  0
  2  3  1  0
  3  4  2  0
  4  5  1  0
  5  6  1  0
  6  7  1  0
  7  8  1  0
  8  9  1  0
  9 10  2  0
 10 11  1  0
 11 12  1  0
 12 13  1  0
 13 14  1  0
 14 15  1  0
 15 16  1  0
 16 17  1  0
 11 18  2  0
 18 19  1  0
 19 20  1  0
 20 21  1  0
 21 22  1  0
 22 23  1  0
 23 24  2  0
 24 25  1  0
 25 26  2  0
 26 27  1  0
 27 28  2  0
 28 29  1  0
 19 30  2  0
  4 31  1  0
 31 32  2  0
 32  1  1  0
 30  9  1  0
 17 13  1  0
 29 20  1  0
 28 23  1  0
  1 33  1  0
  2 34  1  0
  3 35  1  0
  5 36  1  0
  5 37  1  0
  6 38  1  0
  6 39  1  0
  7 40  1  0
  7 41  1  0
  8 42  1  0
 12 43  1  0
 13 44  1  0
 14 45  1  0
 14 46  1  0
 15 47  1  0
 15 48  1  0
 16 49  1  0
 16 50  1  0
 17 51  1  0
 17 52  1  0
 21 53  1  0
 21 54  1  0
 22 55  1  0
 22 56  1  0
 24 57  1  0
 25 58  1  0
 26 59  1  0
 27 60  1  0
 29 61  1  0
 29 62  1  0
 31 63  1  0
 32 64  1  0
M  END
>  <smiles>  (30) 
c1ccc(CCCNc2nc(NC3CCCC3)nc(N3CCc4ccccc4C3)n2)cc1

>  <score_type>  (30) 
oracle

>  <origin>  (30) 
autodockgpu

>  <m_score__min__energy>  (30) 
-10.24

>  <m_primary>  (30) 
energy

>  <rmsd>  (30) 
2.0361356430700837

>  <m_score__min__rmsd>  (30) 
2.0361356430700837

>  <meeko>  (30) 
{"free_energy": -9.06, "intermolecular_energy": -11.45, "internal_energy": -1.22, "cluster_size": 4, "cluster_id": 3, "rank_in_cluster": 3}

>  <energy>  (30) 
-9.08

>  <cluster_rmsd>  (30) 
1.72

>  <cluster>  (30) 
1

$$$$

     RDKit          3D

 64 68  0  0  0  0  0  0  0  0999 V2000
  140.4190   71.8800  228.7080 C   0  0  0  0  0  0  0  0  0  0  0  0
  141.1560   72.2670  227.6120 C   0  0  0  0  0  0  0  0  0  0  0  0
  141.1140   71.5540  226.4180 C   0  0  0  0  0  0  0  0  0  0  0  0
  140.2990   70.4270  226.3570 C   0  0  0  0  0  0  0  0  0  0  0  0
  140.2360   69.6380  225.0800 C   0  0  0  0  0  0  0  0  0  0  0  0
  139.5670   70.5020  224.0420 C   0  0  0  0  0  0  0  0  0  0  0  0
  140.4850   71.5850  223.5310 C   0  0  0  0  0  0  0  0  0  0  0  0
  139.7630   72.5990  222.7890 N   0  0  0  0  0  0  0  0  0  0  0  0
  140.4580   73.4510  221.8830 C   0  0  0  0  0  0  0  0  0  0  0  0
  141.3400   72.9580  220.9820 N   0  0  0  0  0  0  0  0  0  0  0  0
  141.9990   73.7730  220.1210 C   0  0  0  0  0  0  0  0  0  0  0  0
  142.9310   73.2690  219.1660 N   0  0  0  0  0  0  0  0  0  0  0  0
  144.2790   73.8070  219.1060 C   0  0  0  0  0  0  0  0  0  0  0  0
  145.2130   72.6800  218.8040 C   0  0  0  0  0  0  0  0  0  0  0  0
  145.9210   72.4140  220.0960 C   0  0  0  0  0  0  0  0  0  0  0  0
  145.9220   73.6870  220.8860 C   0  0  0  0  0  0  0  0  0  0  0  0
  144.6240   74.3200  220.4830 C   0  0  0  0  0  0  0  0  0  0  0  0
  141.7550   75.1150  220.1780 N   0  0  0  0  0  0  0  0  0  0  0  0
  140.8790   75.6260  221.0680 C   0  0  0  0  0  0  0  0  0  0  0  0
  140.6170   77.0220  221.1370 N   0  0  0  0  0  0  0  0  0  0  0  0
  139.2910   77.5640  221.3750 C   0  0  0  0  0  0  0  0  0  0  0  0
  139.2850   78.2180  222.7340 C   0  0  0  0  0  0  0  0  0  0  0  0
  140.4500   79.1300  222.8040 C   0  0  0  0  0  0  0  0  0  0  0  0
  140.4010   80.1460  223.7340 C   0  0  0  0  0  0  0  0  0  0  0  0
  141.4310   81.0370  223.8720 C   0  0  0  0  0  0  0  0  0  0  0  0
  142.5610   80.9390  223.0700 C   0  0  0  0  0  0  0  0  0  0  0  0
  142.6150   79.9170  222.1290 C   0  0  0  0  0  0  0  0  0  0  0  0
  141.5620   79.0130  221.9960 C   0  0  0  0  0  0  0  0  0  0  0  0
  141.7160   77.9580  220.9650 C   0  0  0  0  0  0  0  0  0  0  0  0
  140.2640   74.7700  221.8870 N   0  0  0  0  0  0  0  0  0  0  0  0
  139.5490   70.0220  227.4560 C   0  0  0  0  0  0  0  0  0  0  0  0
  139.6200   70.7570  228.6190 C   0  0  0  0  0  0  0  0  0  0  0  0
  140.4657   72.4577  229.6429 H   0  0  0  0  0  0  0  0  0  0  0  0
  141.7932   73.1609  227.6816 H   0  0  0  0  0  0  0  0  0  0  0  0
  141.7073   71.8714  225.5478 H   0  0  0  0  0  0  0  0  0  0  0  0
  141.2523   69.3755  224.7509 H   0  0  0  0  0  0  0  0  0  0  0  0
  139.6705   68.7064  225.2294 H   0  0  0  0  0  0  0  0  0  0  0  0
  139.2602   69.8684  223.1967 H   0  0  0  0  0  0  0  0  0  0  0  0
  138.6984   70.9866  224.5119 H   0  0  0  0  0  0  0  0  0  0  0  0
  140.9860   72.0600  224.3874 H   0  0  0  0  0  0  0  0  0  0  0  0
  141.2155   71.1208  222.8521 H   0  0  0  0  0  0  0  0  0  0  0  0
  138.7530   72.7130  222.9110 H   0  0  0  0  0  0  0  0  0  0  0  0
  142.5990   72.5140  218.5310 H   0  0  0  0  0  0  0  0  0  0  0  0
  144.3542   74.5995  218.3469 H   0  0  0  0  0  0  0  0  0  0  0  0
  144.6543   71.7903  218.4779 H   0  0  0  0  0  0  0  0  0  0  0  0
  145.9114   72.9259  217.9905 H   0  0  0  0  0  0  0  0  0  0  0  0
  145.3956   71.6262  220.6557 H   0  0  0  0  0  0  0  0  0  0  0  0
  146.9510   72.0766  219.9082 H   0  0  0  0  0  0  0  0  0  0  0  0
  145.9466   73.4841  221.9668 H   0  0  0  0  0  0  0  0  0  0  0  0
  146.7986   74.3226  220.6923 H   0  0  0  0  0  0  0  0  0  0  0  0
  143.8335   74.0433  221.1961 H   0  0  0  0  0  0  0  0  0  0  0  0
  144.7121   75.4165  220.4778 H   0  0  0  0  0  0  0  0  0  0  0  0
  139.0492   78.3088  220.6025 H   0  0  0  0  0  0  0  0  0  0  0  0
  138.5403   76.7609  221.3370 H   0  0  0  0  0  0  0  0  0  0  0  0
  138.3546   78.7887  222.8703 H   0  0  0  0  0  0  0  0  0  0  0  0
  139.3451   77.4572  223.5262 H   0  0  0  0  0  0  0  0  0  0  0  0
  139.5153   80.2430  224.3791 H   0  0  0  0  0  0  0  0  0  0  0  0
  141.3633   81.8370  224.6240 H   0  0  0  0  0  0  0  0  0  0  0  0
  143.3919   81.6519  223.1768 H   0  0  0  0  0  0  0  0  0  0  0  0
  143.4991   79.8205  221.4817 H   0  0  0  0  0  0  0  0  0  0  0  0
  141.6764   78.4046  219.9605 H   0  0  0  0  0  0  0  0  0  0  0  0
  142.6838   77.4464  221.0727 H   0  0  0  0  0  0  0  0  0  0  0  0
  138.9093   69.1290  227.3975 H   0  0  0  0  0  0  0  0  0  0  0  0
  139.0296   70.4438  229.4927 H   0  0  0  0  0  0  0  0  0  0  0  0
  1  2  2  0
  2  3  1  0
  3  4  2  0
  4  5  1  0
  5  6  1  0
  6  7  1  0
  7  8  1  0
  8  9  1  0
  9 10  2  0
 10 11  1  0
 11 12  1  0
 12 13  1  0
 13 14  1  0
 14 15  1  0
 15 16  1  0
 16 17  1  0
 11 18  2  0
 18 19  1  0
 19 20  1  0
 20 21  1  0
 21 22  1  0
 22 23  1  0
 23 24  2  0
 24 25  1  0
 25 26  2  0
 26 27  1  0
 27 28  2  0
 28 29  1  0
 19 30  2  0
  4 31  1  0
 31 32  2  0
 32  1  1  0
 30  9  1  0
 17 13  1  0
 29 20  1  0
 28 23  1  0
  1 33  1  0
  2 34  1  0
  3 35  1  0
  5 36  1  0
  5 37  1  0
  6 38  1  0
  6 39  1  0
  7 40  1  0
  7 41  1  0
  8 42  1  0
 12 43  1  0
 13 44  1  0
 14 45  1  0
 14 46  1  0
 15 47  1  0
 15 48  1  0
 16 49  1  0
 16 50  1  0
 17 51  1  0
 17 52  1  0
 21 53  1  0
 21 54  1  0
 22 55  1  0
 22 56  1  0
 24 57  1  0
 25 58  1  0
 26 59  1  0
 27 60  1  0
 29 61  1  0
 29 62  1  0
 31 63  1  0
 32 64  1  0
M  END
>  <smiles>  (31) 
c1ccc(CCCNc2nc(NC3CCCC3)nc(N3CCc4ccccc4C3)n2)cc1

>  <score_type>  (31) 
oracle

>  <origin>  (31) 
autodockgpu

>  <m_score__min__energy>  (31) 
-10.24

>  <m_primary>  (31) 
energy

>  <rmsd>  (31) 
2.386956277148398

>  <m_score__min__rmsd>  (31) 
2.386956277148398

>  <meeko>  (31) 
{"free_energy": -9.99, "intermolecular_energy": -12.38, "internal_energy": -0.98, "cluster_size": 39, "cluster_id": 1, "rank_in_cluster": 8}

>  <energy>  (31) 
-9.08

>  <cluster_rmsd>  (31) 
1.53

>  <cluster>  (31) 
1

$$$$

     RDKit          3D

 64 68  0  0  0  0  0  0  0  0999 V2000
  141.0950   69.3160  228.2620 C   0  0  0  0  0  0  0  0  0  0  0  0
  140.3950   68.5480  227.3590 C   0  0  0  0  0  0  0  0  0  0  0  0
  139.7920   69.1120  226.2380 C   0  0  0  0  0  0  0  0  0  0  0  0
  139.9160   70.4850  226.0480 C   0  0  0  0  0  0  0  0  0  0  0  0
  139.2740   71.1180  224.8470 C   0  0  0  0  0  0  0  0  0  0  0  0
  139.6020   70.2630  223.6500 C   0  0  0  0  0  0  0  0  0  0  0  0
  140.3170   71.0440  222.5760 C   0  0  0  0  0  0  0  0  0  0  0  0
  140.1310   72.4730  222.7320 N   0  0  0  0  0  0  0  0  0  0  0  0
  140.7070   73.3750  221.7910 C   0  0  0  0  0  0  0  0  0  0  0  0
  141.5310   72.9420  220.8080 N   0  0  0  0  0  0  0  0  0  0  0  0
  142.0760   73.8050  219.9150 C   0  0  0  0  0  0  0  0  0  0  0  0
  142.9470   73.3660  218.8730 N   0  0  0  0  0  0  0  0  0  0  0  0
  144.3510   73.7360  218.8890 C   0  0  0  0  0  0  0  0  0  0  0  0
  145.1530   72.4950  219.1160 C   0  0  0  0  0  0  0  0  0  0  0  0
  145.6300   72.6020  220.5310 C   0  0  0  0  0  0  0  0  0  0  0  0
  145.6980   74.0580  220.8800 C   0  0  0  0  0  0  0  0  0  0  0  0
  144.5690   74.6360  220.0810 C   0  0  0  0  0  0  0  0  0  0  0  0
  141.7750   75.1330  220.0230 N   0  0  0  0  0  0  0  0  0  0  0  0
  140.9550   75.5830  220.9950 C   0  0  0  0  0  0  0  0  0  0  0  0
  140.6350   76.9630  221.1190 N   0  0  0  0  0  0  0  0  0  0  0  0
  139.3140   77.4350  221.4960 C   0  0  0  0  0  0  0  0  0  0  0  0
  139.4110   78.0660  222.8620 C   0  0  0  0  0  0  0  0  0  0  0  0
  140.5330   79.0330  222.8380 C   0  0  0  0  0  0  0  0  0  0  0  0
  140.5270   80.0300  223.7890 C   0  0  0  0  0  0  0  0  0  0  0  0
  141.5220   80.9690  223.8440 C   0  0  0  0  0  0  0  0  0  0  0  0
  142.5700   80.9400  222.9330 C   0  0  0  0  0  0  0  0  0  0  0  0
  142.5810   79.9370  221.9710 C   0  0  0  0  0  0  0  0  0  0  0  0
  141.5640   78.9850  221.9220 C   0  0  0  0  0  0  0  0  0  0  0  0
  141.6650   77.9550  220.8600 C   0  0  0  0  0  0  0  0  0  0  0  0
  140.4520   74.6830  221.8420 N   0  0  0  0  0  0  0  0  0  0  0  0
  140.6190   71.2740  226.9510 C   0  0  0  0  0  0  0  0  0  0  0  0
  141.2010   70.6770  228.0490 C   0  0  0  0  0  0  0  0  0  0  0  0
  141.5641   68.8519  229.1421 H   0  0  0  0  0  0  0  0  0  0  0  0
  140.3102   67.4642  227.5270 H   0  0  0  0  0  0  0  0  0  0  0  0
  139.2335   68.4901  225.5229 H   0  0  0  0  0  0  0  0  0  0  0  0
  138.1839   71.1659  224.9861 H   0  0  0  0  0  0  0  0  0  0  0  0
  139.6488   72.1422  224.7040 H   0  0  0  0  0  0  0  0  0  0  0  0
  140.2462   69.4320  223.9731 H   0  0  0  0  0  0  0  0  0  0  0  0
  138.6561   69.8927  223.2278 H   0  0  0  0  0  0  0  0  0  0  0  0
  141.3922   70.8176  222.6279 H   0  0  0  0  0  0  0  0  0  0  0  0
  139.8961   70.7497  221.6032 H   0  0  0  0  0  0  0  0  0  0  0  0
  139.5890   72.8440  223.5170 H   0  0  0  0  0  0  0  0  0  0  0  0
  142.5280   72.7810  218.1200 H   0  0  0  0  0  0  0  0  0  0  0  0
  144.6398   74.2295  217.9493 H   0  0  0  0  0  0  0  0  0  0  0  0
  144.5274   71.5998  218.9845 H   0  0  0  0  0  0  0  0  0  0  0  0
  145.9854   72.4021  218.4029 H   0  0  0  0  0  0  0  0  0  0  0  0
  144.9271   72.0880  221.2032 H   0  0  0  0  0  0  0  0  0  0  0  0
  146.6189   72.1329  220.6408 H   0  0  0  0  0  0  0  0  0  0  0  0
  145.5441   74.2161  221.9577 H   0  0  0  0  0  0  0  0  0  0  0  0
  146.6726   74.5172  220.6579 H   0  0  0  0  0  0  0  0  0  0  0  0
  143.6565   74.6755  220.6939 H   0  0  0  0  0  0  0  0  0  0  0  0
  144.8079   75.6593  219.7559 H   0  0  0  0  0  0  0  0  0  0  0  0
  138.9622   78.1791  220.7663 H   0  0  0  0  0  0  0  0  0  0  0  0
  138.6020   76.5967  221.5145 H   0  0  0  0  0  0  0  0  0  0  0  0
  138.4725   78.5882  223.1000 H   0  0  0  0  0  0  0  0  0  0  0  0
  139.5848   77.2962  223.6283 H   0  0  0  0  0  0  0  0  0  0  0  0
  139.7056   80.0725  224.5194 H   0  0  0  0  0  0  0  0  0  0  0  0
  141.4911   81.7524  224.6156 H   0  0  0  0  0  0  0  0  0  0  0  0
  143.3716   81.6923  222.9719 H   0  0  0  0  0  0  0  0  0  0  0  0
  143.4017   79.8939  221.2398 H   0  0  0  0  0  0  0  0  0  0  0  0
  141.5050   78.4148  219.8736 H   0  0  0  0  0  0  0  0  0  0  0  0
  142.6620   77.4902  220.8625 H   0  0  0  0  0  0  0  0  0  0  0  0
  140.7096   72.3587  226.7919 H   0  0  0  0  0  0  0  0  0  0  0  0
  141.7593   71.2948  228.7678 H   0  0  0  0  0  0  0  0  0  0  0  0
  1  2  2  0
  2  3  1  0
  3  4  2  0
  4  5  1  0
  5  6  1  0
  6  7  1  0
  7  8  1  0
  8  9  1  0
  9 10  2  0
 10 11  1  0
 11 12  1  0
 12 13  1  0
 13 14  1  0
 14 15  1  0
 15 16  1  0
 16 17  1  0
 11 18  2  0
 18 19  1  0
 19 20  1  0
 20 21  1  0
 21 22  1  0
 22 23  1  0
 23 24  2  0
 24 25  1  0
 25 26  2  0
 26 27  1  0
 27 28  2  0
 28 29  1  0
 19 30  2  0
  4 31  1  0
 31 32  2  0
 32  1  1  0
 30  9  1  0
 17 13  1  0
 29 20  1  0
 28 23  1  0
  1 33  1  0
  2 34  1  0
  3 35  1  0
  5 36  1  0
  5 37  1  0
  6 38  1  0
  6 39  1  0
  7 40  1  0
  7 41  1  0
  8 42  1  0
 12 43  1  0
 13 44  1  0
 14 45  1  0
 14 46  1  0
 15 47  1  0
 15 48  1  0
 16 49  1  0
 16 50  1  0
 17 51  1  0
 17 52  1  0
 21 53  1  0
 21 54  1  0
 22 55  1  0
 22 56  1  0
 24 57  1  0
 25 58  1  0
 26 59  1  0
 27 60  1  0
 29 61  1  0
 29 62  1  0
 31 63  1  0
 32 64  1  0
M  END
>  <smiles>  (32) 
c1ccc(CCCNc2nc(NC3CCCC3)nc(N3CCc4ccccc4C3)n2)cc1

>  <score_type>  (32) 
oracle

>  <origin>  (32) 
autodockgpu

>  <m_score__min__energy>  (32) 
-10.24

>  <m_primary>  (32) 
energy

>  <rmsd>  (32) 
2.7245959417817027

>  <m_score__min__rmsd>  (32) 
2.7245959417817027

>  <meeko>  (32) 
{"free_energy": -9.53, "intermolecular_energy": -11.91, "internal_energy": -1.11, "cluster_size": 39, "cluster_id": 1, "rank_in_cluster": 17}

>  <energy>  (32) 
-9.04

>  <cluster_rmsd>  (32) 
1.54

>  <cluster>  (32) 
1

$$$$

     RDKit          3D

 64 68  0  0  0  0  0  0  0  0999 V2000
  145.9110   73.9930  221.0640 C   0  0  0  0  0  0  0  0  0  0  0  0
  146.2100   72.6890  220.7370 C   0  0  0  0  0  0  0  0  0  0  0  0
  145.4480   71.9780  219.8150 C   0  0  0  0  0  0  0  0  0  0  0  0
  144.3650   72.6220  219.2240 C   0  0  0  0  0  0  0  0  0  0  0  0
  143.5260   71.8760  218.2250 C   0  0  0  0  0  0  0  0  0  0  0  0
  143.6530   70.4060  218.5290 C   0  0  0  0  0  0  0  0  0  0  0  0
  142.5240   69.9080  219.3970 C   0  0  0  0  0  0  0  0  0  0  0  0
  141.3960   70.8180  219.3890 N   0  0  0  0  0  0  0  0  0  0  0  0
  141.1450   71.6550  220.5150 C   0  0  0  0  0  0  0  0  0  0  0  0
  141.4670   72.9690  220.5060 N   0  0  0  0  0  0  0  0  0  0  0  0
  141.2260   73.7620  221.5800 C   0  0  0  0  0  0  0  0  0  0  0  0
  141.5590   75.1490  221.5880 N   0  0  0  0  0  0  0  0  0  0  0  0
  140.5140   76.1520  221.4840 C   0  0  0  0  0  0  0  0  0  0  0  0
  140.7650   76.9550  220.2480 C   0  0  0  0  0  0  0  0  0  0  0  0
  141.2770   78.2710  220.7450 C   0  0  0  0  0  0  0  0  0  0  0  0
  140.7290   78.4810  222.1250 C   0  0  0  0  0  0  0  0  0  0  0  0
  140.6610   77.0840  222.6620 C   0  0  0  0  0  0  0  0  0  0  0  0
  140.6460   73.2050  222.6840 N   0  0  0  0  0  0  0  0  0  0  0  0
  140.3170   71.8970  222.7120 C   0  0  0  0  0  0  0  0  0  0  0  0
  139.7130   71.3050  223.8560 N   0  0  0  0  0  0  0  0  0  0  0  0
  138.5010   70.5090  223.7840 C   0  0  0  0  0  0  0  0  0  0  0  0
  138.8560   69.0810  224.1140 C   0  0  0  0  0  0  0  0  0  0  0  0
  139.6310   69.0850  225.3760 C   0  0  0  0  0  0  0  0  0  0  0  0
  139.6690   67.9110  226.0970 C   0  0  0  0  0  0  0  0  0  0  0  0
  140.3600   67.8200  227.2750 C   0  0  0  0  0  0  0  0  0  0  0  0
  141.0450   68.9190  227.7780 C   0  0  0  0  0  0  0  0  0  0  0  0
  141.0090   70.1060  227.0550 C   0  0  0  0  0  0  0  0  0  0  0  0
  140.3030   70.1900  225.8560 C   0  0  0  0  0  0  0  0  0  0  0  0
  140.3260   71.4990  225.1590 C   0  0  0  0  0  0  0  0  0  0  0  0
  140.5810   71.1730  221.6220 N   0  0  0  0  0  0  0  0  0  0  0  0
  144.0500   73.9380  219.5440 C   0  0  0  0  0  0  0  0  0  0  0  0
  144.8300   74.6060  220.4620 C   0  0  0  0  0  0  0  0  0  0  0  0
  146.5252   74.5390  221.7951 H   0  0  0  0  0  0  0  0  0  0  0  0
  147.0706   72.1985  221.2154 H   0  0  0  0  0  0  0  0  0  0  0  0
  145.6946   70.9366  219.5605 H   0  0  0  0  0  0  0  0  0  0  0  0
  142.4745   72.1873  218.3117 H   0  0  0  0  0  0  0  0  0  0  0  0
  143.8655   72.0888  217.2006 H   0  0  0  0  0  0  0  0  0  0  0  0
  143.6466   69.8459  217.5823 H   0  0  0  0  0  0  0  0  0  0  0  0
  144.5949   70.2527  219.0762 H   0  0  0  0  0  0  0  0  0  0  0  0
  142.1932   68.9279  219.0229 H   0  0  0  0  0  0  0  0  0  0  0  0
  142.8949   69.8329  220.4299 H   0  0  0  0  0  0  0  0  0  0  0  0
  140.7710   70.8660  218.5790 H   0  0  0  0  0  0  0  0  0  0  0  0
  142.5680   75.3950  221.6710 H   0  0  0  0  0  0  0  0  0  0  0  0
  139.5191   75.6834  221.4583 H   0  0  0  0  0  0  0  0  0  0  0  0
  141.5150   76.4626  219.6116 H   0  0  0  0  0  0  0  0  0  0  0  0
  139.8591   77.0667  219.6341 H   0  0  0  0  0  0  0  0  0  0  0  0
  142.3765   78.2577  220.7764 H   0  0  0  0  0  0  0  0  0  0  0  0
  140.9604   79.0852  220.0765 H   0  0  0  0  0  0  0  0  0  0  0  0
  141.4022   79.1069  222.7292 H   0  0  0  0  0  0  0  0  0  0  0  0
  139.7612   79.0038  222.1380 H   0  0  0  0  0  0  0  0  0  0  0  0
  141.5827   76.8487  223.2144 H   0  0  0  0  0  0  0  0  0  0  0  0
  139.8106   76.9747  223.3511 H   0  0  0  0  0  0  0  0  0  0  0  0
  137.7638   70.8865  224.5080 H   0  0  0  0  0  0  0  0  0  0  0  0
  138.0656   70.5694  222.7756 H   0  0  0  0  0  0  0  0  0  0  0  0
  137.9386   68.4874  224.2406 H   0  0  0  0  0  0  0  0  0  0  0  0
  139.4489   68.6358  223.3014 H   0  0  0  0  0  0  0  0  0  0  0  0
  139.1328   67.0286  225.7178 H   0  0  0  0  0  0  0  0  0  0  0  0
  140.3731   66.8691  227.8278 H   0  0  0  0  0  0  0  0  0  0  0  0
  141.6017   68.8517  228.7243 H   0  0  0  0  0  0  0  0  0  0  0  0
  141.5440   70.9894  227.4336 H   0  0  0  0  0  0  0  0  0  0  0  0
  139.7568   72.2428  225.7359 H   0  0  0  0  0  0  0  0  0  0  0  0
  141.3575   71.8662  225.0535 H   0  0  0  0  0  0  0  0  0  0  0  0
  143.1915   74.4377  219.0715 H   0  0  0  0  0  0  0  0  0  0  0  0
  144.5872   75.6473  220.7204 H   0  0  0  0  0  0  0  0  0  0  0  0
  1  2  2  0
  2  3  1  0
  3  4  2  0
  4  5  1  0
  5  6  1  0
  6  7  1  0
  7  8  1  0
  8  9  1  0
  9 10  2  0
 10 11  1  0
 11 12  1  0
 12 13  1  0
 13 14  1  0
 14 15  1  0
 15 16  1  0
 16 17  1  0
 11 18  2  0
 18 19  1  0
 19 20  1  0
 20 21  1  0
 21 22  1  0
 22 23  1  0
 23 24  2  0
 24 25  1  0
 25 26  2  0
 26 27  1  0
 27 28  2  0
 28 29  1  0
 19 30  2  0
  4 31  1  0
 31 32  2  0
 32  1  1  0
 30  9  1  0
 17 13  1  0
 29 20  1  0
 28 23  1  0
  1 33  1  0
  2 34  1  0
  3 35  1  0
  5 36  1  0
  5 37  1  0
  6 38  1  0
  6 39  1  0
  7 40  1  0
  7 41  1  0
  8 42  1  0
 12 43  1  0
 13 44  1  0
 14 45  1  0
 14 46  1  0
 15 47  1  0
 15 48  1  0
 16 49  1  0
 16 50  1  0
 17 51  1  0
 17 52  1  0
 21 53  1  0
 21 54  1  0
 22 55  1  0
 22 56  1  0
 24 57  1  0
 25 58  1  0
 26 59  1  0
 27 60  1  0
 29 61  1  0
 29 62  1  0
 31 63  1  0
 32 64  1  0
M  END
>  <smiles>  (33) 
c1ccc(CCCNc2nc(NC3CCCC3)nc(N3CCc4ccccc4C3)n2)cc1

>  <score_type>  (33) 
oracle

>  <origin>  (33) 
autodockgpu

>  <m_score__min__energy>  (33) 
-10.24

>  <m_primary>  (33) 
energy

>  <rmsd>  (33) 
7.930448120200081

>  <m_score__min__rmsd>  (33) 
7.930448120200081

>  <meeko>  (33) 
{"free_energy": -8.5, "intermolecular_energy": -10.89, "internal_energy": -1.74, "cluster_size": 3, "cluster_id": 2, "rank_in_cluster": 3}

>  <energy>  (33) 
-9.02

>  <cluster_rmsd>  (33) 
1.61

>  <cluster>  (33) 
1

$$$$

     RDKit          3D

 64 68  0  0  0  0  0  0  0  0999 V2000
  141.0600   68.2530  227.8650 C   0  0  0  0  0  0  0  0  0  0  0  0
  140.4950   69.5070  227.9180 C   0  0  0  0  0  0  0  0  0  0  0  0
  139.5860   69.9370  226.9570 C   0  0  0  0  0  0  0  0  0  0  0  0
  139.2560   69.0580  225.9280 C   0  0  0  0  0  0  0  0  0  0  0  0
  138.2770   69.4970  224.8770 C   0  0  0  0  0  0  0  0  0  0  0  0
  139.0580   69.8150  223.6280 C   0  0  0  0  0  0  0  0  0  0  0  0
  139.9620   71.0080  223.8150 C   0  0  0  0  0  0  0  0  0  0  0  0
  139.3930   72.2130  223.2430 N   0  0  0  0  0  0  0  0  0  0  0  0
  140.1620   73.0090  222.3460 C   0  0  0  0  0  0  0  0  0  0  0  0
  141.1250   72.4670  221.5650 N   0  0  0  0  0  0  0  0  0  0  0  0
  141.8540   73.2300  220.7130 C   0  0  0  0  0  0  0  0  0  0  0  0
  142.8720   72.6750  219.8820 N   0  0  0  0  0  0  0  0  0  0  0  0
  144.0450   73.4600  219.5390 C   0  0  0  0  0  0  0  0  0  0  0  0
  145.0930   72.5250  219.0280 C   0  0  0  0  0  0  0  0  0  0  0  0
  146.1000   72.4410  220.1330 C   0  0  0  0  0  0  0  0  0  0  0  0
  146.0220   73.7150  220.9190 C   0  0  0  0  0  0  0  0  0  0  0  0
  144.5700   74.0720  220.8150 C   0  0  0  0  0  0  0  0  0  0  0  0
  141.5970   74.5690  220.6540 N   0  0  0  0  0  0  0  0  0  0  0  0
  140.6400   75.1290  221.4240 C   0  0  0  0  0  0  0  0  0  0  0  0
  140.3630   76.5230  221.3730 N   0  0  0  0  0  0  0  0  0  0  0  0
  139.0220   77.0650  221.4900 C   0  0  0  0  0  0  0  0  0  0  0  0
  138.9290   77.8170  222.7930 C   0  0  0  0  0  0  0  0  0  0  0  0
  140.0800   78.7470  222.8640 C   0  0  0  0  0  0  0  0  0  0  0  0
  139.9670   79.8280  223.7110 C   0  0  0  0  0  0  0  0  0  0  0  0
  140.9800   80.7400  223.8420 C   0  0  0  0  0  0  0  0  0  0  0  0
  142.1560   80.5970  223.1190 C   0  0  0  0  0  0  0  0  0  0  0  0
  142.2760   79.5080  222.2630 C   0  0  0  0  0  0  0  0  0  0  0  0
  141.2400   78.5840  222.1350 C   0  0  0  0  0  0  0  0  0  0  0  0
  141.4630   77.4570  221.1970 C   0  0  0  0  0  0  0  0  0  0  0  0
  139.9590   74.3230  222.2420 N   0  0  0  0  0  0  0  0  0  0  0  0
  139.8180   67.7890  225.8600 C   0  0  0  0  0  0  0  0  0  0  0  0
  140.7150   67.4030  226.8330 C   0  0  0  0  0  0  0  0  0  0  0  0
  141.7771   67.9321  228.6349 H   0  0  0  0  0  0  0  0  0  0  0  0
  140.7688   70.1851  228.7397 H   0  0  0  0  0  0  0  0  0  0  0  0
  139.1408   70.9416  227.0081 H   0  0  0  0  0  0  0  0  0  0  0  0
  137.5581   68.6896  224.6740 H   0  0  0  0  0  0  0  0  0  0  0  0
  137.7171   70.3807  225.2169 H   0  0  0  0  0  0  0  0  0  0  0  0
  139.6723   68.9423  223.3615 H   0  0  0  0  0  0  0  0  0  0  0  0
  138.3398   70.0548  222.8301 H   0  0  0  0  0  0  0  0  0  0  0  0
  140.1228   71.1670  224.8915 H   0  0  0  0  0  0  0  0  0  0  0  0
  140.9109   70.8008  223.2985 H   0  0  0  0  0  0  0  0  0  0  0  0
  138.4390   72.5000  223.4800 H   0  0  0  0  0  0  0  0  0  0  0  0
  142.7310   71.6990  219.5450 H   0  0  0  0  0  0  0  0  0  0  0  0
  143.8009   74.2290  218.7913 H   0  0  0  0  0  0  0  0  0  0  0  0
  144.6614   71.5347  218.8206 H   0  0  0  0  0  0  0  0  0  0  0  0
  145.5385   72.8749  218.0851 H   0  0  0  0  0  0  0  0  0  0  0  0
  145.8710   71.5845  220.7841 H   0  0  0  0  0  0  0  0  0  0  0  0
  147.1113   72.3029  219.7228 H   0  0  0  0  0  0  0  0  0  0  0  0
  146.3179   73.5547  221.9663 H   0  0  0  0  0  0  0  0  0  0  0  0
  146.6947   74.5017  220.5469 H   0  0  0  0  0  0  0  0  0  0  0  0
  144.0210   73.6692  221.6789 H   0  0  0  0  0  0  0  0  0  0  0  0
  144.4383   75.1640  220.8049 H   0  0  0  0  0  0  0  0  0  0  0  0
  138.8220   77.7478  220.6511 H   0  0  0  0  0  0  0  0  0  0  0  0
  138.2809   76.2525  221.4669 H   0  0  0  0  0  0  0  0  0  0  0  0
  137.9872   78.3841  222.8311 H   0  0  0  0  0  0  0  0  0  0  0  0
  138.9481   77.1176  223.6418 H   0  0  0  0  0  0  0  0  0  0  0  0
  139.0438   79.9611  224.2941 H   0  0  0  0  0  0  0  0  0  0  0  0
  140.8607   81.5931  224.5260 H   0  0  0  0  0  0  0  0  0  0  0  0
  142.9726   81.3269  223.2207 H   0  0  0  0  0  0  0  0  0  0  0  0
  143.1991   79.3740  221.6800 H   0  0  0  0  0  0  0  0  0  0  0  0
  141.4802   77.8272  220.1613 H   0  0  0  0  0  0  0  0  0  0  0  0
  142.4263   76.9664  221.4002 H   0  0  0  0  0  0  0  0  0  0  0  0
  139.5513   67.1031  225.0425 H   0  0  0  0  0  0  0  0  0  0  0  0
  141.1640   66.3999  226.7864 H   0  0  0  0  0  0  0  0  0  0  0  0
  1  2  2  0
  2  3  1  0
  3  4  2  0
  4  5  1  0
  5  6  1  0
  6  7  1  0
  7  8  1  0
  8  9  1  0
  9 10  2  0
 10 11  1  0
 11 12  1  0
 12 13  1  0
 13 14  1  0
 14 15  1  0
 15 16  1  0
 16 17  1  0
 11 18  2  0
 18 19  1  0
 19 20  1  0
 20 21  1  0
 21 22  1  0
 22 23  1  0
 23 24  2  0
 24 25  1  0
 25 26  2  0
 26 27  1  0
 27 28  2  0
 28 29  1  0
 19 30  2  0
  4 31  1  0
 31 32  2  0
 32  1  1  0
 30  9  1  0
 17 13  1  0
 29 20  1  0
 28 23  1  0
  1 33  1  0
  2 34  1  0
  3 35  1  0
  5 36  1  0
  5 37  1  0
  6 38  1  0
  6 39  1  0
  7 40  1  0
  7 41  1  0
  8 42  1  0
 12 43  1  0
 13 44  1  0
 14 45  1  0
 14 46  1  0
 15 47  1  0
 15 48  1  0
 16 49  1  0
 16 50  1  0
 17 51  1  0
 17 52  1  0
 21 53  1  0
 21 54  1  0
 22 55  1  0
 22 56  1  0
 24 57  1  0
 25 58  1  0
 26 59  1  0
 27 60  1  0
 29 61  1  0
 29 62  1  0
 31 63  1  0
 32 64  1  0
M  END
>  <smiles>  (34) 
c1ccc(CCCNc2nc(NC3CCCC3)nc(N3CCc4ccccc4C3)n2)cc1

>  <score_type>  (34) 
oracle

>  <origin>  (34) 
autodockgpu

>  <m_score__min__energy>  (34) 
-10.24

>  <m_primary>  (34) 
energy

>  <rmsd>  (34) 
1.6188921288087128

>  <m_score__min__rmsd>  (34) 
1.6188921288087128

>  <meeko>  (34) 
{"free_energy": -9.95, "intermolecular_energy": -12.33, "internal_energy": -1.1, "cluster_size": 39, "cluster_id": 1, "rank_in_cluster": 9}

>  <energy>  (34) 
-8.98

>  <cluster_rmsd>  (34) 
1.96

>  <cluster>  (34) 
1

$$$$

     RDKit          3D

 64 68  0  0  0  0  0  0  0  0999 V2000
  142.1630   81.4850  223.8670 C   0  0  0  0  0  0  0  0  0  0  0  0
  143.1230   80.5690  223.5020 C   0  0  0  0  0  0  0  0  0  0  0  0
  142.7820   79.2910  223.0690 C   0  0  0  0  0  0  0  0  0  0  0  0
  141.4320   78.9580  223.0120 C   0  0  0  0  0  0  0  0  0  0  0  0
  141.0370   77.5840  222.5490 C   0  0  0  0  0  0  0  0  0  0  0  0
  140.7010   77.6750  221.0830 C   0  0  0  0  0  0  0  0  0  0  0  0
  140.7900   76.3340  220.3980 C   0  0  0  0  0  0  0  0  0  0  0  0
  139.8900   75.3640  220.9900 N   0  0  0  0  0  0  0  0  0  0  0  0
  140.3680   74.0710  221.3480 C   0  0  0  0  0  0  0  0  0  0  0  0
  141.3120   73.4380  220.6130 N   0  0  0  0  0  0  0  0  0  0  0  0
  141.7650   72.2060  220.9580 C   0  0  0  0  0  0  0  0  0  0  0  0
  142.7590   71.5240  220.1950 N   0  0  0  0  0  0  0  0  0  0  0  0
  143.9560   72.2240  219.7620 C   0  0  0  0  0  0  0  0  0  0  0  0
  144.4200   73.0870  220.8900 C   0  0  0  0  0  0  0  0  0  0  0  0
  144.0680   74.4820  220.4740 C   0  0  0  0  0  0  0  0  0  0  0  0
  144.0400   74.5160  218.9760 C   0  0  0  0  0  0  0  0  0  0  0  0
  143.5610   73.1390  218.6290 C   0  0  0  0  0  0  0  0  0  0  0  0
  141.2480   71.6100  222.0720 N   0  0  0  0  0  0  0  0  0  0  0  0
  140.3070   72.2250  222.8180 C   0  0  0  0  0  0  0  0  0  0  0  0
  139.7600   71.6140  223.9800 N   0  0  0  0  0  0  0  0  0  0  0  0
  138.3940   71.1260  224.0450 C   0  0  0  0  0  0  0  0  0  0  0  0
  138.4360   69.6220  224.1410 C   0  0  0  0  0  0  0  0  0  0  0  0
  139.3730   69.2620  225.2310 C   0  0  0  0  0  0  0  0  0  0  0  0
  139.2340   68.0130  225.7960 C   0  0  0  0  0  0  0  0  0  0  0  0
  140.0540   67.5930  226.8080 C   0  0  0  0  0  0  0  0  0  0  0  0
  141.0560   68.4230  227.2950 C   0  0  0  0  0  0  0  0  0  0  0  0
  141.2000   69.6850  226.7290 C   0  0  0  0  0  0  0  0  0  0  0  0
  140.3600   70.1040  225.6990 C   0  0  0  0  0  0  0  0  0  0  0  0
  140.5950   71.4660  225.1600 C   0  0  0  0  0  0  0  0  0  0  0  0
  139.9040   73.4360  222.4240 N   0  0  0  0  0  0  0  0  0  0  0  0
  140.4500   79.8710  223.3780 C   0  0  0  0  0  0  0  0  0  0  0  0
  140.8310   81.1260  223.8020 C   0  0  0  0  0  0  0  0  0  0  0  0
  142.4529   82.4904  224.2062 H   0  0  0  0  0  0  0  0  0  0  0  0
  144.1843   80.8535  223.5537 H   0  0  0  0  0  0  0  0  0  0  0  0
  143.5568   78.5655  222.7803 H   0  0  0  0  0  0  0  0  0  0  0  0
  141.8715   76.8834  222.6995 H   0  0  0  0  0  0  0  0  0  0  0  0
  140.1717   77.2180  223.1211 H   0  0  0  0  0  0  0  0  0  0  0  0
  139.6763   78.0606  220.9769 H   0  0  0  0  0  0  0  0  0  0  0  0
  141.4307   78.3477  220.6086 H   0  0  0  0  0  0  0  0  0  0  0  0
  140.5300   76.4589  219.3365 H   0  0  0  0  0  0  0  0  0  0  0  0
  141.8180   75.9599  220.5130 H   0  0  0  0  0  0  0  0  0  0  0  0
  138.9070   75.5990  221.1540 H   0  0  0  0  0  0  0  0  0  0  0  0
  142.5830   70.5220  219.9730 H   0  0  0  0  0  0  0  0  0  0  0  0
  144.7393   71.5146  219.4567 H   0  0  0  0  0  0  0  0  0  0  0  0
  143.9017   72.8181  221.8222 H   0  0  0  0  0  0  0  0  0  0  0  0
  145.4962   72.9711  221.0861 H   0  0  0  0  0  0  0  0  0  0  0  0
  143.0800   74.7544  220.8737 H   0  0  0  0  0  0  0  0  0  0  0  0
  144.8068   75.1985  220.8624 H   0  0  0  0  0  0  0  0  0  0  0  0
  143.3429   75.2836  218.6088 H   0  0  0  0  0  0  0  0  0  0  0  0
  145.0108   74.7691  218.5250 H   0  0  0  0  0  0  0  0  0  0  0  0
  142.4674   73.1402  218.5107 H   0  0  0  0  0  0  0  0  0  0  0  0
  144.0076   72.7998  217.6827 H   0  0  0  0  0  0  0  0  0  0  0  0
  137.8916   71.5419  224.9308 H   0  0  0  0  0  0  0  0  0  0  0  0
  137.8369   71.4344  223.1480 H   0  0  0  0  0  0  0  0  0  0  0  0
  137.4321   69.2336  224.3675 H   0  0  0  0  0  0  0  0  0  0  0  0
  138.7706   69.1861  223.1881 H   0  0  0  0  0  0  0  0  0  0  0  0
  138.4473   67.3392  225.4258 H   0  0  0  0  0  0  0  0  0  0  0  0
  139.9186   66.5902  227.2393 H   0  0  0  0  0  0  0  0  0  0  0  0
  141.7186   68.0904  228.1076 H   0  0  0  0  0  0  0  0  0  0  0  0
  141.9859   70.3602  227.0985 H   0  0  0  0  0  0  0  0  0  0  0  0
  140.3212   72.2208  225.9119 H   0  0  0  0  0  0  0  0  0  0  0  0
  141.6561   71.6066  224.9063 H   0  0  0  0  0  0  0  0  0  0  0  0
  139.3859   79.5964  223.3301 H   0  0  0  0  0  0  0  0  0  0  0  0
  140.0603   81.8546  224.0938 H   0  0  0  0  0  0  0  0  0  0  0  0
  1  2  2  0
  2  3  1  0
  3  4  2  0
  4  5  1  0
  5  6  1  0
  6  7  1  0
  7  8  1  0
  8  9  1  0
  9 10  2  0
 10 11  1  0
 11 12  1  0
 12 13  1  0
 13 14  1  0
 14 15  1  0
 15 16  1  0
 16 17  1  0
 11 18  2  0
 18 19  1  0
 19 20  1  0
 20 21  1  0
 21 22  1  0
 22 23  1  0
 23 24  2  0
 24 25  1  0
 25 26  2  0
 26 27  1  0
 27 28  2  0
 28 29  1  0
 19 30  2  0
  4 31  1  0
 31 32  2  0
 32  1  1  0
 30  9  1  0
 17 13  1  0
 29 20  1  0
 28 23  1  0
  1 33  1  0
  2 34  1  0
  3 35  1  0
  5 36  1  0
  5 37  1  0
  6 38  1  0
  6 39  1  0
  7 40  1  0
  7 41  1  0
  8 42  1  0
 12 43  1  0
 13 44  1  0
 14 45  1  0
 14 46  1  0
 15 47  1  0
 15 48  1  0
 16 49  1  0
 16 50  1  0
 17 51  1  0
 17 52  1  0
 21 53  1  0
 21 54  1  0
 22 55  1  0
 22 56  1  0
 24 57  1  0
 25 58  1  0
 26 59  1  0
 27 60  1  0
 29 61  1  0
 29 62  1  0
 31 63  1  0
 32 64  1  0
M  END
>  <smiles>  (35) 
c1ccc(CCCNc2nc(NC3CCCC3)nc(N3CCc4ccccc4C3)n2)cc1

>  <score_type>  (35) 
oracle

>  <origin>  (35) 
autodockgpu

>  <m_score__min__energy>  (35) 
-10.24

>  <m_primary>  (35) 
energy

>  <rmsd>  (35) 
9.525255635825335

>  <m_score__min__rmsd>  (35) 
9.525255635825335

>  <meeko>  (35) 
{"free_energy": -9.1, "intermolecular_energy": -11.49, "internal_energy": -1.35, "cluster_size": 39, "cluster_id": 1, "rank_in_cluster": 29}

>  <energy>  (35) 
-8.95

>  <cluster_rmsd>  (35) 
1.54

>  <cluster>  (35) 
1

$$$$

     RDKit          3D

 64 68  0  0  0  0  0  0  0  0999 V2000
  144.8190   74.7780  220.4490 C   0  0  0  0  0  0  0  0  0  0  0  0
  145.4230   73.6950  221.0450 C   0  0  0  0  0  0  0  0  0  0  0  0
  145.2780   72.4090  220.5340 C   0  0  0  0  0  0  0  0  0  0  0  0
  144.5000   72.2420  219.3920 C   0  0  0  0  0  0  0  0  0  0  0  0
  144.3270   70.8630  218.8200 C   0  0  0  0  0  0  0  0  0  0  0  0
  143.5550   70.0450  219.8230 C   0  0  0  0  0  0  0  0  0  0  0  0
  142.1460   69.7690  219.3630 C   0  0  0  0  0  0  0  0  0  0  0  0
  141.3620   70.9840  219.2630 N   0  0  0  0  0  0  0  0  0  0  0  0
  141.1030   71.7640  220.4270 C   0  0  0  0  0  0  0  0  0  0  0  0
  141.4190   73.0790  220.4830 N   0  0  0  0  0  0  0  0  0  0  0  0
  141.1700   73.8180  221.5930 C   0  0  0  0  0  0  0  0  0  0  0  0
  141.4960   75.2050  221.6690 N   0  0  0  0  0  0  0  0  0  0  0  0
  140.7240   76.1790  220.9180 C   0  0  0  0  0  0  0  0  0  0  0  0
  141.2370   76.1940  219.5150 C   0  0  0  0  0  0  0  0  0  0  0  0
  142.0080   77.4720  219.4030 C   0  0  0  0  0  0  0  0  0  0  0  0
  141.4350   78.4380  220.3960 C   0  0  0  0  0  0  0  0  0  0  0  0
  141.0060   77.5370  221.5140 C   0  0  0  0  0  0  0  0  0  0  0  0
  140.5880   73.2060  222.6660 N   0  0  0  0  0  0  0  0  0  0  0  0
  140.2660   71.8970  222.6300 C   0  0  0  0  0  0  0  0  0  0  0  0
  139.6600   71.2480  223.7410 N   0  0  0  0  0  0  0  0  0  0  0  0
  138.5440   70.3290  223.6060 C   0  0  0  0  0  0  0  0  0  0  0  0
  139.0240   68.9470  223.9670 C   0  0  0  0  0  0  0  0  0  0  0  0
  139.7190   69.0330  225.2720 C   0  0  0  0  0  0  0  0  0  0  0  0
  139.8360   67.8720  226.0030 C   0  0  0  0  0  0  0  0  0  0  0  0
  140.4630   67.8550  227.2200 C   0  0  0  0  0  0  0  0  0  0  0  0
  141.0000   69.0200  227.7540 C   0  0  0  0  0  0  0  0  0  0  0  0
  140.8840   70.1950  227.0200 C   0  0  0  0  0  0  0  0  0  0  0  0
  140.2440   70.2030  225.7820 C   0  0  0  0  0  0  0  0  0  0  0  0
  140.1720   71.5060  225.0770 C   0  0  0  0  0  0  0  0  0  0  0  0
  140.5370   71.2270  221.5080 N   0  0  0  0  0  0  0  0  0  0  0  0
  143.8830   73.3260  218.7780 C   0  0  0  0  0  0  0  0  0  0  0  0
  144.0520   74.5830  219.3180 C   0  0  0  0  0  0  0  0  0  0  0  0
  144.9457   75.7869  220.8686 H   0  0  0  0  0  0  0  0  0  0  0  0
  146.0346   73.8494  221.9462 H   0  0  0  0  0  0  0  0  0  0  0  0
  145.7641   71.5493  221.0184 H   0  0  0  0  0  0  0  0  0  0  0  0
  143.7703   70.9173  217.8728 H   0  0  0  0  0  0  0  0  0  0  0  0
  145.3060   70.4033  218.6194 H   0  0  0  0  0  0  0  0  0  0  0  0
  144.0734   69.0866  219.9738 H   0  0  0  0  0  0  0  0  0  0  0  0
  143.5000   70.6196  220.7594 H   0  0  0  0  0  0  0  0  0  0  0  0
  142.1825   69.2871  218.3749 H   0  0  0  0  0  0  0  0  0  0  0  0
  141.6670   69.1145  220.1061 H   0  0  0  0  0  0  0  0  0  0  0  0
  140.9880   71.2900  218.3610 H   0  0  0  0  0  0  0  0  0  0  0  0
  142.2980   75.4720  222.2780 H   0  0  0  0  0  0  0  0  0  0  0  0
  139.6512   75.9376  220.9454 H   0  0  0  0  0  0  0  0  0  0  0  0
  141.8919   75.3292  219.3327 H   0  0  0  0  0  0  0  0  0  0  0  0
  140.4250   76.1330  218.7755 H   0  0  0  0  0  0  0  0  0  0  0  0
  143.0695   77.2901  219.6268 H   0  0  0  0  0  0  0  0  0  0  0  0
  141.9346   77.8783  218.3834 H   0  0  0  0  0  0  0  0  0  0  0  0
  142.1949   79.1577  220.7346 H   0  0  0  0  0  0  0  0  0  0  0  0
  140.6180   79.0521  219.9894 H   0  0  0  0  0  0  0  0  0  0  0  0
  141.8079   77.4595  222.2630 H   0  0  0  0  0  0  0  0  0  0  0  0
  140.1098   77.9360  222.0116 H   0  0  0  0  0  0  0  0  0  0  0  0
  137.7308   70.6292  224.2832 H   0  0  0  0  0  0  0  0  0  0  0  0
  138.1652   70.3413  222.5734 H   0  0  0  0  0  0  0  0  0  0  0  0
  138.1668   68.2620  224.0445 H   0  0  0  0  0  0  0  0  0  0  0  0
  139.7065   68.5643  223.1939 H   0  0  0  0  0  0  0  0  0  0  0  0
  139.4167   66.9381  225.6005 H   0  0  0  0  0  0  0  0  0  0  0  0
  140.5423   66.9113  227.7796 H   0  0  0  0  0  0  0  0  0  0  0  0
  141.5037   69.0128  228.7319 H   0  0  0  0  0  0  0  0  0  0  0  0
  141.3025   71.1298  227.4213 H   0  0  0  0  0  0  0  0  0  0  0  0
  139.4958   72.1875  225.6140 H   0  0  0  0  0  0  0  0  0  0  0  0
  141.1646   71.9777  225.0289 H   0  0  0  0  0  0  0  0  0  0  0  0
  143.2699   73.1830  217.8760 H   0  0  0  0  0  0  0  0  0  0  0  0
  143.5669   75.4463  218.8390 H   0  0  0  0  0  0  0  0  0  0  0  0
  1  2  2  0
  2  3  1  0
  3  4  2  0
  4  5  1  0
  5  6  1  0
  6  7  1  0
  7  8  1  0
  8  9  1  0
  9 10  2  0
 10 11  1  0
 11 12  1  0
 12 13  1  0
 13 14  1  0
 14 15  1  0
 15 16  1  0
 16 17  1  0
 11 18  2  0
 18 19  1  0
 19 20  1  0
 20 21  1  0
 21 22  1  0
 22 23  1  0
 23 24  2  0
 24 25  1  0
 25 26  2  0
 26 27  1  0
 27 28  2  0
 28 29  1  0
 19 30  2  0
  4 31  1  0
 31 32  2  0
 32  1  1  0
 30  9  1  0
 17 13  1  0
 29 20  1  0
 28 23  1  0
  1 33  1  0
  2 34  1  0
  3 35  1  0
  5 36  1  0
  5 37  1  0
  6 38  1  0
  6 39  1  0
  7 40  1  0
  7 41  1  0
  8 42  1  0
 12 43  1  0
 13 44  1  0
 14 45  1  0
 14 46  1  0
 15 47  1  0
 15 48  1  0
 16 49  1  0
 16 50  1  0
 17 51  1  0
 17 52  1  0
 21 53  1  0
 21 54  1  0
 22 55  1  0
 22 56  1  0
 24 57  1  0
 25 58  1  0
 26 59  1  0
 27 60  1  0
 29 61  1  0
 29 62  1  0
 31 63  1  0
 32 64  1  0
M  END
>  <smiles>  (36) 
c1ccc(CCCNc2nc(NC3CCCC3)nc(N3CCc4ccccc4C3)n2)cc1

>  <score_type>  (36) 
oracle

>  <origin>  (36) 
autodockgpu

>  <m_score__min__energy>  (36) 
-10.24

>  <m_primary>  (36) 
energy

>  <rmsd>  (36) 
7.828323759452245

>  <m_score__min__rmsd>  (36) 
7.828323759452245

>  <meeko>  (36) 
{"free_energy": -8.04, "intermolecular_energy": -10.42, "internal_energy": -2.17, "cluster_size": 2, "cluster_id": 6, "rank_in_cluster": 1}

>  <energy>  (36) 
-8.9

>  <cluster_rmsd>  (36) 
0.82

>  <cluster>  (36) 
1

$$$$

     RDKit          3D

 64 68  0  0  0  0  0  0  0  0999 V2000
  140.7540   71.4250  228.4660 C   0  0  0  0  0  0  0  0  0  0  0  0
  141.4090   72.2140  227.5470 C   0  0  0  0  0  0  0  0  0  0  0  0
  141.3200   71.9650  226.1810 C   0  0  0  0  0  0  0  0  0  0  0  0
  140.5450   70.8880  225.7600 C   0  0  0  0  0  0  0  0  0  0  0  0
  140.4340   70.5970  224.2900 C   0  0  0  0  0  0  0  0  0  0  0  0
  139.0360   70.1000  224.0270 C   0  0  0  0  0  0  0  0  0  0  0  0
  138.4100   70.7790  222.8340 C   0  0  0  0  0  0  0  0  0  0  0  0
  138.4630   72.2230  222.9450 N   0  0  0  0  0  0  0  0  0  0  0  0
  139.5160   72.9490  222.3170 C   0  0  0  0  0  0  0  0  0  0  0  0
  140.6200   72.3260  221.8410 N   0  0  0  0  0  0  0  0  0  0  0  0
  141.6200   73.0220  221.2440 C   0  0  0  0  0  0  0  0  0  0  0  0
  142.7890   72.3810  220.7370 N   0  0  0  0  0  0  0  0  0  0  0  0
  143.7360   73.1250  219.9240 C   0  0  0  0  0  0  0  0  0  0  0  0
  144.7020   72.1500  219.3320 C   0  0  0  0  0  0  0  0  0  0  0  0
  145.9720   72.3580  220.0980 C   0  0  0  0  0  0  0  0  0  0  0  0
  145.9730   73.7690  220.6040 C   0  0  0  0  0  0  0  0  0  0  0  0
  144.5170   74.0270  220.8490 C   0  0  0  0  0  0  0  0  0  0  0  0
  141.4930   74.3760  221.1290 N   0  0  0  0  0  0  0  0  0  0  0  0
  140.4010   75.0160  221.5960 C   0  0  0  0  0  0  0  0  0  0  0  0
  140.2580   76.4260  221.4830 N   0  0  0  0  0  0  0  0  0  0  0  0
  138.9700   77.0950  221.5450 C   0  0  0  0  0  0  0  0  0  0  0  0
  138.9220   77.9070  222.8150 C   0  0  0  0  0  0  0  0  0  0  0  0
  140.1540   78.7270  222.8780 C   0  0  0  0  0  0  0  0  0  0  0  0
  140.1250   79.8490  223.6770 C   0  0  0  0  0  0  0  0  0  0  0  0
  141.2160   80.6660  223.7970 C   0  0  0  0  0  0  0  0  0  0  0  0
  142.3890   80.3840  223.1090 C   0  0  0  0  0  0  0  0  0  0  0  0
  142.4230   79.2540  222.3000 C   0  0  0  0  0  0  0  0  0  0  0  0
  141.3080   78.4260  222.1840 C   0  0  0  0  0  0  0  0  0  0  0  0
  141.4440   77.2450  221.2970 C   0  0  0  0  0  0  0  0  0  0  0  0
  139.4530   74.2730  222.1730 N   0  0  0  0  0  0  0  0  0  0  0  0
  139.8790   70.0820  226.6750 C   0  0  0  0  0  0  0  0  0  0  0  0
  139.9930   70.3620  228.0200 C   0  0  0  0  0  0  0  0  0  0  0  0
  140.8358   71.6386  229.5420 H   0  0  0  0  0  0  0  0  0  0  0  0
  142.0163   73.0602  227.9008 H   0  0  0  0  0  0  0  0  0  0  0  0
  141.8470   72.6010  225.4545 H   0  0  0  0  0  0  0  0  0  0  0  0
  140.6211   71.5135  223.7112 H   0  0  0  0  0  0  0  0  0  0  0  0
  141.1750   69.8417  223.9892 H   0  0  0  0  0  0  0  0  0  0  0  0
  139.0735   69.0167  223.8399 H   0  0  0  0  0  0  0  0  0  0  0  0
  138.4218   70.3302  224.9100 H   0  0  0  0  0  0  0  0  0  0  0  0
  138.9500   70.4720  221.9261 H   0  0  0  0  0  0  0  0  0  0  0  0
  137.3527   70.4792  222.7869 H   0  0  0  0  0  0  0  0  0  0  0  0
  137.7490   72.7310  223.4740 H   0  0  0  0  0  0  0  0  0  0  0  0
  142.9220   71.3760  220.9770 H   0  0  0  0  0  0  0  0  0  0  0  0
  143.2189   73.6976  219.1399 H   0  0  0  0  0  0  0  0  0  0  0  0
  144.3383   71.1194  219.4570 H   0  0  0  0  0  0  0  0  0  0  0  0
  144.8384   72.3042  218.2514 H   0  0  0  0  0  0  0  0  0  0  0  0
  146.0184   71.6565  220.9441 H   0  0  0  0  0  0  0  0  0  0  0  0
  146.8448   72.1794  219.4528 H   0  0  0  0  0  0  0  0  0  0  0  0
  146.5543   73.8575  221.5337 H   0  0  0  0  0  0  0  0  0  0  0  0
  146.4338   74.4844  219.9070 H   0  0  0  0  0  0  0  0  0  0  0  0
  144.2660   73.8000  221.8957 H   0  0  0  0  0  0  0  0  0  0  0  0
  144.2726   75.0826  220.6593 H   0  0  0  0  0  0  0  0  0  0  0  0
  138.8521   77.7574  220.6747 H   0  0  0  0  0  0  0  0  0  0  0  0
  138.1563   76.3548  221.5360 H   0  0  0  0  0  0  0  0  0  0  0  0
  138.0377   78.5611  222.8072 H   0  0  0  0  0  0  0  0  0  0  0  0
  138.8573   77.2448  223.6910 H   0  0  0  0  0  0  0  0  0  0  0  0
  139.2059   80.0930  224.2298 H   0  0  0  0  0  0  0  0  0  0  0  0
  141.1636   81.5540  224.4441 H   0  0  0  0  0  0  0  0  0  0  0  0
  143.2686   81.0380  223.2018 H   0  0  0  0  0  0  0  0  0  0  0  0
  143.3409   79.0105  221.7448 H   0  0  0  0  0  0  0  0  0  0  0  0
  141.5174   77.5684  220.2482 H   0  0  0  0  0  0  0  0  0  0  0  0
  142.3527   76.6759  221.5428 H   0  0  0  0  0  0  0  0  0  0  0  0
  139.2698   69.2330  226.3313 H   0  0  0  0  0  0  0  0  0  0  0  0
  139.4690   69.7281  228.7505 H   0  0  0  0  0  0  0  0  0  0  0  0
  1  2  2  0
  2  3  1  0
  3  4  2  0
  4  5  1  0
  5  6  1  0
  6  7  1  0
  7  8  1  0
  8  9  1  0
  9 10  2  0
 10 11  1  0
 11 12  1  0
 12 13  1  0
 13 14  1  0
 14 15  1  0
 15 16  1  0
 16 17  1  0
 11 18  2  0
 18 19  1  0
 19 20  1  0
 20 21  1  0
 21 22  1  0
 22 23  1  0
 23 24  2  0
 24 25  1  0
 25 26  2  0
 26 27  1  0
 27 28  2  0
 28 29  1  0
 19 30  2  0
  4 31  1  0
 31 32  2  0
 32  1  1  0
 30  9  1  0
 17 13  1  0
 29 20  1  0
 28 23  1  0
  1 33  1  0
  2 34  1  0
  3 35  1  0
  5 36  1  0
  5 37  1  0
  6 38  1  0
  6 39  1  0
  7 40  1  0
  7 41  1  0
  8 42  1  0
 12 43  1  0
 13 44  1  0
 14 45  1  0
 14 46  1  0
 15 47  1  0
 15 48  1  0
 16 49  1  0
 16 50  1  0
 17 51  1  0
 17 52  1  0
 21 53  1  0
 21 54  1  0
 22 55  1  0
 22 56  1  0
 24 57  1  0
 25 58  1  0
 26 59  1  0
 27 60  1  0
 29 61  1  0
 29 62  1  0
 31 63  1  0
 32 64  1  0
M  END
>  <smiles>  (37) 
c1ccc(CCCNc2nc(NC3CCCC3)nc(N3CCc4ccccc4C3)n2)cc1

>  <score_type>  (37) 
oracle

>  <origin>  (37) 
autodockgpu

>  <m_score__min__energy>  (37) 
-10.24

>  <m_primary>  (37) 
energy

>  <rmsd>  (37) 
2.109226329880273

>  <m_score__min__rmsd>  (37) 
2.109226329880273

>  <meeko>  (37) 
{"free_energy": -10.07, "intermolecular_energy": -12.46, "internal_energy": -1.32, "cluster_size": 39, "cluster_id": 1, "rank_in_cluster": 3}

>  <energy>  (37) 
-8.86

>  <cluster_rmsd>  (37) 
0.75

>  <cluster>  (37) 
1

$$$$

     RDKit          3D

 64 68  0  0  0  0  0  0  0  0999 V2000
  141.1060   71.7760  228.2310 C   0  0  0  0  0  0  0  0  0  0  0  0
  140.3580   70.6250  228.3340 C   0  0  0  0  0  0  0  0  0  0  0  0
  139.8930   69.9560  227.2060 C   0  0  0  0  0  0  0  0  0  0  0  0
  140.2050   70.4840  225.9560 C   0  0  0  0  0  0  0  0  0  0  0  0
  139.7140   69.7820  224.7220 C   0  0  0  0  0  0  0  0  0  0  0  0
  138.4500   70.4710  224.2760 C   0  0  0  0  0  0  0  0  0  0  0  0
  138.5470   70.9630  222.8540 C   0  0  0  0  0  0  0  0  0  0  0  0
  138.4590   72.4080  222.7750 N   0  0  0  0  0  0  0  0  0  0  0  0
  139.5560   73.1640  222.2690 C   0  0  0  0  0  0  0  0  0  0  0  0
  140.7140   72.5690  221.8970 N   0  0  0  0  0  0  0  0  0  0  0  0
  141.7550   73.2930  221.4160 C   0  0  0  0  0  0  0  0  0  0  0  0
  142.9820   72.6820  221.0190 N   0  0  0  0  0  0  0  0  0  0  0  0
  143.8800   73.3700  220.1070 C   0  0  0  0  0  0  0  0  0  0  0  0
  144.5000   72.3470  219.2110 C   0  0  0  0  0  0  0  0  0  0  0  0
  145.9100   72.2180  219.6960 C   0  0  0  0  0  0  0  0  0  0  0  0
  146.2890   73.5150  220.3460 C   0  0  0  0  0  0  0  0  0  0  0  0
  144.9890   73.9750  220.9330 C   0  0  0  0  0  0  0  0  0  0  0  0
  141.6150   74.6470  221.3110 N   0  0  0  0  0  0  0  0  0  0  0  0
  140.4690   75.2580  221.6760 C   0  0  0  0  0  0  0  0  0  0  0  0
  140.3110   76.6670  221.5720 N   0  0  0  0  0  0  0  0  0  0  0  0
  139.0210   77.3250  221.6760 C   0  0  0  0  0  0  0  0  0  0  0  0
  139.0040   78.1330  222.9500 C   0  0  0  0  0  0  0  0  0  0  0  0
  140.2310   78.9630  222.9770 C   0  0  0  0  0  0  0  0  0  0  0  0
  140.2180   80.0820  223.7810 C   0  0  0  0  0  0  0  0  0  0  0  0
  141.3050   80.9080  223.8710 C   0  0  0  0  0  0  0  0  0  0  0  0
  142.4590   80.6380  223.1460 C   0  0  0  0  0  0  0  0  0  0  0  0
  142.4770   79.5110  222.3320 C   0  0  0  0  0  0  0  0  0  0  0  0
  141.3660   78.6740  222.2470 C   0  0  0  0  0  0  0  0  0  0  0  0
  141.4840   77.4970  221.3530 C   0  0  0  0  0  0  0  0  0  0  0  0
  139.4830   74.4880  222.1420 N   0  0  0  0  0  0  0  0  0  0  0  0
  140.9590   71.6460  225.8350 C   0  0  0  0  0  0  0  0  0  0  0  0
  141.3990   72.2780  226.9780 C   0  0  0  0  0  0  0  0  0  0  0  0
  141.4658   72.2894  229.1349 H   0  0  0  0  0  0  0  0  0  0  0  0
  140.1224   70.2248  229.3312 H   0  0  0  0  0  0  0  0  0  0  0  0
  139.2962   69.0367  227.2991 H   0  0  0  0  0  0  0  0  0  0  0  0
  140.4738   69.8428  223.9289 H   0  0  0  0  0  0  0  0  0  0  0  0
  139.5201   68.7201  224.9339 H   0  0  0  0  0  0  0  0  0  0  0  0
  137.6133   69.7608  224.3499 H   0  0  0  0  0  0  0  0  0  0  0  0
  138.2901   71.3429  224.9273 H   0  0  0  0  0  0  0  0  0  0  0  0
  139.5104   70.6417  222.4314 H   0  0  0  0  0  0  0  0  0  0  0  0
  137.7046   70.5386  222.2881 H   0  0  0  0  0  0  0  0  0  0  0  0
  137.6130   72.8950  223.0820 H   0  0  0  0  0  0  0  0  0  0  0  0
  143.1930   71.7400  221.4110 H   0  0  0  0  0  0  0  0  0  0  0  0
  143.3433   74.1345  219.5260 H   0  0  0  0  0  0  0  0  0  0  0  0
  143.9715   71.3860  219.2962 H   0  0  0  0  0  0  0  0  0  0  0  0
  144.4504   72.6384  218.1515 H   0  0  0  0  0  0  0  0  0  0  0  0
  145.9816   71.3982  220.4259 H   0  0  0  0  0  0  0  0  0  0  0  0
  146.5868   71.9948  218.8580 H   0  0  0  0  0  0  0  0  0  0  0  0
  147.0464   73.3611  221.1287 H   0  0  0  0  0  0  0  0  0  0  0  0
  146.7372   74.2398  219.6505 H   0  0  0  0  0  0  0  0  0  0  0  0
  144.9075   73.6370  221.9766 H   0  0  0  0  0  0  0  0  0  0  0  0
  144.9257   75.0731  220.9224 H   0  0  0  0  0  0  0  0  0  0  0  0
  138.8713   77.9892  220.8120 H   0  0  0  0  0  0  0  0  0  0  0  0
  138.2139   76.5778  221.6897 H   0  0  0  0  0  0  0  0  0  0  0  0
  138.1144   78.7797  222.9710 H   0  0  0  0  0  0  0  0  0  0  0  0
  138.9707   77.4683  223.8258 H   0  0  0  0  0  0  0  0  0  0  0  0
  139.3144   80.3162  224.3629 H   0  0  0  0  0  0  0  0  0  0  0  0
  141.2649   81.7932  224.5228 H   0  0  0  0  0  0  0  0  0  0  0  0
  143.3358   81.2988  223.2142 H   0  0  0  0  0  0  0  0  0  0  0  0
  143.3793   79.2771  221.7479 H   0  0  0  0  0  0  0  0  0  0  0  0
  141.5227   77.8241  220.3035 H   0  0  0  0  0  0  0  0  0  0  0  0
  142.4042   76.9347  221.5697 H   0  0  0  0  0  0  0  0  0  0  0  0
  141.2005   72.0544  224.8426 H   0  0  0  0  0  0  0  0  0  0  0  0
  141.9943   73.1989  226.8908 H   0  0  0  0  0  0  0  0  0  0  0  0
  1  2  2  0
  2  3  1  0
  3  4  2  0
  4  5  1  0
  5  6  1  0
  6  7  1  0
  7  8  1  0
  8  9  1  0
  9 10  2  0
 10 11  1  0
 11 12  1  0
 12 13  1  0
 13 14  1  0
 14 15  1  0
 15 16  1  0
 16 17  1  0
 11 18  2  0
 18 19  1  0
 19 20  1  0
 20 21  1  0
 21 22  1  0
 22 23  1  0
 23 24  2  0
 24 25  1  0
 25 26  2  0
 26 27  1  0
 27 28  2  0
 28 29  1  0
 19 30  2  0
  4 31  1  0
 31 32  2  0
 32  1  1  0
 30  9  1  0
 17 13  1  0
 29 20  1  0
 28 23  1  0
  1 33  1  0
  2 34  1  0
  3 35  1  0
  5 36  1  0
  5 37  1  0
  6 38  1  0
  6 39  1  0
  7 40  1  0
  7 41  1  0
  8 42  1  0
 12 43  1  0
 13 44  1  0
 14 45  1  0
 14 46  1  0
 15 47  1  0
 15 48  1  0
 16 49  1  0
 16 50  1  0
 17 51  1  0
 17 52  1  0
 21 53  1  0
 21 54  1  0
 22 55  1  0
 22 56  1  0
 24 57  1  0
 25 58  1  0
 26 59  1  0
 27 60  1  0
 29 61  1  0
 29 62  1  0
 31 63  1  0
 32 64  1  0
M  END
>  <smiles>  (38) 
c1ccc(CCCNc2nc(NC3CCCC3)nc(N3CCc4ccccc4C3)n2)cc1

>  <score_type>  (38) 
oracle

>  <origin>  (38) 
autodockgpu

>  <m_score__min__energy>  (38) 
-10.24

>  <m_primary>  (38) 
energy

>  <rmsd>  (38) 
2.6829422126684674

>  <m_score__min__rmsd>  (38) 
2.6829422126684674

>  <meeko>  (38) 
{"free_energy": -10.01, "intermolecular_energy": -12.4, "internal_energy": -1.28, "cluster_size": 39, "cluster_id": 1, "rank_in_cluster": 6}

>  <energy>  (38) 
-8.8

>  <cluster_rmsd>  (38) 
1.94

>  <cluster>  (38) 
1

$$$$

     RDKit          3D

 64 68  0  0  0  0  0  0  0  0999 V2000
  141.1760   71.8010  228.0920 C   0  0  0  0  0  0  0  0  0  0  0  0
  141.3860   72.2450  226.8050 C   0  0  0  0  0  0  0  0  0  0  0  0
  140.8440   71.5800  225.7100 C   0  0  0  0  0  0  0  0  0  0  0  0
  140.0770   70.4430  225.9470 C   0  0  0  0  0  0  0  0  0  0  0  0
  139.4820   69.7060  224.7810 C   0  0  0  0  0  0  0  0  0  0  0  0
  139.9370   70.3990  223.5220 C   0  0  0  0  0  0  0  0  0  0  0  0
  138.7750   70.8250  222.6600 C   0  0  0  0  0  0  0  0  0  0  0  0
  138.5920   72.2630  222.6710 N   0  0  0  0  0  0  0  0  0  0  0  0
  139.6090   73.1160  222.1550 C   0  0  0  0  0  0  0  0  0  0  0  0
  140.8070   72.6280  221.7560 N   0  0  0  0  0  0  0  0  0  0  0  0
  141.7730   73.4450  221.2650 C   0  0  0  0  0  0  0  0  0  0  0  0
  143.0410   72.9480  220.8410 N   0  0  0  0  0  0  0  0  0  0  0  0
  143.6860   73.5010  219.6630 C   0  0  0  0  0  0  0  0  0  0  0  0
  144.4410   74.7210  220.0790 C   0  0  0  0  0  0  0  0  0  0  0  0
  143.6350   75.8680  219.5530 C   0  0  0  0  0  0  0  0  0  0  0  0
  142.8690   75.3770  218.3610 C   0  0  0  0  0  0  0  0  0  0  0  0
  142.5970   73.9470  218.7170 C   0  0  0  0  0  0  0  0  0  0  0  0
  141.5130   74.7830  221.1770 N   0  0  0  0  0  0  0  0  0  0  0  0
  140.3250   75.2880  221.5690 C   0  0  0  0  0  0  0  0  0  0  0  0
  140.0420   76.6790  221.4830 N   0  0  0  0  0  0  0  0  0  0  0  0
  139.4800   77.4380  222.5860 C   0  0  0  0  0  0  0  0  0  0  0  0
  140.5270   78.4060  223.0740 C   0  0  0  0  0  0  0  0  0  0  0  0
  141.0520   79.1400  221.8990 C   0  0  0  0  0  0  0  0  0  0  0  0
  141.6610   80.3530  222.1330 C   0  0  0  0  0  0  0  0  0  0  0  0
  142.1760   81.1020  221.1090 C   0  0  0  0  0  0  0  0  0  0  0  0
  142.0950   80.6540  219.7970 C   0  0  0  0  0  0  0  0  0  0  0  0
  141.4800   79.4300  219.5550 C   0  0  0  0  0  0  0  0  0  0  0  0
  140.9590   78.6740  220.6040 C   0  0  0  0  0  0  0  0  0  0  0  0
  140.3240   77.3830  220.2440 C   0  0  0  0  0  0  0  0  0  0  0  0
  139.4180   74.4310  222.0430 N   0  0  0  0  0  0  0  0  0  0  0  0
  139.8570   69.9820  227.2390 C   0  0  0  0  0  0  0  0  0  0  0  0
  140.4120   70.6690  228.2970 C   0  0  0  0  0  0  0  0  0  0  0  0
  141.6113   72.3413  228.9456 H   0  0  0  0  0  0  0  0  0  0  0  0
  141.9958   73.1454  226.6395 H   0  0  0  0  0  0  0  0  0  0  0  0
  141.0167   71.9424  224.6859 H   0  0  0  0  0  0  0  0  0  0  0  0
  139.8290   68.6622  224.7807 H   0  0  0  0  0  0  0  0  0  0  0  0
  138.3839   69.7045  224.8453 H   0  0  0  0  0  0  0  0  0  0  0  0
  140.5199   71.2901  223.7980 H   0  0  0  0  0  0  0  0  0  0  0  0
  140.5461   69.6883  222.9442 H   0  0  0  0  0  0  0  0  0  0  0  0
  138.9605   70.4981  221.6262 H   0  0  0  0  0  0  0  0  0  0  0  0
  137.8628   70.3623  223.0648 H   0  0  0  0  0  0  0  0  0  0  0  0
  137.7350   72.6750  223.0500 H   0  0  0  0  0  0  0  0  0  0  0  0
  143.4670   72.1870  221.4100 H   0  0  0  0  0  0  0  0  0  0  0  0
  144.3529   72.7619  219.1951 H   0  0  0  0  0  0  0  0  0  0  0  0
  144.5195   74.7731  221.1750 H   0  0  0  0  0  0  0  0  0  0  0  0
  145.4703   74.7245  219.6910 H   0  0  0  0  0  0  0  0  0  0  0  0
  142.9378   76.2222  220.3266 H   0  0  0  0  0  0  0  0  0  0  0  0
  144.2921   76.7041  219.2715 H   0  0  0  0  0  0  0  0  0  0  0  0
  141.9326   75.9393  218.2310 H   0  0  0  0  0  0  0  0  0  0  0  0
  143.4111   75.4971  217.4114 H   0  0  0  0  0  0  0  0  0  0  0  0
  141.6157   73.8618  219.2067 H   0  0  0  0  0  0  0  0  0  0  0  0
  142.5855   73.3180  217.8146 H   0  0  0  0  0  0  0  0  0  0  0  0
  138.5927   77.9907  222.2436 H   0  0  0  0  0  0  0  0  0  0  0  0
  139.1805   76.7607  223.3994 H   0  0  0  0  0  0  0  0  0  0  0  0
  140.0784   79.1136  223.7868 H   0  0  0  0  0  0  0  0  0  0  0  0
  141.3394   77.8669  223.5832 H   0  0  0  0  0  0  0  0  0  0  0  0
  141.7352   80.7280  223.1644 H   0  0  0  0  0  0  0  0  0  0  0  0
  142.6578   82.0665  221.3273 H   0  0  0  0  0  0  0  0  0  0  0  0
  142.5066   81.2517  218.9704 H   0  0  0  0  0  0  0  0  0  0  0  0
  141.4039   79.0543  218.5240 H   0  0  0  0  0  0  0  0  0  0  0  0
  139.3893   77.5641  219.6930 H   0  0  0  0  0  0  0  0  0  0  0  0
  140.9894   76.7880  219.6012 H   0  0  0  0  0  0  0  0  0  0  0  0
  139.2490   69.0823  227.4148 H   0  0  0  0  0  0  0  0  0  0  0  0
  140.2435   70.3093  229.3228 H   0  0  0  0  0  0  0  0  0  0  0  0
  1  2  2  0
  2  3  1  0
  3  4  2  0
  4  5  1  0
  5  6  1  0
  6  7  1  0
  7  8  1  0
  8  9  1  0
  9 10  2  0
 10 11  1  0
 11 12  1  0
 12 13  1  0
 13 14  1  0
 14 15  1  0
 15 16  1  0
 16 17  1  0
 11 18  2  0
 18 19  1  0
 19 20  1  0
 20 21  1  0
 21 22  1  0
 22 23  1  0
 23 24  2  0
 24 25  1  0
 25 26  2  0
 26 27  1  0
 27 28  2  0
 28 29  1  0
 19 30  2  0
  4 31  1  0
 31 32  2  0
 32  1  1  0
 30  9  1  0
 17 13  1  0
 29 20  1  0
 28 23  1  0
  1 33  1  0
  2 34  1  0
  3 35  1  0
  5 36  1  0
  5 37  1  0
  6 38  1  0
  6 39  1  0
  7 40  1  0
  7 41  1  0
  8 42  1  0
 12 43  1  0
 13 44  1  0
 14 45  1  0
 14 46  1  0
 15 47  1  0
 15 48  1  0
 16 49  1  0
 16 50  1  0
 17 51  1  0
 17 52  1  0
 21 53  1  0
 21 54  1  0
 22 55  1  0
 22 56  1  0
 24 57  1  0
 25 58  1  0
 26 59  1  0
 27 60  1  0
 29 61  1  0
 29 62  1  0
 31 63  1  0
 32 64  1  0
M  END
>  <smiles>  (39) 
c1ccc(CCCNc2nc(NC3CCCC3)nc(N3CCc4ccccc4C3)n2)cc1

>  <score_type>  (39) 
oracle

>  <origin>  (39) 
autodockgpu

>  <m_score__min__energy>  (39) 
-10.24

>  <m_primary>  (39) 
energy

>  <rmsd>  (39) 
2.158025100171784

>  <m_score__min__rmsd>  (39) 
2.158025100171784

>  <meeko>  (39) 
{"free_energy": -8.44, "intermolecular_energy": -10.83, "internal_energy": -1.61, "cluster_size": 39, "cluster_id": 1, "rank_in_cluster": 39}

>  <energy>  (39) 
-8.44

>  <cluster_rmsd>  (39) 
1.34

>  <cluster>  (39) 
1

$$$$

     RDKit          3D

 64 68  0  0  0  0  0  0  0  0999 V2000
  141.8780   82.0110  223.0240 C   0  0  0  0  0  0  0  0  0  0  0  0
  142.5020   81.1480  223.8960 C   0  0  0  0  0  0  0  0  0  0  0  0
  142.2610   79.7780  223.8590 C   0  0  0  0  0  0  0  0  0  0  0  0
  141.3660   79.2950  222.9090 C   0  0  0  0  0  0  0  0  0  0  0  0
  141.0880   77.8200  222.8490 C   0  0  0  0  0  0  0  0  0  0  0  0
  140.0280   77.5960  221.8020 C   0  0  0  0  0  0  0  0  0  0  0  0
  139.7690   76.1290  221.5640 C   0  0  0  0  0  0  0  0  0  0  0  0
  140.9660   75.3330  221.7440 N   0  0  0  0  0  0  0  0  0  0  0  0
  140.8900   73.9110  221.7070 C   0  0  0  0  0  0  0  0  0  0  0  0
  141.3650   73.2030  220.6560 N   0  0  0  0  0  0  0  0  0  0  0  0
  141.2900   71.8490  220.6250 C   0  0  0  0  0  0  0  0  0  0  0  0
  141.7860   71.0880  219.5250 N   0  0  0  0  0  0  0  0  0  0  0  0
  143.1890   71.1600  219.1590 C   0  0  0  0  0  0  0  0  0  0  0  0
  143.9880   71.2910  220.4150 C   0  0  0  0  0  0  0  0  0  0  0  0
  144.4420   72.7170  220.4320 C   0  0  0  0  0  0  0  0  0  0  0  0
  144.5030   73.1930  219.0120 C   0  0  0  0  0  0  0  0  0  0  0  0
  143.3860   72.4300  218.3660 C   0  0  0  0  0  0  0  0  0  0  0  0
  140.7230   71.2030  221.6860 N   0  0  0  0  0  0  0  0  0  0  0  0
  140.2450   71.8900  222.7440 C   0  0  0  0  0  0  0  0  0  0  0  0
  139.6520   71.2300  223.8550 N   0  0  0  0  0  0  0  0  0  0  0  0
  138.5650   70.2770  223.7170 C   0  0  0  0  0  0  0  0  0  0  0  0
  139.0850   68.9120  224.0910 C   0  0  0  0  0  0  0  0  0  0  0  0
  139.7670   69.0290  225.4010 C   0  0  0  0  0  0  0  0  0  0  0  0
  139.9140   67.8760  226.1410 C   0  0  0  0  0  0  0  0  0  0  0  0
  140.5320   67.8860  227.3620 C   0  0  0  0  0  0  0  0  0  0  0  0
  141.0290   69.0700  227.8920 C   0  0  0  0  0  0  0  0  0  0  0  0
  140.8820   70.2370  227.1500 C   0  0  0  0  0  0  0  0  0  0  0  0
  140.2520   70.2170  225.9070 C   0  0  0  0  0  0  0  0  0  0  0  0
  140.1450   71.5130  225.1930 C   0  0  0  0  0  0  0  0  0  0  0  0
  140.3490   73.2210  222.7120 N   0  0  0  0  0  0  0  0  0  0  0  0
  140.7280   80.1540  222.0210 C   0  0  0  0  0  0  0  0  0  0  0  0
  140.9940   81.5040  222.0920 C   0  0  0  0  0  0  0  0  0  0  0  0
  142.0809   83.0912  223.0689 H   0  0  0  0  0  0  0  0  0  0  0  0
  143.2068   81.5502  224.6386 H   0  0  0  0  0  0  0  0  0  0  0  0
  142.7636   79.0961  224.5607 H   0  0  0  0  0  0  0  0  0  0  0  0
  142.0048   77.2767  222.5762 H   0  0  0  0  0  0  0  0  0  0  0  0
  140.7466   77.4521  223.8278 H   0  0  0  0  0  0  0  0  0  0  0  0
  139.0939   78.0720  222.1350 H   0  0  0  0  0  0  0  0  0  0  0  0
  140.3844   78.0353  220.8586 H   0  0  0  0  0  0  0  0  0  0  0  0
  139.0023   75.7836  222.2731 H   0  0  0  0  0  0  0  0  0  0  0  0
  139.4314   76.0067  220.5243 H   0  0  0  0  0  0  0  0  0  0  0  0
  141.8720   75.7840  221.9000 H   0  0  0  0  0  0  0  0  0  0  0  0
  141.1010   70.4920  219.0130 H   0  0  0  0  0  0  0  0  0  0  0  0
  143.4934   70.2719  218.5857 H   0  0  0  0  0  0  0  0  0  0  0  0
  143.3654   71.0720  221.2950 H   0  0  0  0  0  0  0  0  0  0  0  0
  144.8319   70.5861  220.4458 H   0  0  0  0  0  0  0  0  0  0  0  0
  143.7290   73.3304  221.0024 H   0  0  0  0  0  0  0  0  0  0  0  0
  145.4295   72.8012  220.9092 H   0  0  0  0  0  0  0  0  0  0  0  0
  144.3322   74.2778  218.9486 H   0  0  0  0  0  0  0  0  0  0  0  0
  145.4805   73.0272  218.5355 H   0  0  0  0  0  0  0  0  0  0  0  0
  142.4637   73.0292  218.3805 H   0  0  0  0  0  0  0  0  0  0  0  0
  143.6280   72.1999  217.3179 H   0  0  0  0  0  0  0  0  0  0  0  0
  137.7376   70.5564  224.3859 H   0  0  0  0  0  0  0  0  0  0  0  0
  138.1935   70.2716  222.6816 H   0  0  0  0  0  0  0  0  0  0  0  0
  138.2489   68.2012  224.1668 H   0  0  0  0  0  0  0  0  0  0  0  0
  139.7847   68.5450  223.3256 H   0  0  0  0  0  0  0  0  0  0  0  0
  139.5263   66.9272  225.7418 H   0  0  0  0  0  0  0  0  0  0  0  0
  140.6360   66.9488  227.9284 H   0  0  0  0  0  0  0  0  0  0  0  0
  141.5260   69.0841  228.8732 H   0  0  0  0  0  0  0  0  0  0  0  0
  141.2675   71.1869  227.5488 H   0  0  0  0  0  0  0  0  0  0  0  0
  139.4436   72.1764  225.7201 H   0  0  0  0  0  0  0  0  0  0  0  0
  141.1225   72.0156  225.1496 H   0  0  0  0  0  0  0  0  0  0  0  0
  140.0222   79.7620  221.2738 H   0  0  0  0  0  0  0  0  0  0  0  0
  140.4931   82.1905  221.3936 H   0  0  0  0  0  0  0  0  0  0  0  0
  1  2  2  0
  2  3  1  0
  3  4  2  0
  4  5  1  0
  5  6  1  0
  6  7  1  0
  7  8  1  0
  8  9  1  0
  9 10  2  0
 10 11  1  0
 11 12  1  0
 12 13  1  0
 13 14  1  0
 14 15  1  0
 15 16  1  0
 16 17  1  0
 11 18  2  0
 18 19  1  0
 19 20  1  0
 20 21  1  0
 21 22  1  0
 22 23  1  0
 23 24  2  0
 24 25  1  0
 25 26  2  0
 26 27  1  0
 27 28  2  0
 28 29  1  0
 19 30  2  0
  4 31  1  0
 31 32  2  0
 32  1  1  0
 30  9  1  0
 17 13  1  0
 29 20  1  0
 28 23  1  0
  1 33  1  0
  2 34  1  0
  3 35  1  0
  5 36  1  0
  5 37  1  0
  6 38  1  0
  6 39  1  0
  7 40  1  0
  7 41  1  0
  8 42  1  0
 12 43  1  0
 13 44  1  0
 14 45  1  0
 14 46  1  0
 15 47  1  0
 15 48  1  0
 16 49  1  0
 16 50  1  0
 17 51  1  0
 17 52  1  0
 21 53  1  0
 21 54  1  0
 22 55  1  0
 22 56  1  0
 24 57  1  0
 25 58  1  0
 26 59  1  0
 27 60  1  0
 29 61  1  0
 29 62  1  0
 31 63  1  0
 32 64  1  0
M  END
>  <smiles>  (40) 
c1ccc(CCCNc2nc(NC3CCCC3)nc(N3CCc4ccccc4C3)n2)cc1

>  <score_type>  (40) 
oracle

>  <origin>  (40) 
autodockgpu

>  <m_score__min__energy>  (40) 
-10.24

>  <m_primary>  (40) 
energy

>  <rmsd>  (40) 
9.881924271102603

>  <m_score__min__rmsd>  (40) 
9.881924271102603

>  <meeko>  (40) 
{"free_energy": -9.08, "intermolecular_energy": -11.47, "internal_energy": -1.16, "cluster_size": 39, "cluster_id": 1, "rank_in_cluster": 30}

>  <energy>  (40) 
-9.24

>  <cluster_rmsd>  (40) 
0.0

>  <cluster>  (40) 
2

$$$$

     RDKit          3D

 64 68  0  0  0  0  0  0  0  0999 V2000
  142.1170   81.3570  223.9760 C   0  0  0  0  0  0  0  0  0  0  0  0
  140.8300   80.9460  223.7140 C   0  0  0  0  0  0  0  0  0  0  0  0
  140.5690   79.8010  222.9670 C   0  0  0  0  0  0  0  0  0  0  0  0
  141.6530   79.0730  222.4850 C   0  0  0  0  0  0  0  0  0  0  0  0
  141.3990   77.8330  221.6750 C   0  0  0  0  0  0  0  0  0  0  0  0
  140.6600   76.8560  222.5530 C   0  0  0  0  0  0  0  0  0  0  0  0
  139.4770   76.2440  221.8470 C   0  0  0  0  0  0  0  0  0  0  0  0
  139.8860   75.2870  220.8380 N   0  0  0  0  0  0  0  0  0  0  0  0
  140.3440   73.9940  221.2240 C   0  0  0  0  0  0  0  0  0  0  0  0
  141.2530   73.3150  220.4850 N   0  0  0  0  0  0  0  0  0  0  0  0
  141.6860   72.0850  220.8570 C   0  0  0  0  0  0  0  0  0  0  0  0
  142.6440   71.3550  220.0910 N   0  0  0  0  0  0  0  0  0  0  0  0
  143.9170   71.9620  219.7430 C   0  0  0  0  0  0  0  0  0  0  0  0
  144.3510   72.8150  220.8910 C   0  0  0  0  0  0  0  0  0  0  0  0
  144.1300   74.2220  220.4270 C   0  0  0  0  0  0  0  0  0  0  0  0
  144.2210   74.2270  218.9310 C   0  0  0  0  0  0  0  0  0  0  0  0
  143.6760   72.8780  218.5680 C   0  0  0  0  0  0  0  0  0  0  0  0
  141.1850   71.5350  222.0020 N   0  0  0  0  0  0  0  0  0  0  0  0
  140.2790   72.1960  222.7520 C   0  0  0  0  0  0  0  0  0  0  0  0
  139.7480   71.6350  223.9470 N   0  0  0  0  0  0  0  0  0  0  0  0
  138.3860   71.1430  224.0490 C   0  0  0  0  0  0  0  0  0  0  0  0
  138.4380   69.6450  224.2120 C   0  0  0  0  0  0  0  0  0  0  0  0
  139.3890   69.3390  225.3060 C   0  0  0  0  0  0  0  0  0  0  0  0
  139.2640   68.1160  225.9280 C   0  0  0  0  0  0  0  0  0  0  0  0
  140.0980   67.7460  226.9480 C   0  0  0  0  0  0  0  0  0  0  0  0
  141.1000   68.6030  227.3870 C   0  0  0  0  0  0  0  0  0  0  0  0
  141.2310   69.8380  226.7630 C   0  0  0  0  0  0  0  0  0  0  0  0
  140.3770   70.2070  225.7240 C   0  0  0  0  0  0  0  0  0  0  0  0
  140.5970   71.5450  225.1230 C   0  0  0  0  0  0  0  0  0  0  0  0
  139.8940   73.4030  222.3310 N   0  0  0  0  0  0  0  0  0  0  0  0
  142.9590   79.4750  222.7410 C   0  0  0  0  0  0  0  0  0  0  0  0
  143.1730   80.6150  223.4840 C   0  0  0  0  0  0  0  0  0  0  0  0
  142.3023   82.2645  224.5694 H   0  0  0  0  0  0  0  0  0  0  0  0
  139.9878   81.5363  224.1042 H   0  0  0  0  0  0  0  0  0  0  0  0
  139.5365   79.4808  222.7635 H   0  0  0  0  0  0  0  0  0  0  0  0
  140.7894   78.0798  220.7933 H   0  0  0  0  0  0  0  0  0  0  0  0
  142.3480   77.3981  221.3282 H   0  0  0  0  0  0  0  0  0  0  0  0
  141.3506   76.0529  222.8500 H   0  0  0  0  0  0  0  0  0  0  0  0
  140.2855   77.4040  223.4302 H   0  0  0  0  0  0  0  0  0  0  0  0
  138.8464   75.7316  222.5884 H   0  0  0  0  0  0  0  0  0  0  0  0
  138.9232   77.0519  221.3463 H   0  0  0  0  0  0  0  0  0  0  0  0
  139.8510   75.5310  219.8440 H   0  0  0  0  0  0  0  0  0  0  0  0
  142.3850   70.3880  219.8040 H   0  0  0  0  0  0  0  0  0  0  0  0
  144.6703   71.1945  219.5115 H   0  0  0  0  0  0  0  0  0  0  0  0
  143.7445   72.6015  221.7835 H   0  0  0  0  0  0  0  0  0  0  0  0
  145.3981   72.6303  221.1731 H   0  0  0  0  0  0  0  0  0  0  0  0
  143.1352   74.5691  220.7432 H   0  0  0  0  0  0  0  0  0  0  0  0
  144.8844   74.8944  220.8615 H   0  0  0  0  0  0  0  0  0  0  0  0
  143.6094   75.0324  218.4983 H   0  0  0  0  0  0  0  0  0  0  0  0
  145.2391   74.4044  218.5543 H   0  0  0  0  0  0  0  0  0  0  0  0
  142.5977   72.9509  218.3633 H   0  0  0  0  0  0  0  0  0  0  0  0
  144.1705   72.4897  217.6654 H   0  0  0  0  0  0  0  0  0  0  0  0
  137.8907   71.5956  224.9207 H   0  0  0  0  0  0  0  0  0  0  0  0
  137.8174   71.4077  223.1453 H   0  0  0  0  0  0  0  0  0  0  0  0
  137.4389   69.2619  224.4671 H   0  0  0  0  0  0  0  0  0  0  0  0
  138.7646   69.1687  223.2758 H   0  0  0  0  0  0  0  0  0  0  0  0
  138.4770   67.4221  225.5977 H   0  0  0  0  0  0  0  0  0  0  0  0
  139.9742   66.7622  227.4243 H   0  0  0  0  0  0  0  0  0  0  0  0
  141.7723   68.3114  228.2074 H   0  0  0  0  0  0  0  0  0  0  0  0
  142.0176   70.5327  227.0926 H   0  0  0  0  0  0  0  0  0  0  0  0
  140.3263   72.3306  225.8438 H   0  0  0  0  0  0  0  0  0  0  0  0
  141.6543   71.6811  224.8516 H   0  0  0  0  0  0  0  0  0  0  0  0
  143.8084   78.8916  222.3561 H   0  0  0  0  0  0  0  0  0  0  0  0
  144.2036   80.9403  223.6892 H   0  0  0  0  0  0  0  0  0  0  0  0
  1  2  2  0
  2  3  1  0
  3  4  2  0
  4  5  1  0
  5  6  1  0
  6  7  1  0
  7  8  1  0
  8  9  1  0
  9 10  2  0
 10 11  1  0
 11 12  1  0
 12 13  1  0
 13 14  1  0
 14 15  1  0
 15 16  1  0
 16 17  1  0
 11 18  2  0
 18 19  1  0
 19 20  1  0
 20 21  1  0
 21 22  1  0
 22 23  1  0
 23 24  2  0
 24 25  1  0
 25 26  2  0
 26 27  1  0
 27 28  2  0
 28 29  1  0
 19 30  2  0
  4 31  1  0
 31 32  2  0
 32  1  1  0
 30  9  1  0
 17 13  1  0
 29 20  1  0
 28 23  1  0
  1 33  1  0
  2 34  1  0
  3 35  1  0
  5 36  1  0
  5 37  1  0
  6 38  1  0
  6 39  1  0
  7 40  1  0
  7 41  1  0
  8 42  1  0
 12 43  1  0
 13 44  1  0
 14 45  1  0
 14 46  1  0
 15 47  1  0
 15 48  1  0
 16 49  1  0
 16 50  1  0
 17 51  1  0
 17 52  1  0
 21 53  1  0
 21 54  1  0
 22 55  1  0
 22 56  1  0
 24 57  1  0
 25 58  1  0
 26 59  1  0
 27 60  1  0
 29 61  1  0
 29 62  1  0
 31 63  1  0
 32 64  1  0
M  END
>  <smiles>  (41) 
c1ccc(CCCNc2nc(NC3CCCC3)nc(N3CCc4ccccc4C3)n2)cc1

>  <score_type>  (41) 
oracle

>  <origin>  (41) 
autodockgpu

>  <m_score__min__energy>  (41) 
-10.24

>  <m_primary>  (41) 
energy

>  <rmsd>  (41) 
9.608418597978876

>  <m_score__min__rmsd>  (41) 
9.608418597978876

>  <meeko>  (41) 
{"free_energy": -9.04, "intermolecular_energy": -11.42, "internal_energy": -1.35, "cluster_size": 39, "cluster_id": 1, "rank_in_cluster": 32}

>  <energy>  (41) 
-8.61

>  <cluster_rmsd>  (41) 
1.96

>  <cluster>  (41) 
2

$$$$

     RDKit          3D

 64 68  0  0  0  0  0  0  0  0999 V2000
  141.0990   71.8820  228.0120 C   0  0  0  0  0  0  0  0  0  0  0  0
  140.2910   70.8150  228.3360 C   0  0  0  0  0  0  0  0  0  0  0  0
  139.8120   69.9440  227.3630 C   0  0  0  0  0  0  0  0  0  0  0  0
  140.1730   70.1780  226.0390 C   0  0  0  0  0  0  0  0  0  0  0  0
  139.6690   69.2510  224.9690 C   0  0  0  0  0  0  0  0  0  0  0  0
  138.4240   69.8650  224.3830 C   0  0  0  0  0  0  0  0  0  0  0  0
  138.6820   70.4910  223.0350 C   0  0  0  0  0  0  0  0  0  0  0  0
  138.6720   71.9390  223.1010 N   0  0  0  0  0  0  0  0  0  0  0  0
  139.6790   72.6920  222.4320 C   0  0  0  0  0  0  0  0  0  0  0  0
  140.7980   72.1040  221.9470 N   0  0  0  0  0  0  0  0  0  0  0  0
  141.7540   72.8250  221.3100 C   0  0  0  0  0  0  0  0  0  0  0  0
  142.9390   72.2210  220.7930 N   0  0  0  0  0  0  0  0  0  0  0  0
  143.8310   72.9800  219.9340 C   0  0  0  0  0  0  0  0  0  0  0  0
  144.8460   72.0370  219.3730 C   0  0  0  0  0  0  0  0  0  0  0  0
  146.1100   72.3530  220.1110 C   0  0  0  0  0  0  0  0  0  0  0  0
  146.0340   73.7840  220.5520 C   0  0  0  0  0  0  0  0  0  0  0  0
  144.5680   73.9670  220.8050 C   0  0  0  0  0  0  0  0  0  0  0  0
  141.5670   74.1690  221.1630 N   0  0  0  0  0  0  0  0  0  0  0  0
  140.4590   74.7740  221.6390 C   0  0  0  0  0  0  0  0  0  0  0  0
  140.2530   76.1740  221.4930 N   0  0  0  0  0  0  0  0  0  0  0  0
  138.9340   76.7820  221.5020 C   0  0  0  0  0  0  0  0  0  0  0  0
  138.8070   77.6130  222.7530 C   0  0  0  0  0  0  0  0  0  0  0  0
  139.9960   78.4920  222.8380 C   0  0  0  0  0  0  0  0  0  0  0  0
  139.8890   79.6260  223.6130 C   0  0  0  0  0  0  0  0  0  0  0  0
  140.9360   80.4970  223.7510 C   0  0  0  0  0  0  0  0  0  0  0  0
  142.1420   80.2590  223.1060 C   0  0  0  0  0  0  0  0  0  0  0  0
  142.2560   79.1170  222.3210 C   0  0  0  0  0  0  0  0  0  0  0  0
  141.1850   78.2350  222.1860 C   0  0  0  0  0  0  0  0  0  0  0  0
  141.4050   77.0450  221.3280 C   0  0  0  0  0  0  0  0  0  0  0  0
  139.5570   74.0080  222.2560 N   0  0  0  0  0  0  0  0  0  0  0  0
  140.9870   71.2510  225.6950 C   0  0  0  0  0  0  0  0  0  0  0  0
  141.4400   72.0910  226.6900 C   0  0  0  0  0  0  0  0  0  0  0  0
  141.4682   72.5593  228.7962 H   0  0  0  0  0  0  0  0  0  0  0  0
  140.0181   70.6477  229.3884 H   0  0  0  0  0  0  0  0  0  0  0  0
  139.1666   69.0948  227.6319 H   0  0  0  0  0  0  0  0  0  0  0  0
  140.4325   69.1316  224.1861 H   0  0  0  0  0  0  0  0  0  0  0  0
  139.4489   68.2589  225.3899 H   0  0  0  0  0  0  0  0  0  0  0  0
  137.6609   69.0808  224.2700 H   0  0  0  0  0  0  0  0  0  0  0  0
  138.0829   70.6574  225.0654 H   0  0  0  0  0  0  0  0  0  0  0  0
  139.6652   70.1583  222.6707 H   0  0  0  0  0  0  0  0  0  0  0  0
  137.8789   70.1751  222.3529 H   0  0  0  0  0  0  0  0  0  0  0  0
  137.9440   72.4300  223.6290 H   0  0  0  0  0  0  0  0  0  0  0  0
  143.1230   71.2310  221.0600 H   0  0  0  0  0  0  0  0  0  0  0  0
  143.2718   73.4844  219.1323 H   0  0  0  0  0  0  0  0  0  0  0  0
  144.5449   70.9938  219.5491 H   0  0  0  0  0  0  0  0  0  0  0  0
  144.9610   72.1497  218.2848 H   0  0  0  0  0  0  0  0  0  0  0  0
  146.2066   71.6954  220.9875 H   0  0  0  0  0  0  0  0  0  0  0  0
  146.9846   72.1953  219.4628 H   0  0  0  0  0  0  0  0  0  0  0  0
  146.6194   73.9493  221.4685 H   0  0  0  0  0  0  0  0  0  0  0  0
  146.4443   74.4922  219.8171 H   0  0  0  0  0  0  0  0  0  0  0  0
  144.3428   73.7745  221.8643 H   0  0  0  0  0  0  0  0  0  0  0  0
  144.2598   74.9965  220.5703 H   0  0  0  0  0  0  0  0  0  0  0  0
  138.8131   77.4223  220.6158 H   0  0  0  0  0  0  0  0  0  0  0  0
  138.1568   76.0038  221.4822 H   0  0  0  0  0  0  0  0  0  0  0  0
  137.8934   78.2237  222.7049 H   0  0  0  0  0  0  0  0  0  0  0  0
  138.7457   76.9644  223.6394 H   0  0  0  0  0  0  0  0  0  0  0  0
  138.9421   79.8360  224.1319 H   0  0  0  0  0  0  0  0  0  0  0  0
  140.8207   81.3932  224.3784 H   0  0  0  0  0  0  0  0  0  0  0  0
  142.9861   80.9562  223.2132 H   0  0  0  0  0  0  0  0  0  0  0  0
  143.2021   78.9072  221.8006 H   0  0  0  0  0  0  0  0  0  0  0  0
  141.4974   77.3516  220.2756 H   0  0  0  0  0  0  0  0  0  0  0  0
  142.3308   76.5245  221.6141 H   0  0  0  0  0  0  0  0  0  0  0  0
  141.2653   71.4271  224.6455 H   0  0  0  0  0  0  0  0  0  0  0  0
  142.0844   72.9426  226.4263 H   0  0  0  0  0  0  0  0  0  0  0  0
  1  2  2  0
  2  3  1  0
  3  4  2  0
  4  5  1  0
  5  6  1  0
  6  7  1  0
  7  8  1  0
  8  9  1  0
  9 10  2  0
 10 11  1  0
 11 12  1  0
 12 13  1  0
 13 14  1  0
 14 15  1  0
 15 16  1  0
 16 17  1  0
 11 18  2  0
 18 19  1  0
 19 20  1  0
 20 21  1  0
 21 22  1  0
 22 23  1  0
 23 24  2  0
 24 25  1  0
 25 26  2  0
 26 27  1  0
 27 28  2  0
 28 29  1  0
 19 30  2  0
  4 31  1  0
 31 32  2  0
 32  1  1  0
 30  9  1  0
 17 13  1  0
 29 20  1  0
 28 23  1  0
  1 33  1  0
  2 34  1  0
  3 35  1  0
  5 36  1  0
  5 37  1  0
  6 38  1  0
  6 39  1  0
  7 40  1  0
  7 41  1  0
  8 42  1  0
 12 43  1  0
 13 44  1  0
 14 45  1  0
 14 46  1  0
 15 47  1  0
 15 48  1  0
 16 49  1  0
 16 50  1  0
 17 51  1  0
 17 52  1  0
 21 53  1  0
 21 54  1  0
 22 55  1  0
 22 56  1  0
 24 57  1  0
 25 58  1  0
 26 59  1  0
 27 60  1  0
 29 61  1  0
 29 62  1  0
 31 63  1  0
 32 64  1  0
M  END
>  <smiles>  (42) 
c1ccc(CCCNc2nc(NC3CCCC3)nc(N3CCc4ccccc4C3)n2)cc1

>  <score_type>  (42) 
oracle

>  <origin>  (42) 
autodockgpu

>  <m_score__min__energy>  (42) 
-10.24

>  <m_primary>  (42) 
energy

>  <rmsd>  (42) 
2.6768636335480447

>  <m_score__min__rmsd>  (42) 
2.6768636335480447

>  <meeko>  (42) 
{"free_energy": -10.24, "intermolecular_energy": -12.63, "internal_energy": -1.36, "cluster_size": 39, "cluster_id": 1, "rank_in_cluster": 1}

>  <energy>  (42) 
-8.5

>  <cluster_rmsd>  (42) 
1.91

>  <cluster>  (42) 
2

$$$$

     RDKit          3D

 64 68  0  0  0  0  0  0  0  0999 V2000
  140.3540   68.9890  227.8540 C   0  0  0  0  0  0  0  0  0  0  0  0
  140.6350   70.3240  228.0350 C   0  0  0  0  0  0  0  0  0  0  0  0
  140.7230   71.2010  226.9580 C   0  0  0  0  0  0  0  0  0  0  0  0
  140.5150   70.6910  225.6800 C   0  0  0  0  0  0  0  0  0  0  0  0
  140.6050   71.6170  224.5000 C   0  0  0  0  0  0  0  0  0  0  0  0
  140.0200   70.9000  223.3100 C   0  0  0  0  0  0  0  0  0  0  0  0
  140.0030   71.7690  222.0780 C   0  0  0  0  0  0  0  0  0  0  0  0
  139.6220   73.1340  222.3850 N   0  0  0  0  0  0  0  0  0  0  0  0
  140.3460   74.2220  221.8190 C   0  0  0  0  0  0  0  0  0  0  0  0
  141.1210   74.0620  220.7210 N   0  0  0  0  0  0  0  0  0  0  0  0
  141.8090   75.1020  220.1860 C   0  0  0  0  0  0  0  0  0  0  0  0
  142.6310   74.9510  219.0290 N   0  0  0  0  0  0  0  0  0  0  0  0
  143.8800   74.2150  219.1110 C   0  0  0  0  0  0  0  0  0  0  0  0
  143.5550   72.7560  219.1510 C   0  0  0  0  0  0  0  0  0  0  0  0
  143.8090   72.3470  220.5680 C   0  0  0  0  0  0  0  0  0  0  0  0
  144.8340   73.2820  221.1360 C   0  0  0  0  0  0  0  0  0  0  0  0
  144.5280   74.5670  220.4280 C   0  0  0  0  0  0  0  0  0  0  0  0
  141.7040   76.3270  220.7790 N   0  0  0  0  0  0  0  0  0  0  0  0
  140.9360   76.5080  221.8740 C   0  0  0  0  0  0  0  0  0  0  0  0
  140.8190   77.7780  222.5010 N   0  0  0  0  0  0  0  0  0  0  0  0
  141.7820   78.2710  223.4700 C   0  0  0  0  0  0  0  0  0  0  0  0
  142.5160   79.4360  222.8550 C   0  0  0  0  0  0  0  0  0  0  0  0
  141.5060   80.3750  222.3150 C   0  0  0  0  0  0  0  0  0  0  0  0
  141.8980   81.6820  222.1240 C   0  0  0  0  0  0  0  0  0  0  0  0
  141.0330   82.6210  221.6290 C   0  0  0  0  0  0  0  0  0  0  0  0
  139.7270   82.2760  221.3050 C   0  0  0  0  0  0  0  0  0  0  0  0
  139.3260   80.9590  221.4960 C   0  0  0  0  0  0  0  0  0  0  0  0
  140.2130   80.0090  222.0000 C   0  0  0  0  0  0  0  0  0  0  0  0
  139.6910   78.6310  222.1670 C   0  0  0  0  0  0  0  0  0  0  0  0
  140.2860   75.4430  222.3510 N   0  0  0  0  0  0  0  0  0  0  0  0
  140.2300   69.3450  225.4810 C   0  0  0  0  0  0  0  0  0  0  0  0
  140.1540   68.5100  226.5740 C   0  0  0  0  0  0  0  0  0  0  0  0
  140.2895   68.3116  228.7183 H   0  0  0  0  0  0  0  0  0  0  0  0
  140.7936   70.7066  229.0541 H   0  0  0  0  0  0  0  0  0  0  0  0
  140.9503   72.2661  227.1124 H   0  0  0  0  0  0  0  0  0  0  0  0
  140.0354   72.5364  224.7008 H   0  0  0  0  0  0  0  0  0  0  0  0
  141.6517   71.8945  224.3066 H   0  0  0  0  0  0  0  0  0  0  0  0
  140.6234   70.0037  223.1038 H   0  0  0  0  0  0  0  0  0  0  0  0
  138.9805   70.6336  223.5517 H   0  0  0  0  0  0  0  0  0  0  0  0
  141.0081   71.7722  221.6310 H   0  0  0  0  0  0  0  0  0  0  0  0
  139.2601   71.3563  221.3796 H   0  0  0  0  0  0  0  0  0  0  0  0
  138.8330   73.3250  223.0100 H   0  0  0  0  0  0  0  0  0  0  0  0
  142.2910   75.3870  218.1460 H   0  0  0  0  0  0  0  0  0  0  0  0
  144.5347   74.4530  218.2597 H   0  0  0  0  0  0  0  0  0  0  0  0
  142.5022   72.5859  218.8813 H   0  0  0  0  0  0  0  0  0  0  0  0
  144.1582   72.1763  218.4368 H   0  0  0  0  0  0  0  0  0  0  0  0
  142.8778   72.4138  221.1498 H   0  0  0  0  0  0  0  0  0  0  0  0
  144.1695   71.3086  220.6103 H   0  0  0  0  0  0  0  0  0  0  0  0
  144.7145   73.3894  222.2242 H   0  0  0  0  0  0  0  0  0  0  0  0
  145.8689   72.9379  220.9927 H   0  0  0  0  0  0  0  0  0  0  0  0
  143.8408   75.1756  221.0341 H   0  0  0  0  0  0  0  0  0  0  0  0
  145.4474   75.1484  220.2647 H   0  0  0  0  0  0  0  0  0  0  0  0
  141.2592   78.5992  224.3805 H   0  0  0  0  0  0  0  0  0  0  0  0
  142.4914   77.4746  223.7392 H   0  0  0  0  0  0  0  0  0  0  0  0
  143.1245   79.9406  223.6200 H   0  0  0  0  0  0  0  0  0  0  0  0
  143.1841   79.0884  222.0532 H   0  0  0  0  0  0  0  0  0  0  0  0
  142.9276   81.9774  222.3744 H   0  0  0  0  0  0  0  0  0  0  0  0
  141.3750   83.6568  221.4868 H   0  0  0  0  0  0  0  0  0  0  0  0
  139.0278   83.0263  220.9073 H   0  0  0  0  0  0  0  0  0  0  0  0
  138.2964   80.6628  221.2465 H   0  0  0  0  0  0  0  0  0  0  0  0
  138.9475   78.6060  222.9773 H   0  0  0  0  0  0  0  0  0  0  0  0
  139.2021   78.2857  221.2441 H   0  0  0  0  0  0  0  0  0  0  0  0
  140.0676   68.9527  224.4662 H   0  0  0  0  0  0  0  0  0  0  0  0
  139.9302   67.4434  226.4248 H   0  0  0  0  0  0  0  0  0  0  0  0
  1  2  2  0
  2  3  1  0
  3  4  2  0
  4  5  1  0
  5  6  1  0
  6  7  1  0
  7  8  1  0
  8  9  1  0
  9 10  2  0
 10 11  1  0
 11 12  1  0
 12 13  1  0
 13 14  1  0
 14 15  1  0
 15 16  1  0
 16 17  1  0
 11 18  2  0
 18 19  1  0
 19 20  1  0
 20 21  1  0
 21 22  1  0
 22 23  1  0
 23 24  2  0
 24 25  1  0
 25 26  2  0
 26 27  1  0
 27 28  2  0
 28 29  1  0
 19 30  2  0
  4 31  1  0
 31 32  2  0
 32  1  1  0
 30  9  1  0
 17 13  1  0
 29 20  1  0
 28 23  1  0
  1 33  1  0
  2 34  1  0
  3 35  1  0
  5 36  1  0
  5 37  1  0
  6 38  1  0
  6 39  1  0
  7 40  1  0
  7 41  1  0
  8 42  1  0
 12 43  1  0
 13 44  1  0
 14 45  1  0
 14 46  1  0
 15 47  1  0
 15 48  1  0
 16 49  1  0
 16 50  1  0
 17 51  1  0
 17 52  1  0
 21 53  1  0
 21 54  1  0
 22 55  1  0
 22 56  1  0
 24 57  1  0
 25 58  1  0
 26 59  1  0
 27 60  1  0
 29 61  1  0
 29 62  1  0
 31 63  1  0
 32 64  1  0
M  END
>  <smiles>  (43) 
c1ccc(CCCNc2nc(NC3CCCC3)nc(N3CCc4ccccc4C3)n2)cc1

>  <score_type>  (43) 
oracle

>  <origin>  (43) 
autodockgpu

>  <m_score__min__energy>  (43) 
-10.24

>  <m_primary>  (43) 
energy

>  <rmsd>  (43) 
1.7721761532567442

>  <m_score__min__rmsd>  (43) 
1.7721761532567442

>  <meeko>  (43) 
{"free_energy": -9.1, "intermolecular_energy": -11.49, "internal_energy": -1.41, "cluster_size": 1, "cluster_id": 4, "rank_in_cluster": 1}

>  <energy>  (43) 
-9.15

>  <cluster_rmsd>  (43) 
0.0

>  <cluster>  (43) 
3

$$$$

     RDKit          3D

 64 68  0  0  0  0  0  0  0  0999 V2000
  141.1990   68.8740  228.5270 C   0  0  0  0  0  0  0  0  0  0  0  0
  140.6850   70.0850  228.1210 C   0  0  0  0  0  0  0  0  0  0  0  0
  140.0470   70.2290  226.8930 C   0  0  0  0  0  0  0  0  0  0  0  0
  139.9370   69.1070  226.0760 C   0  0  0  0  0  0  0  0  0  0  0  0
  139.2520   69.2360  224.7450 C   0  0  0  0  0  0  0  0  0  0  0  0
  139.6590   70.5580  224.1470 C   0  0  0  0  0  0  0  0  0  0  0  0
  138.4670   71.4230  223.8230 C   0  0  0  0  0  0  0  0  0  0  0  0
  138.5000   71.8980  222.4540 N   0  0  0  0  0  0  0  0  0  0  0  0
  139.5930   72.6910  221.9990 C   0  0  0  0  0  0  0  0  0  0  0  0
  140.7770   72.1330  221.6560 N   0  0  0  0  0  0  0  0  0  0  0  0
  141.8150   72.8920  221.2240 C   0  0  0  0  0  0  0  0  0  0  0  0
  143.0700   72.3210  220.8580 N   0  0  0  0  0  0  0  0  0  0  0  0
  143.9860   73.0540  220.0020 C   0  0  0  0  0  0  0  0  0  0  0  0
  145.1150   72.1430  219.6450 C   0  0  0  0  0  0  0  0  0  0  0  0
  146.2750   72.6370  220.4520 C   0  0  0  0  0  0  0  0  0  0  0  0
  146.0550   74.0960  220.7190 C   0  0  0  0  0  0  0  0  0  0  0  0
  144.5620   74.1850  220.8180 C   0  0  0  0  0  0  0  0  0  0  0  0
  141.6430   74.2440  221.1380 N   0  0  0  0  0  0  0  0  0  0  0  0
  140.4700   74.8190  221.4750 C   0  0  0  0  0  0  0  0  0  0  0  0
  140.2780   76.2250  221.3910 N   0  0  0  0  0  0  0  0  0  0  0  0
  138.9680   76.8470  221.4510 C   0  0  0  0  0  0  0  0  0  0  0  0
  138.8750   77.6290  222.7380 C   0  0  0  0  0  0  0  0  0  0  0  0
  140.0770   78.4900  222.8330 C   0  0  0  0  0  0  0  0  0  0  0  0
  140.0000   79.5920  223.6570 C   0  0  0  0  0  0  0  0  0  0  0  0
  141.0600   80.4440  223.8080 C   0  0  0  0  0  0  0  0  0  0  0  0
  142.2500   80.2190  223.1290 C   0  0  0  0  0  0  0  0  0  0  0  0
  142.3330   79.1090  222.2960 C   0  0  0  0  0  0  0  0  0  0  0  0
  141.2490   78.2450  222.1470 C   0  0  0  0  0  0  0  0  0  0  0  0
  141.4370   77.0890  221.2370 C   0  0  0  0  0  0  0  0  0  0  0  0
  139.4890   74.0160  221.8930 N   0  0  0  0  0  0  0  0  0  0  0  0
  140.4510   67.8780  226.4710 C   0  0  0  0  0  0  0  0  0  0  0  0
  141.0770   67.7780  227.6950 C   0  0  0  0  0  0  0  0  0  0  0  0
  141.7005   68.7804  229.5015 H   0  0  0  0  0  0  0  0  0  0  0  0
  140.7809   70.9586  228.7826 H   0  0  0  0  0  0  0  0  0  0  0  0
  139.6412   71.2013  226.5767 H   0  0  0  0  0  0  0  0  0  0  0  0
  139.5618   68.4140  224.0829 H   0  0  0  0  0  0  0  0  0  0  0  0
  138.1599   69.1882  224.8673 H   0  0  0  0  0  0  0  0  0  0  0  0
  140.2993   71.0906  224.8656 H   0  0  0  0  0  0  0  0  0  0  0  0
  140.1964   70.3552  223.2089 H   0  0  0  0  0  0  0  0  0  0  0  0
  137.5496   70.8350  223.9734 H   0  0  0  0  0  0  0  0  0  0  0  0
  138.4903   72.2987  224.4883 H   0  0  0  0  0  0  0  0  0  0  0  0
  137.7400   71.6710  221.8060 H   0  0  0  0  0  0  0  0  0  0  0  0
  143.2870   71.3730  221.2320 H   0  0  0  0  0  0  0  0  0  0  0  0
  143.4738   73.4229  219.1011 H   0  0  0  0  0  0  0  0  0  0  0  0
  144.8729   71.1034  219.9107 H   0  0  0  0  0  0  0  0  0  0  0  0
  145.3277   72.1486  218.5658 H   0  0  0  0  0  0  0  0  0  0  0  0
  146.3318   72.0864  221.4026 H   0  0  0  0  0  0  0  0  0  0  0  0
  147.2178   72.4826  219.9067 H   0  0  0  0  0  0  0  0  0  0  0  0
  146.5350   74.4051  221.6592 H   0  0  0  0  0  0  0  0  0  0  0  0
  146.4837   74.7529  219.9478 H   0  0  0  0  0  0  0  0  0  0  0  0
  144.2486   74.0883  221.8680 H   0  0  0  0  0  0  0  0  0  0  0  0
  144.2056   75.1553  220.4418 H   0  0  0  0  0  0  0  0  0  0  0  0
  138.8378   77.5240  220.5939 H   0  0  0  0  0  0  0  0  0  0  0  0
  138.1812   76.0791  221.4157 H   0  0  0  0  0  0  0  0  0  0  0  0
  137.9682   78.2517  222.7328 H   0  0  0  0  0  0  0  0  0  0  0  0
  138.8223   76.9466  223.5991 H   0  0  0  0  0  0  0  0  0  0  0  0
  139.0670   79.7908  224.2047 H   0  0  0  0  0  0  0  0  0  0  0  0
  140.9685   81.3151  224.4734 H   0  0  0  0  0  0  0  0  0  0  0  0
  143.1048   80.9012  223.2470 H   0  0  0  0  0  0  0  0  0  0  0  0
  143.2656   78.9100  221.7477 H   0  0  0  0  0  0  0  0  0  0  0  0
  141.5113   77.4373  220.1963 H   0  0  0  0  0  0  0  0  0  0  0  0
  142.3623   76.5469  221.4819 H   0  0  0  0  0  0  0  0  0  0  0  0
  140.3598   66.9983  225.8169 H   0  0  0  0  0  0  0  0  0  0  0  0
  141.4866   66.8085  228.0149 H   0  0  0  0  0  0  0  0  0  0  0  0
  1  2  2  0
  2  3  1  0
  3  4  2  0
  4  5  1  0
  5  6  1  0
  6  7  1  0
  7  8  1  0
  8  9  1  0
  9 10  2  0
 10 11  1  0
 11 12  1  0
 12 13  1  0
 13 14  1  0
 14 15  1  0
 15 16  1  0
 16 17  1  0
 11 18  2  0
 18 19  1  0
 19 20  1  0
 20 21  1  0
 21 22  1  0
 22 23  1  0
 23 24  2  0
 24 25  1  0
 25 26  2  0
 26 27  1  0
 27 28  2  0
 28 29  1  0
 19 30  2  0
  4 31  1  0
 31 32  2  0
 32  1  1  0
 30  9  1  0
 17 13  1  0
 29 20  1  0
 28 23  1  0
  1 33  1  0
  2 34  1  0
  3 35  1  0
  5 36  1  0
  5 37  1  0
  6 38  1  0
  6 39  1  0
  7 40  1  0
  7 41  1  0
  8 42  1  0
 12 43  1  0
 13 44  1  0
 14 45  1  0
 14 46  1  0
 15 47  1  0
 15 48  1  0
 16 49  1  0
 16 50  1  0
 17 51  1  0
 17 52  1  0
 21 53  1  0
 21 54  1  0
 22 55  1  0
 22 56  1  0
 24 57  1  0
 25 58  1  0
 26 59  1  0
 27 60  1  0
 29 61  1  0
 29 62  1  0
 31 63  1  0
 32 64  1  0
M  END
>  <smiles>  (44) 
c1ccc(CCCNc2nc(NC3CCCC3)nc(N3CCc4ccccc4C3)n2)cc1

>  <score_type>  (44) 
oracle

>  <origin>  (44) 
autodockgpu

>  <m_score__min__energy>  (44) 
-10.24

>  <m_primary>  (44) 
energy

>  <rmsd>  (44) 
1.5709046845948722

>  <m_score__min__rmsd>  (44) 
1.5709046845948722

>  <meeko>  (44) 
{"free_energy": -9.19, "intermolecular_energy": -11.57, "internal_energy": -1.1, "cluster_size": 39, "cluster_id": 1, "rank_in_cluster": 27}

>  <energy>  (44) 
-9.1

>  <cluster_rmsd>  (44) 
0.55

>  <cluster>  (44) 
3

$$$$

     RDKit          3D

 64 68  0  0  0  0  0  0  0  0999 V2000
  142.8780   80.9040  223.5220 C   0  0  0  0  0  0  0  0  0  0  0  0
  143.0820   79.7550  222.7930 C   0  0  0  0  0  0  0  0  0  0  0  0
  142.0200   78.9550  222.3820 C   0  0  0  0  0  0  0  0  0  0  0  0
  140.7310   79.3500  222.7300 C   0  0  0  0  0  0  0  0  0  0  0  0
  139.5660   78.5040  222.3000 C   0  0  0  0  0  0  0  0  0  0  0  0
  139.9250   77.8690  220.9810 C   0  0  0  0  0  0  0  0  0  0  0  0
  139.7900   76.3670  221.0220 C   0  0  0  0  0  0  0  0  0  0  0  0
  141.0280   75.7240  221.4170 N   0  0  0  0  0  0  0  0  0  0  0  0
  141.1230   74.3030  221.4290 C   0  0  0  0  0  0  0  0  0  0  0  0
  141.8520   73.6340  220.5060 N   0  0  0  0  0  0  0  0  0  0  0  0
  141.9380   72.2800  220.5220 C   0  0  0  0  0  0  0  0  0  0  0  0
  142.7020   71.5590  219.5560 N   0  0  0  0  0  0  0  0  0  0  0  0
  144.1530   71.5640  219.6200 C   0  0  0  0  0  0  0  0  0  0  0  0
  144.5600   72.3340  220.8350 C   0  0  0  0  0  0  0  0  0  0  0  0
  145.0840   73.6330  220.3060 C   0  0  0  0  0  0  0  0  0  0  0  0
  145.5870   73.3890  218.9150 C   0  0  0  0  0  0  0  0  0  0  0  0
  144.6570   72.3240  218.4170 C   0  0  0  0  0  0  0  0  0  0  0  0
  141.2720   71.5950  221.4970 N   0  0  0  0  0  0  0  0  0  0  0  0
  140.5400   72.2440  222.4270 C   0  0  0  0  0  0  0  0  0  0  0  0
  139.8410   71.5430  223.4470 N   0  0  0  0  0  0  0  0  0  0  0  0
  138.6290   70.7830  223.1930 C   0  0  0  0  0  0  0  0  0  0  0  0
  138.9400   69.3210  223.3890 C   0  0  0  0  0  0  0  0  0  0  0  0
  139.6120   69.1710  224.7000 C   0  0  0  0  0  0  0  0  0  0  0  0
  139.5800   67.9250  225.2880 C   0  0  0  0  0  0  0  0  0  0  0  0
  140.1740   67.6920  226.4990 C   0  0  0  0  0  0  0  0  0  0  0  0
  140.8290   68.7140  227.1720 C   0  0  0  0  0  0  0  0  0  0  0  0
  140.8640   69.9740  226.5850 C   0  0  0  0  0  0  0  0  0  0  0  0
  140.2570   70.2030  225.3510 C   0  0  0  0  0  0  0  0  0  0  0  0
  140.3500   71.5800  224.8070 C   0  0  0  0  0  0  0  0  0  0  0  0
  140.4960   73.5770  222.3550 N   0  0  0  0  0  0  0  0  0  0  0  0
  140.5080   80.5070  223.4670 C   0  0  0  0  0  0  0  0  0  0  0  0
  141.5880   81.2700  223.8540 C   0  0  0  0  0  0  0  0  0  0  0  0
  143.7311   81.5231  223.8364 H   0  0  0  0  0  0  0  0  0  0  0  0
  144.1088   79.4618  222.5288 H   0  0  0  0  0  0  0  0  0  0  0  0
  142.1937   78.0381  221.7997 H   0  0  0  0  0  0  0  0  0  0  0  0
  139.3716   77.7241  223.0510 H   0  0  0  0  0  0  0  0  0  0  0  0
  138.6594   79.1186  222.1984 H   0  0  0  0  0  0  0  0  0  0  0  0
  139.2561   78.2647  220.2025 H   0  0  0  0  0  0  0  0  0  0  0  0
  140.9758   78.1100  220.7625 H   0  0  0  0  0  0  0  0  0  0  0  0
  139.0043   76.1000  221.7441 H   0  0  0  0  0  0  0  0  0  0  0  0
  139.5329   76.0198  220.0104 H   0  0  0  0  0  0  0  0  0  0  0  0
  141.8400   76.2840  221.6910 H   0  0  0  0  0  0  0  0  0  0  0  0
  142.1740   71.0410  218.8230 H   0  0  0  0  0  0  0  0  0  0  0  0
  144.5499   70.5385  219.6485 H   0  0  0  0  0  0  0  0  0  0  0  0
  143.6956   72.5041  221.4937 H   0  0  0  0  0  0  0  0  0  0  0  0
  145.3094   71.7973  221.4353 H   0  0  0  0  0  0  0  0  0  0  0  0
  144.2786   74.3820  220.2871 H   0  0  0  0  0  0  0  0  0  0  0  0
  145.8934   74.0118  220.9474 H   0  0  0  0  0  0  0  0  0  0  0  0
  145.5151   74.2987  218.3008 H   0  0  0  0  0  0  0  0  0  0  0  0
  146.6474   73.0990  218.8763 H   0  0  0  0  0  0  0  0  0  0  0  0
  143.8127   72.7828  217.8817 H   0  0  0  0  0  0  0  0  0  0  0  0
  145.1775   71.6488  217.7219 H   0  0  0  0  0  0  0  0  0  0  0  0
  137.8409   71.0934  223.8948 H   0  0  0  0  0  0  0  0  0  0  0  0
  138.2763   70.9621  222.1666 H   0  0  0  0  0  0  0  0  0  0  0  0
  138.0087   68.7358  223.3772 H   0  0  0  0  0  0  0  0  0  0  0  0
  139.5905   68.9557  222.5807 H   0  0  0  0  0  0  0  0  0  0  0  0
  139.0661   67.1000  224.7731 H   0  0  0  0  0  0  0  0  0  0  0  0
  140.1319   66.6863  226.9426 H   0  0  0  0  0  0  0  0  0  0  0  0
  141.3083   68.5318  228.1452 H   0  0  0  0  0  0  0  0  0  0  0  0
  141.3766   70.7997  227.1003 H   0  0  0  0  0  0  0  0  0  0  0  0
  139.7450   72.2672  225.4167 H   0  0  0  0  0  0  0  0  0  0  0  0
  141.3908   71.9355  224.8235 H   0  0  0  0  0  0  0  0  0  0  0  0
  139.4853   80.8089  223.7371 H   0  0  0  0  0  0  0  0  0  0  0  0
  141.4200   82.1870  224.4378 H   0  0  0  0  0  0  0  0  0  0  0  0
  1  2  2  0
  2  3  1  0
  3  4  2  0
  4  5  1  0
  5  6  1  0
  6  7  1  0
  7  8  1  0
  8  9  1  0
  9 10  2  0
 10 11  1  0
 11 12  1  0
 12 13  1  0
 13 14  1  0
 14 15  1  0
 15 16  1  0
 16 17  1  0
 11 18  2  0
 18 19  1  0
 19 20  1  0
 20 21  1  0
 21 22  1  0
 22 23  1  0
 23 24  2  0
 24 25  1  0
 25 26  2  0
 26 27  1  0
 27 28  2  0
 28 29  1  0
 19 30  2  0
  4 31  1  0
 31 32  2  0
 32  1  1  0
 30  9  1  0
 17 13  1  0
 29 20  1  0
 28 23  1  0
  1 33  1  0
  2 34  1  0
  3 35  1  0
  5 36  1  0
  5 37  1  0
  6 38  1  0
  6 39  1  0
  7 40  1  0
  7 41  1  0
  8 42  1  0
 12 43  1  0
 13 44  1  0
 14 45  1  0
 14 46  1  0
 15 47  1  0
 15 48  1  0
 16 49  1  0
 16 50  1  0
 17 51  1  0
 17 52  1  0
 21 53  1  0
 21 54  1  0
 22 55  1  0
 22 56  1  0
 24 57  1  0
 25 58  1  0
 26 59  1  0
 27 60  1  0
 29 61  1  0
 29 62  1  0
 31 63  1  0
 32 64  1  0
M  END
>  <smiles>  (45) 
c1ccc(CCCNc2nc(NC3CCCC3)nc(N3CCc4ccccc4C3)n2)cc1

>  <score_type>  (45) 
oracle

>  <origin>  (45) 
autodockgpu

>  <m_score__min__energy>  (45) 
-10.24

>  <m_primary>  (45) 
energy

>  <rmsd>  (45) 
9.631563542565274

>  <m_score__min__rmsd>  (45) 
9.631563542565274

>  <meeko>  (45) 
{"free_energy": -9.35, "intermolecular_energy": -11.73, "internal_energy": -1.2, "cluster_size": 39, "cluster_id": 1, "rank_in_cluster": 21}

>  <energy>  (45) 
-9.06

>  <cluster_rmsd>  (45) 
0.99

>  <cluster>  (45) 
3

$$$$

     RDKit          3D

 64 68  0  0  0  0  0  0  0  0999 V2000
  142.1620   80.9830  223.8040 C   0  0  0  0  0  0  0  0  0  0  0  0
  141.8250   81.6200  222.6320 C   0  0  0  0  0  0  0  0  0  0  0  0
  141.4750   80.9060  221.4900 C   0  0  0  0  0  0  0  0  0  0  0  0
  141.4730   79.5150  221.5630 C   0  0  0  0  0  0  0  0  0  0  0  0
  141.1000   78.7200  220.3440 C   0  0  0  0  0  0  0  0  0  0  0  0
  141.4980   77.2880  220.5930 C   0  0  0  0  0  0  0  0  0  0  0  0
  140.3810   76.3270  220.2710 C   0  0  0  0  0  0  0  0  0  0  0  0
  139.9500   75.5890  221.4420 N   0  0  0  0  0  0  0  0  0  0  0  0
  140.4440   74.2740  221.6790 C   0  0  0  0  0  0  0  0  0  0  0  0
  141.4680   73.7620  220.9580 N   0  0  0  0  0  0  0  0  0  0  0  0
  141.9350   72.5090  221.1880 C   0  0  0  0  0  0  0  0  0  0  0  0
  143.0140   71.9530  220.4360 N   0  0  0  0  0  0  0  0  0  0  0  0
  143.9500   72.8240  219.7480 C   0  0  0  0  0  0  0  0  0  0  0  0
  145.2060   72.0510  219.5030 C   0  0  0  0  0  0  0  0  0  0  0  0
  146.1930   72.6060  220.4820 C   0  0  0  0  0  0  0  0  0  0  0  0
  145.7880   74.0170  220.7870 C   0  0  0  0  0  0  0  0  0  0  0  0
  144.2940   73.9540  220.6880 C   0  0  0  0  0  0  0  0  0  0  0  0
  141.3500   71.7650  222.1720 N   0  0  0  0  0  0  0  0  0  0  0  0
  140.3290   72.2580  222.9030 C   0  0  0  0  0  0  0  0  0  0  0  0
  139.7100   71.4940  223.9290 N   0  0  0  0  0  0  0  0  0  0  0  0
  138.4880   70.7370  223.7220 C   0  0  0  0  0  0  0  0  0  0  0  0
  138.8220   69.2690  223.8110 C   0  0  0  0  0  0  0  0  0  0  0  0
  139.5890   69.0530  225.0600 C   0  0  0  0  0  0  0  0  0  0  0  0
  139.6070   67.7760  225.5760 C   0  0  0  0  0  0  0  0  0  0  0  0
  140.2900   67.4810  226.7260 C   0  0  0  0  0  0  0  0  0  0  0  0
  140.9860   68.4710  227.4070 C   0  0  0  0  0  0  0  0  0  0  0  0
  140.9710   69.7620  226.8910 C   0  0  0  0  0  0  0  0  0  0  0  0
  140.2730   70.0530  225.7200 C   0  0  0  0  0  0  0  0  0  0  0  0
  140.3180   71.4590  225.2490 C   0  0  0  0  0  0  0  0  0  0  0  0
  139.9160   73.4970  222.6260 N   0  0  0  0  0  0  0  0  0  0  0  0
  141.8120   78.8570  222.7390 C   0  0  0  0  0  0  0  0  0  0  0  0
  142.1520   79.6030  223.8470 C   0  0  0  0  0  0  0  0  0  0  0  0
  142.4360   81.5659  224.6957 H   0  0  0  0  0  0  0  0  0  0  0  0
  141.8324   82.7194  222.5969 H   0  0  0  0  0  0  0  0  0  0  0  0
  141.2079   81.4246  220.5574 H   0  0  0  0  0  0  0  0  0  0  0  0
  140.0153   78.7832  220.1727 H   0  0  0  0  0  0  0  0  0  0  0  0
  141.6134   79.1140  219.4545 H   0  0  0  0  0  0  0  0  0  0  0  0
  142.3670   77.0463  219.9634 H   0  0  0  0  0  0  0  0  0  0  0  0
  141.7391   77.1832  221.6611 H   0  0  0  0  0  0  0  0  0  0  0  0
  139.5266   76.8947  219.8738 H   0  0  0  0  0  0  0  0  0  0  0  0
  140.7550   75.6045  219.5306 H   0  0  0  0  0  0  0  0  0  0  0  0
  139.2880   76.0040  222.1040 H   0  0  0  0  0  0  0  0  0  0  0  0
  143.0890   70.9150  220.4110 H   0  0  0  0  0  0  0  0  0  0  0  0
  143.5222   73.1963  218.8055 H   0  0  0  0  0  0  0  0  0  0  0  0
  145.0424   70.9783  219.6835 H   0  0  0  0  0  0  0  0  0  0  0  0
  145.5547   72.1434  218.4638 H   0  0  0  0  0  0  0  0  0  0  0  0
  146.1841   72.0060  221.4039 H   0  0  0  0  0  0  0  0  0  0  0  0
  147.2093   72.5790  220.0619 H   0  0  0  0  0  0  0  0  0  0  0  0
  146.1074   74.3127  221.7972 H   0  0  0  0  0  0  0  0  0  0  0  0
  146.2413   74.7588  220.1131 H   0  0  0  0  0  0  0  0  0  0  0  0
  143.8594   73.7629  221.6803 H   0  0  0  0  0  0  0  0  0  0  0  0
  143.8895   74.9062  220.3143 H   0  0  0  0  0  0  0  0  0  0  0  0
  137.7520   70.9990  224.4964 H   0  0  0  0  0  0  0  0  0  0  0  0
  138.0593   70.9699  222.7361 H   0  0  0  0  0  0  0  0  0  0  0  0
  137.8962   68.6754  223.8333 H   0  0  0  0  0  0  0  0  0  0  0  0
  139.4140   68.9564  222.9381 H   0  0  0  0  0  0  0  0  0  0  0  0
  139.0614   66.9764  225.0536 H   0  0  0  0  0  0  0  0  0  0  0  0
  140.2872   66.4514  227.1133 H   0  0  0  0  0  0  0  0  0  0  0  0
  141.5354   68.2397  228.3315 H   0  0  0  0  0  0  0  0  0  0  0  0
  141.5160   70.5626  227.4126 H   0  0  0  0  0  0  0  0  0  0  0  0
  139.7558   72.1051  225.9393 H   0  0  0  0  0  0  0  0  0  0  0  0
  141.3554   71.8226  225.2090 H   0  0  0  0  0  0  0  0  0  0  0  0
  141.8091   77.7580  222.7850 H   0  0  0  0  0  0  0  0  0  0  0  0
  142.4202   79.0897  224.7822 H   0  0  0  0  0  0  0  0  0  0  0  0
  1  2  2  0
  2  3  1  0
  3  4  2  0
  4  5  1  0
  5  6  1  0
  6  7  1  0
  7  8  1  0
  8  9  1  0
  9 10  2  0
 10 11  1  0
 11 12  1  0
 12 13  1  0
 13 14  1  0
 14 15  1  0
 15 16  1  0
 16 17  1  0
 11 18  2  0
 18 19  1  0
 19 20  1  0
 20 21  1  0
 21 22  1  0
 22 23  1  0
 23 24  2  0
 24 25  1  0
 25 26  2  0
 26 27  1  0
 27 28  2  0
 28 29  1  0
 19 30  2  0
  4 31  1  0
 31 32  2  0
 32  1  1  0
 30  9  1  0
 17 13  1  0
 29 20  1  0
 28 23  1  0
  1 33  1  0
  2 34  1  0
  3 35  1  0
  5 36  1  0
  5 37  1  0
  6 38  1  0
  6 39  1  0
  7 40  1  0
  7 41  1  0
  8 42  1  0
 12 43  1  0
 13 44  1  0
 14 45  1  0
 14 46  1  0
 15 47  1  0
 15 48  1  0
 16 49  1  0
 16 50  1  0
 17 51  1  0
 17 52  1  0
 21 53  1  0
 21 54  1  0
 22 55  1  0
 22 56  1  0
 24 57  1  0
 25 58  1  0
 26 59  1  0
 27 60  1  0
 29 61  1  0
 29 62  1  0
 31 63  1  0
 32 64  1  0
M  END
>  <smiles>  (46) 
c1ccc(CCCNc2nc(NC3CCCC3)nc(N3CCc4ccccc4C3)n2)cc1

>  <score_type>  (46) 
oracle

>  <origin>  (46) 
autodockgpu

>  <m_score__min__energy>  (46) 
-10.24

>  <m_primary>  (46) 
energy

>  <rmsd>  (46) 
9.895510503077961

>  <m_score__min__rmsd>  (46) 
9.895510503077961

>  <meeko>  (46) 
{"free_energy": -9.51, "intermolecular_energy": -11.89, "internal_energy": -1.12, "cluster_size": 39, "cluster_id": 1, "rank_in_cluster": 18}

>  <energy>  (46) 
-8.66

>  <cluster_rmsd>  (46) 
0.58

>  <cluster>  (46) 
3

$$$$

     RDKit          3D

 64 68  0  0  0  0  0  0  0  0999 V2000
  142.9510   80.9280  223.7910 C   0  0  0  0  0  0  0  0  0  0  0  0
  143.2610   79.8160  223.0410 C   0  0  0  0  0  0  0  0  0  0  0  0
  142.2740   79.0710  222.4040 C   0  0  0  0  0  0  0  0  0  0  0  0
  140.9510   79.4810  222.5430 C   0  0  0  0  0  0  0  0  0  0  0  0
  139.8660   78.6920  221.8650 C   0  0  0  0  0  0  0  0  0  0  0  0
  139.7140   77.3900  222.6080 C   0  0  0  0  0  0  0  0  0  0  0  0
  139.6770   76.2070  221.6730 C   0  0  0  0  0  0  0  0  0  0  0  0
  140.9530   75.5220  221.6180 N   0  0  0  0  0  0  0  0  0  0  0  0
  141.0000   74.0980  221.6100 C   0  0  0  0  0  0  0  0  0  0  0  0
  141.6450   73.4150  220.6360 N   0  0  0  0  0  0  0  0  0  0  0  0
  141.6860   72.0590  220.6330 C   0  0  0  0  0  0  0  0  0  0  0  0
  142.3610   71.3240  219.6140 N   0  0  0  0  0  0  0  0  0  0  0  0
  143.7680   71.5660  219.3490 C   0  0  0  0  0  0  0  0  0  0  0  0
  144.4250   71.9340  220.6400 C   0  0  0  0  0  0  0  0  0  0  0  0
  144.6740   73.4070  220.5350 C   0  0  0  0  0  0  0  0  0  0  0  0
  144.7960   73.7460  219.0800 C   0  0  0  0  0  0  0  0  0  0  0  0
  143.8590   72.7670  218.4390 C   0  0  0  0  0  0  0  0  0  0  0  0
  141.0600   71.3860  221.6430 N   0  0  0  0  0  0  0  0  0  0  0  0
  140.4120   72.0480  222.6240 C   0  0  0  0  0  0  0  0  0  0  0  0
  139.7560   71.3590  223.6800 N   0  0  0  0  0  0  0  0  0  0  0  0
  138.5500   70.5750  223.4810 C   0  0  0  0  0  0  0  0  0  0  0  0
  138.8900   69.1230  223.6990 C   0  0  0  0  0  0  0  0  0  0  0  0
  139.6050   69.0130  224.9920 C   0  0  0  0  0  0  0  0  0  0  0  0
  139.6110   67.7800  225.6070 C   0  0  0  0  0  0  0  0  0  0  0  0
  140.2460   67.5830  226.8040 C   0  0  0  0  0  0  0  0  0  0  0  0
  140.9040   68.6310  227.4340 C   0  0  0  0  0  0  0  0  0  0  0  0
  140.9010   69.8770  226.8190 C   0  0  0  0  0  0  0  0  0  0  0  0
  140.2520   70.0690  225.6000 C   0  0  0  0  0  0  0  0  0  0  0  0
  140.3060   71.4350  225.0240 C   0  0  0  0  0  0  0  0  0  0  0  0
  140.4090   73.3820  222.5670 N   0  0  0  0  0  0  0  0  0  0  0  0
  140.6210   80.6010  223.2960 C   0  0  0  0  0  0  0  0  0  0  0  0
  141.6290   81.3110  223.9120 C   0  0  0  0  0  0  0  0  0  0  0  0
  143.7456   81.5042  224.2876 H   0  0  0  0  0  0  0  0  0  0  0  0
  144.3130   79.5097  222.9432 H   0  0  0  0  0  0  0  0  0  0  0  0
  142.5316   78.1833  221.8076 H   0  0  0  0  0  0  0  0  0  0  0  0
  138.9203   79.2530  221.8949 H   0  0  0  0  0  0  0  0  0  0  0  0
  140.1248   78.5068  220.8121 H   0  0  0  0  0  0  0  0  0  0  0  0
  140.5641   77.2724  223.2961 H   0  0  0  0  0  0  0  0  0  0  0  0
  138.7604   77.4204  223.1554 H   0  0  0  0  0  0  0  0  0  0  0  0
  138.9092   75.5012  222.0226 H   0  0  0  0  0  0  0  0  0  0  0  0
  139.4448   76.5772  220.6635 H   0  0  0  0  0  0  0  0  0  0  0  0
  141.8280   76.0530  221.5850 H   0  0  0  0  0  0  0  0  0  0  0  0
  141.8020   70.6220  219.0850 H   0  0  0  0  0  0  0  0  0  0  0  0
  144.2425   70.6808  218.9004 H   0  0  0  0  0  0  0  0  0  0  0  0
  143.7620   71.7124  221.4894 H   0  0  0  0  0  0  0  0  0  0  0  0
  145.3519   71.3669  220.8112 H   0  0  0  0  0  0  0  0  0  0  0  0
  143.8345   73.9615  220.9798 H   0  0  0  0  0  0  0  0  0  0  0  0
  145.5933   73.6816  221.0730 H   0  0  0  0  0  0  0  0  0  0  0  0
  144.4823   74.7822  218.8856 H   0  0  0  0  0  0  0  0  0  0  0  0
  145.8260   73.6808  218.6995 H   0  0  0  0  0  0  0  0  0  0  0  0
  142.8651   73.2224  218.3172 H   0  0  0  0  0  0  0  0  0  0  0  0
  144.2254   72.4733  217.4442 H   0  0  0  0  0  0  0  0  0  0  0  0
  137.7791   70.8888  224.2002 H   0  0  0  0  0  0  0  0  0  0  0  0
  138.1631   70.7255  222.4623 H   0  0  0  0  0  0  0  0  0  0  0  0
  137.9682   68.5236  223.7293 H   0  0  0  0  0  0  0  0  0  0  0  0
  139.5207   68.7494  222.8789 H   0  0  0  0  0  0  0  0  0  0  0  0
  139.0947   66.9360  225.1262 H   0  0  0  0  0  0  0  0  0  0  0  0
  140.2348   66.5867  227.2702 H   0  0  0  0  0  0  0  0  0  0  0  0
  141.4150   68.4786  228.3961 H   0  0  0  0  0  0  0  0  0  0  0  0
  141.4166   70.7216  227.2994 H   0  0  0  0  0  0  0  0  0  0  0  0
  139.7085   72.1259  225.6368 H   0  0  0  0  0  0  0  0  0  0  0  0
  141.3407   71.8076  225.0011 H   0  0  0  0  0  0  0  0  0  0  0  0
  139.5721   80.9160  223.3989 H   0  0  0  0  0  0  0  0  0  0  0  0
  141.3764   82.1985  224.5107 H   0  0  0  0  0  0  0  0  0  0  0  0
  1  2  2  0
  2  3  1  0
  3  4  2  0
  4  5  1  0
  5  6  1  0
  6  7  1  0
  7  8  1  0
  8  9  1  0
  9 10  2  0
 10 11  1  0
 11 12  1  0
 12 13  1  0
 13 14  1  0
 14 15  1  0
 15 16  1  0
 16 17  1  0
 11 18  2  0
 18 19  1  0
 19 20  1  0
 20 21  1  0
 21 22  1  0
 22 23  1  0
 23 24  2  0
 24 25  1  0
 25 26  2  0
 26 27  1  0
 27 28  2  0
 28 29  1  0
 19 30  2  0
  4 31  1  0
 31 32  2  0
 32  1  1  0
 30  9  1  0
 17 13  1  0
 29 20  1  0
 28 23  1  0
  1 33  1  0
  2 34  1  0
  3 35  1  0
  5 36  1  0
  5 37  1  0
  6 38  1  0
  6 39  1  0
  7 40  1  0
  7 41  1  0
  8 42  1  0
 12 43  1  0
 13 44  1  0
 14 45  1  0
 14 46  1  0
 15 47  1  0
 15 48  1  0
 16 49  1  0
 16 50  1  0
 17 51  1  0
 17 52  1  0
 21 53  1  0
 21 54  1  0
 22 55  1  0
 22 56  1  0
 24 57  1  0
 25 58  1  0
 26 59  1  0
 27 60  1  0
 29 61  1  0
 29 62  1  0
 31 63  1  0
 32 64  1  0
M  END
>  <smiles>  (47) 
c1ccc(CCCNc2nc(NC3CCCC3)nc(N3CCc4ccccc4C3)n2)cc1

>  <score_type>  (47) 
oracle

>  <origin>  (47) 
autodockgpu

>  <m_score__min__energy>  (47) 
-10.24

>  <m_primary>  (47) 
energy

>  <rmsd>  (47) 
9.71120741485794

>  <m_score__min__rmsd>  (47) 
9.71120741485794

>  <meeko>  (47) 
{"free_energy": -9.26, "intermolecular_energy": -11.65, "internal_energy": -1.2, "cluster_size": 39, "cluster_id": 1, "rank_in_cluster": 25}

>  <energy>  (47) 
-9.1

>  <cluster_rmsd>  (47) 
0.0

>  <cluster>  (47) 
4

$$$$

     RDKit          3D

 64 68  0  0  0  0  0  0  0  0999 V2000
  140.3240   68.1530  228.2350 C   0  0  0  0  0  0  0  0  0  0  0  0
  139.8430   69.3750  228.6480 C   0  0  0  0  0  0  0  0  0  0  0  0
  140.0040   70.5190  227.8740 C   0  0  0  0  0  0  0  0  0  0  0  0
  140.6690   70.3990  226.6560 C   0  0  0  0  0  0  0  0  0  0  0  0
  140.8560   71.6200  225.8010 C   0  0  0  0  0  0  0  0  0  0  0  0
  140.6610   71.2070  224.3650 C   0  0  0  0  0  0  0  0  0  0  0  0
  139.2020   71.0890  224.0030 C   0  0  0  0  0  0  0  0  0  0  0  0
  138.8050   72.0850  223.0270 N   0  0  0  0  0  0  0  0  0  0  0  0
  139.7930   72.8770  222.3730 C   0  0  0  0  0  0  0  0  0  0  0  0
  140.9250   72.3270  221.8760 N   0  0  0  0  0  0  0  0  0  0  0  0
  141.8620   73.0860  221.2540 C   0  0  0  0  0  0  0  0  0  0  0  0
  143.0620   72.5230  220.7230 N   0  0  0  0  0  0  0  0  0  0  0  0
  143.7270   73.1510  219.5950 C   0  0  0  0  0  0  0  0  0  0  0  0
  144.4960   74.3250  220.1070 C   0  0  0  0  0  0  0  0  0  0  0  0
  143.7130   75.5200  219.6590 C   0  0  0  0  0  0  0  0  0  0  0  0
  142.9530   75.1300  218.4280 C   0  0  0  0  0  0  0  0  0  0  0  0
  142.6550   73.6820  218.6750 C   0  0  0  0  0  0  0  0  0  0  0  0
  141.6420   74.4280  221.1360 N   0  0  0  0  0  0  0  0  0  0  0  0
  140.5190   74.9950  221.6240 C   0  0  0  0  0  0  0  0  0  0  0  0
  140.2780   76.3910  221.5090 N   0  0  0  0  0  0  0  0  0  0  0  0
  138.9480   76.9700  221.5790 C   0  0  0  0  0  0  0  0  0  0  0  0
  138.8530   77.7810  222.8470 C   0  0  0  0  0  0  0  0  0  0  0  0
  140.0260   78.6840  222.8970 C   0  0  0  0  0  0  0  0  0  0  0  0
  139.9260   79.8040  223.6940 C   0  0  0  0  0  0  0  0  0  0  0  0
  140.9590   80.6950  223.8030 C   0  0  0  0  0  0  0  0  0  0  0  0
  142.1430   80.4930  223.1060 C   0  0  0  0  0  0  0  0  0  0  0  0
  142.2490   79.3650  222.3000 C   0  0  0  0  0  0  0  0  0  0  0  0
  141.1930   78.4620  222.1950 C   0  0  0  0  0  0  0  0  0  0  0  0
  141.4030   77.2890  221.3110 C   0  0  0  0  0  0  0  0  0  0  0  0
  139.6370   74.1920  222.2250 N   0  0  0  0  0  0  0  0  0  0  0  0
  141.1600   69.1720  226.2250 C   0  0  0  0  0  0  0  0  0  0  0  0
  140.9810   68.0630  227.0230 C   0  0  0  0  0  0  0  0  0  0  0  0
  140.1870   67.2596  228.8620 H   0  0  0  0  0  0  0  0  0  0  0  0
  139.3192   69.4482  229.6125 H   0  0  0  0  0  0  0  0  0  0  0  0
  139.6172   71.4910  228.2139 H   0  0  0  0  0  0  0  0  0  0  0  0
  140.1155   72.3861  226.0745 H   0  0  0  0  0  0  0  0  0  0  0  0
  141.8607   72.0431  225.9475 H   0  0  0  0  0  0  0  0  0  0  0  0
  141.1288   71.9591  223.7127 H   0  0  0  0  0  0  0  0  0  0  0  0
  141.1249   70.2188  224.2303 H   0  0  0  0  0  0  0  0  0  0  0  0
  139.0192   70.0883  223.5845 H   0  0  0  0  0  0  0  0  0  0  0  0
  138.6100   71.2512  224.9158 H   0  0  0  0  0  0  0  0  0  0  0  0
  137.8170   72.2270  222.8020 H   0  0  0  0  0  0  0  0  0  0  0  0
  143.4240   71.6600  221.1800 H   0  0  0  0  0  0  0  0  0  0  0  0
  144.3875   72.4381  219.0797 H   0  0  0  0  0  0  0  0  0  0  0  0
  144.5635   74.2952  221.2045 H   0  0  0  0  0  0  0  0  0  0  0  0
  145.5294   74.3407  219.7304 H   0  0  0  0  0  0  0  0  0  0  0  0
  143.0131   75.8275  220.4499 H   0  0  0  0  0  0  0  0  0  0  0  0
  144.3855   76.3640  219.4459 H   0  0  0  0  0  0  0  0  0  0  0  0
  142.0268   75.7154  218.3307 H   0  0  0  0  0  0  0  0  0  0  0  0
  143.5074   75.3104  217.4952 H   0  0  0  0  0  0  0  0  0  0  0  0
  141.6676   73.5768  219.1482 H   0  0  0  0  0  0  0  0  0  0  0  0
  142.6426   73.1212  217.7288 H   0  0  0  0  0  0  0  0  0  0  0  0
  138.7785   77.6199  220.7078 H   0  0  0  0  0  0  0  0  0  0  0  0
  138.1873   76.1755  221.5784 H   0  0  0  0  0  0  0  0  0  0  0  0
  137.9255   78.3724  222.8441 H   0  0  0  0  0  0  0  0  0  0  0  0
  138.8402   77.1194  223.7257 H   0  0  0  0  0  0  0  0  0  0  0  0
  138.9968   79.9854  224.2540 H   0  0  0  0  0  0  0  0  0  0  0  0
  140.8505   81.5791  224.4485 H   0  0  0  0  0  0  0  0  0  0  0  0
  142.9756   81.2070  223.1894 H   0  0  0  0  0  0  0  0  0  0  0  0
  143.1774   79.1833  221.7387 H   0  0  0  0  0  0  0  0  0  0  0  0
  141.4460   77.6124  220.2605 H   0  0  0  0  0  0  0  0  0  0  0  0
  142.3505   76.7848  221.5520 H   0  0  0  0  0  0  0  0  0  0  0  0
  141.6836   69.0876  225.2613 H   0  0  0  0  0  0  0  0  0  0  0  0
  141.3680   67.0889  226.6892 H   0  0  0  0  0  0  0  0  0  0  0  0
  1  2  2  0
  2  3  1  0
  3  4  2  0
  4  5  1  0
  5  6  1  0
  6  7  1  0
  7  8  1  0
  8  9  1  0
  9 10  2  0
 10 11  1  0
 11 12  1  0
 12 13  1  0
 13 14  1  0
 14 15  1  0
 15 16  1  0
 16 17  1  0
 11 18  2  0
 18 19  1  0
 19 20  1  0
 20 21  1  0
 21 22  1  0
 22 23  1  0
 23 24  2  0
 24 25  1  0
 25 26  2  0
 26 27  1  0
 27 28  2  0
 28 29  1  0
 19 30  2  0
  4 31  1  0
 31 32  2  0
 32  1  1  0
 30  9  1  0
 17 13  1  0
 29 20  1  0
 28 23  1  0
  1 33  1  0
  2 34  1  0
  3 35  1  0
  5 36  1  0
  5 37  1  0
  6 38  1  0
  6 39  1  0
  7 40  1  0
  7 41  1  0
  8 42  1  0
 12 43  1  0
 13 44  1  0
 14 45  1  0
 14 46  1  0
 15 47  1  0
 15 48  1  0
 16 49  1  0
 16 50  1  0
 17 51  1  0
 17 52  1  0
 21 53  1  0
 21 54  1  0
 22 55  1  0
 22 56  1  0
 24 57  1  0
 25 58  1  0
 26 59  1  0
 27 60  1  0
 29 61  1  0
 29 62  1  0
 31 63  1  0
 32 64  1  0
M  END
>  <smiles>  (48) 
c1ccc(CCCNc2nc(NC3CCCC3)nc(N3CCc4ccccc4C3)n2)cc1

>  <score_type>  (48) 
oracle

>  <origin>  (48) 
autodockgpu

>  <m_score__min__energy>  (48) 
-10.24

>  <m_primary>  (48) 
energy

>  <rmsd>  (48) 
2.4644404244684472

>  <m_score__min__rmsd>  (48) 
2.4644404244684472

>  <meeko>  (48) 
{"free_energy": -9.41, "intermolecular_energy": -11.8, "internal_energy": -1.04, "cluster_size": 39, "cluster_id": 1, "rank_in_cluster": 20}

>  <energy>  (48) 
-8.4

>  <cluster_rmsd>  (48) 
0.0

>  <cluster>  (48) 
5

$$$$

     RDKit          3D

 64 68  0  0  0  0  0  0  0  0999 V2000
  140.7930   71.7910  228.3380 C   0  0  0  0  0  0  0  0  0  0  0  0
  141.4020   72.2770  227.2030 C   0  0  0  0  0  0  0  0  0  0  0  0
  141.2580   71.6430  225.9720 C   0  0  0  0  0  0  0  0  0  0  0  0
  140.4750   70.4940  225.9150 C   0  0  0  0  0  0  0  0  0  0  0  0
  140.3040   69.7910  224.5980 C   0  0  0  0  0  0  0  0  0  0  0  0
  138.8510   69.8920  224.2110 C   0  0  0  0  0  0  0  0  0  0  0  0
  138.4350   71.3170  223.9450 C   0  0  0  0  0  0  0  0  0  0  0  0
  138.5640   71.6650  222.5440 N   0  0  0  0  0  0  0  0  0  0  0  0
  139.6510   72.4760  222.1070 C   0  0  0  0  0  0  0  0  0  0  0  0
  140.8640   71.9450  221.8290 N   0  0  0  0  0  0  0  0  0  0  0  0
  141.8960   72.7210  221.4140 C   0  0  0  0  0  0  0  0  0  0  0  0
  143.1810   72.1770  221.1170 N   0  0  0  0  0  0  0  0  0  0  0  0
  143.9500   72.6890  219.9960 C   0  0  0  0  0  0  0  0  0  0  0  0
  144.7560   73.8510  220.4810 C   0  0  0  0  0  0  0  0  0  0  0  0
  144.0740   75.0540  219.9070 C   0  0  0  0  0  0  0  0  0  0  0  0
  143.3680   74.6250  218.6560 C   0  0  0  0  0  0  0  0  0  0  0  0
  142.9700   73.2150  218.9760 C   0  0  0  0  0  0  0  0  0  0  0  0
  141.6880   74.0640  221.2770 N   0  0  0  0  0  0  0  0  0  0  0  0
  140.4860   74.6130  221.5490 C   0  0  0  0  0  0  0  0  0  0  0  0
  140.2560   76.0090  221.4110 N   0  0  0  0  0  0  0  0  0  0  0  0
  138.9300   76.5980  221.4530 C   0  0  0  0  0  0  0  0  0  0  0  0
  138.8200   77.4250  222.7080 C   0  0  0  0  0  0  0  0  0  0  0  0
  139.9980   78.3210  222.7670 C   0  0  0  0  0  0  0  0  0  0  0  0
  139.8930   79.4520  223.5480 C   0  0  0  0  0  0  0  0  0  0  0  0
  140.9310   80.3370  223.6630 C   0  0  0  0  0  0  0  0  0  0  0  0
  142.1250   80.1180  222.9890 C   0  0  0  0  0  0  0  0  0  0  0  0
  142.2360   78.9790  222.1990 C   0  0  0  0  0  0  0  0  0  0  0  0
  141.1750   78.0820  222.0870 C   0  0  0  0  0  0  0  0  0  0  0  0
  141.3910   76.8970  221.2210 C   0  0  0  0  0  0  0  0  0  0  0  0
  139.5130   73.7930  221.9540 N   0  0  0  0  0  0  0  0  0  0  0  0
  139.8540   69.9910  227.0520 C   0  0  0  0  0  0  0  0  0  0  0  0
  140.0220   70.6480  228.2510 C   0  0  0  0  0  0  0  0  0  0  0  0
  140.9187   72.3062  229.3017 H   0  0  0  0  0  0  0  0  0  0  0  0
  142.0163   73.1870  227.2703 H   0  0  0  0  0  0  0  0  0  0  0  0
  141.7488   72.0388  225.0706 H   0  0  0  0  0  0  0  0  0  0  0  0
  140.9302   70.2722  223.8322 H   0  0  0  0  0  0  0  0  0  0  0  0
  140.6087   68.7373  224.6809 H   0  0  0  0  0  0  0  0  0  0  0  0
  138.6837   69.2974  223.3008 H   0  0  0  0  0  0  0  0  0  0  0  0
  138.2488   69.5132  225.0499 H   0  0  0  0  0  0  0  0  0  0  0  0
  137.3850   71.4434  224.2476 H   0  0  0  0  0  0  0  0  0  0  0  0
  139.0966   71.9789  224.5230 H   0  0  0  0  0  0  0  0  0  0  0  0
  137.8780   71.3340  221.8600 H   0  0  0  0  0  0  0  0  0  0  0  0
  143.5280   71.4130  221.7340 H   0  0  0  0  0  0  0  0  0  0  0  0
  144.5967   71.9072  219.5711 H   0  0  0  0  0  0  0  0  0  0  0  0
  144.7545   73.8921  221.5802 H   0  0  0  0  0  0  0  0  0  0  0  0
  145.8097   73.7837  220.1726 H   0  0  0  0  0  0  0  0  0  0  0  0
  143.3467   75.4526  220.6296 H   0  0  0  0  0  0  0  0  0  0  0  0
  144.8077   75.8426  219.6838 H   0  0  0  0  0  0  0  0  0  0  0  0
  142.4859   75.2529  218.4620 H   0  0  0  0  0  0  0  0  0  0  0  0
  143.9873   74.7115  217.7510 H   0  0  0  0  0  0  0  0  0  0  0  0
  141.9509   73.1968  219.3897 H   0  0  0  0  0  0  0  0  0  0  0  0
  142.9826   72.5929  218.0689 H   0  0  0  0  0  0  0  0  0  0  0  0
  138.7790   77.2380  220.5712 H   0  0  0  0  0  0  0  0  0  0  0  0
  138.1640   75.8085  221.4506 H   0  0  0  0  0  0  0  0  0  0  0  0
  137.8968   78.0225  222.6822 H   0  0  0  0  0  0  0  0  0  0  0  0
  138.7885   76.7743  223.5943 H   0  0  0  0  0  0  0  0  0  0  0  0
  138.9559   79.6474  224.0899 H   0  0  0  0  0  0  0  0  0  0  0  0
  140.8181   81.2300  224.2953 H   0  0  0  0  0  0  0  0  0  0  0  0
  142.9613   80.8270  223.0776 H   0  0  0  0  0  0  0  0  0  0  0  0
  143.1724   78.7835  221.6559 H   0  0  0  0  0  0  0  0  0  0  0  0
  141.4538   77.2073  220.1675 H   0  0  0  0  0  0  0  0  0  0  0  0
  142.3306   76.3891  221.4839 H   0  0  0  0  0  0  0  0  0  0  0  0
  139.2375   69.0818  226.9953 H   0  0  0  0  0  0  0  0  0  0  0  0
  139.5336   70.2556  229.1552 H   0  0  0  0  0  0  0  0  0  0  0  0
  1  2  2  0
  2  3  1  0
  3  4  2  0
  4  5  1  0
  5  6  1  0
  6  7  1  0
  7  8  1  0
  8  9  1  0
  9 10  2  0
 10 11  1  0
 11 12  1  0
 12 13  1  0
 13 14  1  0
 14 15  1  0
 15 16  1  0
 16 17  1  0
 11 18  2  0
 18 19  1  0
 19 20  1  0
 20 21  1  0
 21 22  1  0
 22 23  1  0
 23 24  2  0
 24 25  1  0
 25 26  2  0
 26 27  1  0
 27 28  2  0
 28 29  1  0
 19 30  2  0
  4 31  1  0
 31 32  2  0
 32  1  1  0
 30  9  1  0
 17 13  1  0
 29 20  1  0
 28 23  1  0
  1 33  1  0
  2 34  1  0
  3 35  1  0
  5 36  1  0
  5 37  1  0
  6 38  1  0
  6 39  1  0
  7 40  1  0
  7 41  1  0
  8 42  1  0
 12 43  1  0
 13 44  1  0
 14 45  1  0
 14 46  1  0
 15 47  1  0
 15 48  1  0
 16 49  1  0
 16 50  1  0
 17 51  1  0
 17 52  1  0
 21 53  1  0
 21 54  1  0
 22 55  1  0
 22 56  1  0
 24 57  1  0
 25 58  1  0
 26 59  1  0
 27 60  1  0
 29 61  1  0
 29 62  1  0
 31 63  1  0
 32 64  1  0
M  END
>  <smiles>  (49) 
c1ccc(CCCNc2nc(NC3CCCC3)nc(N3CCc4ccccc4C3)n2)cc1

>  <score_type>  (49) 
oracle

>  <origin>  (49) 
autodockgpu

>  <m_score__min__energy>  (49) 
-10.24

>  <m_primary>  (49) 
energy

>  <rmsd>  (49) 
2.3041836340365105

>  <m_score__min__rmsd>  (49) 
2.3041836340365105

>  <meeko>  (49) 
{"free_energy": -8.86, "intermolecular_energy": -11.25, "internal_energy": -1.55, "cluster_size": 39, "cluster_id": 1, "rank_in_cluster": 37}

>  <energy>  (49) 
-8.04

>  <cluster_rmsd>  (49) 
0.0

>  <cluster>  (49) 
6

$$$$

     RDKit          3D

 64 68  0  0  0  0  0  0  0  0999 V2000
  140.8410   69.1380  228.3520 C   0  0  0  0  0  0  0  0  0  0  0  0
  140.9180   70.5090  228.2650 C   0  0  0  0  0  0  0  0  0  0  0  0
  140.7170   71.1740  227.0590 C   0  0  0  0  0  0  0  0  0  0  0  0
  140.4320   70.4110  225.9300 C   0  0  0  0  0  0  0  0  0  0  0  0
  140.2120   71.1040  224.6160 C   0  0  0  0  0  0  0  0  0  0  0  0
  139.5860   70.1090  223.6730 C   0  0  0  0  0  0  0  0  0  0  0  0
  138.6450   70.7690  222.6970 C   0  0  0  0  0  0  0  0  0  0  0  0
  138.6350   72.2110  222.8470 N   0  0  0  0  0  0  0  0  0  0  0  0
  139.6770   72.9950  222.2730 C   0  0  0  0  0  0  0  0  0  0  0  0
  140.8230   72.4310  221.8230 N   0  0  0  0  0  0  0  0  0  0  0  0
  141.8120   73.1820  221.2780 C   0  0  0  0  0  0  0  0  0  0  0  0
  143.0250   72.6030  220.7990 N   0  0  0  0  0  0  0  0  0  0  0  0
  143.7170   73.1900  219.6650 C   0  0  0  0  0  0  0  0  0  0  0  0
  144.4910   74.3710  220.1570 C   0  0  0  0  0  0  0  0  0  0  0  0
  143.7290   75.5600  219.6600 C   0  0  0  0  0  0  0  0  0  0  0  0
  142.9870   75.1430  218.4270 C   0  0  0  0  0  0  0  0  0  0  0  0
  142.6680   73.7060  218.7110 C   0  0  0  0  0  0  0  0  0  0  0  0
  141.6310   74.5320  221.1860 N   0  0  0  0  0  0  0  0  0  0  0  0
  140.4960   75.1130  221.6280 C   0  0  0  0  0  0  0  0  0  0  0  0
  140.2960   76.5180  221.5400 N   0  0  0  0  0  0  0  0  0  0  0  0
  138.9910   77.1390  221.6840 C   0  0  0  0  0  0  0  0  0  0  0  0
  138.9870   77.9370  222.9640 C   0  0  0  0  0  0  0  0  0  0  0  0
  140.1910   78.8010  222.9640 C   0  0  0  0  0  0  0  0  0  0  0  0
  140.1690   79.9130  223.7770 C   0  0  0  0  0  0  0  0  0  0  0  0
  141.2350   80.7690  223.8430 C   0  0  0  0  0  0  0  0  0  0  0  0
  142.3750   80.5370  223.0840 C   0  0  0  0  0  0  0  0  0  0  0  0
  142.4020   79.4160  222.2620 C   0  0  0  0  0  0  0  0  0  0  0  0
  141.3120   78.5490  222.2010 C   0  0  0  0  0  0  0  0  0  0  0  0
  141.4390   77.3820  221.2940 C   0  0  0  0  0  0  0  0  0  0  0  0
  139.5620   74.3180  222.1550 N   0  0  0  0  0  0  0  0  0  0  0  0
  140.3520   69.0250  226.0020 C   0  0  0  0  0  0  0  0  0  0  0  0
  140.5580   68.4060  227.2160 C   0  0  0  0  0  0  0  0  0  0  0  0
  141.0029   68.6313  229.3148 H   0  0  0  0  0  0  0  0  0  0  0  0
  141.1436   71.0930  229.1695 H   0  0  0  0  0  0  0  0  0  0  0  0
  140.7814   72.2705  226.9997 H   0  0  0  0  0  0  0  0  0  0  0  0
  139.5399   71.9639  224.7537 H   0  0  0  0  0  0  0  0  0  0  0  0
  141.1657   71.4725  224.2101 H   0  0  0  0  0  0  0  0  0  0  0  0
  140.3840   69.6030  223.1098 H   0  0  0  0  0  0  0  0  0  0  0  0
  139.0054   69.3923  224.2724 H   0  0  0  0  0  0  0  0  0  0  0  0
  138.9620   70.5201  221.6735 H   0  0  0  0  0  0  0  0  0  0  0  0
  137.6292   70.3981  222.8986 H   0  0  0  0  0  0  0  0  0  0  0  0
  137.8840   72.6750  223.3650 H   0  0  0  0  0  0  0  0  0  0  0  0
  143.3770   71.7590  221.2970 H   0  0  0  0  0  0  0  0  0  0  0  0
  144.3778   72.4548  219.1825 H   0  0  0  0  0  0  0  0  0  0  0  0
  144.5388   74.3728  221.2560 H   0  0  0  0  0  0  0  0  0  0  0  0
  145.5312   74.3647  219.7993 H   0  0  0  0  0  0  0  0  0  0  0  0
  143.0183   75.8975  220.4287 H   0  0  0  0  0  0  0  0  0  0  0  0
  144.4146   76.3901  219.4347 H   0  0  0  0  0  0  0  0  0  0  0  0
  142.0695   75.7355  218.2957 H   0  0  0  0  0  0  0  0  0  0  0  0
  143.5599   75.2901  217.4995 H   0  0  0  0  0  0  0  0  0  0  0  0
  141.6712   73.6258  219.1692 H   0  0  0  0  0  0  0  0  0  0  0  0
  142.6660   73.1179  217.7814 H   0  0  0  0  0  0  0  0  0  0  0  0
  138.7992   77.8048  220.8296 H   0  0  0  0  0  0  0  0  0  0  0  0
  138.2055   76.3696  221.7137 H   0  0  0  0  0  0  0  0  0  0  0  0
  138.0807   78.5584  223.0146 H   0  0  0  0  0  0  0  0  0  0  0  0
  138.9965   77.2653  223.8351 H   0  0  0  0  0  0  0  0  0  0  0  0
  139.2760   80.1172  224.3859 H   0  0  0  0  0  0  0  0  0  0  0  0
  141.1885   81.6480  224.5027 H   0  0  0  0  0  0  0  0  0  0  0  0
  143.2341   81.2224  223.1320 H   0  0  0  0  0  0  0  0  0  0  0  0
  143.2943   79.2107  221.6523 H   0  0  0  0  0  0  0  0  0  0  0  0
  141.4389   77.7175  220.2464 H   0  0  0  0  0  0  0  0  0  0  0  0
  142.3808   76.8448  221.4795 H   0  0  0  0  0  0  0  0  0  0  0  0
  140.1277   68.4313  225.1036 H   0  0  0  0  0  0  0  0  0  0  0  0
  140.4959   67.3097  227.2811 H   0  0  0  0  0  0  0  0  0  0  0  0
  1  2  2  0
  2  3  1  0
  3  4  2  0
  4  5  1  0
  5  6  1  0
  6  7  1  0
  7  8  1  0
  8  9  1  0
  9 10  2  0
 10 11  1  0
 11 12  1  0
 12 13  1  0
 13 14  1  0
 14 15  1  0
 15 16  1  0
 16 17  1  0
 11 18  2  0
 18 19  1  0
 19 20  1  0
 20 21  1  0
 21 22  1  0
 22 23  1  0
 23 24  2  0
 24 25  1  0
 25 26  2  0
 26 27  1  0
 27 28  2  0
 28 29  1  0
 19 30  2  0
  4 31  1  0
 31 32  2  0
 32  1  1  0
 30  9  1  0
 17 13  1  0
 29 20  1  0
 28 23  1  0
  1 33  1  0
  2 34  1  0
  3 35  1  0
  5 36  1  0
  5 37  1  0
  6 38  1  0
  6 39  1  0
  7 40  1  0
  7 41  1  0
  8 42  1  0
 12 43  1  0
 13 44  1  0
 14 45  1  0
 14 46  1  0
 15 47  1  0
 15 48  1  0
 16 49  1  0
 16 50  1  0
 17 51  1  0
 17 52  1  0
 21 53  1  0
 21 54  1  0
 22 55  1  0
 22 56  1  0
 24 57  1  0
 25 58  1  0
 26 59  1  0
 27 60  1  0
 29 61  1  0
 29 62  1  0
 31 63  1  0
 32 64  1  0
M  END
>  <smiles>  (50) 
c1ccc(CCCNc2nc(NC3CCCC3)nc(N3CCc4ccccc4C3)n2)cc1

>  <score_type>  (50) 
oracle

>  <origin>  (50) 
autodockgpu

>  <m_score__min__energy>  (50) 
-10.24

>  <m_primary>  (50) 
energy

>  <rmsd>  (50) 
1.6187729408076983

>  <m_score__min__rmsd>  (50) 
1.6187729408076983

>  <meeko>  (50) 
{"free_energy": -9.61, "intermolecular_energy": -11.99, "internal_energy": -1.18, "cluster_size": 39, "cluster_id": 1, "rank_in_cluster": 14}

>  <energy>  (50) 
-8.01

>  <cluster_rmsd>  (50) 
1.19

>  <cluster>  (50) 
6

$$$$
