
     RDKit          3D

 59 62  0  0  0  0  0  0  0  0999 V2000
  139.9940   74.2460  222.3390 O   0  0  0  0  0  0  0  0  0  0  0  0
  140.4190   75.1880  221.5900 C   0  0  0  0  0  0  0  0  0  0  0  0
  140.9540   74.8930  220.2970 N   0  0  0  0  0  0  0  0  0  0  0  0
  140.9660   73.4740  219.9300 C   0  0  0  0  0  0  0  0  0  0  0  0
  142.0860   72.7650  220.5920 C   0  0  0  0  0  0  0  0  0  0  0  0
  141.9040   71.9200  221.5210 O   0  0  0  0  0  0  0  0  0  0  0  0
  143.4020   73.0690  220.1430 N   0  0  0  0  0  0  0  0  0  0  0  0
  144.0980   72.2920  219.1380 C   0  0  0  0  0  0  0  0  0  0  0  0
  145.4720   71.8700  219.5780 C   0  0  0  0  0  0  0  0  0  0  0  0
  145.9730   72.6730  220.7570 C   0  0  0  0  0  0  0  0  0  0  0  0
  145.5880   74.1110  220.4810 C   0  0  0  0  0  0  0  0  0  0  0  0
  144.0960   74.2090  220.7080 C   0  0  1  0  0  0  0  0  0  0  0  0
  143.6310   75.5100  220.0930 C   0  0  0  0  0  0  0  0  0  0  0  0
  143.2430   75.1940  218.7350 N   0  0  0  0  0  0  0  0  0  0  0  0
  143.2900   76.3320  217.8420 C   0  0  0  0  0  0  0  0  0  0  0  0
  142.2460   77.2940  218.2770 C   0  0  0  0  0  0  0  0  0  0  0  0
  142.5600   78.4680  218.9680 C   0  0  0  0  0  0  0  0  0  0  0  0
  141.5900   79.3590  219.3690 C   0  0  0  0  0  0  0  0  0  0  0  0
  140.2660   79.0930  219.0870 C   0  0  0  0  0  0  0  0  0  0  0  0
  139.9090   77.9420  218.4050 C   0  0  0  0  0  0  0  0  0  0  0  0
  140.9090   77.0760  218.0200 C   0  0  0  0  0  0  0  0  0  0  0  0
  140.3570   76.5780  222.0640 C   0  0  0  0  0  0  0  0  0  0  0  0
  139.1460   77.1280  222.3830 C   0  0  0  0  0  0  0  0  0  0  0  0
  138.9740   78.4200  222.8370 C   0  0  0  0  0  0  0  0  0  0  0  0
  140.1250   79.1810  222.9660 C   0  0  0  0  0  0  0  0  0  0  0  0
  139.9990   80.4820  223.4180 C   0  0  0  0  0  0  0  0  0  0  0  0
  141.1430   81.2680  223.5560 C   0  0  0  0  0  0  0  0  0  0  0  0
  142.3740   80.7210  223.2360 C   0  0  0  0  0  0  0  0  0  0  0  0
  142.4800   79.4060  222.7830 C   0  0  0  0  0  0  0  0  0  0  0  0
  141.3390   78.6120  222.6410 C   0  0  0  0  0  0  0  0  0  0  0  0
  141.4500   77.3450  222.2030 N   0  0  0  0  0  0  0  0  0  0  0  0
  141.3090   75.6390  219.6600 H   0  0  0  0  0  0  0  0  0  0  0  0
  140.0158   73.0141  220.2394 H   0  0  0  0  0  0  0  0  0  0  0  0
  141.0952   73.3943  218.8405 H   0  0  0  0  0  0  0  0  0  0  0  0
  143.5068   71.3908  218.9184 H   0  0  0  0  0  0  0  0  0  0  0  0
  144.2154   72.9289  218.2488 H   0  0  0  0  0  0  0  0  0  0  0  0
  145.4410   70.8077  219.8620 H   0  0  0  0  0  0  0  0  0  0  0  0
  146.1606   72.0434  218.7379 H   0  0  0  0  0  0  0  0  0  0  0  0
  145.4995   72.3228  221.6861 H   0  0  0  0  0  0  0  0  0  0  0  0
  147.0605   72.5656  220.8828 H   0  0  0  0  0  0  0  0  0  0  0  0
  146.1215   74.7853  221.1670 H   0  0  0  0  0  0  0  0  0  0  0  0
  145.8535   74.4031  219.4543 H   0  0  0  0  0  0  0  0  0  0  0  0
  143.8684   74.1989  221.7841 H   0  0  0  0  0  0  0  0  0  0  0  0
  142.7729   75.9116  220.6519 H   0  0  0  0  0  0  0  0  0  0  0  0
  144.4230   76.2729  220.1182 H   0  0  0  0  0  0  0  0  0  0  0  0
  143.7090   74.3620  218.3590 H   0  0  0  0  0  0  0  0  0  0  0  0
  144.2809   76.8069  217.8929 H   0  0  0  0  0  0  0  0  0  0  0  0
  143.1107   76.0137  216.8044 H   0  0  0  0  0  0  0  0  0  0  0  0
  143.6133   78.6864  219.1982 H   0  0  0  0  0  0  0  0  0  0  0  0
  141.8684   80.2755  219.9098 H   0  0  0  0  0  0  0  0  0  0  0  0
  139.4874   79.8012  219.4066 H   0  0  0  0  0  0  0  0  0  0  0  0
  138.8551   77.7249  218.1767 H   0  0  0  0  0  0  0  0  0  0  0  0
  140.6255   76.1615  217.4785 H   0  0  0  0  0  0  0  0  0  0  0  0
  138.2504   76.4994  222.2703 H   0  0  0  0  0  0  0  0  0  0  0  0
  137.9802   78.8226  223.0824 H   0  0  0  0  0  0  0  0  0  0  0  0
  139.0087   80.8919  223.6656 H   0  0  0  0  0  0  0  0  0  0  0  0
  141.0684   82.3057  223.9133 H   0  0  0  0  0  0  0  0  0  0  0  0
  143.2822   81.3327  223.3406 H   0  0  0  0  0  0  0  0  0  0  0  0
  143.4684   78.9913  222.5359 H   0  0  0  0  0  0  0  0  0  0  0  0
  1  2  2  0
  2  3  1  0
  3  4  1  0
  4  5  1  0
  5  6  2  0
  5  7  1  0
  7  8  1  0
  8  9  1  0
  9 10  1  0
 10 11  1  0
 11 12  1  0
 12 13  1  0
 13 14  1  0
 14 15  1  0
 15 16  1  0
 16 17  2  0
 17 18  1  0
 18 19  2  0
 19 20  1  0
 20 21  2  0
  2 22  1  0
 22 23  2  0
 23 24  1  0
 24 25  2  0
 25 26  1  0
 26 27  2  0
 27 28  1  0
 28 29  2  0
 29 30  1  0
 30 31  2  0
 12  7  1  0
 21 16  1  0
 31 22  1  0
 30 25  1  0
  3 32  1  0
  4 33  1  0
  4 34  1  0
  8 35  1  0
  8 36  1  0
  9 37  1  0
  9 38  1  0
 10 39  1  0
 10 40  1  0
 11 41  1  0
 11 42  1  0
 12 43  1  1
 13 44  1  0
 13 45  1  0
 14 46  1  0
 15 47  1  0
 15 48  1  0
 17 49  1  0
 18 50  1  0
 19 51  1  0
 20 52  1  0
 21 53  1  0
 23 54  1  0
 24 55  1  0
 26 56  1  0
 27 57  1  0
 28 58  1  0
 29 59  1  0
M  END
>  <smiles>  (1) 
O=C(NCC(=O)N1CCCC[C@H]1CNCc1ccccc1)c1ccc2ccccc2n1

>  <score_type>  (1) 
oracle

>  <origin>  (1) 
autodockgpu

>  <m_score__min__energy>  (1) 
-9.9600000000000009

>  <m_primary>  (1) 
energy

>  <rmsd>  (1) 
7.002745325189081

>  <m_score__min__rmsd>  (1) 
7.002745325189081

>  <meeko>  (1) 
{"free_energy": -6.6, "intermolecular_energy": -8.99, "internal_energy": -3.7, "cluster_size": 4, "cluster_id": 6, "rank_in_cluster": 3}

>  <energy>  (1) 
-9.96

>  <cluster_rmsd>  (1) 
0.0

>  <cluster>  (1) 
1

$$$$

     RDKit          3D

 59 62  0  0  0  0  0  0  0  0999 V2000
  137.0570   76.2040  223.1150 O   0  0  0  0  0  0  0  0  0  0  0  0
  138.1040   75.9530  222.4300 C   0  0  0  0  0  0  0  0  0  0  0  0
  138.2070   74.7300  221.6970 N   0  0  0  0  0  0  0  0  0  0  0  0
  137.0510   73.8340  221.8010 C   0  0  0  0  0  0  0  0  0  0  0  0
  137.3770   72.6410  222.6170 C   0  0  0  0  0  0  0  0  0  0  0  0
  136.5990   72.1960  223.5150 O   0  0  0  0  0  0  0  0  0  0  0  0
  138.6180   71.9960  222.3540 N   0  0  0  0  0  0  0  0  0  0  0  0
  139.9040   72.6070  222.6220 C   0  0  0  0  0  0  0  0  0  0  0  0
  140.8260   72.5660  221.4350 C   0  0  0  0  0  0  0  0  0  0  0  0
  140.3840   71.5620  220.3950 C   0  0  0  0  0  0  0  0  0  0  0  0
  139.9490   70.3290  221.1580 C   0  0  0  0  0  0  0  0  0  0  0  0
  138.6160   70.6610  221.7900 C   0  0  1  0  0  0  0  0  0  0  0  0
  138.3390   69.6090  222.8390 C   0  0  0  0  0  0  0  0  0  0  0  0
  138.7110   70.2010  224.1070 N   0  0  0  0  0  0  0  0  0  0  0  0
  140.0970   69.9860  224.4600 C   0  0  0  0  0  0  0  0  0  0  0  0
  140.3240   70.5890  225.7970 C   0  0  0  0  0  0  0  0  0  0  0  0
  141.0690   71.7600  225.9670 C   0  0  0  0  0  0  0  0  0  0  0  0
  141.2780   72.3180  227.2090 C   0  0  0  0  0  0  0  0  0  0  0  0
  140.7400   71.7100  228.3240 C   0  0  0  0  0  0  0  0  0  0  0  0
  139.9950   70.5490  228.2040 C   0  0  0  0  0  0  0  0  0  0  0  0
  139.8080   70.0220  226.9440 C   0  0  0  0  0  0  0  0  0  0  0  0
  139.2040   76.9280  222.3990 C   0  0  0  0  0  0  0  0  0  0  0  0
  140.3400   76.6380  221.6950 C   0  0  0  0  0  0  0  0  0  0  0  0
  141.4310   77.4790  221.5990 C   0  0  0  0  0  0  0  0  0  0  0  0
  141.3330   78.6870  222.2720 C   0  0  0  0  0  0  0  0  0  0  0  0
  142.4030   79.5600  222.2040 C   0  0  0  0  0  0  0  0  0  0  0  0
  142.3290   80.7810  222.8720 C   0  0  0  0  0  0  0  0  0  0  0  0
  141.1820   81.0840  223.5880 C   0  0  0  0  0  0  0  0  0  0  0  0
  140.1140   80.1890  223.6450 C   0  0  0  0  0  0  0  0  0  0  0  0
  140.1800   78.9640  222.9780 C   0  0  0  0  0  0  0  0  0  0  0  0
  139.1450   78.1070  223.0380 N   0  0  0  0  0  0  0  0  0  0  0  0
  139.0480   74.4930  221.1270 H   0  0  0  0  0  0  0  0  0  0  0  0
  136.2172   74.3753  222.2720 H   0  0  0  0  0  0  0  0  0  0  0  0
  136.7721   73.5021  220.7900 H   0  0  0  0  0  0  0  0  0  0  0  0
  139.7420   73.6575  222.9054 H   0  0  0  0  0  0  0  0  0  0  0  0
  140.3805   72.0353  223.4320 H   0  0  0  0  0  0  0  0  0  0  0  0
  140.8520   73.5642  220.9735 H   0  0  0  0  0  0  0  0  0  0  0  0
  141.8202   72.2611  221.7936 H   0  0  0  0  0  0  0  0  0  0  0  0
  139.5443   71.9641  219.8091 H   0  0  0  0  0  0  0  0  0  0  0  0
  141.1956   71.3316  219.6892 H   0  0  0  0  0  0  0  0  0  0  0  0
  139.8419   69.4760  220.4718 H   0  0  0  0  0  0  0  0  0  0  0  0
  140.6917   70.0513  221.9204 H   0  0  0  0  0  0  0  0  0  0  0  0
  137.8189   70.6547  221.0320 H   0  0  0  0  0  0  0  0  0  0  0  0
  137.2718   69.3424  222.8403 H   0  0  0  0  0  0  0  0  0  0  0  0
  138.9057   68.6867  222.6436 H   0  0  0  0  0  0  0  0  0  0  0  0
  138.4130   71.1770  224.2050 H   0  0  0  0  0  0  0  0  0  0  0  0
  140.3113   68.9076  224.4947 H   0  0  0  0  0  0  0  0  0  0  0  0
  140.7596   70.4476  223.7131 H   0  0  0  0  0  0  0  0  0  0  0  0
  141.5012   72.2504  225.0823 H   0  0  0  0  0  0  0  0  0  0  0  0
  141.8687   73.2403  227.3106 H   0  0  0  0  0  0  0  0  0  0  0  0
  140.9043   72.1516  229.3180 H   0  0  0  0  0  0  0  0  0  0  0  0
  139.5640   70.0604  229.0903 H   0  0  0  0  0  0  0  0  0  0  0  0
  139.2157   69.1001  226.8480 H   0  0  0  0  0  0  0  0  0  0  0  0
  140.3878   75.6719  221.1711 H   0  0  0  0  0  0  0  0  0  0  0  0
  142.3266   77.2060  221.0216 H   0  0  0  0  0  0  0  0  0  0  0  0
  143.3024   79.2939  221.6293 H   0  0  0  0  0  0  0  0  0  0  0  0
  143.1671   81.4923  222.8315 H   0  0  0  0  0  0  0  0  0  0  0  0
  141.1128   82.0447  224.1193 H   0  0  0  0  0  0  0  0  0  0  0  0
  139.2130   80.4500  224.2196 H   0  0  0  0  0  0  0  0  0  0  0  0
  1  2  2  0
  2  3  1  0
  3  4  1  0
  4  5  1  0
  5  6  2  0
  5  7  1  0
  7  8  1  0
  8  9  1  0
  9 10  1  0
 10 11  1  0
 11 12  1  0
 12 13  1  0
 13 14  1  0
 14 15  1  0
 15 16  1  0
 16 17  2  0
 17 18  1  0
 18 19  2  0
 19 20  1  0
 20 21  2  0
  2 22  1  0
 22 23  2  0
 23 24  1  0
 24 25  2  0
 25 26  1  0
 26 27  2  0
 27 28  1  0
 28 29  2  0
 29 30  1  0
 30 31  2  0
 12  7  1  0
 21 16  1  0
 31 22  1  0
 30 25  1  0
  3 32  1  0
  4 33  1  0
  4 34  1  0
  8 35  1  0
  8 36  1  0
  9 37  1  0
  9 38  1  0
 10 39  1  0
 10 40  1  0
 11 41  1  0
 11 42  1  0
 12 43  1  6
 13 44  1  0
 13 45  1  0
 14 46  1  0
 15 47  1  0
 15 48  1  0
 17 49  1  0
 18 50  1  0
 19 51  1  0
 20 52  1  0
 21 53  1  0
 23 54  1  0
 24 55  1  0
 26 56  1  0
 27 57  1  0
 28 58  1  0
 29 59  1  0
M  END
>  <smiles>  (2) 
O=C(NCC(=O)N1CCCC[C@H]1CNCc1ccccc1)c1ccc2ccccc2n1

>  <score_type>  (2) 
oracle

>  <origin>  (2) 
autodockgpu

>  <m_score__min__energy>  (2) 
-9.9600000000000009

>  <m_primary>  (2) 
energy

>  <rmsd>  (2) 
8.981868059847391

>  <m_score__min__rmsd>  (2) 
8.981868059847391

>  <meeko>  (2) 
{"free_energy": -7.59, "intermolecular_energy": -9.98, "internal_energy": -2.49, "cluster_size": 7, "cluster_id": 4, "rank_in_cluster": 7}

>  <energy>  (2) 
-9.48

>  <cluster_rmsd>  (2) 
0.95

>  <cluster>  (2) 
1

$$$$

     RDKit          3D

 59 62  0  0  0  0  0  0  0  0999 V2000
  138.4550   72.3840  222.1600 O   0  0  0  0  0  0  0  0  0  0  0  0
  139.5880   72.2310  222.7290 C   0  0  0  0  0  0  0  0  0  0  0  0
  140.7130   73.0080  222.3110 N   0  0  0  0  0  0  0  0  0  0  0  0
  140.4540   73.9540  221.2210 C   0  0  0  0  0  0  0  0  0  0  0  0
  140.9820   73.4380  219.9360 C   0  0  0  0  0  0  0  0  0  0  0  0
  140.2510   72.8370  219.0910 O   0  0  0  0  0  0  0  0  0  0  0  0
  142.3660   73.6430  219.6750 N   0  0  0  0  0  0  0  0  0  0  0  0
  143.2150   72.6440  219.0570 C   0  0  0  0  0  0  0  0  0  0  0  0
  144.4720   72.3860  219.8400 C   0  0  0  0  0  0  0  0  0  0  0  0
  144.7680   73.4830  220.8370 C   0  0  0  0  0  0  0  0  0  0  0  0
  144.4790   74.7880  220.1260 C   0  0  0  0  0  0  0  0  0  0  0  0
  142.9750   74.9080  220.0370 C   0  0  1  0  0  0  0  0  0  0  0  0
  142.6670   75.9890  219.0260 C   0  0  0  0  0  0  0  0  0  0  0  0
  142.5130   77.2120  219.7840 N   0  0  0  0  0  0  0  0  0  0  0  0
  141.4030   77.1810  220.7120 C   0  0  0  0  0  0  0  0  0  0  0  0
  141.6020   78.2750  221.6960 C   0  0  0  0  0  0  0  0  0  0  0  0
  141.4440   78.0750  223.0710 C   0  0  0  0  0  0  0  0  0  0  0  0
  141.6300   79.0920  223.9810 C   0  0  0  0  0  0  0  0  0  0  0  0
  141.9830   80.3470  223.5330 C   0  0  0  0  0  0  0  0  0  0  0  0
  142.1510   80.5910  222.1800 C   0  0  0  0  0  0  0  0  0  0  0  0
  141.9560   79.5480  221.3000 C   0  0  0  0  0  0  0  0  0  0  0  0
  139.7300   71.2500  223.8140 C   0  0  0  0  0  0  0  0  0  0  0  0
  139.2550   69.9790  223.6390 C   0  0  0  0  0  0  0  0  0  0  0  0
  139.3360   68.9810  224.5900 C   0  0  0  0  0  0  0  0  0  0  0  0
  139.9450   69.3250  225.7860 C   0  0  0  0  0  0  0  0  0  0  0  0
  140.0470   68.3550  226.7680 C   0  0  0  0  0  0  0  0  0  0  0  0
  140.6550   68.6760  227.9810 C   0  0  0  0  0  0  0  0  0  0  0  0
  141.1400   69.9610  228.1670 C   0  0  0  0  0  0  0  0  0  0  0  0
  141.0260   70.9240  227.1650 C   0  0  0  0  0  0  0  0  0  0  0  0
  140.4180   70.6110  225.9470 C   0  0  0  0  0  0  0  0  0  0  0  0
  140.3140   71.5460  224.9860 N   0  0  0  0  0  0  0  0  0  0  0  0
  141.6520   72.9080  222.7540 H   0  0  0  0  0  0  0  0  0  0  0  0
  139.3688   74.1084  221.1284 H   0  0  0  0  0  0  0  0  0  0  0  0
  140.9589   74.9035  221.4524 H   0  0  0  0  0  0  0  0  0  0  0  0
  142.6507   71.7031  218.9774 H   0  0  0  0  0  0  0  0  0  0  0  0
  143.5116   73.0254  218.0688 H   0  0  0  0  0  0  0  0  0  0  0  0
  144.3605   71.4361  220.3833 H   0  0  0  0  0  0  0  0  0  0  0  0
  145.3084   72.3479  219.1266 H   0  0  0  0  0  0  0  0  0  0  0  0
  144.1221   73.3792  221.7213 H   0  0  0  0  0  0  0  0  0  0  0  0
  145.8105   73.4381  221.1852 H   0  0  0  0  0  0  0  0  0  0  0  0
  144.8938   75.6314  220.6975 H   0  0  0  0  0  0  0  0  0  0  0  0
  144.9379   74.8050  219.1265 H   0  0  0  0  0  0  0  0  0  0  0  0
  142.5521   75.1777  221.0160 H   0  0  0  0  0  0  0  0  0  0  0  0
  143.4937   76.0866  218.3070 H   0  0  0  0  0  0  0  0  0  0  0  0
  141.7596   75.7551  218.4499 H   0  0  0  0  0  0  0  0  0  0  0  0
  143.3870   77.5450  220.2060 H   0  0  0  0  0  0  0  0  0  0  0  0
  140.4580   77.3329  220.1699 H   0  0  0  0  0  0  0  0  0  0  0  0
  141.3575   76.2083  221.2236 H   0  0  0  0  0  0  0  0  0  0  0  0
  141.1630   77.0763  223.4365 H   0  0  0  0  0  0  0  0  0  0  0  0
  141.4979   78.9043  225.0568 H   0  0  0  0  0  0  0  0  0  0  0  0
  142.1326   81.1619  224.2565 H   0  0  0  0  0  0  0  0  0  0  0  0
  142.4326   81.5906  221.8173 H   0  0  0  0  0  0  0  0  0  0  0  0
  142.0897   79.7411  220.2254 H   0  0  0  0  0  0  0  0  0  0  0  0
  138.7775   69.7362  222.6782 H   0  0  0  0  0  0  0  0  0  0  0  0
  138.9398   67.9710  224.4084 H   0  0  0  0  0  0  0  0  0  0  0  0
  139.6531   67.3429  226.5936 H   0  0  0  0  0  0  0  0  0  0  0  0
  140.7482   67.9223  228.7768 H   0  0  0  0  0  0  0  0  0  0  0  0
  141.6222   70.2252  229.1197 H   0  0  0  0  0  0  0  0  0  0  0  0
  141.4178   71.9377  227.3350 H   0  0  0  0  0  0  0  0  0  0  0  0
  1  2  2  0
  2  3  1  0
  3  4  1  0
  4  5  1  0
  5  6  2  0
  5  7  1  0
  7  8  1  0
  8  9  1  0
  9 10  1  0
 10 11  1  0
 11 12  1  0
 12 13  1  0
 13 14  1  0
 14 15  1  0
 15 16  1  0
 16 17  2  0
 17 18  1  0
 18 19  2  0
 19 20  1  0
 20 21  2  0
  2 22  1  0
 22 23  2  0
 23 24  1  0
 24 25  2  0
 25 26  1  0
 26 27  2  0
 27 28  1  0
 28 29  2  0
 29 30  1  0
 30 31  2  0
 12  7  1  0
 21 16  1  0
 31 22  1  0
 30 25  1  0
  3 32  1  0
  4 33  1  0
  4 34  1  0
  8 35  1  0
  8 36  1  0
  9 37  1  0
  9 38  1  0
 10 39  1  0
 10 40  1  0
 11 41  1  0
 11 42  1  0
 12 43  1  1
 13 44  1  0
 13 45  1  0
 14 46  1  0
 15 47  1  0
 15 48  1  0
 17 49  1  0
 18 50  1  0
 19 51  1  0
 20 52  1  0
 21 53  1  0
 23 54  1  0
 24 55  1  0
 26 56  1  0
 27 57  1  0
 28 58  1  0
 29 59  1  0
M  END
>  <smiles>  (3) 
O=C(NCC(=O)N1CCCC[C@H]1CNCc1ccccc1)c1ccc2ccccc2n1

>  <score_type>  (3) 
oracle

>  <origin>  (3) 
autodockgpu

>  <m_score__min__energy>  (3) 
-9.9600000000000009

>  <m_primary>  (3) 
energy

>  <rmsd>  (3) 
3.2268616212115826

>  <m_score__min__rmsd>  (3) 
3.2268616212115826

>  <meeko>  (3) 
{"free_energy": -8.85, "intermolecular_energy": -11.23, "internal_energy": -1.68, "cluster_size": 30, "cluster_id": 1, "rank_in_cluster": 8}

>  <energy>  (3) 
-9.46

>  <cluster_rmsd>  (3) 
1.08

>  <cluster>  (3) 
1

$$$$

     RDKit          3D

 59 62  0  0  0  0  0  0  0  0999 V2000
  141.1170   71.5710  221.7120 O   0  0  0  0  0  0  0  0  0  0  0  0
  140.1820   71.8110  222.5470 C   0  0  0  0  0  0  0  0  0  0  0  0
  139.2480   72.8640  222.2960 N   0  0  0  0  0  0  0  0  0  0  0  0
  139.4550   73.6050  221.0480 C   0  0  0  0  0  0  0  0  0  0  0  0
  140.5100   74.6330  221.2120 C   0  0  0  0  0  0  0  0  0  0  0  0
  140.6640   75.2860  222.2890 O   0  0  0  0  0  0  0  0  0  0  0  0
  141.3640   74.8690  220.0980 N   0  0  0  0  0  0  0  0  0  0  0  0
  141.4360   73.9870  218.9510 C   0  0  0  0  0  0  0  0  0  0  0  0
  142.8440   73.5840  218.6150 C   0  0  0  0  0  0  0  0  0  0  0  0
  143.8730   74.4860  219.2590 C   0  0  0  0  0  0  0  0  0  0  0  0
  143.3480   75.8980  219.1070 C   0  0  0  0  0  0  0  0  0  0  0  0
  142.2120   76.0440  220.0930 C   0  0  1  0  0  0  0  0  0  0  0  0
  141.4430   77.2890  219.7130 C   0  0  0  0  0  0  0  0  0  0  0  0
  140.7510   77.7130  220.9120 N   0  0  0  0  0  0  0  0  0  0  0  0
  140.3030   79.0880  220.8640 C   0  0  0  0  0  0  0  0  0  0  0  0
  141.0410   79.8430  221.9080 C   0  0  0  0  0  0  0  0  0  0  0  0
  141.6870   79.2030  222.9700 C   0  0  0  0  0  0  0  0  0  0  0  0
  142.3710   79.9060  223.9370 C   0  0  0  0  0  0  0  0  0  0  0  0
  142.4260   81.2820  223.8640 C   0  0  0  0  0  0  0  0  0  0  0  0
  141.8000   81.9580  222.8300 C   0  0  0  0  0  0  0  0  0  0  0  0
  141.1260   81.2190  221.8820 C   0  0  0  0  0  0  0  0  0  0  0  0
  140.0720   71.0000  223.7680 C   0  0  0  0  0  0  0  0  0  0  0  0
  139.3900   69.8160  223.7300 C   0  0  0  0  0  0  0  0  0  0  0  0
  139.2260   68.9780  224.8150 C   0  0  0  0  0  0  0  0  0  0  0  0
  139.8030   69.3970  226.0040 C   0  0  0  0  0  0  0  0  0  0  0  0
  139.6630   68.5880  227.1170 C   0  0  0  0  0  0  0  0  0  0  0  0
  140.2350   68.9870  228.3240 C   0  0  0  0  0  0  0  0  0  0  0  0
  140.9290   70.1860  228.3730 C   0  0  0  0  0  0  0  0  0  0  0  0
  141.0590   70.9870  227.2380 C   0  0  0  0  0  0  0  0  0  0  0  0
  140.4880   70.5940  226.0250 C   0  0  0  0  0  0  0  0  0  0  0  0
  140.6190   71.3730  224.9360 N   0  0  0  0  0  0  0  0  0  0  0  0
  138.4720   73.0870  222.9570 H   0  0  0  0  0  0  0  0  0  0  0  0
  139.7569   72.9020  220.2576 H   0  0  0  0  0  0  0  0  0  0  0  0
  138.5144   74.1069  220.7771 H   0  0  0  0  0  0  0  0  0  0  0  0
  140.8529   73.0799  219.1678 H   0  0  0  0  0  0  0  0  0  0  0  0
  141.0323   74.5340  218.0862 H   0  0  0  0  0  0  0  0  0  0  0  0
  143.0093   72.5542  218.9645 H   0  0  0  0  0  0  0  0  0  0  0  0
  142.9639   73.6647  217.5245 H   0  0  0  0  0  0  0  0  0  0  0  0
  143.9884   74.2342  220.3236 H   0  0  0  0  0  0  0  0  0  0  0  0
  144.8597   74.3712  218.7865 H   0  0  0  0  0  0  0  0  0  0  0  0
  144.1423   76.6247  219.3326 H   0  0  0  0  0  0  0  0  0  0  0  0
  143.0074   76.0863  218.0782 H   0  0  0  0  0  0  0  0  0  0  0  0
  142.6013   76.1396  221.1174 H   0  0  0  0  0  0  0  0  0  0  0  0
  142.1328   78.0750  219.3718 H   0  0  0  0  0  0  0  0  0  0  0  0
  140.7396   77.0924  218.8904 H   0  0  0  0  0  0  0  0  0  0  0  0
  140.0240   77.0580  221.2180 H   0  0  0  0  0  0  0  0  0  0  0  0
  140.5144   79.5160  219.8730 H   0  0  0  0  0  0  0  0  0  0  0  0
  139.2191   79.1452  221.0426 H   0  0  0  0  0  0  0  0  0  0  0  0
  141.6478   78.1056  223.0352 H   0  0  0  0  0  0  0  0  0  0  0  0
  142.8694   79.3741  224.7608 H   0  0  0  0  0  0  0  0  0  0  0  0
  142.9717   81.8475  224.6336 H   0  0  0  0  0  0  0  0  0  0  0  0
  141.8397   83.0555  222.7671 H   0  0  0  0  0  0  0  0  0  0  0  0
  140.6291   81.7557  221.0604 H   0  0  0  0  0  0  0  0  0  0  0  0
  138.9426   69.5109  222.7725 H   0  0  0  0  0  0  0  0  0  0  0  0
  138.6694   68.0321  224.7403 H   0  0  0  0  0  0  0  0  0  0  0  0
  139.1070   67.6412  227.0506 H   0  0  0  0  0  0  0  0  0  0  0  0
  140.1373   68.3606  229.2229 H   0  0  0  0  0  0  0  0  0  0  0  0
  141.3838   70.5106  229.3205 H   0  0  0  0  0  0  0  0  0  0  0  0
  141.6148   71.9343  227.2987 H   0  0  0  0  0  0  0  0  0  0  0  0
  1  2  2  0
  2  3  1  0
  3  4  1  0
  4  5  1  0
  5  6  2  0
  5  7  1  0
  7  8  1  0
  8  9  1  0
  9 10  1  0
 10 11  1  0
 11 12  1  0
 12 13  1  0
 13 14  1  0
 14 15  1  0
 15 16  1  0
 16 17  2  0
 17 18  1  0
 18 19  2  0
 19 20  1  0
 20 21  2  0
  2 22  1  0
 22 23  2  0
 23 24  1  0
 24 25  2  0
 25 26  1  0
 26 27  2  0
 27 28  1  0
 28 29  2  0
 29 30  1  0
 30 31  2  0
 12  7  1  0
 21 16  1  0
 31 22  1  0
 30 25  1  0
  3 32  1  0
  4 33  1  0
  4 34  1  0
  8 35  1  0
  8 36  1  0
  9 37  1  0
  9 38  1  0
 10 39  1  0
 10 40  1  0
 11 41  1  0
 11 42  1  0
 12 43  1  1
 13 44  1  0
 13 45  1  0
 14 46  1  0
 15 47  1  0
 15 48  1  0
 17 49  1  0
 18 50  1  0
 19 51  1  0
 20 52  1  0
 21 53  1  0
 23 54  1  0
 24 55  1  0
 26 56  1  0
 27 57  1  0
 28 58  1  0
 29 59  1  0
M  END
>  <smiles>  (4) 
O=C(NCC(=O)N1CCCC[C@H]1CNCc1ccccc1)c1ccc2ccccc2n1

>  <score_type>  (4) 
oracle

>  <origin>  (4) 
autodockgpu

>  <m_score__min__energy>  (4) 
-9.9600000000000009

>  <m_primary>  (4) 
energy

>  <rmsd>  (4) 
2.412594991239814

>  <m_score__min__rmsd>  (4) 
2.412594991239814

>  <meeko>  (4) 
{"free_energy": -8.75, "intermolecular_energy": -11.14, "internal_energy": -2.2, "cluster_size": 30, "cluster_id": 1, "rank_in_cluster": 13}

>  <energy>  (4) 
-9.29

>  <cluster_rmsd>  (4) 
0.92

>  <cluster>  (4) 
1

$$$$

     RDKit          3D

 59 62  0  0  0  0  0  0  0  0999 V2000
  139.9770   71.8340  221.7230 O   0  0  0  0  0  0  0  0  0  0  0  0
  139.1820   71.8550  222.7210 C   0  0  0  0  0  0  0  0  0  0  0  0
  138.0110   72.6740  222.6900 N   0  0  0  0  0  0  0  0  0  0  0  0
  137.8180   73.4490  221.4600 C   0  0  0  0  0  0  0  0  0  0  0  0
  138.4120   74.8000  221.5880 C   0  0  0  0  0  0  0  0  0  0  0  0
  137.8710   75.7210  222.2720 O   0  0  0  0  0  0  0  0  0  0  0  0
  139.6380   75.0370  220.9030 N   0  0  0  0  0  0  0  0  0  0  0  0
  139.7540   75.0380  219.4590 C   0  0  0  0  0  0  0  0  0  0  0  0
  140.8590   74.1470  218.9640 C   0  0  0  0  0  0  0  0  0  0  0  0
  141.8420   73.7860  220.0540 C   0  0  0  0  0  0  0  0  0  0  0  0
  142.0820   75.0550  220.8420 C   0  0  0  0  0  0  0  0  0  0  0  0
  140.8400   75.2890  221.6720 C   0  0  1  0  0  0  0  0  0  0  0  0
  140.8950   76.7140  222.1750 C   0  0  0  0  0  0  0  0  0  0  0  0
  141.5630   77.4760  221.1410 N   0  0  0  0  0  0  0  0  0  0  0  0
  141.0070   78.7980  220.9490 C   0  0  0  0  0  0  0  0  0  0  0  0
  141.4850   79.6590  222.0600 C   0  0  0  0  0  0  0  0  0  0  0  0
  142.8310   79.7120  222.4320 C   0  0  0  0  0  0  0  0  0  0  0  0
  143.2720   80.5120  223.4630 C   0  0  0  0  0  0  0  0  0  0  0  0
  142.3650   81.2860  224.1550 C   0  0  0  0  0  0  0  0  0  0  0  0
  141.0210   81.2650  223.8230 C   0  0  0  0  0  0  0  0  0  0  0  0
  140.6190   80.4520  222.7840 C   0  0  0  0  0  0  0  0  0  0  0  0
  139.4770   71.0340  223.9040 C   0  0  0  0  0  0  0  0  0  0  0  0
  139.2010   69.6950  223.8810 C   0  0  0  0  0  0  0  0  0  0  0  0
  139.4380   68.8330  224.9330 C   0  0  0  0  0  0  0  0  0  0  0  0
  139.9940   69.3960  226.0710 C   0  0  0  0  0  0  0  0  0  0  0  0
  140.2480   68.5690  227.1500 C   0  0  0  0  0  0  0  0  0  0  0  0
  140.8060   69.1120  228.3070 C   0  0  0  0  0  0  0  0  0  0  0  0
  141.0900   70.4680  228.3410 C   0  0  0  0  0  0  0  0  0  0  0  0
  140.8260   71.2850  227.2410 C   0  0  0  0  0  0  0  0  0  0  0  0
  140.2670   70.7490  226.0790 C   0  0  0  0  0  0  0  0  0  0  0  0
  140.0160   71.5440  225.0240 N   0  0  0  0  0  0  0  0  0  0  0  0
  137.3390   72.7150  223.4880 H   0  0  0  0  0  0  0  0  0  0  0  0
  138.2990   72.9219  220.6229 H   0  0  0  0  0  0  0  0  0  0  0  0
  136.7385   73.5555  221.2773 H   0  0  0  0  0  0  0  0  0  0  0  0
  138.8028   74.6904  219.0295 H   0  0  0  0  0  0  0  0  0  0  0  0
  139.9910   76.0655  219.1459 H   0  0  0  0  0  0  0  0  0  0  0  0
  140.4156   73.2215  218.5679 H   0  0  0  0  0  0  0  0  0  0  0  0
  141.4089   74.6965  218.1858 H   0  0  0  0  0  0  0  0  0  0  0  0
  141.4200   73.0065  220.7054 H   0  0  0  0  0  0  0  0  0  0  0  0
  142.7790   73.3910  219.6345 H   0  0  0  0  0  0  0  0  0  0  0  0
  142.9586   74.9358  221.4957 H   0  0  0  0  0  0  0  0  0  0  0  0
  142.2787   75.9061  220.1735 H   0  0  0  0  0  0  0  0  0  0  0  0
  140.8078   74.5910  222.5216 H   0  0  0  0  0  0  0  0  0  0  0  0
  139.8785   77.1011  222.3389 H   0  0  0  0  0  0  0  0  0  0  0  0
  141.4284   76.7825  223.1346 H   0  0  0  0  0  0  0  0  0  0  0  0
  142.5850   77.4730  221.2260 H   0  0  0  0  0  0  0  0  0  0  0  0
  141.3439   79.2090  219.9859 H   0  0  0  0  0  0  0  0  0  0  0  0
  139.9079   78.7546  220.9431 H   0  0  0  0  0  0  0  0  0  0  0  0
  143.5603   79.0963  221.8851 H   0  0  0  0  0  0  0  0  0  0  0  0
  144.3384   80.5331  223.7318 H   0  0  0  0  0  0  0  0  0  0  0  0
  142.7125   81.9265  224.9790 H   0  0  0  0  0  0  0  0  0  0  0  0
  140.2936   81.8801  224.3730 H   0  0  0  0  0  0  0  0  0  0  0  0
  139.5516   80.4350  222.5186 H   0  0  0  0  0  0  0  0  0  0  0  0
  138.7610   69.2770  222.9636 H   0  0  0  0  0  0  0  0  0  0  0  0
  139.1993   67.7610  224.8716 H   0  0  0  0  0  0  0  0  0  0  0  0
  140.0127   67.4958  227.0962 H   0  0  0  0  0  0  0  0  0  0  0  0
  141.0172   68.4745  229.1782 H   0  0  0  0  0  0  0  0  0  0  0  0
  141.5301   70.9068  229.2486 H   0  0  0  0  0  0  0  0  0  0  0  0
  141.0599   72.3588  227.2895 H   0  0  0  0  0  0  0  0  0  0  0  0
  1  2  2  0
  2  3  1  0
  3  4  1  0
  4  5  1  0
  5  6  2  0
  5  7  1  0
  7  8  1  0
  8  9  1  0
  9 10  1  0
 10 11  1  0
 11 12  1  0
 12 13  1  0
 13 14  1  0
 14 15  1  0
 15 16  1  0
 16 17  2  0
 17 18  1  0
 18 19  2  0
 19 20  1  0
 20 21  2  0
  2 22  1  0
 22 23  2  0
 23 24  1  0
 24 25  2  0
 25 26  1  0
 26 27  2  0
 27 28  1  0
 28 29  2  0
 29 30  1  0
 30 31  2  0
 12  7  1  0
 21 16  1  0
 31 22  1  0
 30 25  1  0
  3 32  1  0
  4 33  1  0
  4 34  1  0
  8 35  1  0
  8 36  1  0
  9 37  1  0
  9 38  1  0
 10 39  1  0
 10 40  1  0
 11 41  1  0
 11 42  1  0
 12 43  1  1
 13 44  1  0
 13 45  1  0
 14 46  1  0
 15 47  1  0
 15 48  1  0
 17 49  1  0
 18 50  1  0
 19 51  1  0
 20 52  1  0
 21 53  1  0
 23 54  1  0
 24 55  1  0
 26 56  1  0
 27 57  1  0
 28 58  1  0
 29 59  1  0
M  END
>  <smiles>  (5) 
O=C(NCC(=O)N1CCCC[C@H]1CNCc1ccccc1)c1ccc2ccccc2n1

>  <score_type>  (5) 
oracle

>  <origin>  (5) 
autodockgpu

>  <m_score__min__energy>  (5) 
-9.9600000000000009

>  <m_primary>  (5) 
energy

>  <rmsd>  (5) 
2.542971001530354

>  <m_score__min__rmsd>  (5) 
2.542971001530354

>  <meeko>  (5) 
{"free_energy": -8.82, "intermolecular_energy": -11.21, "internal_energy": -1.85, "cluster_size": 30, "cluster_id": 1, "rank_in_cluster": 10}

>  <energy>  (5) 
-9.14

>  <cluster_rmsd>  (5) 
0.91

>  <cluster>  (5) 
1

$$$$

     RDKit          3D

 59 62  0  0  0  0  0  0  0  0999 V2000
  140.9320   72.4800  222.0080 O   0  0  0  0  0  0  0  0  0  0  0  0
  139.9050   72.2810  222.7410 C   0  0  0  0  0  0  0  0  0  0  0  0
  138.6850   72.9770  222.4730 N   0  0  0  0  0  0  0  0  0  0  0  0
  138.7230   73.8960  221.3310 C   0  0  0  0  0  0  0  0  0  0  0  0
  139.5810   75.0680  221.6230 C   0  0  0  0  0  0  0  0  0  0  0  0
  139.4790   75.7370  222.6950 O   0  0  0  0  0  0  0  0  0  0  0  0
  140.5450   75.4260  220.6390 N   0  0  0  0  0  0  0  0  0  0  0  0
  140.5450   74.8910  219.2930 C   0  0  0  0  0  0  0  0  0  0  0  0
  141.8790   74.3290  218.8890 C   0  0  0  0  0  0  0  0  0  0  0  0
  143.0010   74.8060  219.7840 C   0  0  0  0  0  0  0  0  0  0  0  0
  142.7520   76.2800  220.0220 C   0  0  0  0  0  0  0  0  0  0  0  0
  141.5890   76.3720  220.9830 C   0  0  1  0  0  0  0  0  0  0  0  0
  141.0870   77.7970  220.9490 C   0  0  0  0  0  0  0  0  0  0  0  0
  142.1220   78.6000  221.5660 N   0  0  0  0  0  0  0  0  0  0  0  0
  141.8730   78.8890  222.9610 C   0  0  0  0  0  0  0  0  0  0  0  0
  140.6540   79.7330  223.0390 C   0  0  0  0  0  0  0  0  0  0  0  0
  140.5200   80.9150  222.3040 C   0  0  0  0  0  0  0  0  0  0  0  0
  139.3880   81.6960  222.3780 C   0  0  0  0  0  0  0  0  0  0  0  0
  138.3500   81.3080  223.1990 C   0  0  0  0  0  0  0  0  0  0  0  0
  138.4380   80.1450  223.9450 C   0  0  0  0  0  0  0  0  0  0  0  0
  139.5870   79.3910  223.8440 C   0  0  0  0  0  0  0  0  0  0  0  0
  139.9850   71.3340  223.8620 C   0  0  0  0  0  0  0  0  0  0  0  0
  139.5470   70.0500  223.6900 C   0  0  0  0  0  0  0  0  0  0  0  0
  139.5760   69.0810  224.6730 C   0  0  0  0  0  0  0  0  0  0  0  0
  140.0880   69.4700  225.9000 C   0  0  0  0  0  0  0  0  0  0  0  0
  140.1350   68.5310  226.9150 C   0  0  0  0  0  0  0  0  0  0  0  0
  140.6470   68.8980  228.1590 C   0  0  0  0  0  0  0  0  0  0  0  0
  141.0930   70.1960  228.3430 C   0  0  0  0  0  0  0  0  0  0  0  0
  141.0370   71.1280  227.3070 C   0  0  0  0  0  0  0  0  0  0  0  0
  140.5260   70.7690  226.0570 C   0  0  0  0  0  0  0  0  0  0  0  0
  140.4750   71.6740  225.0640 N   0  0  0  0  0  0  0  0  0  0  0  0
  137.8280   72.8380  223.0510 H   0  0  0  0  0  0  0  0  0  0  0  0
  139.1244   73.3653  220.4550 H   0  0  0  0  0  0  0  0  0  0  0  0
  137.7009   74.2501  221.1311 H   0  0  0  0  0  0  0  0  0  0  0  0
  139.7936   74.0898  219.2334 H   0  0  0  0  0  0  0  0  0  0  0  0
  140.3137   75.7196  218.6075 H   0  0  0  0  0  0  0  0  0  0  0  0
  141.8296   73.2313  218.9392 H   0  0  0  0  0  0  0  0  0  0  0  0
  142.0939   74.6768  217.8678 H   0  0  0  0  0  0  0  0  0  0  0  0
  142.9876   74.2579  220.7376 H   0  0  0  0  0  0  0  0  0  0  0  0
  143.9841   74.6346  219.3212 H   0  0  0  0  0  0  0  0  0  0  0  0
  143.6448   76.7497  220.4605 H   0  0  0  0  0  0  0  0  0  0  0  0
  142.5300   76.8020  219.0795 H   0  0  0  0  0  0  0  0  0  0  0  0
  141.9106   76.1106  222.0019 H   0  0  0  0  0  0  0  0  0  0  0  0
  140.9216   78.1192  219.9103 H   0  0  0  0  0  0  0  0  0  0  0  0
  140.1285   77.8991  221.4789 H   0  0  0  0  0  0  0  0  0  0  0  0
  143.0700   78.2540  221.3850 H   0  0  0  0  0  0  0  0  0  0  0  0
  141.7154   77.9518  223.5150 H   0  0  0  0  0  0  0  0  0  0  0  0
  142.7325   79.4134  223.4041 H   0  0  0  0  0  0  0  0  0  0  0  0
  141.3437   81.2306  221.6468 H   0  0  0  0  0  0  0  0  0  0  0  0
  139.3125   82.6210  221.7875 H   0  0  0  0  0  0  0  0  0  0  0  0
  137.4438   81.9283  223.2617 H   0  0  0  0  0  0  0  0  0  0  0  0
  137.6126   79.8312  224.6010 H   0  0  0  0  0  0  0  0  0  0  0  0
  139.6572   78.4671  224.4368 H   0  0  0  0  0  0  0  0  0  0  0  0
  139.1455   69.7712  222.7046 H   0  0  0  0  0  0  0  0  0  0  0  0
  139.2133   68.0584  224.4922 H   0  0  0  0  0  0  0  0  0  0  0  0
  139.7727   67.5068  226.7426 H   0  0  0  0  0  0  0  0  0  0  0  0
  140.6958   68.1684  228.9807 H   0  0  0  0  0  0  0  0  0  0  0  0
  141.4975   70.4964  229.3208 H   0  0  0  0  0  0  0  0  0  0  0  0
  141.3978   72.1534  227.4752 H   0  0  0  0  0  0  0  0  0  0  0  0
  1  2  2  0
  2  3  1  0
  3  4  1  0
  4  5  1  0
  5  6  2  0
  5  7  1  0
  7  8  1  0
  8  9  1  0
  9 10  1  0
 10 11  1  0
 11 12  1  0
 12 13  1  0
 13 14  1  0
 14 15  1  0
 15 16  1  0
 16 17  2  0
 17 18  1  0
 18 19  2  0
 19 20  1  0
 20 21  2  0
  2 22  1  0
 22 23  2  0
 23 24  1  0
 24 25  2  0
 25 26  1  0
 26 27  2  0
 27 28  1  0
 28 29  2  0
 29 30  1  0
 30 31  2  0
 12  7  1  0
 21 16  1  0
 31 22  1  0
 30 25  1  0
  3 32  1  0
  4 33  1  0
  4 34  1  0
  8 35  1  0
  8 36  1  0
  9 37  1  0
  9 38  1  0
 10 39  1  0
 10 40  1  0
 11 41  1  0
 11 42  1  0
 12 43  1  1
 13 44  1  0
 13 45  1  0
 14 46  1  0
 15 47  1  0
 15 48  1  0
 17 49  1  0
 18 50  1  0
 19 51  1  0
 20 52  1  0
 21 53  1  0
 23 54  1  0
 24 55  1  0
 26 56  1  0
 27 57  1  0
 28 58  1  0
 29 59  1  0
M  END
>  <smiles>  (6) 
O=C(NCC(=O)N1CCCC[C@H]1CNCc1ccccc1)c1ccc2ccccc2n1

>  <score_type>  (6) 
oracle

>  <origin>  (6) 
autodockgpu

>  <m_score__min__energy>  (6) 
-9.9600000000000009

>  <m_primary>  (6) 
energy

>  <rmsd>  (6) 
2.196234159459453

>  <m_score__min__rmsd>  (6) 
2.196234159459453

>  <meeko>  (6) 
{"free_energy": -8.68, "intermolecular_energy": -11.06, "internal_energy": -1.74, "cluster_size": 30, "cluster_id": 1, "rank_in_cluster": 17}

>  <energy>  (6) 
-8.92

>  <cluster_rmsd>  (6) 
1.08

>  <cluster>  (6) 
1

$$$$

     RDKit          3D

 59 62  0  0  0  0  0  0  0  0999 V2000
  139.5350   74.4730  221.1510 O   0  0  0  0  0  0  0  0  0  0  0  0
  140.0310   75.5880  221.5250 C   0  0  0  0  0  0  0  0  0  0  0  0
  141.4370   75.8230  221.4120 N   0  0  0  0  0  0  0  0  0  0  0  0
  142.2170   74.7150  220.8520 C   0  0  0  0  0  0  0  0  0  0  0  0
  143.2710   75.2180  219.9400 C   0  0  0  0  0  0  0  0  0  0  0  0
  144.4910   75.2880  220.2820 O   0  0  0  0  0  0  0  0  0  0  0  0
  142.8620   75.6290  218.6400 N   0  0  0  0  0  0  0  0  0  0  0  0
  142.7760   74.7250  217.5110 C   0  0  0  0  0  0  0  0  0  0  0  0
  143.5090   75.2340  216.3010 C   0  0  0  0  0  0  0  0  0  0  0  0
  143.8090   76.7130  216.3870 C   0  0  0  0  0  0  0  0  0  0  0  0
  142.5610   77.3640  216.9440 C   0  0  0  0  0  0  0  0  0  0  0  0
  142.5120   77.0170  218.4150 C   0  0  1  0  0  0  0  0  0  0  0  0
  141.1170   77.3300  218.9060 C   0  0  0  0  0  0  0  0  0  0  0  0
  141.2840   78.0820  220.1310 N   0  0  0  0  0  0  0  0  0  0  0  0
  141.8450   79.4000  219.9270 C   0  0  0  0  0  0  0  0  0  0  0  0
  141.9570   80.0570  221.2540 C   0  0  0  0  0  0  0  0  0  0  0  0
  141.5070   81.3610  221.4780 C   0  0  0  0  0  0  0  0  0  0  0  0
  141.6110   81.9670  222.7100 C   0  0  0  0  0  0  0  0  0  0  0  0
  142.1760   81.2740  223.7610 C   0  0  0  0  0  0  0  0  0  0  0  0
  142.6350   79.9800  223.5860 C   0  0  0  0  0  0  0  0  0  0  0  0
  142.5130   79.4080  222.3380 C   0  0  0  0  0  0  0  0  0  0  0  0
  139.1500   76.6290  222.0730 C   0  0  0  0  0  0  0  0  0  0  0  0
  137.7930   76.4800  221.9820 C   0  0  0  0  0  0  0  0  0  0  0  0
  136.8770   77.3930  222.4620 C   0  0  0  0  0  0  0  0  0  0  0  0
  137.4000   78.5230  223.0710 C   0  0  0  0  0  0  0  0  0  0  0  0
  136.5170   79.4650  223.5660 C   0  0  0  0  0  0  0  0  0  0  0  0
  137.0200   80.6110  224.1830 C   0  0  0  0  0  0  0  0  0  0  0  0
  138.3920   80.7710  224.2800 C   0  0  0  0  0  0  0  0  0  0  0  0
  139.2660   79.8090  223.7740 C   0  0  0  0  0  0  0  0  0  0  0  0
  138.7710   78.6590  223.1550 C   0  0  0  0  0  0  0  0  0  0  0  0
  139.6200   77.7360  222.6690 N   0  0  0  0  0  0  0  0  0  0  0  0
  141.8750   76.7230  221.7070 H   0  0  0  0  0  0  0  0  0  0  0  0
  142.6884   74.1553  221.6733 H   0  0  0  0  0  0  0  0  0  0  0  0
  141.5403   74.0623  220.2809 H   0  0  0  0  0  0  0  0  0  0  0  0
  143.2084   73.7564  217.8024 H   0  0  0  0  0  0  0  0  0  0  0  0
  141.7138   74.6324  217.2406 H   0  0  0  0  0  0  0  0  0  0  0  0
  144.4582   74.6862  216.2070 H   0  0  0  0  0  0  0  0  0  0  0  0
  142.8620   75.0740  215.4259 H   0  0  0  0  0  0  0  0  0  0  0  0
  144.6634   76.8907  217.0566 H   0  0  0  0  0  0  0  0  0  0  0  0
  144.0725   77.1270  215.4025 H   0  0  0  0  0  0  0  0  0  0  0  0
  142.6113   78.4550  216.8130 H   0  0  0  0  0  0  0  0  0  0  0  0
  141.6609   77.0070  216.4222 H   0  0  0  0  0  0  0  0  0  0  0  0
  143.2499   77.6099  218.9753 H   0  0  0  0  0  0  0  0  0  0  0  0
  140.5751   77.9300  218.1602 H   0  0  0  0  0  0  0  0  0  0  0  0
  140.5337   76.4125  219.0731 H   0  0  0  0  0  0  0  0  0  0  0  0
  140.4510   78.0820  220.7290 H   0  0  0  0  0  0  0  0  0  0  0  0
  142.8403   79.3157  219.4662 H   0  0  0  0  0  0  0  0  0  0  0  0
  141.2020   79.9917  219.2588 H   0  0  0  0  0  0  0  0  0  0  0  0
  141.0561   81.9201  220.6449 H   0  0  0  0  0  0  0  0  0  0  0  0
  141.2468   82.9948  222.8552 H   0  0  0  0  0  0  0  0  0  0  0  0
  142.2624   81.7543  224.7468 H   0  0  0  0  0  0  0  0  0  0  0  0
  143.0852   79.4229  224.4208 H   0  0  0  0  0  0  0  0  0  0  0  0
  142.8781   78.3798  222.1984 H   0  0  0  0  0  0  0  0  0  0  0  0
  137.4071   75.5728  221.4941 H   0  0  0  0  0  0  0  0  0  0  0  0
  135.7928   77.2333  222.3669 H   0  0  0  0  0  0  0  0  0  0  0  0
  135.4314   79.3128  223.4745 H   0  0  0  0  0  0  0  0  0  0  0  0
  136.3381   81.3745  224.5856 H   0  0  0  0  0  0  0  0  0  0  0  0
  138.7991   81.6711  224.7638 H   0  0  0  0  0  0  0  0  0  0  0  0
  140.3524   79.9570  223.8630 H   0  0  0  0  0  0  0  0  0  0  0  0
  1  2  2  0
  2  3  1  0
  3  4  1  0
  4  5  1  0
  5  6  2  0
  5  7  1  0
  7  8  1  0
  8  9  1  0
  9 10  1  0
 10 11  1  0
 11 12  1  0
 12 13  1  0
 13 14  1  0
 14 15  1  0
 15 16  1  0
 16 17  2  0
 17 18  1  0
 18 19  2  0
 19 20  1  0
 20 21  2  0
  2 22  1  0
 22 23  2  0
 23 24  1  0
 24 25  2  0
 25 26  1  0
 26 27  2  0
 27 28  1  0
 28 29  2  0
 29 30  1  0
 30 31  2  0
 12  7  1  0
 21 16  1  0
 31 22  1  0
 30 25  1  0
  3 32  1  0
  4 33  1  0
  4 34  1  0
  8 35  1  0
  8 36  1  0
  9 37  1  0
  9 38  1  0
 10 39  1  0
 10 40  1  0
 11 41  1  0
 11 42  1  0
 12 43  1  1
 13 44  1  0
 13 45  1  0
 14 46  1  0
 15 47  1  0
 15 48  1  0
 17 49  1  0
 18 50  1  0
 19 51  1  0
 20 52  1  0
 21 53  1  0
 23 54  1  0
 24 55  1  0
 26 56  1  0
 27 57  1  0
 28 58  1  0
 29 59  1  0
M  END
>  <smiles>  (7) 
O=C(NCC(=O)N1CCCC[C@H]1CNCc1ccccc1)c1ccc2ccccc2n1

>  <score_type>  (7) 
oracle

>  <origin>  (7) 
autodockgpu

>  <m_score__min__energy>  (7) 
-9.9600000000000009

>  <m_primary>  (7) 
energy

>  <rmsd>  (7) 
6.17418825307516

>  <m_score__min__rmsd>  (7) 
6.17418825307516

>  <meeko>  (7) 
{"free_energy": -6.37, "intermolecular_energy": -8.76, "internal_energy": -4.12, "cluster_size": 4, "cluster_id": 6, "rank_in_cluster": 4}

>  <energy>  (7) 
-8.85

>  <cluster_rmsd>  (7) 
1.87

>  <cluster>  (7) 
1

$$$$

     RDKit          3D

 59 62  0  0  0  0  0  0  0  0999 V2000
  140.0170   74.1960  221.9710 O   0  0  0  0  0  0  0  0  0  0  0  0
  140.3630   75.4160  221.8270 C   0  0  0  0  0  0  0  0  0  0  0  0
  141.6370   75.7390  221.2640 N   0  0  0  0  0  0  0  0  0  0  0  0
  142.4670   74.5920  220.8830 C   0  0  0  0  0  0  0  0  0  0  0  0
  143.5870   75.0150  220.0120 C   0  0  0  0  0  0  0  0  0  0  0  0
  144.7700   75.1620  220.4460 O   0  0  0  0  0  0  0  0  0  0  0  0
  143.2880   75.2550  218.6410 N   0  0  0  0  0  0  0  0  0  0  0  0
  142.9820   74.1990  217.6970 C   0  0  0  0  0  0  0  0  0  0  0  0
  143.8150   74.2770  216.4470 C   0  0  0  0  0  0  0  0  0  0  0  0
  144.4640   75.6310  216.2700 C   0  0  0  0  0  0  0  0  0  0  0  0
  143.4130   76.6550  216.6400 C   0  0  0  0  0  0  0  0  0  0  0  0
  143.2840   76.6170  218.1460 C   0  0  1  0  0  0  0  0  0  0  0  0
  142.0080   77.3420  218.5080 C   0  0  0  0  0  0  0  0  0  0  0  0
  142.3480   78.2270  219.6020 N   0  0  0  0  0  0  0  0  0  0  0  0
  141.2070   78.9210  220.1580 C   0  0  0  0  0  0  0  0  0  0  0  0
  141.6770   79.7040  221.3290 C   0  0  0  0  0  0  0  0  0  0  0  0
  141.3680   81.0570  221.4910 C   0  0  0  0  0  0  0  0  0  0  0  0
  141.8060   81.7800  222.5780 C   0  0  0  0  0  0  0  0  0  0  0  0
  142.5720   81.1580  223.5410 C   0  0  0  0  0  0  0  0  0  0  0  0
  142.9030   79.8200  223.4230 C   0  0  0  0  0  0  0  0  0  0  0  0
  142.4460   79.1300  222.3200 C   0  0  0  0  0  0  0  0  0  0  0  0
  139.4480   76.4870  222.2460 C   0  0  0  0  0  0  0  0  0  0  0  0
  138.1040   76.3430  222.0360 C   0  0  0  0  0  0  0  0  0  0  0  0
  137.1570   77.2840  222.3890 C   0  0  0  0  0  0  0  0  0  0  0  0
  137.6360   78.4360  222.9930 C   0  0  0  0  0  0  0  0  0  0  0  0
  136.7220   79.4060  223.3630 C   0  0  0  0  0  0  0  0  0  0  0  0
  137.1780   80.5740  223.9730 C   0  0  0  0  0  0  0  0  0  0  0  0
  138.5380   80.7280  224.1900 C   0  0  0  0  0  0  0  0  0  0  0  0
  139.4430   79.7380  223.8100 C   0  0  0  0  0  0  0  0  0  0  0  0
  138.9940   78.5650  223.1980 C   0  0  0  0  0  0  0  0  0  0  0  0
  139.8740   77.6160  222.8340 N   0  0  0  0  0  0  0  0  0  0  0  0
  141.9520   76.7250  221.1320 H   0  0  0  0  0  0  0  0  0  0  0  0
  142.8744   74.1248  221.7917 H   0  0  0  0  0  0  0  0  0  0  0  0
  141.8427   73.8757  220.3288 H   0  0  0  0  0  0  0  0  0  0  0  0
  143.1660   73.2292  218.1823 H   0  0  0  0  0  0  0  0  0  0  0  0
  141.9286   74.3132  217.4014 H   0  0  0  0  0  0  0  0  0  0  0  0
  144.6033   73.5116  216.4996 H   0  0  0  0  0  0  0  0  0  0  0  0
  143.1477   74.1103  215.5885 H   0  0  0  0  0  0  0  0  0  0  0  0
  145.3373   75.7247  216.9322 H   0  0  0  0  0  0  0  0  0  0  0  0
  144.8172   75.7742  215.2381 H   0  0  0  0  0  0  0  0  0  0  0  0
  143.7267   77.6567  216.3111 H   0  0  0  0  0  0  0  0  0  0  0  0
  142.4521   76.4306  216.1538 H   0  0  0  0  0  0  0  0  0  0  0  0
  144.1450   77.1124  218.6185 H   0  0  0  0  0  0  0  0  0  0  0  0
  141.6404   77.9212  217.6481 H   0  0  0  0  0  0  0  0  0  0  0  0
  141.2116   76.6383  218.7919 H   0  0  0  0  0  0  0  0  0  0  0  0
  142.9440   77.7900  220.3120 H   0  0  0  0  0  0  0  0  0  0  0  0
  140.7768   79.5970  219.4044 H   0  0  0  0  0  0  0  0  0  0  0  0
  140.4319   78.2024  220.4629 H   0  0  0  0  0  0  0  0  0  0  0  0
  140.7565   81.5597  220.7272 H   0  0  0  0  0  0  0  0  0  0  0  0
  141.5470   82.8445  222.6772 H   0  0  0  0  0  0  0  0  0  0  0  0
  142.9234   81.7313  224.4116 H   0  0  0  0  0  0  0  0  0  0  0  0
  143.5144   79.3199  224.1886 H   0  0  0  0  0  0  0  0  0  0  0  0
  142.7084   78.0660  222.2254 H   0  0  0  0  0  0  0  0  0  0  0  0
  137.7549   75.4175  221.5547 H   0  0  0  0  0  0  0  0  0  0  0  0
  136.0843   77.1283  222.2017 H   0  0  0  0  0  0  0  0  0  0  0  0
  135.6478   79.2577  223.1782 H   0  0  0  0  0  0  0  0  0  0  0  0
  136.4704   81.3596  224.2767 H   0  0  0  0  0  0  0  0  0  0  0  0
  138.9092   81.6457  224.6696 H   0  0  0  0  0  0  0  0  0  0  0  0
  140.5181   79.8814  223.9933 H   0  0  0  0  0  0  0  0  0  0  0  0
  1  2  2  0
  2  3  1  0
  3  4  1  0
  4  5  1  0
  5  6  2  0
  5  7  1  0
  7  8  1  0
  8  9  1  0
  9 10  1  0
 10 11  1  0
 11 12  1  0
 12 13  1  0
 13 14  1  0
 14 15  1  0
 15 16  1  0
 16 17  2  0
 17 18  1  0
 18 19  2  0
 19 20  1  0
 20 21  2  0
  2 22  1  0
 22 23  2  0
 23 24  1  0
 24 25  2  0
 25 26  1  0
 26 27  2  0
 27 28  1  0
 28 29  2  0
 29 30  1  0
 30 31  2  0
 12  7  1  0
 21 16  1  0
 31 22  1  0
 30 25  1  0
  3 32  1  0
  4 33  1  0
  4 34  1  0
  8 35  1  0
  8 36  1  0
  9 37  1  0
  9 38  1  0
 10 39  1  0
 10 40  1  0
 11 41  1  0
 11 42  1  0
 12 43  1  1
 13 44  1  0
 13 45  1  0
 14 46  1  0
 15 47  1  0
 15 48  1  0
 17 49  1  0
 18 50  1  0
 19 51  1  0
 20 52  1  0
 21 53  1  0
 23 54  1  0
 24 55  1  0
 26 56  1  0
 27 57  1  0
 28 58  1  0
 29 59  1  0
M  END
>  <smiles>  (8) 
O=C(NCC(=O)N1CCCC[C@H]1CNCc1ccccc1)c1ccc2ccccc2n1

>  <score_type>  (8) 
oracle

>  <origin>  (8) 
autodockgpu

>  <m_score__min__energy>  (8) 
-9.9600000000000009

>  <m_primary>  (8) 
energy

>  <rmsd>  (8) 
6.221106348227775

>  <m_score__min__rmsd>  (8) 
6.221106348227775

>  <meeko>  (8) 
{"free_energy": -7.11, "intermolecular_energy": -9.5, "internal_energy": -3.5, "cluster_size": 4, "cluster_id": 6, "rank_in_cluster": 2}

>  <energy>  (8) 
-8.85

>  <cluster_rmsd>  (8) 
1.1

>  <cluster>  (8) 
1

$$$$

     RDKit          3D

 59 62  0  0  0  0  0  0  0  0999 V2000
  140.3410   73.7870  222.3430 O   0  0  0  0  0  0  0  0  0  0  0  0
  139.5450   74.6260  221.8020 C   0  0  0  0  0  0  0  0  0  0  0  0
  138.6100   74.1920  220.8110 N   0  0  0  0  0  0  0  0  0  0  0  0
  138.6490   72.7620  220.4920 C   0  0  0  0  0  0  0  0  0  0  0  0
  137.9590   71.9680  221.5350 C   0  0  0  0  0  0  0  0  0  0  0  0
  136.9440   72.4010  222.1610 O   0  0  0  0  0  0  0  0  0  0  0  0
  138.4810   70.6740  221.8180 N   0  0  0  0  0  0  0  0  0  0  0  0
  138.6090   69.6330  220.8190 C   0  0  0  0  0  0  0  0  0  0  0  0
  137.9920   68.3320  221.2530 C   0  0  0  0  0  0  0  0  0  0  0  0
  137.7560   68.2750  222.7460 C   0  0  0  0  0  0  0  0  0  0  0  0
  138.9890   68.8720  223.3900 C   0  0  0  0  0  0  0  0  0  0  0  0
  138.9120   70.3650  223.1670 C   0  0  1  0  0  0  0  0  0  0  0  0
  140.2800   70.9360  223.4630 C   0  0  0  0  0  0  0  0  0  0  0  0
  140.0970   71.8590  224.5630 N   0  0  0  0  0  0  0  0  0  0  0  0
  141.0950   71.7230  225.6030 C   0  0  0  0  0  0  0  0  0  0  0  0
  140.7270   70.5490  226.4340 C   0  0  0  0  0  0  0  0  0  0  0  0
  141.1040   69.2480  226.0890 C   0  0  0  0  0  0  0  0  0  0  0  0
  140.7620   68.1610  226.8620 C   0  0  0  0  0  0  0  0  0  0  0  0
  140.0260   68.3520  228.0130 C   0  0  0  0  0  0  0  0  0  0  0  0
  139.6310   69.6230  228.3940 C   0  0  0  0  0  0  0  0  0  0  0  0
  139.9930   70.6850  227.5940 C   0  0  0  0  0  0  0  0  0  0  0  0
  139.5960   76.0390  222.2020 C   0  0  0  0  0  0  0  0  0  0  0  0
  138.4300   76.7330  222.3720 C   0  0  0  0  0  0  0  0  0  0  0  0
  138.3620   78.0600  222.7450 C   0  0  0  0  0  0  0  0  0  0  0  0
  139.5740   78.7000  222.9530 C   0  0  0  0  0  0  0  0  0  0  0  0
  139.5540   80.0310  223.3280 C   0  0  0  0  0  0  0  0  0  0  0  0
  140.7600   80.6960  223.5430 C   0  0  0  0  0  0  0  0  0  0  0  0
  141.9470   80.0020  223.3730 C   0  0  0  0  0  0  0  0  0  0  0  0
  141.9460   78.6600  222.9950 C   0  0  0  0  0  0  0  0  0  0  0  0
  140.7420   77.9850  222.7770 C   0  0  0  0  0  0  0  0  0  0  0  0
  140.7510   76.6910  222.4130 N   0  0  0  0  0  0  0  0  0  0  0  0
  137.9450   74.8510  220.3490 H   0  0  0  0  0  0  0  0  0  0  0  0
  138.1521   72.5952  219.5249 H   0  0  0  0  0  0  0  0  0  0  0  0
  139.7002   72.4414  220.4446 H   0  0  0  0  0  0  0  0  0  0  0  0
  138.1119   69.9677  219.8966 H   0  0  0  0  0  0  0  0  0  0  0  0
  139.6829   69.4547  220.6612 H   0  0  0  0  0  0  0  0  0  0  0  0
  137.0278   68.2092  220.7381 H   0  0  0  0  0  0  0  0  0  0  0  0
  138.6934   67.5253  220.9935 H   0  0  0  0  0  0  0  0  0  0  0  0
  136.8641   68.8604  223.0140 H   0  0  0  0  0  0  0  0  0  0  0  0
  137.5850   67.2430  223.0863 H   0  0  0  0  0  0  0  0  0  0  0  0
  139.0004   68.6491  224.4671 H   0  0  0  0  0  0  0  0  0  0  0  0
  139.9074   68.4523  222.9537 H   0  0  0  0  0  0  0  0  0  0  0  0
  138.1633   70.8162  223.8347 H   0  0  0  0  0  0  0  0  0  0  0  0
  140.9756   70.1333  223.7491 H   0  0  0  0  0  0  0  0  0  0  0  0
  140.7065   71.4381  222.5821 H   0  0  0  0  0  0  0  0  0  0  0  0
  139.9510   72.8290  224.2640 H   0  0  0  0  0  0  0  0  0  0  0  0
  142.0862   71.5666  225.1524 H   0  0  0  0  0  0  0  0  0  0  0  0
  141.1342   72.6332  226.2195 H   0  0  0  0  0  0  0  0  0  0  0  0
  141.6913   69.0878  225.1728 H   0  0  0  0  0  0  0  0  0  0  0  0
  141.0731   67.1488  226.5642 H   0  0  0  0  0  0  0  0  0  0  0  0
  139.7505   67.4866  228.6337 H   0  0  0  0  0  0  0  0  0  0  0  0
  139.0439   69.7809  229.3107 H   0  0  0  0  0  0  0  0  0  0  0  0
  139.6799   71.6952  227.8966 H   0  0  0  0  0  0  0  0  0  0  0  0
  137.4841   76.1984  222.2001 H   0  0  0  0  0  0  0  0  0  0  0  0
  137.4009   78.5802  222.8701 H   0  0  0  0  0  0  0  0  0  0  0  0
  138.5973   80.5588  223.4551 H   0  0  0  0  0  0  0  0  0  0  0  0
  140.7691   81.7543  223.8427 H   0  0  0  0  0  0  0  0  0  0  0  0
  142.9045   80.5175  223.5387 H   0  0  0  0  0  0  0  0  0  0  0  0
  142.9005   78.1283  222.8674 H   0  0  0  0  0  0  0  0  0  0  0  0
  1  2  2  0
  2  3  1  0
  3  4  1  0
  4  5  1  0
  5  6  2  0
  5  7  1  0
  7  8  1  0
  8  9  1  0
  9 10  1  0
 10 11  1  0
 11 12  1  0
 12 13  1  0
 13 14  1  0
 14 15  1  0
 15 16  1  0
 16 17  2  0
 17 18  1  0
 18 19  2  0
 19 20  1  0
 20 21  2  0
  2 22  1  0
 22 23  2  0
 23 24  1  0
 24 25  2  0
 25 26  1  0
 26 27  2  0
 27 28  1  0
 28 29  2  0
 29 30  1  0
 30 31  2  0
 12  7  1  0
 21 16  1  0
 31 22  1  0
 30 25  1  0
  3 32  1  0
  4 33  1  0
  4 34  1  0
  8 35  1  0
  8 36  1  0
  9 37  1  0
  9 38  1  0
 10 39  1  0
 10 40  1  0
 11 41  1  0
 11 42  1  0
 12 43  1  1
 13 44  1  0
 13 45  1  0
 14 46  1  0
 15 47  1  0
 15 48  1  0
 17 49  1  0
 18 50  1  0
 19 51  1  0
 20 52  1  0
 21 53  1  0
 23 54  1  0
 24 55  1  0
 26 56  1  0
 27 57  1  0
 28 58  1  0
 29 59  1  0
M  END
>  <smiles>  (9) 
O=C(NCC(=O)N1CCCC[C@H]1CNCc1ccccc1)c1ccc2ccccc2n1

>  <score_type>  (9) 
oracle

>  <origin>  (9) 
autodockgpu

>  <m_score__min__energy>  (9) 
-9.9600000000000009

>  <m_primary>  (9) 
energy

>  <rmsd>  (9) 
9.407291146888364

>  <m_score__min__rmsd>  (9) 
9.407291146888364

>  <meeko>  (9) 
{"free_energy": -8.18, "intermolecular_energy": -10.57, "internal_energy": -2.5, "cluster_size": 7, "cluster_id": 4, "rank_in_cluster": 5}

>  <energy>  (9) 
-8.83

>  <cluster_rmsd>  (9) 
1.47

>  <cluster>  (9) 
1

$$$$

     RDKit          3D

 59 62  0  0  0  0  0  0  0  0999 V2000
  138.7210   72.3210  222.1660 O   0  0  0  0  0  0  0  0  0  0  0  0
  139.5970   71.4090  222.3350 C   0  0  0  0  0  0  0  0  0  0  0  0
  140.2210   70.7940  221.2050 N   0  0  0  0  0  0  0  0  0  0  0  0
  139.7810   71.2890  219.8960 C   0  0  0  0  0  0  0  0  0  0  0  0
  140.0500   72.7400  219.7620 C   0  0  0  0  0  0  0  0  0  0  0  0
  139.1210   73.6000  219.6800 O   0  0  0  0  0  0  0  0  0  0  0  0
  141.4140   73.1470  219.7280 N   0  0  0  0  0  0  0  0  0  0  0  0
  142.2150   73.1420  218.5210 C   0  0  0  0  0  0  0  0  0  0  0  0
  143.5220   72.4190  218.6940 C   0  0  0  0  0  0  0  0  0  0  0  0
  143.8890   72.2280  220.1490 C   0  0  0  0  0  0  0  0  0  0  0  0
  143.5560   73.5330  220.8410 C   0  0  0  0  0  0  0  0  0  0  0  0
  142.0500   73.5910  220.9530 C   0  0  1  0  0  0  0  0  0  0  0  0
  141.6770   75.0160  221.2940 C   0  0  0  0  0  0  0  0  0  0  0  0
  140.3700   74.9500  221.9120 N   0  0  0  0  0  0  0  0  0  0  0  0
  139.5870   76.1540  221.7360 C   0  0  0  0  0  0  0  0  0  0  0  0
  140.5060   77.3140  221.8540 C   0  0  0  0  0  0  0  0  0  0  0  0
  141.0520   77.7080  223.0790 C   0  0  0  0  0  0  0  0  0  0  0  0
  141.9040   78.7850  223.1850 C   0  0  0  0  0  0  0  0  0  0  0  0
  142.2340   79.5020  222.0540 C   0  0  0  0  0  0  0  0  0  0  0  0
  141.7180   79.1480  220.8200 C   0  0  0  0  0  0  0  0  0  0  0  0
  140.8680   78.0640  220.7540 C   0  0  0  0  0  0  0  0  0  0  0  0
  139.9600   70.9910  223.6970 C   0  0  0  0  0  0  0  0  0  0  0  0
  140.6650   71.8470  224.4980 C   0  0  0  0  0  0  0  0  0  0  0  0
  141.0570   71.5580  225.7890 C   0  0  0  0  0  0  0  0  0  0  0  0
  140.6950   70.3110  226.2740 C   0  0  0  0  0  0  0  0  0  0  0  0
  141.0670   69.9790  227.5640 C   0  0  0  0  0  0  0  0  0  0  0  0
  140.7150   68.7300  228.0740 C   0  0  0  0  0  0  0  0  0  0  0  0
  140.0010   67.8560  227.2700 C   0  0  0  0  0  0  0  0  0  0  0  0
  139.6350   68.2100  225.9710 C   0  0  0  0  0  0  0  0  0  0  0  0
  139.9840   69.4590  225.4530 C   0  0  0  0  0  0  0  0  0  0  0  0
  139.6270   69.7920  224.2000 N   0  0  0  0  0  0  0  0  0  0  0  0
  140.9420   70.0460  221.3060 H   0  0  0  0  0  0  0  0  0  0  0  0
  140.3221   70.7479  219.1058 H   0  0  0  0  0  0  0  0  0  0  0  0
  138.6977   71.1222  219.8030 H   0  0  0  0  0  0  0  0  0  0  0  0
  141.6431   72.6485  217.7214 H   0  0  0  0  0  0  0  0  0  0  0  0
  142.4450   74.1882  218.2709 H   0  0  0  0  0  0  0  0  0  0  0  0
  143.4446   71.4309  218.2169 H   0  0  0  0  0  0  0  0  0  0  0  0
  144.3078   73.0320  218.2283 H   0  0  0  0  0  0  0  0  0  0  0  0
  143.3045   71.4046  220.5852 H   0  0  0  0  0  0  0  0  0  0  0  0
  144.9524   71.9717  220.2649 H   0  0  0  0  0  0  0  0  0  0  0  0
  144.0122   73.5591  221.8416 H   0  0  0  0  0  0  0  0  0  0  0  0
  143.9448   74.3923  220.2750 H   0  0  0  0  0  0  0  0  0  0  0  0
  141.6961   72.9109  221.7418 H   0  0  0  0  0  0  0  0  0  0  0  0
  142.4092   75.4456  221.9936 H   0  0  0  0  0  0  0  0  0  0  0  0
  141.6672   75.6549  220.3986 H   0  0  0  0  0  0  0  0  0  0  0  0
  139.8550   74.0930  221.6890 H   0  0  0  0  0  0  0  0  0  0  0  0
  139.1139   76.1509  220.7429 H   0  0  0  0  0  0  0  0  0  0  0  0
  138.7950   76.2121  222.4972 H   0  0  0  0  0  0  0  0  0  0  0  0
  140.7935   77.1410  223.9854 H   0  0  0  0  0  0  0  0  0  0  0  0
  142.3177   79.0708  224.1633 H   0  0  0  0  0  0  0  0  0  0  0  0
  142.9137   80.3632  222.1337 H   0  0  0  0  0  0  0  0  0  0  0  0
  141.9790   79.7164  219.9151 H   0  0  0  0  0  0  0  0  0  0  0  0
  140.4572   77.7827  219.7731 H   0  0  0  0  0  0  0  0  0  0  0  0
  140.9371   72.8299  224.0860 H   0  0  0  0  0  0  0  0  0  0  0  0
  141.6246   72.2764  226.3987 H   0  0  0  0  0  0  0  0  0  0  0  0
  141.6340   70.6920  228.1805 H   0  0  0  0  0  0  0  0  0  0  0  0
  140.9993   68.4433  229.0972 H   0  0  0  0  0  0  0  0  0  0  0  0
  139.7184   66.8678  227.6619 H   0  0  0  0  0  0  0  0  0  0  0  0
  139.0677   67.5005  225.3507 H   0  0  0  0  0  0  0  0  0  0  0  0
  1  2  2  0
  2  3  1  0
  3  4  1  0
  4  5  1  0
  5  6  2  0
  5  7  1  0
  7  8  1  0
  8  9  1  0
  9 10  1  0
 10 11  1  0
 11 12  1  0
 12 13  1  0
 13 14  1  0
 14 15  1  0
 15 16  1  0
 16 17  2  0
 17 18  1  0
 18 19  2  0
 19 20  1  0
 20 21  2  0
  2 22  1  0
 22 23  2  0
 23 24  1  0
 24 25  2  0
 25 26  1  0
 26 27  2  0
 27 28  1  0
 28 29  2  0
 29 30  1  0
 30 31  2  0
 12  7  1  0
 21 16  1  0
 31 22  1  0
 30 25  1  0
  3 32  1  0
  4 33  1  0
  4 34  1  0
  8 35  1  0
  8 36  1  0
  9 37  1  0
  9 38  1  0
 10 39  1  0
 10 40  1  0
 11 41  1  0
 11 42  1  0
 12 43  1  1
 13 44  1  0
 13 45  1  0
 14 46  1  0
 15 47  1  0
 15 48  1  0
 17 49  1  0
 18 50  1  0
 19 51  1  0
 20 52  1  0
 21 53  1  0
 23 54  1  0
 24 55  1  0
 26 56  1  0
 27 57  1  0
 28 58  1  0
 29 59  1  0
M  END
>  <smiles>  (10) 
O=C(NCC(=O)N1CCCC[C@H]1CNCc1ccccc1)c1ccc2ccccc2n1

>  <score_type>  (10) 
oracle

>  <origin>  (10) 
autodockgpu

>  <m_score__min__energy>  (10) 
-9.9600000000000009

>  <m_primary>  (10) 
energy

>  <rmsd>  (10) 
3.831582426948517

>  <m_score__min__rmsd>  (10) 
3.831582426948517

>  <meeko>  (10) 
{"free_energy": -7.23, "intermolecular_energy": -9.61, "internal_energy": -3.31, "cluster_size": 30, "cluster_id": 1, "rank_in_cluster": 30}

>  <energy>  (10) 
-8.82

>  <cluster_rmsd>  (10) 
1.44

>  <cluster>  (10) 
1

$$$$

     RDKit          3D

 59 62  0  0  0  0  0  0  0  0999 V2000
  137.5110   70.9650  221.5710 O   0  0  0  0  0  0  0  0  0  0  0  0
  138.1640   71.6070  222.4610 C   0  0  0  0  0  0  0  0  0  0  0  0
  138.3300   73.0230  222.3480 N   0  0  0  0  0  0  0  0  0  0  0  0
  137.7080   73.6380  221.1710 C   0  0  0  0  0  0  0  0  0  0  0  0
  138.7260   74.2880  220.3130 C   0  0  0  0  0  0  0  0  0  0  0  0
  138.4920   75.3540  219.6660 O   0  0  0  0  0  0  0  0  0  0  0  0
  140.0030   73.6640  220.2370 N   0  0  0  0  0  0  0  0  0  0  0  0
  140.2670   72.4870  219.4330 C   0  0  0  0  0  0  0  0  0  0  0  0
  140.9380   71.3900  220.2110 C   0  0  0  0  0  0  0  0  0  0  0  0
  141.5500   71.8870  221.5010 C   0  0  0  0  0  0  0  0  0  0  0  0
  142.2170   73.2060  221.1700 C   0  0  0  0  0  0  0  0  0  0  0  0
  141.1070   74.2180  220.9940 C   0  0  1  0  0  0  0  0  0  0  0  0
  141.7050   75.4280  220.3120 C   0  0  0  0  0  0  0  0  0  0  0  0
  140.9900   76.5740  220.8330 N   0  0  0  0  0  0  0  0  0  0  0  0
  141.5300   77.8410  220.3890 C   0  0  0  0  0  0  0  0  0  0  0  0
  141.7000   78.7050  221.5840 C   0  0  0  0  0  0  0  0  0  0  0  0
  142.1500   80.0250  221.4880 C   0  0  0  0  0  0  0  0  0  0  0  0
  142.3070   80.8250  222.5980 C   0  0  0  0  0  0  0  0  0  0  0  0
  142.0140   80.3160  223.8470 C   0  0  0  0  0  0  0  0  0  0  0  0
  141.5660   79.0140  223.9900 C   0  0  0  0  0  0  0  0  0  0  0  0
  141.4220   78.2460  222.8550 C   0  0  0  0  0  0  0  0  0  0  0  0
  138.7450   70.8840  223.6000 C   0  0  0  0  0  0  0  0  0  0  0  0
  138.6660   69.5190  223.6420 C   0  0  0  0  0  0  0  0  0  0  0  0
  139.1770   68.7420  224.6620 C   0  0  0  0  0  0  0  0  0  0  0  0
  139.8050   69.4220  225.6940 C   0  0  0  0  0  0  0  0  0  0  0  0
  140.3310   68.6830  226.7380 C   0  0  0  0  0  0  0  0  0  0  0  0
  140.9670   69.3450  227.7880 C   0  0  0  0  0  0  0  0  0  0  0  0
  141.0520   70.7270  227.7540 C   0  0  0  0  0  0  0  0  0  0  0  0
  140.5150   71.4540  226.6920 C   0  0  0  0  0  0  0  0  0  0  0  0
  139.8760   70.7990  225.6360 C   0  0  0  0  0  0  0  0  0  0  0  0
  139.3600   71.5090  224.6170 N   0  0  0  0  0  0  0  0  0  0  0  0
  138.8570   73.5790  223.0570 H   0  0  0  0  0  0  0  0  0  0  0  0
  137.1905   72.8606  220.5897 H   0  0  0  0  0  0  0  0  0  0  0  0
  136.9945   74.4033  221.5105 H   0  0  0  0  0  0  0  0  0  0  0  0
  139.3118   72.1070  219.0417 H   0  0  0  0  0  0  0  0  0  0  0  0
  140.9495   72.7847  218.6234 H   0  0  0  0  0  0  0  0  0  0  0  0
  140.1910   70.6184  220.4491 H   0  0  0  0  0  0  0  0  0  0  0  0
  141.7506   70.9873  219.5886 H   0  0  0  0  0  0  0  0  0  0  0  0
  140.7693   72.0345  222.2617 H   0  0  0  0  0  0  0  0  0  0  0  0
  142.2716   71.1633  221.9080 H   0  0  0  0  0  0  0  0  0  0  0  0
  142.8827   73.5114  221.9907 H   0  0  0  0  0  0  0  0  0  0  0  0
  142.8282   73.1244  220.2591 H   0  0  0  0  0  0  0  0  0  0  0  0
  140.6886   74.5043  221.9702 H   0  0  0  0  0  0  0  0  0  0  0  0
  142.7769   75.5077  220.5458 H   0  0  0  0  0  0  0  0  0  0  0  0
  141.6140   75.3597  219.2179 H   0  0  0  0  0  0  0  0  0  0  0  0
  139.9730   76.5050  220.7260 H   0  0  0  0  0  0  0  0  0  0  0  0
  142.5026   77.6827  219.9002 H   0  0  0  0  0  0  0  0  0  0  0  0
  140.8514   78.3155  219.6649 H   0  0  0  0  0  0  0  0  0  0  0  0
  142.3858   80.4372  220.4958 H   0  0  0  0  0  0  0  0  0  0  0  0
  142.6627   81.8603  222.4901 H   0  0  0  0  0  0  0  0  0  0  0  0
  142.1376   80.9507  224.7369 H   0  0  0  0  0  0  0  0  0  0  0  0
  141.3312   78.6035  224.9832 H   0  0  0  0  0  0  0  0  0  0  0  0
  141.0663   77.2113  222.9684 H   0  0  0  0  0  0  0  0  0  0  0  0
  138.1624   69.0072  222.8086 H   0  0  0  0  0  0  0  0  0  0  0  0
  139.0908   67.6454  224.6563 H   0  0  0  0  0  0  0  0  0  0  0  0
  140.2487   67.5861  226.7402 H   0  0  0  0  0  0  0  0  0  0  0  0
  141.3939   68.7790  228.6290 H   0  0  0  0  0  0  0  0  0  0  0  0
  141.5508   71.2593  228.5773 H   0  0  0  0  0  0  0  0  0  0  0  0
  140.5950   72.5511  226.6856 H   0  0  0  0  0  0  0  0  0  0  0  0
  1  2  2  0
  2  3  1  0
  3  4  1  0
  4  5  1  0
  5  6  2  0
  5  7  1  0
  7  8  1  0
  8  9  1  0
  9 10  1  0
 10 11  1  0
 11 12  1  0
 12 13  1  0
 13 14  1  0
 14 15  1  0
 15 16  1  0
 16 17  2  0
 17 18  1  0
 18 19  2  0
 19 20  1  0
 20 21  2  0
  2 22  1  0
 22 23  2  0
 23 24  1  0
 24 25  2  0
 25 26  1  0
 26 27  2  0
 27 28  1  0
 28 29  2  0
 29 30  1  0
 30 31  2  0
 12  7  1  0
 21 16  1  0
 31 22  1  0
 30 25  1  0
  3 32  1  0
  4 33  1  0
  4 34  1  0
  8 35  1  0
  8 36  1  0
  9 37  1  0
  9 38  1  0
 10 39  1  0
 10 40  1  0
 11 41  1  0
 11 42  1  0
 12 43  1  1
 13 44  1  0
 13 45  1  0
 14 46  1  0
 15 47  1  0
 15 48  1  0
 17 49  1  0
 18 50  1  0
 19 51  1  0
 20 52  1  0
 21 53  1  0
 23 54  1  0
 24 55  1  0
 26 56  1  0
 27 57  1  0
 28 58  1  0
 29 59  1  0
M  END
>  <smiles>  (11) 
O=C(NCC(=O)N1CCCC[C@H]1CNCc1ccccc1)c1ccc2ccccc2n1

>  <score_type>  (11) 
oracle

>  <origin>  (11) 
autodockgpu

>  <m_score__min__energy>  (11) 
-9.9600000000000009

>  <m_primary>  (11) 
energy

>  <rmsd>  (11) 
3.1563300878190104

>  <m_score__min__rmsd>  (11) 
3.1563300878190104

>  <meeko>  (11) 
{"free_energy": -7.44, "intermolecular_energy": -9.83, "internal_energy": -2.89, "cluster_size": 30, "cluster_id": 1, "rank_in_cluster": 29}

>  <energy>  (11) 
-8.81

>  <cluster_rmsd>  (11) 
1.68

>  <cluster>  (11) 
1

$$$$

     RDKit          3D

 59 62  0  0  0  0  0  0  0  0999 V2000
  140.7430   71.9170  221.1480 O   0  0  0  0  0  0  0  0  0  0  0  0
  140.2900   72.4180  222.2310 C   0  0  0  0  0  0  0  0  0  0  0  0
  139.9010   73.7940  222.2780 N   0  0  0  0  0  0  0  0  0  0  0  0
  140.0630   74.5370  221.0240 C   0  0  0  0  0  0  0  0  0  0  0  0
  139.4810   75.8950  221.1360 C   0  0  0  0  0  0  0  0  0  0  0  0
  138.2380   76.1160  221.0130 O   0  0  0  0  0  0  0  0  0  0  0  0
  140.3810   76.9670  221.3920 N   0  0  0  0  0  0  0  0  0  0  0  0
  141.0600   77.1510  222.6580 C   0  0  0  0  0  0  0  0  0  0  0  0
  140.8960   78.5390  223.2100 C   0  0  0  0  0  0  0  0  0  0  0  0
  140.4320   79.5260  222.1630 C   0  0  0  0  0  0  0  0  0  0  0  0
  141.2220   79.2120  220.9100 C   0  0  0  0  0  0  0  0  0  0  0  0
  140.6450   77.9350  220.3450 C   0  0  1  0  0  0  0  0  0  0  0  0
  141.6300   77.4060  219.3270 C   0  0  0  0  0  0  0  0  0  0  0  0
  142.6300   76.6790  220.0800 N   0  0  0  0  0  0  0  0  0  0  0  0
  143.6680   76.1020  219.2530 C   0  0  0  0  0  0  0  0  0  0  0  0
  144.0020   74.7670  219.8090 C   0  0  0  0  0  0  0  0  0  0  0  0
  143.1350   73.6760  219.6930 C   0  0  0  0  0  0  0  0  0  0  0  0
  143.4470   72.4380  220.2090 C   0  0  0  0  0  0  0  0  0  0  0  0
  144.6490   72.2590  220.8620 C   0  0  0  0  0  0  0  0  0  0  0  0
  145.5390   73.3100  221.0010 C   0  0  0  0  0  0  0  0  0  0  0  0
  145.1900   74.5340  220.4700 C   0  0  0  0  0  0  0  0  0  0  0  0
  140.1720   71.5760  223.4290 C   0  0  0  0  0  0  0  0  0  0  0  0
  139.5240   70.3740  223.3460 C   0  0  0  0  0  0  0  0  0  0  0  0
  139.3560   69.5070  224.4060 C   0  0  0  0  0  0  0  0  0  0  0  0
  139.8930   69.9110  225.6180 C   0  0  0  0  0  0  0  0  0  0  0  0
  139.7480   69.0720  226.7090 C   0  0  0  0  0  0  0  0  0  0  0  0
  140.2790   69.4570  227.9390 C   0  0  0  0  0  0  0  0  0  0  0  0
  140.9380   70.6720  228.0330 C   0  0  0  0  0  0  0  0  0  0  0  0
  141.0740   71.5040  226.9220 C   0  0  0  0  0  0  0  0  0  0  0  0
  140.5450   71.1260  225.6850 C   0  0  0  0  0  0  0  0  0  0  0  0
  140.6800   71.9340  224.6190 N   0  0  0  0  0  0  0  0  0  0  0  0
  139.5270   74.2360  223.1460 H   0  0  0  0  0  0  0  0  0  0  0  0
  141.1348   74.6224  220.7917 H   0  0  0  0  0  0  0  0  0  0  0  0
  139.5388   73.9945  220.2234 H   0  0  0  0  0  0  0  0  0  0  0  0
  140.6505   76.4333  223.3841 H   0  0  0  0  0  0  0  0  0  0  0  0
  142.1340   76.9881  222.4847 H   0  0  0  0  0  0  0  0  0  0  0  0
  140.1542   78.5107  224.0218 H   0  0  0  0  0  0  0  0  0  0  0  0
  141.8791   78.8733  223.5729 H   0  0  0  0  0  0  0  0  0  0  0  0
  139.3549   79.4053  221.9754 H   0  0  0  0  0  0  0  0  0  0  0  0
  140.5931   80.5639  222.4899 H   0  0  0  0  0  0  0  0  0  0  0  0
  141.1193   80.0298  220.1816 H   0  0  0  0  0  0  0  0  0  0  0  0
  142.2929   79.0985  221.1341 H   0  0  0  0  0  0  0  0  0  0  0  0
  139.6756   78.1311  219.8636 H   0  0  0  0  0  0  0  0  0  0  0  0
  141.1233   76.7353  218.6175 H   0  0  0  0  0  0  0  0  0  0  0  0
  142.0803   78.2206  218.7408 H   0  0  0  0  0  0  0  0  0  0  0  0
  142.9930   77.1980  220.8860 H   0  0  0  0  0  0  0  0  0  0  0  0
  143.3075   75.9971  218.2191 H   0  0  0  0  0  0  0  0  0  0  0  0
  144.5577   76.7488  219.2464 H   0  0  0  0  0  0  0  0  0  0  0  0
  142.1746   73.8108  219.1738 H   0  0  0  0  0  0  0  0  0  0  0  0
  142.7438   71.5990  220.1014 H   0  0  0  0  0  0  0  0  0  0  0  0
  144.9025   71.2719  221.2760 H   0  0  0  0  0  0  0  0  0  0  0  0
  146.4986   73.1726  221.5209 H   0  0  0  0  0  0  0  0  0  0  0  0
  145.8971   75.3694  220.5795 H   0  0  0  0  0  0  0  0  0  0  0  0
  139.1099   70.0795  222.3704 H   0  0  0  0  0  0  0  0  0  0  0  0
  138.8259   68.5495  224.2954 H   0  0  0  0  0  0  0  0  0  0  0  0
  139.2199   68.1125  226.6067 H   0  0  0  0  0  0  0  0  0  0  0  0
  140.1765   68.8069  228.8204 H   0  0  0  0  0  0  0  0  0  0  0  0
  141.3606   70.9854  228.9990 H   0  0  0  0  0  0  0  0  0  0  0  0
  141.6013   72.4644  227.0201 H   0  0  0  0  0  0  0  0  0  0  0  0
  1  2  2  0
  2  3  1  0
  3  4  1  0
  4  5  1  0
  5  6  2  0
  5  7  1  0
  7  8  1  0
  8  9  1  0
  9 10  1  0
 10 11  1  0
 11 12  1  0
 12 13  1  0
 13 14  1  0
 14 15  1  0
 15 16  1  0
 16 17  2  0
 17 18  1  0
 18 19  2  0
 19 20  1  0
 20 21  2  0
  2 22  1  0
 22 23  2  0
 23 24  1  0
 24 25  2  0
 25 26  1  0
 26 27  2  0
 27 28  1  0
 28 29  2  0
 29 30  1  0
 30 31  2  0
 12  7  1  0
 21 16  1  0
 31 22  1  0
 30 25  1  0
  3 32  1  0
  4 33  1  0
  4 34  1  0
  8 35  1  0
  8 36  1  0
  9 37  1  0
  9 38  1  0
 10 39  1  0
 10 40  1  0
 11 41  1  0
 11 42  1  0
 12 43  1  6
 13 44  1  0
 13 45  1  0
 14 46  1  0
 15 47  1  0
 15 48  1  0
 17 49  1  0
 18 50  1  0
 19 51  1  0
 20 52  1  0
 21 53  1  0
 23 54  1  0
 24 55  1  0
 26 56  1  0
 27 57  1  0
 28 58  1  0
 29 59  1  0
M  END
>  <smiles>  (12) 
O=C(NCC(=O)N1CCCC[C@H]1CNCc1ccccc1)c1ccc2ccccc2n1

>  <score_type>  (12) 
oracle

>  <origin>  (12) 
autodockgpu

>  <m_score__min__energy>  (12) 
-9.9600000000000009

>  <m_primary>  (12) 
energy

>  <rmsd>  (12) 
5.135913956387886

>  <m_score__min__rmsd>  (12) 
5.135913956387886

>  <meeko>  (12) 
{"free_energy": -8.92, "intermolecular_energy": -11.3, "internal_energy": -2.11, "cluster_size": 5, "cluster_id": 2, "rank_in_cluster": 3}

>  <energy>  (12) 
-8.78

>  <cluster_rmsd>  (12) 
1.06

>  <cluster>  (12) 
1

$$$$

     RDKit          3D

 59 62  0  0  0  0  0  0  0  0999 V2000
  141.4140   73.0240  221.6350 O   0  0  0  0  0  0  0  0  0  0  0  0
  140.3860   72.9970  222.3900 C   0  0  0  0  0  0  0  0  0  0  0  0
  139.4250   74.0550  222.3330 N   0  0  0  0  0  0  0  0  0  0  0  0
  139.7190   75.1200  221.3700 C   0  0  0  0  0  0  0  0  0  0  0  0
  139.4900   76.4550  221.9710 C   0  0  0  0  0  0  0  0  0  0  0  0
  138.4310   76.7430  222.6080 O   0  0  0  0  0  0  0  0  0  0  0  0
  140.5190   77.4250  221.8080 N   0  0  0  0  0  0  0  0  0  0  0  0
  141.4180   77.8170  222.8750 C   0  0  0  0  0  0  0  0  0  0  0  0
  141.4830   79.3070  223.0620 C   0  0  0  0  0  0  0  0  0  0  0  0
  140.9440   80.0630  221.8690 C   0  0  0  0  0  0  0  0  0  0  0  0
  141.4750   79.3500  220.6430 C   0  0  0  0  0  0  0  0  0  0  0  0
  140.6900   78.0640  220.5190 C   0  0  1  0  0  0  0  0  0  0  0  0
  141.4330   77.1750  219.5470 C   0  0  0  0  0  0  0  0  0  0  0  0
  142.5220   76.5860  220.2970 N   0  0  0  0  0  0  0  0  0  0  0  0
  143.6570   76.2230  219.4760 C   0  0  0  0  0  0  0  0  0  0  0  0
  144.0580   74.8410  219.8420 C   0  0  0  0  0  0  0  0  0  0  0  0
  145.1890   74.5780  220.6210 C   0  0  0  0  0  0  0  0  0  0  0  0
  145.5590   73.2950  220.9590 C   0  0  0  0  0  0  0  0  0  0  0  0
  144.7970   72.2320  220.5210 C   0  0  0  0  0  0  0  0  0  0  0  0
  143.6690   72.4450  219.7470 C   0  0  0  0  0  0  0  0  0  0  0  0
  143.3320   73.7430  219.4300 C   0  0  0  0  0  0  0  0  0  0  0  0
  140.1950   71.8750  223.3200 C   0  0  0  0  0  0  0  0  0  0  0  0
  139.5160   70.7630  222.9030 C   0  0  0  0  0  0  0  0  0  0  0  0
  139.2800   69.6550  223.6910 C   0  0  0  0  0  0  0  0  0  0  0  0
  139.7780   69.7070  224.9840 C   0  0  0  0  0  0  0  0  0  0  0  0
  139.5640   68.6180  225.8090 C   0  0  0  0  0  0  0  0  0  0  0  0
  140.0560   68.6460  227.1140 C   0  0  0  0  0  0  0  0  0  0  0  0
  140.7440   69.7670  227.5460 C   0  0  0  0  0  0  0  0  0  0  0  0
  140.9490   70.8550  226.6980 C   0  0  0  0  0  0  0  0  0  0  0  0
  140.4610   70.8360  225.3890 C   0  0  0  0  0  0  0  0  0  0  0  0
  140.6630   71.8890  224.5780 N   0  0  0  0  0  0  0  0  0  0  0  0
  138.5730   74.0640  222.9360 H   0  0  0  0  0  0  0  0  0  0  0  0
  140.7705   75.0418  221.0566 H   0  0  0  0  0  0  0  0  0  0  0  0
  139.0502   75.0052  220.5043 H   0  0  0  0  0  0  0  0  0  0  0  0
  141.0709   77.3596  223.8132 H   0  0  0  0  0  0  0  0  0  0  0  0
  142.4265   77.4724  222.6026 H   0  0  0  0  0  0  0  0  0  0  0  0
  140.8906   79.5777  223.9485 H   0  0  0  0  0  0  0  0  0  0  0  0
  142.5408   79.5833  223.1834 H   0  0  0  0  0  0  0  0  0  0  0  0
  139.8441   80.0476  221.8728 H   0  0  0  0  0  0  0  0  0  0  0  0
  141.2573   81.1173  221.8872 H   0  0  0  0  0  0  0  0  0  0  0  0
  141.3279   79.9725  219.7481 H   0  0  0  0  0  0  0  0  0  0  0  0
  142.5528   79.1502  220.7353 H   0  0  0  0  0  0  0  0  0  0  0  0
  139.6755   78.2666  220.1450 H   0  0  0  0  0  0  0  0  0  0  0  0
  140.7663   76.3899  219.1609 H   0  0  0  0  0  0  0  0  0  0  0  0
  141.8019   77.7446  218.6813 H   0  0  0  0  0  0  0  0  0  0  0  0
  142.7790   77.1200  221.1330 H   0  0  0  0  0  0  0  0  0  0  0  0
  143.3777   76.2625  218.4128 H   0  0  0  0  0  0  0  0  0  0  0  0
  144.4903   76.9216  219.6417 H   0  0  0  0  0  0  0  0  0  0  0  0
  145.8014   75.4207  220.9744 H   0  0  0  0  0  0  0  0  0  0  0  0
  146.4546   73.1196  221.5731 H   0  0  0  0  0  0  0  0  0  0  0  0
  145.0882   71.2057  220.7891 H   0  0  0  0  0  0  0  0  0  0  0  0
  143.0582   71.6008  219.3946 H   0  0  0  0  0  0  0  0  0  0  0  0
  142.4357   73.9126  218.8153 H   0  0  0  0  0  0  0  0  0  0  0  0
  139.1330   70.7513  221.8719 H   0  0  0  0  0  0  0  0  0  0  0  0
  138.7285   68.7807  223.3149 H   0  0  0  0  0  0  0  0  0  0  0  0
  139.0125   67.7404  225.4407 H   0  0  0  0  0  0  0  0  0  0  0  0
  139.8999   67.7914  227.7887 H   0  0  0  0  0  0  0  0  0  0  0  0
  141.1349   69.8000  228.5737 H   0  0  0  0  0  0  0  0  0  0  0  0
  141.4992   71.7350  227.0626 H   0  0  0  0  0  0  0  0  0  0  0  0
  1  2  2  0
  2  3  1  0
  3  4  1  0
  4  5  1  0
  5  6  2  0
  5  7  1  0
  7  8  1  0
  8  9  1  0
  9 10  1  0
 10 11  1  0
 11 12  1  0
 12 13  1  0
 13 14  1  0
 14 15  1  0
 15 16  1  0
 16 17  2  0
 17 18  1  0
 18 19  2  0
 19 20  1  0
 20 21  2  0
  2 22  1  0
 22 23  2  0
 23 24  1  0
 24 25  2  0
 25 26  1  0
 26 27  2  0
 27 28  1  0
 28 29  2  0
 29 30  1  0
 30 31  2  0
 12  7  1  0
 21 16  1  0
 31 22  1  0
 30 25  1  0
  3 32  1  0
  4 33  1  0
  4 34  1  0
  8 35  1  0
  8 36  1  0
  9 37  1  0
  9 38  1  0
 10 39  1  0
 10 40  1  0
 11 41  1  0
 11 42  1  0
 12 43  1  6
 13 44  1  0
 13 45  1  0
 14 46  1  0
 15 47  1  0
 15 48  1  0
 17 49  1  0
 18 50  1  0
 19 51  1  0
 20 52  1  0
 21 53  1  0
 23 54  1  0
 24 55  1  0
 26 56  1  0
 27 57  1  0
 28 58  1  0
 29 59  1  0
M  END
>  <smiles>  (13) 
O=C(NCC(=O)N1CCCC[C@H]1CNCc1ccccc1)c1ccc2ccccc2n1

>  <score_type>  (13) 
oracle

>  <origin>  (13) 
autodockgpu

>  <m_score__min__energy>  (13) 
-9.9600000000000009

>  <m_primary>  (13) 
energy

>  <rmsd>  (13) 
5.285000816132081

>  <m_score__min__rmsd>  (13) 
5.285000816132081

>  <meeko>  (13) 
{"free_energy": -8.99, "intermolecular_energy": -11.37, "internal_energy": -2.06, "cluster_size": 5, "cluster_id": 2, "rank_in_cluster": 2}

>  <energy>  (13) 
-8.75

>  <cluster_rmsd>  (13) 
1.15

>  <cluster>  (13) 
1

$$$$

     RDKit          3D

 59 62  0  0  0  0  0  0  0  0999 V2000
  139.9250   73.1800  222.7320 O   0  0  0  0  0  0  0  0  0  0  0  0
  140.2850   71.9570  222.7890 C   0  0  0  0  0  0  0  0  0  0  0  0
  140.6880   71.2710  221.6000 N   0  0  0  0  0  0  0  0  0  0  0  0
  140.6510   72.0690  220.3700 C   0  0  0  0  0  0  0  0  0  0  0  0
  141.5610   73.2340  220.4670 C   0  0  0  0  0  0  0  0  0  0  0  0
  142.6290   73.2090  221.1510 O   0  0  0  0  0  0  0  0  0  0  0  0
  141.1910   74.4080  219.7530 N   0  0  0  0  0  0  0  0  0  0  0  0
  141.1400   74.4750  218.3060 C   0  0  0  0  0  0  0  0  0  0  0  0
  141.9080   75.6420  217.7510 C   0  0  0  0  0  0  0  0  0  0  0  0
  142.2020   76.6910  218.7990 C   0  0  0  0  0  0  0  0  0  0  0  0
  140.9360   76.8360  219.6170 C   0  0  0  0  0  0  0  0  0  0  0  0
  140.8440   75.6060  220.4910 C   0  0  1  0  0  0  0  0  0  0  0  0
  139.4350   75.5420  221.0330 C   0  0  0  0  0  0  0  0  0  0  0  0
  139.5180   75.9720  222.4130 N   0  0  0  0  0  0  0  0  0  0  0  0
  138.8230   77.2140  222.6740 C   0  0  0  0  0  0  0  0  0  0  0  0
  139.8440   78.2620  222.9250 C   0  0  0  0  0  0  0  0  0  0  0  0
  141.2140   77.9860  222.8930 C   0  0  0  0  0  0  0  0  0  0  0  0
  142.1600   78.9600  223.1260 C   0  0  0  0  0  0  0  0  0  0  0  0
  141.7510   80.2490  223.3990 C   0  0  0  0  0  0  0  0  0  0  0  0
  140.4050   80.5680  223.4410 C   0  0  0  0  0  0  0  0  0  0  0  0
  139.4900   79.5660  223.2030 C   0  0  0  0  0  0  0  0  0  0  0  0
  140.2830   71.2560  224.0810 C   0  0  0  0  0  0  0  0  0  0  0  0
  140.6960   71.9160  225.2050 C   0  0  0  0  0  0  0  0  0  0  0  0
  140.7330   71.3550  226.4660 C   0  0  0  0  0  0  0  0  0  0  0  0
  140.3180   70.0370  226.5610 C   0  0  0  0  0  0  0  0  0  0  0  0
  140.3390   69.4340  227.8060 C   0  0  0  0  0  0  0  0  0  0  0  0
  139.9260   68.1080  227.9280 C   0  0  0  0  0  0  0  0  0  0  0  0
  139.5060   67.4310  226.7950 C   0  0  0  0  0  0  0  0  0  0  0  0
  139.4920   68.0570  225.5480 C   0  0  0  0  0  0  0  0  0  0  0  0
  139.9040   69.3850  225.4170 C   0  0  0  0  0  0  0  0  0  0  0  0
  139.8870   69.9800  224.2120 N   0  0  0  0  0  0  0  0  0  0  0  0
  140.9890   70.2720  221.6100 H   0  0  0  0  0  0  0  0  0  0  0  0
  140.9612   71.4394  219.5230 H   0  0  0  0  0  0  0  0  0  0  0  0
  139.6250   72.4365  220.2207 H   0  0  0  0  0  0  0  0  0  0  0  0
  141.5650   73.5471  217.8957 H   0  0  0  0  0  0  0  0  0  0  0  0
  140.0865   74.6032  218.0166 H   0  0  0  0  0  0  0  0  0  0  0  0
  142.8609   75.2750  217.3418 H   0  0  0  0  0  0  0  0  0  0  0  0
  141.2882   76.1109  216.9726 H   0  0  0  0  0  0  0  0  0  0  0  0
  143.0353   76.3670  219.4398 H   0  0  0  0  0  0  0  0  0  0  0  0
  142.4943   77.6466  218.3392 H   0  0  0  0  0  0  0  0  0  0  0  0
  140.9880   77.7412  220.2398 H   0  0  0  0  0  0  0  0  0  0  0  0
  140.0526   76.9289  218.9682 H   0  0  0  0  0  0  0  0  0  0  0  0
  141.5637   75.6690  221.3205 H   0  0  0  0  0  0  0  0  0  0  0  0
  138.7754   76.2126  220.4628 H   0  0  0  0  0  0  0  0  0  0  0  0
  139.0179   74.5274  220.9517 H   0  0  0  0  0  0  0  0  0  0  0  0
  139.2950   75.2320  223.0860 H   0  0  0  0  0  0  0  0  0  0  0  0
  138.2101   77.4898  221.8032 H   0  0  0  0  0  0  0  0  0  0  0  0
  138.1601   77.1073  223.5453 H   0  0  0  0  0  0  0  0  0  0  0  0
  141.5467   76.9604  222.6753 H   0  0  0  0  0  0  0  0  0  0  0  0
  143.2313   78.7123  223.0947 H   0  0  0  0  0  0  0  0  0  0  0  0
  142.5021   81.0308  223.5851 H   0  0  0  0  0  0  0  0  0  0  0  0
  140.0745   81.5944  223.6586 H   0  0  0  0  0  0  0  0  0  0  0  0
  138.4201   79.8192  223.2364 H   0  0  0  0  0  0  0  0  0  0  0  0
  141.0198   72.9618  225.0976 H   0  0  0  0  0  0  0  0  0  0  0  0
  141.0727   71.9224  227.3450 H   0  0  0  0  0  0  0  0  0  0  0  0
  140.6778   69.9945  228.6898 H   0  0  0  0  0  0  0  0  0  0  0  0
  139.9336   67.6078  228.9077 H   0  0  0  0  0  0  0  0  0  0  0  0
  139.1786   66.3843  226.8795 H   0  0  0  0  0  0  0  0  0  0  0  0
  139.1539   67.5004  224.6615 H   0  0  0  0  0  0  0  0  0  0  0  0
  1  2  2  0
  2  3  1  0
  3  4  1  0
  4  5  1  0
  5  6  2  0
  5  7  1  0
  7  8  1  0
  8  9  1  0
  9 10  1  0
 10 11  1  0
 11 12  1  0
 12 13  1  0
 13 14  1  0
 14 15  1  0
 15 16  1  0
 16 17  2  0
 17 18  1  0
 18 19  2  0
 19 20  1  0
 20 21  2  0
  2 22  1  0
 22 23  2  0
 23 24  1  0
 24 25  2  0
 25 26  1  0
 26 27  2  0
 27 28  1  0
 28 29  2  0
 29 30  1  0
 30 31  2  0
 12  7  1  0
 21 16  1  0
 31 22  1  0
 30 25  1  0
  3 32  1  0
  4 33  1  0
  4 34  1  0
  8 35  1  0
  8 36  1  0
  9 37  1  0
  9 38  1  0
 10 39  1  0
 10 40  1  0
 11 41  1  0
 11 42  1  0
 12 43  1  1
 13 44  1  0
 13 45  1  0
 14 46  1  0
 15 47  1  0
 15 48  1  0
 17 49  1  0
 18 50  1  0
 19 51  1  0
 20 52  1  0
 21 53  1  0
 23 54  1  0
 24 55  1  0
 26 56  1  0
 27 57  1  0
 28 58  1  0
 29 59  1  0
M  END
>  <smiles>  (14) 
O=C(NCC(=O)N1CCCC[C@H]1CNCc1ccccc1)c1ccc2ccccc2n1

>  <score_type>  (14) 
oracle

>  <origin>  (14) 
autodockgpu

>  <m_score__min__energy>  (14) 
-9.9600000000000009

>  <m_primary>  (14) 
energy

>  <rmsd>  (14) 
3.3687682852345633

>  <m_score__min__rmsd>  (14) 
3.3687682852345633

>  <meeko>  (14) 
{"free_energy": -8.46, "intermolecular_energy": -10.85, "internal_energy": -2.5, "cluster_size": 30, "cluster_id": 1, "rank_in_cluster": 21}

>  <energy>  (14) 
-8.74

>  <cluster_rmsd>  (14) 
1.11

>  <cluster>  (14) 
1

$$$$

     RDKit          3D

 59 62  0  0  0  0  0  0  0  0999 V2000
  140.7070   73.9590  222.3350 O   0  0  0  0  0  0  0  0  0  0  0  0
  140.2080   72.7900  222.2200 C   0  0  0  0  0  0  0  0  0  0  0  0
  139.6830   72.3540  220.9630 N   0  0  0  0  0  0  0  0  0  0  0  0
  139.7690   73.3300  219.8720 C   0  0  0  0  0  0  0  0  0  0  0  0
  141.1520   73.4150  219.3470 C   0  0  0  0  0  0  0  0  0  0  0  0
  141.9680   72.4460  219.4150 O   0  0  0  0  0  0  0  0  0  0  0  0
  141.5440   74.6460  218.7490 N   0  0  0  0  0  0  0  0  0  0  0  0
  141.4550   74.9030  217.3260 C   0  0  0  0  0  0  0  0  0  0  0  0
  142.7440   75.4150  216.7460 C   0  0  0  0  0  0  0  0  0  0  0  0
  143.6900   75.9320  217.8060 C   0  0  0  0  0  0  0  0  0  0  0  0
  142.8400   76.7190  218.7810 C   0  0  0  0  0  0  0  0  0  0  0  0
  142.0610   75.7070  219.5900 C   0  0  1  0  0  0  0  0  0  0  0  0
  140.9530   76.4530  220.2980 C   0  0  0  0  0  0  0  0  0  0  0  0
  141.4110   76.6550  221.6560 N   0  0  0  0  0  0  0  0  0  0  0  0
  140.4270   77.2840  222.5100 C   0  0  0  0  0  0  0  0  0  0  0  0
  140.9260   78.6380  222.8590 C   0  0  0  0  0  0  0  0  0  0  0  0
  140.0630   79.6770  223.2190 C   0  0  0  0  0  0  0  0  0  0  0  0
  140.5290   80.9320  223.5430 C   0  0  0  0  0  0  0  0  0  0  0  0
  141.8860   81.1800  223.5140 C   0  0  0  0  0  0  0  0  0  0  0  0
  142.7770   80.1810  223.1630 C   0  0  0  0  0  0  0  0  0  0  0  0
  142.2720   78.9380  222.8450 C   0  0  0  0  0  0  0  0  0  0  0  0
  140.1740   71.8950  223.3850 C   0  0  0  0  0  0  0  0  0  0  0  0
  139.6330   70.6450  223.2580 C   0  0  0  0  0  0  0  0  0  0  0  0
  139.5510   69.7260  224.2850 C   0  0  0  0  0  0  0  0  0  0  0  0
  140.0600   70.1290  225.5090 C   0  0  0  0  0  0  0  0  0  0  0  0
  139.9980   69.2390  226.5660 C   0  0  0  0  0  0  0  0  0  0  0  0
  140.5040   69.6220  227.8080 C   0  0  0  0  0  0  0  0  0  0  0  0
  141.0540   70.8860  227.9460 C   0  0  0  0  0  0  0  0  0  0  0  0
  141.1070   71.7680  226.8680 C   0  0  0  0  0  0  0  0  0  0  0  0
  140.6030   71.3930  225.6200 C   0  0  0  0  0  0  0  0  0  0  0  0
  140.6580   72.2500  224.5860 N   0  0  0  0  0  0  0  0  0  0  0  0
  139.2680   71.4050  220.8330 H   0  0  0  0  0  0  0  0  0  0  0  0
  139.0936   73.0229  219.0599 H   0  0  0  0  0  0  0  0  0  0  0  0
  139.4788   74.3176  220.2600 H   0  0  0  0  0  0  0  0  0  0  0  0
  141.1872   73.9661  216.8155 H   0  0  0  0  0  0  0  0  0  0  0  0
  140.6918   75.6809  217.1765 H   0  0  0  0  0  0  0  0  0  0  0  0
  143.2368   74.5952  216.2027 H   0  0  0  0  0  0  0  0  0  0  0  0
  142.5002   76.2537  216.0774 H   0  0  0  0  0  0  0  0  0  0  0  0
  144.1825   75.0933  218.3198 H   0  0  0  0  0  0  0  0  0  0  0  0
  144.4812   76.5577  217.3673 H   0  0  0  0  0  0  0  0  0  0  0  0
  143.4802   77.3215  219.4421 H   0  0  0  0  0  0  0  0  0  0  0  0
  142.1651   77.4082  218.2522 H   0  0  0  0  0  0  0  0  0  0  0  0
  142.7147   75.2168  220.3265 H   0  0  0  0  0  0  0  0  0  0  0  0
  140.7707   77.4210  219.8084 H   0  0  0  0  0  0  0  0  0  0  0  0
  140.0081   75.8904  220.2714 H   0  0  0  0  0  0  0  0  0  0  0  0
  141.8390   75.8220  222.0720 H   0  0  0  0  0  0  0  0  0  0  0  0
  139.4674   77.3647  221.9784 H   0  0  0  0  0  0  0  0  0  0  0  0
  140.2709   76.6863  223.4202 H   0  0  0  0  0  0  0  0  0  0  0  0
  138.9799   79.4868  223.2443 H   0  0  0  0  0  0  0  0  0  0  0  0
  139.8252   81.7299  223.8225 H   0  0  0  0  0  0  0  0  0  0  0  0
  142.2629   82.1806  223.7722 H   0  0  0  0  0  0  0  0  0  0  0  0
  143.8597   80.3735  223.1383 H   0  0  0  0  0  0  0  0  0  0  0  0
  142.9800   78.1439  222.5654 H   0  0  0  0  0  0  0  0  0  0  0  0
  139.2377   70.3532  222.2738 H   0  0  0  0  0  0  0  0  0  0  0  0
  139.1067   68.7302  224.1397 H   0  0  0  0  0  0  0  0  0  0  0  0
  139.5551   68.2415  226.4287 H   0  0  0  0  0  0  0  0  0  0  0  0
  140.4670   68.9319  228.6638 H   0  0  0  0  0  0  0  0  0  0  0  0
  141.4551   71.1984  228.9214 H   0  0  0  0  0  0  0  0  0  0  0  0
  141.5488   72.7666  227.0008 H   0  0  0  0  0  0  0  0  0  0  0  0
  1  2  2  0
  2  3  1  0
  3  4  1  0
  4  5  1  0
  5  6  2  0
  5  7  1  0
  7  8  1  0
  8  9  1  0
  9 10  1  0
 10 11  1  0
 11 12  1  0
 12 13  1  0
 13 14  1  0
 14 15  1  0
 15 16  1  0
 16 17  2  0
 17 18  1  0
 18 19  2  0
 19 20  1  0
 20 21  2  0
  2 22  1  0
 22 23  2  0
 23 24  1  0
 24 25  2  0
 25 26  1  0
 26 27  2  0
 27 28  1  0
 28 29  2  0
 29 30  1  0
 30 31  2  0
 12  7  1  0
 21 16  1  0
 31 22  1  0
 30 25  1  0
  3 32  1  0
  4 33  1  0
  4 34  1  0
  8 35  1  0
  8 36  1  0
  9 37  1  0
  9 38  1  0
 10 39  1  0
 10 40  1  0
 11 41  1  0
 11 42  1  0
 12 43  1  1
 13 44  1  0
 13 45  1  0
 14 46  1  0
 15 47  1  0
 15 48  1  0
 17 49  1  0
 18 50  1  0
 19 51  1  0
 20 52  1  0
 21 53  1  0
 23 54  1  0
 24 55  1  0
 26 56  1  0
 27 57  1  0
 28 58  1  0
 29 59  1  0
M  END
>  <smiles>  (15) 
O=C(NCC(=O)N1CCCC[C@H]1CNCc1ccccc1)c1ccc2ccccc2n1

>  <score_type>  (15) 
oracle

>  <origin>  (15) 
autodockgpu

>  <m_score__min__energy>  (15) 
-9.9600000000000009

>  <m_primary>  (15) 
energy

>  <rmsd>  (15) 
2.4655985395551716

>  <m_score__min__rmsd>  (15) 
2.4655985395551716

>  <meeko>  (15) 
{"free_energy": -8.33, "intermolecular_energy": -10.71, "internal_energy": -2.26, "cluster_size": 30, "cluster_id": 1, "rank_in_cluster": 23}

>  <energy>  (15) 
-8.74

>  <cluster_rmsd>  (15) 
1.73

>  <cluster>  (15) 
1

$$$$

     RDKit          3D

 59 62  0  0  0  0  0  0  0  0999 V2000
  140.2380   70.6600  221.4490 O   0  0  0  0  0  0  0  0  0  0  0  0
  139.9070   71.2180  222.5480 C   0  0  0  0  0  0  0  0  0  0  0  0
  139.5690   72.6070  222.5750 N   0  0  0  0  0  0  0  0  0  0  0  0
  139.6340   73.2960  221.2830 C   0  0  0  0  0  0  0  0  0  0  0  0
  140.6510   74.3730  221.3080 C   0  0  0  0  0  0  0  0  0  0  0  0
  140.4940   75.4430  221.9710 O   0  0  0  0  0  0  0  0  0  0  0  0
  141.8360   74.1630  220.5480 N   0  0  0  0  0  0  0  0  0  0  0  0
  142.2010   72.8810  219.9810 C   0  0  0  0  0  0  0  0  0  0  0  0
  143.6030   72.4670  220.3310 C   0  0  0  0  0  0  0  0  0  0  0  0
  144.4400   73.6250  220.8260 C   0  0  0  0  0  0  0  0  0  0  0  0
  144.1140   74.7960  219.9230 C   0  0  0  0  0  0  0  0  0  0  0  0
  142.7360   75.2760  220.3200 C   0  0  1  0  0  0  0  0  0  0  0  0
  142.2400   76.1820  219.2160 C   0  0  0  0  0  0  0  0  0  0  0  0
  142.4330   77.5350  219.6920 N   0  0  0  0  0  0  0  0  0  0  0  0
  141.2380   78.1260  220.2540 C   0  0  0  0  0  0  0  0  0  0  0  0
  141.6210   78.8240  221.5070 C   0  0  0  0  0  0  0  0  0  0  0  0
  142.1950   80.0990  221.5010 C   0  0  0  0  0  0  0  0  0  0  0  0
  142.5490   80.7440  222.6650 C   0  0  0  0  0  0  0  0  0  0  0  0
  142.3350   80.1220  223.8770 C   0  0  0  0  0  0  0  0  0  0  0  0
  141.7700   78.8600  223.9310 C   0  0  0  0  0  0  0  0  0  0  0  0
  141.4280   78.2470  222.7450 C   0  0  0  0  0  0  0  0  0  0  0  0
  139.8770   70.4260  223.7860 C   0  0  0  0  0  0  0  0  0  0  0  0
  139.2330   69.2190  223.7970 C   0  0  0  0  0  0  0  0  0  0  0  0
  139.1440   68.3960  224.9020 C   0  0  0  0  0  0  0  0  0  0  0  0
  139.7590   68.8540  226.0570 C   0  0  0  0  0  0  0  0  0  0  0  0
  139.6940   68.0610  227.1880 C   0  0  0  0  0  0  0  0  0  0  0  0
  140.3040   68.5000  228.3630 C   0  0  0  0  0  0  0  0  0  0  0  0
  140.9590   69.7210  228.3610 C   0  0  0  0  0  0  0  0  0  0  0  0
  141.0130   70.5050  227.2090 C   0  0  0  0  0  0  0  0  0  0  0  0
  140.4040   70.0730  226.0280 C   0  0  0  0  0  0  0  0  0  0  0  0
  140.4610   70.8360  224.9230 N   0  0  0  0  0  0  0  0  0  0  0  0
  139.2930   73.0950  223.4560 H   0  0  0  0  0  0  0  0  0  0  0  0
  139.8982   72.5695  220.5005 H   0  0  0  0  0  0  0  0  0  0  0  0
  138.6518   73.7453  221.0749 H   0  0  0  0  0  0  0  0  0  0  0  0
  141.5045   72.1183  220.3594 H   0  0  0  0  0  0  0  0  0  0  0  0
  142.1472   72.9757  218.8864 H   0  0  0  0  0  0  0  0  0  0  0  0
  143.5587   71.7010  221.1192 H   0  0  0  0  0  0  0  0  0  0  0  0
  144.0757   72.0784  219.4169 H   0  0  0  0  0  0  0  0  0  0  0  0
  144.1826   73.8637  221.8685 H   0  0  0  0  0  0  0  0  0  0  0  0
  145.5131   73.3847  220.8003 H   0  0  0  0  0  0  0  0  0  0  0  0
  144.8512   75.6003  220.0631 H   0  0  0  0  0  0  0  0  0  0  0  0
  144.1416   74.5004  218.8638 H   0  0  0  0  0  0  0  0  0  0  0  0
  142.7790   75.8287  221.2701 H   0  0  0  0  0  0  0  0  0  0  0  0
  142.8186   76.0147  218.2956 H   0  0  0  0  0  0  0  0  0  0  0  0
  141.1841   75.9858  218.9782 H   0  0  0  0  0  0  0  0  0  0  0  0
  143.2600   77.6450  220.2880 H   0  0  0  0  0  0  0  0  0  0  0  0
  140.8063   78.8452  219.5423 H   0  0  0  0  0  0  0  0  0  0  0  0
  140.4873   77.3493  220.4618 H   0  0  0  0  0  0  0  0  0  0  0  0
  142.3689   80.6016  220.5381 H   0  0  0  0  0  0  0  0  0  0  0  0
  142.9988   81.7472  222.6283 H   0  0  0  0  0  0  0  0  0  0  0  0
  142.6160   80.6337  224.8093 H   0  0  0  0  0  0  0  0  0  0  0  0
  141.5984   78.3592  224.8952 H   0  0  0  0  0  0  0  0  0  0  0  0
  140.9772   77.2445  222.7879 H   0  0  0  0  0  0  0  0  0  0  0  0
  138.7552   68.8824  222.8651 H   0  0  0  0  0  0  0  0  0  0  0  0
  138.6153   67.4320  224.8679 H   0  0  0  0  0  0  0  0  0  0  0  0
  139.1675   67.0955  227.1613 H   0  0  0  0  0  0  0  0  0  0  0  0
  140.2657   67.8873  229.2758 H   0  0  0  0  0  0  0  0  0  0  0  0
  141.4437   70.0773  229.2819 H   0  0  0  0  0  0  0  0  0  0  0  0
  141.5390   71.4708  227.2302 H   0  0  0  0  0  0  0  0  0  0  0  0
  1  2  2  0
  2  3  1  0
  3  4  1  0
  4  5  1  0
  5  6  2  0
  5  7  1  0
  7  8  1  0
  8  9  1  0
  9 10  1  0
 10 11  1  0
 11 12  1  0
 12 13  1  0
 13 14  1  0
 14 15  1  0
 15 16  1  0
 16 17  2  0
 17 18  1  0
 18 19  2  0
 19 20  1  0
 20 21  2  0
  2 22  1  0
 22 23  2  0
 23 24  1  0
 24 25  2  0
 25 26  1  0
 26 27  2  0
 27 28  1  0
 28 29  2  0
 29 30  1  0
 30 31  2  0
 12  7  1  0
 21 16  1  0
 31 22  1  0
 30 25  1  0
  3 32  1  0
  4 33  1  0
  4 34  1  0
  8 35  1  0
  8 36  1  0
  9 37  1  0
  9 38  1  0
 10 39  1  0
 10 40  1  0
 11 41  1  0
 11 42  1  0
 12 43  1  1
 13 44  1  0
 13 45  1  0
 14 46  1  0
 15 47  1  0
 15 48  1  0
 17 49  1  0
 18 50  1  0
 19 51  1  0
 20 52  1  0
 21 53  1  0
 23 54  1  0
 24 55  1  0
 26 56  1  0
 27 57  1  0
 28 58  1  0
 29 59  1  0
M  END
>  <smiles>  (16) 
O=C(NCC(=O)N1CCCC[C@H]1CNCc1ccccc1)c1ccc2ccccc2n1

>  <score_type>  (16) 
oracle

>  <origin>  (16) 
autodockgpu

>  <m_score__min__energy>  (16) 
-9.9600000000000009

>  <m_primary>  (16) 
energy

>  <rmsd>  (16) 
3.1702241560846987

>  <m_score__min__rmsd>  (16) 
3.1702241560846987

>  <meeko>  (16) 
{"free_energy": -9.96, "intermolecular_energy": -12.35, "internal_energy": -1.88, "cluster_size": 30, "cluster_id": 1, "rank_in_cluster": 1}

>  <energy>  (16) 
-8.73

>  <cluster_rmsd>  (16) 
1.48

>  <cluster>  (16) 
1

$$$$

     RDKit          3D

 59 62  0  0  0  0  0  0  0  0999 V2000
  139.9320   70.5400  221.4320 O   0  0  0  0  0  0  0  0  0  0  0  0
  139.8410   71.1460  222.5520 C   0  0  0  0  0  0  0  0  0  0  0  0
  139.7340   72.5720  222.5900 N   0  0  0  0  0  0  0  0  0  0  0  0
  139.7380   73.2390  221.2850 C   0  0  0  0  0  0  0  0  0  0  0  0
  140.4760   74.5220  221.3480 C   0  0  0  0  0  0  0  0  0  0  0  0
  140.2830   75.3740  222.2680 O   0  0  0  0  0  0  0  0  0  0  0  0
  141.4290   74.7730  220.3220 N   0  0  0  0  0  0  0  0  0  0  0  0
  141.7270   73.8280  219.2650 C   0  0  0  0  0  0  0  0  0  0  0  0
  143.1990   73.5600  219.1220 C   0  0  0  0  0  0  0  0  0  0  0  0
  144.0460   74.6110  219.8030 C   0  0  0  0  0  0  0  0  0  0  0  0
  143.4040   75.9440  219.4800 C   0  0  0  0  0  0  0  0  0  0  0  0
  142.1490   76.0310  220.3170 C   0  0  1  0  0  0  0  0  0  0  0  0
  141.3090   77.1560  219.7540 C   0  0  0  0  0  0  0  0  0  0  0  0
  140.5780   77.7080  220.8750 N   0  0  0  0  0  0  0  0  0  0  0  0
  140.2990   79.1220  220.7410 C   0  0  0  0  0  0  0  0  0  0  0  0
  141.0310   79.8330  221.8200 C   0  0  0  0  0  0  0  0  0  0  0  0
  141.0930   81.2290  221.8800 C   0  0  0  0  0  0  0  0  0  0  0  0
  141.7720   81.8860  222.8820 C   0  0  0  0  0  0  0  0  0  0  0  0
  142.4120   81.1530  223.8600 C   0  0  0  0  0  0  0  0  0  0  0  0
  142.3770   79.7700  223.8410 C   0  0  0  0  0  0  0  0  0  0  0  0
  141.6870   79.1490  222.8220 C   0  0  0  0  0  0  0  0  0  0  0  0
  139.8470   70.3720  223.8010 C   0  0  0  0  0  0  0  0  0  0  0  0
  139.2210   69.1570  223.8430 C   0  0  0  0  0  0  0  0  0  0  0  0
  139.1660   68.3480  224.9600 C   0  0  0  0  0  0  0  0  0  0  0  0
  139.7990   68.8310  226.0950 C   0  0  0  0  0  0  0  0  0  0  0  0
  139.7690   68.0540  227.2390 C   0  0  0  0  0  0  0  0  0  0  0  0
  140.3980   68.5170  228.3940 C   0  0  0  0  0  0  0  0  0  0  0  0
  141.0350   69.7470  228.3610 C   0  0  0  0  0  0  0  0  0  0  0  0
  141.0540   70.5160  227.1980 C   0  0  0  0  0  0  0  0  0  0  0  0
  140.4260   70.0590  226.0360 C   0  0  0  0  0  0  0  0  0  0  0  0
  140.4490   70.8070  224.9190 N   0  0  0  0  0  0  0  0  0  0  0  0
  139.6570   73.0990  223.4880 H   0  0  0  0  0  0  0  0  0  0  0  0
  140.2207   72.5820  220.5465 H   0  0  0  0  0  0  0  0  0  0  0  0
  138.6978   73.4465  220.9937 H   0  0  0  0  0  0  0  0  0  0  0  0
  141.2169   72.8792  219.4876 H   0  0  0  0  0  0  0  0  0  0  0  0
  141.3767   74.2672  218.3193 H   0  0  0  0  0  0  0  0  0  0  0  0
  143.4246   72.5806  219.5691 H   0  0  0  0  0  0  0  0  0  0  0  0
  143.4402   73.5790  218.0489 H   0  0  0  0  0  0  0  0  0  0  0  0
  144.0569   74.4463  220.8905 H   0  0  0  0  0  0  0  0  0  0  0  0
  145.0889   74.5731  219.4552 H   0  0  0  0  0  0  0  0  0  0  0  0
  144.0882   76.7668  219.7347 H   0  0  0  0  0  0  0  0  0  0  0  0
  143.1727   76.0242  218.4076 H   0  0  0  0  0  0  0  0  0  0  0  0
  142.4012   76.2379  221.3675 H   0  0  0  0  0  0  0  0  0  0  0  0
  141.9532   77.9246  219.3020 H   0  0  0  0  0  0  0  0  0  0  0  0
  140.6292   76.7964  218.9675 H   0  0  0  0  0  0  0  0  0  0  0  0
  139.7580   77.1550  221.1410 H   0  0  0  0  0  0  0  0  0  0  0  0
  140.6408   79.4795  219.7584 H   0  0  0  0  0  0  0  0  0  0  0  0
  139.2181   79.3099  220.8214 H   0  0  0  0  0  0  0  0  0  0  0  0
  140.5843   81.8197  221.1039 H   0  0  0  0  0  0  0  0  0  0  0  0
  141.8038   82.9854  222.9024 H   0  0  0  0  0  0  0  0  0  0  0  0
  142.9554   81.6731  224.6626 H   0  0  0  0  0  0  0  0  0  0  0  0
  142.8863   79.1816  224.6184 H   0  0  0  0  0  0  0  0  0  0  0  0
  141.6580   78.0495  222.8072 H   0  0  0  0  0  0  0  0  0  0  0  0
  138.7287   68.8008  222.9260 H   0  0  0  0  0  0  0  0  0  0  0  0
  138.6500   67.3766  224.9502 H   0  0  0  0  0  0  0  0  0  0  0  0
  139.2546   67.0817  227.2375 H   0  0  0  0  0  0  0  0  0  0  0  0
  140.3887   67.9162  229.3154 H   0  0  0  0  0  0  0  0  0  0  0  0
  141.5336   70.1228  229.2666 H   0  0  0  0  0  0  0  0  0  0  0  0
  141.5668   71.4891  227.1950 H   0  0  0  0  0  0  0  0  0  0  0  0
  1  2  2  0
  2  3  1  0
  3  4  1  0
  4  5  1  0
  5  6  2  0
  5  7  1  0
  7  8  1  0
  8  9  1  0
  9 10  1  0
 10 11  1  0
 11 12  1  0
 12 13  1  0
 13 14  1  0
 14 15  1  0
 15 16  1  0
 16 17  2  0
 17 18  1  0
 18 19  2  0
 19 20  1  0
 20 21  2  0
  2 22  1  0
 22 23  2  0
 23 24  1  0
 24 25  2  0
 25 26  1  0
 26 27  2  0
 27 28  1  0
 28 29  2  0
 29 30  1  0
 30 31  2  0
 12  7  1  0
 21 16  1  0
 31 22  1  0
 30 25  1  0
  3 32  1  0
  4 33  1  0
  4 34  1  0
  8 35  1  0
  8 36  1  0
  9 37  1  0
  9 38  1  0
 10 39  1  0
 10 40  1  0
 11 41  1  0
 11 42  1  0
 12 43  1  1
 13 44  1  0
 13 45  1  0
 14 46  1  0
 15 47  1  0
 15 48  1  0
 17 49  1  0
 18 50  1  0
 19 51  1  0
 20 52  1  0
 21 53  1  0
 23 54  1  0
 24 55  1  0
 26 56  1  0
 27 57  1  0
 28 58  1  0
 29 59  1  0
M  END
>  <smiles>  (17) 
O=C(NCC(=O)N1CCCC[C@H]1CNCc1ccccc1)c1ccc2ccccc2n1

>  <score_type>  (17) 
oracle

>  <origin>  (17) 
autodockgpu

>  <m_score__min__energy>  (17) 
-9.9600000000000009

>  <m_primary>  (17) 
energy

>  <rmsd>  (17) 
2.6080568909600323

>  <m_score__min__rmsd>  (17) 
2.6080568909600323

>  <meeko>  (17) 
{"free_energy": -8.78, "intermolecular_energy": -11.17, "internal_energy": -2.31, "cluster_size": 30, "cluster_id": 1, "rank_in_cluster": 12}

>  <energy>  (17) 
-8.68

>  <cluster_rmsd>  (17) 
1.76

>  <cluster>  (17) 
1

$$$$

     RDKit          3D

 59 62  0  0  0  0  0  0  0  0999 V2000
  140.8880   71.4330  221.2880 O   0  0  0  0  0  0  0  0  0  0  0  0
  140.3820   72.0790  222.2660 C   0  0  0  0  0  0  0  0  0  0  0  0
  139.9860   73.4430  222.0990 N   0  0  0  0  0  0  0  0  0  0  0  0
  140.2050   74.0020  220.7620 C   0  0  0  0  0  0  0  0  0  0  0  0
  139.1730   75.0150  220.4370 C   0  0  0  0  0  0  0  0  0  0  0  0
  138.8310   75.2810  219.2450 O   0  0  0  0  0  0  0  0  0  0  0  0
  138.5650   75.6950  221.5300 N   0  0  0  0  0  0  0  0  0  0  0  0
  137.5340   75.1050  222.3580 C   0  0  0  0  0  0  0  0  0  0  0  0
  136.3220   75.9850  222.4930 C   0  0  0  0  0  0  0  0  0  0  0  0
  136.6030   77.4180  222.1000 C   0  0  0  0  0  0  0  0  0  0  0  0
  137.9550   77.7600  222.6890 C   0  0  0  0  0  0  0  0  0  0  0  0
  138.9860   77.0460  221.8450 C   0  0  1  0  0  0  0  0  0  0  0  0
  140.2880   77.0630  222.6130 C   0  0  0  0  0  0  0  0  0  0  0  0
  141.3380   76.9620  221.6220 N   0  0  0  0  0  0  0  0  0  0  0  0
  141.5940   78.2030  220.9240 C   0  0  0  0  0  0  0  0  0  0  0  0
  141.7120   79.2800  221.9390 C   0  0  0  0  0  0  0  0  0  0  0  0
  140.6990   80.2200  222.1460 C   0  0  0  0  0  0  0  0  0  0  0  0
  140.8110   81.2180  223.0890 C   0  0  0  0  0  0  0  0  0  0  0  0
  141.9540   81.2990  223.8570 C   0  0  0  0  0  0  0  0  0  0  0  0
  142.9830   80.3890  223.6870 C   0  0  0  0  0  0  0  0  0  0  0  0
  142.8330   79.4050  222.7330 C   0  0  0  0  0  0  0  0  0  0  0  0
  140.2090   71.4130  223.5660 C   0  0  0  0  0  0  0  0  0  0  0  0
  139.5000   70.2460  223.6350 C   0  0  0  0  0  0  0  0  0  0  0  0
  139.2780   69.5400  224.8010 C   0  0  0  0  0  0  0  0  0  0  0  0
  139.8250   70.0780  225.9550 C   0  0  0  0  0  0  0  0  0  0  0  0
  139.6270   69.4030  227.1460 C   0  0  0  0  0  0  0  0  0  0  0  0
  140.1670   69.9240  228.3220 C   0  0  0  0  0  0  0  0  0  0  0  0
  140.8870   71.1050  228.2610 C   0  0  0  0  0  0  0  0  0  0  0  0
  141.0750   71.7700  227.0500 C   0  0  0  0  0  0  0  0  0  0  0  0
  140.5380   71.2560  225.8680 C   0  0  0  0  0  0  0  0  0  0  0  0
  140.7250   71.9040  224.7040 N   0  0  0  0  0  0  0  0  0  0  0  0
  139.5690   73.9990  222.8770 H   0  0  0  0  0  0  0  0  0  0  0  0
  141.1975   74.4750  220.7275 H   0  0  0  0  0  0  0  0  0  0  0  0
  140.1421   73.1872  220.0256 H   0  0  0  0  0  0  0  0  0  0  0  0
  137.2263   74.1492  221.9088 H   0  0  0  0  0  0  0  0  0  0  0  0
  137.9561   74.9652  223.3641 H   0  0  0  0  0  0  0  0  0  0  0  0
  135.5253   75.5908  221.8450 H   0  0  0  0  0  0  0  0  0  0  0  0
  136.0206   75.9804  223.5509 H   0  0  0  0  0  0  0  0  0  0  0  0
  136.6287   77.5150  221.0046 H   0  0  0  0  0  0  0  0  0  0  0  0
  135.8207   78.0963  222.4714 H   0  0  0  0  0  0  0  0  0  0  0  0
  138.1211   78.8468  222.6525 H   0  0  0  0  0  0  0  0  0  0  0  0
  138.0195   77.4488  223.7421 H   0  0  0  0  0  0  0  0  0  0  0  0
  139.1125   77.5562  220.8787 H   0  0  0  0  0  0  0  0  0  0  0  0
  140.3856   78.0013  223.1788 H   0  0  0  0  0  0  0  0  0  0  0  0
  140.3383   76.2376  223.3384 H   0  0  0  0  0  0  0  0  0  0  0  0
  142.1880   76.5090  221.9720 H   0  0  0  0  0  0  0  0  0  0  0  0
  142.5302   78.1241  220.3519 H   0  0  0  0  0  0  0  0  0  0  0  0
  140.7760   78.4246  220.2227 H   0  0  0  0  0  0  0  0  0  0  0  0
  139.7845   80.1613  221.5376 H   0  0  0  0  0  0  0  0  0  0  0  0
  139.9963   81.9438  223.2283 H   0  0  0  0  0  0  0  0  0  0  0  0
  142.0485   82.0940  224.6114 H   0  0  0  0  0  0  0  0  0  0  0  0
  143.8964   80.4493  224.2970 H   0  0  0  0  0  0  0  0  0  0  0  0
  143.6504   78.6814  222.5979 H   0  0  0  0  0  0  0  0  0  0  0  0
  139.0793   69.8435  222.7017 H   0  0  0  0  0  0  0  0  0  0  0  0
  138.7000   68.6041  224.8130 H   0  0  0  0  0  0  0  0  0  0  0  0
  139.0505   68.4664  227.1656 H   0  0  0  0  0  0  0  0  0  0  0  0
  140.0232   69.4054  229.2814 H   0  0  0  0  0  0  0  0  0  0  0  0
  141.3173   71.5251  229.1820 H   0  0  0  0  0  0  0  0  0  0  0  0
  141.6509   72.7069  227.0256 H   0  0  0  0  0  0  0  0  0  0  0  0
  1  2  2  0
  2  3  1  0
  3  4  1  0
  4  5  1  0
  5  6  2  0
  5  7  1  0
  7  8  1  0
  8  9  1  0
  9 10  1  0
 10 11  1  0
 11 12  1  0
 12 13  1  0
 13 14  1  0
 14 15  1  0
 15 16  1  0
 16 17  2  0
 17 18  1  0
 18 19  2  0
 19 20  1  0
 20 21  2  0
  2 22  1  0
 22 23  2  0
 23 24  1  0
 24 25  2  0
 25 26  1  0
 26 27  2  0
 27 28  1  0
 28 29  2  0
 29 30  1  0
 30 31  2  0
 12  7  1  0
 21 16  1  0
 31 22  1  0
 30 25  1  0
  3 32  1  0
  4 33  1  0
  4 34  1  0
  8 35  1  0
  8 36  1  0
  9 37  1  0
  9 38  1  0
 10 39  1  0
 10 40  1  0
 11 41  1  0
 11 42  1  0
 12 43  1  6
 13 44  1  0
 13 45  1  0
 14 46  1  0
 15 47  1  0
 15 48  1  0
 17 49  1  0
 18 50  1  0
 19 51  1  0
 20 52  1  0
 21 53  1  0
 23 54  1  0
 24 55  1  0
 26 56  1  0
 27 57  1  0
 28 58  1  0
 29 59  1  0
M  END
>  <smiles>  (18) 
O=C(NCC(=O)N1CCCC[C@H]1CNCc1ccccc1)c1ccc2ccccc2n1

>  <score_type>  (18) 
oracle

>  <origin>  (18) 
autodockgpu

>  <m_score__min__energy>  (18) 
-9.9600000000000009

>  <m_primary>  (18) 
energy

>  <rmsd>  (18) 
3.2973965453842986

>  <m_score__min__rmsd>  (18) 
3.2973965453842986

>  <meeko>  (18) 
{"free_energy": -8.99, "intermolecular_energy": -11.37, "internal_energy": -1.82, "cluster_size": 2, "cluster_id": 3, "rank_in_cluster": 1}

>  <energy>  (18) 
-8.6

>  <cluster_rmsd>  (18) 
1.66

>  <cluster>  (18) 
1

$$$$

     RDKit          3D

 59 62  0  0  0  0  0  0  0  0999 V2000
  138.0630   75.7540  222.0220 O   0  0  0  0  0  0  0  0  0  0  0  0
  139.3100   76.0260  222.0310 C   0  0  0  0  0  0  0  0  0  0  0  0
  140.2610   75.0520  221.5940 N   0  0  0  0  0  0  0  0  0  0  0  0
  139.6960   73.7730  221.1540 C   0  0  0  0  0  0  0  0  0  0  0  0
  139.4990   72.8580  222.3030 C   0  0  0  0  0  0  0  0  0  0  0  0
  140.4280   72.5820  223.1210 O   0  0  0  0  0  0  0  0  0  0  0  0
  138.2050   72.2860  222.4620 N   0  0  0  0  0  0  0  0  0  0  0  0
  137.0540   72.6960  221.6840 C   0  0  0  0  0  0  0  0  0  0  0  0
  135.8640   73.0330  222.5390 C   0  0  0  0  0  0  0  0  0  0  0  0
  135.9900   72.4890  223.9440 C   0  0  0  0  0  0  0  0  0  0  0  0
  136.5490   71.0890  223.8050 C   0  0  0  0  0  0  0  0  0  0  0  0
  138.0100   71.2420  223.4480 C   0  0  1  0  0  0  0  0  0  0  0  0
  138.4950   69.9000  222.9470 C   0  0  0  0  0  0  0  0  0  0  0  0
  139.6510   69.5670  223.7520 N   0  0  0  0  0  0  0  0  0  0  0  0
  139.3140   69.0960  225.0780 C   0  0  0  0  0  0  0  0  0  0  0  0
  139.9250   70.0280  226.0600 C   0  0  0  0  0  0  0  0  0  0  0  0
  139.6400   69.9580  227.4270 C   0  0  0  0  0  0  0  0  0  0  0  0
  140.2080   70.8230  228.3360 C   0  0  0  0  0  0  0  0  0  0  0  0
  141.0850   71.7910  227.8930 C   0  0  0  0  0  0  0  0  0  0  0  0
  141.3970   71.8980  226.5480 C   0  0  0  0  0  0  0  0  0  0  0  0
  140.8080   71.0130  225.6700 C   0  0  0  0  0  0  0  0  0  0  0  0
  139.7630   77.3450  222.4940 C   0  0  0  0  0  0  0  0  0  0  0  0
  138.8420   78.2660  222.9110 C   0  0  0  0  0  0  0  0  0  0  0  0
  139.1570   79.5310  223.3650 C   0  0  0  0  0  0  0  0  0  0  0  0
  140.5040   79.8550  223.3870 C   0  0  0  0  0  0  0  0  0  0  0  0
  140.8650   81.1130  223.8340 C   0  0  0  0  0  0  0  0  0  0  0  0
  142.2150   81.4620  223.8660 C   0  0  0  0  0  0  0  0  0  0  0  0
  143.1560   80.5370  223.4460 C   0  0  0  0  0  0  0  0  0  0  0  0
  142.7710   79.2730  222.9980 C   0  0  0  0  0  0  0  0  0  0  0  0
  141.4210   78.9150  222.9630 C   0  0  0  0  0  0  0  0  0  0  0  0
  141.0590   77.6940  222.5300 N   0  0  0  0  0  0  0  0  0  0  0  0
  141.2880   75.2410  221.5880 H   0  0  0  0  0  0  0  0  0  0  0  0
  138.7258   73.9558  220.6689 H   0  0  0  0  0  0  0  0  0  0  0  0
  140.3968   73.3039  220.4477 H   0  0  0  0  0  0  0  0  0  0  0  0
  137.3262   73.5839  221.0945 H   0  0  0  0  0  0  0  0  0  0  0  0
  136.7708   71.8504  221.0400 H   0  0  0  0  0  0  0  0  0  0  0  0
  135.7656   74.1273  222.5916 H   0  0  0  0  0  0  0  0  0  0  0  0
  134.9788   72.5699  222.0786 H   0  0  0  0  0  0  0  0  0  0  0  0
  136.6734   73.1156  224.5359 H   0  0  0  0  0  0  0  0  0  0  0  0
  135.0191   72.4840  224.4610 H   0  0  0  0  0  0  0  0  0  0  0  0
  136.4452   70.5427  224.7541 H   0  0  0  0  0  0  0  0  0  0  0  0
  136.0090   70.5205  223.0334 H   0  0  0  0  0  0  0  0  0  0  0  0
  138.5916   71.5471  224.3304 H   0  0  0  0  0  0  0  0  0  0  0  0
  137.7104   69.1392  223.0719 H   0  0  0  0  0  0  0  0  0  0  0  0
  138.7466   69.9367  221.8768 H   0  0  0  0  0  0  0  0  0  0  0  0
  140.3290   68.9700  223.2680 H   0  0  0  0  0  0  0  0  0  0  0  0
  138.2213   69.0832  225.2041 H   0  0  0  0  0  0  0  0  0  0  0  0
  139.6928   68.0746  225.2307 H   0  0  0  0  0  0  0  0  0  0  0  0
  138.9410   69.1889  227.7874 H   0  0  0  0  0  0  0  0  0  0  0  0
  139.9644   70.7425  229.4057 H   0  0  0  0  0  0  0  0  0  0  0  0
  141.5409   72.4846  228.6149 H   0  0  0  0  0  0  0  0  0  0  0  0
  142.0959   72.6683  226.1898 H   0  0  0  0  0  0  0  0  0  0  0  0
  141.0556   71.0971  224.6015 H   0  0  0  0  0  0  0  0  0  0  0  0
  137.7802   77.9799  222.8827 H   0  0  0  0  0  0  0  0  0  0  0  0
  138.3828   80.2413  223.6908 H   0  0  0  0  0  0  0  0  0  0  0  0
  140.0968   81.8296  224.1603 H   0  0  0  0  0  0  0  0  0  0  0  0
  142.5271   82.4559  224.2191 H   0  0  0  0  0  0  0  0  0  0  0  0
  144.2232   80.8028  223.4659 H   0  0  0  0  0  0  0  0  0  0  0  0
  143.5356   78.5534  222.6701 H   0  0  0  0  0  0  0  0  0  0  0  0
  1  2  2  0
  2  3  1  0
  3  4  1  0
  4  5  1  0
  5  6  2  0
  5  7  1  0
  7  8  1  0
  8  9  1  0
  9 10  1  0
 10 11  1  0
 11 12  1  0
 12 13  1  0
 13 14  1  0
 14 15  1  0
 15 16  1  0
 16 17  2  0
 17 18  1  0
 18 19  2  0
 19 20  1  0
 20 21  2  0
  2 22  1  0
 22 23  2  0
 23 24  1  0
 24 25  2  0
 25 26  1  0
 26 27  2  0
 27 28  1  0
 28 29  2  0
 29 30  1  0
 30 31  2  0
 12  7  1  0
 21 16  1  0
 31 22  1  0
 30 25  1  0
  3 32  1  0
  4 33  1  0
  4 34  1  0
  8 35  1  0
  8 36  1  0
  9 37  1  0
  9 38  1  0
 10 39  1  0
 10 40  1  0
 11 41  1  0
 11 42  1  0
 12 43  1  1
 13 44  1  0
 13 45  1  0
 14 46  1  0
 15 47  1  0
 15 48  1  0
 17 49  1  0
 18 50  1  0
 19 51  1  0
 20 52  1  0
 21 53  1  0
 23 54  1  0
 24 55  1  0
 26 56  1  0
 27 57  1  0
 28 58  1  0
 29 59  1  0
M  END
>  <smiles>  (19) 
O=C(NCC(=O)N1CCCC[C@H]1CNCc1ccccc1)c1ccc2ccccc2n1

>  <score_type>  (19) 
oracle

>  <origin>  (19) 
autodockgpu

>  <m_score__min__energy>  (19) 
-9.9600000000000009

>  <m_primary>  (19) 
energy

>  <rmsd>  (19) 
9.283107074512685

>  <m_score__min__rmsd>  (19) 
9.283107074512685

>  <meeko>  (19) 
{"free_energy": -8.59, "intermolecular_energy": -10.98, "internal_energy": -2.16, "cluster_size": 7, "cluster_id": 4, "rank_in_cluster": 2}

>  <energy>  (19) 
-8.56

>  <cluster_rmsd>  (19) 
1.93

>  <cluster>  (19) 
1

$$$$

     RDKit          3D

 59 62  0  0  0  0  0  0  0  0999 V2000
  140.6080   73.3570  222.7010 O   0  0  0  0  0  0  0  0  0  0  0  0
  140.0350   72.2190  222.6190 C   0  0  0  0  0  0  0  0  0  0  0  0
  139.4340   71.8050  221.3890 N   0  0  0  0  0  0  0  0  0  0  0  0
  139.5350   72.7640  220.2850 C   0  0  0  0  0  0  0  0  0  0  0  0
  138.8330   74.0260  220.6150 C   0  0  0  0  0  0  0  0  0  0  0  0
  137.7780   74.0560  221.3180 O   0  0  0  0  0  0  0  0  0  0  0  0
  139.3940   75.2320  220.1070 N   0  0  0  0  0  0  0  0  0  0  0  0
  138.5990   76.3000  219.5350 C   0  0  0  0  0  0  0  0  0  0  0  0
  139.0900   76.7300  218.1810 C   0  0  0  0  0  0  0  0  0  0  0  0
  140.5030   76.2660  217.9050 C   0  0  0  0  0  0  0  0  0  0  0  0
  141.2780   76.4900  219.1860 C   0  0  0  0  0  0  0  0  0  0  0  0
  140.8310   75.4180  220.1540 C   0  0  1  0  0  0  0  0  0  0  0  0
  141.2980   75.8320  221.5310 C   0  0  0  0  0  0  0  0  0  0  0  0
  140.1060   75.9170  222.3480 N   0  0  0  0  0  0  0  0  0  0  0  0
  139.4770   77.2200  222.3170 C   0  0  0  0  0  0  0  0  0  0  0  0
  140.5520   78.2430  222.3320 C   0  0  0  0  0  0  0  0  0  0  0  0
  140.8240   79.0510  221.2230 C   0  0  0  0  0  0  0  0  0  0  0  0
  141.8220   80.0000  221.2390 C   0  0  0  0  0  0  0  0  0  0  0  0
  142.5810   80.1660  222.3790 C   0  0  0  0  0  0  0  0  0  0  0  0
  142.3480   79.3890  223.5010 C   0  0  0  0  0  0  0  0  0  0  0  0
  141.3400   78.4500  223.4450 C   0  0  0  0  0  0  0  0  0  0  0  0
  139.9950   71.3380  223.7950 C   0  0  0  0  0  0  0  0  0  0  0  0
  139.3680   70.1260  223.7060 C   0  0  0  0  0  0  0  0  0  0  0  0
  139.2720   69.2230  224.7460 C   0  0  0  0  0  0  0  0  0  0  0  0
  139.8610   69.6020  225.9420 C   0  0  0  0  0  0  0  0  0  0  0  0
  139.7880   68.7270  227.0110 C   0  0  0  0  0  0  0  0  0  0  0  0
  140.3730   69.0860  228.2250 C   0  0  0  0  0  0  0  0  0  0  0  0
  141.0110   70.3120  228.3240 C   0  0  0  0  0  0  0  0  0  0  0  0
  141.0730   71.1800  227.2340 C   0  0  0  0  0  0  0  0  0  0  0  0
  140.4900   70.8280  226.0140 C   0  0  0  0  0  0  0  0  0  0  0  0
  140.5550   71.6710  224.9690 N   0  0  0  0  0  0  0  0  0  0  0  0
  138.9580   70.8820  221.2870 H   0  0  0  0  0  0  0  0  0  0  0  0
  140.5960   72.9817  220.0930 H   0  0  0  0  0  0  0  0  0  0  0  0
  139.0656   72.3236  219.3930 H   0  0  0  0  0  0  0  0  0  0  0  0
  137.5601   75.9517  219.4379 H   0  0  0  0  0  0  0  0  0  0  0  0
  138.6771   77.1676  220.2067 H   0  0  0  0  0  0  0  0  0  0  0  0
  138.4238   76.3088  217.4137 H   0  0  0  0  0  0  0  0  0  0  0  0
  139.0879   77.8298  218.1576 H   0  0  0  0  0  0  0  0  0  0  0  0
  140.5087   75.1991  217.6373 H   0  0  0  0  0  0  0  0  0  0  0  0
  140.9494   76.8175  217.0644 H   0  0  0  0  0  0  0  0  0  0  0  0
  142.3581   76.4037  218.9963 H   0  0  0  0  0  0  0  0  0  0  0  0
  141.0908   77.4948  219.5925 H   0  0  0  0  0  0  0  0  0  0  0  0
  141.2705   74.4466  219.8833 H   0  0  0  0  0  0  0  0  0  0  0  0
  141.9900   75.0818  221.9415 H   0  0  0  0  0  0  0  0  0  0  0  0
  141.8360   76.7910  221.5025 H   0  0  0  0  0  0  0  0  0  0  0  0
  139.4490   75.1450  222.1960 H   0  0  0  0  0  0  0  0  0  0  0  0
  138.8749   77.3232  221.4022 H   0  0  0  0  0  0  0  0  0  0  0  0
  138.8134   77.3471  223.1850 H   0  0  0  0  0  0  0  0  0  0  0  0
  140.2227   78.9246  220.3106 H   0  0  0  0  0  0  0  0  0  0  0  0
  142.0122   80.6201  220.3506 H   0  0  0  0  0  0  0  0  0  0  0  0
  143.3789   80.9229  222.3967 H   0  0  0  0  0  0  0  0  0  0  0  0
  142.9507   79.5173  224.4122 H   0  0  0  0  0  0  0  0  0  0  0  0
  141.1541   77.8325  224.3362 H   0  0  0  0  0  0  0  0  0  0  0  0
  138.9106   69.8529  222.7436 H   0  0  0  0  0  0  0  0  0  0  0  0
  138.7573   68.2576  224.6319 H   0  0  0  0  0  0  0  0  0  0  0  0
  139.2748   67.7599  226.9048 H   0  0  0  0  0  0  0  0  0  0  0  0
  140.3287   68.4072  229.0895 H   0  0  0  0  0  0  0  0  0  0  0  0
  141.4758   70.6052  229.2769 H   0  0  0  0  0  0  0  0  0  0  0  0
  141.5845   72.1485  227.3356 H   0  0  0  0  0  0  0  0  0  0  0  0
  1  2  2  0
  2  3  1  0
  3  4  1  0
  4  5  1  0
  5  6  2  0
  5  7  1  0
  7  8  1  0
  8  9  1  0
  9 10  1  0
 10 11  1  0
 11 12  1  0
 12 13  1  0
 13 14  1  0
 14 15  1  0
 15 16  1  0
 16 17  2  0
 17 18  1  0
 18 19  2  0
 19 20  1  0
 20 21  2  0
  2 22  1  0
 22 23  2  0
 23 24  1  0
 24 25  2  0
 25 26  1  0
 26 27  2  0
 27 28  1  0
 28 29  2  0
 29 30  1  0
 30 31  2  0
 12  7  1  0
 21 16  1  0
 31 22  1  0
 30 25  1  0
  3 32  1  0
  4 33  1  0
  4 34  1  0
  8 35  1  0
  8 36  1  0
  9 37  1  0
  9 38  1  0
 10 39  1  0
 10 40  1  0
 11 41  1  0
 11 42  1  0
 12 43  1  6
 13 44  1  0
 13 45  1  0
 14 46  1  0
 15 47  1  0
 15 48  1  0
 17 49  1  0
 18 50  1  0
 19 51  1  0
 20 52  1  0
 21 53  1  0
 23 54  1  0
 24 55  1  0
 26 56  1  0
 27 57  1  0
 28 58  1  0
 29 59  1  0
M  END
>  <smiles>  (20) 
O=C(NCC(=O)N1CCCC[C@H]1CNCc1ccccc1)c1ccc2ccccc2n1

>  <score_type>  (20) 
oracle

>  <origin>  (20) 
autodockgpu

>  <m_score__min__energy>  (20) 
-9.9600000000000009

>  <m_primary>  (20) 
energy

>  <rmsd>  (20) 
2.636398417311703

>  <m_score__min__rmsd>  (20) 
2.636398417311703

>  <meeko>  (20) 
{"free_energy": -7.73, "intermolecular_energy": -10.11, "internal_energy": -2.83, "cluster_size": 30, "cluster_id": 1, "rank_in_cluster": 28}

>  <energy>  (20) 
-8.55

>  <cluster_rmsd>  (20) 
1.47

>  <cluster>  (20) 
1

$$$$

     RDKit          3D

 59 62  0  0  0  0  0  0  0  0999 V2000
  139.6420   75.8290  220.5130 O   0  0  0  0  0  0  0  0  0  0  0  0
  139.2780   76.1940  221.6800 C   0  0  0  0  0  0  0  0  0  0  0  0
  138.4110   75.3620  222.4560 N   0  0  0  0  0  0  0  0  0  0  0  0
  138.0010   74.1090  221.8140 C   0  0  0  0  0  0  0  0  0  0  0  0
  138.8990   72.9970  222.2030 C   0  0  0  0  0  0  0  0  0  0  0  0
  140.1560   73.1370  222.2980 O   0  0  0  0  0  0  0  0  0  0  0  0
  138.2930   71.7370  222.4710 N   0  0  0  0  0  0  0  0  0  0  0  0
  137.5200   71.0010  221.4910 C   0  0  0  0  0  0  0  0  0  0  0  0
  136.1720   70.5840  222.0070 C   0  0  0  0  0  0  0  0  0  0  0  0
  136.0840   70.6520  223.5150 C   0  0  0  0  0  0  0  0  0  0  0  0
  137.3890   70.0920  224.0390 C   0  0  0  0  0  0  0  0  0  0  0  0
  138.4430   71.1460  223.7860 C   0  0  1  0  0  0  0  0  0  0  0  0
  139.7920   70.4840  223.9520 C   0  0  0  0  0  0  0  0  0  0  0  0
  140.6170   71.4330  224.6700 N   0  0  0  0  0  0  0  0  0  0  0  0
  141.7000   70.8150  225.4050 C   0  0  0  0  0  0  0  0  0  0  0  0
  141.1030   69.9600  226.4610 C   0  0  0  0  0  0  0  0  0  0  0  0
  140.2890   70.4840  227.4700 C   0  0  0  0  0  0  0  0  0  0  0  0
  139.7360   69.6890  228.4490 C   0  0  0  0  0  0  0  0  0  0  0  0
  139.9860   68.3320  228.4400 C   0  0  0  0  0  0  0  0  0  0  0  0
  140.7850   67.7680  227.4610 C   0  0  0  0  0  0  0  0  0  0  0  0
  141.3210   68.5980  226.4990 C   0  0  0  0  0  0  0  0  0  0  0  0
  139.7530   77.4740  222.2230 C   0  0  0  0  0  0  0  0  0  0  0  0
  138.8460   78.3930  222.6750 C   0  0  0  0  0  0  0  0  0  0  0  0
  139.1820   79.6230  223.2030 C   0  0  0  0  0  0  0  0  0  0  0  0
  140.5350   79.9130  223.2650 C   0  0  0  0  0  0  0  0  0  0  0  0
  140.9170   81.1360  223.7870 C   0  0  0  0  0  0  0  0  0  0  0  0
  142.2740   81.4510  223.8600 C   0  0  0  0  0  0  0  0  0  0  0  0
  143.2010   80.5270  223.4050 C   0  0  0  0  0  0  0  0  0  0  0  0
  142.7950   79.3000  222.8820 C   0  0  0  0  0  0  0  0  0  0  0  0
  141.4380   78.9760  222.8050 C   0  0  0  0  0  0  0  0  0  0  0  0
  141.0560   77.7900  222.3000 N   0  0  0  0  0  0  0  0  0  0  0  0
  138.0950   75.6290  223.4140 H   0  0  0  0  0  0  0  0  0  0  0  0
  136.9732   73.8663  222.1216 H   0  0  0  0  0  0  0  0  0  0  0  0
  138.0551   74.2391  220.7231 H   0  0  0  0  0  0  0  0  0  0  0  0
  137.3759   71.6385  220.6062 H   0  0  0  0  0  0  0  0  0  0  0  0
  138.0792   70.0856  221.2475 H   0  0  0  0  0  0  0  0  0  0  0  0
  135.4086   71.2500  221.5785 H   0  0  0  0  0  0  0  0  0  0  0  0
  136.0085   69.5378  221.7090 H   0  0  0  0  0  0  0  0  0  0  0  0
  135.9570   71.6942  223.8431 H   0  0  0  0  0  0  0  0  0  0  0  0
  135.2224   70.0819  223.8927 H   0  0  0  0  0  0  0  0  0  0  0  0
  137.3085   69.8865  225.1166 H   0  0  0  0  0  0  0  0  0  0  0  0
  137.6448   69.1465  223.5384 H   0  0  0  0  0  0  0  0  0  0  0  0
  138.3386   71.9737  224.5030 H   0  0  0  0  0  0  0  0  0  0  0  0
  139.6921   69.5521  224.5278 H   0  0  0  0  0  0  0  0  0  0  0  0
  140.2339   70.2209  222.9796 H   0  0  0  0  0  0  0  0  0  0  0  0
  140.9150   72.2300  224.1000 H   0  0  0  0  0  0  0  0  0  0  0  0
  142.3097   70.2004  224.7264 H   0  0  0  0  0  0  0  0  0  0  0  0
  142.3471   71.5833  225.8534 H   0  0  0  0  0  0  0  0  0  0  0  0
  140.0841   71.5647  227.4821 H   0  0  0  0  0  0  0  0  0  0  0  0
  139.1010   70.1315  229.2307 H   0  0  0  0  0  0  0  0  0  0  0  0
  139.5457   67.6921  229.2189 H   0  0  0  0  0  0  0  0  0  0  0  0
  140.9871   66.6868  227.4504 H   0  0  0  0  0  0  0  0  0  0  0  0
  141.9562   68.1504  225.7204 H   0  0  0  0  0  0  0  0  0  0  0  0
  137.7786   78.1345  222.6135 H   0  0  0  0  0  0  0  0  0  0  0  0
  138.4187   80.3327  223.5546 H   0  0  0  0  0  0  0  0  0  0  0  0
  140.1598   81.8514  224.1402 H   0  0  0  0  0  0  0  0  0  0  0  0
  142.6026   82.4166  224.2718 H   0  0  0  0  0  0  0  0  0  0  0  0
  144.2736   80.7652  223.4572 H   0  0  0  0  0  0  0  0  0  0  0  0
  143.5487   78.5816  222.5273 H   0  0  0  0  0  0  0  0  0  0  0  0
  1  2  2  0
  2  3  1  0
  3  4  1  0
  4  5  1  0
  5  6  2  0
  5  7  1  0
  7  8  1  0
  8  9  1  0
  9 10  1  0
 10 11  1  0
 11 12  1  0
 12 13  1  0
 13 14  1  0
 14 15  1  0
 15 16  1  0
 16 17  2  0
 17 18  1  0
 18 19  2  0
 19 20  1  0
 20 21  2  0
  2 22  1  0
 22 23  2  0
 23 24  1  0
 24 25  2  0
 25 26  1  0
 26 27  2  0
 27 28  1  0
 28 29  2  0
 29 30  1  0
 30 31  2  0
 12  7  1  0
 21 16  1  0
 31 22  1  0
 30 25  1  0
  3 32  1  0
  4 33  1  0
  4 34  1  0
  8 35  1  0
  8 36  1  0
  9 37  1  0
  9 38  1  0
 10 39  1  0
 10 40  1  0
 11 41  1  0
 11 42  1  0
 12 43  1  1
 13 44  1  0
 13 45  1  0
 14 46  1  0
 15 47  1  0
 15 48  1  0
 17 49  1  0
 18 50  1  0
 19 51  1  0
 20 52  1  0
 21 53  1  0
 23 54  1  0
 24 55  1  0
 26 56  1  0
 27 57  1  0
 28 58  1  0
 29 59  1  0
M  END
>  <smiles>  (21) 
O=C(NCC(=O)N1CCCC[C@H]1CNCc1ccccc1)c1ccc2ccccc2n1

>  <score_type>  (21) 
oracle

>  <origin>  (21) 
autodockgpu

>  <m_score__min__energy>  (21) 
-9.9600000000000009

>  <m_primary>  (21) 
energy

>  <rmsd>  (21) 
9.81611973677009

>  <m_score__min__rmsd>  (21) 
9.81611973677009

>  <meeko>  (21) 
{"free_energy": -8.54, "intermolecular_energy": -10.93, "internal_energy": -2.15, "cluster_size": 7, "cluster_id": 4, "rank_in_cluster": 3}

>  <energy>  (21) 
-8.46

>  <cluster_rmsd>  (21) 
1.88

>  <cluster>  (21) 
1

$$$$

     RDKit          3D

 59 62  0  0  0  0  0  0  0  0999 V2000
  140.4270   74.3330  220.2450 O   0  0  0  0  0  0  0  0  0  0  0  0
  140.1200   75.0290  221.2700 C   0  0  0  0  0  0  0  0  0  0  0  0
  139.2150   74.5090  222.2480 N   0  0  0  0  0  0  0  0  0  0  0  0
  138.7000   73.1630  221.9760 C   0  0  0  0  0  0  0  0  0  0  0  0
  139.5950   72.1290  222.5460 C   0  0  0  0  0  0  0  0  0  0  0  0
  140.6710   72.4180  223.1510 O   0  0  0  0  0  0  0  0  0  0  0  0
  139.1980   70.7710  222.3890 N   0  0  0  0  0  0  0  0  0  0  0  0
  139.9200   69.8220  221.5660 C   0  0  0  0  0  0  0  0  0  0  0  0
  139.0300   69.1030  220.5910 C   0  0  0  0  0  0  0  0  0  0  0  0
  137.5670   69.2130  220.9540 C   0  0  0  0  0  0  0  0  0  0  0  0
  137.4900   69.0230  222.4540 C   0  0  0  0  0  0  0  0  0  0  0  0
  138.0150   70.2960  223.0780 C   0  0  1  0  0  0  0  0  0  0  0  0
  138.2950   70.0020  224.5350 C   0  0  0  0  0  0  0  0  0  0  0  0
  139.2050   68.8760  224.5470 N   0  0  0  0  0  0  0  0  0  0  0  0
  139.7380   68.5800  225.8600 C   0  0  0  0  0  0  0  0  0  0  0  0
  140.2330   69.8510  226.4460 C   0  0  0  0  0  0  0  0  0  0  0  0
  141.0690   70.7200  225.7390 C   0  0  0  0  0  0  0  0  0  0  0  0
  141.5260   71.8980  226.2850 C   0  0  0  0  0  0  0  0  0  0  0  0
  141.1530   72.2400  227.5680 C   0  0  0  0  0  0  0  0  0  0  0  0
  140.3270   71.4110  228.3060 C   0  0  0  0  0  0  0  0  0  0  0  0
  139.8900   70.2400  227.7240 C   0  0  0  0  0  0  0  0  0  0  0  0
  140.6990   76.3700  221.4390 C   0  0  0  0  0  0  0  0  0  0  0  0
  141.1320   77.0590  220.3400 C   0  0  0  0  0  0  0  0  0  0  0  0
  141.6900   78.3210  220.3840 C   0  0  0  0  0  0  0  0  0  0  0  0
  141.8030   78.8960  221.6400 C   0  0  0  0  0  0  0  0  0  0  0  0
  142.3570   80.1600  221.7310 C   0  0  0  0  0  0  0  0  0  0  0  0
  142.4820   80.7600  222.9840 C   0  0  0  0  0  0  0  0  0  0  0  0
  142.0470   80.0690  224.1030 C   0  0  0  0  0  0  0  0  0  0  0  0
  141.4910   78.7950  223.9900 C   0  0  0  0  0  0  0  0  0  0  0  0
  141.3620   78.1870  222.7390 C   0  0  0  0  0  0  0  0  0  0  0  0
  140.8250   76.9580  222.6390 N   0  0  0  0  0  0  0  0  0  0  0  0
  138.9430   75.0510  223.0970 H   0  0  0  0  0  0  0  0  0  0  0  0
  137.7011   73.0620  222.4254 H   0  0  0  0  0  0  0  0  0  0  0  0
  138.6476   73.0204  220.8865 H   0  0  0  0  0  0  0  0  0  0  0  0
  140.6944   70.3630  221.0024 H   0  0  0  0  0  0  0  0  0  0  0  0
  140.3566   69.0667  222.2360 H   0  0  0  0  0  0  0  0  0  0  0  0
  139.1791   69.5366  219.5911 H   0  0  0  0  0  0  0  0  0  0  0  0
  139.3011   68.0372  220.6138 H   0  0  0  0  0  0  0  0  0  0  0  0
  137.1779   70.2031  220.6743 H   0  0  0  0  0  0  0  0  0  0  0  0
  136.9640   68.4619  220.4228 H   0  0  0  0  0  0  0  0  0  0  0  0
  136.4480   68.8511  222.7618 H   0  0  0  0  0  0  0  0  0  0  0  0
  138.0799   68.1515  222.7743 H   0  0  0  0  0  0  0  0  0  0  0  0
  137.2711   71.1018  222.9926 H   0  0  0  0  0  0  0  0  0  0  0  0
  138.7595   70.8740  225.0185 H   0  0  0  0  0  0  0  0  0  0  0  0
  137.3696   69.7782  225.0860 H   0  0  0  0  0  0  0  0  0  0  0  0
  138.8420   68.0510  224.0600 H   0  0  0  0  0  0  0  0  0  0  0  0
  138.9481   68.1566  226.4978 H   0  0  0  0  0  0  0  0  0  0  0  0
  140.5548   67.8469  225.7867 H   0  0  0  0  0  0  0  0  0  0  0  0
  141.3709   70.4544  224.7151 H   0  0  0  0  0  0  0  0  0  0  0  0
  142.1831   72.5610  225.7030 H   0  0  0  0  0  0  0  0  0  0  0  0
  141.5155   73.1805  228.0085 H   0  0  0  0  0  0  0  0  0  0  0  0
  140.0269   71.6790  229.3298 H   0  0  0  0  0  0  0  0  0  0  0  0
  139.2328   69.5809  228.3102 H   0  0  0  0  0  0  0  0  0  0  0  0
  141.0290   76.5763  219.3569 H   0  0  0  0  0  0  0  0  0  0  0  0
  142.0257   78.8404  219.4743 H   0  0  0  0  0  0  0  0  0  0  0  0
  142.6950   80.6859  220.8259 H   0  0  0  0  0  0  0  0  0  0  0  0
  142.9186   81.7649  223.0819 H   0  0  0  0  0  0  0  0  0  0  0  0
  142.1416   80.5323  225.0962 H   0  0  0  0  0  0  0  0  0  0  0  0
  141.1517   78.2652  224.8923 H   0  0  0  0  0  0  0  0  0  0  0  0
  1  2  2  0
  2  3  1  0
  3  4  1  0
  4  5  1  0
  5  6  2  0
  5  7  1  0
  7  8  1  0
  8  9  1  0
  9 10  1  0
 10 11  1  0
 11 12  1  0
 12 13  1  0
 13 14  1  0
 14 15  1  0
 15 16  1  0
 16 17  2  0
 17 18  1  0
 18 19  2  0
 19 20  1  0
 20 21  2  0
  2 22  1  0
 22 23  2  0
 23 24  1  0
 24 25  2  0
 25 26  1  0
 26 27  2  0
 27 28  1  0
 28 29  2  0
 29 30  1  0
 30 31  2  0
 12  7  1  0
 21 16  1  0
 31 22  1  0
 30 25  1  0
  3 32  1  0
  4 33  1  0
  4 34  1  0
  8 35  1  0
  8 36  1  0
  9 37  1  0
  9 38  1  0
 10 39  1  0
 10 40  1  0
 11 41  1  0
 11 42  1  0
 12 43  1  1
 13 44  1  0
 13 45  1  0
 14 46  1  0
 15 47  1  0
 15 48  1  0
 17 49  1  0
 18 50  1  0
 19 51  1  0
 20 52  1  0
 21 53  1  0
 23 54  1  0
 24 55  1  0
 26 56  1  0
 27 57  1  0
 28 58  1  0
 29 59  1  0
M  END
>  <smiles>  (22) 
O=C(NCC(=O)N1CCCC[C@H]1CNCc1ccccc1)c1ccc2ccccc2n1

>  <score_type>  (22) 
oracle

>  <origin>  (22) 
autodockgpu

>  <m_score__min__energy>  (22) 
-9.9600000000000009

>  <m_primary>  (22) 
energy

>  <rmsd>  (22) 
9.403522350711754

>  <m_score__min__rmsd>  (22) 
9.403522350711754

>  <meeko>  (22) 
{"free_energy": -8.79, "intermolecular_energy": -11.18, "internal_energy": -1.98, "cluster_size": 7, "cluster_id": 4, "rank_in_cluster": 1}

>  <energy>  (22) 
-8.46

>  <cluster_rmsd>  (22) 
1.83

>  <cluster>  (22) 
1

$$$$

     RDKit          3D

 59 62  0  0  0  0  0  0  0  0999 V2000
  139.7090   74.2250  222.3300 O   0  0  0  0  0  0  0  0  0  0  0  0
  140.3440   75.1270  221.6870 C   0  0  0  0  0  0  0  0  0  0  0  0
  141.0760   74.7870  220.5070 N   0  0  0  0  0  0  0  0  0  0  0  0
  141.0280   73.3730  220.1220 C   0  0  0  0  0  0  0  0  0  0  0  0
  141.9820   73.0910  219.0230 C   0  0  0  0  0  0  0  0  0  0  0  0
  141.6130   72.6160  217.9060 O   0  0  0  0  0  0  0  0  0  0  0  0
  143.3540   73.3780  219.2660 N   0  0  0  0  0  0  0  0  0  0  0  0
  144.4320   72.4900  218.8810 C   0  0  0  0  0  0  0  0  0  0  0  0
  145.3740   72.1910  220.0140 C   0  0  0  0  0  0  0  0  0  0  0  0
  145.2380   73.1770  221.1520 C   0  0  0  0  0  0  0  0  0  0  0  0
  145.1060   74.5430  220.5140 C   0  0  0  0  0  0  0  0  0  0  0  0
  143.7110   74.6140  219.9330 C   0  0  1  0  0  0  0  0  0  0  0  0
  143.6770   75.7920  218.9860 C   0  0  0  0  0  0  0  0  0  0  0  0
  142.9370   76.8320  219.6680 N   0  0  0  0  0  0  0  0  0  0  0  0
  141.7820   77.2970  218.9310 C   0  0  0  0  0  0  0  0  0  0  0  0
  141.7920   78.7810  218.9600 C   0  0  0  0  0  0  0  0  0  0  0  0
  140.9180   79.5140  219.7690 C   0  0  0  0  0  0  0  0  0  0  0  0
  140.9290   80.8910  219.7940 C   0  0  0  0  0  0  0  0  0  0  0  0
  141.8270   81.5760  219.0010 C   0  0  0  0  0  0  0  0  0  0  0  0
  142.7110   80.8920  218.1850 C   0  0  0  0  0  0  0  0  0  0  0  0
  142.6680   79.5140  218.1880 C   0  0  0  0  0  0  0  0  0  0  0  0
  140.3210   76.5160  222.1680 C   0  0  0  0  0  0  0  0  0  0  0  0
  139.1310   77.0840  222.5280 C   0  0  0  0  0  0  0  0  0  0  0  0
  138.9950   78.3770  222.9920 C   0  0  0  0  0  0  0  0  0  0  0  0
  140.1620   79.1180  223.0870 C   0  0  0  0  0  0  0  0  0  0  0  0
  140.0730   80.4200  223.5470 C   0  0  0  0  0  0  0  0  0  0  0  0
  141.2330   81.1860  223.6500 C   0  0  0  0  0  0  0  0  0  0  0  0
  142.4440   80.6190  223.2880 C   0  0  0  0  0  0  0  0  0  0  0  0
  142.5130   79.3050  222.8270 C   0  0  0  0  0  0  0  0  0  0  0  0
  141.3560   78.5300  222.7190 C   0  0  0  0  0  0  0  0  0  0  0  0
  141.4310   77.2640  222.2730 N   0  0  0  0  0  0  0  0  0  0  0  0
  141.6060   75.4990  219.9570 H   0  0  0  0  0  0  0  0  0  0  0  0
  141.2887   72.7536  220.9929 H   0  0  0  0  0  0  0  0  0  0  0  0
  140.0114   73.1381  219.7737 H   0  0  0  0  0  0  0  0  0  0  0  0
  143.9979   71.5437  218.5259 H   0  0  0  0  0  0  0  0  0  0  0  0
  145.0111   72.9945  218.0935 H   0  0  0  0  0  0  0  0  0  0  0  0
  145.1601   71.1812  220.3941 H   0  0  0  0  0  0  0  0  0  0  0  0
  146.4004   72.2665  219.6257 H   0  0  0  0  0  0  0  0  0  0  0  0
  144.3439   72.9477  221.7504 H   0  0  0  0  0  0  0  0  0  0  0  0
  146.1054   73.1321  221.8269 H   0  0  0  0  0  0  0  0  0  0  0  0
  145.2431   75.3301  221.2701 H   0  0  0  0  0  0  0  0  0  0  0  0
  145.8687   74.6934  219.7357 H   0  0  0  0  0  0  0  0  0  0  0  0
  142.9678   74.7513  220.7323 H   0  0  0  0  0  0  0  0  0  0  0  0
  144.6989   76.1332  218.7638 H   0  0  0  0  0  0  0  0  0  0  0  0
  143.2064   75.5251  218.0283 H   0  0  0  0  0  0  0  0  0  0  0  0
  142.7330   76.6130  220.6490 H   0  0  0  0  0  0  0  0  0  0  0  0
  141.8344   76.9428  217.8909 H   0  0  0  0  0  0  0  0  0  0  0  0
  140.8568   76.9103  219.3831 H   0  0  0  0  0  0  0  0  0  0  0  0
  140.2002   78.9746  220.4044 H   0  0  0  0  0  0  0  0  0  0  0  0
  140.2283   81.4399  220.4403 H   0  0  0  0  0  0  0  0  0  0  0  0
  141.8402   82.6758  219.0177 H   0  0  0  0  0  0  0  0  0  0  0  0
  143.4287   81.4333  217.5510 H   0  0  0  0  0  0  0  0  0  0  0  0
  143.3705   78.9701  217.5395 H   0  0  0  0  0  0  0  0  0  0  0  0
  138.2220   76.4705  222.4424 H   0  0  0  0  0  0  0  0  0  0  0  0
  138.0164   78.7951  223.2704 H   0  0  0  0  0  0  0  0  0  0  0  0
  139.0983   80.8455  223.8281 H   0  0  0  0  0  0  0  0  0  0  0  0
  141.1876   82.2235  224.0127 H   0  0  0  0  0  0  0  0  0  0  0  0
  143.3655   81.2147  223.3655 H   0  0  0  0  0  0  0  0  0  0  0  0
  143.4859   78.8754  222.5462 H   0  0  0  0  0  0  0  0  0  0  0  0
  1  2  2  0
  2  3  1  0
  3  4  1  0
  4  5  1  0
  5  6  2  0
  5  7  1  0
  7  8  1  0
  8  9  1  0
  9 10  1  0
 10 11  1  0
 11 12  1  0
 12 13  1  0
 13 14  1  0
 14 15  1  0
 15 16  1  0
 16 17  2  0
 17 18  1  0
 18 19  2  0
 19 20  1  0
 20 21  2  0
  2 22  1  0
 22 23  2  0
 23 24  1  0
 24 25  2  0
 25 26  1  0
 26 27  2  0
 27 28  1  0
 28 29  2  0
 29 30  1  0
 30 31  2  0
 12  7  1  0
 21 16  1  0
 31 22  1  0
 30 25  1  0
  3 32  1  0
  4 33  1  0
  4 34  1  0
  8 35  1  0
  8 36  1  0
  9 37  1  0
  9 38  1  0
 10 39  1  0
 10 40  1  0
 11 41  1  0
 11 42  1  0
 12 43  1  1
 13 44  1  0
 13 45  1  0
 14 46  1  0
 15 47  1  0
 15 48  1  0
 17 49  1  0
 18 50  1  0
 19 51  1  0
 20 52  1  0
 21 53  1  0
 23 54  1  0
 24 55  1  0
 26 56  1  0
 27 57  1  0
 28 58  1  0
 29 59  1  0
M  END
>  <smiles>  (23) 
O=C(NCC(=O)N1CCCC[C@H]1CNCc1ccccc1)c1ccc2ccccc2n1

>  <score_type>  (23) 
oracle

>  <origin>  (23) 
autodockgpu

>  <m_score__min__energy>  (23) 
-9.9600000000000009

>  <m_primary>  (23) 
energy

>  <rmsd>  (23) 
6.666615387873388

>  <m_score__min__rmsd>  (23) 
6.666615387873388

>  <meeko>  (23) 
{"free_energy": -7.28, "intermolecular_energy": -9.66, "internal_energy": -3.83, "cluster_size": 4, "cluster_id": 6, "rank_in_cluster": 1}

>  <energy>  (23) 
-8.33

>  <cluster_rmsd>  (23) 
1.73

>  <cluster>  (23) 
1

$$$$

     RDKit          3D

 59 62  0  0  0  0  0  0  0  0999 V2000
  141.0820   71.8980  221.5270 O   0  0  0  0  0  0  0  0  0  0  0  0
  140.3000   72.2610  222.4680 C   0  0  0  0  0  0  0  0  0  0  0  0
  139.5050   73.4410  222.3260 N   0  0  0  0  0  0  0  0  0  0  0  0
  139.6650   74.1590  221.0580 C   0  0  0  0  0  0  0  0  0  0  0  0
  140.5960   75.3010  221.2100 C   0  0  0  0  0  0  0  0  0  0  0  0
  140.9510   75.7450  222.3450 O   0  0  0  0  0  0  0  0  0  0  0  0
  141.0920   75.8970  220.0170 N   0  0  0  0  0  0  0  0  0  0  0  0
  141.6230   75.1320  218.9070 C   0  0  0  0  0  0  0  0  0  0  0  0
  142.9790   75.6100  218.4670 C   0  0  0  0  0  0  0  0  0  0  0  0
  143.2960   76.9970  218.9790 C   0  0  0  0  0  0  0  0  0  0  0  0
  142.0290   77.8080  218.8120 C   0  0  0  0  0  0  0  0  0  0  0  0
  141.0730   77.3410  219.8870 C   0  0  1  0  0  0  0  0  0  0  0  0
  139.6990   77.8530  219.5210 C   0  0  0  0  0  0  0  0  0  0  0  0
  139.4650   79.0070  220.3640 N   0  0  0  0  0  0  0  0  0  0  0  0
  139.4380   78.6930  221.7760 C   0  0  0  0  0  0  0  0  0  0  0  0
  140.5260   79.4610  222.4330 C   0  0  0  0  0  0  0  0  0  0  0  0
  141.5190   78.8380  223.1960 C   0  0  0  0  0  0  0  0  0  0  0  0
  142.5270   79.5520  223.8040 C   0  0  0  0  0  0  0  0  0  0  0  0
  142.5680   80.9230  223.6600 C   0  0  0  0  0  0  0  0  0  0  0  0
  141.6070   81.5830  222.9140 C   0  0  0  0  0  0  0  0  0  0  0  0
  140.6130   80.8330  222.3220 C   0  0  0  0  0  0  0  0  0  0  0  0
  140.2220   71.4610  223.6980 C   0  0  0  0  0  0  0  0  0  0  0  0
  139.6370   70.2250  223.6610 C   0  0  0  0  0  0  0  0  0  0  0  0
  139.5110   69.3920  224.7550 C   0  0  0  0  0  0  0  0  0  0  0  0
  140.0230   69.8700  225.9500 C   0  0  0  0  0  0  0  0  0  0  0  0
  139.9170   69.0680  227.0720 C   0  0  0  0  0  0  0  0  0  0  0  0
  140.4250   69.5280  228.2870 C   0  0  0  0  0  0  0  0  0  0  0  0
  141.0190   70.7780  228.3350 C   0  0  0  0  0  0  0  0  0  0  0  0
  141.1150   71.5710  227.1920 C   0  0  0  0  0  0  0  0  0  0  0  0
  140.6100   71.1190  225.9700 C   0  0  0  0  0  0  0  0  0  0  0  0
  140.7070   71.8910  224.8740 N   0  0  0  0  0  0  0  0  0  0  0  0
  138.8550   73.7660  223.0750 H   0  0  0  0  0  0  0  0  0  0  0  0
  140.0637   73.4679  220.3008 H   0  0  0  0  0  0  0  0  0  0  0  0
  138.6832   74.5455  220.7471 H   0  0  0  0  0  0  0  0  0  0  0  0
  141.7037   74.0784  219.2127 H   0  0  0  0  0  0  0  0  0  0  0  0
  140.9352   75.2585  218.0579 H   0  0  0  0  0  0  0  0  0  0  0  0
  143.7397   74.9114  218.8456 H   0  0  0  0  0  0  0  0  0  0  0  0
  142.9797   75.6503  217.3677 H   0  0  0  0  0  0  0  0  0  0  0  0
  143.5851   76.9553  220.0395 H   0  0  0  0  0  0  0  0  0  0  0  0
  144.1352   77.4460  218.4275 H   0  0  0  0  0  0  0  0  0  0  0  0
  142.2450   78.8795  218.9354 H   0  0  0  0  0  0  0  0  0  0  0  0
  141.5979   77.6689  217.8096 H   0  0  0  0  0  0  0  0  0  0  0  0
  141.3731   77.7370  220.8684 H   0  0  0  0  0  0  0  0  0  0  0  0
  139.6691   78.1423  218.4602 H   0  0  0  0  0  0  0  0  0  0  0  0
  138.9288   77.0820  219.6708 H   0  0  0  0  0  0  0  0  0  0  0  0
  140.0630   79.8080  220.1360 H   0  0  0  0  0  0  0  0  0  0  0  0
  138.4663   78.9796  222.2045 H   0  0  0  0  0  0  0  0  0  0  0  0
  139.5813   77.6136  221.9323 H   0  0  0  0  0  0  0  0  0  0  0  0
  141.4938   77.7446  223.3138 H   0  0  0  0  0  0  0  0  0  0  0  0
  143.2929   79.0335  224.3994 H   0  0  0  0  0  0  0  0  0  0  0  0
  143.3723   81.4975  224.1427 H   0  0  0  0  0  0  0  0  0  0  0  0
  141.6355   82.6763  222.7966 H   0  0  0  0  0  0  0  0  0  0  0  0
  139.8485   81.3569  221.7295 H   0  0  0  0  0  0  0  0  0  0  0  0
  139.2413   69.8718  222.6973 H   0  0  0  0  0  0  0  0  0  0  0  0
  139.0313   68.4048  224.6817 H   0  0  0  0  0  0  0  0  0  0  0  0
  139.4381   68.0798  227.0070 H   0  0  0  0  0  0  0  0  0  0  0  0
  140.3549   68.9076  229.1927 H   0  0  0  0  0  0  0  0  0  0  0  0
  141.4209   71.1508  229.2887 H   0  0  0  0  0  0  0  0  0  0  0  0
  141.5921   72.5603  227.2528 H   0  0  0  0  0  0  0  0  0  0  0  0
  1  2  2  0
  2  3  1  0
  3  4  1  0
  4  5  1  0
  5  6  2  0
  5  7  1  0
  7  8  1  0
  8  9  1  0
  9 10  1  0
 10 11  1  0
 11 12  1  0
 12 13  1  0
 13 14  1  0
 14 15  1  0
 15 16  1  0
 16 17  2  0
 17 18  1  0
 18 19  2  0
 19 20  1  0
 20 21  2  0
  2 22  1  0
 22 23  2  0
 23 24  1  0
 24 25  2  0
 25 26  1  0
 26 27  2  0
 27 28  1  0
 28 29  2  0
 29 30  1  0
 30 31  2  0
 12  7  1  0
 21 16  1  0
 31 22  1  0
 30 25  1  0
  3 32  1  0
  4 33  1  0
  4 34  1  0
  8 35  1  0
  8 36  1  0
  9 37  1  0
  9 38  1  0
 10 39  1  0
 10 40  1  0
 11 41  1  0
 11 42  1  0
 12 43  1  1
 13 44  1  0
 13 45  1  0
 14 46  1  0
 15 47  1  0
 15 48  1  0
 17 49  1  0
 18 50  1  0
 19 51  1  0
 20 52  1  0
 21 53  1  0
 23 54  1  0
 24 55  1  0
 26 56  1  0
 27 57  1  0
 28 58  1  0
 29 59  1  0
M  END
>  <smiles>  (24) 
O=C(NCC(=O)N1CCCC[C@H]1CNCc1ccccc1)c1ccc2ccccc2n1

>  <score_type>  (24) 
oracle

>  <origin>  (24) 
autodockgpu

>  <m_score__min__energy>  (24) 
-9.9600000000000009

>  <m_primary>  (24) 
energy

>  <rmsd>  (24) 
2.393137741679636

>  <m_score__min__rmsd>  (24) 
2.393137741679636

>  <meeko>  (24) 
{"free_energy": -8.73, "intermolecular_energy": -11.12, "internal_energy": -1.9, "cluster_size": 30, "cluster_id": 1, "rank_in_cluster": 16}

>  <energy>  (24) 
-8.3

>  <cluster_rmsd>  (24) 
1.92

>  <cluster>  (24) 
1

$$$$

     RDKit          3D

 59 62  0  0  0  0  0  0  0  0999 V2000
  140.4360   71.3280  221.3020 O   0  0  0  0  0  0  0  0  0  0  0  0
  140.1200   71.9220  222.3870 C   0  0  0  0  0  0  0  0  0  0  0  0
  139.8690   73.3300  222.3880 N   0  0  0  0  0  0  0  0  0  0  0  0
  140.0000   73.9940  221.0880 C   0  0  0  0  0  0  0  0  0  0  0  0
  140.2900   75.4370  221.2580 C   0  0  0  0  0  0  0  0  0  0  0  0
  140.1030   76.0450  222.3550 O   0  0  0  0  0  0  0  0  0  0  0  0
  140.7960   76.1340  220.1250 N   0  0  0  0  0  0  0  0  0  0  0  0
  140.2270   76.0150  218.7980 C   0  0  0  0  0  0  0  0  0  0  0  0
  141.2560   75.6920  217.7510 C   0  0  0  0  0  0  0  0  0  0  0  0
  142.6660   75.9680  218.2210 C   0  0  0  0  0  0  0  0  0  0  0  0
  142.6120   77.2870  218.9620 C   0  0  0  0  0  0  0  0  0  0  0  0
  141.9390   77.0110  220.2870 C   0  0  1  0  0  0  0  0  0  0  0  0
  141.5420   78.3450  220.8780 C   0  0  0  0  0  0  0  0  0  0  0  0
  141.8140   78.2500  222.2970 N   0  0  0  0  0  0  0  0  0  0  0  0
  141.6540   79.5050  223.0000 C   0  0  0  0  0  0  0  0  0  0  0  0
  140.2040   79.7080  223.2430 C   0  0  0  0  0  0  0  0  0  0  0  0
  139.7040   80.8790  223.8200 C   0  0  0  0  0  0  0  0  0  0  0  0
  138.3580   81.0650  224.0440 C   0  0  0  0  0  0  0  0  0  0  0  0
  137.4690   80.0710  223.6910 C   0  0  0  0  0  0  0  0  0  0  0  0
  137.9180   78.8950  223.1160 C   0  0  0  0  0  0  0  0  0  0  0  0
  139.2730   78.7470  222.9080 C   0  0  0  0  0  0  0  0  0  0  0  0
  140.0180   71.1520  223.6340 C   0  0  0  0  0  0  0  0  0  0  0  0
  139.5200   69.8780  223.6010 C   0  0  0  0  0  0  0  0  0  0  0  0
  139.3820   69.0680  224.7100 C   0  0  0  0  0  0  0  0  0  0  0  0
  139.7840   69.6130  225.9190 C   0  0  0  0  0  0  0  0  0  0  0  0
  139.6620   68.8370  227.0570 C   0  0  0  0  0  0  0  0  0  0  0  0
  140.0590   69.3620  228.2860 C   0  0  0  0  0  0  0  0  0  0  0  0
  140.5650   70.6510  228.3300 C   0  0  0  0  0  0  0  0  0  0  0  0
  140.6800   71.4180  227.1710 C   0  0  0  0  0  0  0  0  0  0  0  0
  140.2840   70.8990  225.9360 C   0  0  0  0  0  0  0  0  0  0  0  0
  140.3980   71.6460  224.8230 N   0  0  0  0  0  0  0  0  0  0  0  0
  139.6090   73.8460  223.2570 H   0  0  0  0  0  0  0  0  0  0  0  0
  140.8210   73.5255  220.5255 H   0  0  0  0  0  0  0  0  0  0  0  0
  139.0508   73.8883  220.5422 H   0  0  0  0  0  0  0  0  0  0  0  0
  139.4732   75.2140  218.8091 H   0  0  0  0  0  0  0  0  0  0  0  0
  139.7840   76.9879  218.5386 H   0  0  0  0  0  0  0  0  0  0  0  0
  141.1728   74.6263  217.4915 H   0  0  0  0  0  0  0  0  0  0  0  0
  141.0614   76.3363  216.8810 H   0  0  0  0  0  0  0  0  0  0  0  0
  143.0081   75.1668  218.8926 H   0  0  0  0  0  0  0  0  0  0  0  0
  143.3696   76.0105  217.3765 H   0  0  0  0  0  0  0  0  0  0  0  0
  143.6293   77.6721  219.1260 H   0  0  0  0  0  0  0  0  0  0  0  0
  142.0585   78.0432  218.3859 H   0  0  0  0  0  0  0  0  0  0  0  0
  142.6279   76.4879  220.9666 H   0  0  0  0  0  0  0  0  0  0  0  0
  142.1362   79.1542  220.4283 H   0  0  0  0  0  0  0  0  0  0  0  0
  140.4831   78.5719  220.6852 H   0  0  0  0  0  0  0  0  0  0  0  0
  141.3390   77.4650  222.7530 H   0  0  0  0  0  0  0  0  0  0  0  0
  142.1924   79.4681  223.9585 H   0  0  0  0  0  0  0  0  0  0  0  0
  142.0631   80.3339  222.4038 H   0  0  0  0  0  0  0  0  0  0  0  0
  140.4070   81.6760  224.1037 H   0  0  0  0  0  0  0  0  0  0  0  0
  137.9950   81.9978  224.5003 H   0  0  0  0  0  0  0  0  0  0  0  0
  136.3929   80.2145  223.8682 H   0  0  0  0  0  0  0  0  0  0  0  0
  137.2129   78.0997  222.8325 H   0  0  0  0  0  0  0  0  0  0  0  0
  139.6306   77.8127  222.4505 H   0  0  0  0  0  0  0  0  0  0  0  0
  139.2092   69.4728  222.6267 H   0  0  0  0  0  0  0  0  0  0  0  0
  138.9761   68.0481  224.6383 H   0  0  0  0  0  0  0  0  0  0  0  0
  139.2561   67.8166  226.9933 H   0  0  0  0  0  0  0  0  0  0  0  0
  139.9720   68.7633  229.2047 H   0  0  0  0  0  0  0  0  0  0  0  0
  140.8810   71.0760  229.2941 H   0  0  0  0  0  0  0  0  0  0  0  0
  141.0854   72.4389  227.2297 H   0  0  0  0  0  0  0  0  0  0  0  0
  1  2  2  0
  2  3  1  0
  3  4  1  0
  4  5  1  0
  5  6  2  0
  5  7  1  0
  7  8  1  0
  8  9  1  0
  9 10  1  0
 10 11  1  0
 11 12  1  0
 12 13  1  0
 13 14  1  0
 14 15  1  0
 15 16  1  0
 16 17  2  0
 17 18  1  0
 18 19  2  0
 19 20  1  0
 20 21  2  0
  2 22  1  0
 22 23  2  0
 23 24  1  0
 24 25  2  0
 25 26  1  0
 26 27  2  0
 27 28  1  0
 28 29  2  0
 29 30  1  0
 30 31  2  0
 12  7  1  0
 21 16  1  0
 31 22  1  0
 30 25  1  0
  3 32  1  0
  4 33  1  0
  4 34  1  0
  8 35  1  0
  8 36  1  0
  9 37  1  0
  9 38  1  0
 10 39  1  0
 10 40  1  0
 11 41  1  0
 11 42  1  0
 12 43  1  1
 13 44  1  0
 13 45  1  0
 14 46  1  0
 15 47  1  0
 15 48  1  0
 17 49  1  0
 18 50  1  0
 19 51  1  0
 20 52  1  0
 21 53  1  0
 23 54  1  0
 24 55  1  0
 26 56  1  0
 27 57  1  0
 28 58  1  0
 29 59  1  0
M  END
>  <smiles>  (25) 
O=C(NCC(=O)N1CCCC[C@H]1CNCc1ccccc1)c1ccc2ccccc2n1

>  <score_type>  (25) 
oracle

>  <origin>  (25) 
autodockgpu

>  <m_score__min__energy>  (25) 
-9.9600000000000009

>  <m_primary>  (25) 
energy

>  <rmsd>  (25) 
2.145458562893788

>  <m_score__min__rmsd>  (25) 
2.145458562893788

>  <meeko>  (25) 
{"free_energy": -8.08, "intermolecular_energy": -10.47, "internal_energy": -2.47, "cluster_size": 30, "cluster_id": 1, "rank_in_cluster": 25}

>  <energy>  (25) 
-8.08

>  <cluster_rmsd>  (25) 
1.92

>  <cluster>  (25) 
1

$$$$

     RDKit          3D

 59 62  0  0  0  0  0  0  0  0999 V2000
  137.5830   76.0180  222.6170 O   0  0  0  0  0  0  0  0  0  0  0  0
  138.8210   76.2230  222.3850 C   0  0  0  0  0  0  0  0  0  0  0  0
  139.6240   75.1920  221.8040 N   0  0  0  0  0  0  0  0  0  0  0  0
  138.9230   73.9370  221.5120 C   0  0  0  0  0  0  0  0  0  0  0  0
  139.6700   72.7770  222.0490 C   0  0  0  0  0  0  0  0  0  0  0  0
  140.8900   72.8500  222.3910 O   0  0  0  0  0  0  0  0  0  0  0  0
  138.9600   71.5490  222.1730 N   0  0  0  0  0  0  0  0  0  0  0  0
  138.6620   70.6860  221.0480 C   0  0  0  0  0  0  0  0  0  0  0  0
  137.2080   70.3120  220.9710 C   0  0  0  0  0  0  0  0  0  0  0  0
  136.4780   70.5610  222.2720 C   0  0  0  0  0  0  0  0  0  0  0  0
  137.4050   70.0920  223.3720 C   0  0  0  0  0  0  0  0  0  0  0  0
  138.5030   71.1250  223.4810 C   0  0  1  0  0  0  0  0  0  0  0  0
  139.6210   70.5110  224.2940 C   0  0  0  0  0  0  0  0  0  0  0  0
  140.2850   71.6140  224.9560 N   0  0  0  0  0  0  0  0  0  0  0  0
  141.4540   71.2140  225.7100 C   0  0  0  0  0  0  0  0  0  0  0  0
  141.0370   70.1600  226.6690 C   0  0  0  0  0  0  0  0  0  0  0  0
  140.2230   70.4380  227.7700 C   0  0  0  0  0  0  0  0  0  0  0  0
  139.8370   69.4580  228.6580 C   0  0  0  0  0  0  0  0  0  0  0  0
  140.2620   68.1610  228.4620 C   0  0  0  0  0  0  0  0  0  0  0  0
  141.0700   67.8390  227.3850 C   0  0  0  0  0  0  0  0  0  0  0  0
  141.4340   68.8470  226.5180 C   0  0  0  0  0  0  0  0  0  0  0  0
  139.4180   77.5240  222.7190 C   0  0  0  0  0  0  0  0  0  0  0  0
  138.6050   78.5750  223.0410 C   0  0  0  0  0  0  0  0  0  0  0  0
  139.0580   79.8360  223.3710 C   0  0  0  0  0  0  0  0  0  0  0  0
  140.4330   80.0120  223.3660 C   0  0  0  0  0  0  0  0  0  0  0  0
  140.9320   81.2610  223.6910 C   0  0  0  0  0  0  0  0  0  0  0  0
  142.3120   81.4630  223.6930 C   0  0  0  0  0  0  0  0  0  0  0  0
  143.1440   80.4040  223.3680 C   0  0  0  0  0  0  0  0  0  0  0  0
  142.6210   79.1530  223.0440 C   0  0  0  0  0  0  0  0  0  0  0  0
  141.2400   78.9410  223.0400 C   0  0  0  0  0  0  0  0  0  0  0  0
  140.7450   77.7310  222.7260 N   0  0  0  0  0  0  0  0  0  0  0  0
  140.6380   75.3260  221.6000 H   0  0  0  0  0  0  0  0  0  0  0  0
  137.9245   73.9667  221.9724 H   0  0  0  0  0  0  0  0  0  0  0  0
  138.8399   73.8267  220.4207 H   0  0  0  0  0  0  0  0  0  0  0  0
  138.9403   71.2083  220.1208 H   0  0  0  0  0  0  0  0  0  0  0  0
  139.2366   69.7575  221.1810 H   0  0  0  0  0  0  0  0  0  0  0  0
  136.7315   70.9084  220.1790 H   0  0  0  0  0  0  0  0  0  0  0  0
  137.1501   69.2349  220.7552 H   0  0  0  0  0  0  0  0  0  0  0  0
  136.2601   71.6329  222.3880 H   0  0  0  0  0  0  0  0  0  0  0  0
  135.5174   70.0258  222.3017 H   0  0  0  0  0  0  0  0  0  0  0  0
  136.8579   70.0177  224.3234 H   0  0  0  0  0  0  0  0  0  0  0  0
  137.8170   69.0974  223.1464 H   0  0  0  0  0  0  0  0  0  0  0  0
  138.1295   72.0320  223.9789 H   0  0  0  0  0  0  0  0  0  0  0  0
  139.2129   69.8094  225.0364 H   0  0  0  0  0  0  0  0  0  0  0  0
  140.3173   69.9445  223.6583 H   0  0  0  0  0  0  0  0  0  0  0  0
  140.4520   72.4180  224.3430 H   0  0  0  0  0  0  0  0  0  0  0  0
  142.2211   70.8176  225.0286 H   0  0  0  0  0  0  0  0  0  0  0  0
  141.8783   72.0754  226.2465 H   0  0  0  0  0  0  0  0  0  0  0  0
  139.8800   71.4704  227.9327 H   0  0  0  0  0  0  0  0  0  0  0  0
  139.1954   69.7080  229.5158 H   0  0  0  0  0  0  0  0  0  0  0  0
  139.9562   67.3748  229.1680 H   0  0  0  0  0  0  0  0  0  0  0  0
  141.4126   66.8060  227.2253 H   0  0  0  0  0  0  0  0  0  0  0  0
  142.0744   68.5914  225.6610 H   0  0  0  0  0  0  0  0  0  0  0  0
  137.5183   78.4042  223.0367 H   0  0  0  0  0  0  0  0  0  0  0  0
  138.3677   80.6544  223.6235 H   0  0  0  0  0  0  0  0  0  0  0  0
  140.2485   82.0847  223.9447 H   0  0  0  0  0  0  0  0  0  0  0  0
  142.7328   82.4467  223.9484 H   0  0  0  0  0  0  0  0  0  0  0  0
  144.2339   80.5525  223.3656 H   0  0  0  0  0  0  0  0  0  0  0  0
  143.3008   78.3265  222.7896 H   0  0  0  0  0  0  0  0  0  0  0  0
  1  2  2  0
  2  3  1  0
  3  4  1  0
  4  5  1  0
  5  6  2  0
  5  7  1  0
  7  8  1  0
  8  9  1  0
  9 10  1  0
 10 11  1  0
 11 12  1  0
 12 13  1  0
 13 14  1  0
 14 15  1  0
 15 16  1  0
 16 17  2  0
 17 18  1  0
 18 19  2  0
 19 20  1  0
 20 21  2  0
  2 22  1  0
 22 23  2  0
 23 24  1  0
 24 25  2  0
 25 26  1  0
 26 27  2  0
 27 28  1  0
 28 29  2  0
 29 30  1  0
 30 31  2  0
 12  7  1  0
 21 16  1  0
 31 22  1  0
 30 25  1  0
  3 32  1  0
  4 33  1  0
  4 34  1  0
  8 35  1  0
  8 36  1  0
  9 37  1  0
  9 38  1  0
 10 39  1  0
 10 40  1  0
 11 41  1  0
 11 42  1  0
 12 43  1  1
 13 44  1  0
 13 45  1  0
 14 46  1  0
 15 47  1  0
 15 48  1  0
 17 49  1  0
 18 50  1  0
 19 51  1  0
 20 52  1  0
 21 53  1  0
 23 54  1  0
 24 55  1  0
 26 56  1  0
 27 57  1  0
 28 58  1  0
 29 59  1  0
M  END
>  <smiles>  (26) 
O=C(NCC(=O)N1CCCC[C@H]1CNCc1ccccc1)c1ccc2ccccc2n1

>  <score_type>  (26) 
oracle

>  <origin>  (26) 
autodockgpu

>  <m_score__min__energy>  (26) 
-9.9600000000000009

>  <m_primary>  (26) 
energy

>  <rmsd>  (26) 
9.755122544408612

>  <m_score__min__rmsd>  (26) 
9.755122544408612

>  <meeko>  (26) 
{"free_energy": -8.46, "intermolecular_energy": -10.84, "internal_energy": -2.45, "cluster_size": 7, "cluster_id": 4, "rank_in_cluster": 4}

>  <energy>  (26) 
-8.01

>  <cluster_rmsd>  (26) 
1.99

>  <cluster>  (26) 
1

$$$$

     RDKit          3D

 59 62  0  0  0  0  0  0  0  0999 V2000
  141.0610   71.7050  221.4440 O   0  0  0  0  0  0  0  0  0  0  0  0
  140.4300   72.2220  222.4250 C   0  0  0  0  0  0  0  0  0  0  0  0
  139.9010   73.5470  222.3210 N   0  0  0  0  0  0  0  0  0  0  0  0
  140.1410   74.2210  221.0410 C   0  0  0  0  0  0  0  0  0  0  0  0
  140.6870   75.5820  221.2540 C   0  0  0  0  0  0  0  0  0  0  0  0
  141.0550   75.9980  222.3950 O   0  0  0  0  0  0  0  0  0  0  0  0
  140.7880   76.4260  220.1130 N   0  0  0  0  0  0  0  0  0  0  0  0
  140.9500   75.9230  218.7640 C   0  0  0  0  0  0  0  0  0  0  0  0
  142.1030   76.5620  218.0400 C   0  0  0  0  0  0  0  0  0  0  0  0
  142.5620   77.8420  218.7000 C   0  0  0  0  0  0  0  0  0  0  0  0
  141.3040   78.5880  219.0930 C   0  0  0  0  0  0  0  0  0  0  0  0
  140.7290   77.8640  220.2890 C   0  0  1  0  0  0  0  0  0  0  0  0
  139.3080   78.3480  220.4690 C   0  0  0  0  0  0  0  0  0  0  0  0
  138.9690   78.0880  221.8520 N   0  0  0  0  0  0  0  0  0  0  0  0
  138.8600   79.2860  222.6550 C   0  0  0  0  0  0  0  0  0  0  0  0
  140.2330   79.7900  222.9080 C   0  0  0  0  0  0  0  0  0  0  0  0
  140.5510   81.1500  222.8350 C   0  0  0  0  0  0  0  0  0  0  0  0
  141.8250   81.6150  223.0700 C   0  0  0  0  0  0  0  0  0  0  0  0
  142.8250   80.7200  223.3880 C   0  0  0  0  0  0  0  0  0  0  0  0
  142.5570   79.3640  223.4720 C   0  0  0  0  0  0  0  0  0  0  0  0
  141.2690   78.9380  223.2300 C   0  0  0  0  0  0  0  0  0  0  0  0
  140.2500   71.4510  223.6630 C   0  0  0  0  0  0  0  0  0  0  0  0
  139.6020   70.2470  223.6180 C   0  0  0  0  0  0  0  0  0  0  0  0
  139.3790   69.4420  224.7170 C   0  0  0  0  0  0  0  0  0  0  0  0
  139.8570   69.9160  225.9290 C   0  0  0  0  0  0  0  0  0  0  0  0
  139.6560   69.1410  227.0570 C   0  0  0  0  0  0  0  0  0  0  0  0
  140.1270   69.5970  228.2880 C   0  0  0  0  0  0  0  0  0  0  0  0
  140.7840   70.8150  228.3440 C   0  0  0  0  0  0  0  0  0  0  0  0
  140.9770   71.5800  227.1940 C   0  0  0  0  0  0  0  0  0  0  0  0
  140.5080   71.1320  225.9570 C   0  0  0  0  0  0  0  0  0  0  0  0
  140.6990   71.8770  224.8540 N   0  0  0  0  0  0  0  0  0  0  0  0
  139.3790   74.0000  223.1030 H   0  0  0  0  0  0  0  0  0  0  0  0
  140.8607   73.6322  220.4534 H   0  0  0  0  0  0  0  0  0  0  0  0
  139.1848   74.3061  220.5040 H   0  0  0  0  0  0  0  0  0  0  0  0
  141.1226   74.8377  218.8116 H   0  0  0  0  0  0  0  0  0  0  0  0
  140.0329   76.1655  218.2070 H   0  0  0  0  0  0  0  0  0  0  0  0
  142.9441   75.8534  218.0210 H   0  0  0  0  0  0  0  0  0  0  0  0
  141.7628   76.8125  217.0244 H   0  0  0  0  0  0  0  0  0  0  0  0
  143.1660   77.6164  219.5913 H   0  0  0  0  0  0  0  0  0  0  0  0
  143.1884   78.4407  218.0224 H   0  0  0  0  0  0  0  0  0  0  0  0
  141.5465   79.6275  219.3590 H   0  0  0  0  0  0  0  0  0  0  0  0
  140.5836   78.6165  218.2622 H   0  0  0  0  0  0  0  0  0  0  0  0
  141.3189   78.0831  221.1912 H   0  0  0  0  0  0  0  0  0  0  0  0
  139.2413   79.4250  220.2553 H   0  0  0  0  0  0  0  0  0  0  0  0
  138.6182   77.8354  219.7823 H   0  0  0  0  0  0  0  0  0  0  0  0
  138.1760   77.4480  221.9650 H   0  0  0  0  0  0  0  0  0  0  0  0
  138.2760   80.0461  222.1154 H   0  0  0  0  0  0  0  0  0  0  0  0
  138.3505   79.0665  223.6049 H   0  0  0  0  0  0  0  0  0  0  0  0
  139.7588   81.8700  222.5821 H   0  0  0  0  0  0  0  0  0  0  0  0
  142.0437   82.6911  223.0048 H   0  0  0  0  0  0  0  0  0  0  0  0
  143.8448   81.0867  223.5766 H   0  0  0  0  0  0  0  0  0  0  0  0
  143.3511   78.6461  223.7251 H   0  0  0  0  0  0  0  0  0  0  0  0
  141.0556   77.8610  223.2972 H   0  0  0  0  0  0  0  0  0  0  0  0
  139.2345   69.8974  222.6419 H   0  0  0  0  0  0  0  0  0  0  0  0
  138.8523   68.4797  224.6358 H   0  0  0  0  0  0  0  0  0  0  0  0
  139.1312   68.1770  226.9840 H   0  0  0  0  0  0  0  0  0  0  0  0
  139.9791   68.9991  229.1994 H   0  0  0  0  0  0  0  0  0  0  0  0
  141.1591   71.1844  229.3098 H   0  0  0  0  0  0  0  0  0  0  0  0
  141.5028   72.5438  227.2617 H   0  0  0  0  0  0  0  0  0  0  0  0
  1  2  2  0
  2  3  1  0
  3  4  1  0
  4  5  1  0
  5  6  2  0
  5  7  1  0
  7  8  1  0
  8  9  1  0
  9 10  1  0
 10 11  1  0
 11 12  1  0
 12 13  1  0
 13 14  1  0
 14 15  1  0
 15 16  1  0
 16 17  2  0
 17 18  1  0
 18 19  2  0
 19 20  1  0
 20 21  2  0
  2 22  1  0
 22 23  2  0
 23 24  1  0
 24 25  2  0
 25 26  1  0
 26 27  2  0
 27 28  1  0
 28 29  2  0
 29 30  1  0
 30 31  2  0
 12  7  1  0
 21 16  1  0
 31 22  1  0
 30 25  1  0
  3 32  1  0
  4 33  1  0
  4 34  1  0
  8 35  1  0
  8 36  1  0
  9 37  1  0
  9 38  1  0
 10 39  1  0
 10 40  1  0
 11 41  1  0
 11 42  1  0
 12 43  1  1
 13 44  1  0
 13 45  1  0
 14 46  1  0
 15 47  1  0
 15 48  1  0
 17 49  1  0
 18 50  1  0
 19 51  1  0
 20 52  1  0
 21 53  1  0
 23 54  1  0
 24 55  1  0
 26 56  1  0
 27 57  1  0
 28 58  1  0
 29 59  1  0
M  END
>  <smiles>  (27) 
O=C(NCC(=O)N1CCCC[C@H]1CNCc1ccccc1)c1ccc2ccccc2n1

>  <score_type>  (27) 
oracle

>  <origin>  (27) 
autodockgpu

>  <m_score__min__energy>  (27) 
-9.9600000000000009

>  <m_primary>  (27) 
energy

>  <rmsd>  (27) 
2.5076175532062

>  <m_score__min__rmsd>  (27) 
2.5076175532062

>  <meeko>  (27) 
{"free_energy": -8.74, "intermolecular_energy": -11.13, "internal_energy": -1.97, "cluster_size": 30, "cluster_id": 1, "rank_in_cluster": 15}

>  <energy>  (27) 
-7.83

>  <cluster_rmsd>  (27) 
1.99

>  <cluster>  (27) 
1

$$$$

     RDKit          3D

 59 62  0  0  0  0  0  0  0  0999 V2000
  141.0440   72.1410  221.6710 O   0  0  0  0  0  0  0  0  0  0  0  0
  140.1270   72.3630  222.5310 C   0  0  0  0  0  0  0  0  0  0  0  0
  139.1820   73.4150  222.3190 N   0  0  0  0  0  0  0  0  0  0  0  0
  139.3570   74.1780  221.0800 C   0  0  0  0  0  0  0  0  0  0  0  0
  140.4740   75.1440  221.2060 C   0  0  0  0  0  0  0  0  0  0  0  0
  141.4680   74.9400  221.9670 O   0  0  0  0  0  0  0  0  0  0  0  0
  140.3940   76.3330  220.4280 N   0  0  0  0  0  0  0  0  0  0  0  0
  140.5010   76.3460  218.9830 C   0  0  0  0  0  0  0  0  0  0  0  0
  141.5180   77.3350  218.4840 C   0  0  0  0  0  0  0  0  0  0  0  0
  141.8900   78.3590  219.5320 C   0  0  0  0  0  0  0  0  0  0  0  0
  140.5950   78.7600  220.2070 C   0  0  0  0  0  0  0  0  0  0  0  0
  140.1970   77.6040  221.0960 C   0  0  1  0  0  0  0  0  0  0  0  0
  138.7510   77.8130  221.4870 C   0  0  0  0  0  0  0  0  0  0  0  0
  138.7390   77.9190  222.9310 N   0  0  0  0  0  0  0  0  0  0  0  0
  138.6900   79.2840  223.4080 C   0  0  0  0  0  0  0  0  0  0  0  0
  140.0670   79.8350  223.3520 C   0  0  0  0  0  0  0  0  0  0  0  0
  141.1730   79.1230  223.8270 C   0  0  0  0  0  0  0  0  0  0  0  0
  142.4490   79.6370  223.7730 C   0  0  0  0  0  0  0  0  0  0  0  0
  142.6530   80.8900  223.2340 C   0  0  0  0  0  0  0  0  0  0  0  0
  141.5890   81.6320  222.7510 C   0  0  0  0  0  0  0  0  0  0  0  0
  140.3260   81.0830  222.8230 C   0  0  0  0  0  0  0  0  0  0  0  0
  140.0480   71.5310  223.7400 C   0  0  0  0  0  0  0  0  0  0  0  0
  139.3820   70.3380  223.6950 C   0  0  0  0  0  0  0  0  0  0  0  0
  139.2480   69.4810  224.7690 C   0  0  0  0  0  0  0  0  0  0  0  0
  139.8400   69.8880  225.9540 C   0  0  0  0  0  0  0  0  0  0  0  0
  139.7300   69.0600  227.0560 C   0  0  0  0  0  0  0  0  0  0  0  0
  140.3160   69.4490  228.2610 C   0  0  0  0  0  0  0  0  0  0  0  0
  140.9930   70.6560  228.3170 C   0  0  0  0  0  0  0  0  0  0  0  0
  141.0930   71.4770  227.1930 C   0  0  0  0  0  0  0  0  0  0  0  0
  140.5080   71.0950  225.9830 C   0  0  0  0  0  0  0  0  0  0  0  0
  140.6090   71.8930  224.9050 N   0  0  0  0  0  0  0  0  0  0  0  0
  138.4200   73.6230  223.0020 H   0  0  0  0  0  0  0  0  0  0  0  0
  139.5741   73.4821  220.2563 H   0  0  0  0  0  0  0  0  0  0  0  0
  138.4311   74.7364  220.8778 H   0  0  0  0  0  0  0  0  0  0  0  0
  140.7914   75.3410  218.6428 H   0  0  0  0  0  0  0  0  0  0  0  0
  139.5220   76.6453  218.5806 H   0  0  0  0  0  0  0  0  0  0  0  0
  142.4252   76.7888  218.1864 H   0  0  0  0  0  0  0  0  0  0  0  0
  141.0733   77.8725  217.6335 H   0  0  0  0  0  0  0  0  0  0  0  0
  142.5826   77.9202  220.2653 H   0  0  0  0  0  0  0  0  0  0  0  0
  142.3946   79.2274  219.0835 H   0  0  0  0  0  0  0  0  0  0  0  0
  140.7460   79.6679  220.8094 H   0  0  0  0  0  0  0  0  0  0  0  0
  139.8121   78.9792  219.4661 H   0  0  0  0  0  0  0  0  0  0  0  0
  140.8303   77.5745  221.9949 H   0  0  0  0  0  0  0  0  0  0  0  0
  138.3619   78.7362  221.0328 H   0  0  0  0  0  0  0  0  0  0  0  0
  138.1159   76.9852  221.1386 H   0  0  0  0  0  0  0  0  0  0  0  0
  138.0530   77.3050  223.3810 H   0  0  0  0  0  0  0  0  0  0  0  0
  138.0224   79.8800  222.7684 H   0  0  0  0  0  0  0  0  0  0  0  0
  138.3050   79.3170  224.4379 H   0  0  0  0  0  0  0  0  0  0  0  0
  141.0188   78.1222  224.2567 H   0  0  0  0  0  0  0  0  0  0  0  0
  143.2988   79.0532  224.1565 H   0  0  0  0  0  0  0  0  0  0  0  0
  143.6712   81.3037  223.1875 H   0  0  0  0  0  0  0  0  0  0  0  0
  141.7466   82.6323  222.3215 H   0  0  0  0  0  0  0  0  0  0  0  0
  139.4799   81.6712  222.4382 H   0  0  0  0  0  0  0  0  0  0  0  0
  138.9228   70.0415  222.7405 H   0  0  0  0  0  0  0  0  0  0  0  0
  138.7024   68.5293  224.6887 H   0  0  0  0  0  0  0  0  0  0  0  0
  139.1870   68.1061  226.9835 H   0  0  0  0  0  0  0  0  0  0  0  0
  140.2416   68.8078  229.1517 H   0  0  0  0  0  0  0  0  0  0  0  0
  141.4590   70.9723  229.2619 H   0  0  0  0  0  0  0  0  0  0  0  0
  141.6360   72.4313  227.2600 H   0  0  0  0  0  0  0  0  0  0  0  0
  1  2  2  0
  2  3  1  0
  3  4  1  0
  4  5  1  0
  5  6  2  0
  5  7  1  0
  7  8  1  0
  8  9  1  0
  9 10  1  0
 10 11  1  0
 11 12  1  0
 12 13  1  0
 13 14  1  0
 14 15  1  0
 15 16  1  0
 16 17  2  0
 17 18  1  0
 18 19  2  0
 19 20  1  0
 20 21  2  0
  2 22  1  0
 22 23  2  0
 23 24  1  0
 24 25  2  0
 25 26  1  0
 26 27  2  0
 27 28  1  0
 28 29  2  0
 29 30  1  0
 30 31  2  0
 12  7  1  0
 21 16  1  0
 31 22  1  0
 30 25  1  0
  3 32  1  0
  4 33  1  0
  4 34  1  0
  8 35  1  0
  8 36  1  0
  9 37  1  0
  9 38  1  0
 10 39  1  0
 10 40  1  0
 11 41  1  0
 11 42  1  0
 12 43  1  1
 13 44  1  0
 13 45  1  0
 14 46  1  0
 15 47  1  0
 15 48  1  0
 17 49  1  0
 18 50  1  0
 19 51  1  0
 20 52  1  0
 21 53  1  0
 23 54  1  0
 24 55  1  0
 26 56  1  0
 27 57  1  0
 28 58  1  0
 29 59  1  0
M  END
>  <smiles>  (28) 
O=C(NCC(=O)N1CCCC[C@H]1CNCc1ccccc1)c1ccc2ccccc2n1

>  <score_type>  (28) 
oracle

>  <origin>  (28) 
autodockgpu

>  <m_score__min__energy>  (28) 
-9.9600000000000009

>  <m_primary>  (28) 
energy

>  <rmsd>  (28) 
2.5021840247705005

>  <m_score__min__rmsd>  (28) 
2.5021840247705005

>  <meeko>  (28) 
{"free_energy": -8.85, "intermolecular_energy": -11.24, "internal_energy": -1.78, "cluster_size": 30, "cluster_id": 1, "rank_in_cluster": 7}

>  <energy>  (28) 
-7.73

>  <cluster_rmsd>  (28) 
1.81

>  <cluster>  (28) 
1

$$$$

     RDKit          3D

 59 62  0  0  0  0  0  0  0  0999 V2000
  140.6770   71.3460  221.2300 O   0  0  0  0  0  0  0  0  0  0  0  0
  140.2110   71.9910  222.2280 C   0  0  0  0  0  0  0  0  0  0  0  0
  139.7440   73.3320  222.0620 N   0  0  0  0  0  0  0  0  0  0  0  0
  139.8470   73.8710  220.7020 C   0  0  0  0  0  0  0  0  0  0  0  0
  141.2070   74.3970  220.4420 C   0  0  0  0  0  0  0  0  0  0  0  0
  142.1890   74.1560  221.2090 O   0  0  0  0  0  0  0  0  0  0  0  0
  141.3810   75.1980  219.2780 N   0  0  0  0  0  0  0  0  0  0  0  0
  140.6880   74.9490  218.0300 C   0  0  0  0  0  0  0  0  0  0  0  0
  141.6180   74.8840  216.8510 C   0  0  0  0  0  0  0  0  0  0  0  0
  142.9710   75.4880  217.1490 C   0  0  0  0  0  0  0  0  0  0  0  0
  142.7040   76.7540  217.9340 C   0  0  0  0  0  0  0  0  0  0  0  0
  142.2940   76.3220  219.3240 C   0  0  1  0  0  0  0  0  0  0  0  0
  141.6740   77.5210  220.0040 C   0  0  0  0  0  0  0  0  0  0  0  0
  141.7350   77.2500  221.4250 N   0  0  0  0  0  0  0  0  0  0  0  0
  140.6680   77.8730  222.1780 C   0  0  0  0  0  0  0  0  0  0  0  0
  141.2060   79.1180  222.7820 C   0  0  0  0  0  0  0  0  0  0  0  0
  142.5790   79.3550  222.8960 C   0  0  0  0  0  0  0  0  0  0  0  0
  143.0750   80.5110  223.4560 C   0  0  0  0  0  0  0  0  0  0  0  0
  142.1990   81.4690  223.9220 C   0  0  0  0  0  0  0  0  0  0  0  0
  140.8310   81.2780  223.8300 C   0  0  0  0  0  0  0  0  0  0  0  0
  140.3740   80.1080  223.2620 C   0  0  0  0  0  0  0  0  0  0  0  0
  140.1560   71.3480  223.5480 C   0  0  0  0  0  0  0  0  0  0  0  0
  139.5670   70.1200  223.6760 C   0  0  0  0  0  0  0  0  0  0  0  0
  139.4630   69.4280  224.8660 C   0  0  0  0  0  0  0  0  0  0  0  0
  140.0010   70.0480  225.9830 C   0  0  0  0  0  0  0  0  0  0  0  0
  139.9170   69.3900  227.1970 C   0  0  0  0  0  0  0  0  0  0  0  0
  140.4510   69.9920  228.3350 C   0  0  0  0  0  0  0  0  0  0  0  0
  141.0500   71.2360  228.2160 C   0  0  0  0  0  0  0  0  0  0  0  0
  141.1240   71.8820  226.9830 C   0  0  0  0  0  0  0  0  0  0  0  0
  140.5910   71.2860  225.8370 C   0  0  0  0  0  0  0  0  0  0  0  0
  140.6670   71.9170  224.6520 N   0  0  0  0  0  0  0  0  0  0  0  0
  139.3560   73.8880  222.8550 H   0  0  0  0  0  0  0  0  0  0  0  0
  139.6265   73.0708  219.9801 H   0  0  0  0  0  0  0  0  0  0  0  0
  139.1259   74.6949  220.5956 H   0  0  0  0  0  0  0  0  0  0  0  0
  140.1538   73.9907  218.1096 H   0  0  0  0  0  0  0  0  0  0  0  0
  139.9971   75.7882  217.8613 H   0  0  0  0  0  0  0  0  0  0  0  0
  141.7564   73.8300  216.5682 H   0  0  0  0  0  0  0  0  0  0  0  0
  141.1645   75.4648  216.0343 H   0  0  0  0  0  0  0  0  0  0  0  0
  143.5772   74.7902  217.7453 H   0  0  0  0  0  0  0  0  0  0  0  0
  143.5282   75.6994  216.2245 H   0  0  0  0  0  0  0  0  0  0  0  0
  143.6138   77.3704  217.9810 H   0  0  0  0  0  0  0  0  0  0  0  0
  141.9172   77.3575  217.4579 H   0  0  0  0  0  0  0  0  0  0  0  0
  143.1693   75.9771  219.8941 H   0  0  0  0  0  0  0  0  0  0  0  0
  142.2414   78.4323  219.7640 H   0  0  0  0  0  0  0  0  0  0  0  0
  140.6389   77.6835  219.6690 H   0  0  0  0  0  0  0  0  0  0  0  0
  141.8630   76.2570  221.6470 H   0  0  0  0  0  0  0  0  0  0  0  0
  139.8289   78.1140  221.5087 H   0  0  0  0  0  0  0  0  0  0  0  0
  140.3024   77.1927  222.9613 H   0  0  0  0  0  0  0  0  0  0  0  0
  143.2841   78.5954  222.5274 H   0  0  0  0  0  0  0  0  0  0  0  0
  144.1610   80.6692  223.5311 H   0  0  0  0  0  0  0  0  0  0  0  0
  142.5911   82.3935  224.3710 H   0  0  0  0  0  0  0  0  0  0  0  0
  140.1280   82.0389  224.2000 H   0  0  0  0  0  0  0  0  0  0  0  0
  139.2871   79.9557  223.1875 H   0  0  0  0  0  0  0  0  0  0  0  0
  139.1490   69.6535  222.7718 H   0  0  0  0  0  0  0  0  0  0  0  0
  138.9808   68.4411  224.9245 H   0  0  0  0  0  0  0  0  0  0  0  0
  139.4346   68.4036  227.2634 H   0  0  0  0  0  0  0  0  0  0  0  0
  140.3979   69.4881  229.3113 H   0  0  0  0  0  0  0  0  0  0  0  0
  141.4734   71.7209  229.1079 H   0  0  0  0  0  0  0  0  0  0  0  0
  141.6056   72.8684  226.9116 H   0  0  0  0  0  0  0  0  0  0  0  0
  1  2  2  0
  2  3  1  0
  3  4  1  0
  4  5  1  0
  5  6  2  0
  5  7  1  0
  7  8  1  0
  8  9  1  0
  9 10  1  0
 10 11  1  0
 11 12  1  0
 12 13  1  0
 13 14  1  0
 14 15  1  0
 15 16  1  0
 16 17  2  0
 17 18  1  0
 18 19  2  0
 19 20  1  0
 20 21  2  0
  2 22  1  0
 22 23  2  0
 23 24  1  0
 24 25  2  0
 25 26  1  0
 26 27  2  0
 27 28  1  0
 28 29  2  0
 29 30  1  0
 30 31  2  0
 12  7  1  0
 21 16  1  0
 31 22  1  0
 30 25  1  0
  3 32  1  0
  4 33  1  0
  4 34  1  0
  8 35  1  0
  8 36  1  0
  9 37  1  0
  9 38  1  0
 10 39  1  0
 10 40  1  0
 11 41  1  0
 11 42  1  0
 12 43  1  1
 13 44  1  0
 13 45  1  0
 14 46  1  0
 15 47  1  0
 15 48  1  0
 17 49  1  0
 18 50  1  0
 19 51  1  0
 20 52  1  0
 21 53  1  0
 23 54  1  0
 24 55  1  0
 26 56  1  0
 27 57  1  0
 28 58  1  0
 29 59  1  0
M  END
>  <smiles>  (29) 
O=C(NCC(=O)N1CCCC[C@H]1CNCc1ccccc1)c1ccc2ccccc2n1

>  <score_type>  (29) 
oracle

>  <origin>  (29) 
autodockgpu

>  <m_score__min__energy>  (29) 
-9.9600000000000009

>  <m_primary>  (29) 
energy

>  <rmsd>  (29) 
2.3963330957190463

>  <m_score__min__rmsd>  (29) 
2.3963330957190463

>  <meeko>  (29) 
{"free_energy": -8.83, "intermolecular_energy": -11.22, "internal_energy": -2.13, "cluster_size": 30, "cluster_id": 1, "rank_in_cluster": 9}

>  <energy>  (29) 
-7.44

>  <cluster_rmsd>  (29) 
1.49

>  <cluster>  (29) 
1

$$$$

     RDKit          3D

 59 62  0  0  0  0  0  0  0  0999 V2000
  138.7550   71.9160  221.7460 O   0  0  0  0  0  0  0  0  0  0  0  0
  139.7160   72.1630  222.5490 C   0  0  0  0  0  0  0  0  0  0  0  0
  140.6490   73.2050  222.2530 N   0  0  0  0  0  0  0  0  0  0  0  0
  140.4070   73.9300  221.0010 C   0  0  0  0  0  0  0  0  0  0  0  0
  141.0860   73.2650  219.8650 C   0  0  0  0  0  0  0  0  0  0  0  0
  140.4820   72.4750  219.0770 O   0  0  0  0  0  0  0  0  0  0  0  0
  142.4690   73.5470  219.6810 N   0  0  0  0  0  0  0  0  0  0  0  0
  143.3890   72.6300  219.0380 C   0  0  0  0  0  0  0  0  0  0  0  0
  144.6220   72.3730  219.8580 C   0  0  0  0  0  0  0  0  0  0  0  0
  144.8240   73.4100  220.9390 C   0  0  0  0  0  0  0  0  0  0  0  0
  144.5060   74.7470  220.3050 C   0  0  0  0  0  0  0  0  0  0  0  0
  143.0030   74.8080  220.1560 C   0  0  1  0  0  0  0  0  0  0  0  0
  142.6890   75.9420  219.2070 C   0  0  0  0  0  0  0  0  0  0  0  0
  142.6910   77.1470  220.0090 N   0  0  0  0  0  0  0  0  0  0  0  0
  141.4360   77.3900  220.6870 C   0  0  0  0  0  0  0  0  0  0  0  0
  141.6860   78.3810  221.7640 C   0  0  0  0  0  0  0  0  0  0  0  0
  141.4490   78.0900  223.1110 C   0  0  0  0  0  0  0  0  0  0  0  0
  141.6830   79.0100  224.1080 C   0  0  0  0  0  0  0  0  0  0  0  0
  142.1640   80.2600  223.7770 C   0  0  0  0  0  0  0  0  0  0  0  0
  142.4130   80.5930  222.4570 C   0  0  0  0  0  0  0  0  0  0  0  0
  142.1670   79.6440  221.4880 C   0  0  0  0  0  0  0  0  0  0  0  0
  139.8600   71.3690  223.7770 C   0  0  0  0  0  0  0  0  0  0  0  0
  139.4540   70.0630  223.7870 C   0  0  0  0  0  0  0  0  0  0  0  0
  139.5440   69.2300  224.8840 C   0  0  0  0  0  0  0  0  0  0  0  0
  140.0860   69.7850  226.0310 C   0  0  0  0  0  0  0  0  0  0  0  0
  140.1950   68.9850  227.1550 C   0  0  0  0  0  0  0  0  0  0  0  0
  140.7370   69.5210  228.3220 C   0  0  0  0  0  0  0  0  0  0  0  0
  141.1520   70.8430  228.3220 C   0  0  0  0  0  0  0  0  0  0  0  0
  141.0340   71.6330  227.1790 C   0  0  0  0  0  0  0  0  0  0  0  0
  140.4920   71.1040  226.0050 C   0  0  0  0  0  0  0  0  0  0  0  0
  140.3810   71.8730  224.9080 N   0  0  0  0  0  0  0  0  0  0  0  0
  141.4460   73.4340  222.8870 H   0  0  0  0  0  0  0  0  0  0  0  0
  139.3249   73.9604  220.8059 H   0  0  0  0  0  0  0  0  0  0  0  0
  140.8081   74.9493  221.1021 H   0  0  0  0  0  0  0  0  0  0  0  0
  142.8724   71.6734  218.8705 H   0  0  0  0  0  0  0  0  0  0  0  0
  143.7099   73.0910  218.0922 H   0  0  0  0  0  0  0  0  0  0  0  0
  144.5317   71.3837  220.3305 H   0  0  0  0  0  0  0  0  0  0  0  0
  145.4889   72.4207  219.1825 H   0  0  0  0  0  0  0  0  0  0  0  0
  144.1462   73.2175  221.7837 H   0  0  0  0  0  0  0  0  0  0  0  0
  145.8515   73.3861  221.3309 H   0  0  0  0  0  0  0  0  0  0  0  0
  144.8570   75.5660  220.9501 H   0  0  0  0  0  0  0  0  0  0  0  0
  145.0057   74.8528  219.3308 H   0  0  0  0  0  0  0  0  0  0  0  0
  142.5273   74.9902  221.1309 H   0  0  0  0  0  0  0  0  0  0  0  0
  143.4554   76.0053  218.4205 H   0  0  0  0  0  0  0  0  0  0  0  0
  141.7203   75.7924  218.7078 H   0  0  0  0  0  0  0  0  0  0  0  0
  143.5080   77.2280  220.6240 H   0  0  0  0  0  0  0  0  0  0  0  0
  140.6976   77.7887  219.9758 H   0  0  0  0  0  0  0  0  0  0  0  0
  141.0406   76.4547  221.1099 H   0  0  0  0  0  0  0  0  0  0  0  0
  141.0640   77.0959  223.3822 H   0  0  0  0  0  0  0  0  0  0  0  0
  141.4882   78.7508  225.1591 H   0  0  0  0  0  0  0  0  0  0  0  0
  142.3514   80.9991  224.5699 H   0  0  0  0  0  0  0  0  0  0  0  0
  142.7969   81.5882  222.1883 H   0  0  0  0  0  0  0  0  0  0  0  0
  142.3648   79.9080  220.4386 H   0  0  0  0  0  0  0  0  0  0  0  0
  139.0281   69.6496  222.8608 H   0  0  0  0  0  0  0  0  0  0  0  0
  139.2044   68.1843  224.8490 H   0  0  0  0  0  0  0  0  0  0  0  0
  139.8579   67.9383  227.1278 H   0  0  0  0  0  0  0  0  0  0  0  0
  140.8337   68.9047  229.2280 H   0  0  0  0  0  0  0  0  0  0  0  0
  141.5811   71.2759  229.2377 H   0  0  0  0  0  0  0  0  0  0  0  0
  141.3700   72.6802  227.2019 H   0  0  0  0  0  0  0  0  0  0  0  0
  1  2  2  0
  2  3  1  0
  3  4  1  0
  4  5  1  0
  5  6  2  0
  5  7  1  0
  7  8  1  0
  8  9  1  0
  9 10  1  0
 10 11  1  0
 11 12  1  0
 12 13  1  0
 13 14  1  0
 14 15  1  0
 15 16  1  0
 16 17  2  0
 17 18  1  0
 18 19  2  0
 19 20  1  0
 20 21  2  0
  2 22  1  0
 22 23  2  0
 23 24  1  0
 24 25  2  0
 25 26  1  0
 26 27  2  0
 27 28  1  0
 28 29  2  0
 29 30  1  0
 30 31  2  0
 12  7  1  0
 21 16  1  0
 31 22  1  0
 30 25  1  0
  3 32  1  0
  4 33  1  0
  4 34  1  0
  8 35  1  0
  8 36  1  0
  9 37  1  0
  9 38  1  0
 10 39  1  0
 10 40  1  0
 11 41  1  0
 11 42  1  0
 12 43  1  1
 13 44  1  0
 13 45  1  0
 14 46  1  0
 15 47  1  0
 15 48  1  0
 17 49  1  0
 18 50  1  0
 19 51  1  0
 20 52  1  0
 21 53  1  0
 23 54  1  0
 24 55  1  0
 26 56  1  0
 27 57  1  0
 28 58  1  0
 29 59  1  0
M  END
>  <smiles>  (30) 
O=C(NCC(=O)N1CCCC[C@H]1CNCc1ccccc1)c1ccc2ccccc2n1

>  <score_type>  (30) 
oracle

>  <origin>  (30) 
autodockgpu

>  <m_score__min__energy>  (30) 
-9.9600000000000009

>  <m_primary>  (30) 
energy

>  <rmsd>  (30) 
3.3062309926787123

>  <m_score__min__rmsd>  (30) 
3.3062309926787123

>  <meeko>  (30) 
{"free_energy": -8.92, "intermolecular_energy": -11.3, "internal_energy": -1.73, "cluster_size": 30, "cluster_id": 1, "rank_in_cluster": 6}

>  <energy>  (30) 
-7.23

>  <cluster_rmsd>  (30) 
1.74

>  <cluster>  (30) 
1

$$$$

     RDKit          3D

 59 62  0  0  0  0  0  0  0  0999 V2000
  140.0800   74.0490  221.9810 O   0  0  0  0  0  0  0  0  0  0  0  0
  139.2000   74.9660  222.0970 C   0  0  0  0  0  0  0  0  0  0  0  0
  137.8110   74.6510  221.9610 N   0  0  0  0  0  0  0  0  0  0  0  0
  137.5090   73.2420  221.6890 C   0  0  0  0  0  0  0  0  0  0  0  0
  136.3090   72.8050  222.4400 C   0  0  0  0  0  0  0  0  0  0  0  0
  135.3500   73.5900  222.7110 O   0  0  0  0  0  0  0  0  0  0  0  0
  136.2650   71.4440  222.8560 N   0  0  0  0  0  0  0  0  0  0  0  0
  135.3610   70.4670  222.2850 C   0  0  0  0  0  0  0  0  0  0  0  0
  134.5750   69.7220  223.3280 C   0  0  0  0  0  0  0  0  0  0  0  0
  135.1810   69.8500  224.7080 C   0  0  0  0  0  0  0  0  0  0  0  0
  136.6770   69.7060  224.5260 C   0  0  0  0  0  0  0  0  0  0  0  0
  137.1610   70.9960  223.9030 C   0  0  1  0  0  0  0  0  0  0  0  0
  138.5570   70.7450  223.3770 C   0  0  0  0  0  0  0  0  0  0  0  0
  139.3830   71.8030  223.9180 N   0  0  0  0  0  0  0  0  0  0  0  0
  140.7360   71.3840  224.2150 C   0  0  0  0  0  0  0  0  0  0  0  0
  140.7760   70.9470  225.6330 C   0  0  0  0  0  0  0  0  0  0  0  0
  141.0100   71.8440  226.6800 C   0  0  0  0  0  0  0  0  0  0  0  0
  141.0460   71.4360  227.9950 C   0  0  0  0  0  0  0  0  0  0  0  0
  140.8460   70.1050  228.2970 C   0  0  0  0  0  0  0  0  0  0  0  0
  140.6120   69.1820  227.2940 C   0  0  0  0  0  0  0  0  0  0  0  0
  140.5830   69.6290  225.9900 C   0  0  0  0  0  0  0  0  0  0  0  0
  139.6210   76.3470  222.3700 C   0  0  0  0  0  0  0  0  0  0  0  0
  140.9420   76.6840  222.2560 C   0  0  0  0  0  0  0  0  0  0  0  0
  141.4450   77.9480  222.4880 C   0  0  0  0  0  0  0  0  0  0  0  0
  140.5230   78.9140  222.8580 C   0  0  0  0  0  0  0  0  0  0  0  0
  140.9830   80.1960  223.1020 C   0  0  0  0  0  0  0  0  0  0  0  0
  140.0750   81.1860  223.4760 C   0  0  0  0  0  0  0  0  0  0  0  0
  138.7350   80.8550  223.5940 C   0  0  0  0  0  0  0  0  0  0  0  0
  138.2910   79.5570  223.3440 C   0  0  0  0  0  0  0  0  0  0  0  0
  139.1940   78.5590  222.9690 C   0  0  0  0  0  0  0  0  0  0  0  0
  138.7570   77.3100  222.7310 N   0  0  0  0  0  0  0  0  0  0  0  0
  137.0660   75.3760  222.0500 H   0  0  0  0  0  0  0  0  0  0  0  0
  137.3263   73.1141  220.6118 H   0  0  0  0  0  0  0  0  0  0  0  0
  138.3659   72.6305  222.0082 H   0  0  0  0  0  0  0  0  0  0  0  0
  134.6568   70.9868  221.6187 H   0  0  0  0  0  0  0  0  0  0  0  0
  135.9699   69.7306  221.7400 H   0  0  0  0  0  0  0  0  0  0  0  0
  133.5515   70.1242  223.3531 H   0  0  0  0  0  0  0  0  0  0  0  0
  134.5830   68.6562  223.0559 H   0  0  0  0  0  0  0  0  0  0  0  0
  134.9421   70.8330  225.1399 H   0  0  0  0  0  0  0  0  0  0  0  0
  134.7846   69.0859  225.3928 H   0  0  0  0  0  0  0  0  0  0  0  0
  137.1645   69.5479  225.4993 H   0  0  0  0  0  0  0  0  0  0  0  0
  136.9185   68.8422  223.8892 H   0  0  0  0  0  0  0  0  0  0  0  0
  137.1787   71.8025  224.6508 H   0  0  0  0  0  0  0  0  0  0  0  0
  138.9223   69.7641  223.7151 H   0  0  0  0  0  0  0  0  0  0  0  0
  138.5784   70.7394  222.2772 H   0  0  0  0  0  0  0  0  0  0  0  0
  139.3350   72.6750  223.3820 H   0  0  0  0  0  0  0  0  0  0  0  0
  141.0216   70.5491  223.5582 H   0  0  0  0  0  0  0  0  0  0  0  0
  141.4396   72.2131  224.0490 H   0  0  0  0  0  0  0  0  0  0  0  0
  141.1700   72.9069  226.4464 H   0  0  0  0  0  0  0  0  0  0  0  0
  141.2326   72.1651  228.7973 H   0  0  0  0  0  0  0  0  0  0  0  0
  140.8729   69.7745  229.3458 H   0  0  0  0  0  0  0  0  0  0  0  0
  140.4532   68.1195  227.5303 H   0  0  0  0  0  0  0  0  0  0  0  0
  140.3960   68.8953  225.1920 H   0  0  0  0  0  0  0  0  0  0  0  0
  141.6497   75.8957  221.9600 H   0  0  0  0  0  0  0  0  0  0  0  0
  142.5163   78.1756  222.3851 H   0  0  0  0  0  0  0  0  0  0  0  0
  142.0528   80.4315  223.0021 H   0  0  0  0  0  0  0  0  0  0  0  0
  140.4170   82.2126  223.6740 H   0  0  0  0  0  0  0  0  0  0  0  0
  138.0102   81.6279  223.8894 H   0  0  0  0  0  0  0  0  0  0  0  0
  137.2220   79.3171  223.4427 H   0  0  0  0  0  0  0  0  0  0  0  0
  1  2  2  0
  2  3  1  0
  3  4  1  0
  4  5  1  0
  5  6  2  0
  5  7  1  0
  7  8  1  0
  8  9  1  0
  9 10  1  0
 10 11  1  0
 11 12  1  0
 12 13  1  0
 13 14  1  0
 14 15  1  0
 15 16  1  0
 16 17  2  0
 17 18  1  0
 18 19  2  0
 19 20  1  0
 20 21  2  0
  2 22  1  0
 22 23  2  0
 23 24  1  0
 24 25  2  0
 25 26  1  0
 26 27  2  0
 27 28  1  0
 28 29  2  0
 29 30  1  0
 30 31  2  0
 12  7  1  0
 21 16  1  0
 31 22  1  0
 30 25  1  0
  3 32  1  0
  4 33  1  0
  4 34  1  0
  8 35  1  0
  8 36  1  0
  9 37  1  0
  9 38  1  0
 10 39  1  0
 10 40  1  0
 11 41  1  0
 11 42  1  0
 12 43  1  1
 13 44  1  0
 13 45  1  0
 14 46  1  0
 15 47  1  0
 15 48  1  0
 17 49  1  0
 18 50  1  0
 19 51  1  0
 20 52  1  0
 21 53  1  0
 23 54  1  0
 24 55  1  0
 26 56  1  0
 27 57  1  0
 28 58  1  0
 29 59  1  0
M  END
>  <smiles>  (31) 
O=C(NCC(=O)N1CCCC[C@H]1CNCc1ccccc1)c1ccc2ccccc2n1

>  <score_type>  (31) 
oracle

>  <origin>  (31) 
autodockgpu

>  <m_score__min__energy>  (31) 
-9.9600000000000009

>  <m_primary>  (31) 
energy

>  <rmsd>  (31) 
9.536663254632073

>  <m_score__min__rmsd>  (31) 
9.536663254632073

>  <meeko>  (31) 
{"free_energy": -7.93, "intermolecular_energy": -10.32, "internal_energy": -2.71, "cluster_size": 1, "cluster_id": 5, "rank_in_cluster": 1}

>  <energy>  (31) 
-9.08

>  <cluster_rmsd>  (31) 
0.0

>  <cluster>  (31) 
2

$$$$

     RDKit          3D

 59 62  0  0  0  0  0  0  0  0999 V2000
  141.4470   71.6210  222.1990 O   0  0  0  0  0  0  0  0  0  0  0  0
  140.4990   71.8550  223.0210 C   0  0  0  0  0  0  0  0  0  0  0  0
  139.4410   72.7490  222.6630 N   0  0  0  0  0  0  0  0  0  0  0  0
  139.5430   73.3410  221.3260 C   0  0  0  0  0  0  0  0  0  0  0  0
  140.4480   74.5140  221.3350 C   0  0  0  0  0  0  0  0  0  0  0  0
  140.2650   75.5110  222.0970 O   0  0  0  0  0  0  0  0  0  0  0  0
  141.5560   74.4850  220.4410 N   0  0  0  0  0  0  0  0  0  0  0  0
  142.1440   73.2580  219.9430 C   0  0  0  0  0  0  0  0  0  0  0  0
  143.6350   73.2090  220.1330 C   0  0  0  0  0  0  0  0  0  0  0  0
  144.2270   74.5730  220.4050 C   0  0  0  0  0  0  0  0  0  0  0  0
  143.5360   75.5290  219.4570 C   0  0  0  0  0  0  0  0  0  0  0  0
  142.1380   75.7350  219.9950 C   0  0  1  0  0  0  0  0  0  0  0  0
  141.3210   76.3730  218.8950 C   0  0  0  0  0  0  0  0  0  0  0  0
  141.0500   77.7260  219.3320 N   0  0  0  0  0  0  0  0  0  0  0  0
  142.1130   78.2980  220.1290 C   0  0  0  0  0  0  0  0  0  0  0  0
  141.5350   78.6980  221.4370 C   0  0  0  0  0  0  0  0  0  0  0  0
  142.2900   79.3560  222.4130 C   0  0  0  0  0  0  0  0  0  0  0  0
  141.7510   79.7260  223.6250 C   0  0  0  0  0  0  0  0  0  0  0  0
  140.4280   79.4420  223.8940 C   0  0  0  0  0  0  0  0  0  0  0  0
  139.6430   78.7920  222.9580 C   0  0  0  0  0  0  0  0  0  0  0  0
  140.2190   78.4380  221.7560 C   0  0  0  0  0  0  0  0  0  0  0  0
  140.5010   71.2020  224.3380 C   0  0  0  0  0  0  0  0  0  0  0  0
  140.9990   71.8730  225.4210 C   0  0  0  0  0  0  0  0  0  0  0  0
  141.0480   71.3560  226.7000 C   0  0  0  0  0  0  0  0  0  0  0  0
  140.5520   70.0720  226.8600 C   0  0  0  0  0  0  0  0  0  0  0  0
  140.5830   69.5150  228.1260 C   0  0  0  0  0  0  0  0  0  0  0  0
  140.0900   68.2240  228.3130 C   0  0  0  0  0  0  0  0  0  0  0  0
  139.5830   67.5360  227.2220 C   0  0  0  0  0  0  0  0  0  0  0  0
  139.5620   68.1160  225.9540 C   0  0  0  0  0  0  0  0  0  0  0  0
  140.0540   69.4090  225.7580 C   0  0  0  0  0  0  0  0  0  0  0  0
  140.0290   69.9610  224.5320 N   0  0  0  0  0  0  0  0  0  0  0  0
  138.6510   72.9620  223.3110 H   0  0  0  0  0  0  0  0  0  0  0  0
  139.9366   72.5878  220.6276 H   0  0  0  0  0  0  0  0  0  0  0  0
  138.5423   73.6715  221.0106 H   0  0  0  0  0  0  0  0  0  0  0  0
  141.6931   72.4094  220.4783 H   0  0  0  0  0  0  0  0  0  0  0  0
  141.9454   73.2097  218.8621 H   0  0  0  0  0  0  0  0  0  0  0  0
  143.8611   72.5498  220.9841 H   0  0  0  0  0  0  0  0  0  0  0  0
  144.0794   72.8307  219.2006 H   0  0  0  0  0  0  0  0  0  0  0  0
  144.0406   74.8687  221.4480 H   0  0  0  0  0  0  0  0  0  0  0  0
  145.3165   74.5750  220.2532 H   0  0  0  0  0  0  0  0  0  0  0  0
  144.0752   76.4872  219.4243 H   0  0  0  0  0  0  0  0  0  0  0  0
  143.5121   75.1255  218.4339 H   0  0  0  0  0  0  0  0  0  0  0  0
  142.1580   76.3911  220.8777 H   0  0  0  0  0  0  0  0  0  0  0  0
  141.8893   76.3822  217.9532 H   0  0  0  0  0  0  0  0  0  0  0  0
  140.3908   75.8159  218.7095 H   0  0  0  0  0  0  0  0  0  0  0  0
  140.7290   78.3430  218.5790 H   0  0  0  0  0  0  0  0  0  0  0  0
  142.9075   77.5530  220.2831 H   0  0  0  0  0  0  0  0  0  0  0  0
  142.5491   79.1697  219.6190 H   0  0  0  0  0  0  0  0  0  0  0  0
  143.3459   79.5849  222.2064 H   0  0  0  0  0  0  0  0  0  0  0  0
  142.3702   80.2437  224.3724 H   0  0  0  0  0  0  0  0  0  0  0  0
  139.9933   79.7349  224.8611 H   0  0  0  0  0  0  0  0  0  0  0  0
  138.5875   78.5637  223.1672 H   0  0  0  0  0  0  0  0  0  0  0  0
  139.5953   77.9207  221.0121 H   0  0  0  0  0  0  0  0  0  0  0  0
  141.3855   72.8906  225.2624 H   0  0  0  0  0  0  0  0  0  0  0  0
  141.4574   71.9305  227.5440 H   0  0  0  0  0  0  0  0  0  0  0  0
  140.9914   70.0834  228.9746 H   0  0  0  0  0  0  0  0  0  0  0  0
  140.1033   67.7594  229.3100 H   0  0  0  0  0  0  0  0  0  0  0  0
  139.1913   66.5172  227.3583 H   0  0  0  0  0  0  0  0  0  0  0  0
  139.1552   67.5515  225.1020 H   0  0  0  0  0  0  0  0  0  0  0  0
  1  2  2  0
  2  3  1  0
  3  4  1  0
  4  5  1  0
  5  6  2  0
  5  7  1  0
  7  8  1  0
  8  9  1  0
  9 10  1  0
 10 11  1  0
 11 12  1  0
 12 13  1  0
 13 14  1  0
 14 15  1  0
 15 16  1  0
 16 17  2  0
 17 18  1  0
 18 19  2  0
 19 20  1  0
 20 21  2  0
  2 22  1  0
 22 23  2  0
 23 24  1  0
 24 25  2  0
 25 26  1  0
 26 27  2  0
 27 28  1  0
 28 29  2  0
 29 30  1  0
 30 31  2  0
 12  7  1  0
 21 16  1  0
 31 22  1  0
 30 25  1  0
  3 32  1  0
  4 33  1  0
  4 34  1  0
  8 35  1  0
  8 36  1  0
  9 37  1  0
  9 38  1  0
 10 39  1  0
 10 40  1  0
 11 41  1  0
 11 42  1  0
 12 43  1  1
 13 44  1  0
 13 45  1  0
 14 46  1  0
 15 47  1  0
 15 48  1  0
 17 49  1  0
 18 50  1  0
 19 51  1  0
 20 52  1  0
 21 53  1  0
 23 54  1  0
 24 55  1  0
 26 56  1  0
 27 57  1  0
 28 58  1  0
 29 59  1  0
M  END
>  <smiles>  (32) 
O=C(NCC(=O)N1CCCC[C@H]1CNCc1ccccc1)c1ccc2ccccc2n1

>  <score_type>  (32) 
oracle

>  <origin>  (32) 
autodockgpu

>  <m_score__min__energy>  (32) 
-9.9600000000000009

>  <m_primary>  (32) 
energy

>  <rmsd>  (32) 
3.539055235904421

>  <m_score__min__rmsd>  (32) 
3.539055235904421

>  <meeko>  (32) 
{"free_energy": -8.74, "intermolecular_energy": -11.13, "internal_energy": -1.91, "cluster_size": 30, "cluster_id": 1, "rank_in_cluster": 14}

>  <energy>  (32) 
-8.99

>  <cluster_rmsd>  (32) 
0.51

>  <cluster>  (32) 
2

$$$$

     RDKit          3D

 59 62  0  0  0  0  0  0  0  0999 V2000
  140.6550   75.2930  220.6050 O   0  0  0  0  0  0  0  0  0  0  0  0
  139.9920   75.6680  221.6280 C   0  0  0  0  0  0  0  0  0  0  0  0
  139.0530   74.7810  222.2410 N   0  0  0  0  0  0  0  0  0  0  0  0
  138.9330   73.4610  221.6140 C   0  0  0  0  0  0  0  0  0  0  0  0
  140.0370   72.5700  222.0400 C   0  0  0  0  0  0  0  0  0  0  0  0
  140.6940   72.7610  223.1080 O   0  0  0  0  0  0  0  0  0  0  0  0
  140.3440   71.4670  221.1930 N   0  0  0  0  0  0  0  0  0  0  0  0
  141.5690   71.3710  220.4260 C   0  0  0  0  0  0  0  0  0  0  0  0
  141.3240   71.0740  218.9730 C   0  0  0  0  0  0  0  0  0  0  0  0
  139.9310   70.5430  218.7190 C   0  0  0  0  0  0  0  0  0  0  0  0
  139.6460   69.5580  219.8330 C   0  0  0  0  0  0  0  0  0  0  0  0
  139.3950   70.3780  221.0790 C   0  0  1  0  0  0  0  0  0  0  0  0
  139.4750   69.4380  222.2600 C   0  0  0  0  0  0  0  0  0  0  0  0
  139.3650   70.2690  223.4400 N   0  0  0  0  0  0  0  0  0  0  0  0
  138.9610   69.5410  224.6240 C   0  0  0  0  0  0  0  0  0  0  0  0
  139.6960   70.1120  225.7810 C   0  0  0  0  0  0  0  0  0  0  0  0
  139.7540   69.4620  227.0170 C   0  0  0  0  0  0  0  0  0  0  0  0
  140.4360   69.9940  228.0890 C   0  0  0  0  0  0  0  0  0  0  0  0
  141.0860   71.2020  227.9470 C   0  0  0  0  0  0  0  0  0  0  0  0
  141.0560   71.8810  226.7410 C   0  0  0  0  0  0  0  0  0  0  0  0
  140.3620   71.3170  225.6920 C   0  0  0  0  0  0  0  0  0  0  0  0
  140.1960   77.0180  222.1730 C   0  0  0  0  0  0  0  0  0  0  0  0
  139.1180   77.7380  222.6100 C   0  0  0  0  0  0  0  0  0  0  0  0
  139.1960   79.0110  223.1380 C   0  0  0  0  0  0  0  0  0  0  0  0
  140.4640   79.5640  223.2150 C   0  0  0  0  0  0  0  0  0  0  0  0
  140.5880   80.8390  223.7370 C   0  0  0  0  0  0  0  0  0  0  0  0
  141.8540   81.4180  223.8250 C   0  0  0  0  0  0  0  0  0  0  0  0
  142.9520   80.6980  223.3840 C   0  0  0  0  0  0  0  0  0  0  0  0
  142.8050   79.4130  222.8610 C   0  0  0  0  0  0  0  0  0  0  0  0
  141.5410   78.8260  222.7690 C   0  0  0  0  0  0  0  0  0  0  0  0
  141.4090   77.5870  222.2630 N   0  0  0  0  0  0  0  0  0  0  0  0
  138.4940   75.0550  223.0790 H   0  0  0  0  0  0  0  0  0  0  0  0
  137.9732   73.0098  221.9059 H   0  0  0  0  0  0  0  0  0  0  0  0
  138.9835   73.5851  220.5222 H   0  0  0  0  0  0  0  0  0  0  0  0
  142.1081   72.3267  220.5034 H   0  0  0  0  0  0  0  0  0  0  0  0
  142.1551   70.5375  220.8404 H   0  0  0  0  0  0  0  0  0  0  0  0
  141.4595   72.0004  218.3956 H   0  0  0  0  0  0  0  0  0  0  0  0
  142.0398   70.2978  218.6645 H   0  0  0  0  0  0  0  0  0  0  0  0
  139.1998   71.3646  218.7398 H   0  0  0  0  0  0  0  0  0  0  0  0
  139.8580   70.0641  217.7314 H   0  0  0  0  0  0  0  0  0  0  0  0
  138.7584   68.9556  219.5895 H   0  0  0  0  0  0  0  0  0  0  0  0
  140.4885   68.8654  219.9762 H   0  0  0  0  0  0  0  0  0  0  0  0
  138.4009   70.8472  221.0378 H   0  0  0  0  0  0  0  0  0  0  0  0
  138.6502   68.7110  222.2263 H   0  0  0  0  0  0  0  0  0  0  0  0
  140.4145   68.8659  222.2565 H   0  0  0  0  0  0  0  0  0  0  0  0
  140.1790   70.8740  223.5920 H   0  0  0  0  0  0  0  0  0  0  0  0
  137.8774   69.6498  224.7785 H   0  0  0  0  0  0  0  0  0  0  0  0
  139.1900   68.4708  224.5137 H   0  0  0  0  0  0  0  0  0  0  0  0
  139.2398   68.4970  227.1372 H   0  0  0  0  0  0  0  0  0  0  0  0
  140.4620   69.4598  229.0502 H   0  0  0  0  0  0  0  0  0  0  0  0
  141.6333   71.6299  228.7999 H   0  0  0  0  0  0  0  0  0  0  0  0
  141.5723   72.8451  226.6229 H   0  0  0  0  0  0  0  0  0  0  0  0
  140.3379   71.8561  224.7334 H   0  0  0  0  0  0  0  0  0  0  0  0
  138.1243   77.2721  222.5358 H   0  0  0  0  0  0  0  0  0  0  0  0
  138.3026   79.5552  223.4781 H   0  0  0  0  0  0  0  0  0  0  0  0
  139.6991   81.3896  224.0785 H   0  0  0  0  0  0  0  0  0  0  0  0
  141.9783   82.4300  224.2379 H   0  0  0  0  0  0  0  0  0  0  0  0
  143.9547   81.1460  223.4471 H   0  0  0  0  0  0  0  0  0  0  0  0
  143.6910   78.8582  222.5186 H   0  0  0  0  0  0  0  0  0  0  0  0
  1  2  2  0
  2  3  1  0
  3  4  1  0
  4  5  1  0
  5  6  2  0
  5  7  1  0
  7  8  1  0
  8  9  1  0
  9 10  1  0
 10 11  1  0
 11 12  1  0
 12 13  1  0
 13 14  1  0
 14 15  1  0
 15 16  1  0
 16 17  2  0
 17 18  1  0
 18 19  2  0
 19 20  1  0
 20 21  2  0
  2 22  1  0
 22 23  2  0
 23 24  1  0
 24 25  2  0
 25 26  1  0
 26 27  2  0
 27 28  1  0
 28 29  2  0
 29 30  1  0
 30 31  2  0
 12  7  1  0
 21 16  1  0
 31 22  1  0
 30 25  1  0
  3 32  1  0
  4 33  1  0
  4 34  1  0
  8 35  1  0
  8 36  1  0
  9 37  1  0
  9 38  1  0
 10 39  1  0
 10 40  1  0
 11 41  1  0
 11 42  1  0
 12 43  1  6
 13 44  1  0
 13 45  1  0
 14 46  1  0
 15 47  1  0
 15 48  1  0
 17 49  1  0
 18 50  1  0
 19 51  1  0
 20 52  1  0
 21 53  1  0
 23 54  1  0
 24 55  1  0
 26 56  1  0
 27 57  1  0
 28 58  1  0
 29 59  1  0
M  END
>  <smiles>  (33) 
O=C(NCC(=O)N1CCCC[C@H]1CNCc1ccccc1)c1ccc2ccccc2n1

>  <score_type>  (33) 
oracle

>  <origin>  (33) 
autodockgpu

>  <m_score__min__energy>  (33) 
-9.9600000000000009

>  <m_primary>  (33) 
energy

>  <rmsd>  (33) 
8.974866621051937

>  <m_score__min__rmsd>  (33) 
8.974866621051937

>  <meeko>  (33) 
{"free_energy": -8.3, "intermolecular_energy": -10.69, "internal_energy": -2.1, "cluster_size": 30, "cluster_id": 1, "rank_in_cluster": 24}

>  <energy>  (33) 
-8.92

>  <cluster_rmsd>  (33) 
0.4

>  <cluster>  (33) 
2

$$$$

     RDKit          3D

 59 62  0  0  0  0  0  0  0  0999 V2000
  141.1390   72.7010  221.9050 O   0  0  0  0  0  0  0  0  0  0  0  0
  140.0790   72.6060  222.6090 C   0  0  0  0  0  0  0  0  0  0  0  0
  138.9630   73.4600  222.3450 N   0  0  0  0  0  0  0  0  0  0  0  0
  139.1430   74.4090  221.2420 C   0  0  0  0  0  0  0  0  0  0  0  0
  140.0640   75.5020  221.6310 C   0  0  0  0  0  0  0  0  0  0  0  0
  141.1090   75.3000  222.3220 O   0  0  0  0  0  0  0  0  0  0  0  0
  139.7330   76.8160  221.1930 N   0  0  0  0  0  0  0  0  0  0  0  0
  139.1050   77.8040  222.0470 C   0  0  0  0  0  0  0  0  0  0  0  0
  137.8810   78.4160  221.4250 C   0  0  0  0  0  0  0  0  0  0  0  0
  137.8150   78.1860  219.9320 C   0  0  0  0  0  0  0  0  0  0  0  0
  139.2190   78.4070  219.4090 C   0  0  0  0  0  0  0  0  0  0  0  0
  140.0300   77.2020  219.8280 C   0  0  1  0  0  0  0  0  0  0  0  0
  141.4890   77.5570  219.6500 C   0  0  0  0  0  0  0  0  0  0  0  0
  142.2390   76.4510  220.2060 N   0  0  0  0  0  0  0  0  0  0  0  0
  143.4480   76.1460  219.4700 C   0  0  0  0  0  0  0  0  0  0  0  0
  143.9180   74.8060  219.9030 C   0  0  0  0  0  0  0  0  0  0  0  0
  143.1400   73.6560  219.7360 C   0  0  0  0  0  0  0  0  0  0  0  0
  143.5790   72.4140  220.1390 C   0  0  0  0  0  0  0  0  0  0  0  0
  144.8210   72.2920  220.7250 C   0  0  0  0  0  0  0  0  0  0  0  0
  145.6260   73.4030  220.9110 C   0  0  0  0  0  0  0  0  0  0  0  0
  145.1510   74.6280  220.4950 C   0  0  0  0  0  0  0  0  0  0  0  0
  140.0110   71.6140  223.6920 C   0  0  0  0  0  0  0  0  0  0  0  0
  139.3840   70.4190  223.4720 C   0  0  0  0  0  0  0  0  0  0  0  0
  139.2640   69.4190  224.4160 C   0  0  0  0  0  0  0  0  0  0  0  0
  139.8260   69.6780  225.6560 C   0  0  0  0  0  0  0  0  0  0  0  0
  139.7280   68.7040  226.6330 C   0  0  0  0  0  0  0  0  0  0  0  0
  140.2860   68.9410  227.8890 C   0  0  0  0  0  0  0  0  0  0  0  0
  140.9230   70.1490  228.1210 C   0  0  0  0  0  0  0  0  0  0  0  0
  141.0110   71.1180  227.1230 C   0  0  0  0  0  0  0  0  0  0  0  0
  140.4550   70.8890  225.8620 C   0  0  0  0  0  0  0  0  0  0  0  0
  140.5440   71.8300  224.9050 N   0  0  0  0  0  0  0  0  0  0  0  0
  138.0800   73.4080  222.9000 H   0  0  0  0  0  0  0  0  0  0  0  0
  139.5607   73.8777  220.3741 H   0  0  0  0  0  0  0  0  0  0  0  0
  138.1652   74.8457  220.9906 H   0  0  0  0  0  0  0  0  0  0  0  0
  138.8150   77.3195  222.9910 H   0  0  0  0  0  0  0  0  0  0  0  0
  139.8332   78.6120  222.2107 H   0  0  0  0  0  0  0  0  0  0  0  0
  136.9888   77.9716  221.8904 H   0  0  0  0  0  0  0  0  0  0  0  0
  137.9266   79.5019  221.5947 H   0  0  0  0  0  0  0  0  0  0  0  0
  137.4857   77.1584  219.7185 H   0  0  0  0  0  0  0  0  0  0  0  0
  137.0964   78.8669  219.4525 H   0  0  0  0  0  0  0  0  0  0  0  0
  139.2064   78.4935  218.3125 H   0  0  0  0  0  0  0  0  0  0  0  0
  139.6508   79.3354  219.8110 H   0  0  0  0  0  0  0  0  0  0  0  0
  139.7758   76.3312  219.2058 H   0  0  0  0  0  0  0  0  0  0  0  0
  141.7249   77.6807  218.5827 H   0  0  0  0  0  0  0  0  0  0  0  0
  141.7373   78.5045  220.1506 H   0  0  0  0  0  0  0  0  0  0  0  0
  142.3860   76.5230  221.2180 H   0  0  0  0  0  0  0  0  0  0  0  0
  143.2367   76.1375  218.3905 H   0  0  0  0  0  0  0  0  0  0  0  0
  144.2191   76.9054  219.6668 H   0  0  0  0  0  0  0  0  0  0  0  0
  142.1481   73.7458  219.2690 H   0  0  0  0  0  0  0  0  0  0  0  0
  142.9442   71.5274  219.9945 H   0  0  0  0  0  0  0  0  0  0  0  0
  145.1759   71.3022  221.0480 H   0  0  0  0  0  0  0  0  0  0  0  0
  146.6176   73.3104  221.3780 H   0  0  0  0  0  0  0  0  0  0  0  0
  145.7896   75.5113  220.6430 H   0  0  0  0  0  0  0  0  0  0  0  0
  138.9468   70.2430  222.4781 H   0  0  0  0  0  0  0  0  0  0  0  0
  138.7516   68.4707  224.1965 H   0  0  0  0  0  0  0  0  0  0  0  0
  139.2160   67.7536  226.4219 H   0  0  0  0  0  0  0  0  0  0  0  0
  140.2213   68.1815  228.6821 H   0  0  0  0  0  0  0  0  0  0  0  0
  141.3663   70.3466  229.1082 H   0  0  0  0  0  0  0  0  0  0  0  0
  141.5219   72.0699  227.3298 H   0  0  0  0  0  0  0  0  0  0  0  0
  1  2  2  0
  2  3  1  0
  3  4  1  0
  4  5  1  0
  5  6  2  0
  5  7  1  0
  7  8  1  0
  8  9  1  0
  9 10  1  0
 10 11  1  0
 11 12  1  0
 12 13  1  0
 13 14  1  0
 14 15  1  0
 15 16  1  0
 16 17  2  0
 17 18  1  0
 18 19  2  0
 19 20  1  0
 20 21  2  0
  2 22  1  0
 22 23  2  0
 23 24  1  0
 24 25  2  0
 25 26  1  0
 26 27  2  0
 27 28  1  0
 28 29  2  0
 29 30  1  0
 30 31  2  0
 12  7  1  0
 21 16  1  0
 31 22  1  0
 30 25  1  0
  3 32  1  0
  4 33  1  0
  4 34  1  0
  8 35  1  0
  8 36  1  0
  9 37  1  0
  9 38  1  0
 10 39  1  0
 10 40  1  0
 11 41  1  0
 11 42  1  0
 12 43  1  6
 13 44  1  0
 13 45  1  0
 14 46  1  0
 15 47  1  0
 15 48  1  0
 17 49  1  0
 18 50  1  0
 19 51  1  0
 20 52  1  0
 21 53  1  0
 23 54  1  0
 24 55  1  0
 26 56  1  0
 27 57  1  0
 28 58  1  0
 29 59  1  0
M  END
>  <smiles>  (34) 
O=C(NCC(=O)N1CCCC[C@H]1CNCc1ccccc1)c1ccc2ccccc2n1

>  <score_type>  (34) 
oracle

>  <origin>  (34) 
autodockgpu

>  <m_score__min__energy>  (34) 
-9.9600000000000009

>  <m_primary>  (34) 
energy

>  <rmsd>  (34) 
4.923853522957258

>  <m_score__min__rmsd>  (34) 
4.923853522957258

>  <meeko>  (34) 
{"free_energy": -8.42, "intermolecular_energy": -10.8, "internal_energy": -2.31, "cluster_size": 5, "cluster_id": 2, "rank_in_cluster": 5}

>  <energy>  (34) 
-8.69

>  <cluster_rmsd>  (34) 
0.59

>  <cluster>  (34) 
2

$$$$

     RDKit          3D

 59 62  0  0  0  0  0  0  0  0999 V2000
  139.0810   74.9230  221.9070 O   0  0  0  0  0  0  0  0  0  0  0  0
  140.2120   75.5120  221.9540 C   0  0  0  0  0  0  0  0  0  0  0  0
  141.4050   74.8070  221.6000 N   0  0  0  0  0  0  0  0  0  0  0  0
  141.2140   73.4100  221.1960 C   0  0  0  0  0  0  0  0  0  0  0  0
  141.8450   73.1490  219.8810 C   0  0  0  0  0  0  0  0  0  0  0  0
  141.1840   72.7520  218.8740 O   0  0  0  0  0  0  0  0  0  0  0  0
  143.2490   73.3620  219.7820 N   0  0  0  0  0  0  0  0  0  0  0  0
  144.1590   72.4040  219.1870 C   0  0  0  0  0  0  0  0  0  0  0  0
  145.3270   72.0800  220.0770 C   0  0  0  0  0  0  0  0  0  0  0  0
  145.5150   73.1010  221.1770 C   0  0  0  0  0  0  0  0  0  0  0  0
  145.3030   74.4550  220.5360 C   0  0  0  0  0  0  0  0  0  0  0  0
  143.8160   74.5920  220.2980 C   0  0  1  0  0  0  0  0  0  0  0  0
  143.6160   75.7460  219.3420 C   0  0  0  0  0  0  0  0  0  0  0  0
  142.8420   76.7340  220.0640 N   0  0  0  0  0  0  0  0  0  0  0  0
  141.6670   77.1810  219.3490 C   0  0  0  0  0  0  0  0  0  0  0  0
  141.8000   78.6430  219.1250 C   0  0  0  0  0  0  0  0  0  0  0  0
  142.6810   79.1720  218.1780 C   0  0  0  0  0  0  0  0  0  0  0  0
  142.8030   80.5290  217.9730 C   0  0  0  0  0  0  0  0  0  0  0  0
  142.0350   81.3980  218.7190 C   0  0  0  0  0  0  0  0  0  0  0  0
  141.1490   80.9200  219.6680 C   0  0  0  0  0  0  0  0  0  0  0  0
  141.0560   79.5550  219.8440 C   0  0  0  0  0  0  0  0  0  0  0  0
  140.2830   76.9180  222.3750 C   0  0  0  0  0  0  0  0  0  0  0  0
  139.1270   77.6060  222.6230 C   0  0  0  0  0  0  0  0  0  0  0  0
  139.0790   78.9260  223.0240 C   0  0  0  0  0  0  0  0  0  0  0  0
  140.2990   79.5650  223.1740 C   0  0  0  0  0  0  0  0  0  0  0  0
  140.2980   80.8890  223.5730 C   0  0  0  0  0  0  0  0  0  0  0  0
  141.5130   81.5540  223.7300 C   0  0  0  0  0  0  0  0  0  0  0  0
  142.6900   80.8660  223.4810 C   0  0  0  0  0  0  0  0  0  0  0  0
  142.6700   79.5310  223.0800 C   0  0  0  0  0  0  0  0  0  0  0  0
  141.4560   78.8570  222.9190 C   0  0  0  0  0  0  0  0  0  0  0  0
  141.4470   77.5700  222.5310 N   0  0  0  0  0  0  0  0  0  0  0  0
  142.3460   75.2580  221.6260 H   0  0  0  0  0  0  0  0  0  0  0  0
  141.6687   72.7514  221.9507 H   0  0  0  0  0  0  0  0  0  0  0  0
  140.1351   73.2123  221.1136 H   0  0  0  0  0  0  0  0  0  0  0  0
  143.6063   71.4756  218.9803 H   0  0  0  0  0  0  0  0  0  0  0  0
  144.5587   72.8542  218.2664 H   0  0  0  0  0  0  0  0  0  0  0  0
  145.1591   71.0941  220.5351 H   0  0  0  0  0  0  0  0  0  0  0  0
  146.2343   72.0865  219.4550 H   0  0  0  0  0  0  0  0  0  0  0  0
  144.7787   72.9387  221.9780 H   0  0  0  0  0  0  0  0  0  0  0  0
  146.5146   73.0236  221.6296 H   0  0  0  0  0  0  0  0  0  0  0  0
  145.6550   75.2521  221.2074 H   0  0  0  0  0  0  0  0  0  0  0  0
  145.8651   74.5406  219.5943 H   0  0  0  0  0  0  0  0  0  0  0  0
  143.2923   74.7924  221.2443 H   0  0  0  0  0  0  0  0  0  0  0  0
  144.5873   76.1663  219.0419 H   0  0  0  0  0  0  0  0  0  0  0  0
  143.1020   75.4240  218.4243 H   0  0  0  0  0  0  0  0  0  0  0  0
  142.6520   76.4730  221.0370 H   0  0  0  0  0  0  0  0  0  0  0  0
  141.5959   76.6595  218.3831 H   0  0  0  0  0  0  0  0  0  0  0  0
  140.7583   76.9625  219.9291 H   0  0  0  0  0  0  0  0  0  0  0  0
  143.2955   78.4844  217.5783 H   0  0  0  0  0  0  0  0  0  0  0  0
  143.5066   80.9157  217.2211 H   0  0  0  0  0  0  0  0  0  0  0  0
  142.1277   82.4822  218.5579 H   0  0  0  0  0  0  0  0  0  0  0  0
  140.5353   81.6098  220.2660 H   0  0  0  0  0  0  0  0  0  0  0  0
  140.3512   79.1737  220.5976 H   0  0  0  0  0  0  0  0  0  0  0  0
  138.1736   77.0727  222.4945 H   0  0  0  0  0  0  0  0  0  0  0  0
  138.1259   79.4414  223.2137 H   0  0  0  0  0  0  0  0  0  0  0  0
  139.3491   81.4115  223.7643 H   0  0  0  0  0  0  0  0  0  0  0  0
  141.5372   82.6073  224.0462 H   0  0  0  0  0  0  0  0  0  0  0  0
  143.6545   81.3810  223.6016 H   0  0  0  0  0  0  0  0  0  0  0  0
  143.6165   79.0041  222.8889 H   0  0  0  0  0  0  0  0  0  0  0  0
  1  2  2  0
  2  3  1  0
  3  4  1  0
  4  5  1  0
  5  6  2  0
  5  7  1  0
  7  8  1  0
  8  9  1  0
  9 10  1  0
 10 11  1  0
 11 12  1  0
 12 13  1  0
 13 14  1  0
 14 15  1  0
 15 16  1  0
 16 17  2  0
 17 18  1  0
 18 19  2  0
 19 20  1  0
 20 21  2  0
  2 22  1  0
 22 23  2  0
 23 24  1  0
 24 25  2  0
 25 26  1  0
 26 27  2  0
 27 28  1  0
 28 29  2  0
 29 30  1  0
 30 31  2  0
 12  7  1  0
 21 16  1  0
 31 22  1  0
 30 25  1  0
  3 32  1  0
  4 33  1  0
  4 34  1  0
  8 35  1  0
  8 36  1  0
  9 37  1  0
  9 38  1  0
 10 39  1  0
 10 40  1  0
 11 41  1  0
 11 42  1  0
 12 43  1  1
 13 44  1  0
 13 45  1  0
 14 46  1  0
 15 47  1  0
 15 48  1  0
 17 49  1  0
 18 50  1  0
 19 51  1  0
 20 52  1  0
 21 53  1  0
 23 54  1  0
 24 55  1  0
 26 56  1  0
 27 57  1  0
 28 58  1  0
 29 59  1  0
M  END
>  <smiles>  (35) 
O=C(NCC(=O)N1CCCC[C@H]1CNCc1ccccc1)c1ccc2ccccc2n1

>  <score_type>  (35) 
oracle

>  <origin>  (35) 
autodockgpu

>  <m_score__min__energy>  (35) 
-9.9600000000000009

>  <m_primary>  (35) 
energy

>  <rmsd>  (35) 
6.905820956719262

>  <m_score__min__rmsd>  (35) 
6.905820956719262

>  <meeko>  (35) 
{"free_energy": -7.83, "intermolecular_energy": -10.22, "internal_energy": -3.93, "cluster_size": 30, "cluster_id": 1, "rank_in_cluster": 27}

>  <energy>  (35) 
-8.42

>  <cluster_rmsd>  (35) 
1.04

>  <cluster>  (35) 
2

$$$$

     RDKit          3D

 59 62  0  0  0  0  0  0  0  0999 V2000
  141.3770   72.4580  221.6590 O   0  0  0  0  0  0  0  0  0  0  0  0
  140.4140   72.6140  222.4820 C   0  0  0  0  0  0  0  0  0  0  0  0
  139.5260   73.7270  222.3460 N   0  0  0  0  0  0  0  0  0  0  0  0
  139.8120   74.6270  221.2240 C   0  0  0  0  0  0  0  0  0  0  0  0
  139.3040   75.9910  221.4980 C   0  0  0  0  0  0  0  0  0  0  0  0
  138.0690   76.2430  221.6360 O   0  0  0  0  0  0  0  0  0  0  0  0
  140.2680   77.0330  221.6030 N   0  0  0  0  0  0  0  0  0  0  0  0
  141.0800   77.2490  222.7830 C   0  0  0  0  0  0  0  0  0  0  0  0
  141.0290   78.6700  223.2730 C   0  0  0  0  0  0  0  0  0  0  0  0
  140.5000   79.6230  222.2250 C   0  0  0  0  0  0  0  0  0  0  0  0
  141.1440   79.2110  220.9180 C   0  0  0  0  0  0  0  0  0  0  0  0
  140.4610   77.9340  220.4840 C   0  0  1  0  0  0  0  0  0  0  0  0
  141.3150   77.3110  219.4030 C   0  0  0  0  0  0  0  0  0  0  0  0
  142.2740   76.4690  220.0870 N   0  0  0  0  0  0  0  0  0  0  0  0
  143.4090   76.1040  219.2670 C   0  0  0  0  0  0  0  0  0  0  0  0
  143.8640   74.7580  219.6970 C   0  0  0  0  0  0  0  0  0  0  0  0
  144.9940   74.5770  220.5020 C   0  0  0  0  0  0  0  0  0  0  0  0
  145.4140   73.3280  220.8990 C   0  0  0  0  0  0  0  0  0  0  0  0
  144.7060   72.2150  220.4970 C   0  0  0  0  0  0  0  0  0  0  0  0
  143.5810   72.3450  219.7000 C   0  0  0  0  0  0  0  0  0  0  0  0
  143.1930   73.6120  219.3230 C   0  0  0  0  0  0  0  0  0  0  0  0
  140.2230   71.6460  223.5720 C   0  0  0  0  0  0  0  0  0  0  0  0
  139.5590   70.4760  223.3240 C   0  0  0  0  0  0  0  0  0  0  0  0
  139.3250   69.5000  224.2710 C   0  0  0  0  0  0  0  0  0  0  0  0
  139.8090   69.7550  225.5450 C   0  0  0  0  0  0  0  0  0  0  0  0
  139.5970   68.8030  226.5260 C   0  0  0  0  0  0  0  0  0  0  0  0
  140.0740   69.0360  227.8150 C   0  0  0  0  0  0  0  0  0  0  0  0
  140.7490   70.2180  228.0750 C   0  0  0  0  0  0  0  0  0  0  0  0
  140.9530   71.1650  227.0720 C   0  0  0  0  0  0  0  0  0  0  0  0
  140.4780   70.9390  225.7780 C   0  0  0  0  0  0  0  0  0  0  0  0
  140.6790   71.8580  224.8170 N   0  0  0  0  0  0  0  0  0  0  0  0
  138.7290   73.8850  223.0010 H   0  0  0  0  0  0  0  0  0  0  0  0
  140.8998   74.6726  221.0671 H   0  0  0  0  0  0  0  0  0  0  0  0
  139.3101   74.2389  220.3254 H   0  0  0  0  0  0  0  0  0  0  0  0
  140.7186   76.5877  223.5843 H   0  0  0  0  0  0  0  0  0  0  0  0
  142.1232   77.0291  222.5121 H   0  0  0  0  0  0  0  0  0  0  0  0
  140.3736   78.7160  224.1552 H   0  0  0  0  0  0  0  0  0  0  0  0
  142.0565   78.9773  223.5174 H   0  0  0  0  0  0  0  0  0  0  0  0
  139.4053   79.5419  222.1533 H   0  0  0  0  0  0  0  0  0  0  0  0
  140.7354   80.6676  222.4768 H   0  0  0  0  0  0  0  0  0  0  0  0
  140.9999   79.9951  220.1601 H   0  0  0  0  0  0  0  0  0  0  0  0
  142.2269   79.0604  221.0393 H   0  0  0  0  0  0  0  0  0  0  0  0
  139.4558   78.1490  220.0925 H   0  0  0  0  0  0  0  0  0  0  0  0
  140.6932   76.7086  218.7244 H   0  0  0  0  0  0  0  0  0  0  0  0
  141.8152   78.0777  218.7931 H   0  0  0  0  0  0  0  0  0  0  0  0
  142.5370   76.8190  221.0140 H   0  0  0  0  0  0  0  0  0  0  0  0
  143.1129   76.0785  218.2079 H   0  0  0  0  0  0  0  0  0  0  0  0
  144.2192   76.8390  219.3825 H   0  0  0  0  0  0  0  0  0  0  0  0
  145.5640   75.4598  220.8274 H   0  0  0  0  0  0  0  0  0  0  0  0
  146.3071   73.2184  221.5318 H   0  0  0  0  0  0  0  0  0  0  0  0
  145.0379   71.2148  220.8123 H   0  0  0  0  0  0  0  0  0  0  0  0
  143.0125   71.4605  219.3767 H   0  0  0  0  0  0  0  0  0  0  0  0
  142.2998   73.7155  218.6894 H   0  0  0  0  0  0  0  0  0  0  0  0
  139.1875   70.3019  222.3034 H   0  0  0  0  0  0  0  0  0  0  0  0
  138.7853   68.5726  224.0290 H   0  0  0  0  0  0  0  0  0  0  0  0
  139.0583   67.8730  226.2917 H   0  0  0  0  0  0  0  0  0  0  0  0
  139.9173   68.2943  228.6121 H   0  0  0  0  0  0  0  0  0  0  0  0
  141.1298   70.4123  229.0885 H   0  0  0  0  0  0  0  0  0  0  0  0
  141.4916   72.0963  227.3014 H   0  0  0  0  0  0  0  0  0  0  0  0
  1  2  2  0
  2  3  1  0
  3  4  1  0
  4  5  1  0
  5  6  2  0
  5  7  1  0
  7  8  1  0
  8  9  1  0
  9 10  1  0
 10 11  1  0
 11 12  1  0
 12 13  1  0
 13 14  1  0
 14 15  1  0
 15 16  1  0
 16 17  2  0
 17 18  1  0
 18 19  2  0
 19 20  1  0
 20 21  2  0
  2 22  1  0
 22 23  2  0
 23 24  1  0
 24 25  2  0
 25 26  1  0
 26 27  2  0
 27 28  1  0
 28 29  2  0
 29 30  1  0
 30 31  2  0
 12  7  1  0
 21 16  1  0
 31 22  1  0
 30 25  1  0
  3 32  1  0
  4 33  1  0
  4 34  1  0
  8 35  1  0
  8 36  1  0
  9 37  1  0
  9 38  1  0
 10 39  1  0
 10 40  1  0
 11 41  1  0
 11 42  1  0
 12 43  1  6
 13 44  1  0
 13 45  1  0
 14 46  1  0
 15 47  1  0
 15 48  1  0
 17 49  1  0
 18 50  1  0
 19 51  1  0
 20 52  1  0
 21 53  1  0
 23 54  1  0
 24 55  1  0
 26 56  1  0
 27 57  1  0
 28 58  1  0
 29 59  1  0
M  END
>  <smiles>  (36) 
O=C(NCC(=O)N1CCCC[C@H]1CNCc1ccccc1)c1ccc2ccccc2n1

>  <score_type>  (36) 
oracle

>  <origin>  (36) 
autodockgpu

>  <m_score__min__energy>  (36) 
-9.9600000000000009

>  <m_primary>  (36) 
energy

>  <rmsd>  (36) 
5.214326508876679

>  <m_score__min__rmsd>  (36) 
5.214326508876679

>  <meeko>  (36) 
{"free_energy": -9.08, "intermolecular_energy": -11.47, "internal_energy": -2.07, "cluster_size": 5, "cluster_id": 2, "rank_in_cluster": 1}

>  <energy>  (36) 
-8.99

>  <cluster_rmsd>  (36) 
0.0

>  <cluster>  (36) 
3

$$$$

     RDKit          3D

 59 62  0  0  0  0  0  0  0  0999 V2000
  139.9460   73.5710  222.5690 O   0  0  0  0  0  0  0  0  0  0  0  0
  140.2920   72.3430  222.5140 C   0  0  0  0  0  0  0  0  0  0  0  0
  140.7670   71.7860  221.2860 N   0  0  0  0  0  0  0  0  0  0  0  0
  140.8170   72.7130  220.1510 C   0  0  0  0  0  0  0  0  0  0  0  0
  141.9740   73.6310  220.2700 C   0  0  0  0  0  0  0  0  0  0  0  0
  143.0250   73.3240  220.9090 O   0  0  0  0  0  0  0  0  0  0  0  0
  141.8650   74.8980  219.6290 N   0  0  0  0  0  0  0  0  0  0  0  0
  141.9510   75.0720  218.1930 C   0  0  0  0  0  0  0  0  0  0  0  0
  142.9450   76.1260  217.7940 C   0  0  0  0  0  0  0  0  0  0  0  0
  143.3160   77.0350  218.9440 C   0  0  0  0  0  0  0  0  0  0  0  0
  142.0260   77.3370  219.6750 C   0  0  0  0  0  0  0  0  0  0  0  0
  141.6580   76.0830  220.4360 C   0  0  1  0  0  0  0  0  0  0  0  0
  140.2150   76.2250  220.8660 C   0  0  0  0  0  0  0  0  0  0  0  0
  140.2460   76.4780  222.2910 N   0  0  0  0  0  0  0  0  0  0  0  0
  139.6120   77.7220  222.6700 C   0  0  0  0  0  0  0  0  0  0  0  0
  140.6600   78.7720  222.7100 C   0  0  0  0  0  0  0  0  0  0  0  0
  140.7710   79.7500  221.7170 C   0  0  0  0  0  0  0  0  0  0  0  0
  141.7440   80.7230  221.7570 C   0  0  0  0  0  0  0  0  0  0  0  0
  142.6410   80.7430  222.8060 C   0  0  0  0  0  0  0  0  0  0  0  0
  142.5690   79.7950  223.8120 C   0  0  0  0  0  0  0  0  0  0  0  0
  141.5810   78.8370  223.7360 C   0  0  0  0  0  0  0  0  0  0  0  0
  140.1980   71.5060  223.7180 C   0  0  0  0  0  0  0  0  0  0  0  0
  139.5920   70.2820  223.6420 C   0  0  0  0  0  0  0  0  0  0  0  0
  139.4510   69.4170  224.7080 C   0  0  0  0  0  0  0  0  0  0  0  0
  139.9690   69.8490  225.9190 C   0  0  0  0  0  0  0  0  0  0  0  0
  139.8480   69.0140  227.0150 C   0  0  0  0  0  0  0  0  0  0  0  0
  140.3610   69.4260  228.2450 C   0  0  0  0  0  0  0  0  0  0  0  0
  140.9770   70.6640  228.3320 C   0  0  0  0  0  0  0  0  0  0  0  0
  141.0880   71.4910  227.2150 C   0  0  0  0  0  0  0  0  0  0  0  0
  140.5770   71.0860  225.9790 C   0  0  0  0  0  0  0  0  0  0  0  0
  140.6890   71.8910  224.9080 N   0  0  0  0  0  0  0  0  0  0  0  0
  141.0580   70.7870  221.2050 H   0  0  0  0  0  0  0  0  0  0  0  0
  140.9088   72.1365  219.2187 H   0  0  0  0  0  0  0  0  0  0  0  0
  139.8933   73.3102  220.1434 H   0  0  0  0  0  0  0  0  0  0  0  0
  142.2516   74.1156  217.7402 H   0  0  0  0  0  0  0  0  0  0  0  0
  140.9619   75.3975  217.8384 H   0  0  0  0  0  0  0  0  0  0  0  0
  143.8563   75.6310  217.4271 H   0  0  0  0  0  0  0  0  0  0  0  0
  142.4803   76.7462  217.0134 H   0  0  0  0  0  0  0  0  0  0  0  0
  144.0259   76.5302  219.6157 H   0  0  0  0  0  0  0  0  0  0  0  0
  143.8003   77.9560  218.5874 H   0  0  0  0  0  0  0  0  0  0  0  0
  142.1719   78.1752  220.3722 H   0  0  0  0  0  0  0  0  0  0  0  0
  141.2293   77.6235  218.9727 H   0  0  0  0  0  0  0  0  0  0  0  0
  142.3038   75.9636  221.3184 H   0  0  0  0  0  0  0  0  0  0  0  0
  139.7401   77.0656  220.3389 H   0  0  0  0  0  0  0  0  0  0  0  0
  139.6336   75.3215  220.6299 H   0  0  0  0  0  0  0  0  0  0  0  0
  139.9430   75.6780  222.8560 H   0  0  0  0  0  0  0  0  0  0  0  0
  138.8421   77.9898  221.9313 H   0  0  0  0  0  0  0  0  0  0  0  0
  139.1297   77.6231  223.6536 H   0  0  0  0  0  0  0  0  0  0  0  0
  140.0592   79.7417  220.8783 H   0  0  0  0  0  0  0  0  0  0  0  0
  141.8062   81.4783  220.9597 H   0  0  0  0  0  0  0  0  0  0  0  0
  143.4198   81.5190  222.8428 H   0  0  0  0  0  0  0  0  0  0  0  0
  143.2815   79.8059  224.6500 H   0  0  0  0  0  0  0  0  0  0  0  0
  141.5234   78.0840  224.5358 H   0  0  0  0  0  0  0  0  0  0  0  0
  139.1909   69.9666  222.6675 H   0  0  0  0  0  0  0  0  0  0  0  0
  138.9558   68.4404  224.6027 H   0  0  0  0  0  0  0  0  0  0  0  0
  139.3530   68.0365  226.9178 H   0  0  0  0  0  0  0  0  0  0  0  0
  140.2779   68.7791  229.1308 H   0  0  0  0  0  0  0  0  0  0  0  0
  141.3847   70.9995  229.2970 H   0  0  0  0  0  0  0  0  0  0  0  0
  141.5816   72.4697  227.3074 H   0  0  0  0  0  0  0  0  0  0  0  0
  1  2  2  0
  2  3  1  0
  3  4  1  0
  4  5  1  0
  5  6  2  0
  5  7  1  0
  7  8  1  0
  8  9  1  0
  9 10  1  0
 10 11  1  0
 11 12  1  0
 12 13  1  0
 13 14  1  0
 14 15  1  0
 15 16  1  0
 16 17  2  0
 17 18  1  0
 18 19  2  0
 19 20  1  0
 20 21  2  0
  2 22  1  0
 22 23  2  0
 23 24  1  0
 24 25  2  0
 25 26  1  0
 26 27  2  0
 27 28  1  0
 28 29  2  0
 29 30  1  0
 30 31  2  0
 12  7  1  0
 21 16  1  0
 31 22  1  0
 30 25  1  0
  3 32  1  0
  4 33  1  0
  4 34  1  0
  8 35  1  0
  8 36  1  0
  9 37  1  0
  9 38  1  0
 10 39  1  0
 10 40  1  0
 11 41  1  0
 11 42  1  0
 12 43  1  1
 13 44  1  0
 13 45  1  0
 14 46  1  0
 15 47  1  0
 15 48  1  0
 17 49  1  0
 18 50  1  0
 19 51  1  0
 20 52  1  0
 21 53  1  0
 23 54  1  0
 24 55  1  0
 26 56  1  0
 27 57  1  0
 28 58  1  0
 29 59  1  0
M  END
>  <smiles>  (37) 
O=C(NCC(=O)N1CCCC[C@H]1CNCc1ccccc1)c1ccc2ccccc2n1

>  <score_type>  (37) 
oracle

>  <origin>  (37) 
autodockgpu

>  <m_score__min__energy>  (37) 
-9.9600000000000009

>  <m_primary>  (37) 
energy

>  <rmsd>  (37) 
2.7791514192241866

>  <m_score__min__rmsd>  (37) 
2.7791514192241866

>  <meeko>  (37) 
{"free_energy": -8.81, "intermolecular_energy": -11.2, "internal_energy": -2.51, "cluster_size": 30, "cluster_id": 1, "rank_in_cluster": 11}

>  <energy>  (37) 
-8.92

>  <cluster_rmsd>  (37) 
0.48

>  <cluster>  (37) 
3

$$$$

     RDKit          3D

 59 62  0  0  0  0  0  0  0  0999 V2000
  139.7580   70.9640  221.1840 O   0  0  0  0  0  0  0  0  0  0  0  0
  139.6300   71.7440  222.1860 C   0  0  0  0  0  0  0  0  0  0  0  0
  139.3150   73.1240  221.9870 N   0  0  0  0  0  0  0  0  0  0  0  0
  139.1600   73.5390  220.5890 C   0  0  0  0  0  0  0  0  0  0  0  0
  139.1060   75.0160  220.4790 C   0  0  0  0  0  0  0  0  0  0  0  0
  139.5780   75.6420  219.4820 O   0  0  0  0  0  0  0  0  0  0  0  0
  138.4930   75.7240  221.5510 N   0  0  0  0  0  0  0  0  0  0  0  0
  137.4160   75.1790  222.3510 C   0  0  0  0  0  0  0  0  0  0  0  0
  136.2360   76.1050  222.4470 C   0  0  0  0  0  0  0  0  0  0  0  0
  136.5830   77.5240  222.0560 C   0  0  0  0  0  0  0  0  0  0  0  0
  137.9290   77.8170  222.6820 C   0  0  0  0  0  0  0  0  0  0  0  0
  138.9560   77.0600  221.8710 C   0  0  1  0  0  0  0  0  0  0  0  0
  140.2350   77.0320  222.6770 C   0  0  0  0  0  0  0  0  0  0  0  0
  141.3140   76.9930  221.7130 N   0  0  0  0  0  0  0  0  0  0  0  0
  141.4850   78.2350  220.9890 C   0  0  0  0  0  0  0  0  0  0  0  0
  141.6650   79.3200  221.9860 C   0  0  0  0  0  0  0  0  0  0  0  0
  142.8350   79.4500  222.7410 C   0  0  0  0  0  0  0  0  0  0  0  0
  142.9990   80.4580  223.6640 C   0  0  0  0  0  0  0  0  0  0  0  0
  141.9840   81.3720  223.8580 C   0  0  0  0  0  0  0  0  0  0  0  0
  140.8080   81.2830  223.1340 C   0  0  0  0  0  0  0  0  0  0  0  0
  140.6820   80.2590  222.2180 C   0  0  0  0  0  0  0  0  0  0  0  0
  139.8080   71.2150  223.5460 C   0  0  0  0  0  0  0  0  0  0  0  0
  139.3940   69.9440  223.8340 C   0  0  0  0  0  0  0  0  0  0  0  0
  139.5140   69.3500  225.0740 C   0  0  0  0  0  0  0  0  0  0  0  0
  140.0970   70.1210  226.0680 C   0  0  0  0  0  0  0  0  0  0  0  0
  140.2360   69.5650  227.3270 C   0  0  0  0  0  0  0  0  0  0  0  0
  140.8190   70.3200  228.3440 C   0  0  0  0  0  0  0  0  0  0  0  0
  141.2420   71.6090  228.0610 C   0  0  0  0  0  0  0  0  0  0  0  0
  141.0920   72.1510  226.7850 C   0  0  0  0  0  0  0  0  0  0  0  0
  140.5090   71.4010  225.7610 C   0  0  0  0  0  0  0  0  0  0  0  0
  140.3690   71.9320  224.5330 N   0  0  0  0  0  0  0  0  0  0  0  0
  139.2030   73.7890  222.7840 H   0  0  0  0  0  0  0  0  0  0  0  0
  140.0143   73.1653  220.0055 H   0  0  0  0  0  0  0  0  0  0  0  0
  138.2186   73.1229  220.2010 H   0  0  0  0  0  0  0  0  0  0  0  0
  137.0847   74.2334  221.8971 H   0  0  0  0  0  0  0  0  0  0  0  0
  137.8031   75.0289  223.3696 H   0  0  0  0  0  0  0  0  0  0  0  0
  135.4437   75.7380  221.7780 H   0  0  0  0  0  0  0  0  0  0  0  0
  135.9044   76.1178  223.4958 H   0  0  0  0  0  0  0  0  0  0  0  0
  136.6438   77.6139  220.9614 H   0  0  0  0  0  0  0  0  0  0  0  0
  135.8170   78.2338  222.4016 H   0  0  0  0  0  0  0  0  0  0  0  0
  138.1375   78.8965  222.6461 H   0  0  0  0  0  0  0  0  0  0  0  0
  137.9513   77.5088  223.7377 H   0  0  0  0  0  0  0  0  0  0  0  0
  139.1297   77.5593  220.9064 H   0  0  0  0  0  0  0  0  0  0  0  0
  140.3130   77.9342  223.3015 H   0  0  0  0  0  0  0  0  0  0  0  0
  140.2666   76.1641  223.3521 H   0  0  0  0  0  0  0  0  0  0  0  0
  142.1890   76.6190  222.0930 H   0  0  0  0  0  0  0  0  0  0  0  0
  142.3715   78.1714  220.3409 H   0  0  0  0  0  0  0  0  0  0  0  0
  140.6073   78.4355  220.3570 H   0  0  0  0  0  0  0  0  0  0  0  0
  143.6488   78.7249  222.5928 H   0  0  0  0  0  0  0  0  0  0  0  0
  143.9317   80.5341  224.2422 H   0  0  0  0  0  0  0  0  0  0  0  0
  142.1106   82.1788  224.5949 H   0  0  0  0  0  0  0  0  0  0  0  0
  139.9956   82.0091  223.2848 H   0  0  0  0  0  0  0  0  0  0  0  0
  139.7476   80.1878  221.6420 H   0  0  0  0  0  0  0  0  0  0  0  0
  138.9355   69.3568  223.0247 H   0  0  0  0  0  0  0  0  0  0  0  0
  139.1669   68.3234  225.2629 H   0  0  0  0  0  0  0  0  0  0  0  0
  139.8906   68.5393  227.5235 H   0  0  0  0  0  0  0  0  0  0  0  0
  140.9410   69.8998  229.3532 H   0  0  0  0  0  0  0  0  0  0  0  0
  141.7033   72.2141  228.8554 H   0  0  0  0  0  0  0  0  0  0  0  0
  141.4352   73.1765  226.5834 H   0  0  0  0  0  0  0  0  0  0  0  0
  1  2  2  0
  2  3  1  0
  3  4  1  0
  4  5  1  0
  5  6  2  0
  5  7  1  0
  7  8  1  0
  8  9  1  0
  9 10  1  0
 10 11  1  0
 11 12  1  0
 12 13  1  0
 13 14  1  0
 14 15  1  0
 15 16  1  0
 16 17  2  0
 17 18  1  0
 18 19  2  0
 19 20  1  0
 20 21  2  0
  2 22  1  0
 22 23  2  0
 23 24  1  0
 24 25  2  0
 25 26  1  0
 26 27  2  0
 27 28  1  0
 28 29  2  0
 29 30  1  0
 30 31  2  0
 12  7  1  0
 21 16  1  0
 31 22  1  0
 30 25  1  0
  3 32  1  0
  4 33  1  0
  4 34  1  0
  8 35  1  0
  8 36  1  0
  9 37  1  0
  9 38  1  0
 10 39  1  0
 10 40  1  0
 11 41  1  0
 11 42  1  0
 12 43  1  6
 13 44  1  0
 13 45  1  0
 14 46  1  0
 15 47  1  0
 15 48  1  0
 17 49  1  0
 18 50  1  0
 19 51  1  0
 20 52  1  0
 21 53  1  0
 23 54  1  0
 24 55  1  0
 26 56  1  0
 27 57  1  0
 28 58  1  0
 29 59  1  0
M  END
>  <smiles>  (38) 
O=C(NCC(=O)N1CCCC[C@H]1CNCc1ccccc1)c1ccc2ccccc2n1

>  <score_type>  (38) 
oracle

>  <origin>  (38) 
autodockgpu

>  <m_score__min__energy>  (38) 
-9.9600000000000009

>  <m_primary>  (38) 
energy

>  <rmsd>  (38) 
3.283470483089658

>  <m_score__min__rmsd>  (38) 
3.283470483089658

>  <meeko>  (38) 
{"free_energy": -8.92, "intermolecular_energy": -11.3, "internal_energy": -1.75, "cluster_size": 2, "cluster_id": 3, "rank_in_cluster": 2}

>  <energy>  (38) 
-8.79

>  <cluster_rmsd>  (38) 
0.0

>  <cluster>  (38) 
4

$$$$

     RDKit          3D

 59 62  0  0  0  0  0  0  0  0999 V2000
  141.4400   72.1750  221.8850 O   0  0  0  0  0  0  0  0  0  0  0  0
  140.4030   72.2730  222.6230 C   0  0  0  0  0  0  0  0  0  0  0  0
  139.4210   73.2770  222.3530 N   0  0  0  0  0  0  0  0  0  0  0  0
  139.7030   74.1400  221.2020 C   0  0  0  0  0  0  0  0  0  0  0  0
  139.0580   75.4640  221.3630 C   0  0  0  0  0  0  0  0  0  0  0  0
  137.9310   75.6090  221.9270 O   0  0  0  0  0  0  0  0  0  0  0  0
  139.7580   76.5930  220.8530 N   0  0  0  0  0  0  0  0  0  0  0  0
  139.2580   77.4170  219.7710 C   0  0  0  0  0  0  0  0  0  0  0  0
  140.2660   77.6080  218.6720 C   0  0  0  0  0  0  0  0  0  0  0  0
  141.6720   77.2650  219.1110 C   0  0  0  0  0  0  0  0  0  0  0  0
  141.8310   77.8420  220.5010 C   0  0  0  0  0  0  0  0  0  0  0  0
  141.0380   76.9520  221.4310 C   0  0  1  0  0  0  0  0  0  0  0  0
  140.8730   77.6970  222.7370 C   0  0  0  0  0  0  0  0  0  0  0  0
  139.4470   77.8420  222.9370 N   0  0  0  0  0  0  0  0  0  0  0  0
  139.0680   79.1320  223.4720 C   0  0  0  0  0  0  0  0  0  0  0  0
  140.0140   80.1420  222.9360 C   0  0  0  0  0  0  0  0  0  0  0  0
  139.9040   80.6470  221.6360 C   0  0  0  0  0  0  0  0  0  0  0  0
  140.7830   81.5840  221.1410 C   0  0  0  0  0  0  0  0  0  0  0  0
  141.8050   82.0450  221.9440 C   0  0  0  0  0  0  0  0  0  0  0  0
  141.9530   81.5740  223.2370 C   0  0  0  0  0  0  0  0  0  0  0  0
  141.0530   80.6360  223.6970 C   0  0  0  0  0  0  0  0  0  0  0  0
  140.2250   71.3500  223.7530 C   0  0  0  0  0  0  0  0  0  0  0  0
  139.5320   70.1860  223.5690 C   0  0  0  0  0  0  0  0  0  0  0  0
  139.3060   69.2500  224.5580 C   0  0  0  0  0  0  0  0  0  0  0  0
  139.8310   69.5430  225.8070 C   0  0  0  0  0  0  0  0  0  0  0  0
  139.6290   68.6330  226.8290 C   0  0  0  0  0  0  0  0  0  0  0  0
  140.1470   68.9040  228.0950 C   0  0  0  0  0  0  0  0  0  0  0  0
  140.8510   70.0810  228.2920 C   0  0  0  0  0  0  0  0  0  0  0  0
  141.0440   70.9860  227.2480 C   0  0  0  0  0  0  0  0  0  0  0  0
  140.5280   70.7220  225.9770 C   0  0  0  0  0  0  0  0  0  0  0  0
  140.7190   71.5990  224.9760 N   0  0  0  0  0  0  0  0  0  0  0  0
  138.5620   73.3850  222.9360 H   0  0  0  0  0  0  0  0  0  0  0  0
  140.7907   74.2778  221.1131 H   0  0  0  0  0  0  0  0  0  0  0  0
  139.3010   73.6611  220.2970 H   0  0  0  0  0  0  0  0  0  0  0  0
  138.3632   76.9370  219.3480 H   0  0  0  0  0  0  0  0  0  0  0  0
  139.0297   78.4090  220.1878 H   0  0  0  0  0  0  0  0  0  0  0  0
  139.9926   76.9605  217.8259 H   0  0  0  0  0  0  0  0  0  0  0  0
  140.2540   78.6706  218.3878 H   0  0  0  0  0  0  0  0  0  0  0  0
  141.8095   76.1738  219.1327 H   0  0  0  0  0  0  0  0  0  0  0  0
  142.4206   77.6758  218.4176 H   0  0  0  0  0  0  0  0  0  0  0  0
  142.8919   77.8453  220.7916 H   0  0  0  0  0  0  0  0  0  0  0  0
  141.4713   78.8807  220.5431 H   0  0  0  0  0  0  0  0  0  0  0  0
  141.5696   76.0043  221.6020 H   0  0  0  0  0  0  0  0  0  0  0  0
  141.3183   77.1232  223.5631 H   0  0  0  0  0  0  0  0  0  0  0  0
  141.3771   78.6743  222.7095 H   0  0  0  0  0  0  0  0  0  0  0  0
  138.8890   77.5570  222.1260 H   0  0  0  0  0  0  0  0  0  0  0  0
  138.0419   79.3788  223.1617 H   0  0  0  0  0  0  0  0  0  0  0  0
  139.1042   79.1174  224.5713 H   0  0  0  0  0  0  0  0  0  0  0  0
  139.0908   80.2846  220.9899 H   0  0  0  0  0  0  0  0  0  0  0  0
  140.6711   81.9616  220.1139 H   0  0  0  0  0  0  0  0  0  0  0  0
  142.5092   82.7942  221.5532 H   0  0  0  0  0  0  0  0  0  0  0  0
  142.7672   81.9383  223.8807 H   0  0  0  0  0  0  0  0  0  0  0  0
  141.1697   80.2620  224.7249 H   0  0  0  0  0  0  0  0  0  0  0  0
  139.1278   69.9818  222.5665 H   0  0  0  0  0  0  0  0  0  0  0  0
  138.7420   68.3253  224.3661 H   0  0  0  0  0  0  0  0  0  0  0  0
  139.0661   67.7060  226.6451 H   0  0  0  0  0  0  0  0  0  0  0  0
  139.9992   68.1953  228.9232 H   0  0  0  0  0  0  0  0  0  0  0  0
  141.2639   70.3052  229.2866 H   0  0  0  0  0  0  0  0  0  0  0  0
  141.6066   71.9142  227.4269 H   0  0  0  0  0  0  0  0  0  0  0  0
  1  2  2  0
  2  3  1  0
  3  4  1  0
  4  5  1  0
  5  6  2  0
  5  7  1  0
  7  8  1  0
  8  9  1  0
  9 10  1  0
 10 11  1  0
 11 12  1  0
 12 13  1  0
 13 14  1  0
 14 15  1  0
 15 16  1  0
 16 17  2  0
 17 18  1  0
 18 19  2  0
 19 20  1  0
 20 21  2  0
  2 22  1  0
 22 23  2  0
 23 24  1  0
 24 25  2  0
 25 26  1  0
 26 27  2  0
 27 28  1  0
 28 29  2  0
 29 30  1  0
 30 31  2  0
 12  7  1  0
 21 16  1  0
 31 22  1  0
 30 25  1  0
  3 32  1  0
  4 33  1  0
  4 34  1  0
  8 35  1  0
  8 36  1  0
  9 37  1  0
  9 38  1  0
 10 39  1  0
 10 40  1  0
 11 41  1  0
 11 42  1  0
 12 43  1  1
 13 44  1  0
 13 45  1  0
 14 46  1  0
 15 47  1  0
 15 48  1  0
 17 49  1  0
 18 50  1  0
 19 51  1  0
 20 52  1  0
 21 53  1  0
 23 54  1  0
 24 55  1  0
 26 56  1  0
 27 57  1  0
 28 58  1  0
 29 59  1  0
M  END
>  <smiles>  (39) 
O=C(NCC(=O)N1CCCC[C@H]1CNCc1ccccc1)c1ccc2ccccc2n1

>  <score_type>  (39) 
oracle

>  <origin>  (39) 
autodockgpu

>  <m_score__min__energy>  (39) 
-9.9600000000000009

>  <m_primary>  (39) 
energy

>  <rmsd>  (39) 
2.3492817009143425

>  <m_score__min__rmsd>  (39) 
2.3492817009143425

>  <meeko>  (39) 
{"free_energy": -8.01, "intermolecular_energy": -10.39, "internal_energy": -2.5, "cluster_size": 30, "cluster_id": 1, "rank_in_cluster": 26}

>  <energy>  (39) 
-8.59

>  <cluster_rmsd>  (39) 
1.63

>  <cluster>  (39) 
4

$$$$

     RDKit          3D

 59 62  0  0  0  0  0  0  0  0999 V2000
  140.3310   73.1490  222.7160 O   0  0  0  0  0  0  0  0  0  0  0  0
  140.4800   71.8830  222.7740 C   0  0  0  0  0  0  0  0  0  0  0  0
  140.7030   71.1300  221.5790 N   0  0  0  0  0  0  0  0  0  0  0  0
  140.7440   71.9130  220.3400 C   0  0  0  0  0  0  0  0  0  0  0  0
  141.9350   71.5620  219.5310 C   0  0  0  0  0  0  0  0  0  0  0  0
  142.0080   70.4900  218.8560 O   0  0  0  0  0  0  0  0  0  0  0  0
  143.0170   72.4860  219.5350 N   0  0  0  0  0  0  0  0  0  0  0  0
  144.1730   72.3600  218.6710 C   0  0  0  0  0  0  0  0  0  0  0  0
  145.4730   72.4380  219.4230 C   0  0  0  0  0  0  0  0  0  0  0  0
  145.3070   73.0310  220.8040 C   0  0  0  0  0  0  0  0  0  0  0  0
  144.3590   74.2010  220.6480 C   0  0  0  0  0  0  0  0  0  0  0  0
  142.9800   73.6150  220.4430 C   0  0  1  0  0  0  0  0  0  0  0  0
  142.0920   74.7230  219.9230 C   0  0  0  0  0  0  0  0  0  0  0  0
  141.6450   75.4560  221.0890 N   0  0  0  0  0  0  0  0  0  0  0  0
  140.8270   76.6060  220.7680 C   0  0  0  0  0  0  0  0  0  0  0  0
  141.2670   77.7310  221.6310 C   0  0  0  0  0  0  0  0  0  0  0  0
  141.1760   77.6780  223.0250 C   0  0  0  0  0  0  0  0  0  0  0  0
  141.5860   78.7220  223.8240 C   0  0  0  0  0  0  0  0  0  0  0  0
  142.1030   79.8600  223.2390 C   0  0  0  0  0  0  0  0  0  0  0  0
  142.2120   79.9570  221.8630 C   0  0  0  0  0  0  0  0  0  0  0  0
  141.7920   78.8900  221.0980 C   0  0  0  0  0  0  0  0  0  0  0  0
  140.4190   71.2030  224.0750 C   0  0  0  0  0  0  0  0  0  0  0  0
  140.7570   71.8880  225.2100 C   0  0  0  0  0  0  0  0  0  0  0  0
  140.7350   71.3480  226.4800 C   0  0  0  0  0  0  0  0  0  0  0  0
  140.3400   70.0220  226.5740 C   0  0  0  0  0  0  0  0  0  0  0  0
  140.3040   69.4400  227.8280 C   0  0  0  0  0  0  0  0  0  0  0  0
  139.9100   68.1080  227.9490 C   0  0  0  0  0  0  0  0  0  0  0  0
  139.5660   67.4050  226.8050 C   0  0  0  0  0  0  0  0  0  0  0  0
  139.6090   68.0110  225.5500 C   0  0  0  0  0  0  0  0  0  0  0  0
  140.0030   69.3450  225.4200 C   0  0  0  0  0  0  0  0  0  0  0  0
  140.0410   69.9210  224.2060 N   0  0  0  0  0  0  0  0  0  0  0  0
  140.8300   70.0940  221.5910 H   0  0  0  0  0  0  0  0  0  0  0  0
  139.8367   71.7064  219.7534 H   0  0  0  0  0  0  0  0  0  0  0  0
  140.7987   72.9803  220.6007 H   0  0  0  0  0  0  0  0  0  0  0  0
  144.1226   71.3895  218.1556 H   0  0  0  0  0  0  0  0  0  0  0  0
  144.1496   73.2002  217.9614 H   0  0  0  0  0  0  0  0  0  0  0  0
  145.8850   71.4229  219.5219 H   0  0  0  0  0  0  0  0  0  0  0  0
  146.1490   73.0947  218.8557 H   0  0  0  0  0  0  0  0  0  0  0  0
  144.8822   72.2846  221.4913 H   0  0  0  0  0  0  0  0  0  0  0  0
  146.2729   73.3498  221.2230 H   0  0  0  0  0  0  0  0  0  0  0  0
  144.3752   74.8260  221.5531 H   0  0  0  0  0  0  0  0  0  0  0  0
  144.6501   74.8371  219.7991 H   0  0  0  0  0  0  0  0  0  0  0  0
  142.5819   73.2270  221.3922 H   0  0  0  0  0  0  0  0  0  0  0  0
  142.6589   75.3835  219.2504 H   0  0  0  0  0  0  0  0  0  0  0  0
  141.2434   74.3234  219.3483 H   0  0  0  0  0  0  0  0  0  0  0  0
  141.2400   74.8590  221.8170 H   0  0  0  0  0  0  0  0  0  0  0  0
  140.9569   76.8737  219.7090 H   0  0  0  0  0  0  0  0  0  0  0  0
  139.7641   76.3818  220.9412 H   0  0  0  0  0  0  0  0  0  0  0  0
  140.7642   76.7745  223.4983 H   0  0  0  0  0  0  0  0  0  0  0  0
  141.5022   78.6495  224.9184 H   0  0  0  0  0  0  0  0  0  0  0  0
  142.4313   80.6974  223.8722 H   0  0  0  0  0  0  0  0  0  0  0  0
  142.6231   80.8620  221.3919 H   0  0  0  0  0  0  0  0  0  0  0  0
  141.8802   78.9668  220.0042 H   0  0  0  0  0  0  0  0  0  0  0  0
  141.0666   72.9381  225.1034 H   0  0  0  0  0  0  0  0  0  0  0  0
  141.0147   71.9357  227.3667 H   0  0  0  0  0  0  0  0  0  0  0  0
  140.5829   70.0210  228.7194 H   0  0  0  0  0  0  0  0  0  0  0  0
  139.8728   67.6232  228.9357 H   0  0  0  0  0  0  0  0  0  0  0  0
  139.2544   66.3534  226.8885 H   0  0  0  0  0  0  0  0  0  0  0  0
  139.3306   67.4344  224.6556 H   0  0  0  0  0  0  0  0  0  0  0  0
  1  2  2  0
  2  3  1  0
  3  4  1  0
  4  5  1  0
  5  6  2  0
  5  7  1  0
  7  8  1  0
  8  9  1  0
  9 10  1  0
 10 11  1  0
 11 12  1  0
 12 13  1  0
 13 14  1  0
 14 15  1  0
 15 16  1  0
 16 17  2  0
 17 18  1  0
 18 19  2  0
 19 20  1  0
 20 21  2  0
  2 22  1  0
 22 23  2  0
 23 24  1  0
 24 25  2  0
 25 26  1  0
 26 27  2  0
 27 28  1  0
 28 29  2  0
 29 30  1  0
 30 31  2  0
 12  7  1  0
 21 16  1  0
 31 22  1  0
 30 25  1  0
  3 32  1  0
  4 33  1  0
  4 34  1  0
  8 35  1  0
  8 36  1  0
  9 37  1  0
  9 38  1  0
 10 39  1  0
 10 40  1  0
 11 41  1  0
 11 42  1  0
 12 43  1  1
 13 44  1  0
 13 45  1  0
 14 46  1  0
 15 47  1  0
 15 48  1  0
 17 49  1  0
 18 50  1  0
 19 51  1  0
 20 52  1  0
 21 53  1  0
 23 54  1  0
 24 55  1  0
 26 56  1  0
 27 57  1  0
 28 58  1  0
 29 59  1  0
M  END
>  <smiles>  (40) 
O=C(NCC(=O)N1CCCC[C@H]1CNCc1ccccc1)c1ccc2ccccc2n1

>  <score_type>  (40) 
oracle

>  <origin>  (40) 
autodockgpu

>  <m_score__min__energy>  (40) 
-9.9600000000000009

>  <m_primary>  (40) 
energy

>  <rmsd>  (40) 
4.208347478896279

>  <m_score__min__rmsd>  (40) 
4.208347478896279

>  <meeko>  (40) 
{"free_energy": -8.6, "intermolecular_energy": -10.99, "internal_energy": -2.4, "cluster_size": 30, "cluster_id": 1, "rank_in_cluster": 18}

>  <energy>  (40) 
-8.54

>  <cluster_rmsd>  (40) 
1.75

>  <cluster>  (40) 
4

$$$$

     RDKit          3D

 59 62  0  0  0  0  0  0  0  0999 V2000
  140.4190   73.9690  222.3150 O   0  0  0  0  0  0  0  0  0  0  0  0
  140.1240   74.8350  221.4260 C   0  0  0  0  0  0  0  0  0  0  0  0
  139.2620   74.4850  220.3400 N   0  0  0  0  0  0  0  0  0  0  0  0
  138.7720   73.1030  220.3460 C   0  0  0  0  0  0  0  0  0  0  0  0
  137.9050   72.8540  221.5220 C   0  0  0  0  0  0  0  0  0  0  0  0
  137.5990   73.7670  222.3480 O   0  0  0  0  0  0  0  0  0  0  0  0
  137.4170   71.5290  221.6980 N   0  0  0  0  0  0  0  0  0  0  0  0
  137.0510   70.6630  220.5960 C   0  0  0  0  0  0  0  0  0  0  0  0
  135.6780   70.0720  220.7510 C   0  0  0  0  0  0  0  0  0  0  0  0
  135.1650   70.1680  222.1700 C   0  0  0  0  0  0  0  0  0  0  0  0
  136.3330   69.8160  223.0660 C   0  0  0  0  0  0  0  0  0  0  0  0
  137.2700   71.0020  223.0400 C   0  0  1  0  0  0  0  0  0  0  0  0
  138.5930   70.5450  223.6120 C   0  0  0  0  0  0  0  0  0  0  0  0
  139.3050   71.7490  223.9820 N   0  0  0  0  0  0  0  0  0  0  0  0
  140.7000   71.5220  224.2930 C   0  0  0  0  0  0  0  0  0  0  0  0
  140.7800   71.0400  225.6950 C   0  0  0  0  0  0  0  0  0  0  0  0
  140.6370   69.6900  226.0260 C   0  0  0  0  0  0  0  0  0  0  0  0
  140.7120   69.2460  227.3270 C   0  0  0  0  0  0  0  0  0  0  0  0
  140.9350   70.1540  228.3410 C   0  0  0  0  0  0  0  0  0  0  0  0
  141.0830   71.5010  228.0610 C   0  0  0  0  0  0  0  0  0  0  0  0
  141.0020   71.9060  226.7460 C   0  0  0  0  0  0  0  0  0  0  0  0
  140.6760   76.1940  221.5220 C   0  0  0  0  0  0  0  0  0  0  0  0
  140.9560   76.8890  220.3780 C   0  0  0  0  0  0  0  0  0  0  0  0
  141.4750   78.1680  220.3540 C   0  0  0  0  0  0  0  0  0  0  0  0
  141.7140   78.7550  221.5860 C   0  0  0  0  0  0  0  0  0  0  0  0
  142.2340   80.0370  221.6090 C   0  0  0  0  0  0  0  0  0  0  0  0
  142.4840   80.6490  222.8370 C   0  0  0  0  0  0  0  0  0  0  0  0
  142.2030   79.9520  224.0010 C   0  0  0  0  0  0  0  0  0  0  0  0
  141.6780   78.6610  223.9560 C   0  0  0  0  0  0  0  0  0  0  0  0
  141.4250   78.0400  222.7310 C   0  0  0  0  0  0  0  0  0  0  0  0
  140.9200   76.7950  222.6980 N   0  0  0  0  0  0  0  0  0  0  0  0
  139.0000   75.1680  219.5960 H   0  0  0  0  0  0  0  0  0  0  0  0
  138.1941   72.9219  219.4277 H   0  0  0  0  0  0  0  0  0  0  0  0
  139.6361   72.4241  220.3965 H   0  0  0  0  0  0  0  0  0  0  0  0
  137.0787   71.2482  219.6650 H   0  0  0  0  0  0  0  0  0  0  0  0
  137.7696   69.8304  220.5762 H   0  0  0  0  0  0  0  0  0  0  0  0
  134.9849   70.6104  220.0878 H   0  0  0  0  0  0  0  0  0  0  0  0
  135.7408   69.0055  220.4890 H   0  0  0  0  0  0  0  0  0  0  0  0
  134.8167   71.1898  222.3813 H   0  0  0  0  0  0  0  0  0  0  0  0
  134.3144   69.4904  222.3354 H   0  0  0  0  0  0  0  0  0  0  0  0
  135.9822   69.6319  224.0922 H   0  0  0  0  0  0  0  0  0  0  0  0
  136.8387   68.9032  222.7182 H   0  0  0  0  0  0  0  0  0  0  0  0
  136.8636   71.8262  223.6446 H   0  0  0  0  0  0  0  0  0  0  0  0
  138.4287   69.9113  224.4960 H   0  0  0  0  0  0  0  0  0  0  0  0
  139.1620   69.9482  222.8839 H   0  0  0  0  0  0  0  0  0  0  0  0
  139.1550   72.5300  223.3340 H   0  0  0  0  0  0  0  0  0  0  0  0
  141.1166   70.7647  223.6126 H   0  0  0  0  0  0  0  0  0  0  0  0
  141.2765   72.4511  224.1727 H   0  0  0  0  0  0  0  0  0  0  0  0
  140.4591   68.9599  225.2227 H   0  0  0  0  0  0  0  0  0  0  0  0
  140.5951   68.1764  227.5558 H   0  0  0  0  0  0  0  0  0  0  0  0
  140.9958   69.8041  229.3821 H   0  0  0  0  0  0  0  0  0  0  0  0
  141.2605   72.2290  228.8663 H   0  0  0  0  0  0  0  0  0  0  0  0
  141.1207   72.9765  226.5225 H   0  0  0  0  0  0  0  0  0  0  0  0
  140.7547   76.3972  219.4149 H   0  0  0  0  0  0  0  0  0  0  0  0
  141.6868   78.6915  219.4100 H   0  0  0  0  0  0  0  0  0  0  0  0
  142.4478   80.5675  220.6694 H   0  0  0  0  0  0  0  0  0  0  0  0
  142.8971   81.6675  222.8807 H   0  0  0  0  0  0  0  0  0  0  0  0
  142.3970   80.4242  224.9754 H   0  0  0  0  0  0  0  0  0  0  0  0
  141.4613   78.1273  224.8931 H   0  0  0  0  0  0  0  0  0  0  0  0
  1  2  2  0
  2  3  1  0
  3  4  1  0
  4  5  1  0
  5  6  2  0
  5  7  1  0
  7  8  1  0
  8  9  1  0
  9 10  1  0
 10 11  1  0
 11 12  1  0
 12 13  1  0
 13 14  1  0
 14 15  1  0
 15 16  1  0
 16 17  2  0
 17 18  1  0
 18 19  2  0
 19 20  1  0
 20 21  2  0
  2 22  1  0
 22 23  2  0
 23 24  1  0
 24 25  2  0
 25 26  1  0
 26 27  2  0
 27 28  1  0
 28 29  2  0
 29 30  1  0
 30 31  2  0
 12  7  1  0
 21 16  1  0
 31 22  1  0
 30 25  1  0
  3 32  1  0
  4 33  1  0
  4 34  1  0
  8 35  1  0
  8 36  1  0
  9 37  1  0
  9 38  1  0
 10 39  1  0
 10 40  1  0
 11 41  1  0
 11 42  1  0
 12 43  1  1
 13 44  1  0
 13 45  1  0
 14 46  1  0
 15 47  1  0
 15 48  1  0
 17 49  1  0
 18 50  1  0
 19 51  1  0
 20 52  1  0
 21 53  1  0
 23 54  1  0
 24 55  1  0
 26 56  1  0
 27 57  1  0
 28 58  1  0
 29 59  1  0
M  END
>  <smiles>  (41) 
O=C(NCC(=O)N1CCCC[C@H]1CNCc1ccccc1)c1ccc2ccccc2n1

>  <score_type>  (41) 
oracle

>  <origin>  (41) 
autodockgpu

>  <m_score__min__energy>  (41) 
-9.9600000000000009

>  <m_primary>  (41) 
energy

>  <rmsd>  (41) 
9.159474815190313

>  <m_score__min__rmsd>  (41) 
9.159474815190313

>  <meeko>  (41) 
{"free_energy": -8.05, "intermolecular_energy": -10.44, "internal_energy": -2.75, "cluster_size": 7, "cluster_id": 4, "rank_in_cluster": 6}

>  <energy>  (41) 
-8.46

>  <cluster_rmsd>  (41) 
1.88

>  <cluster>  (41) 
4

$$$$

     RDKit          3D

 59 62  0  0  0  0  0  0  0  0999 V2000
  140.9380   71.3970  221.6050 O   0  0  0  0  0  0  0  0  0  0  0  0
  140.0790   71.7180  222.4920 C   0  0  0  0  0  0  0  0  0  0  0  0
  139.1930   72.8190  222.2690 N   0  0  0  0  0  0  0  0  0  0  0  0
  139.3560   73.5080  220.9860 C   0  0  0  0  0  0  0  0  0  0  0  0
  140.3920   74.5640  221.0800 C   0  0  0  0  0  0  0  0  0  0  0  0
  140.5690   75.2520  222.1310 O   0  0  0  0  0  0  0  0  0  0  0  0
  141.2000   74.7840  219.9290 N   0  0  0  0  0  0  0  0  0  0  0  0
  141.0690   74.0170  218.7070 C   0  0  0  0  0  0  0  0  0  0  0  0
  142.3780   73.4540  218.2310 C   0  0  0  0  0  0  0  0  0  0  0  0
  143.5670   74.1340  218.8710 C   0  0  0  0  0  0  0  0  0  0  0  0
  143.2490   75.6140  218.8840 C   0  0  0  0  0  0  0  0  0  0  0  0
  142.2100   75.8230  219.9630 C   0  0  1  0  0  0  0  0  0  0  0  0
  141.6110   77.1950  219.7530 C   0  0  0  0  0  0  0  0  0  0  0  0
  142.1630   78.0350  220.7950 N   0  0  0  0  0  0  0  0  0  0  0  0
  141.4110   77.9910  222.0300 C   0  0  0  0  0  0  0  0  0  0  0  0
  141.6840   79.2470  222.7730 C   0  0  0  0  0  0  0  0  0  0  0  0
  142.9800   79.6380  223.1200 C   0  0  0  0  0  0  0  0  0  0  0  0
  143.2310   80.8040  223.8090 C   0  0  0  0  0  0  0  0  0  0  0  0
  142.1770   81.6170  224.1710 C   0  0  0  0  0  0  0  0  0  0  0  0
  140.8760   81.2700  223.8490 C   0  0  0  0  0  0  0  0  0  0  0  0
  140.6670   80.0950  223.1590 C   0  0  0  0  0  0  0  0  0  0  0  0
  140.0050   70.9530  223.7450 C   0  0  0  0  0  0  0  0  0  0  0  0
  139.3360   69.7610  223.7670 C   0  0  0  0  0  0  0  0  0  0  0  0
  139.2070   68.9630  224.8860 C   0  0  0  0  0  0  0  0  0  0  0  0
  139.8070   69.4310  226.0440 C   0  0  0  0  0  0  0  0  0  0  0  0
  139.7010   68.6640  227.1900 C   0  0  0  0  0  0  0  0  0  0  0  0
  140.2960   69.1140  228.3680 C   0  0  0  0  0  0  0  0  0  0  0  0
  140.9760   70.3210  228.3560 C   0  0  0  0  0  0  0  0  0  0  0  0
  141.0710   71.0800  227.1890 C   0  0  0  0  0  0  0  0  0  0  0  0
  140.4780   70.6360  226.0050 C   0  0  0  0  0  0  0  0  0  0  0  0
  140.5740   71.3750  224.8860 N   0  0  0  0  0  0  0  0  0  0  0  0
  138.4790   73.1080  222.9730 H   0  0  0  0  0  0  0  0  0  0  0  0
  139.6553   72.7772  220.2203 H   0  0  0  0  0  0  0  0  0  0  0  0
  138.3989   73.9780  220.7156 H   0  0  0  0  0  0  0  0  0  0  0  0
  140.3729   73.1845  218.8873 H   0  0  0  0  0  0  0  0  0  0  0  0
  140.6973   74.6974  217.9267 H   0  0  0  0  0  0  0  0  0  0  0  0
  142.4108   72.3820  218.4754 H   0  0  0  0  0  0  0  0  0  0  0  0
  142.4401   73.6232  217.1459 H   0  0  0  0  0  0  0  0  0  0  0  0
  143.7104   73.7655  219.8975 H   0  0  0  0  0  0  0  0  0  0  0  0
  144.4941   73.9276  218.3161 H   0  0  0  0  0  0  0  0  0  0  0  0
  144.1549   76.1949  219.1117 H   0  0  0  0  0  0  0  0  0  0  0  0
  142.8766   75.9485  217.9045 H   0  0  0  0  0  0  0  0  0  0  0  0
  142.6721   75.7632  220.9595 H   0  0  0  0  0  0  0  0  0  0  0  0
  141.8864   77.5847  218.7619 H   0  0  0  0  0  0  0  0  0  0  0  0
  140.5123   77.1663  219.7983 H   0  0  0  0  0  0  0  0  0  0  0  0
  143.1720   77.9130  220.9280 H   0  0  0  0  0  0  0  0  0  0  0  0
  140.3359   77.9121  221.8108 H   0  0  0  0  0  0  0  0  0  0  0  0
  141.7079   77.1178  222.6295 H   0  0  0  0  0  0  0  0  0  0  0  0
  143.8255   78.9950  222.8342 H   0  0  0  0  0  0  0  0  0  0  0  0
  144.2626   81.0843  224.0682 H   0  0  0  0  0  0  0  0  0  0  0  0
  142.3720   82.5497  224.7206 H   0  0  0  0  0  0  0  0  0  0  0  0
  140.0320   81.9144  224.1360 H   0  0  0  0  0  0  0  0  0  0  0  0
  139.6336   79.8189  222.9025 H   0  0  0  0  0  0  0  0  0  0  0  0
  138.8702   69.4153  222.8323 H   0  0  0  0  0  0  0  0  0  0  0  0
  138.6589   68.0096  224.8599 H   0  0  0  0  0  0  0  0  0  0  0  0
  139.1536   67.7100  227.1723 H   0  0  0  0  0  0  0  0  0  0  0  0
  140.2266   68.5205  229.2915 H   0  0  0  0  0  0  0  0  0  0  0  0
  141.4479   70.6864  229.2800 H   0  0  0  0  0  0  0  0  0  0  0  0
  141.6169   72.0349  227.2016 H   0  0  0  0  0  0  0  0  0  0  0  0
  1  2  2  0
  2  3  1  0
  3  4  1  0
  4  5  1  0
  5  6  2  0
  5  7  1  0
  7  8  1  0
  8  9  1  0
  9 10  1  0
 10 11  1  0
 11 12  1  0
 12 13  1  0
 13 14  1  0
 14 15  1  0
 15 16  1  0
 16 17  2  0
 17 18  1  0
 18 19  2  0
 19 20  1  0
 20 21  2  0
  2 22  1  0
 22 23  2  0
 23 24  1  0
 24 25  2  0
 25 26  1  0
 26 27  2  0
 27 28  1  0
 28 29  2  0
 29 30  1  0
 30 31  2  0
 12  7  1  0
 21 16  1  0
 31 22  1  0
 30 25  1  0
  3 32  1  0
  4 33  1  0
  4 34  1  0
  8 35  1  0
  8 36  1  0
  9 37  1  0
  9 38  1  0
 10 39  1  0
 10 40  1  0
 11 41  1  0
 11 42  1  0
 12 43  1  1
 13 44  1  0
 13 45  1  0
 14 46  1  0
 15 47  1  0
 15 48  1  0
 17 49  1  0
 18 50  1  0
 19 51  1  0
 20 52  1  0
 21 53  1  0
 23 54  1  0
 24 55  1  0
 26 56  1  0
 27 57  1  0
 28 58  1  0
 29 59  1  0
M  END
>  <smiles>  (42) 
O=C(NCC(=O)N1CCCC[C@H]1CNCc1ccccc1)c1ccc2ccccc2n1

>  <score_type>  (42) 
oracle

>  <origin>  (42) 
autodockgpu

>  <m_score__min__energy>  (42) 
-9.9600000000000009

>  <m_primary>  (42) 
energy

>  <rmsd>  (42) 
2.5051761950102467

>  <m_score__min__rmsd>  (42) 
2.5051761950102467

>  <meeko>  (42) 
{"free_energy": -9.46, "intermolecular_energy": -11.85, "internal_energy": -1.52, "cluster_size": 30, "cluster_id": 1, "rank_in_cluster": 3}

>  <energy>  (42) 
-8.18

>  <cluster_rmsd>  (42) 
1.85

>  <cluster>  (42) 
4

$$$$

     RDKit          3D

 59 62  0  0  0  0  0  0  0  0999 V2000
  141.0800   71.8760  221.6290 O   0  0  0  0  0  0  0  0  0  0  0  0
  140.2110   72.1530  222.5220 C   0  0  0  0  0  0  0  0  0  0  0  0
  139.3140   73.2510  222.3350 N   0  0  0  0  0  0  0  0  0  0  0  0
  139.4790   73.9930  221.0810 C   0  0  0  0  0  0  0  0  0  0  0  0
  140.7970   74.6680  221.0350 C   0  0  0  0  0  0  0  0  0  0  0  0
  141.2090   75.4230  221.9680 O   0  0  0  0  0  0  0  0  0  0  0  0
  141.6050   74.4370  219.8860 N   0  0  0  0  0  0  0  0  0  0  0  0
  141.2700   73.4680  218.8610 C   0  0  0  0  0  0  0  0  0  0  0  0
  142.4040   72.5290  218.5570 C   0  0  0  0  0  0  0  0  0  0  0  0
  143.7330   73.0450  219.0620 C   0  0  0  0  0  0  0  0  0  0  0  0
  143.7620   74.5230  218.7380 C   0  0  0  0  0  0  0  0  0  0  0  0
  142.8260   75.1980  219.7150 C   0  0  1  0  0  0  0  0  0  0  0  0
  142.5520   76.5890  219.1900 C   0  0  0  0  0  0  0  0  0  0  0  0
  142.5290   77.4560  220.3490 N   0  0  0  0  0  0  0  0  0  0  0  0
  141.5050   78.4750  220.2870 C   0  0  0  0  0  0  0  0  0  0  0  0
  141.6070   79.2980  221.5190 C   0  0  0  0  0  0  0  0  0  0  0  0
  141.5840   78.7290  222.7960 C   0  0  0  0  0  0  0  0  0  0  0  0
  141.6800   79.4940  223.9370 C   0  0  0  0  0  0  0  0  0  0  0  0
  141.8020   80.8640  223.8260 C   0  0  0  0  0  0  0  0  0  0  0  0
  141.8290   81.4710  222.5820 C   0  0  0  0  0  0  0  0  0  0  0  0
  141.7310   80.6710  221.4640 C   0  0  0  0  0  0  0  0  0  0  0  0
  140.1370   71.3380  223.7430 C   0  0  0  0  0  0  0  0  0  0  0  0
  139.5410   70.1080  223.6960 C   0  0  0  0  0  0  0  0  0  0  0  0
  139.4180   69.2620  224.7800 C   0  0  0  0  0  0  0  0  0  0  0  0
  139.9440   69.7220  225.9770 C   0  0  0  0  0  0  0  0  0  0  0  0
  139.8430   68.9070  227.0900 C   0  0  0  0  0  0  0  0  0  0  0  0
  140.3640   69.3480  228.3060 C   0  0  0  0  0  0  0  0  0  0  0  0
  140.9690   70.5920  228.3630 C   0  0  0  0  0  0  0  0  0  0  0  0
  141.0620   71.3990  227.2290 C   0  0  0  0  0  0  0  0  0  0  0  0
  140.5420   70.9660  226.0070 C   0  0  0  0  0  0  0  0  0  0  0  0
  140.6350   71.7500  224.9190 N   0  0  0  0  0  0  0  0  0  0  0  0
  138.5920   73.5050  223.0440 H   0  0  0  0  0  0  0  0  0  0  0  0
  139.4033   73.2930  220.2358 H   0  0  0  0  0  0  0  0  0  0  0  0
  138.6905   74.7575  221.0189 H   0  0  0  0  0  0  0  0  0  0  0  0
  140.4068   72.8782  219.2031 H   0  0  0  0  0  0  0  0  0  0  0  0
  141.0433   74.0243  217.9395 H   0  0  0  0  0  0  0  0  0  0  0  0
  142.1973   71.5597  219.0343 H   0  0  0  0  0  0  0  0  0  0  0  0
  142.4756   72.4336  217.4635 H   0  0  0  0  0  0  0  0  0  0  0  0
  143.8142   72.8909  220.1481 H   0  0  0  0  0  0  0  0  0  0  0  0
  144.5741   72.5147  218.5916 H   0  0  0  0  0  0  0  0  0  0  0  0
  144.7821   74.9174  218.8555 H   0  0  0  0  0  0  0  0  0  0  0  0
  143.4513   74.7075  217.6990 H   0  0  0  0  0  0  0  0  0  0  0  0
  143.2872   75.2567  220.7119 H   0  0  0  0  0  0  0  0  0  0  0  0
  143.3474   76.8992  218.4964 H   0  0  0  0  0  0  0  0  0  0  0  0
  141.6021   76.6308  218.6369 H   0  0  0  0  0  0  0  0  0  0  0  0
  142.5460   76.9490  221.2400 H   0  0  0  0  0  0  0  0  0  0  0  0
  141.6601   79.1077  219.4006 H   0  0  0  0  0  0  0  0  0  0  0  0
  140.5088   78.0142  220.2147 H   0  0  0  0  0  0  0  0  0  0  0  0
  141.4863   77.6376  222.8921 H   0  0  0  0  0  0  0  0  0  0  0  0
  141.6596   79.0172  224.9281 H   0  0  0  0  0  0  0  0  0  0  0  0
  141.8785   81.4796  224.7344 H   0  0  0  0  0  0  0  0  0  0  0  0
  141.9261   82.5627  222.4884 H   0  0  0  0  0  0  0  0  0  0  0  0
  141.7528   81.1528  220.4754 H   0  0  0  0  0  0  0  0  0  0  0  0
  139.1331   69.7708  222.7317 H   0  0  0  0  0  0  0  0  0  0  0  0
  138.9305   68.2793  224.6984 H   0  0  0  0  0  0  0  0  0  0  0  0
  139.3575   67.9227  227.0168 H   0  0  0  0  0  0  0  0  0  0  0  0
  140.2954   68.7179  229.2050 H   0  0  0  0  0  0  0  0  0  0  0  0
  141.3828   70.9496  229.3174 H   0  0  0  0  0  0  0  0  0  0  0  0
  141.5483   72.3833  227.2976 H   0  0  0  0  0  0  0  0  0  0  0  0
  1  2  2  0
  2  3  1  0
  3  4  1  0
  4  5  1  0
  5  6  2  0
  5  7  1  0
  7  8  1  0
  8  9  1  0
  9 10  1  0
 10 11  1  0
 11 12  1  0
 12 13  1  0
 13 14  1  0
 14 15  1  0
 15 16  1  0
 16 17  2  0
 17 18  1  0
 18 19  2  0
 19 20  1  0
 20 21  2  0
  2 22  1  0
 22 23  2  0
 23 24  1  0
 24 25  2  0
 25 26  1  0
 26 27  2  0
 27 28  1  0
 28 29  2  0
 29 30  1  0
 30 31  2  0
 12  7  1  0
 21 16  1  0
 31 22  1  0
 30 25  1  0
  3 32  1  0
  4 33  1  0
  4 34  1  0
  8 35  1  0
  8 36  1  0
  9 37  1  0
  9 38  1  0
 10 39  1  0
 10 40  1  0
 11 41  1  0
 11 42  1  0
 12 43  1  1
 13 44  1  0
 13 45  1  0
 14 46  1  0
 15 47  1  0
 15 48  1  0
 17 49  1  0
 18 50  1  0
 19 51  1  0
 20 52  1  0
 21 53  1  0
 23 54  1  0
 24 55  1  0
 26 56  1  0
 27 57  1  0
 28 58  1  0
 29 59  1  0
M  END
>  <smiles>  (43) 
O=C(NCC(=O)N1CCCC[C@H]1CNCc1ccccc1)c1ccc2ccccc2n1

>  <score_type>  (43) 
oracle

>  <origin>  (43) 
autodockgpu

>  <m_score__min__energy>  (43) 
-9.9600000000000009

>  <m_primary>  (43) 
energy

>  <rmsd>  (43) 
2.5842593568189995

>  <m_score__min__rmsd>  (43) 
2.5842593568189995

>  <meeko>  (43) 
{"free_energy": -9.29, "intermolecular_energy": -11.68, "internal_energy": -2.33, "cluster_size": 30, "cluster_id": 1, "rank_in_cluster": 4}

>  <energy>  (43) 
-8.05

>  <cluster_rmsd>  (43) 
1.57

>  <cluster>  (43) 
4

$$$$

     RDKit          3D

 59 62  0  0  0  0  0  0  0  0999 V2000
  138.1910   70.7720  221.9100 O   0  0  0  0  0  0  0  0  0  0  0  0
  138.8760   71.2420  222.8790 C   0  0  0  0  0  0  0  0  0  0  0  0
  139.3280   72.5980  222.8480 N   0  0  0  0  0  0  0  0  0  0  0  0
  138.9450   73.3620  221.6560 C   0  0  0  0  0  0  0  0  0  0  0  0
  139.5340   74.7210  221.6870 C   0  0  0  0  0  0  0  0  0  0  0  0
  140.7760   74.9290  221.5320 O   0  0  0  0  0  0  0  0  0  0  0  0
  138.6420   75.8090  221.9010 N   0  0  0  0  0  0  0  0  0  0  0  0
  137.4830   75.7290  222.7660 C   0  0  0  0  0  0  0  0  0  0  0  0
  136.2200   76.1890  222.0910 C   0  0  0  0  0  0  0  0  0  0  0  0
  136.4940   77.0010  220.8460 C   0  0  0  0  0  0  0  0  0  0  0  0
  137.6430   77.9250  221.1890 C   0  0  0  0  0  0  0  0  0  0  0  0
  138.8890   77.0690  221.2270 C   0  0  1  0  0  0  0  0  0  0  0  0
  139.9670   77.8720  221.9180 C   0  0  0  0  0  0  0  0  0  0  0  0
  141.2090   77.5190  221.2640 N   0  0  0  0  0  0  0  0  0  0  0  0
  141.9360   78.6600  220.7500 C   0  0  0  0  0  0  0  0  0  0  0  0
  142.0000   79.6800  221.8270 C   0  0  0  0  0  0  0  0  0  0  0  0
  141.3960   80.9340  221.6990 C   0  0  0  0  0  0  0  0  0  0  0  0
  141.4570   81.8790  222.6990 C   0  0  0  0  0  0  0  0  0  0  0  0
  142.1320   81.5870  223.8660 C   0  0  0  0  0  0  0  0  0  0  0  0
  142.7460   80.3580  224.0370 C   0  0  0  0  0  0  0  0  0  0  0  0
  142.6620   79.4390  223.0130 C   0  0  0  0  0  0  0  0  0  0  0  0
  139.2010   70.3810  224.0250 C   0  0  0  0  0  0  0  0  0  0  0  0
  138.8790   69.0520  223.9820 C   0  0  0  0  0  0  0  0  0  0  0  0
  139.1370   68.1560  225.0000 C   0  0  0  0  0  0  0  0  0  0  0  0
  139.7660   68.6710  226.1220 C   0  0  0  0  0  0  0  0  0  0  0  0
  140.0440   67.8080  227.1670 C   0  0  0  0  0  0  0  0  0  0  0  0
  140.6760   68.3020  228.3080 C   0  0  0  0  0  0  0  0  0  0  0  0
  141.0070   69.6470  228.3610 C   0  0  0  0  0  0  0  0  0  0  0  0
  140.7180   70.5000  227.2960 C   0  0  0  0  0  0  0  0  0  0  0  0
  140.0850   70.0140  226.1500 C   0  0  0  0  0  0  0  0  0  0  0  0
  139.8100   70.8440  225.1290 N   0  0  0  0  0  0  0  0  0  0  0  0
  139.8900   73.0140  223.6220 H   0  0  0  0  0  0  0  0  0  0  0  0
  139.3034   72.8346  220.7597 H   0  0  0  0  0  0  0  0  0  0  0  0
  137.8491   73.4544  221.6351 H   0  0  0  0  0  0  0  0  0  0  0  0
  137.3519   74.6837  223.0824 H   0  0  0  0  0  0  0  0  0  0  0  0
  137.6623   76.3949  223.6230 H   0  0  0  0  0  0  0  0  0  0  0  0
  135.6264   75.3057  221.8129 H   0  0  0  0  0  0  0  0  0  0  0  0
  135.6775   76.8333  222.7985 H   0  0  0  0  0  0  0  0  0  0  0  0
  136.7726   76.3392  220.0127 H   0  0  0  0  0  0  0  0  0  0  0  0
  135.6043   77.5669  220.5325 H   0  0  0  0  0  0  0  0  0  0  0  0
  137.7431   78.7071  220.4220 H   0  0  0  0  0  0  0  0  0  0  0  0
  137.4755   78.4250  222.1544 H   0  0  0  0  0  0  0  0  0  0  0  0
  139.2087   76.8092  220.2071 H   0  0  0  0  0  0  0  0  0  0  0  0
  139.7704   78.9488  221.8092 H   0  0  0  0  0  0  0  0  0  0  0  0
  140.0032   77.6542  222.9956 H   0  0  0  0  0  0  0  0  0  0  0  0
  141.7930   76.8780  221.8120 H   0  0  0  0  0  0  0  0  0  0  0  0
  142.9531   78.3565  220.4611 H   0  0  0  0  0  0  0  0  0  0  0  0
  141.4311   79.0694  219.8626 H   0  0  0  0  0  0  0  0  0  0  0  0
  140.8555   81.1734  220.7713 H   0  0  0  0  0  0  0  0  0  0  0  0
  140.9719   82.8576  222.5683 H   0  0  0  0  0  0  0  0  0  0  0  0
  142.1829   82.3378  224.6683 H   0  0  0  0  0  0  0  0  0  0  0  0
  143.2865   80.1212  224.9653 H   0  0  0  0  0  0  0  0  0  0  0  0
  143.1486   78.4619  223.1488 H   0  0  0  0  0  0  0  0  0  0  0  0
  138.3820   68.6726  223.0770 H   0  0  0  0  0  0  0  0  0  0  0  0
  138.8592   67.0943  224.9247 H   0  0  0  0  0  0  0  0  0  0  0  0
  139.7699   66.7449  227.0988 H   0  0  0  0  0  0  0  0  0  0  0  0
  140.9079   67.6354  229.1517 H   0  0  0  0  0  0  0  0  0  0  0  0
  141.5050   70.0476  229.2563 H   0  0  0  0  0  0  0  0  0  0  0  0
  140.9908   71.5638  227.3593 H   0  0  0  0  0  0  0  0  0  0  0  0
  1  2  2  0
  2  3  1  0
  3  4  1  0
  4  5  1  0
  5  6  2  0
  5  7  1  0
  7  8  1  0
  8  9  1  0
  9 10  1  0
 10 11  1  0
 11 12  1  0
 12 13  1  0
 13 14  1  0
 14 15  1  0
 15 16  1  0
 16 17  2  0
 17 18  1  0
 18 19  2  0
 19 20  1  0
 20 21  2  0
  2 22  1  0
 22 23  2  0
 23 24  1  0
 24 25  2  0
 25 26  1  0
 26 27  2  0
 27 28  1  0
 28 29  2  0
 29 30  1  0
 30 31  2  0
 12  7  1  0
 21 16  1  0
 31 22  1  0
 30 25  1  0
  3 32  1  0
  4 33  1  0
  4 34  1  0
  8 35  1  0
  8 36  1  0
  9 37  1  0
  9 38  1  0
 10 39  1  0
 10 40  1  0
 11 41  1  0
 11 42  1  0
 12 43  1  6
 13 44  1  0
 13 45  1  0
 14 46  1  0
 15 47  1  0
 15 48  1  0
 17 49  1  0
 18 50  1  0
 19 51  1  0
 20 52  1  0
 21 53  1  0
 23 54  1  0
 24 55  1  0
 26 56  1  0
 27 57  1  0
 28 58  1  0
 29 59  1  0
M  END
>  <smiles>  (44) 
O=C(NCC(=O)N1CCCC[C@H]1CNCc1ccccc1)c1ccc2ccccc2n1

>  <score_type>  (44) 
oracle

>  <origin>  (44) 
autodockgpu

>  <m_score__min__energy>  (44) 
-9.9600000000000009

>  <m_primary>  (44) 
energy

>  <rmsd>  (44) 
3.1170472906616435

>  <m_score__min__rmsd>  (44) 
3.1170472906616435

>  <meeko>  (44) 
{"free_energy": -8.56, "intermolecular_energy": -10.94, "internal_energy": -2.16, "cluster_size": 30, "cluster_id": 1, "rank_in_cluster": 19}

>  <energy>  (44) 
-7.59

>  <cluster_rmsd>  (44) 
1.8

>  <cluster>  (44) 
4

$$$$

     RDKit          3D

 59 62  0  0  0  0  0  0  0  0999 V2000
  138.6500   70.5720  220.3340 O   0  0  0  0  0  0  0  0  0  0  0  0
  139.8580   70.2820  220.6240 C   0  0  0  0  0  0  0  0  0  0  0  0
  140.2160   68.9370  220.9510 N   0  0  0  0  0  0  0  0  0  0  0  0
  139.1160   67.9680  220.9220 C   0  0  0  0  0  0  0  0  0  0  0  0
  138.6160   67.6940  222.2890 C   0  0  0  0  0  0  0  0  0  0  0  0
  138.8360   66.5980  222.8890 O   0  0  0  0  0  0  0  0  0  0  0  0
  137.8640   68.7240  222.9230 N   0  0  0  0  0  0  0  0  0  0  0  0
  136.5200   69.0870  222.5230 C   0  0  0  0  0  0  0  0  0  0  0  0
  136.3640   70.5630  222.2800 C   0  0  0  0  0  0  0  0  0  0  0  0
  137.4870   71.3700  222.8910 C   0  0  0  0  0  0  0  0  0  0  0  0
  137.7430   70.7690  224.2570 C   0  0  0  0  0  0  0  0  0  0  0  0
  138.4560   69.4560  224.0240 C   0  0  1  0  0  0  0  0  0  0  0  0
  138.3940   68.6740  225.3160 C   0  0  0  0  0  0  0  0  0  0  0  0
  139.5050   67.7470  225.2760 N   0  0  0  0  0  0  0  0  0  0  0  0
  140.3570   67.8160  226.4430 C   0  0  0  0  0  0  0  0  0  0  0  0
  140.5800   69.2500  226.7580 C   0  0  0  0  0  0  0  0  0  0  0  0
  141.2340   70.1120  225.8730 C   0  0  0  0  0  0  0  0  0  0  0  0
  141.4390   71.4410  226.1670 C   0  0  0  0  0  0  0  0  0  0  0  0
  140.9900   71.9460  227.3700 C   0  0  0  0  0  0  0  0  0  0  0  0
  140.3370   71.1300  228.2780 C   0  0  0  0  0  0  0  0  0  0  0  0
  140.1510   69.8050  227.9460 C   0  0  0  0  0  0  0  0  0  0  0  0
  140.8800   71.3390  220.6210 C   0  0  0  0  0  0  0  0  0  0  0  0
  140.5020   72.6410  220.7940 C   0  0  0  0  0  0  0  0  0  0  0  0
  141.3770   73.7090  220.8090 C   0  0  0  0  0  0  0  0  0  0  0  0
  142.7170   73.4040  220.6340 C   0  0  0  0  0  0  0  0  0  0  0  0
  143.6290   74.4440  220.6410 C   0  0  0  0  0  0  0  0  0  0  0  0
  144.9840   74.1630  220.4680 C   0  0  0  0  0  0  0  0  0  0  0  0
  145.3770   72.8460  220.2920 C   0  0  0  0  0  0  0  0  0  0  0  0
  144.4410   71.8120  220.2870 C   0  0  0  0  0  0  0  0  0  0  0  0
  143.0820   72.0850  220.4610 C   0  0  0  0  0  0  0  0  0  0  0  0
  142.1880   71.0810  220.4550 N   0  0  0  0  0  0  0  0  0  0  0  0
  141.1950   68.6650  221.1910 H   0  0  0  0  0  0  0  0  0  0  0  0
  138.2948   68.3737  220.3129 H   0  0  0  0  0  0  0  0  0  0  0  0
  139.4877   67.0276  220.4890 H   0  0  0  0  0  0  0  0  0  0  0  0
  136.2719   68.5498  221.5957 H   0  0  0  0  0  0  0  0  0  0  0  0
  135.8436   68.8131  223.3461 H   0  0  0  0  0  0  0  0  0  0  0  0
  136.3498   70.7427  221.1949 H   0  0  0  0  0  0  0  0  0  0  0  0
  135.4246   70.8833  222.7542 H   0  0  0  0  0  0  0  0  0  0  0  0
  138.3906   71.2993  222.2677 H   0  0  0  0  0  0  0  0  0  0  0  0
  137.2219   72.4350  222.9645 H   0  0  0  0  0  0  0  0  0  0  0  0
  138.3737   71.4424  224.8559 H   0  0  0  0  0  0  0  0  0  0  0  0
  136.8023   70.6177  224.8067 H   0  0  0  0  0  0  0  0  0  0  0  0
  139.5043   69.6317  223.7408 H   0  0  0  0  0  0  0  0  0  0  0  0
  138.4921   69.3510  226.1774 H   0  0  0  0  0  0  0  0  0  0  0  0
  137.4340   68.1475  225.4222 H   0  0  0  0  0  0  0  0  0  0  0  0
  139.2310   66.7910  225.0270 H   0  0  0  0  0  0  0  0  0  0  0  0
  139.8682   67.3177  227.2932 H   0  0  0  0  0  0  0  0  0  0  0  0
  141.3152   67.3115  226.2496 H   0  0  0  0  0  0  0  0  0  0  0  0
  141.5958   69.7163  224.9125 H   0  0  0  0  0  0  0  0  0  0  0  0
  141.9562   72.0947  225.4492 H   0  0  0  0  0  0  0  0  0  0  0  0
  141.1525   73.0072  227.6099 H   0  0  0  0  0  0  0  0  0  0  0  0
  139.9765   71.5280  229.2380 H   0  0  0  0  0  0  0  0  0  0  0  0
  139.6328   69.1555  228.6669 H   0  0  0  0  0  0  0  0  0  0  0  0
  139.4310   72.8518  220.9302 H   0  0  0  0  0  0  0  0  0  0  0  0
  141.0299   74.7430  220.9518 H   0  0  0  0  0  0  0  0  0  0  0  0
  143.2894   75.4808  220.7814 H   0  0  0  0  0  0  0  0  0  0  0  0
  145.7281   74.9731  220.4712 H   0  0  0  0  0  0  0  0  0  0  0  0
  146.4431   72.6125  220.1542 H   0  0  0  0  0  0  0  0  0  0  0  0
  144.7754   70.7737  220.1450 H   0  0  0  0  0  0  0  0  0  0  0  0
  1  2  2  0
  2  3  1  0
  3  4  1  0
  4  5  1  0
  5  6  2  0
  5  7  1  0
  7  8  1  0
  8  9  1  0
  9 10  1  0
 10 11  1  0
 11 12  1  0
 12 13  1  0
 13 14  1  0
 14 15  1  0
 15 16  1  0
 16 17  2  0
 17 18  1  0
 18 19  2  0
 19 20  1  0
 20 21  2  0
  2 22  1  0
 22 23  2  0
 23 24  1  0
 24 25  2  0
 25 26  1  0
 26 27  2  0
 27 28  1  0
 28 29  2  0
 29 30  1  0
 30 31  2  0
 12  7  1  0
 21 16  1  0
 31 22  1  0
 30 25  1  0
  3 32  1  0
  4 33  1  0
  4 34  1  0
  8 35  1  0
  8 36  1  0
  9 37  1  0
  9 38  1  0
 10 39  1  0
 10 40  1  0
 11 41  1  0
 11 42  1  0
 12 43  1  6
 13 44  1  0
 13 45  1  0
 14 46  1  0
 15 47  1  0
 15 48  1  0
 17 49  1  0
 18 50  1  0
 19 51  1  0
 20 52  1  0
 21 53  1  0
 23 54  1  0
 24 55  1  0
 26 56  1  0
 27 57  1  0
 28 58  1  0
 29 59  1  0
M  END
>  <smiles>  (45) 
O=C(NCC(=O)N1CCCC[C@H]1CNCc1ccccc1)c1ccc2ccccc2n1

>  <score_type>  (45) 
oracle

>  <origin>  (45) 
autodockgpu

>  <m_score__min__energy>  (45) 
-9.9600000000000009

>  <m_primary>  (45) 
energy

>  <rmsd>  (45) 
9.229218160331989

>  <m_score__min__rmsd>  (45) 
9.229218160331989

>  <meeko>  (45) 
{"free_energy": -7.26, "intermolecular_energy": -9.64, "internal_energy": -3.11, "cluster_size": 1, "cluster_id": 7, "rank_in_cluster": 1}

>  <energy>  (45) 
-7.93

>  <cluster_rmsd>  (45) 
0.0

>  <cluster>  (45) 
5

$$$$

     RDKit          3D

 59 62  0  0  0  0  0  0  0  0999 V2000
  141.3140   71.4520  222.0620 O   0  0  0  0  0  0  0  0  0  0  0  0
  140.4010   71.7590  222.8990 C   0  0  0  0  0  0  0  0  0  0  0  0
  139.3850   72.6990  222.5410 N   0  0  0  0  0  0  0  0  0  0  0  0
  139.4860   73.2490  221.1860 C   0  0  0  0  0  0  0  0  0  0  0  0
  140.4010   74.4130  221.1530 C   0  0  0  0  0  0  0  0  0  0  0  0
  140.1530   75.4930  221.7710 O   0  0  0  0  0  0  0  0  0  0  0  0
  141.5960   74.2770  220.3910 N   0  0  0  0  0  0  0  0  0  0  0  0
  141.8780   73.1290  219.5540 C   0  0  0  0  0  0  0  0  0  0  0  0
  143.2280   72.5260  219.8300 C   0  0  0  0  0  0  0  0  0  0  0  0
  144.1340   73.4650  220.5930 C   0  0  0  0  0  0  0  0  0  0  0  0
  143.9410   74.8330  219.9760 C   0  0  0  0  0  0  0  0  0  0  0  0
  142.5910   75.3300  220.4420 C   0  0  1  0  0  0  0  0  0  0  0  0
  142.2140   76.5020  219.5640 C   0  0  0  0  0  0  0  0  0  0  0  0
  141.2640   77.2830  220.3280 N   0  0  0  0  0  0  0  0  0  0  0  0
  141.4760   78.7110  220.2240 C   0  0  0  0  0  0  0  0  0  0  0  0
  141.7530   79.2290  221.5870 C   0  0  0  0  0  0  0  0  0  0  0  0
  142.2690   80.5100  221.8040 C   0  0  0  0  0  0  0  0  0  0  0  0
  142.5250   80.9890  223.0690 C   0  0  0  0  0  0  0  0  0  0  0  0
  142.2670   80.1870  224.1620 C   0  0  0  0  0  0  0  0  0  0  0  0
  141.7550   78.9120  223.9950 C   0  0  0  0  0  0  0  0  0  0  0  0
  141.5120   78.4690  222.7130 C   0  0  0  0  0  0  0  0  0  0  0  0
  140.4010   71.1430  224.2340 C   0  0  0  0  0  0  0  0  0  0  0  0
  140.8120   71.8750  225.3130 C   0  0  0  0  0  0  0  0  0  0  0  0
  140.8510   71.3970  226.6070 C   0  0  0  0  0  0  0  0  0  0  0  0
  140.4390   70.0860  226.7880 C   0  0  0  0  0  0  0  0  0  0  0  0
  140.4620   69.5650  228.0690 C   0  0  0  0  0  0  0  0  0  0  0  0
  140.0520   68.2480  228.2760 C   0  0  0  0  0  0  0  0  0  0  0  0
  139.6340   67.4990  227.1890 C   0  0  0  0  0  0  0  0  0  0  0  0
  139.6180   68.0420  225.9040 C   0  0  0  0  0  0  0  0  0  0  0  0
  140.0270   69.3610  225.6880 C   0  0  0  0  0  0  0  0  0  0  0  0
  140.0080   69.8770  224.4470 N   0  0  0  0  0  0  0  0  0  0  0  0
  138.6240   72.9720  223.2010 H   0  0  0  0  0  0  0  0  0  0  0  0
  139.8691   72.4709  220.5095 H   0  0  0  0  0  0  0  0  0  0  0  0
  138.4867   73.5794  220.8663 H   0  0  0  0  0  0  0  0  0  0  0  0
  141.1078   72.3646  219.7342 H   0  0  0  0  0  0  0  0  0  0  0  0
  141.8750   73.4716  218.5087 H   0  0  0  0  0  0  0  0  0  0  0  0
  143.0909   71.6090  220.4218 H   0  0  0  0  0  0  0  0  0  0  0  0
  143.7045   72.3136  218.8616 H   0  0  0  0  0  0  0  0  0  0  0  0
  143.8547   73.4837  221.6568 H   0  0  0  0  0  0  0  0  0  0  0  0
  145.1844   73.1438  220.5346 H   0  0  0  0  0  0  0  0  0  0  0  0
  144.7342   75.5167  220.3128 H   0  0  0  0  0  0  0  0  0  0  0  0
  143.9884   74.7835  218.8781 H   0  0  0  0  0  0  0  0  0  0  0  0
  142.6399   75.6487  221.4937 H   0  0  0  0  0  0  0  0  0  0  0  0
  143.1033   77.1051  219.3288 H   0  0  0  0  0  0  0  0  0  0  0  0
  141.7847   76.1678  218.6079 H   0  0  0  0  0  0  0  0  0  0  0  0
  140.2890   77.0040  220.1770 H   0  0  0  0  0  0  0  0  0  0  0  0
  142.3327   78.9151  219.5649 H   0  0  0  0  0  0  0  0  0  0  0  0
  140.5875   79.2015  219.7998 H   0  0  0  0  0  0  0  0  0  0  0  0
  142.4768   81.1549  220.9375 H   0  0  0  0  0  0  0  0  0  0  0  0
  142.9315   82.0017  223.2073 H   0  0  0  0  0  0  0  0  0  0  0  0
  142.4701   80.5644  225.1751 H   0  0  0  0  0  0  0  0  0  0  0  0
  141.5475   78.2690  224.8631 H   0  0  0  0  0  0  0  0  0  0  0  0
  141.1043   77.4560  222.5803 H   0  0  0  0  0  0  0  0  0  0  0  0
  141.1325   72.9127  225.1384 H   0  0  0  0  0  0  0  0  0  0  0  0
  141.1898   72.0210  227.4471 H   0  0  0  0  0  0  0  0  0  0  0  0
  140.7997   70.1821  228.9147 H   0  0  0  0  0  0  0  0  0  0  0  0
  140.0606   67.8117  229.2857 H   0  0  0  0  0  0  0  0  0  0  0  0
  139.3093   66.4591  227.3411 H   0  0  0  0  0  0  0  0  0  0  0  0
  139.2814   67.4283  225.0555 H   0  0  0  0  0  0  0  0  0  0  0  0
  1  2  2  0
  2  3  1  0
  3  4  1  0
  4  5  1  0
  5  6  2  0
  5  7  1  0
  7  8  1  0
  8  9  1  0
  9 10  1  0
 10 11  1  0
 11 12  1  0
 12 13  1  0
 13 14  1  0
 14 15  1  0
 15 16  1  0
 16 17  2  0
 17 18  1  0
 18 19  2  0
 19 20  1  0
 20 21  2  0
  2 22  1  0
 22 23  2  0
 23 24  1  0
 24 25  2  0
 25 26  1  0
 26 27  2  0
 27 28  1  0
 28 29  2  0
 29 30  1  0
 30 31  2  0
 12  7  1  0
 21 16  1  0
 31 22  1  0
 30 25  1  0
  3 32  1  0
  4 33  1  0
  4 34  1  0
  8 35  1  0
  8 36  1  0
  9 37  1  0
  9 38  1  0
 10 39  1  0
 10 40  1  0
 11 41  1  0
 11 42  1  0
 12 43  1  1
 13 44  1  0
 13 45  1  0
 14 46  1  0
 15 47  1  0
 15 48  1  0
 17 49  1  0
 18 50  1  0
 19 51  1  0
 20 52  1  0
 21 53  1  0
 23 54  1  0
 24 55  1  0
 26 56  1  0
 27 57  1  0
 28 58  1  0
 29 59  1  0
M  END
>  <smiles>  (46) 
O=C(NCC(=O)N1CCCC[C@H]1CNCc1ccccc1)c1ccc2ccccc2n1

>  <score_type>  (46) 
oracle

>  <origin>  (46) 
autodockgpu

>  <m_score__min__energy>  (46) 
-9.9600000000000009

>  <m_primary>  (46) 
energy

>  <rmsd>  (46) 
3.6377041866405464

>  <m_score__min__rmsd>  (46) 
3.6377041866405464

>  <meeko>  (46) 
{"free_energy": -9.14, "intermolecular_energy": -11.53, "internal_energy": -2.28, "cluster_size": 30, "cluster_id": 1, "rank_in_cluster": 5}

>  <energy>  (46) 
-7.28

>  <cluster_rmsd>  (46) 
0.0

>  <cluster>  (46) 
6

$$$$

     RDKit          3D

 59 62  0  0  0  0  0  0  0  0999 V2000
  140.6520   72.2260  221.1240 O   0  0  0  0  0  0  0  0  0  0  0  0
  140.1530   72.6960  222.2010 C   0  0  0  0  0  0  0  0  0  0  0  0
  139.6370   74.0290  222.2320 N   0  0  0  0  0  0  0  0  0  0  0  0
  139.7290   74.7690  220.9700 C   0  0  0  0  0  0  0  0  0  0  0  0
  139.3390   76.1860  221.1580 C   0  0  0  0  0  0  0  0  0  0  0  0
  138.1410   76.5850  221.0370 O   0  0  0  0  0  0  0  0  0  0  0  0
  140.3750   77.1060  221.4870 N   0  0  0  0  0  0  0  0  0  0  0  0
  141.0930   77.0780  222.7450 C   0  0  0  0  0  0  0  0  0  0  0  0
  141.1190   78.4160  223.4290 C   0  0  0  0  0  0  0  0  0  0  0  0
  140.7700   79.5510  222.4930 C   0  0  0  0  0  0  0  0  0  0  0  0
  141.4910   79.2620  221.1940 C   0  0  0  0  0  0  0  0  0  0  0  0
  140.7440   78.1280  220.5280 C   0  0  1  0  0  0  0  0  0  0  0  0
  141.6360   77.5790  219.4380 C   0  0  0  0  0  0  0  0  0  0  0  0
  142.4600   76.5690  220.0660 N   0  0  0  0  0  0  0  0  0  0  0  0
  142.6070   75.3680  219.2730 C   0  0  0  0  0  0  0  0  0  0  0  0
  143.5760   74.4820  219.9650 C   0  0  0  0  0  0  0  0  0  0  0  0
  144.7980   74.9540  220.4530 C   0  0  0  0  0  0  0  0  0  0  0  0
  145.6950   74.1300  221.0950 C   0  0  0  0  0  0  0  0  0  0  0  0
  145.3860   72.7970  221.2680 C   0  0  0  0  0  0  0  0  0  0  0  0
  144.1880   72.2840  220.8020 C   0  0  0  0  0  0  0  0  0  0  0  0
  143.3160   73.1420  220.1640 C   0  0  0  0  0  0  0  0  0  0  0  0
  140.1140   71.8600  223.4090 C   0  0  0  0  0  0  0  0  0  0  0  0
  139.5490   70.6160  223.3480 C   0  0  0  0  0  0  0  0  0  0  0  0
  139.4600   69.7500  224.4200 C   0  0  0  0  0  0  0  0  0  0  0  0
  139.9870   70.2030  225.6180 C   0  0  0  0  0  0  0  0  0  0  0  0
  139.9190   69.3680  226.7190 C   0  0  0  0  0  0  0  0  0  0  0  0
  140.4420   69.8020  227.9360 C   0  0  0  0  0  0  0  0  0  0  0  0
  141.0160   71.0610  228.0070 C   0  0  0  0  0  0  0  0  0  0  0  0
  141.0760   71.8880  226.8860 C   0  0  0  0  0  0  0  0  0  0  0  0
  140.5530   71.4610  225.6620 C   0  0  0  0  0  0  0  0  0  0  0  0
  140.6150   72.2650  224.5870 N   0  0  0  0  0  0  0  0  0  0  0  0
  139.2220   74.4440  223.0950 H   0  0  0  0  0  0  0  0  0  0  0  0
  140.7648   74.7264  220.6023 H   0  0  0  0  0  0  0  0  0  0  0  0
  139.0437   74.3095  220.2425 H   0  0  0  0  0  0  0  0  0  0  0  0
  140.6058   76.3514  223.4119 H   0  0  0  0  0  0  0  0  0  0  0  0
  142.1338   76.7966  222.5268 H   0  0  0  0  0  0  0  0  0  0  0  0
  140.3930   78.4041  224.2553 H   0  0  0  0  0  0  0  0  0  0  0  0
  142.1430   78.5856  223.7932 H   0  0  0  0  0  0  0  0  0  0  0  0
  139.6833   79.5877  222.3263 H   0  0  0  0  0  0  0  0  0  0  0  0
  141.0704   80.5230  222.9112 H   0  0  0  0  0  0  0  0  0  0  0  0
  141.4823   80.1529  220.5488 H   0  0  0  0  0  0  0  0  0  0  0  0
  142.5419   78.9923  221.3752 H   0  0  0  0  0  0  0  0  0  0  0  0
  139.8003   78.4905  220.0944 H   0  0  0  0  0  0  0  0  0  0  0  0
  141.0291   77.1327  218.6365 H   0  0  0  0  0  0  0  0  0  0  0  0
  142.2480   78.3711  218.9820 H   0  0  0  0  0  0  0  0  0  0  0  0
  143.3490   76.9310  220.4250 H   0  0  0  0  0  0  0  0  0  0  0  0
  141.6358   74.8599  219.1802 H   0  0  0  0  0  0  0  0  0  0  0  0
  142.9669   75.6162  218.2636 H   0  0  0  0  0  0  0  0  0  0  0  0
  145.0507   76.0163  220.3200 H   0  0  0  0  0  0  0  0  0  0  0  0
  146.6495   74.5312  221.4666 H   0  0  0  0  0  0  0  0  0  0  0  0
  146.0988   72.1350  221.7815 H   0  0  0  0  0  0  0  0  0  0  0  0
  143.9379   71.2213  220.9366 H   0  0  0  0  0  0  0  0  0  0  0  0
  142.3628   72.7359  219.7944 H   0  0  0  0  0  0  0  0  0  0  0  0
  139.1390   70.2838  222.3828 H   0  0  0  0  0  0  0  0  0  0  0  0
  138.9968   68.7566  224.3276 H   0  0  0  0  0  0  0  0  0  0  0  0
  139.4575   68.3730  226.6350 H   0  0  0  0  0  0  0  0  0  0  0  0
  140.3997   69.1557  228.8251 H   0  0  0  0  0  0  0  0  0  0  0  0
  141.4309   71.4137  228.9628 H   0  0  0  0  0  0  0  0  0  0  0  0
  141.5380   72.8831  226.9653 H   0  0  0  0  0  0  0  0  0  0  0  0
  1  2  2  0
  2  3  1  0
  3  4  1  0
  4  5  1  0
  5  6  2  0
  5  7  1  0
  7  8  1  0
  8  9  1  0
  9 10  1  0
 10 11  1  0
 11 12  1  0
 12 13  1  0
 13 14  1  0
 14 15  1  0
 15 16  1  0
 16 17  2  0
 17 18  1  0
 18 19  2  0
 19 20  1  0
 20 21  2  0
  2 22  1  0
 22 23  2  0
 23 24  1  0
 24 25  2  0
 25 26  1  0
 26 27  2  0
 27 28  1  0
 28 29  2  0
 29 30  1  0
 30 31  2  0
 12  7  1  0
 21 16  1  0
 31 22  1  0
 30 25  1  0
  3 32  1  0
  4 33  1  0
  4 34  1  0
  8 35  1  0
  8 36  1  0
  9 37  1  0
  9 38  1  0
 10 39  1  0
 10 40  1  0
 11 41  1  0
 11 42  1  0
 12 43  1  6
 13 44  1  0
 13 45  1  0
 14 46  1  0
 15 47  1  0
 15 48  1  0
 17 49  1  0
 18 50  1  0
 19 51  1  0
 20 52  1  0
 21 53  1  0
 23 54  1  0
 24 55  1  0
 26 56  1  0
 27 57  1  0
 28 58  1  0
 29 59  1  0
M  END
>  <smiles>  (47) 
O=C(NCC(=O)N1CCCC[C@H]1CNCc1ccccc1)c1ccc2ccccc2n1

>  <score_type>  (47) 
oracle

>  <origin>  (47) 
autodockgpu

>  <m_score__min__energy>  (47) 
-9.9600000000000009

>  <m_primary>  (47) 
energy

>  <rmsd>  (47) 
5.2342214725412255

>  <m_score__min__rmsd>  (47) 
5.2342214725412255

>  <meeko>  (47) 
{"free_energy": -8.69, "intermolecular_energy": -11.08, "internal_energy": -2.17, "cluster_size": 5, "cluster_id": 2, "rank_in_cluster": 4}

>  <energy>  (47) 
-7.11

>  <cluster_rmsd>  (47) 
1.82

>  <cluster>  (47) 
6

$$$$

     RDKit          3D

 59 62  0  0  0  0  0  0  0  0999 V2000
  141.2730   72.5450  221.9030 O   0  0  0  0  0  0  0  0  0  0  0  0
  140.2200   72.5160  222.6240 C   0  0  0  0  0  0  0  0  0  0  0  0
  139.1260   73.3910  222.3330 N   0  0  0  0  0  0  0  0  0  0  0  0
  139.3200   74.2800  221.1840 C   0  0  0  0  0  0  0  0  0  0  0  0
  140.1370   75.4580  221.5570 C   0  0  0  0  0  0  0  0  0  0  0  0
  141.3340   75.3550  221.9660 O   0  0  0  0  0  0  0  0  0  0  0  0
  139.5230   76.7370  221.4400 N   0  0  0  0  0  0  0  0  0  0  0  0
  139.3910   77.6590  222.5490 C   0  0  0  0  0  0  0  0  0  0  0  0
  137.9840   78.1590  222.7250 C   0  0  0  0  0  0  0  0  0  0  0  0
  137.1320   77.9300  221.4980 C   0  0  0  0  0  0  0  0  0  0  0  0
  138.0010   78.2810  220.3090 C   0  0  0  0  0  0  0  0  0  0  0  0
  138.9970   77.1540  220.1560 C   0  0  1  0  0  0  0  0  0  0  0  0
  140.0920   77.6420  219.2340 C   0  0  0  0  0  0  0  0  0  0  0  0
  141.2570   77.8450  220.0690 N   0  0  0  0  0  0  0  0  0  0  0  0
  141.8240   79.1710  219.9550 C   0  0  0  0  0  0  0  0  0  0  0  0
  141.8080   79.7890  221.3040 C   0  0  0  0  0  0  0  0  0  0  0  0
  141.3370   81.0880  221.5210 C   0  0  0  0  0  0  0  0  0  0  0  0
  141.3230   81.6590  222.7740 C   0  0  0  0  0  0  0  0  0  0  0  0
  141.7840   80.9350  223.8540 C   0  0  0  0  0  0  0  0  0  0  0  0
  142.2590   79.6460  223.6870 C   0  0  0  0  0  0  0  0  0  0  0  0
  142.2570   79.1090  222.4170 C   0  0  0  0  0  0  0  0  0  0  0  0
  140.1370   71.5800  223.7540 C   0  0  0  0  0  0  0  0  0  0  0  0
  139.5210   70.3710  223.5840 C   0  0  0  0  0  0  0  0  0  0  0  0
  139.3880   69.4200  224.5750 C   0  0  0  0  0  0  0  0  0  0  0  0
  139.9260   69.7450  225.8100 C   0  0  0  0  0  0  0  0  0  0  0  0
  139.8150   68.8210  226.8330 C   0  0  0  0  0  0  0  0  0  0  0  0
  140.3490   69.1240  228.0850 C   0  0  0  0  0  0  0  0  0  0  0  0
  140.9750   70.3460  228.2680 C   0  0  0  0  0  0  0  0  0  0  0  0
  141.0760   71.2640  227.2230 C   0  0  0  0  0  0  0  0  0  0  0  0
  140.5450   70.9690  225.9660 C   0  0  0  0  0  0  0  0  0  0  0  0
  140.6470   71.8600  224.9640 N   0  0  0  0  0  0  0  0  0  0  0  0
  138.2500   73.3930  222.9010 H   0  0  0  0  0  0  0  0  0  0  0  0
  139.8317   73.7263  220.3830 H   0  0  0  0  0  0  0  0  0  0  0  0
  138.3352   74.6304  220.8415 H   0  0  0  0  0  0  0  0  0  0  0  0
  139.6999   77.1459  223.4716 H   0  0  0  0  0  0  0  0  0  0  0  0
  140.0281   78.5296  222.3342 H   0  0  0  0  0  0  0  0  0  0  0  0
  137.5263   77.6330  223.5758 H   0  0  0  0  0  0  0  0  0  0  0  0
  138.0337   79.2438  222.9004 H   0  0  0  0  0  0  0  0  0  0  0  0
  136.8177   76.8773  221.4431 H   0  0  0  0  0  0  0  0  0  0  0  0
  136.2198   78.5442  221.5230 H   0  0  0  0  0  0  0  0  0  0  0  0
  137.3854   78.3696  219.4017 H   0  0  0  0  0  0  0  0  0  0  0  0
  138.5108   79.2439  220.4601 H   0  0  0  0  0  0  0  0  0  0  0  0
  138.5098   76.2663  219.7263 H   0  0  0  0  0  0  0  0  0  0  0  0
  140.3032   76.8895  218.4599 H   0  0  0  0  0  0  0  0  0  0  0  0
  139.8004   78.5685  218.7178 H   0  0  0  0  0  0  0  0  0  0  0  0
  141.1230   77.5410  221.0380 H   0  0  0  0  0  0  0  0  0  0  0  0
  142.8581   79.1053  219.5858 H   0  0  0  0  0  0  0  0  0  0  0  0
  141.2409   79.7785  219.2472 H   0  0  0  0  0  0  0  0  0  0  0  0
  140.9666   81.6711  220.6649 H   0  0  0  0  0  0  0  0  0  0  0  0
  140.9475   82.6836  222.9126 H   0  0  0  0  0  0  0  0  0  0  0  0
  141.7739   81.3864  224.8571 H   0  0  0  0  0  0  0  0  0  0  0  0
  142.6285   79.0650  224.5449 H   0  0  0  0  0  0  0  0  0  0  0  0
  142.6334   78.0840  222.2844 H   0  0  0  0  0  0  0  0  0  0  0  0
  139.1042   70.1415  222.5922 H   0  0  0  0  0  0  0  0  0  0  0  0
  138.8838   68.4591  224.3950 H   0  0  0  0  0  0  0  0  0  0  0  0
  139.3114   67.8583  226.6610 H   0  0  0  0  0  0  0  0  0  0  0  0
  140.2743   68.4044  228.9137 H   0  0  0  0  0  0  0  0  0  0  0  0
  141.3986   70.5960  229.2519 H   0  0  0  0  0  0  0  0  0  0  0  0
  141.5781   72.2283  227.3905 H   0  0  0  0  0  0  0  0  0  0  0  0
  1  2  2  0
  2  3  1  0
  3  4  1  0
  4  5  1  0
  5  6  2  0
  5  7  1  0
  7  8  1  0
  8  9  1  0
  9 10  1  0
 10 11  1  0
 11 12  1  0
 12 13  1  0
 13 14  1  0
 14 15  1  0
 15 16  1  0
 16 17  2  0
 17 18  1  0
 18 19  2  0
 19 20  1  0
 20 21  2  0
  2 22  1  0
 22 23  2  0
 23 24  1  0
 24 25  2  0
 25 26  1  0
 26 27  2  0
 27 28  1  0
 28 29  2  0
 29 30  1  0
 30 31  2  0
 12  7  1  0
 21 16  1  0
 31 22  1  0
 30 25  1  0
  3 32  1  0
  4 33  1  0
  4 34  1  0
  8 35  1  0
  8 36  1  0
  9 37  1  0
  9 38  1  0
 10 39  1  0
 10 40  1  0
 11 41  1  0
 11 42  1  0
 12 43  1  6
 13 44  1  0
 13 45  1  0
 14 46  1  0
 15 47  1  0
 15 48  1  0
 17 49  1  0
 18 50  1  0
 19 51  1  0
 20 52  1  0
 21 53  1  0
 23 54  1  0
 24 55  1  0
 26 56  1  0
 27 57  1  0
 28 58  1  0
 29 59  1  0
M  END
>  <smiles>  (48) 
O=C(NCC(=O)N1CCCC[C@H]1CNCc1ccccc1)c1ccc2ccccc2n1

>  <score_type>  (48) 
oracle

>  <origin>  (48) 
autodockgpu

>  <m_score__min__energy>  (48) 
-9.9600000000000009

>  <m_primary>  (48) 
energy

>  <rmsd>  (48) 
3.157400819850994

>  <m_score__min__rmsd>  (48) 
3.157400819850994

>  <meeko>  (48) 
{"free_energy": -8.46, "intermolecular_energy": -10.84, "internal_energy": -2.25, "cluster_size": 30, "cluster_id": 1, "rank_in_cluster": 22}

>  <energy>  (48) 
-6.6

>  <cluster_rmsd>  (48) 
1.18

>  <cluster>  (48) 
6

$$$$

     RDKit          3D

 59 62  0  0  0  0  0  0  0  0999 V2000
  139.7810   71.3590  221.3690 O   0  0  0  0  0  0  0  0  0  0  0  0
  139.1670   71.7300  222.4250 C   0  0  0  0  0  0  0  0  0  0  0  0
  138.1300   72.7120  222.3450 N   0  0  0  0  0  0  0  0  0  0  0  0
  137.8520   73.2260  221.0010 C   0  0  0  0  0  0  0  0  0  0  0  0
  138.3330   74.6200  220.8580 C   0  0  0  0  0  0  0  0  0  0  0  0
  137.5720   75.6230  221.0170 O   0  0  0  0  0  0  0  0  0  0  0  0
  139.7060   74.8020  220.5310 N   0  0  0  0  0  0  0  0  0  0  0  0
  140.2010   74.8350  219.1690 C   0  0  0  0  0  0  0  0  0  0  0  0
  141.3520   73.8940  218.9470 C   0  0  0  0  0  0  0  0  0  0  0  0
  141.9920   73.4470  220.2420 C   0  0  0  0  0  0  0  0  0  0  0  0
  142.0770   74.6800  221.1170 C   0  0  0  0  0  0  0  0  0  0  0  0
  140.6730   74.9640  221.5980 C   0  0  1  0  0  0  0  0  0  0  0  0
  140.6630   76.3700  222.1550 C   0  0  0  0  0  0  0  0  0  0  0  0
  141.4470   77.1680  221.2370 N   0  0  0  0  0  0  0  0  0  0  0  0
  140.8530   78.4540  220.9390 C   0  0  0  0  0  0  0  0  0  0  0  0
  141.3090   79.4160  221.9740 C   0  0  0  0  0  0  0  0  0  0  0  0
  142.6300   79.4460  222.4290 C   0  0  0  0  0  0  0  0  0  0  0  0
  143.0510   80.3400  223.3890 C   0  0  0  0  0  0  0  0  0  0  0  0
  142.1470   81.2360  223.9220 C   0  0  0  0  0  0  0  0  0  0  0  0
  140.8290   81.2430  223.5020 C   0  0  0  0  0  0  0  0  0  0  0  0
  140.4470   80.3320  222.5390 C   0  0  0  0  0  0  0  0  0  0  0  0
  139.5320   71.1440  223.7220 C   0  0  0  0  0  0  0  0  0  0  0  0
  139.2810   69.8200  223.9570 C   0  0  0  0  0  0  0  0  0  0  0  0
  139.5820   69.1690  225.1370 C   0  0  0  0  0  0  0  0  0  0  0  0
  140.1770   69.9380  226.1250 C   0  0  0  0  0  0  0  0  0  0  0  0
  140.4960   69.3260  227.3240 C   0  0  0  0  0  0  0  0  0  0  0  0
  141.0950   70.0780  228.3330 C   0  0  0  0  0  0  0  0  0  0  0  0
  141.3540   71.4200  228.1040 C   0  0  0  0  0  0  0  0  0  0  0  0
  141.0250   72.0180  226.8880 C   0  0  0  0  0  0  0  0  0  0  0  0
  140.4240   71.2720  225.8710 C   0  0  0  0  0  0  0  0  0  0  0  0
  140.1100   71.8560  224.7020 N   0  0  0  0  0  0  0  0  0  0  0  0
  137.6080   73.0370  223.1880 H   0  0  0  0  0  0  0  0  0  0  0  0
  138.3610   72.5916  220.2604 H   0  0  0  0  0  0  0  0  0  0  0  0
  136.7644   73.2110  220.8371 H   0  0  0  0  0  0  0  0  0  0  0  0
  139.3819   74.5554  218.4900 H   0  0  0  0  0  0  0  0  0  0  0  0
  140.5629   75.8549  218.9717 H   0  0  0  0  0  0  0  0  0  0  0  0
  140.9841   73.0069  218.4106 H   0  0  0  0  0  0  0  0  0  0  0  0
  142.1153   74.4308  218.3646 H   0  0  0  0  0  0  0  0  0  0  0  0
  141.3743   72.6768  220.7270 H   0  0  0  0  0  0  0  0  0  0  0  0
  142.9858   73.0086  220.0683 H   0  0  0  0  0  0  0  0  0  0  0  0
  142.7413   74.4928  221.9735 H   0  0  0  0  0  0  0  0  0  0  0  0
  142.4865   75.5353  220.5595 H   0  0  0  0  0  0  0  0  0  0  0  0
  140.3824   74.2466  222.3796 H   0  0  0  0  0  0  0  0  0  0  0  0
  139.6329   76.7521  222.2100 H   0  0  0  0  0  0  0  0  0  0  0  0
  141.0777   76.4031  223.1733 H   0  0  0  0  0  0  0  0  0  0  0  0
  142.4390   77.2270  221.4890 H   0  0  0  0  0  0  0  0  0  0  0  0
  141.1763   78.7939  219.9440 H   0  0  0  0  0  0  0  0  0  0  0  0
  139.7555   78.3797  220.9407 H   0  0  0  0  0  0  0  0  0  0  0  0
  143.3555   78.7344  222.0080 H   0  0  0  0  0  0  0  0  0  0  0  0
  144.0977   80.3395  223.7274 H   0  0  0  0  0  0  0  0  0  0  0  0
  142.4778   81.9520  224.6887 H   0  0  0  0  0  0  0  0  0  0  0  0
  140.1052   81.9556  223.9244 H   0  0  0  0  0  0  0  0  0  0  0  0
  139.3992   80.3366  222.2041 H   0  0  0  0  0  0  0  0  0  0  0  0
  138.8086   69.2358  223.1536 H   0  0  0  0  0  0  0  0  0  0  0  0
  139.3622   68.1013  225.2845 H   0  0  0  0  0  0  0  0  0  0  0  0
  140.2795   68.2587  227.4791 H   0  0  0  0  0  0  0  0  0  0  0  0
  141.3578   69.6140  229.2951 H   0  0  0  0  0  0  0  0  0  0  0  0
  141.8264   72.0228  228.8936 H   0  0  0  0  0  0  0  0  0  0  0  0
  141.2402   73.0849  226.7283 H   0  0  0  0  0  0  0  0  0  0  0  0
  1  2  2  0
  2  3  1  0
  3  4  1  0
  4  5  1  0
  5  6  2  0
  5  7  1  0
  7  8  1  0
  8  9  1  0
  9 10  1  0
 10 11  1  0
 11 12  1  0
 12 13  1  0
 13 14  1  0
 14 15  1  0
 15 16  1  0
 16 17  2  0
 17 18  1  0
 18 19  2  0
 19 20  1  0
 20 21  2  0
  2 22  1  0
 22 23  2  0
 23 24  1  0
 24 25  2  0
 25 26  1  0
 26 27  2  0
 27 28  1  0
 28 29  2  0
 29 30  1  0
 30 31  2  0
 12  7  1  0
 21 16  1  0
 31 22  1  0
 30 25  1  0
  3 32  1  0
  4 33  1  0
  4 34  1  0
  8 35  1  0
  8 36  1  0
  9 37  1  0
  9 38  1  0
 10 39  1  0
 10 40  1  0
 11 41  1  0
 11 42  1  0
 12 43  1  1
 13 44  1  0
 13 45  1  0
 14 46  1  0
 15 47  1  0
 15 48  1  0
 17 49  1  0
 18 50  1  0
 19 51  1  0
 20 52  1  0
 21 53  1  0
 23 54  1  0
 24 55  1  0
 26 56  1  0
 27 57  1  0
 28 58  1  0
 29 59  1  0
M  END
>  <smiles>  (49) 
O=C(NCC(=O)N1CCCC[C@H]1CNCc1ccccc1)c1ccc2ccccc2n1

>  <score_type>  (49) 
oracle

>  <origin>  (49) 
autodockgpu

>  <m_score__min__energy>  (49) 
-9.9600000000000009

>  <m_primary>  (49) 
energy

>  <rmsd>  (49) 
2.599425455315972

>  <m_score__min__rmsd>  (49) 
2.599425455315972

>  <meeko>  (49) 
{"free_energy": -8.55, "intermolecular_energy": -10.93, "internal_energy": -1.98, "cluster_size": 30, "cluster_id": 1, "rank_in_cluster": 20}

>  <energy>  (49) 
-6.37

>  <cluster_rmsd>  (49) 
1.95

>  <cluster>  (49) 
6

$$$$

     RDKit          3D

 59 62  0  0  0  0  0  0  0  0999 V2000
  141.0690   72.0070  221.8340 O   0  0  0  0  0  0  0  0  0  0  0  0
  140.0690   72.0940  222.6230 C   0  0  0  0  0  0  0  0  0  0  0  0
  139.0230   73.0310  222.3570 N   0  0  0  0  0  0  0  0  0  0  0  0
  139.1980   73.8430  221.1480 C   0  0  0  0  0  0  0  0  0  0  0  0
  140.4240   74.6700  221.2390 C   0  0  0  0  0  0  0  0  0  0  0  0
  140.6030   75.5240  222.1600 O   0  0  0  0  0  0  0  0  0  0  0  0
  141.4160   74.4700  220.2390 N   0  0  0  0  0  0  0  0  0  0  0  0
  141.2910   73.4920  219.1780 C   0  0  0  0  0  0  0  0  0  0  0  0
  142.4930   72.5960  219.0680 C   0  0  0  0  0  0  0  0  0  0  0  0
  143.7010   73.1600  219.7810 C   0  0  0  0  0  0  0  0  0  0  0  0
  143.7280   74.6390  219.4580 C   0  0  0  0  0  0  0  0  0  0  0  0
  142.6200   75.2770  220.2660 C   0  0  1  0  0  0  0  0  0  0  0  0
  142.3840   76.6570  219.6970 C   0  0  0  0  0  0  0  0  0  0  0  0
  142.1910   77.5310  220.8340 N   0  0  0  0  0  0  0  0  0  0  0  0
  141.4290   78.7220  220.5240 C   0  0  0  0  0  0  0  0  0  0  0  0
  141.6570   79.7030  221.6150 C   0  0  0  0  0  0  0  0  0  0  0  0
  142.2620   79.3440  222.8230 C   0  0  0  0  0  0  0  0  0  0  0  0
  142.4730   80.2570  223.8330 C   0  0  0  0  0  0  0  0  0  0  0  0
  142.0770   81.5660  223.6560 C   0  0  0  0  0  0  0  0  0  0  0  0
  141.4730   81.9670  222.4760 C   0  0  0  0  0  0  0  0  0  0  0  0
  141.2810   81.0240  221.4890 C   0  0  0  0  0  0  0  0  0  0  0  0
  140.0000   71.2260  223.8070 C   0  0  0  0  0  0  0  0  0  0  0  0
  139.3380   70.0320  223.7290 C   0  0  0  0  0  0  0  0  0  0  0  0
  139.2130   69.1430  224.7780 C   0  0  0  0  0  0  0  0  0  0  0  0
  139.8090   69.5170  225.9720 C   0  0  0  0  0  0  0  0  0  0  0  0
  139.7080   68.6560  227.0500 C   0  0  0  0  0  0  0  0  0  0  0  0
  140.2990   69.0100  228.2620 C   0  0  0  0  0  0  0  0  0  0  0  0
  140.9720   70.2180  228.3500 C   0  0  0  0  0  0  0  0  0  0  0  0
  141.0630   71.0720  227.2520 C   0  0  0  0  0  0  0  0  0  0  0  0
  140.4730   70.7250  226.0340 C   0  0  0  0  0  0  0  0  0  0  0  0
  140.5660   71.5550  224.9800 N   0  0  0  0  0  0  0  0  0  0  0  0
  138.1920   73.1280  222.9800 H   0  0  0  0  0  0  0  0  0  0  0  0
  139.2764   73.1776  220.2756 H   0  0  0  0  0  0  0  0  0  0  0  0
  138.3303   74.5112  221.0450 H   0  0  0  0  0  0  0  0  0  0  0  0
  140.4057   72.8699  219.3758 H   0  0  0  0  0  0  0  0  0  0  0  0
  141.1994   74.0417  218.2296 H   0  0  0  0  0  0  0  0  0  0  0  0
  142.2467   71.6191  219.5095 H   0  0  0  0  0  0  0  0  0  0  0  0
  142.7461   72.5047  218.0014 H   0  0  0  0  0  0  0  0  0  0  0  0
  143.6087   73.0081  220.8666 H   0  0  0  0  0  0  0  0  0  0  0  0
  144.6268   72.6616  219.4579 H   0  0  0  0  0  0  0  0  0  0  0  0
  144.6998   75.0713  219.7385 H   0  0  0  0  0  0  0  0  0  0  0  0
  143.5851   74.8130  218.3813 H   0  0  0  0  0  0  0  0  0  0  0  0
  142.9094   75.3514  221.3246 H   0  0  0  0  0  0  0  0  0  0  0  0
  143.2551   76.9818  219.1091 H   0  0  0  0  0  0  0  0  0  0  0  0
  141.5128   76.6718  219.0257 H   0  0  0  0  0  0  0  0  0  0  0  0
  141.8610   77.0440  221.6730 H   0  0  0  0  0  0  0  0  0  0  0  0
  141.7663   79.1432  219.5654 H   0  0  0  0  0  0  0  0  0  0  0  0
  140.3587   78.4825  220.4399 H   0  0  0  0  0  0  0  0  0  0  0  0
  142.5791   78.3012  222.9716 H   0  0  0  0  0  0  0  0  0  0  0  0
  142.9531   79.9446  224.7721 H   0  0  0  0  0  0  0  0  0  0  0  0
  142.2424   82.2986  224.4597 H   0  0  0  0  0  0  0  0  0  0  0  0
  141.1550   83.0099  222.3303 H   0  0  0  0  0  0  0  0  0  0  0  0
  140.8025   81.3420  220.5510 H   0  0  0  0  0  0  0  0  0  0  0  0
  138.8751   69.7623  222.7683 H   0  0  0  0  0  0  0  0  0  0  0  0
  138.6710   68.1917  224.6720 H   0  0  0  0  0  0  0  0  0  0  0  0
  139.1675   67.7029  226.9520 H   0  0  0  0  0  0  0  0  0  0  0  0
  140.2322   68.3419  229.1333 H   0  0  0  0  0  0  0  0  0  0  0  0
  141.4419   70.5077  229.3014 H   0  0  0  0  0  0  0  0  0  0  0  0
  141.6031   72.0257  227.3452 H   0  0  0  0  0  0  0  0  0  0  0  0
  1  2  2  0
  2  3  1  0
  3  4  1  0
  4  5  1  0
  5  6  2  0
  5  7  1  0
  7  8  1  0
  8  9  1  0
  9 10  1  0
 10 11  1  0
 11 12  1  0
 12 13  1  0
 13 14  1  0
 14 15  1  0
 15 16  1  0
 16 17  2  0
 17 18  1  0
 18 19  2  0
 19 20  1  0
 20 21  2  0
  2 22  1  0
 22 23  2  0
 23 24  1  0
 24 25  2  0
 25 26  1  0
 26 27  2  0
 27 28  1  0
 28 29  2  0
 29 30  1  0
 30 31  2  0
 12  7  1  0
 21 16  1  0
 31 22  1  0
 30 25  1  0
  3 32  1  0
  4 33  1  0
  4 34  1  0
  8 35  1  0
  8 36  1  0
  9 37  1  0
  9 38  1  0
 10 39  1  0
 10 40  1  0
 11 41  1  0
 11 42  1  0
 12 43  1  1
 13 44  1  0
 13 45  1  0
 14 46  1  0
 15 47  1  0
 15 48  1  0
 17 49  1  0
 18 50  1  0
 19 51  1  0
 20 52  1  0
 21 53  1  0
 23 54  1  0
 24 55  1  0
 26 56  1  0
 27 57  1  0
 28 58  1  0
 29 59  1  0
M  END
>  <smiles>  (50) 
O=C(NCC(=O)N1CCCC[C@H]1CNCc1ccccc1)c1ccc2ccccc2n1

>  <score_type>  (50) 
oracle

>  <origin>  (50) 
autodockgpu

>  <m_score__min__energy>  (50) 
-9.9600000000000009

>  <m_primary>  (50) 
energy

>  <rmsd>  (50) 
2.5708356095929497

>  <m_score__min__rmsd>  (50) 
2.5708356095929497

>  <meeko>  (50) 
{"free_energy": -9.48, "intermolecular_energy": -11.87, "internal_energy": -2.22, "cluster_size": 30, "cluster_id": 1, "rank_in_cluster": 2}

>  <energy>  (50) 
-7.26

>  <cluster_rmsd>  (50) 
0.0

>  <cluster>  (50) 
7

$$$$
