
     RDKit          3D

 56 59  0  0  0  0  0  0  0  0999 V2000
  140.0700   72.8270  222.6800 O   0  0  0  0  0  0  0  0  0  0  0  0
  140.4810   73.6320  221.8070 C   0  0  0  0  0  0  0  0  0  0  0  0
  141.3020   73.2230  220.7320 N   0  0  0  0  0  0  0  0  0  0  0  0
  141.6970   71.8250  220.6090 C   0  0  0  0  0  0  0  0  0  0  0  0
  142.9620   71.7260  219.8610 C   0  0  0  0  0  0  0  0  0  0  0  0
  143.1000   70.7290  219.0760 O   0  0  0  0  0  0  0  0  0  0  0  0
  144.0290   72.6280  219.9300 N   0  0  0  0  0  0  0  0  0  0  0  0
  145.1980   72.5960  219.0850 C   0  0  0  0  0  0  0  0  0  0  0  0
  146.3070   73.2230  219.8930 C   0  0  0  0  0  0  0  0  0  0  0  0
  145.6620   73.5820  221.2170 C   0  0  0  0  0  0  0  0  0  0  0  0
  144.2200   73.7800  220.8400 C   0  0  1  0  0  0  0  0  0  0  0  0
  144.0630   75.0520  220.0590 C   0  0  0  0  0  0  0  0  0  0  0  0
  142.8640   75.7630  220.1860 N   0  0  0  0  0  0  0  0  0  0  0  0
  142.2890   76.4330  219.0910 C   0  0  0  0  0  0  0  0  0  0  0  0
  140.8890   75.9920  218.8280 C   0  0  0  0  0  0  0  0  0  0  0  0
  140.0980   77.2380  218.5850 C   0  0  0  0  0  0  0  0  0  0  0  0
  141.0640   78.3640  218.4650 C   0  0  0  0  0  0  0  0  0  0  0  0
  142.1540   77.9290  219.4480 C   0  0  0  0  0  0  0  0  0  0  0  0
  140.1050   75.0540  221.8940 C   0  0  0  0  0  0  0  0  0  0  0  0
  138.8420   75.4480  221.4910 C   0  0  0  0  0  0  0  0  0  0  0  0
  138.4600   76.7820  221.5600 C   0  0  0  0  0  0  0  0  0  0  0  0
  139.3240   77.7350  222.0270 C   0  0  0  0  0  0  0  0  0  0  0  0
  138.9580   79.0490  222.0980 C   0  0  0  0  0  0  0  0  0  0  0  0
  139.8400   79.9730  222.5670 C   0  0  0  0  0  0  0  0  0  0  0  0
  139.3360   81.6520  222.6450 Cl  0  0  0  0  0  0  0  0  0  0  0  0
  141.0890   79.5500  222.9610 C   0  0  0  0  0  0  0  0  0  0  0  0
  141.4660   78.2290  222.8930 C   0  0  0  0  0  0  0  0  0  0  0  0
  140.5840   77.2920  222.4210 C   0  0  0  0  0  0  0  0  0  0  0  0
  140.9340   75.9890  222.3450 N   0  0  0  0  0  0  0  0  0  0  0  0
  141.6310   73.9120  220.0210 H   0  0  0  0  0  0  0  0  0  0  0  0
  141.8317   71.3943  221.6122 H   0  0  0  0  0  0  0  0  0  0  0  0
  140.9130   71.2730  220.0698 H   0  0  0  0  0  0  0  0  0  0  0  0
  145.4537   71.5584  218.8242 H   0  0  0  0  0  0  0  0  0  0  0  0
  145.0300   73.1356  218.1413 H   0  0  0  0  0  0  0  0  0  0  0  0
  147.1295   72.5082  220.0433 H   0  0  0  0  0  0  0  0  0  0  0  0
  146.7436   74.0992  219.3913 H   0  0  0  0  0  0  0  0  0  0  0  0
  145.7728   72.7660  221.9462 H   0  0  0  0  0  0  0  0  0  0  0  0
  146.1124   74.4634  221.6969 H   0  0  0  0  0  0  0  0  0  0  0  0
  143.5234   73.8398  221.6892 H   0  0  0  0  0  0  0  0  0  0  0  0
  144.8759   75.7261  220.3669 H   0  0  0  0  0  0  0  0  0  0  0  0
  144.0783   74.7295  219.0074 H   0  0  0  0  0  0  0  0  0  0  0  0
  142.3630   75.7520  221.0780 H   0  0  0  0  0  0  0  0  0  0  0  0
  142.9324   76.2278  218.2227 H   0  0  0  0  0  0  0  0  0  0  0  0
  140.8545   75.3397  217.9430 H   0  0  0  0  0  0  0  0  0  0  0  0
  140.4836   75.4184  219.6745 H   0  0  0  0  0  0  0  0  0  0  0  0
  139.5182   77.1397  217.6554 H   0  0  0  0  0  0  0  0  0  0  0  0
  139.3939   77.4175  219.4108 H   0  0  0  0  0  0  0  0  0  0  0  0
  141.4563   78.4508  217.4410 H   0  0  0  0  0  0  0  0  0  0  0  0
  140.6325   79.3529  218.6790 H   0  0  0  0  0  0  0  0  0  0  0  0
  143.0947   78.4725  219.2752 H   0  0  0  0  0  0  0  0  0  0  0  0
  141.9176   78.1246  220.5044 H   0  0  0  0  0  0  0  0  0  0  0  0
  138.1327   74.6975  221.1120 H   0  0  0  0  0  0  0  0  0  0  0  0
  137.4509   77.0757  221.2353 H   0  0  0  0  0  0  0  0  0  0  0  0
  137.9528   79.3595  221.7769 H   0  0  0  0  0  0  0  0  0  0  0  0
  141.8075   80.2908  223.3418 H   0  0  0  0  0  0  0  0  0  0  0  0
  142.4725   77.9253  223.2165 H   0  0  0  0  0  0  0  0  0  0  0  0
  1  2  2  0
  2  3  1  0
  3  4  1  0
  4  5  1  0
  5  6  2  0
  5  7  1  0
  7  8  1  0
  8  9  1  0
  9 10  1  0
 10 11  1  0
 11 12  1  0
 12 13  1  0
 13 14  1  0
 14 15  1  0
 15 16  1  0
 16 17  1  0
 17 18  1  0
  2 19  1  0
 19 20  2  0
 20 21  1  0
 21 22  2  0
 22 23  1  0
 23 24  2  0
 24 25  1  0
 24 26  1  0
 26 27  2  0
 27 28  1  0
 28 29  2  0
 11  7  1  0
 18 14  1  0
 29 19  1  0
 28 22  1  0
  3 30  1  0
  4 31  1  0
  4 32  1  0
  8 33  1  0
  8 34  1  0
  9 35  1  0
  9 36  1  0
 10 37  1  0
 10 38  1  0
 11 39  1  1
 12 40  1  0
 12 41  1  0
 13 42  1  0
 14 43  1  0
 15 44  1  0
 15 45  1  0
 16 46  1  0
 16 47  1  0
 17 48  1  0
 17 49  1  0
 18 50  1  0
 18 51  1  0
 20 52  1  0
 21 53  1  0
 23 54  1  0
 26 55  1  0
 27 56  1  0
M  END
>  <smiles>  (1) 
O=C(NCC(=O)N1CCC[C@H]1CNC1CCCC1)c1ccc2cc(Cl)ccc2n1

>  <score_type>  (1) 
oracle

>  <origin>  (1) 
autodockgpu

>  <m_score__min__energy>  (1) 
-8.4399999999999995

>  <m_primary>  (1) 
energy

>  <rmsd>  (1) 
6.628232814029261

>  <m_score__min__rmsd>  (1) 
6.628232814029261

>  <meeko>  (1) 
{"free_energy": -5.83, "intermolecular_energy": -7.92, "internal_energy": -4.27, "cluster_size": 3, "cluster_id": 6, "rank_in_cluster": 3}

>  <energy>  (1) 
-8.44

>  <cluster_rmsd>  (1) 
0.0

>  <cluster>  (1) 
1

$$$$

     RDKit          3D

 56 59  0  0  0  0  0  0  0  0999 V2000
  141.9390   79.5350  216.7970 O   0  0  0  0  0  0  0  0  0  0  0  0
  142.3180   79.0470  217.8900 C   0  0  0  0  0  0  0  0  0  0  0  0
  142.2920   79.7840  219.0960 N   0  0  0  0  0  0  0  0  0  0  0  0
  141.8100   81.1600  219.0960 C   0  0  0  0  0  0  0  0  0  0  0  0
  140.8600   81.3570  220.2040 C   0  0  0  0  0  0  0  0  0  0  0  0
  139.7900   82.0040  219.9480 O   0  0  0  0  0  0  0  0  0  0  0  0
  141.0220   80.8980  221.5150 N   0  0  0  0  0  0  0  0  0  0  0  0
  139.9460   80.6150  222.4340 C   0  0  0  0  0  0  0  0  0  0  0  0
  140.5160   80.8270  223.8140 C   0  0  0  0  0  0  0  0  0  0  0  0
  141.9520   81.2470  223.5750 C   0  0  0  0  0  0  0  0  0  0  0  0
  142.2710   80.6040  222.2540 C   0  0  1  0  0  0  0  0  0  0  0  0
  142.4010   79.1190  222.4240 C   0  0  0  0  0  0  0  0  0  0  0  0
  141.9710   78.2930  221.3790 N   0  0  0  0  0  0  0  0  0  0  0  0
  140.6940   77.7030  221.3880 C   0  0  0  0  0  0  0  0  0  0  0  0
  140.3210   77.1390  220.0590 C   0  0  0  0  0  0  0  0  0  0  0  0
  139.7260   75.7930  220.3280 C   0  0  0  0  0  0  0  0  0  0  0  0
  139.5310   75.6770  221.7990 C   0  0  0  0  0  0  0  0  0  0  0  0
  140.7290   76.4740  222.3220 C   0  0  0  0  0  0  0  0  0  0  0  0
  142.8120   77.6590  217.9350 C   0  0  0  0  0  0  0  0  0  0  0  0
  142.8770   76.9230  216.7650 C   0  0  0  0  0  0  0  0  0  0  0  0
  143.3370   75.6120  216.7760 C   0  0  0  0  0  0  0  0  0  0  0  0
  143.7340   75.0200  217.9440 C   0  0  0  0  0  0  0  0  0  0  0  0
  144.1870   73.7310  217.9650 C   0  0  0  0  0  0  0  0  0  0  0  0
  144.5750   73.1690  219.1420 C   0  0  0  0  0  0  0  0  0  0  0  0
  145.1520   71.5120  219.1330 Cl  0  0  0  0  0  0  0  0  0  0  0  0
  144.4990   73.9260  220.2890 C   0  0  0  0  0  0  0  0  0  0  0  0
  144.0450   75.2240  220.2780 C   0  0  0  0  0  0  0  0  0  0  0  0
  143.6510   75.7970  219.0960 C   0  0  0  0  0  0  0  0  0  0  0  0
  143.2010   77.0710  219.0610 N   0  0  0  0  0  0  0  0  0  0  0  0
  142.6140   79.3540  219.9900 H   0  0  0  0  0  0  0  0  0  0  0  0
  142.6617   81.8451  219.2194 H   0  0  0  0  0  0  0  0  0  0  0  0
  141.3026   81.3666  218.1421 H   0  0  0  0  0  0  0  0  0  0  0  0
  139.1029   81.2995  222.2588 H   0  0  0  0  0  0  0  0  0  0  0  0
  139.5646   79.5911  222.3070 H   0  0  0  0  0  0  0  0  0  0  0  0
  139.9639   81.6165  224.3449 H   0  0  0  0  0  0  0  0  0  0  0  0
  140.4442   79.9239  224.4378 H   0  0  0  0  0  0  0  0  0  0  0  0
  142.0399   82.3418  223.5144 H   0  0  0  0  0  0  0  0  0  0  0  0
  142.6346   80.9447  224.3829 H   0  0  0  0  0  0  0  0  0  0  0  0
  143.2008   80.9528  221.7810 H   0  0  0  0  0  0  0  0  0  0  0  0
  143.4660   78.9023  222.5938 H   0  0  0  0  0  0  0  0  0  0  0  0
  141.7232   78.8799  223.2567 H   0  0  0  0  0  0  0  0  0  0  0  0
  142.5730   78.1570  220.5630 H   0  0  0  0  0  0  0  0  0  0  0  0
  139.9863   78.4882  221.6925 H   0  0  0  0  0  0  0  0  0  0  0  0
  139.5853   77.7886  219.5621 H   0  0  0  0  0  0  0  0  0  0  0  0
  141.1953   77.0651  219.3956 H   0  0  0  0  0  0  0  0  0  0  0  0
  138.7589   75.6998  219.8123 H   0  0  0  0  0  0  0  0  0  0  0  0
  140.3886   74.9956  219.9605 H   0  0  0  0  0  0  0  0  0  0  0  0
  138.5784   76.1266  222.1160 H   0  0  0  0  0  0  0  0  0  0  0  0
  139.4821   74.6417  222.1675 H   0  0  0  0  0  0  0  0  0  0  0  0
  140.5939   76.7625  223.3749 H   0  0  0  0  0  0  0  0  0  0  0  0
  141.6807   75.9225  222.3111 H   0  0  0  0  0  0  0  0  0  0  0  0
  142.5611   77.3808  215.8160 H   0  0  0  0  0  0  0  0  0  0  0  0
  143.3826   75.0437  215.8353 H   0  0  0  0  0  0  0  0  0  0  0  0
  144.2379   73.1492  217.0329 H   0  0  0  0  0  0  0  0  0  0  0  0
  144.8111   73.4788  221.2443 H   0  0  0  0  0  0  0  0  0  0  0  0
  143.9981   75.8005  221.2137 H   0  0  0  0  0  0  0  0  0  0  0  0
  1  2  2  0
  2  3  1  0
  3  4  1  0
  4  5  1  0
  5  6  2  0
  5  7  1  0
  7  8  1  0
  8  9  1  0
  9 10  1  0
 10 11  1  0
 11 12  1  0
 12 13  1  0
 13 14  1  0
 14 15  1  0
 15 16  1  0
 16 17  1  0
 17 18  1  0
  2 19  1  0
 19 20  2  0
 20 21  1  0
 21 22  2  0
 22 23  1  0
 23 24  2  0
 24 25  1  0
 24 26  1  0
 26 27  2  0
 27 28  1  0
 28 29  2  0
 11  7  1  0
 18 14  1  0
 29 19  1  0
 28 22  1  0
  3 30  1  0
  4 31  1  0
  4 32  1  0
  8 33  1  0
  8 34  1  0
  9 35  1  0
  9 36  1  0
 10 37  1  0
 10 38  1  0
 11 39  1  6
 12 40  1  0
 12 41  1  0
 13 42  1  0
 14 43  1  0
 15 44  1  0
 15 45  1  0
 16 46  1  0
 16 47  1  0
 17 48  1  0
 17 49  1  0
 18 50  1  0
 18 51  1  0
 20 52  1  0
 21 53  1  0
 23 54  1  0
 26 55  1  0
 27 56  1  0
M  END
>  <smiles>  (2) 
O=C(NCC(=O)N1CCC[C@H]1CNC1CCCC1)c1ccc2cc(Cl)ccc2n1

>  <score_type>  (2) 
oracle

>  <origin>  (2) 
autodockgpu

>  <m_score__min__energy>  (2) 
-8.4399999999999995

>  <m_primary>  (2) 
energy

>  <rmsd>  (2) 
7.880989967607979

>  <m_score__min__rmsd>  (2) 
7.880989967607979

>  <meeko>  (2) 
{"free_energy": -5.85, "intermolecular_energy": -7.93, "internal_energy": -4.2, "cluster_size": 10, "cluster_id": 5, "rank_in_cluster": 10}

>  <energy>  (2) 
-8.44

>  <cluster_rmsd>  (2) 
1.84

>  <cluster>  (2) 
1

$$$$

     RDKit          3D

 56 59  0  0  0  0  0  0  0  0999 V2000
  135.8880   72.3510  221.5980 O   0  0  0  0  0  0  0  0  0  0  0  0
  136.8600   72.6780  222.3230 C   0  0  0  0  0  0  0  0  0  0  0  0
  137.3910   73.9880  222.3280 N   0  0  0  0  0  0  0  0  0  0  0  0
  136.8060   75.0130  221.4710 C   0  0  0  0  0  0  0  0  0  0  0  0
  137.5200   76.2880  221.6570 C   0  0  0  0  0  0  0  0  0  0  0  0
  136.8140   77.3210  221.9050 O   0  0  0  0  0  0  0  0  0  0  0  0
  138.9050   76.4700  221.5870 N   0  0  0  0  0  0  0  0  0  0  0  0
  139.6430   77.4930  222.2880 C   0  0  0  0  0  0  0  0  0  0  0  0
  140.8680   77.7640  221.4510 C   0  0  0  0  0  0  0  0  0  0  0  0
  140.7350   76.8320  220.2630 C   0  0  0  0  0  0  0  0  0  0  0  0
  139.9110   75.7030  220.8180 C   0  0  1  0  0  0  0  0  0  0  0  0
  140.7350   74.8850  221.7690 C   0  0  0  0  0  0  0  0  0  0  0  0
  140.1890   73.6950  222.2630 N   0  0  0  0  0  0  0  0  0  0  0  0
  140.4890   72.4510  221.6770 C   0  0  0  0  0  0  0  0  0  0  0  0
  139.7090   72.2090  220.4290 C   0  0  0  0  0  0  0  0  0  0  0  0
  140.6790   71.6620  219.4300 C   0  0  0  0  0  0  0  0  0  0  0  0
  141.9430   71.3600  220.1550 C   0  0  0  0  0  0  0  0  0  0  0  0
  141.9590   72.4740  221.2050 C   0  0  0  0  0  0  0  0  0  0  0  0
  137.4800   71.6740  223.2050 C   0  0  0  0  0  0  0  0  0  0  0  0
  136.8210   70.4810  223.4450 C   0  0  0  0  0  0  0  0  0  0  0  0
  137.3800   69.5150  224.2720 C   0  0  0  0  0  0  0  0  0  0  0  0
  138.5940   69.7240  224.8700 C   0  0  0  0  0  0  0  0  0  0  0  0
  139.1510   68.7800  225.6860 C   0  0  0  0  0  0  0  0  0  0  0  0
  140.3600   69.0170  226.2660 C   0  0  0  0  0  0  0  0  0  0  0  0
  141.0470   67.7830  227.3080 Cl  0  0  0  0  0  0  0  0  0  0  0  0
  140.9910   70.2120  226.0090 C   0  0  0  0  0  0  0  0  0  0  0  0
  140.4370   71.1670  225.1880 C   0  0  0  0  0  0  0  0  0  0  0  0
  139.2200   70.9380  224.6010 C   0  0  0  0  0  0  0  0  0  0  0  0
  138.6570   71.8620  223.7920 N   0  0  0  0  0  0  0  0  0  0  0  0
  138.1990   74.2330  222.9400 H   0  0  0  0  0  0  0  0  0  0  0  0
  136.8869   74.6995  220.4197 H   0  0  0  0  0  0  0  0  0  0  0  0
  135.7474   75.1479  221.7379 H   0  0  0  0  0  0  0  0  0  0  0  0
  139.0357   78.4051  222.3844 H   0  0  0  0  0  0  0  0  0  0  0  0
  139.9112   77.1727  223.3056 H   0  0  0  0  0  0  0  0  0  0  0  0
  140.8881   78.8131  221.1209 H   0  0  0  0  0  0  0  0  0  0  0  0
  141.8002   77.5957  222.0102 H   0  0  0  0  0  0  0  0  0  0  0  0
  140.2183   77.3263  219.4271 H   0  0  0  0  0  0  0  0  0  0  0  0
  141.7027   76.5057  219.8541 H   0  0  0  0  0  0  0  0  0  0  0  0
  139.5103   75.0081  220.0653 H   0  0  0  0  0  0  0  0  0  0  0  0
  141.6691   74.6243  221.2499 H   0  0  0  0  0  0  0  0  0  0  0  0
  140.8412   75.5251  222.6572 H   0  0  0  0  0  0  0  0  0  0  0  0
  139.6020   73.7180  223.1010 H   0  0  0  0  0  0  0  0  0  0  0  0
  140.2642   71.6842  222.4330 H   0  0  0  0  0  0  0  0  0  0  0  0
  138.9047   71.4825  220.6169 H   0  0  0  0  0  0  0  0  0  0  0  0
  139.2377   73.1339  220.0652 H   0  0  0  0  0  0  0  0  0  0  0  0
  140.2759   70.7434  218.9787 H   0  0  0  0  0  0  0  0  0  0  0  0
  140.8580   72.3893  218.6244 H   0  0  0  0  0  0  0  0  0  0  0  0
  141.9109   70.3653  220.6235 H   0  0  0  0  0  0  0  0  0  0  0  0
  142.8356   71.3329  219.5128 H   0  0  0  0  0  0  0  0  0  0  0  0
  142.6517   72.2441  222.0280 H   0  0  0  0  0  0  0  0  0  0  0  0
  142.3001   73.4494  220.8278 H   0  0  0  0  0  0  0  0  0  0  0  0
  135.8436   70.2956  222.9756 H   0  0  0  0  0  0  0  0  0  0  0  0
  136.8417   68.5721  224.4484 H   0  0  0  0  0  0  0  0  0  0  0  0
  138.6248   67.8324  225.8736 H   0  0  0  0  0  0  0  0  0  0  0  0
  141.9680   70.4101  226.4739 H   0  0  0  0  0  0  0  0  0  0  0  0
  140.9694   72.1117  225.0033 H   0  0  0  0  0  0  0  0  0  0  0  0
  1  2  2  0
  2  3  1  0
  3  4  1  0
  4  5  1  0
  5  6  2  0
  5  7  1  0
  7  8  1  0
  8  9  1  0
  9 10  1  0
 10 11  1  0
 11 12  1  0
 12 13  1  0
 13 14  1  0
 14 15  1  0
 15 16  1  0
 16 17  1  0
 17 18  1  0
  2 19  1  0
 19 20  2  0
 20 21  1  0
 21 22  2  0
 22 23  1  0
 23 24  2  0
 24 25  1  0
 24 26  1  0
 26 27  2  0
 27 28  1  0
 28 29  2  0
 11  7  1  0
 18 14  1  0
 29 19  1  0
 28 22  1  0
  3 30  1  0
  4 31  1  0
  4 32  1  0
  8 33  1  0
  8 34  1  0
  9 35  1  0
  9 36  1  0
 10 37  1  0
 10 38  1  0
 11 39  1  6
 12 40  1  0
 12 41  1  0
 13 42  1  0
 14 43  1  0
 15 44  1  0
 15 45  1  0
 16 46  1  0
 16 47  1  0
 17 48  1  0
 17 49  1  0
 18 50  1  0
 18 51  1  0
 20 52  1  0
 21 53  1  0
 23 54  1  0
 26 55  1  0
 27 56  1  0
M  END
>  <smiles>  (3) 
O=C(NCC(=O)N1CCC[C@H]1CNC1CCCC1)c1ccc2cc(Cl)ccc2n1

>  <score_type>  (3) 
oracle

>  <origin>  (3) 
autodockgpu

>  <m_score__min__energy>  (3) 
-8.4399999999999995

>  <m_primary>  (3) 
energy

>  <rmsd>  (3) 
4.92142074163711

>  <m_score__min__rmsd>  (3) 
4.92142074163711

>  <meeko>  (3) 
{"free_energy": -6.19, "intermolecular_energy": -8.28, "internal_energy": -3.88, "cluster_size": 28, "cluster_id": 1, "rank_in_cluster": 28}

>  <energy>  (3) 
-8.34

>  <cluster_rmsd>  (3) 
1.8

>  <cluster>  (3) 
1

$$$$

     RDKit          3D

 56 59  0  0  0  0  0  0  0  0999 V2000
  142.0810   79.6430  217.7920 O   0  0  0  0  0  0  0  0  0  0  0  0
  141.8700   78.8060  218.7050 C   0  0  0  0  0  0  0  0  0  0  0  0
  141.0320   79.0860  219.8070 N   0  0  0  0  0  0  0  0  0  0  0  0
  140.3750   80.3830  219.9100 C   0  0  0  0  0  0  0  0  0  0  0  0
  141.1250   81.2530  220.8320 C   0  0  0  0  0  0  0  0  0  0  0  0
  141.3320   82.4560  220.4630 O   0  0  0  0  0  0  0  0  0  0  0  0
  141.6310   80.8800  222.0820 N   0  0  0  0  0  0  0  0  0  0  0  0
  141.3080   81.5220  223.3330 C   0  0  0  0  0  0  0  0  0  0  0  0
  142.5020   81.3030  224.2280 C   0  0  0  0  0  0  0  0  0  0  0  0
  143.4790   80.5140  223.3790 C   0  0  0  0  0  0  0  0  0  0  0  0
  142.5750   79.7900  222.4200 C   0  0  1  0  0  0  0  0  0  0  0  0
  141.8320   78.7020  223.1370 C   0  0  0  0  0  0  0  0  0  0  0  0
  141.4510   77.5690  222.4080 N   0  0  0  0  0  0  0  0  0  0  0  0
  140.1770   76.9940  222.5580 C   0  0  0  0  0  0  0  0  0  0  0  0
  139.0800   77.9780  222.3290 C   0  0  0  0  0  0  0  0  0  0  0  0
  138.0710   77.2860  221.4680 C   0  0  0  0  0  0  0  0  0  0  0  0
  138.4530   75.8490  221.4010 C   0  0  0  0  0  0  0  0  0  0  0  0
  139.9800   75.9430  221.4430 C   0  0  0  0  0  0  0  0  0  0  0  0
  142.5140   77.4820  218.6400 C   0  0  0  0  0  0  0  0  0  0  0  0
  143.0980   77.0680  217.4560 C   0  0  0  0  0  0  0  0  0  0  0  0
  143.7110   75.8240  217.3640 C   0  0  0  0  0  0  0  0  0  0  0  0
  143.7500   74.9820  218.4420 C   0  0  0  0  0  0  0  0  0  0  0  0
  144.3500   73.7570  218.3610 C   0  0  0  0  0  0  0  0  0  0  0  0
  144.3720   72.9420  219.4500 C   0  0  0  0  0  0  0  0  0  0  0  0
  145.1520   71.3750  219.3110 Cl  0  0  0  0  0  0  0  0  0  0  0  0
  143.7830   73.3810  220.6140 C   0  0  0  0  0  0  0  0  0  0  0  0
  143.1780   74.6120  220.7040 C   0  0  0  0  0  0  0  0  0  0  0  0
  143.1500   75.4400  219.6120 C   0  0  0  0  0  0  0  0  0  0  0  0
  142.5600   76.6540  219.6780 N   0  0  0  0  0  0  0  0  0  0  0  0
  140.8750   78.3730  220.5520 H   0  0  0  0  0  0  0  0  0  0  0  0
  140.3364   80.8523  218.9159 H   0  0  0  0  0  0  0  0  0  0  0  0
  139.3541   80.2423  220.2946 H   0  0  0  0  0  0  0  0  0  0  0  0
  141.1373   82.5976  223.1786 H   0  0  0  0  0  0  0  0  0  0  0  0
  140.3896   81.1082  223.7750 H   0  0  0  0  0  0  0  0  0  0  0  0
  142.9408   82.2649  224.5318 H   0  0  0  0  0  0  0  0  0  0  0  0
  142.2358   80.7752  225.1557 H   0  0  0  0  0  0  0  0  0  0  0  0
  144.1699   81.1827  222.8446 H   0  0  0  0  0  0  0  0  0  0  0  0
  144.1217   79.8408  223.9653 H   0  0  0  0  0  0  0  0  0  0  0  0
  143.0854   79.3175  221.5678 H   0  0  0  0  0  0  0  0  0  0  0  0
  142.4732   78.3584  223.9621 H   0  0  0  0  0  0  0  0  0  0  0  0
  140.8806   79.1697  223.4304 H   0  0  0  0  0  0  0  0  0  0  0  0
  142.0910   77.1810  221.7100 H   0  0  0  0  0  0  0  0  0  0  0  0
  140.1321   76.5897  223.5800 H   0  0  0  0  0  0  0  0  0  0  0  0
  138.6260   78.2726  223.2867 H   0  0  0  0  0  0  0  0  0  0  0  0
  139.4565   78.8931  221.8485 H   0  0  0  0  0  0  0  0  0  0  0  0
  137.0681   77.3882  221.9081 H   0  0  0  0  0  0  0  0  0  0  0  0
  138.0501   77.7294  220.4616 H   0  0  0  0  0  0  0  0  0  0  0  0
  138.0602   75.2873  222.2613 H   0  0  0  0  0  0  0  0  0  0  0  0
  138.0581   75.3182  220.5222 H   0  0  0  0  0  0  0  0  0  0  0  0
  140.4374   74.9790  221.7104 H   0  0  0  0  0  0  0  0  0  0  0  0
  140.4458   76.2069  220.4821 H   0  0  0  0  0  0  0  0  0  0  0  0
  143.0769   77.7305  216.5781 H   0  0  0  0  0  0  0  0  0  0  0  0
  144.1699   75.5128  216.4140 H   0  0  0  0  0  0  0  0  0  0  0  0
  144.8137   73.4309  217.4183 H   0  0  0  0  0  0  0  0  0  0  0  0
  143.7969   72.7273  221.4986 H   0  0  0  0  0  0  0  0  0  0  0  0
  142.7173   74.9319  221.6503 H   0  0  0  0  0  0  0  0  0  0  0  0
  1  2  2  0
  2  3  1  0
  3  4  1  0
  4  5  1  0
  5  6  2  0
  5  7  1  0
  7  8  1  0
  8  9  1  0
  9 10  1  0
 10 11  1  0
 11 12  1  0
 12 13  1  0
 13 14  1  0
 14 15  1  0
 15 16  1  0
 16 17  1  0
 17 18  1  0
  2 19  1  0
 19 20  2  0
 20 21  1  0
 21 22  2  0
 22 23  1  0
 23 24  2  0
 24 25  1  0
 24 26  1  0
 26 27  2  0
 27 28  1  0
 28 29  2  0
 11  7  1  0
 18 14  1  0
 29 19  1  0
 28 22  1  0
  3 30  1  0
  4 31  1  0
  4 32  1  0
  8 33  1  0
  8 34  1  0
  9 35  1  0
  9 36  1  0
 10 37  1  0
 10 38  1  0
 11 39  1  6
 12 40  1  0
 12 41  1  0
 13 42  1  0
 14 43  1  0
 15 44  1  0
 15 45  1  0
 16 46  1  0
 16 47  1  0
 17 48  1  0
 17 49  1  0
 18 50  1  0
 18 51  1  0
 20 52  1  0
 21 53  1  0
 23 54  1  0
 26 55  1  0
 27 56  1  0
M  END
>  <smiles>  (4) 
O=C(NCC(=O)N1CCC[C@H]1CNC1CCCC1)c1ccc2cc(Cl)ccc2n1

>  <score_type>  (4) 
oracle

>  <origin>  (4) 
autodockgpu

>  <m_score__min__energy>  (4) 
-8.4399999999999995

>  <m_primary>  (4) 
energy

>  <rmsd>  (4) 
7.729893197055913

>  <m_score__min__rmsd>  (4) 
7.729893197055913

>  <meeko>  (4) 
{"free_energy": -6.22, "intermolecular_energy": -8.31, "internal_energy": -4.15, "cluster_size": 10, "cluster_id": 5, "rank_in_cluster": 4}

>  <energy>  (4) 
-8.28

>  <cluster_rmsd>  (4) 
0.33

>  <cluster>  (4) 
1

$$$$

     RDKit          3D

 56 59  0  0  0  0  0  0  0  0999 V2000
  140.0970   72.3930  220.6990 O   0  0  0  0  0  0  0  0  0  0  0  0
  139.9330   72.8350  221.8640 C   0  0  0  0  0  0  0  0  0  0  0  0
  139.7030   74.2050  222.1260 N   0  0  0  0  0  0  0  0  0  0  0  0
  139.6470   75.1570  221.0230 C   0  0  0  0  0  0  0  0  0  0  0  0
  140.4190   76.3640  221.3640 C   0  0  0  0  0  0  0  0  0  0  0  0
  140.4960   76.6800  222.5970 O   0  0  0  0  0  0  0  0  0  0  0  0
  141.0800   77.1980  220.4550 N   0  0  0  0  0  0  0  0  0  0  0  0
  141.5380   78.5360  220.7400 C   0  0  0  0  0  0  0  0  0  0  0  0
  141.5360   79.2620  219.4180 C   0  0  0  0  0  0  0  0  0  0  0  0
  141.0440   78.2360  218.4170 C   0  0  0  0  0  0  0  0  0  0  0  0
  141.4560   76.9340  219.0470 C   0  0  1  0  0  0  0  0  0  0  0  0
  142.9450   76.7700  218.9610 C   0  0  0  0  0  0  0  0  0  0  0  0
  143.5910   76.0430  219.9670 N   0  0  0  0  0  0  0  0  0  0  0  0
  143.9180   74.6850  219.7970 C   0  0  0  0  0  0  0  0  0  0  0  0
  145.1920   74.3190  220.4800 C   0  0  0  0  0  0  0  0  0  0  0  0
  144.9330   73.0230  221.1810 C   0  0  0  0  0  0  0  0  0  0  0  0
  143.6120   72.5200  220.7140 C   0  0  0  0  0  0  0  0  0  0  0  0
  142.8480   73.8310  220.5110 C   0  0  0  0  0  0  0  0  0  0  0  0
  139.9810   71.9070  223.0080 C   0  0  0  0  0  0  0  0  0  0  0  0
  139.5120   70.6150  222.8530 C   0  0  0  0  0  0  0  0  0  0  0  0
  139.5430   69.7170  223.9130 C   0  0  0  0  0  0  0  0  0  0  0  0
  140.0370   70.0930  225.1340 C   0  0  0  0  0  0  0  0  0  0  0  0
  140.0710   69.2180  226.1820 C   0  0  0  0  0  0  0  0  0  0  0  0
  140.5680   69.6210  227.3830 C   0  0  0  0  0  0  0  0  0  0  0  0
  140.5970   68.4710  228.7090 Cl  0  0  0  0  0  0  0  0  0  0  0  0
  141.0260   70.9130  227.5060 C   0  0  0  0  0  0  0  0  0  0  0  0
  140.9960   71.8000  226.4560 C   0  0  0  0  0  0  0  0  0  0  0  0
  140.4970   71.4020  225.2430 C   0  0  0  0  0  0  0  0  0  0  0  0
  140.4570   72.2570  224.1970 N   0  0  0  0  0  0  0  0  0  0  0  0
  139.5710   74.5450  223.1030 H   0  0  0  0  0  0  0  0  0  0  0  0
  140.0725   74.6947  220.1201 H   0  0  0  0  0  0  0  0  0  0  0  0
  138.5993   75.4369  220.8385 H   0  0  0  0  0  0  0  0  0  0  0  0
  140.8582   79.0305  221.4495 H   0  0  0  0  0  0  0  0  0  0  0  0
  142.5381   78.5324  221.1981 H   0  0  0  0  0  0  0  0  0  0  0  0
  140.8579   80.1275  219.4516 H   0  0  0  0  0  0  0  0  0  0  0  0
  142.5298   79.6549  219.1572 H   0  0  0  0  0  0  0  0  0  0  0  0
  139.9519   78.2906  218.2975 H   0  0  0  0  0  0  0  0  0  0  0  0
  141.4543   78.3807  217.4067 H   0  0  0  0  0  0  0  0  0  0  0  0
  141.0103   76.0373  218.5918 H   0  0  0  0  0  0  0  0  0  0  0  0
  143.1630   76.2694  218.0061 H   0  0  0  0  0  0  0  0  0  0  0  0
  143.3376   77.7918  219.0694 H   0  0  0  0  0  0  0  0  0  0  0  0
  143.8830   76.5180  220.8250 H   0  0  0  0  0  0  0  0  0  0  0  0
  143.9919   74.5117  218.7133 H   0  0  0  0  0  0  0  0  0  0  0  0
  145.9991   74.1988  219.7424 H   0  0  0  0  0  0  0  0  0  0  0  0
  145.5066   75.1009  221.1868 H   0  0  0  0  0  0  0  0  0  0  0  0
  145.7210   72.2970  220.9321 H   0  0  0  0  0  0  0  0  0  0  0  0
  144.9307   73.1653  222.2717 H   0  0  0  0  0  0  0  0  0  0  0  0
  143.7047   71.9578  219.7731 H   0  0  0  0  0  0  0  0  0  0  0  0
  143.1262   71.8176  221.4073 H   0  0  0  0  0  0  0  0  0  0  0  0
  141.9584   73.6871  219.8802 H   0  0  0  0  0  0  0  0  0  0  0  0
  142.4550   74.2760  221.4370 H   0  0  0  0  0  0  0  0  0  0  0  0
  139.1102   70.2950  221.8803 H   0  0  0  0  0  0  0  0  0  0  0  0
  139.1668   68.6933  223.7700 H   0  0  0  0  0  0  0  0  0  0  0  0
  139.6979   68.1909  226.0557 H   0  0  0  0  0  0  0  0  0  0  0  0
  141.4284   71.2461  228.4740 H   0  0  0  0  0  0  0  0  0  0  0  0
  141.3711   72.8255  226.5889 H   0  0  0  0  0  0  0  0  0  0  0  0
  1  2  2  0
  2  3  1  0
  3  4  1  0
  4  5  1  0
  5  6  2  0
  5  7  1  0
  7  8  1  0
  8  9  1  0
  9 10  1  0
 10 11  1  0
 11 12  1  0
 12 13  1  0
 13 14  1  0
 14 15  1  0
 15 16  1  0
 16 17  1  0
 17 18  1  0
  2 19  1  0
 19 20  2  0
 20 21  1  0
 21 22  2  0
 22 23  1  0
 23 24  2  0
 24 25  1  0
 24 26  1  0
 26 27  2  0
 27 28  1  0
 28 29  2  0
 11  7  1  0
 18 14  1  0
 29 19  1  0
 28 22  1  0
  3 30  1  0
  4 31  1  0
  4 32  1  0
  8 33  1  0
  8 34  1  0
  9 35  1  0
  9 36  1  0
 10 37  1  0
 10 38  1  0
 11 39  1  6
 12 40  1  0
 12 41  1  0
 13 42  1  0
 14 43  1  0
 15 44  1  0
 15 45  1  0
 16 46  1  0
 16 47  1  0
 17 48  1  0
 17 49  1  0
 18 50  1  0
 18 51  1  0
 20 52  1  0
 21 53  1  0
 23 54  1  0
 26 55  1  0
 27 56  1  0
M  END
>  <smiles>  (5) 
O=C(NCC(=O)N1CCC[C@H]1CNC1CCCC1)c1ccc2cc(Cl)ccc2n1

>  <score_type>  (5) 
oracle

>  <origin>  (5) 
autodockgpu

>  <m_score__min__energy>  (5) 
-8.4399999999999995

>  <m_primary>  (5) 
energy

>  <rmsd>  (5) 
4.385086565079296

>  <m_score__min__rmsd>  (5) 
4.385086565079296

>  <meeko>  (5) 
{"free_energy": -8.08, "intermolecular_energy": -10.17, "internal_energy": -2.5, "cluster_size": 28, "cluster_id": 1, "rank_in_cluster": 11}

>  <energy>  (5) 
-8.22

>  <cluster_rmsd>  (5) 
0.31

>  <cluster>  (5) 
1

$$$$

     RDKit          3D

 56 59  0  0  0  0  0  0  0  0999 V2000
  142.3760   79.8710  217.6720 O   0  0  0  0  0  0  0  0  0  0  0  0
  142.0660   79.1100  218.6230 C   0  0  0  0  0  0  0  0  0  0  0  0
  141.2460   79.5340  219.6930 N   0  0  0  0  0  0  0  0  0  0  0  0
  140.7270   80.8970  219.7150 C   0  0  0  0  0  0  0  0  0  0  0  0
  140.6520   81.3810  221.1040 C   0  0  0  0  0  0  0  0  0  0  0  0
  139.8820   82.3710  221.3370 O   0  0  0  0  0  0  0  0  0  0  0  0
  141.3490   80.8530  222.1960 N   0  0  0  0  0  0  0  0  0  0  0  0
  141.2570   81.3370  223.5520 C   0  0  0  0  0  0  0  0  0  0  0  0
  142.5760   81.0010  224.2000 C   0  0  0  0  0  0  0  0  0  0  0  0
  143.3770   80.3180  223.1090 C   0  0  0  0  0  0  0  0  0  0  0  0
  142.3070   79.7240  222.2350 C   0  0  1  0  0  0  0  0  0  0  0  0
  141.6640   78.5600  222.9300 C   0  0  0  0  0  0  0  0  0  0  0  0
  141.1860   77.5030  222.1470 N   0  0  0  0  0  0  0  0  0  0  0  0
  139.8270   77.4040  221.7970 C   0  0  0  0  0  0  0  0  0  0  0  0
  139.2640   76.0540  222.0860 C   0  0  0  0  0  0  0  0  0  0  0  0
  137.9350   76.2840  222.7340 C   0  0  0  0  0  0  0  0  0  0  0  0
  137.6210   77.7330  222.6030 C   0  0  0  0  0  0  0  0  0  0  0  0
  139.0170   78.3530  222.7080 C   0  0  0  0  0  0  0  0  0  0  0  0
  142.5690   77.7240  218.6390 C   0  0  0  0  0  0  0  0  0  0  0  0
  143.2060   77.2200  217.5200 C   0  0  0  0  0  0  0  0  0  0  0  0
  143.6890   75.9180  217.5050 C   0  0  0  0  0  0  0  0  0  0  0  0
  143.5440   75.1050  218.5970 C   0  0  0  0  0  0  0  0  0  0  0  0
  144.0150   73.8230  218.5910 C   0  0  0  0  0  0  0  0  0  0  0  0
  143.8550   73.0390  219.6920 C   0  0  0  0  0  0  0  0  0  0  0  0
  144.4730   71.3970  219.6520 Cl  0  0  0  0  0  0  0  0  0  0  0  0
  143.2170   73.5690  220.7910 C   0  0  0  0  0  0  0  0  0  0  0  0
  142.7400   74.8590  220.8050 C   0  0  0  0  0  0  0  0  0  0  0  0
  142.8960   75.6540  219.7000 C   0  0  0  0  0  0  0  0  0  0  0  0
  142.4350   76.9250  219.6910 N   0  0  0  0  0  0  0  0  0  0  0  0
  141.0050   78.8820  220.4700 H   0  0  0  0  0  0  0  0  0  0  0  0
  141.3953   81.5514  219.1360 H   0  0  0  0  0  0  0  0  0  0  0  0
  139.7203   80.9090  219.2718 H   0  0  0  0  0  0  0  0  0  0  0  0
  141.0927   82.4246  223.5599 H   0  0  0  0  0  0  0  0  0  0  0  0
  140.4141   80.8774  224.0890 H   0  0  0  0  0  0  0  0  0  0  0  0
  143.0849   81.9148  224.5408 H   0  0  0  0  0  0  0  0  0  0  0  0
  142.4534   80.3633  225.0879 H   0  0  0  0  0  0  0  0  0  0  0  0
  143.9869   81.0439  222.5513 H   0  0  0  0  0  0  0  0  0  0  0  0
  144.0902   79.5735  223.4925 H   0  0  0  0  0  0  0  0  0  0  0  0
  142.6561   79.3580  221.2582 H   0  0  0  0  0  0  0  0  0  0  0  0
  142.4092   78.1416  223.6225 H   0  0  0  0  0  0  0  0  0  0  0  0
  140.7616   78.9847  223.3940 H   0  0  0  0  0  0  0  0  0  0  0  0
  141.8440   76.8160  221.7710 H   0  0  0  0  0  0  0  0  0  0  0  0
  139.7603   77.6336  220.7233 H   0  0  0  0  0  0  0  0  0  0  0  0
  139.1395   75.4853  221.1527 H   0  0  0  0  0  0  0  0  0  0  0  0
  139.9323   75.4731  222.7387 H   0  0  0  0  0  0  0  0  0  0  0  0
  137.1623   75.6848  222.2302 H   0  0  0  0  0  0  0  0  0  0  0  0
  137.9623   75.9866  223.7927 H   0  0  0  0  0  0  0  0  0  0  0  0
  137.1525   77.9575  221.6334 H   0  0  0  0  0  0  0  0  0  0  0  0
  136.9043   78.1079  223.3485 H   0  0  0  0  0  0  0  0  0  0  0  0
  139.0303   79.3858  222.3298 H   0  0  0  0  0  0  0  0  0  0  0  0
  139.4017   78.4353  223.7352 H   0  0  0  0  0  0  0  0  0  0  0  0
  143.3315   77.8572  216.6322 H   0  0  0  0  0  0  0  0  0  0  0  0
  144.1938   75.5356  216.6056 H   0  0  0  0  0  0  0  0  0  0  0  0
  144.5219   73.4255  217.6994 H   0  0  0  0  0  0  0  0  0  0  0  0
  143.0847   72.9417  221.6849 H   0  0  0  0  0  0  0  0  0  0  0  0
  142.2351   75.2511  221.7002 H   0  0  0  0  0  0  0  0  0  0  0  0
  1  2  2  0
  2  3  1  0
  3  4  1  0
  4  5  1  0
  5  6  2  0
  5  7  1  0
  7  8  1  0
  8  9  1  0
  9 10  1  0
 10 11  1  0
 11 12  1  0
 12 13  1  0
 13 14  1  0
 14 15  1  0
 15 16  1  0
 16 17  1  0
 17 18  1  0
  2 19  1  0
 19 20  2  0
 20 21  1  0
 21 22  2  0
 22 23  1  0
 23 24  2  0
 24 25  1  0
 24 26  1  0
 26 27  2  0
 27 28  1  0
 28 29  2  0
 11  7  1  0
 18 14  1  0
 29 19  1  0
 28 22  1  0
  3 30  1  0
  4 31  1  0
  4 32  1  0
  8 33  1  0
  8 34  1  0
  9 35  1  0
  9 36  1  0
 10 37  1  0
 10 38  1  0
 11 39  1  6
 12 40  1  0
 12 41  1  0
 13 42  1  0
 14 43  1  0
 15 44  1  0
 15 45  1  0
 16 46  1  0
 16 47  1  0
 17 48  1  0
 17 49  1  0
 18 50  1  0
 18 51  1  0
 20 52  1  0
 21 53  1  0
 23 54  1  0
 26 55  1  0
 27 56  1  0
M  END
>  <smiles>  (6) 
O=C(NCC(=O)N1CCC[C@H]1CNC1CCCC1)c1ccc2cc(Cl)ccc2n1

>  <score_type>  (6) 
oracle

>  <origin>  (6) 
autodockgpu

>  <m_score__min__energy>  (6) 
-8.4399999999999995

>  <m_primary>  (6) 
energy

>  <rmsd>  (6) 
7.683022566204918

>  <m_score__min__rmsd>  (6) 
7.683022566204918

>  <meeko>  (6) 
{"free_energy": -6.31, "intermolecular_energy": -8.4, "internal_energy": -3.81, "cluster_size": 10, "cluster_id": 5, "rank_in_cluster": 2}

>  <energy>  (6) 
-8.21

>  <cluster_rmsd>  (6) 
1.65

>  <cluster>  (6) 
1

$$$$

     RDKit          3D

 56 59  0  0  0  0  0  0  0  0999 V2000
  142.2420   79.9220  217.7590 O   0  0  0  0  0  0  0  0  0  0  0  0
  141.9560   79.0990  218.6640 C   0  0  0  0  0  0  0  0  0  0  0  0
  141.0970   79.4250  219.7370 N   0  0  0  0  0  0  0  0  0  0  0  0
  140.5070   80.7570  219.8170 C   0  0  0  0  0  0  0  0  0  0  0  0
  140.3710   81.1600  221.2270 C   0  0  0  0  0  0  0  0  0  0  0  0
  139.4140   81.9520  221.5190 O   0  0  0  0  0  0  0  0  0  0  0  0
  141.1950   80.7500  222.2810 N   0  0  0  0  0  0  0  0  0  0  0  0
  141.1350   81.2630  223.6280 C   0  0  0  0  0  0  0  0  0  0  0  0
  142.5250   81.1040  224.1920 C   0  0  0  0  0  0  0  0  0  0  0  0
  143.3280   80.4850  223.0650 C   0  0  0  0  0  0  0  0  0  0  0  0
  142.2810   79.7430  222.2810 C   0  0  1  0  0  0  0  0  0  0  0  0
  141.8280   78.5340  223.0450 C   0  0  0  0  0  0  0  0  0  0  0  0
  141.2950   77.4580  222.3260 N   0  0  0  0  0  0  0  0  0  0  0  0
  139.9230   77.1520  222.3710 C   0  0  0  0  0  0  0  0  0  0  0  0
  139.0920   78.3290  222.7560 C   0  0  0  0  0  0  0  0  0  0  0  0
  137.9240   78.3400  221.8200 C   0  0  0  0  0  0  0  0  0  0  0  0
  137.9450   77.0560  221.0660 C   0  0  0  0  0  0  0  0  0  0  0  0
  139.4510   76.8070  220.9420 C   0  0  0  0  0  0  0  0  0  0  0  0
  142.5300   77.7420  218.6200 C   0  0  0  0  0  0  0  0  0  0  0  0
  143.1170   77.2900  217.4520 C   0  0  0  0  0  0  0  0  0  0  0  0
  143.6660   76.0160  217.3810 C   0  0  0  0  0  0  0  0  0  0  0  0
  143.6350   75.1790  218.4640 C   0  0  0  0  0  0  0  0  0  0  0  0
  144.1710   73.9240  218.4030 C   0  0  0  0  0  0  0  0  0  0  0  0
  144.1250   73.1160  219.4970 C   0  0  0  0  0  0  0  0  0  0  0  0
  144.8230   71.5090  219.3840 Cl  0  0  0  0  0  0  0  0  0  0  0  0
  143.5350   73.5930  220.6450 C   0  0  0  0  0  0  0  0  0  0  0  0
  142.9930   74.8550  220.7150 C   0  0  0  0  0  0  0  0  0  0  0  0
  143.0340   75.6760  219.6170 C   0  0  0  0  0  0  0  0  0  0  0  0
  142.5080   76.9200  219.6630 N   0  0  0  0  0  0  0  0  0  0  0  0
  140.8770   78.7230  220.4760 H   0  0  0  0  0  0  0  0  0  0  0  0
  141.1549   81.4752  219.2931 H   0  0  0  0  0  0  0  0  0  0  0  0
  139.5128   80.7420  219.3466 H   0  0  0  0  0  0  0  0  0  0  0  0
  140.8437   82.3237  223.6211 H   0  0  0  0  0  0  0  0  0  0  0  0
  140.3894   80.7256  224.2325 H   0  0  0  0  0  0  0  0  0  0  0  0
  142.9431   82.0813  224.4751 H   0  0  0  0  0  0  0  0  0  0  0  0
  142.5374   80.4849  225.1012 H   0  0  0  0  0  0  0  0  0  0  0  0
  143.8097   81.2591  222.4496 H   0  0  0  0  0  0  0  0  0  0  0  0
  144.1480   79.8412  223.4160 H   0  0  0  0  0  0  0  0  0  0  0  0
  142.6066   79.3901  221.2913 H   0  0  0  0  0  0  0  0  0  0  0  0
  142.6979   78.1552  223.6016 H   0  0  0  0  0  0  0  0  0  0  0  0
  140.9877   78.8966  223.6552 H   0  0  0  0  0  0  0  0  0  0  0  0
  141.9030   76.9140  221.7080 H   0  0  0  0  0  0  0  0  0  0  0  0
  139.8057   76.3361  223.0994 H   0  0  0  0  0  0  0  0  0  0  0  0
  138.7466   78.2282  223.7955 H   0  0  0  0  0  0  0  0  0  0  0  0
  139.6671   79.2644  222.6901 H   0  0  0  0  0  0  0  0  0  0  0  0
  136.9868   78.4263  222.3894 H   0  0  0  0  0  0  0  0  0  0  0  0
  137.9863   79.1956  221.1315 H   0  0  0  0  0  0  0  0  0  0  0  0
  137.4484   76.2509  221.6274 H   0  0  0  0  0  0  0  0  0  0  0  0
  137.4127   77.0892  220.1040 H   0  0  0  0  0  0  0  0  0  0  0  0
  139.6679   75.7593  220.6864 H   0  0  0  0  0  0  0  0  0  0  0  0
  139.9436   77.3877  220.1482 H   0  0  0  0  0  0  0  0  0  0  0  0
  143.1494   77.9464  216.5699 H   0  0  0  0  0  0  0  0  0  0  0  0
  144.1310   75.6757  216.4440 H   0  0  0  0  0  0  0  0  0  0  0  0
  144.6381   73.5679  217.4730 H   0  0  0  0  0  0  0  0  0  0  0  0
  143.4957   72.9455  221.5334 H   0  0  0  0  0  0  0  0  0  0  0  0
  142.5281   75.2049  221.6485 H   0  0  0  0  0  0  0  0  0  0  0  0
  1  2  2  0
  2  3  1  0
  3  4  1  0
  4  5  1  0
  5  6  2  0
  5  7  1  0
  7  8  1  0
  8  9  1  0
  9 10  1  0
 10 11  1  0
 11 12  1  0
 12 13  1  0
 13 14  1  0
 14 15  1  0
 15 16  1  0
 16 17  1  0
 17 18  1  0
  2 19  1  0
 19 20  2  0
 20 21  1  0
 21 22  2  0
 22 23  1  0
 23 24  2  0
 24 25  1  0
 24 26  1  0
 26 27  2  0
 27 28  1  0
 28 29  2  0
 11  7  1  0
 18 14  1  0
 29 19  1  0
 28 22  1  0
  3 30  1  0
  4 31  1  0
  4 32  1  0
  8 33  1  0
  8 34  1  0
  9 35  1  0
  9 36  1  0
 10 37  1  0
 10 38  1  0
 11 39  1  6
 12 40  1  0
 12 41  1  0
 13 42  1  0
 14 43  1  0
 15 44  1  0
 15 45  1  0
 16 46  1  0
 16 47  1  0
 17 48  1  0
 17 49  1  0
 18 50  1  0
 18 51  1  0
 20 52  1  0
 21 53  1  0
 23 54  1  0
 26 55  1  0
 27 56  1  0
M  END
>  <smiles>  (7) 
O=C(NCC(=O)N1CCC[C@H]1CNC1CCCC1)c1ccc2cc(Cl)ccc2n1

>  <score_type>  (7) 
oracle

>  <origin>  (7) 
autodockgpu

>  <m_score__min__energy>  (7) 
-8.4399999999999995

>  <m_primary>  (7) 
energy

>  <rmsd>  (7) 
7.7164108044549

>  <m_score__min__rmsd>  (7) 
7.7164108044549

>  <meeko>  (7) 
{"free_energy": -5.93, "intermolecular_energy": -8.02, "internal_energy": -4.12, "cluster_size": 10, "cluster_id": 5, "rank_in_cluster": 9}

>  <energy>  (7) 
-8.2

>  <cluster_rmsd>  (7) 
1.62

>  <cluster>  (7) 
1

$$$$

     RDKit          3D

 56 59  0  0  0  0  0  0  0  0999 V2000
  142.2600   80.1580  218.1130 O   0  0  0  0  0  0  0  0  0  0  0  0
  141.8310   79.2010  218.8060 C   0  0  0  0  0  0  0  0  0  0  0  0
  140.7630   79.3500  219.7190 N   0  0  0  0  0  0  0  0  0  0  0  0
  140.1180   80.6480  219.8780 C   0  0  0  0  0  0  0  0  0  0  0  0
  140.6830   81.3480  221.0440 C   0  0  0  0  0  0  0  0  0  0  0  0
  140.5680   82.6180  221.0760 O   0  0  0  0  0  0  0  0  0  0  0  0
  141.3360   80.7450  222.1260 N   0  0  0  0  0  0  0  0  0  0  0  0
  141.3690   81.2670  223.4700 C   0  0  0  0  0  0  0  0  0  0  0  0
  142.6480   80.7530  224.0810 C   0  0  0  0  0  0  0  0  0  0  0  0
  143.2960   79.9350  222.9810 C   0  0  0  0  0  0  0  0  0  0  0  0
  142.1180   79.4880  222.1620 C   0  0  1  0  0  0  0  0  0  0  0  0
  141.3370   78.4470  222.9100 C   0  0  0  0  0  0  0  0  0  0  0  0
  141.1200   77.2110  222.2920 N   0  0  0  0  0  0  0  0  0  0  0  0
  139.8900   76.5390  222.4040 C   0  0  0  0  0  0  0  0  0  0  0  0
  138.7560   77.3360  221.8530 C   0  0  0  0  0  0  0  0  0  0  0  0
  137.9360   76.3870  221.0380 C   0  0  0  0  0  0  0  0  0  0  0  0
  138.4420   75.0130  221.3090 C   0  0  0  0  0  0  0  0  0  0  0  0
  139.9360   75.2800  221.5110 C   0  0  0  0  0  0  0  0  0  0  0  0
  142.4540   77.8720  218.6740 C   0  0  0  0  0  0  0  0  0  0  0  0
  142.9830   77.4870  217.4560 C   0  0  0  0  0  0  0  0  0  0  0  0
  143.5750   76.2400  217.3010 C   0  0  0  0  0  0  0  0  0  0  0  0
  143.6470   75.3650  218.3510 C   0  0  0  0  0  0  0  0  0  0  0  0
  144.2270   74.1360  218.2080 C   0  0  0  0  0  0  0  0  0  0  0  0
  144.2830   73.2880  219.2710 C   0  0  0  0  0  0  0  0  0  0  0  0
  145.0350   71.7170  219.0530 Cl  0  0  0  0  0  0  0  0  0  0  0  0
  143.7480   73.6990  220.4710 C   0  0  0  0  0  0  0  0  0  0  0  0
  143.1630   74.9340  220.6230 C   0  0  0  0  0  0  0  0  0  0  0  0
  143.1020   75.7940  219.5580 C   0  0  0  0  0  0  0  0  0  0  0  0
  142.5310   77.0130  219.6840 N   0  0  0  0  0  0  0  0  0  0  0  0
  140.4270   78.5390  220.2820 H   0  0  0  0  0  0  0  0  0  0  0  0
  140.2850   81.2517  218.9738 H   0  0  0  0  0  0  0  0  0  0  0  0
  139.0389   80.5002  220.0318 H   0  0  0  0  0  0  0  0  0  0  0  0
  141.3677   82.3669  223.4535 H   0  0  0  0  0  0  0  0  0  0  0  0
  140.4888   80.9498  224.0485 H   0  0  0  0  0  0  0  0  0  0  0  0
  143.2991   81.5881  224.3787 H   0  0  0  0  0  0  0  0  0  0  0  0
  142.4673   80.1605  224.9900 H   0  0  0  0  0  0  0  0  0  0  0  0
  143.9843   80.5501  222.3827 H   0  0  0  0  0  0  0  0  0  0  0  0
  143.9055   79.1011  223.3593 H   0  0  0  0  0  0  0  0  0  0  0  0
  142.3719   79.0534  221.1839 H   0  0  0  0  0  0  0  0  0  0  0  0
  141.8724   78.2514  223.8508 H   0  0  0  0  0  0  0  0  0  0  0  0
  140.3313   78.8813  223.0102 H   0  0  0  0  0  0  0  0  0  0  0  0
  141.8510   76.8090  221.6980 H   0  0  0  0  0  0  0  0  0  0  0  0
  139.7397   76.3338  223.4742 H   0  0  0  0  0  0  0  0  0  0  0  0
  138.1523   77.7561  222.6709 H   0  0  0  0  0  0  0  0  0  0  0  0
  139.1166   78.1786  221.2447 H   0  0  0  0  0  0  0  0  0  0  0  0
  136.8773   76.4613  221.3271 H   0  0  0  0  0  0  0  0  0  0  0  0
  138.0166   76.6257  219.9672 H   0  0  0  0  0  0  0  0  0  0  0  0
  137.9832   74.5856  222.2128 H   0  0  0  0  0  0  0  0  0  0  0  0
  138.2170   74.2847  220.5159 H   0  0  0  0  0  0  0  0  0  0  0  0
  140.4314   74.4406  222.0208 H   0  0  0  0  0  0  0  0  0  0  0  0
  140.5053   75.4053  220.5781 H   0  0  0  0  0  0  0  0  0  0  0  0
  142.9345   78.1761  216.5999 H   0  0  0  0  0  0  0  0  0  0  0  0
  143.9904   75.9526  216.3238 H   0  0  0  0  0  0  0  0  0  0  0  0
  144.6470   73.8332  217.2375 H   0  0  0  0  0  0  0  0  0  0  0  0
  143.7898   73.0188  221.3344 H   0  0  0  0  0  0  0  0  0  0  0  0
  142.7453   75.2307  221.5964 H   0  0  0  0  0  0  0  0  0  0  0  0
  1  2  2  0
  2  3  1  0
  3  4  1  0
  4  5  1  0
  5  6  2  0
  5  7  1  0
  7  8  1  0
  8  9  1  0
  9 10  1  0
 10 11  1  0
 11 12  1  0
 12 13  1  0
 13 14  1  0
 14 15  1  0
 15 16  1  0
 16 17  1  0
 17 18  1  0
  2 19  1  0
 19 20  2  0
 20 21  1  0
 21 22  2  0
 22 23  1  0
 23 24  2  0
 24 25  1  0
 24 26  1  0
 26 27  2  0
 27 28  1  0
 28 29  2  0
 11  7  1  0
 18 14  1  0
 29 19  1  0
 28 22  1  0
  3 30  1  0
  4 31  1  0
  4 32  1  0
  8 33  1  0
  8 34  1  0
  9 35  1  0
  9 36  1  0
 10 37  1  0
 10 38  1  0
 11 39  1  6
 12 40  1  0
 12 41  1  0
 13 42  1  0
 14 43  1  0
 15 44  1  0
 15 45  1  0
 16 46  1  0
 16 47  1  0
 17 48  1  0
 17 49  1  0
 18 50  1  0
 18 51  1  0
 20 52  1  0
 21 53  1  0
 23 54  1  0
 26 55  1  0
 27 56  1  0
M  END
>  <smiles>  (8) 
O=C(NCC(=O)N1CCC[C@H]1CNC1CCCC1)c1ccc2cc(Cl)ccc2n1

>  <score_type>  (8) 
oracle

>  <origin>  (8) 
autodockgpu

>  <m_score__min__energy>  (8) 
-8.4399999999999995

>  <m_primary>  (8) 
energy

>  <rmsd>  (8) 
7.874861843734321

>  <m_score__min__rmsd>  (8) 
7.874861843734321

>  <meeko>  (8) 
{"free_energy": -6.19, "intermolecular_energy": -8.28, "internal_energy": -3.6, "cluster_size": 10, "cluster_id": 5, "rank_in_cluster": 5}

>  <energy>  (8) 
-8.19

>  <cluster_rmsd>  (8) 
1.93

>  <cluster>  (8) 
1

$$$$

     RDKit          3D

 56 59  0  0  0  0  0  0  0  0999 V2000
  138.4420   72.0600  221.0490 O   0  0  0  0  0  0  0  0  0  0  0  0
  139.2360   72.3900  221.9650 C   0  0  0  0  0  0  0  0  0  0  0  0
  139.9420   73.6140  221.9480 N   0  0  0  0  0  0  0  0  0  0  0  0
  139.7570   74.5440  220.8410 C   0  0  0  0  0  0  0  0  0  0  0  0
  140.9500   75.3970  220.6980 C   0  0  0  0  0  0  0  0  0  0  0  0
  141.7810   75.4050  221.6660 O   0  0  0  0  0  0  0  0  0  0  0  0
  141.2570   76.2010  219.5950 N   0  0  0  0  0  0  0  0  0  0  0  0
  140.5050   76.2420  218.3640 C   0  0  0  0  0  0  0  0  0  0  0  0
  141.4880   76.6420  217.2930 C   0  0  0  0  0  0  0  0  0  0  0  0
  142.8060   76.8030  218.0240 C   0  0  0  0  0  0  0  0  0  0  0  0
  142.3710   77.1590  219.4180 C   0  0  1  0  0  0  0  0  0  0  0  0
  141.8240   78.5560  219.4450 C   0  0  0  0  0  0  0  0  0  0  0  0
  141.2780   79.0310  220.6430 N   0  0  0  0  0  0  0  0  0  0  0  0
  142.0150   79.0200  221.8410 C   0  0  0  0  0  0  0  0  0  0  0  0
  142.3360   80.3940  222.3220 C   0  0  0  0  0  0  0  0  0  0  0  0
  142.0580   80.3980  223.7920 C   0  0  0  0  0  0  0  0  0  0  0  0
  141.8160   78.9880  224.2030 C   0  0  0  0  0  0  0  0  0  0  0  0
  141.1270   78.4270  222.9560 C   0  0  0  0  0  0  0  0  0  0  0  0
  139.4520   71.4790  223.1030 C   0  0  0  0  0  0  0  0  0  0  0  0
  139.0040   70.1720  223.0220 C   0  0  0  0  0  0  0  0  0  0  0  0
  139.1920   69.2910  224.0790 C   0  0  0  0  0  0  0  0  0  0  0  0
  139.8220   69.6960  225.2240 C   0  0  0  0  0  0  0  0  0  0  0  0
  140.0110   68.8370  226.2690 C   0  0  0  0  0  0  0  0  0  0  0  0
  140.6410   69.2690  227.3950 C   0  0  0  0  0  0  0  0  0  0  0  0
  140.8670   68.1390  228.7190 Cl  0  0  0  0  0  0  0  0  0  0  0  0
  141.0750   70.5740  227.4470 C   0  0  0  0  0  0  0  0  0  0  0  0
  140.8900   71.4460  226.3990 C   0  0  0  0  0  0  0  0  0  0  0  0
  140.2550   71.0190  225.2620 C   0  0  0  0  0  0  0  0  0  0  0  0
  140.0620   71.8580  224.2200 N   0  0  0  0  0  0  0  0  0  0  0  0
  140.5970   73.8620  222.7210 H   0  0  0  0  0  0  0  0  0  0  0  0
  139.6000   73.9776  219.9112 H   0  0  0  0  0  0  0  0  0  0  0  0
  138.8808   75.1776  221.0429 H   0  0  0  0  0  0  0  0  0  0  0  0
  140.0793   75.2522  218.1424 H   0  0  0  0  0  0  0  0  0  0  0  0
  139.6655   76.9500  218.4267 H   0  0  0  0  0  0  0  0  0  0  0  0
  141.5638   75.8594  216.5237 H   0  0  0  0  0  0  0  0  0  0  0  0
  141.1852   77.5621  216.7717 H   0  0  0  0  0  0  0  0  0  0  0  0
  143.3811   75.8654  218.0155 H   0  0  0  0  0  0  0  0  0  0  0  0
  143.4681   77.5542  217.5687 H   0  0  0  0  0  0  0  0  0  0  0  0
  143.1662   77.1140  220.1767 H   0  0  0  0  0  0  0  0  0  0  0  0
  142.6462   79.2332  219.1706 H   0  0  0  0  0  0  0  0  0  0  0  0
  140.9717   78.5276  218.7502 H   0  0  0  0  0  0  0  0  0  0  0  0
  140.3430   79.4470  220.6410 H   0  0  0  0  0  0  0  0  0  0  0  0
  142.9353   78.4521  221.6398 H   0  0  0  0  0  0  0  0  0  0  0  0
  143.3946   80.6262  222.1336 H   0  0  0  0  0  0  0  0  0  0  0  0
  141.7350   81.1522  221.7986 H   0  0  0  0  0  0  0  0  0  0  0  0
  142.9223   80.8054  224.3370 H   0  0  0  0  0  0  0  0  0  0  0  0
  141.1832   81.0247  224.0202 H   0  0  0  0  0  0  0  0  0  0  0  0
  142.7590   78.4621  224.4131 H   0  0  0  0  0  0  0  0  0  0  0  0
  141.2300   78.8823  225.1279 H   0  0  0  0  0  0  0  0  0  0  0  0
  141.1440   77.3272  222.9447 H   0  0  0  0  0  0  0  0  0  0  0  0
  140.0604   78.6826  222.8720 H   0  0  0  0  0  0  0  0  0  0  0  0
  138.4935   69.8273  222.1106 H   0  0  0  0  0  0  0  0  0  0  0  0
  138.8302   68.2556  223.9947 H   0  0  0  0  0  0  0  0  0  0  0  0
  139.6548   67.7985  226.2005 H   0  0  0  0  0  0  0  0  0  0  0  0
  141.5852   70.9307  228.3539 H   0  0  0  0  0  0  0  0  0  0  0  0
  141.2506   72.4826  226.4734 H   0  0  0  0  0  0  0  0  0  0  0  0
  1  2  2  0
  2  3  1  0
  3  4  1  0
  4  5  1  0
  5  6  2  0
  5  7  1  0
  7  8  1  0
  8  9  1  0
  9 10  1  0
 10 11  1  0
 11 12  1  0
 12 13  1  0
 13 14  1  0
 14 15  1  0
 15 16  1  0
 16 17  1  0
 17 18  1  0
  2 19  1  0
 19 20  2  0
 20 21  1  0
 21 22  2  0
 22 23  1  0
 23 24  2  0
 24 25  1  0
 24 26  1  0
 26 27  2  0
 27 28  1  0
 28 29  2  0
 11  7  1  0
 18 14  1  0
 29 19  1  0
 28 22  1  0
  3 30  1  0
  4 31  1  0
  4 32  1  0
  8 33  1  0
  8 34  1  0
  9 35  1  0
  9 36  1  0
 10 37  1  0
 10 38  1  0
 11 39  1  1
 12 40  1  0
 12 41  1  0
 13 42  1  0
 14 43  1  0
 15 44  1  0
 15 45  1  0
 16 46  1  0
 16 47  1  0
 17 48  1  0
 17 49  1  0
 18 50  1  0
 18 51  1  0
 20 52  1  0
 21 53  1  0
 23 54  1  0
 26 55  1  0
 27 56  1  0
M  END
>  <smiles>  (9) 
O=C(NCC(=O)N1CCC[C@H]1CNC1CCCC1)c1ccc2cc(Cl)ccc2n1

>  <score_type>  (9) 
oracle

>  <origin>  (9) 
autodockgpu

>  <m_score__min__energy>  (9) 
-8.4399999999999995

>  <m_primary>  (9) 
energy

>  <rmsd>  (9) 
2.256188192035254

>  <m_score__min__rmsd>  (9) 
2.256188192035254

>  <meeko>  (9) 
{"free_energy": -7.39, "intermolecular_energy": -9.47, "internal_energy": -2.3, "cluster_size": 28, "cluster_id": 1, "rank_in_cluster": 24}

>  <energy>  (9) 
-8.11

>  <cluster_rmsd>  (9) 
1.58

>  <cluster>  (9) 
1

$$$$

     RDKit          3D

 56 59  0  0  0  0  0  0  0  0999 V2000
  141.7310   79.7790  217.9620 O   0  0  0  0  0  0  0  0  0  0  0  0
  141.5610   78.9150  218.8590 C   0  0  0  0  0  0  0  0  0  0  0  0
  140.7040   79.1300  219.9610 N   0  0  0  0  0  0  0  0  0  0  0  0
  139.9780   80.3890  220.0830 C   0  0  0  0  0  0  0  0  0  0  0  0
  140.5520   81.1940  221.1750 C   0  0  0  0  0  0  0  0  0  0  0  0
  140.3720   82.4560  221.1280 O   0  0  0  0  0  0  0  0  0  0  0  0
  141.2790   80.7000  222.2640 N   0  0  0  0  0  0  0  0  0  0  0  0
  141.2710   81.2660  223.5910 C   0  0  0  0  0  0  0  0  0  0  0  0
  142.6050   80.9110  224.1980 C   0  0  0  0  0  0  0  0  0  0  0  0
  143.3250   80.1330  223.1150 C   0  0  0  0  0  0  0  0  0  0  0  0
  142.1920   79.5360  222.3270 C   0  0  1  0  0  0  0  0  0  0  0  0
  141.5360   78.4420  223.1180 C   0  0  0  0  0  0  0  0  0  0  0  0
  141.1610   77.2730  222.4460 N   0  0  0  0  0  0  0  0  0  0  0  0
  139.8300   76.8190  222.4520 C   0  0  0  0  0  0  0  0  0  0  0  0
  138.8480   77.9400  222.5030 C   0  0  0  0  0  0  0  0  0  0  0  0
  137.7860   77.6110  221.5010 C   0  0  0  0  0  0  0  0  0  0  0  0
  138.0150   76.2110  221.0520 C   0  0  0  0  0  0  0  0  0  0  0  0
  139.5430   76.1270  221.1020 C   0  0  0  0  0  0  0  0  0  0  0  0
  142.2750   77.6290  218.7730 C   0  0  0  0  0  0  0  0  0  0  0  0
  142.9550   77.3050  217.6130 C   0  0  0  0  0  0  0  0  0  0  0  0
  143.6360   76.0990  217.5030 C   0  0  0  0  0  0  0  0  0  0  0  0
  143.6470   75.2050  218.5390 C   0  0  0  0  0  0  0  0  0  0  0  0
  144.3130   74.0160  218.4390 C   0  0  0  0  0  0  0  0  0  0  0  0
  144.3060   73.1470  219.4860 C   0  0  0  0  0  0  0  0  0  0  0  0
  145.1720   71.6290  219.3250 Cl  0  0  0  0  0  0  0  0  0  0  0  0
  143.6200   73.4970  220.6280 C   0  0  0  0  0  0  0  0  0  0  0  0
  142.9470   74.6910  220.7360 C   0  0  0  0  0  0  0  0  0  0  0  0
  142.9490   75.5720  219.6860 C   0  0  0  0  0  0  0  0  0  0  0  0
  142.2940   76.7510  219.7700 N   0  0  0  0  0  0  0  0  0  0  0  0
  140.5820   78.3970  220.6920 H   0  0  0  0  0  0  0  0  0  0  0  0
  140.0550   80.9476  219.1385 H   0  0  0  0  0  0  0  0  0  0  0  0
  138.9214   80.1782  220.3048 H   0  0  0  0  0  0  0  0  0  0  0  0
  141.1518   82.3584  223.5407 H   0  0  0  0  0  0  0  0  0  0  0  0
  140.4364   80.8760  224.1921 H   0  0  0  0  0  0  0  0  0  0  0  0
  143.1659   81.8200  224.4608 H   0  0  0  0  0  0  0  0  0  0  0  0
  142.4988   80.3311  225.1267 H   0  0  0  0  0  0  0  0  0  0  0  0
  143.9363   80.7989  222.4882 H   0  0  0  0  0  0  0  0  0  0  0  0
  144.0252   79.3820  223.5096 H   0  0  0  0  0  0  0  0  0  0  0  0
  142.4801   79.1000  221.3591 H   0  0  0  0  0  0  0  0  0  0  0  0
  142.2368   78.1500  223.9140 H   0  0  0  0  0  0  0  0  0  0  0  0
  140.5845   78.8809  223.4526 H   0  0  0  0  0  0  0  0  0  0  0  0
  141.8550   76.7650  221.8910 H   0  0  0  0  0  0  0  0  0  0  0  0
  139.7238   76.1667  223.3313 H   0  0  0  0  0  0  0  0  0  0  0  0
  138.4113   78.0188  223.5095 H   0  0  0  0  0  0  0  0  0  0  0  0
  139.3278   78.9037  222.2767 H   0  0  0  0  0  0  0  0  0  0  0  0
  136.7921   77.6994  221.9640 H   0  0  0  0  0  0  0  0  0  0  0  0
  137.8293   78.3041  220.6479 H   0  0  0  0  0  0  0  0  0  0  0  0
  137.5491   75.4870  221.7367 H   0  0  0  0  0  0  0  0  0  0  0  0
  137.5826   75.9767  220.0681 H   0  0  0  0  0  0  0  0  0  0  0  0
  139.8908   75.0834  221.1006 H   0  0  0  0  0  0  0  0  0  0  0  0
  140.0515   76.5839  220.2402 H   0  0  0  0  0  0  0  0  0  0  0  0
  142.9567   78.0098  216.7684 H   0  0  0  0  0  0  0  0  0  0  0  0
  144.1723   75.8601  216.5728 H   0  0  0  0  0  0  0  0  0  0  0  0
  144.8531   73.7622  217.5149 H   0  0  0  0  0  0  0  0  0  0  0  0
  143.6103   72.8003  221.4792 H   0  0  0  0  0  0  0  0  0  0  0  0
  142.4084   74.9386  221.6626 H   0  0  0  0  0  0  0  0  0  0  0  0
  1  2  2  0
  2  3  1  0
  3  4  1  0
  4  5  1  0
  5  6  2  0
  5  7  1  0
  7  8  1  0
  8  9  1  0
  9 10  1  0
 10 11  1  0
 11 12  1  0
 12 13  1  0
 13 14  1  0
 14 15  1  0
 15 16  1  0
 16 17  1  0
 17 18  1  0
  2 19  1  0
 19 20  2  0
 20 21  1  0
 21 22  2  0
 22 23  1  0
 23 24  2  0
 24 25  1  0
 24 26  1  0
 26 27  2  0
 27 28  1  0
 28 29  2  0
 11  7  1  0
 18 14  1  0
 29 19  1  0
 28 22  1  0
  3 30  1  0
  4 31  1  0
  4 32  1  0
  8 33  1  0
  8 34  1  0
  9 35  1  0
  9 36  1  0
 10 37  1  0
 10 38  1  0
 11 39  1  6
 12 40  1  0
 12 41  1  0
 13 42  1  0
 14 43  1  0
 15 44  1  0
 15 45  1  0
 16 46  1  0
 16 47  1  0
 17 48  1  0
 17 49  1  0
 18 50  1  0
 18 51  1  0
 20 52  1  0
 21 53  1  0
 23 54  1  0
 26 55  1  0
 27 56  1  0
M  END
>  <smiles>  (10) 
O=C(NCC(=O)N1CCC[C@H]1CNC1CCCC1)c1ccc2cc(Cl)ccc2n1

>  <score_type>  (10) 
oracle

>  <origin>  (10) 
autodockgpu

>  <m_score__min__energy>  (10) 
-8.4399999999999995

>  <m_primary>  (10) 
energy

>  <rmsd>  (10) 
7.678618552431301

>  <m_score__min__rmsd>  (10) 
7.678618552431301

>  <meeko>  (10) 
{"free_energy": -6.11, "intermolecular_energy": -8.2, "internal_energy": -4.17, "cluster_size": 10, "cluster_id": 5, "rank_in_cluster": 7}

>  <energy>  (10) 
-8.11

>  <cluster_rmsd>  (10) 
0.77

>  <cluster>  (10) 
1

$$$$

     RDKit          3D

 56 59  0  0  0  0  0  0  0  0999 V2000
  136.0810   72.2500  221.0540 O   0  0  0  0  0  0  0  0  0  0  0  0
  136.9230   72.6230  221.9080 C   0  0  0  0  0  0  0  0  0  0  0  0
  137.2970   73.9780  222.0570 N   0  0  0  0  0  0  0  0  0  0  0  0
  136.6980   74.9960  221.2020 C   0  0  0  0  0  0  0  0  0  0  0  0
  137.1710   76.3310  221.6070 C   0  0  0  0  0  0  0  0  0  0  0  0
  136.2860   77.2280  221.8080 O   0  0  0  0  0  0  0  0  0  0  0  0
  138.5060   76.7070  221.7940 N   0  0  0  0  0  0  0  0  0  0  0  0
  138.9710   77.6540  222.7770 C   0  0  0  0  0  0  0  0  0  0  0  0
  140.2340   78.2500  222.2100 C   0  0  0  0  0  0  0  0  0  0  0  0
  140.4090   77.5720  220.8660 C   0  0  0  0  0  0  0  0  0  0  0  0
  139.7140   76.2540  221.0670 C   0  0  1  0  0  0  0  0  0  0  0  0
  140.5280   75.3760  221.9710 C   0  0  0  0  0  0  0  0  0  0  0  0
  140.0710   74.0770  222.2200 N   0  0  0  0  0  0  0  0  0  0  0  0
  140.3190   73.0260  221.3190 C   0  0  0  0  0  0  0  0  0  0  0  0
  141.0100   73.4900  220.0820 C   0  0  0  0  0  0  0  0  0  0  0  0
  142.0960   72.4980  219.8120 C   0  0  0  0  0  0  0  0  0  0  0  0
  141.8870   71.3460  220.7310 C   0  0  0  0  0  0  0  0  0  0  0  0
  141.3240   72.0510  221.9690 C   0  0  0  0  0  0  0  0  0  0  0  0
  137.5520   71.6270  222.7930 C   0  0  0  0  0  0  0  0  0  0  0  0
  137.0030   70.3610  222.8890 C   0  0  0  0  0  0  0  0  0  0  0  0
  137.5730   69.4000  223.7150 C   0  0  0  0  0  0  0  0  0  0  0  0
  138.6900   69.6870  224.4540 C   0  0  0  0  0  0  0  0  0  0  0  0
  139.2570   68.7500  225.2690 C   0  0  0  0  0  0  0  0  0  0  0  0
  140.3670   69.0640  225.9910 C   0  0  0  0  0  0  0  0  0  0  0  0
  141.0710   67.8370  227.0290 Cl  0  0  0  0  0  0  0  0  0  0  0  0
  140.8900   70.3320  225.8750 C   0  0  0  0  0  0  0  0  0  0  0  0
  140.3260   71.2820  225.0560 C   0  0  0  0  0  0  0  0  0  0  0  0
  139.2070   70.9730  224.3260 C   0  0  0  0  0  0  0  0  0  0  0  0
  138.6350   71.8900  223.5150 N   0  0  0  0  0  0  0  0  0  0  0  0
  138.0000   74.2610  222.7740 H   0  0  0  0  0  0  0  0  0  0  0  0
  136.9843   74.8091  220.1565 H   0  0  0  0  0  0  0  0  0  0  0  0
  135.6032   74.9539  221.3004 H   0  0  0  0  0  0  0  0  0  0  0  0
  138.2171   78.4383  222.9396 H   0  0  0  0  0  0  0  0  0  0  0  0
  139.1525   77.1717  223.7488 H   0  0  0  0  0  0  0  0  0  0  0  0
  140.1276   79.3377  222.0850 H   0  0  0  0  0  0  0  0  0  0  0  0
  141.1002   78.0956  222.8702 H   0  0  0  0  0  0  0  0  0  0  0  0
  139.9319   78.1535  220.0634 H   0  0  0  0  0  0  0  0  0  0  0  0
  141.4615   77.4685  220.5633 H   0  0  0  0  0  0  0  0  0  0  0  0
  139.5325   75.6808  220.1459 H   0  0  0  0  0  0  0  0  0  0  0  0
  141.5299   75.2892  221.5254 H   0  0  0  0  0  0  0  0  0  0  0  0
  140.4788   75.8741  222.9505 H   0  0  0  0  0  0  0  0  0  0  0  0
  139.5930   73.8700  223.1020 H   0  0  0  0  0  0  0  0  0  0  0  0
  139.3422   72.5815  221.0774 H   0  0  0  0  0  0  0  0  0  0  0  0
  140.3035   73.5204  219.2394 H   0  0  0  0  0  0  0  0  0  0  0  0
  141.4166   74.5044  220.2072 H   0  0  0  0  0  0  0  0  0  0  0  0
  142.0440   72.1591  218.7668 H   0  0  0  0  0  0  0  0  0  0  0  0
  143.0848   72.9510  219.9766 H   0  0  0  0  0  0  0  0  0  0  0  0
  141.1677   70.6246  220.3160 H   0  0  0  0  0  0  0  0  0  0  0  0
  142.7924   70.7515  220.9228 H   0  0  0  0  0  0  0  0  0  0  0  0
  140.8213   71.3427  222.6439 H   0  0  0  0  0  0  0  0  0  0  0  0
  142.0834   72.5356  222.6003 H   0  0  0  0  0  0  0  0  0  0  0  0
  136.1048   70.1122  222.3047 H   0  0  0  0  0  0  0  0  0  0  0  0
  137.1225   68.3983  223.7761 H   0  0  0  0  0  0  0  0  0  0  0  0
  138.8179   67.7441  225.3419 H   0  0  0  0  0  0  0  0  0  0  0  0
  141.7870   70.5936  226.4555 H   0  0  0  0  0  0  0  0  0  0  0  0
  140.7707   72.2857  224.9868 H   0  0  0  0  0  0  0  0  0  0  0  0
  1  2  2  0
  2  3  1  0
  3  4  1  0
  4  5  1  0
  5  6  2  0
  5  7  1  0
  7  8  1  0
  8  9  1  0
  9 10  1  0
 10 11  1  0
 11 12  1  0
 12 13  1  0
 13 14  1  0
 14 15  1  0
 15 16  1  0
 16 17  1  0
 17 18  1  0
  2 19  1  0
 19 20  2  0
 20 21  1  0
 21 22  2  0
 22 23  1  0
 23 24  2  0
 24 25  1  0
 24 26  1  0
 26 27  2  0
 27 28  1  0
 28 29  2  0
 11  7  1  0
 18 14  1  0
 29 19  1  0
 28 22  1  0
  3 30  1  0
  4 31  1  0
  4 32  1  0
  8 33  1  0
  8 34  1  0
  9 35  1  0
  9 36  1  0
 10 37  1  0
 10 38  1  0
 11 39  1  6
 12 40  1  0
 12 41  1  0
 13 42  1  0
 14 43  1  0
 15 44  1  0
 15 45  1  0
 16 46  1  0
 16 47  1  0
 17 48  1  0
 17 49  1  0
 18 50  1  0
 18 51  1  0
 20 52  1  0
 21 53  1  0
 23 54  1  0
 26 55  1  0
 27 56  1  0
M  END
>  <smiles>  (11) 
O=C(NCC(=O)N1CCC[C@H]1CNC1CCCC1)c1ccc2cc(Cl)ccc2n1

>  <score_type>  (11) 
oracle

>  <origin>  (11) 
autodockgpu

>  <m_score__min__energy>  (11) 
-8.4399999999999995

>  <m_primary>  (11) 
energy

>  <rmsd>  (11) 
4.884887495536446

>  <m_score__min__rmsd>  (11) 
4.884887495536446

>  <meeko>  (11) 
{"free_energy": -6.23, "intermolecular_energy": -8.32, "internal_energy": -3.82, "cluster_size": 3, "cluster_id": 7, "rank_in_cluster": 2}

>  <energy>  (11) 
-8.08

>  <cluster_rmsd>  (11) 
0.58

>  <cluster>  (11) 
1

$$$$

     RDKit          3D

 56 59  0  0  0  0  0  0  0  0999 V2000
  142.5390   79.5620  217.7600 O   0  0  0  0  0  0  0  0  0  0  0  0
  142.1650   78.7000  218.5940 C   0  0  0  0  0  0  0  0  0  0  0  0
  141.2040   78.9810  219.5910 N   0  0  0  0  0  0  0  0  0  0  0  0
  140.6090   80.3090  219.6730 C   0  0  0  0  0  0  0  0  0  0  0  0
  141.3660   81.1390  220.6260 C   0  0  0  0  0  0  0  0  0  0  0  0
  141.7770   82.2740  220.2150 O   0  0  0  0  0  0  0  0  0  0  0  0
  141.6750   80.7960  221.9470 N   0  0  0  0  0  0  0  0  0  0  0  0
  141.1400   81.4440  223.1190 C   0  0  0  0  0  0  0  0  0  0  0  0
  142.1800   81.2710  224.1980 C   0  0  0  0  0  0  0  0  0  0  0  0
  143.3010   80.5000  223.5290 C   0  0  0  0  0  0  0  0  0  0  0  0
  142.5820   79.7390  222.4500 C   0  0  1  0  0  0  0  0  0  0  0  0
  141.7630   78.6380  223.0570 C   0  0  0  0  0  0  0  0  0  0  0  0
  141.4270   77.5430  222.2530 N   0  0  0  0  0  0  0  0  0  0  0  0
  140.1840   76.8960  222.3760 C   0  0  0  0  0  0  0  0  0  0  0  0
  139.1090   77.5840  221.6040 C   0  0  0  0  0  0  0  0  0  0  0  0
  138.3470   76.5070  220.8970 C   0  0  0  0  0  0  0  0  0  0  0  0
  138.8140   75.2020  221.4390 C   0  0  0  0  0  0  0  0  0  0  0  0
  140.2890   75.5040  221.7170 C   0  0  0  0  0  0  0  0  0  0  0  0
  142.7410   77.3440  218.5450 C   0  0  0  0  0  0  0  0  0  0  0  0
  143.2290   76.8560  217.3470 C   0  0  0  0  0  0  0  0  0  0  0  0
  143.7760   75.5810  217.2690 C   0  0  0  0  0  0  0  0  0  0  0  0
  143.8440   74.7810  218.3780 C   0  0  0  0  0  0  0  0  0  0  0  0
  144.3790   73.5260  218.3120 C   0  0  0  0  0  0  0  0  0  0  0  0
  144.4320   72.7530  219.4310 C   0  0  0  0  0  0  0  0  0  0  0  0
  145.1280   71.1460  219.3110 Cl  0  0  0  0  0  0  0  0  0  0  0  0
  143.9390   73.2670  220.6090 C   0  0  0  0  0  0  0  0  0  0  0  0
  143.3990   74.5290  220.6850 C   0  0  0  0  0  0  0  0  0  0  0  0
  143.3410   75.3130  219.5620 C   0  0  0  0  0  0  0  0  0  0  0  0
  142.8130   76.5560  219.6120 N   0  0  0  0  0  0  0  0  0  0  0  0
  140.9130   78.2460  220.2720 H   0  0  0  0  0  0  0  0  0  0  0  0
  140.6319   80.7810  218.6797 H   0  0  0  0  0  0  0  0  0  0  0  0
  139.5683   80.2192  220.0177 H   0  0  0  0  0  0  0  0  0  0  0  0
  140.9683   82.5123  222.9208 H   0  0  0  0  0  0  0  0  0  0  0  0
  140.1741   81.0091  223.4155 H   0  0  0  0  0  0  0  0  0  0  0  0
  142.5386   82.2488  224.5520 H   0  0  0  0  0  0  0  0  0  0  0  0
  141.7826   80.7478  225.0802 H   0  0  0  0  0  0  0  0  0  0  0  0
  144.0507   81.1817  223.1011 H   0  0  0  0  0  0  0  0  0  0  0  0
  143.8588   79.8526  224.2216 H   0  0  0  0  0  0  0  0  0  0  0  0
  143.2353   79.2720  221.6983 H   0  0  0  0  0  0  0  0  0  0  0  0
  142.3262   78.2495  223.9183 H   0  0  0  0  0  0  0  0  0  0  0  0
  140.7979   79.1123  223.2884 H   0  0  0  0  0  0  0  0  0  0  0  0
  142.0740   77.2360  221.5220 H   0  0  0  0  0  0  0  0  0  0  0  0
  139.9438   76.8758  223.4493 H   0  0  0  0  0  0  0  0  0  0  0  0
  138.4449   78.1367  222.2848 H   0  0  0  0  0  0  0  0  0  0  0  0
  139.5289   78.3105  220.8927 H   0  0  0  0  0  0  0  0  0  0  0  0
  137.2691   76.6264  221.0810 H   0  0  0  0  0  0  0  0  0  0  0  0
  138.5168   76.5598  219.8115 H   0  0  0  0  0  0  0  0  0  0  0  0
  138.2772   74.9334  222.3608 H   0  0  0  0  0  0  0  0  0  0  0  0
  138.6479   74.3486  220.7651 H   0  0  0  0  0  0  0  0  0  0  0  0
  140.7308   74.7650  222.4016 H   0  0  0  0  0  0  0  0  0  0  0  0
  140.9348   75.4705  220.8272 H   0  0  0  0  0  0  0  0  0  0  0  0
  143.1837   77.4843  216.4452 H   0  0  0  0  0  0  0  0  0  0  0  0
  144.1583   75.2106  216.3064 H   0  0  0  0  0  0  0  0  0  0  0  0
  144.7660   73.1410  217.3570 H   0  0  0  0  0  0  0  0  0  0  0  0
  143.9783   72.6487  221.5179 H   0  0  0  0  0  0  0  0  0  0  0  0
  143.0149   74.9083  221.6434 H   0  0  0  0  0  0  0  0  0  0  0  0
  1  2  2  0
  2  3  1  0
  3  4  1  0
  4  5  1  0
  5  6  2  0
  5  7  1  0
  7  8  1  0
  8  9  1  0
  9 10  1  0
 10 11  1  0
 11 12  1  0
 12 13  1  0
 13 14  1  0
 14 15  1  0
 15 16  1  0
 16 17  1  0
 17 18  1  0
  2 19  1  0
 19 20  2  0
 20 21  1  0
 21 22  2  0
 22 23  1  0
 23 24  2  0
 24 25  1  0
 24 26  1  0
 26 27  2  0
 27 28  1  0
 28 29  2  0
 11  7  1  0
 18 14  1  0
 29 19  1  0
 28 22  1  0
  3 30  1  0
  4 31  1  0
  4 32  1  0
  8 33  1  0
  8 34  1  0
  9 35  1  0
  9 36  1  0
 10 37  1  0
 10 38  1  0
 11 39  1  6
 12 40  1  0
 12 41  1  0
 13 42  1  0
 14 43  1  0
 15 44  1  0
 15 45  1  0
 16 46  1  0
 16 47  1  0
 17 48  1  0
 17 49  1  0
 18 50  1  0
 18 51  1  0
 20 52  1  0
 21 53  1  0
 23 54  1  0
 26 55  1  0
 27 56  1  0
M  END
>  <smiles>  (12) 
O=C(NCC(=O)N1CCC[C@H]1CNC1CCCC1)c1ccc2cc(Cl)ccc2n1

>  <score_type>  (12) 
oracle

>  <origin>  (12) 
autodockgpu

>  <m_score__min__energy>  (12) 
-8.4399999999999995

>  <m_primary>  (12) 
energy

>  <rmsd>  (12) 
7.732683233789068

>  <m_score__min__rmsd>  (12) 
7.732683233789068

>  <meeko>  (12) 
{"free_energy": -6.28, "intermolecular_energy": -8.37, "internal_energy": -4.04, "cluster_size": 10, "cluster_id": 5, "rank_in_cluster": 3}

>  <energy>  (12) 
-8.03

>  <cluster_rmsd>  (12) 
0.6

>  <cluster>  (12) 
1

$$$$

     RDKit          3D

 56 59  0  0  0  0  0  0  0  0999 V2000
  140.1090   72.1780  220.7040 O   0  0  0  0  0  0  0  0  0  0  0  0
  139.9490   72.6220  221.8690 C   0  0  0  0  0  0  0  0  0  0  0  0
  139.7170   73.9920  222.1300 N   0  0  0  0  0  0  0  0  0  0  0  0
  139.6560   74.9420  221.0250 C   0  0  0  0  0  0  0  0  0  0  0  0
  140.3380   76.1920  221.4010 C   0  0  0  0  0  0  0  0  0  0  0  0
  140.4020   76.4720  222.6440 O   0  0  0  0  0  0  0  0  0  0  0  0
  140.9280   77.1020  220.5170 N   0  0  0  0  0  0  0  0  0  0  0  0
  141.1300   78.5050  220.7850 C   0  0  0  0  0  0  0  0  0  0  0  0
  141.1220   79.1870  219.4390 C   0  0  0  0  0  0  0  0  0  0  0  0
  140.8960   78.0670  218.4430 C   0  0  0  0  0  0  0  0  0  0  0  0
  141.4620   76.8700  219.1560 C   0  0  1  0  0  0  0  0  0  0  0  0
  142.9600   76.9570  219.1960 C   0  0  0  0  0  0  0  0  0  0  0  0
  143.6930   75.7650  219.1920 N   0  0  0  0  0  0  0  0  0  0  0  0
  143.3840   74.7100  220.0680 C   0  0  0  0  0  0  0  0  0  0  0  0
  142.5210   73.6750  219.4280 C   0  0  0  0  0  0  0  0  0  0  0  0
  143.1010   72.3510  219.8130 C   0  0  0  0  0  0  0  0  0  0  0  0
  144.1320   72.6020  220.8550 C   0  0  0  0  0  0  0  0  0  0  0  0
  144.6880   73.9560  220.4060 C   0  0  0  0  0  0  0  0  0  0  0  0
  140.0030   71.6960  223.0140 C   0  0  0  0  0  0  0  0  0  0  0  0
  139.5230   70.4070  222.8670 C   0  0  0  0  0  0  0  0  0  0  0  0
  139.5590   69.5110  223.9290 C   0  0  0  0  0  0  0  0  0  0  0  0
  140.0690   69.8850  225.1430 C   0  0  0  0  0  0  0  0  0  0  0  0
  140.1090   69.0130  226.1930 C   0  0  0  0  0  0  0  0  0  0  0  0
  140.6220   69.4140  227.3870 C   0  0  0  0  0  0  0  0  0  0  0  0
  140.6580   68.2670  228.7150 Cl  0  0  0  0  0  0  0  0  0  0  0  0
  141.0920   70.7030  227.5020 C   0  0  0  0  0  0  0  0  0  0  0  0
  141.0570   71.5880  226.4510 C   0  0  0  0  0  0  0  0  0  0  0  0
  140.5400   71.1920  225.2440 C   0  0  0  0  0  0  0  0  0  0  0  0
  140.4950   72.0450  224.1970 N   0  0  0  0  0  0  0  0  0  0  0  0
  139.5880   74.3340  223.1060 H   0  0  0  0  0  0  0  0  0  0  0  0
  140.1499   74.5080  220.1431 H   0  0  0  0  0  0  0  0  0  0  0  0
  138.6032   75.1596  220.7919 H   0  0  0  0  0  0  0  0  0  0  0  0
  140.3182   78.8949  221.4166 H   0  0  0  0  0  0  0  0  0  0  0  0
  142.0731   78.6824  221.3227 H   0  0  0  0  0  0  0  0  0  0  0  0
  140.3091   79.9260  219.3831 H   0  0  0  0  0  0  0  0  0  0  0  0
  142.0553   79.7358  219.2443 H   0  0  0  0  0  0  0  0  0  0  0  0
  139.8245   77.9334  218.2330 H   0  0  0  0  0  0  0  0  0  0  0  0
  141.3628   78.2528  217.4644 H   0  0  0  0  0  0  0  0  0  0  0  0
  141.2115   75.8995  218.7028 H   0  0  0  0  0  0  0  0  0  0  0  0
  143.2764   77.5371  218.3166 H   0  0  0  0  0  0  0  0  0  0  0  0
  143.1802   77.4085  220.1746 H   0  0  0  0  0  0  0  0  0  0  0  0
  144.4350   75.6320  218.4990 H   0  0  0  0  0  0  0  0  0  0  0  0
  142.8781   75.1593  220.9353 H   0  0  0  0  0  0  0  0  0  0  0  0
  141.4877   73.7599  219.7955 H   0  0  0  0  0  0  0  0  0  0  0  0
  142.4923   73.7973  218.3352 H   0  0  0  0  0  0  0  0  0  0  0  0
  142.3123   71.6977  220.2144 H   0  0  0  0  0  0  0  0  0  0  0  0
  143.5461   71.8535  218.9387 H   0  0  0  0  0  0  0  0  0  0  0  0
  143.6845   72.6629  221.8580 H   0  0  0  0  0  0  0  0  0  0  0  0
  144.8898   71.8092  220.9394 H   0  0  0  0  0  0  0  0  0  0  0  0
  145.2444   74.4528  221.2145 H   0  0  0  0  0  0  0  0  0  0  0  0
  145.4079   73.8989  219.5762 H   0  0  0  0  0  0  0  0  0  0  0  0
  139.1084   70.0877  221.8994 H   0  0  0  0  0  0  0  0  0  0  0  0
  139.1734   68.4899  223.7924 H   0  0  0  0  0  0  0  0  0  0  0  0
  139.7271   67.9884  226.0734 H   0  0  0  0  0  0  0  0  0  0  0  0
  141.5083   71.0347  228.4646 H   0  0  0  0  0  0  0  0  0  0  0  0
  141.4424   72.6105  226.5775 H   0  0  0  0  0  0  0  0  0  0  0  0
  1  2  2  0
  2  3  1  0
  3  4  1  0
  4  5  1  0
  5  6  2  0
  5  7  1  0
  7  8  1  0
  8  9  1  0
  9 10  1  0
 10 11  1  0
 11 12  1  0
 12 13  1  0
 13 14  1  0
 14 15  1  0
 15 16  1  0
 16 17  1  0
 17 18  1  0
  2 19  1  0
 19 20  2  0
 20 21  1  0
 21 22  2  0
 22 23  1  0
 23 24  2  0
 24 25  1  0
 24 26  1  0
 26 27  2  0
 27 28  1  0
 28 29  2  0
 11  7  1  0
 18 14  1  0
 29 19  1  0
 28 22  1  0
  3 30  1  0
  4 31  1  0
  4 32  1  0
  8 33  1  0
  8 34  1  0
  9 35  1  0
  9 36  1  0
 10 37  1  0
 10 38  1  0
 11 39  1  6
 12 40  1  0
 12 41  1  0
 13 42  1  0
 14 43  1  0
 15 44  1  0
 15 45  1  0
 16 46  1  0
 16 47  1  0
 17 48  1  0
 17 49  1  0
 18 50  1  0
 18 51  1  0
 20 52  1  0
 21 53  1  0
 23 54  1  0
 26 55  1  0
 27 56  1  0
M  END
>  <smiles>  (13) 
O=C(NCC(=O)N1CCC[C@H]1CNC1CCCC1)c1ccc2cc(Cl)ccc2n1

>  <score_type>  (13) 
oracle

>  <origin>  (13) 
autodockgpu

>  <m_score__min__energy>  (13) 
-8.4399999999999995

>  <m_primary>  (13) 
energy

>  <rmsd>  (13) 
4.286544520039125

>  <m_score__min__rmsd>  (13) 
4.286544520039125

>  <meeko>  (13) 
{"free_energy": -7.8, "intermolecular_energy": -9.89, "internal_energy": -2.59, "cluster_size": 28, "cluster_id": 1, "rank_in_cluster": 20}

>  <energy>  (13) 
-7.98

>  <cluster_rmsd>  (13) 
1.63

>  <cluster>  (13) 
1

$$$$

     RDKit          3D

 56 59  0  0  0  0  0  0  0  0999 V2000
  139.9880   72.0890  220.6950 O   0  0  0  0  0  0  0  0  0  0  0  0
  139.8670   72.5400  221.8610 C   0  0  0  0  0  0  0  0  0  0  0  0
  139.6580   73.9130  222.1220 N   0  0  0  0  0  0  0  0  0  0  0  0
  139.5730   74.8590  221.0160 C   0  0  0  0  0  0  0  0  0  0  0  0
  140.1890   76.1390  221.4030 C   0  0  0  0  0  0  0  0  0  0  0  0
  139.9880   76.5480  222.5950 O   0  0  0  0  0  0  0  0  0  0  0  0
  140.9780   76.9520  220.5820 N   0  0  0  0  0  0  0  0  0  0  0  0
  141.5230   78.2330  220.9600 C   0  0  0  0  0  0  0  0  0  0  0  0
  141.6740   79.0120  219.6770 C   0  0  0  0  0  0  0  0  0  0  0  0
  141.1710   78.0740  218.5980 C   0  0  0  0  0  0  0  0  0  0  0  0
  141.4290   76.7170  219.1910 C   0  0  1  0  0  0  0  0  0  0  0  0
  142.9020   76.4300  219.1950 C   0  0  0  0  0  0  0  0  0  0  0  0
  143.3970   75.5240  220.1400 N   0  0  0  0  0  0  0  0  0  0  0  0
  144.0620   74.3470  219.7510 C   0  0  0  0  0  0  0  0  0  0  0  0
  145.3600   74.1680  220.4640 C   0  0  0  0  0  0  0  0  0  0  0  0
  145.4090   72.7330  220.8870 C   0  0  0  0  0  0  0  0  0  0  0  0
  144.2770   72.0330  220.2200 C   0  0  0  0  0  0  0  0  0  0  0  0
  143.2160   73.1360  220.1970 C   0  0  0  0  0  0  0  0  0  0  0  0
  139.9450   71.6180  223.0090 C   0  0  0  0  0  0  0  0  0  0  0  0
  139.4970   70.3170  222.8670 C   0  0  0  0  0  0  0  0  0  0  0  0
  139.5570   69.4260  223.9300 C   0  0  0  0  0  0  0  0  0  0  0  0
  140.0590   69.8160  225.1430 C   0  0  0  0  0  0  0  0  0  0  0  0
  140.1220   68.9470  226.1940 C   0  0  0  0  0  0  0  0  0  0  0  0
  140.6260   69.3640  227.3870 C   0  0  0  0  0  0  0  0  0  0  0  0
  140.6920   68.2220  228.7180 Cl  0  0  0  0  0  0  0  0  0  0  0  0
  141.0650   70.6640  227.4980 C   0  0  0  0  0  0  0  0  0  0  0  0
  141.0060   71.5460  226.4440 C   0  0  0  0  0  0  0  0  0  0  0  0
  140.4980   71.1340  225.2400 C   0  0  0  0  0  0  0  0  0  0  0  0
  140.4300   71.9830  224.1900 N   0  0  0  0  0  0  0  0  0  0  0  0
  139.5620   74.2610  223.1010 H   0  0  0  0  0  0  0  0  0  0  0  0
  140.1023   74.4485  220.1435 H   0  0  0  0  0  0  0  0  0  0  0  0
  138.5156   75.0275  220.7640 H   0  0  0  0  0  0  0  0  0  0  0  0
  140.8377   78.7533  221.6453 H   0  0  0  0  0  0  0  0  0  0  0  0
  142.4848   78.1247  221.4827 H   0  0  0  0  0  0  0  0  0  0  0  0
  141.0685   79.9299  219.7066 H   0  0  0  0  0  0  0  0  0  0  0  0
  142.7124   79.3300  219.5021 H   0  0  0  0  0  0  0  0  0  0  0  0
  140.0982   78.2264  218.4088 H   0  0  0  0  0  0  0  0  0  0  0  0
  141.6621   78.2252  217.6254 H   0  0  0  0  0  0  0  0  0  0  0  0
  140.9437   75.8814  218.6654 H   0  0  0  0  0  0  0  0  0  0  0  0
  143.1605   76.0376  218.2004 H   0  0  0  0  0  0  0  0  0  0  0  0
  143.3657   77.3893  219.4684 H   0  0  0  0  0  0  0  0  0  0  0  0
  143.3250   75.7450  221.1370 H   0  0  0  0  0  0  0  0  0  0  0  0
  144.2190   74.4179  218.6646 H   0  0  0  0  0  0  0  0  0  0  0  0
  146.1996   74.3961  219.7909 H   0  0  0  0  0  0  0  0  0  0  0  0
  145.4394   74.8438  221.3283 H   0  0  0  0  0  0  0  0  0  0  0  0
  146.3638   72.2825  220.5783 H   0  0  0  0  0  0  0  0  0  0  0  0
  145.3280   72.6476  221.9807 H   0  0  0  0  0  0  0  0  0  0  0  0
  144.5455   71.7109  219.2031 H   0  0  0  0  0  0  0  0  0  0  0  0
  143.9570   71.1098  220.7253 H   0  0  0  0  0  0  0  0  0  0  0  0
  142.4169   72.9132  219.4747 H   0  0  0  0  0  0  0  0  0  0  0  0
  142.6879   73.2779  221.1515 H   0  0  0  0  0  0  0  0  0  0  0  0
  139.0887   69.9847  221.9012 H   0  0  0  0  0  0  0  0  0  0  0  0
  139.1973   68.3951  223.7964 H   0  0  0  0  0  0  0  0  0  0  0  0
  139.7663   67.9127  226.0767 H   0  0  0  0  0  0  0  0  0  0  0  0
  141.4755   71.0080  228.4588 H   0  0  0  0  0  0  0  0  0  0  0  0
  141.3653   72.5783  226.5673 H   0  0  0  0  0  0  0  0  0  0  0  0
  1  2  2  0
  2  3  1  0
  3  4  1  0
  4  5  1  0
  5  6  2  0
  5  7  1  0
  7  8  1  0
  8  9  1  0
  9 10  1  0
 10 11  1  0
 11 12  1  0
 12 13  1  0
 13 14  1  0
 14 15  1  0
 15 16  1  0
 16 17  1  0
 17 18  1  0
  2 19  1  0
 19 20  2  0
 20 21  1  0
 21 22  2  0
 22 23  1  0
 23 24  2  0
 24 25  1  0
 24 26  1  0
 26 27  2  0
 27 28  1  0
 28 29  2  0
 11  7  1  0
 18 14  1  0
 29 19  1  0
 28 22  1  0
  3 30  1  0
  4 31  1  0
  4 32  1  0
  8 33  1  0
  8 34  1  0
  9 35  1  0
  9 36  1  0
 10 37  1  0
 10 38  1  0
 11 39  1  6
 12 40  1  0
 12 41  1  0
 13 42  1  0
 14 43  1  0
 15 44  1  0
 15 45  1  0
 16 46  1  0
 16 47  1  0
 17 48  1  0
 17 49  1  0
 18 50  1  0
 18 51  1  0
 20 52  1  0
 21 53  1  0
 23 54  1  0
 26 55  1  0
 27 56  1  0
M  END
>  <smiles>  (14) 
O=C(NCC(=O)N1CCC[C@H]1CNC1CCCC1)c1ccc2cc(Cl)ccc2n1

>  <score_type>  (14) 
oracle

>  <origin>  (14) 
autodockgpu

>  <m_score__min__energy>  (14) 
-8.4399999999999995

>  <m_primary>  (14) 
energy

>  <rmsd>  (14) 
4.546999757827277

>  <m_score__min__rmsd>  (14) 
4.546999757827277

>  <meeko>  (14) 
{"free_energy": -8.28, "intermolecular_energy": -10.36, "internal_energy": -2.31, "cluster_size": 28, "cluster_id": 1, "rank_in_cluster": 4}

>  <energy>  (14) 
-7.96

>  <cluster_rmsd>  (14) 
1.93

>  <cluster>  (14) 
1

$$$$

     RDKit          3D

 56 59  0  0  0  0  0  0  0  0999 V2000
  139.9950   72.3320  220.6740 O   0  0  0  0  0  0  0  0  0  0  0  0
  139.8750   72.7780  221.8420 C   0  0  0  0  0  0  0  0  0  0  0  0
  139.6700   74.1500  222.1100 N   0  0  0  0  0  0  0  0  0  0  0  0
  139.5880   75.1010  221.0080 C   0  0  0  0  0  0  0  0  0  0  0  0
  140.4780   76.2460  221.2670 C   0  0  0  0  0  0  0  0  0  0  0  0
  140.7110   76.5410  222.4860 O   0  0  0  0  0  0  0  0  0  0  0  0
  141.0960   77.0410  220.2950 N   0  0  0  0  0  0  0  0  0  0  0  0
  141.4210   78.4380  220.4510 C   0  0  0  0  0  0  0  0  0  0  0  0
  141.4050   79.0220  219.0610 C   0  0  0  0  0  0  0  0  0  0  0  0
  141.0450   77.8580  218.1590 C   0  0  0  0  0  0  0  0  0  0  0  0
  141.5470   76.6710  218.9340 C   0  0  1  0  0  0  0  0  0  0  0  0
  143.0470   76.6380  218.9080 C   0  0  0  0  0  0  0  0  0  0  0  0
  143.7120   75.9370  219.9210 N   0  0  0  0  0  0  0  0  0  0  0  0
  144.0630   74.5840  219.7690 C   0  0  0  0  0  0  0  0  0  0  0  0
  145.3340   74.2450  220.4720 C   0  0  0  0  0  0  0  0  0  0  0  0
  145.0870   72.9520  221.1820 C   0  0  0  0  0  0  0  0  0  0  0  0
  143.7810   72.4220  220.7030 C   0  0  0  0  0  0  0  0  0  0  0  0
  142.9980   73.7190  220.4770 C   0  0  0  0  0  0  0  0  0  0  0  0
  139.9510   71.8500  222.9850 C   0  0  0  0  0  0  0  0  0  0  0  0
  139.5200   70.5450  222.8300 C   0  0  0  0  0  0  0  0  0  0  0  0
  139.5770   69.6480  223.8900 C   0  0  0  0  0  0  0  0  0  0  0  0
  140.0610   70.0370  225.1100 C   0  0  0  0  0  0  0  0  0  0  0  0
  140.1210   69.1630  226.1580 C   0  0  0  0  0  0  0  0  0  0  0  0
  140.6060   69.5790  227.3590 C   0  0  0  0  0  0  0  0  0  0  0  0
  140.6700   68.4300  228.6840 Cl  0  0  0  0  0  0  0  0  0  0  0  0
  141.0280   70.8840  227.4830 C   0  0  0  0  0  0  0  0  0  0  0  0
  140.9710   71.7700  226.4330 C   0  0  0  0  0  0  0  0  0  0  0  0
  140.4820   71.3590  225.2200 C   0  0  0  0  0  0  0  0  0  0  0  0
  140.4170   72.2140  224.1750 N   0  0  0  0  0  0  0  0  0  0  0  0
  139.5750   74.4940  223.0900 H   0  0  0  0  0  0  0  0  0  0  0  0
  139.8936   74.6052  220.0748 H   0  0  0  0  0  0  0  0  0  0  0  0
  138.5525   75.4605  220.9160 H   0  0  0  0  0  0  0  0  0  0  0  0
  140.6728   78.9368  221.0845 H   0  0  0  0  0  0  0  0  0  0  0  0
  142.3990   78.5741  220.9358 H   0  0  0  0  0  0  0  0  0  0  0  0
  140.6517   79.8199  218.9841 H   0  0  0  0  0  0  0  0  0  0  0  0
  142.3691   79.4765  218.7893 H   0  0  0  0  0  0  0  0  0  0  0  0
  139.9577   77.7987  218.0029 H   0  0  0  0  0  0  0  0  0  0  0  0
  141.4790   77.9364  217.1513 H   0  0  0  0  0  0  0  0  0  0  0  0
  141.2004   75.6951  218.5632 H   0  0  0  0  0  0  0  0  0  0  0  0
  143.3465   76.1884  217.9498 H   0  0  0  0  0  0  0  0  0  0  0  0
  143.3448   77.6857  219.0616 H   0  0  0  0  0  0  0  0  0  0  0  0
  144.0000   76.4310  220.7700 H   0  0  0  0  0  0  0  0  0  0  0  0
  144.1539   74.4020  218.6880 H   0  0  0  0  0  0  0  0  0  0  0  0
  146.1525   74.1309  219.7460 H   0  0  0  0  0  0  0  0  0  0  0  0
  145.6267   75.0386  221.1753 H   0  0  0  0  0  0  0  0  0  0  0  0
  145.8903   72.2370  220.9508 H   0  0  0  0  0  0  0  0  0  0  0  0
  145.0675   73.1052  222.2711 H   0  0  0  0  0  0  0  0  0  0  0  0
  143.8954   71.8523  219.7690 H   0  0  0  0  0  0  0  0  0  0  0  0
  143.2978   71.7181  221.3966 H   0  0  0  0  0  0  0  0  0  0  0  0
  142.1194   73.5544  219.8359 H   0  0  0  0  0  0  0  0  0  0  0  0
  142.5856   74.1662  221.3935 H   0  0  0  0  0  0  0  0  0  0  0  0
  139.1279   70.2135  221.8572 H   0  0  0  0  0  0  0  0  0  0  0  0
  139.2294   68.6142  223.7471 H   0  0  0  0  0  0  0  0  0  0  0  0
  139.7781   68.1255  226.0312 H   0  0  0  0  0  0  0  0  0  0  0  0
  141.4223   71.2278  228.4506 H   0  0  0  0  0  0  0  0  0  0  0  0
  141.3168   72.8057  226.5660 H   0  0  0  0  0  0  0  0  0  0  0  0
  1  2  2  0
  2  3  1  0
  3  4  1  0
  4  5  1  0
  5  6  2  0
  5  7  1  0
  7  8  1  0
  8  9  1  0
  9 10  1  0
 10 11  1  0
 11 12  1  0
 12 13  1  0
 13 14  1  0
 14 15  1  0
 15 16  1  0
 16 17  1  0
 17 18  1  0
  2 19  1  0
 19 20  2  0
 20 21  1  0
 21 22  2  0
 22 23  1  0
 23 24  2  0
 24 25  1  0
 24 26  1  0
 26 27  2  0
 27 28  1  0
 28 29  2  0
 11  7  1  0
 18 14  1  0
 29 19  1  0
 28 22  1  0
  3 30  1  0
  4 31  1  0
  4 32  1  0
  8 33  1  0
  8 34  1  0
  9 35  1  0
  9 36  1  0
 10 37  1  0
 10 38  1  0
 11 39  1  6
 12 40  1  0
 12 41  1  0
 13 42  1  0
 14 43  1  0
 15 44  1  0
 15 45  1  0
 16 46  1  0
 16 47  1  0
 17 48  1  0
 17 49  1  0
 18 50  1  0
 18 51  1  0
 20 52  1  0
 21 53  1  0
 23 54  1  0
 26 55  1  0
 27 56  1  0
M  END
>  <smiles>  (15) 
O=C(NCC(=O)N1CCC[C@H]1CNC1CCCC1)c1ccc2cc(Cl)ccc2n1

>  <score_type>  (15) 
oracle

>  <origin>  (15) 
autodockgpu

>  <m_score__min__energy>  (15) 
-8.4399999999999995

>  <m_primary>  (15) 
energy

>  <rmsd>  (15) 
4.3940576152983715

>  <m_score__min__rmsd>  (15) 
4.3940576152983715

>  <meeko>  (15) 
{"free_energy": -8.03, "intermolecular_energy": -10.12, "internal_energy": -2.46, "cluster_size": 28, "cluster_id": 1, "rank_in_cluster": 12}

>  <energy>  (15) 
-7.96

>  <cluster_rmsd>  (15) 
0.6

>  <cluster>  (15) 
1

$$$$

     RDKit          3D

 56 59  0  0  0  0  0  0  0  0999 V2000
  142.4600   79.9700  217.5600 O   0  0  0  0  0  0  0  0  0  0  0  0
  142.0940   79.1140  218.4040 C   0  0  0  0  0  0  0  0  0  0  0  0
  141.1600   79.4090  219.4220 N   0  0  0  0  0  0  0  0  0  0  0  0
  140.5840   80.7460  219.5150 C   0  0  0  0  0  0  0  0  0  0  0  0
  141.2640   81.5120  220.5730 C   0  0  0  0  0  0  0  0  0  0  0  0
  141.5600   82.7260  220.3180 O   0  0  0  0  0  0  0  0  0  0  0  0
  141.6150   81.0290  221.8390 N   0  0  0  0  0  0  0  0  0  0  0  0
  141.1620   81.5810  223.0920 C   0  0  0  0  0  0  0  0  0  0  0  0
  142.2400   81.2600  224.0970 C   0  0  0  0  0  0  0  0  0  0  0  0
  143.2940   80.5150  223.3040 C   0  0  0  0  0  0  0  0  0  0  0  0
  142.4950   79.8920  222.1930 C   0  0  1  0  0  0  0  0  0  0  0  0
  141.6550   78.7710  222.7310 C   0  0  0  0  0  0  0  0  0  0  0  0
  141.4340   77.6580  221.9120 N   0  0  0  0  0  0  0  0  0  0  0  0
  140.1340   77.2470  221.5660 C   0  0  0  0  0  0  0  0  0  0  0  0
  139.9770   75.7650  221.6080 C   0  0  0  0  0  0  0  0  0  0  0  0
  138.6790   75.5010  222.3030 C   0  0  0  0  0  0  0  0  0  0  0  0
  137.9760   76.8050  222.4440 C   0  0  0  0  0  0  0  0  0  0  0  0
  139.1550   77.7600  222.6440 C   0  0  0  0  0  0  0  0  0  0  0  0
  142.6510   77.7510  218.3460 C   0  0  0  0  0  0  0  0  0  0  0  0
  143.1290   77.2640  217.1430 C   0  0  0  0  0  0  0  0  0  0  0  0
  143.6590   75.9820  217.0560 C   0  0  0  0  0  0  0  0  0  0  0  0
  143.7180   75.1740  218.1590 C   0  0  0  0  0  0  0  0  0  0  0  0
  144.2370   73.9120  218.0840 C   0  0  0  0  0  0  0  0  0  0  0  0
  144.2820   73.1320  219.1980 C   0  0  0  0  0  0  0  0  0  0  0  0
  144.9550   71.5170  219.0660 Cl  0  0  0  0  0  0  0  0  0  0  0  0
  143.8000   73.6450  220.3810 C   0  0  0  0  0  0  0  0  0  0  0  0
  143.2760   74.9140  220.4660 C   0  0  0  0  0  0  0  0  0  0  0  0
  143.2260   75.7060  219.3480 C   0  0  0  0  0  0  0  0  0  0  0  0
  142.7150   76.9560  219.4080 N   0  0  0  0  0  0  0  0  0  0  0  0
  140.8740   78.6800  220.1110 H   0  0  0  0  0  0  0  0  0  0  0  0
  140.7077   81.2642  218.5526 H   0  0  0  0  0  0  0  0  0  0  0  0
  139.5144   80.6635  219.7580 H   0  0  0  0  0  0  0  0  0  0  0  0
  141.0309   82.6697  223.0057 H   0  0  0  0  0  0  0  0  0  0  0  0
  140.1910   81.1602  223.3920 H   0  0  0  0  0  0  0  0  0  0  0  0
  142.6575   82.1827  224.5264 H   0  0  0  0  0  0  0  0  0  0  0  0
  141.8588   80.6681  224.9422 H   0  0  0  0  0  0  0  0  0  0  0  0
  144.0532   81.2052  222.9075 H   0  0  0  0  0  0  0  0  0  0  0  0
  143.8529   79.7813  223.9034 H   0  0  0  0  0  0  0  0  0  0  0  0
  143.0926   79.4744  221.3693 H   0  0  0  0  0  0  0  0  0  0  0  0
  142.1427   78.4092  223.6482 H   0  0  0  0  0  0  0  0  0  0  0  0
  140.6575   79.2161  222.8608 H   0  0  0  0  0  0  0  0  0  0  0  0
  142.2330   77.1620  221.5090 H   0  0  0  0  0  0  0  0  0  0  0  0
  139.9416   77.6318  220.5536 H   0  0  0  0  0  0  0  0  0  0  0  0
  139.9531   75.3552  220.5874 H   0  0  0  0  0  0  0  0  0  0  0  0
  140.8171   75.2883  222.1343 H   0  0  0  0  0  0  0  0  0  0  0  0
  138.0679   74.8070  221.7072 H   0  0  0  0  0  0  0  0  0  0  0  0
  138.8522   75.0447  223.2888 H   0  0  0  0  0  0  0  0  0  0  0  0
  137.4046   77.0547  221.5378 H   0  0  0  0  0  0  0  0  0  0  0  0
  137.2323   76.8310  223.2541 H   0  0  0  0  0  0  0  0  0  0  0  0
  138.8641   78.8050  222.4614 H   0  0  0  0  0  0  0  0  0  0  0  0
  139.5660   77.7664  223.6643 H   0  0  0  0  0  0  0  0  0  0  0  0
  143.0893   77.8982  216.2451 H   0  0  0  0  0  0  0  0  0  0  0  0
  144.0350   75.6130  216.0904 H   0  0  0  0  0  0  0  0  0  0  0  0
  144.6172   73.5279  217.1259 H   0  0  0  0  0  0  0  0  0  0  0  0
  143.8350   73.0209  221.2862 H   0  0  0  0  0  0  0  0  0  0  0  0
  142.8984   75.2920  221.4275 H   0  0  0  0  0  0  0  0  0  0  0  0
  1  2  2  0
  2  3  1  0
  3  4  1  0
  4  5  1  0
  5  6  2  0
  5  7  1  0
  7  8  1  0
  8  9  1  0
  9 10  1  0
 10 11  1  0
 11 12  1  0
 12 13  1  0
 13 14  1  0
 14 15  1  0
 15 16  1  0
 16 17  1  0
 17 18  1  0
  2 19  1  0
 19 20  2  0
 20 21  1  0
 21 22  2  0
 22 23  1  0
 23 24  2  0
 24 25  1  0
 24 26  1  0
 26 27  2  0
 27 28  1  0
 28 29  2  0
 11  7  1  0
 18 14  1  0
 29 19  1  0
 28 22  1  0
  3 30  1  0
  4 31  1  0
  4 32  1  0
  8 33  1  0
  8 34  1  0
  9 35  1  0
  9 36  1  0
 10 37  1  0
 10 38  1  0
 11 39  1  6
 12 40  1  0
 12 41  1  0
 13 42  1  0
 14 43  1  0
 15 44  1  0
 15 45  1  0
 16 46  1  0
 16 47  1  0
 17 48  1  0
 17 49  1  0
 18 50  1  0
 18 51  1  0
 20 52  1  0
 21 53  1  0
 23 54  1  0
 26 55  1  0
 27 56  1  0
M  END
>  <smiles>  (16) 
O=C(NCC(=O)N1CCC[C@H]1CNC1CCCC1)c1ccc2cc(Cl)ccc2n1

>  <score_type>  (16) 
oracle

>  <origin>  (16) 
autodockgpu

>  <m_score__min__energy>  (16) 
-8.4399999999999995

>  <m_primary>  (16) 
energy

>  <rmsd>  (16) 
7.877250936983121

>  <m_score__min__rmsd>  (16) 
7.877250936983121

>  <meeko>  (16) 
{"free_energy": -6.44, "intermolecular_energy": -8.52, "internal_energy": -3.84, "cluster_size": 10, "cluster_id": 5, "rank_in_cluster": 1}

>  <energy>  (16) 
-7.96

>  <cluster_rmsd>  (16) 
0.85

>  <cluster>  (16) 
1

$$$$

     RDKit          3D

 56 59  0  0  0  0  0  0  0  0999 V2000
  138.4310   71.5470  221.2430 O   0  0  0  0  0  0  0  0  0  0  0  0
  138.9910   72.0450  222.2510 C   0  0  0  0  0  0  0  0  0  0  0  0
  139.3460   73.4110  222.3200 N   0  0  0  0  0  0  0  0  0  0  0  0
  139.0600   74.2940  221.1950 C   0  0  0  0  0  0  0  0  0  0  0  0
  139.9520   75.4650  221.2380 C   0  0  0  0  0  0  0  0  0  0  0  0
  140.9470   75.4130  222.0350 O   0  0  0  0  0  0  0  0  0  0  0  0
  139.8090   76.6330  220.4820 N   0  0  0  0  0  0  0  0  0  0  0  0
  138.7190   77.5700  220.6020 C   0  0  0  0  0  0  0  0  0  0  0  0
  138.5860   78.2230  219.2490 C   0  0  0  0  0  0  0  0  0  0  0  0
  139.6620   77.5740  218.4020 C   0  0  0  0  0  0  0  0  0  0  0  0
  140.6910   77.1740  219.4230 C   0  0  1  0  0  0  0  0  0  0  0  0
  141.3950   78.3920  219.9460 C   0  0  0  0  0  0  0  0  0  0  0  0
  141.8200   78.3890  221.2800 N   0  0  0  0  0  0  0  0  0  0  0  0
  141.4030   79.3800  222.1860 C   0  0  0  0  0  0  0  0  0  0  0  0
  142.1260   79.2990  223.4870 C   0  0  0  0  0  0  0  0  0  0  0  0
  142.5040   80.7030  223.8430 C   0  0  0  0  0  0  0  0  0  0  0  0
  141.8010   81.6080  222.8930 C   0  0  0  0  0  0  0  0  0  0  0  0
  141.7990   80.7600  221.6190 C   0  0  0  0  0  0  0  0  0  0  0  0
  139.2980   71.1870  223.4100 C   0  0  0  0  0  0  0  0  0  0  0  0
  138.9530   69.8490  223.3750 C   0  0  0  0  0  0  0  0  0  0  0  0
  139.2280   69.0160  224.4530 C   0  0  0  0  0  0  0  0  0  0  0  0
  139.8450   69.5030  225.5730 C   0  0  0  0  0  0  0  0  0  0  0  0
  140.1190   68.6930  226.6380 C   0  0  0  0  0  0  0  0  0  0  0  0
  140.7330   69.2060  227.7380 C   0  0  0  0  0  0  0  0  0  0  0  0
  141.0710   68.1370  229.0890 Cl  0  0  0  0  0  0  0  0  0  0  0  0
  141.0650   70.5420  227.7440 C   0  0  0  0  0  0  0  0  0  0  0  0
  140.7930   71.3650  226.6760 C   0  0  0  0  0  0  0  0  0  0  0  0
  140.1730   70.8560  225.5650 C   0  0  0  0  0  0  0  0  0  0  0  0
  139.8960   71.6460  224.5040 N   0  0  0  0  0  0  0  0  0  0  0  0
  139.8120   73.7980  223.1690 H   0  0  0  0  0  0  0  0  0  0  0  0
  139.2194   73.7484  220.2533 H   0  0  0  0  0  0  0  0  0  0  0  0
  138.0150   74.6321  221.2563 H   0  0  0  0  0  0  0  0  0  0  0  0
  137.7896   77.0443  220.8664 H   0  0  0  0  0  0  0  0  0  0  0  0
  138.9084   78.3116  221.3921 H   0  0  0  0  0  0  0  0  0  0  0  0
  137.5898   78.0334  218.8229 H   0  0  0  0  0  0  0  0  0  0  0  0
  138.6996   79.3159  219.3010 H   0  0  0  0  0  0  0  0  0  0  0  0
  139.2705   76.6954  217.8684 H   0  0  0  0  0  0  0  0  0  0  0  0
  140.0592   78.2363  217.6187 H   0  0  0  0  0  0  0  0  0  0  0  0
  141.4695   76.4903  219.0536 H   0  0  0  0  0  0  0  0  0  0  0  0
  142.2862   78.5475  219.3202 H   0  0  0  0  0  0  0  0  0  0  0  0
  140.6342   79.1854  219.9042 H   0  0  0  0  0  0  0  0  0  0  0  0
  142.4030   77.6190  221.6210 H   0  0  0  0  0  0  0  0  0  0  0  0
  140.3216   79.2395  222.3307 H   0  0  0  0  0  0  0  0  0  0  0  0
  141.4713   78.8724  224.2612 H   0  0  0  0  0  0  0  0  0  0  0  0
  143.0124   78.6517  223.4133 H   0  0  0  0  0  0  0  0  0  0  0  0
  142.1933   80.9260  224.8744 H   0  0  0  0  0  0  0  0  0  0  0  0
  143.5933   80.8406  223.7764 H   0  0  0  0  0  0  0  0  0  0  0  0
  140.7780   81.8304  223.2306 H   0  0  0  0  0  0  0  0  0  0  0  0
  142.2729   82.5948  222.7772 H   0  0  0  0  0  0  0  0  0  0  0  0
  141.0593   81.1254  220.8914 H   0  0  0  0  0  0  0  0  0  0  0  0
  142.7504   80.7679  221.0669 H   0  0  0  0  0  0  0  0  0  0  0  0
  138.4552   69.4389  222.4839 H   0  0  0  0  0  0  0  0  0  0  0  0
  138.9466   67.9537  224.4053 H   0  0  0  0  0  0  0  0  0  0  0  0
  139.8438   67.6284  226.6063 H   0  0  0  0  0  0  0  0  0  0  0  0
  141.5628   70.9640  228.6295 H   0  0  0  0  0  0  0  0  0  0  0  0
  141.0723   72.4283  226.7136 H   0  0  0  0  0  0  0  0  0  0  0  0
  1  2  2  0
  2  3  1  0
  3  4  1  0
  4  5  1  0
  5  6  2  0
  5  7  1  0
  7  8  1  0
  8  9  1  0
  9 10  1  0
 10 11  1  0
 11 12  1  0
 12 13  1  0
 13 14  1  0
 14 15  1  0
 15 16  1  0
 16 17  1  0
 17 18  1  0
  2 19  1  0
 19 20  2  0
 20 21  1  0
 21 22  2  0
 22 23  1  0
 23 24  2  0
 24 25  1  0
 24 26  1  0
 26 27  2  0
 27 28  1  0
 28 29  2  0
 11  7  1  0
 18 14  1  0
 29 19  1  0
 28 22  1  0
  3 30  1  0
  4 31  1  0
  4 32  1  0
  8 33  1  0
  8 34  1  0
  9 35  1  0
  9 36  1  0
 10 37  1  0
 10 38  1  0
 11 39  1  6
 12 40  1  0
 12 41  1  0
 13 42  1  0
 14 43  1  0
 15 44  1  0
 15 45  1  0
 16 46  1  0
 16 47  1  0
 17 48  1  0
 17 49  1  0
 18 50  1  0
 18 51  1  0
 20 52  1  0
 21 53  1  0
 23 54  1  0
 26 55  1  0
 27 56  1  0
M  END
>  <smiles>  (17) 
O=C(NCC(=O)N1CCC[C@H]1CNC1CCCC1)c1ccc2cc(Cl)ccc2n1

>  <score_type>  (17) 
oracle

>  <origin>  (17) 
autodockgpu

>  <m_score__min__energy>  (17) 
-8.4399999999999995

>  <m_primary>  (17) 
energy

>  <rmsd>  (17) 
2.011556329022288

>  <m_score__min__rmsd>  (17) 
2.011556329022288

>  <meeko>  (17) 
{"free_energy": -8.21, "intermolecular_energy": -10.3, "internal_energy": -2.35, "cluster_size": 28, "cluster_id": 1, "rank_in_cluster": 6}

>  <energy>  (17) 
-7.91

>  <cluster_rmsd>  (17) 
0.74

>  <cluster>  (17) 
1

$$$$

     RDKit          3D

 56 59  0  0  0  0  0  0  0  0999 V2000
  140.0060   73.1960  222.5770 O   0  0  0  0  0  0  0  0  0  0  0  0
  140.5080   73.9100  221.6740 C   0  0  0  0  0  0  0  0  0  0  0  0
  141.3090   73.3700  220.6420 N   0  0  0  0  0  0  0  0  0  0  0  0
  141.5740   71.9370  220.6030 C   0  0  0  0  0  0  0  0  0  0  0  0
  142.8690   71.6850  219.9470 C   0  0  0  0  0  0  0  0  0  0  0  0
  142.9940   70.5940  219.2990 O   0  0  0  0  0  0  0  0  0  0  0  0
  143.9790   72.5380  219.9690 N   0  0  0  0  0  0  0  0  0  0  0  0
  145.1180   72.4380  219.0900 C   0  0  0  0  0  0  0  0  0  0  0  0
  146.2800   73.0240  219.8520 C   0  0  0  0  0  0  0  0  0  0  0  0
  145.6940   73.4340  221.1890 C   0  0  0  0  0  0  0  0  0  0  0  0
  144.2520   73.6940  220.8530 C   0  0  1  0  0  0  0  0  0  0  0  0
  144.1300   74.9590  220.0550 C   0  0  0  0  0  0  0  0  0  0  0  0
  142.9770   75.7350  220.2160 N   0  0  0  0  0  0  0  0  0  0  0  0
  142.3390   76.3390  219.1180 C   0  0  0  0  0  0  0  0  0  0  0  0
  142.1350   77.8030  219.3150 C   0  0  0  0  0  0  0  0  0  0  0  0
  142.5300   78.4570  218.0280 C   0  0  0  0  0  0  0  0  0  0  0  0
  142.7250   77.3780  217.0220 C   0  0  0  0  0  0  0  0  0  0  0  0
  143.2780   76.2490  217.8960 C   0  0  0  0  0  0  0  0  0  0  0  0
  140.2640   75.3640  221.6760 C   0  0  0  0  0  0  0  0  0  0  0  0
  139.2410   75.8820  220.9030 C   0  0  0  0  0  0  0  0  0  0  0  0
  138.9870   77.2480  220.8840 C   0  0  0  0  0  0  0  0  0  0  0  0
  139.7460   78.1110  221.6280 C   0  0  0  0  0  0  0  0  0  0  0  0
  139.5050   79.4550  221.6150 C   0  0  0  0  0  0  0  0  0  0  0  0
  140.2770   80.2880  222.3660 C   0  0  0  0  0  0  0  0  0  0  0  0
  139.9400   82.0100  222.3270 Cl  0  0  0  0  0  0  0  0  0  0  0  0
  141.2880   79.7430  223.1250 C   0  0  0  0  0  0  0  0  0  0  0  0
  141.5370   78.3900  223.1440 C   0  0  0  0  0  0  0  0  0  0  0  0
  140.7650   77.5450  222.3900 C   0  0  0  0  0  0  0  0  0  0  0  0
  140.9920   76.2130  222.3930 N   0  0  0  0  0  0  0  0  0  0  0  0
  141.7150   73.9860  219.9050 H   0  0  0  0  0  0  0  0  0  0  0  0
  141.6023   71.5431  221.6297 H   0  0  0  0  0  0  0  0  0  0  0  0
  140.7763   71.4362  220.0348 H   0  0  0  0  0  0  0  0  0  0  0  0
  145.3166   71.3856  218.8391 H   0  0  0  0  0  0  0  0  0  0  0  0
  144.9458   72.9707  218.1431 H   0  0  0  0  0  0  0  0  0  0  0  0
  147.0723   72.2734  219.9892 H   0  0  0  0  0  0  0  0  0  0  0  0
  146.7416   73.8703  219.3221 H   0  0  0  0  0  0  0  0  0  0  0  0
  145.7892   72.6252  221.9284 H   0  0  0  0  0  0  0  0  0  0  0  0
  146.1999   74.3006  221.6397 H   0  0  0  0  0  0  0  0  0  0  0  0
  143.5862   73.8003  221.7221 H   0  0  0  0  0  0  0  0  0  0  0  0
  144.9893   75.5938  220.3170 H   0  0  0  0  0  0  0  0  0  0  0  0
  144.0847   74.6181  219.0101 H   0  0  0  0  0  0  0  0  0  0  0  0
  142.5530   75.8220  221.1440 H   0  0  0  0  0  0  0  0  0  0  0  0
  141.3751   75.8244  218.9916 H   0  0  0  0  0  0  0  0  0  0  0  0
  141.0794   78.0138  219.5415 H   0  0  0  0  0  0  0  0  0  0  0  0
  142.7335   78.1812  220.1568 H   0  0  0  0  0  0  0  0  0  0  0  0
  141.7364   79.1422  217.6954 H   0  0  0  0  0  0  0  0  0  0  0  0
  143.4539   79.0401  218.1562 H   0  0  0  0  0  0  0  0  0  0  0  0
  141.7740   77.0920  216.5489 H   0  0  0  0  0  0  0  0  0  0  0  0
  143.3775   77.6581  216.1819 H   0  0  0  0  0  0  0  0  0  0  0  0
  143.1972   75.2731  217.3949 H   0  0  0  0  0  0  0  0  0  0  0  0
  144.3472   76.3428  218.1367 H   0  0  0  0  0  0  0  0  0  0  0  0
  138.6214   75.2051  220.2964 H   0  0  0  0  0  0  0  0  0  0  0  0
  138.1671   77.6403  220.2644 H   0  0  0  0  0  0  0  0  0  0  0  0
  138.6897   79.8634  220.9997 H   0  0  0  0  0  0  0  0  0  0  0  0
  141.9157   80.4094  223.7347 H   0  0  0  0  0  0  0  0  0  0  0  0
  142.3530   77.9878  223.7623 H   0  0  0  0  0  0  0  0  0  0  0  0
  1  2  2  0
  2  3  1  0
  3  4  1  0
  4  5  1  0
  5  6  2  0
  5  7  1  0
  7  8  1  0
  8  9  1  0
  9 10  1  0
 10 11  1  0
 11 12  1  0
 12 13  1  0
 13 14  1  0
 14 15  1  0
 15 16  1  0
 16 17  1  0
 17 18  1  0
  2 19  1  0
 19 20  2  0
 20 21  1  0
 21 22  2  0
 22 23  1  0
 23 24  2  0
 24 25  1  0
 24 26  1  0
 26 27  2  0
 27 28  1  0
 28 29  2  0
 11  7  1  0
 18 14  1  0
 29 19  1  0
 28 22  1  0
  3 30  1  0
  4 31  1  0
  4 32  1  0
  8 33  1  0
  8 34  1  0
  9 35  1  0
  9 36  1  0
 10 37  1  0
 10 38  1  0
 11 39  1  1
 12 40  1  0
 12 41  1  0
 13 42  1  0
 14 43  1  0
 15 44  1  0
 15 45  1  0
 16 46  1  0
 16 47  1  0
 17 48  1  0
 17 49  1  0
 18 50  1  0
 18 51  1  0
 20 52  1  0
 21 53  1  0
 23 54  1  0
 26 55  1  0
 27 56  1  0
M  END
>  <smiles>  (18) 
O=C(NCC(=O)N1CCC[C@H]1CNC1CCCC1)c1ccc2cc(Cl)ccc2n1

>  <score_type>  (18) 
oracle

>  <origin>  (18) 
autodockgpu

>  <m_score__min__energy>  (18) 
-8.4399999999999995

>  <m_primary>  (18) 
energy

>  <rmsd>  (18) 
6.932450512040168

>  <m_score__min__rmsd>  (18) 
6.932450512040168

>  <meeko>  (18) 
{"free_energy": -6.41, "intermolecular_energy": -8.5, "internal_energy": -3.93, "cluster_size": 3, "cluster_id": 6, "rank_in_cluster": 1}

>  <energy>  (18) 
-7.87

>  <cluster_rmsd>  (18) 
0.82

>  <cluster>  (18) 
1

$$$$

     RDKit          3D

 56 59  0  0  0  0  0  0  0  0999 V2000
  140.1750   72.0960  220.7070 O   0  0  0  0  0  0  0  0  0  0  0  0
  140.0000   72.5400  221.8690 C   0  0  0  0  0  0  0  0  0  0  0  0
  139.7690   73.9100  222.1270 N   0  0  0  0  0  0  0  0  0  0  0  0
  139.7260   74.8600  221.0220 C   0  0  0  0  0  0  0  0  0  0  0  0
  140.4040   76.1090  221.4100 C   0  0  0  0  0  0  0  0  0  0  0  0
  140.4840   76.3680  222.6570 O   0  0  0  0  0  0  0  0  0  0  0  0
  140.9710   77.0410  220.5340 N   0  0  0  0  0  0  0  0  0  0  0  0
  141.1330   78.4470  220.8090 C   0  0  0  0  0  0  0  0  0  0  0  0
  141.1120   79.1350  219.4670 C   0  0  0  0  0  0  0  0  0  0  0  0
  140.9220   78.0150  218.4650 C   0  0  0  0  0  0  0  0  0  0  0  0
  141.5190   76.8310  219.1740 C   0  0  1  0  0  0  0  0  0  0  0  0
  143.0130   76.9600  219.2230 C   0  0  0  0  0  0  0  0  0  0  0  0
  143.7810   75.7920  219.1610 N   0  0  0  0  0  0  0  0  0  0  0  0
  143.6470   74.7740  220.1210 C   0  0  0  0  0  0  0  0  0  0  0  0
  142.7290   73.6870  219.6720 C   0  0  0  0  0  0  0  0  0  0  0  0
  143.4050   72.3990  220.0200 C   0  0  0  0  0  0  0  0  0  0  0  0
  144.5780   72.7270  220.8750 C   0  0  0  0  0  0  0  0  0  0  0  0
  145.0120   74.0710  220.2840 C   0  0  0  0  0  0  0  0  0  0  0  0
  140.0340   71.6120  223.0140 C   0  0  0  0  0  0  0  0  0  0  0  0
  139.5360   70.3310  222.8650 C   0  0  0  0  0  0  0  0  0  0  0  0
  139.5540   69.4350  223.9270 C   0  0  0  0  0  0  0  0  0  0  0  0
  140.0630   69.8010  225.1430 C   0  0  0  0  0  0  0  0  0  0  0  0
  140.0850   68.9280  226.1930 C   0  0  0  0  0  0  0  0  0  0  0  0
  140.5980   69.3220  227.3910 C   0  0  0  0  0  0  0  0  0  0  0  0
  140.6100   68.1740  228.7190 Cl  0  0  0  0  0  0  0  0  0  0  0  0
  141.0860   70.6030  227.5080 C   0  0  0  0  0  0  0  0  0  0  0  0
  141.0690   71.4890  226.4560 C   0  0  0  0  0  0  0  0  0  0  0  0
  140.5530   71.1000  225.2470 C   0  0  0  0  0  0  0  0  0  0  0  0
  140.5260   71.9540  224.2000 N   0  0  0  0  0  0  0  0  0  0  0  0
  139.6270   74.2520  223.1020 H   0  0  0  0  0  0  0  0  0  0  0  0
  140.2329   74.4260  220.1475 H   0  0  0  0  0  0  0  0  0  0  0  0
  138.6773   75.0789  220.7723 H   0  0  0  0  0  0  0  0  0  0  0  0
  140.3081   78.8113  221.4389 H   0  0  0  0  0  0  0  0  0  0  0  0
  142.0687   78.6475  221.3514 H   0  0  0  0  0  0  0  0  0  0  0  0
  140.2790   79.8513  219.4110 H   0  0  0  0  0  0  0  0  0  0  0  0
  142.0305   79.7105  219.2794 H   0  0  0  0  0  0  0  0  0  0  0  0
  139.8556   77.8521  218.2500 H   0  0  0  0  0  0  0  0  0  0  0  0
  141.3872   78.2191  217.4893 H   0  0  0  0  0  0  0  0  0  0  0  0
  141.2994   75.8563  218.7138 H   0  0  0  0  0  0  0  0  0  0  0  0
  143.3135   77.5930  218.3751 H   0  0  0  0  0  0  0  0  0  0  0  0
  143.2181   77.3676  220.2239 H   0  0  0  0  0  0  0  0  0  0  0  0
  144.4150   75.6470  218.3710 H   0  0  0  0  0  0  0  0  0  0  0  0
  143.2678   75.2528  221.0359 H   0  0  0  0  0  0  0  0  0  0  0  0
  141.7635   73.7638  220.1934 H   0  0  0  0  0  0  0  0  0  0  0  0
  142.5261   73.7542  218.5930 H   0  0  0  0  0  0  0  0  0  0  0  0
  142.7104   71.7466  220.5694 H   0  0  0  0  0  0  0  0  0  0  0  0
  143.7244   71.8705  219.1097 H   0  0  0  0  0  0  0  0  0  0  0  0
  144.2909   72.8257  221.9323 H   0  0  0  0  0  0  0  0  0  0  0  0
  145.3653   71.9588  220.8744 H   0  0  0  0  0  0  0  0  0  0  0  0
  145.6705   74.6214  220.9721 H   0  0  0  0  0  0  0  0  0  0  0  0
  145.5954   73.9912  219.3549 H   0  0  0  0  0  0  0  0  0  0  0  0
  139.1211   70.0177  221.8956 H   0  0  0  0  0  0  0  0  0  0  0  0
  139.1543   68.4196  223.7883 H   0  0  0  0  0  0  0  0  0  0  0  0
  139.6892   67.9089  226.0711 H   0  0  0  0  0  0  0  0  0  0  0  0
  141.5026   70.9287  228.4725 H   0  0  0  0  0  0  0  0  0  0  0  0
  141.4680   72.5060  226.5844 H   0  0  0  0  0  0  0  0  0  0  0  0
  1  2  2  0
  2  3  1  0
  3  4  1  0
  4  5  1  0
  5  6  2  0
  5  7  1  0
  7  8  1  0
  8  9  1  0
  9 10  1  0
 10 11  1  0
 11 12  1  0
 12 13  1  0
 13 14  1  0
 14 15  1  0
 15 16  1  0
 16 17  1  0
 17 18  1  0
  2 19  1  0
 19 20  2  0
 20 21  1  0
 21 22  2  0
 22 23  1  0
 23 24  2  0
 24 25  1  0
 24 26  1  0
 26 27  2  0
 27 28  1  0
 28 29  2  0
 11  7  1  0
 18 14  1  0
 29 19  1  0
 28 22  1  0
  3 30  1  0
  4 31  1  0
  4 32  1  0
  8 33  1  0
  8 34  1  0
  9 35  1  0
  9 36  1  0
 10 37  1  0
 10 38  1  0
 11 39  1  6
 12 40  1  0
 12 41  1  0
 13 42  1  0
 14 43  1  0
 15 44  1  0
 15 45  1  0
 16 46  1  0
 16 47  1  0
 17 48  1  0
 17 49  1  0
 18 50  1  0
 18 51  1  0
 20 52  1  0
 21 53  1  0
 23 54  1  0
 26 55  1  0
 27 56  1  0
M  END
>  <smiles>  (19) 
O=C(NCC(=O)N1CCC[C@H]1CNC1CCCC1)c1ccc2cc(Cl)ccc2n1

>  <score_type>  (19) 
oracle

>  <origin>  (19) 
autodockgpu

>  <m_score__min__energy>  (19) 
-8.4399999999999995

>  <m_primary>  (19) 
energy

>  <rmsd>  (19) 
4.298438657277474

>  <m_score__min__rmsd>  (19) 
4.298438657277474

>  <meeko>  (19) 
{"free_energy": -7.87, "intermolecular_energy": -9.96, "internal_energy": -2.5, "cluster_size": 28, "cluster_id": 1, "rank_in_cluster": 18}

>  <energy>  (19) 
-7.83

>  <cluster_rmsd>  (19) 
1.87

>  <cluster>  (19) 
1

$$$$

     RDKit          3D

 56 59  0  0  0  0  0  0  0  0999 V2000
  140.7910   72.6710  220.9180 O   0  0  0  0  0  0  0  0  0  0  0  0
  140.1930   72.9670  221.9830 C   0  0  0  0  0  0  0  0  0  0  0  0
  139.5430   74.2090  222.1630 N   0  0  0  0  0  0  0  0  0  0  0  0
  139.5510   75.1960  221.0900 C   0  0  0  0  0  0  0  0  0  0  0  0
  140.7010   76.1030  221.2520 C   0  0  0  0  0  0  0  0  0  0  0  0
  141.3630   76.0180  222.3390 O   0  0  0  0  0  0  0  0  0  0  0  0
  141.1370   77.0500  220.3190 N   0  0  0  0  0  0  0  0  0  0  0  0
  141.5490   78.3960  220.6340 C   0  0  0  0  0  0  0  0  0  0  0  0
  141.2690   79.2130  219.3980 C   0  0  0  0  0  0  0  0  0  0  0  0
  140.6760   78.2260  218.4120 C   0  0  0  0  0  0  0  0  0  0  0  0
  141.2760   76.9190  218.8500 C   0  0  1  0  0  0  0  0  0  0  0  0
  142.7340   76.8790  218.4980 C   0  0  0  0  0  0  0  0  0  0  0  0
  143.6220   76.3160  219.4210 N   0  0  0  0  0  0  0  0  0  0  0  0
  144.0640   74.9870  219.2980 C   0  0  0  0  0  0  0  0  0  0  0  0
  144.8660   74.5440  220.4760 C   0  0  0  0  0  0  0  0  0  0  0  0
  144.3710   73.1770  220.8280 C   0  0  0  0  0  0  0  0  0  0  0  0
  143.4720   72.7310  219.7290 C   0  0  0  0  0  0  0  0  0  0  0  0
  142.8310   74.0570  219.3110 C   0  0  0  0  0  0  0  0  0  0  0  0
  140.1600   71.9980  223.0920 C   0  0  0  0  0  0  0  0  0  0  0  0
  139.5990   70.7500  222.8870 C   0  0  0  0  0  0  0  0  0  0  0  0
  139.5530   69.8150  223.9140 C   0  0  0  0  0  0  0  0  0  0  0  0
  140.0600   70.1090  225.1510 C   0  0  0  0  0  0  0  0  0  0  0  0
  140.0180   69.1970  226.1670 C   0  0  0  0  0  0  0  0  0  0  0  0
  140.5300   69.5190  227.3860 C   0  0  0  0  0  0  0  0  0  0  0  0
  140.4610   68.3240  228.6700 Cl  0  0  0  0  0  0  0  0  0  0  0  0
  141.0820   70.7680  227.5600 C   0  0  0  0  0  0  0  0  0  0  0  0
  141.1280   71.6920  226.5420 C   0  0  0  0  0  0  0  0  0  0  0  0
  140.6140   71.3770  225.3120 C   0  0  0  0  0  0  0  0  0  0  0  0
  140.6480   72.2690  224.2970 N   0  0  0  0  0  0  0  0  0  0  0  0
  139.0550   74.4300  223.0580 H   0  0  0  0  0  0  0  0  0  0  0  0
  139.6263   74.6808  220.1210 H   0  0  0  0  0  0  0  0  0  0  0  0
  138.6201   75.7807  221.1286 H   0  0  0  0  0  0  0  0  0  0  0  0
  140.9726   78.7829  221.4873 H   0  0  0  0  0  0  0  0  0  0  0  0
  142.6119   78.4382  220.9142 H   0  0  0  0  0  0  0  0  0  0  0  0
  140.5531   80.0184  219.6190 H   0  0  0  0  0  0  0  0  0  0  0  0
  142.1743   79.7001  219.0066 H   0  0  0  0  0  0  0  0  0  0  0  0
  139.5787   78.2029  218.4854 H   0  0  0  0  0  0  0  0  0  0  0  0
  140.8917   78.4750  217.3625 H   0  0  0  0  0  0  0  0  0  0  0  0
  140.8164   76.0252  218.4030 H   0  0  0  0  0  0  0  0  0  0  0  0
  142.8283   76.3062  217.5636 H   0  0  0  0  0  0  0  0  0  0  0  0
  143.0306   77.9369  218.4450 H   0  0  0  0  0  0  0  0  0  0  0  0
  144.0050   76.8970  220.1720 H   0  0  0  0  0  0  0  0  0  0  0  0
  144.6628   74.9388  218.3765 H   0  0  0  0  0  0  0  0  0  0  0  0
  145.9347   74.5078  220.2178 H   0  0  0  0  0  0  0  0  0  0  0  0
  144.7555   75.2400  221.3206 H   0  0  0  0  0  0  0  0  0  0  0  0
  145.2194   72.4835  220.9243 H   0  0  0  0  0  0  0  0  0  0  0  0
  143.8321   73.1947  221.7868 H   0  0  0  0  0  0  0  0  0  0  0  0
  144.0398   72.2796  218.9021 H   0  0  0  0  0  0  0  0  0  0  0  0
  142.7508   71.9544  220.0234 H   0  0  0  0  0  0  0  0  0  0  0  0
  142.3676   73.9861  218.3159 H   0  0  0  0  0  0  0  0  0  0  0  0
  142.0150   74.3938  219.9673 H   0  0  0  0  0  0  0  0  0  0  0  0
  139.1849   70.4951  221.9003 H   0  0  0  0  0  0  0  0  0  0  0  0
  139.1041   68.8276  223.7308 H   0  0  0  0  0  0  0  0  0  0  0  0
  139.5718   68.2055  226.0004 H   0  0  0  0  0  0  0  0  0  0  0  0
  141.4987   71.0351  228.5423 H   0  0  0  0  0  0  0  0  0  0  0  0
  141.5764   72.6814  226.7153 H   0  0  0  0  0  0  0  0  0  0  0  0
  1  2  2  0
  2  3  1  0
  3  4  1  0
  4  5  1  0
  5  6  2  0
  5  7  1  0
  7  8  1  0
  8  9  1  0
  9 10  1  0
 10 11  1  0
 11 12  1  0
 12 13  1  0
 13 14  1  0
 14 15  1  0
 15 16  1  0
 16 17  1  0
 17 18  1  0
  2 19  1  0
 19 20  2  0
 20 21  1  0
 21 22  2  0
 22 23  1  0
 23 24  2  0
 24 25  1  0
 24 26  1  0
 26 27  2  0
 27 28  1  0
 28 29  2  0
 11  7  1  0
 18 14  1  0
 29 19  1  0
 28 22  1  0
  3 30  1  0
  4 31  1  0
  4 32  1  0
  8 33  1  0
  8 34  1  0
  9 35  1  0
  9 36  1  0
 10 37  1  0
 10 38  1  0
 11 39  1  6
 12 40  1  0
 12 41  1  0
 13 42  1  0
 14 43  1  0
 15 44  1  0
 15 45  1  0
 16 46  1  0
 16 47  1  0
 17 48  1  0
 17 49  1  0
 18 50  1  0
 18 51  1  0
 20 52  1  0
 21 53  1  0
 23 54  1  0
 26 55  1  0
 27 56  1  0
M  END
>  <smiles>  (20) 
O=C(NCC(=O)N1CCC[C@H]1CNC1CCCC1)c1ccc2cc(Cl)ccc2n1

>  <score_type>  (20) 
oracle

>  <origin>  (20) 
autodockgpu

>  <m_score__min__energy>  (20) 
-8.4399999999999995

>  <m_primary>  (20) 
energy

>  <rmsd>  (20) 
4.377344424880073

>  <m_score__min__rmsd>  (20) 
4.377344424880073

>  <meeko>  (20) 
{"free_energy": -7.69, "intermolecular_energy": -9.78, "internal_energy": -2.19, "cluster_size": 28, "cluster_id": 1, "rank_in_cluster": 22}

>  <energy>  (20) 
-7.8

>  <cluster_rmsd>  (20) 
0.82

>  <cluster>  (20) 
1

$$$$

     RDKit          3D

 56 59  0  0  0  0  0  0  0  0999 V2000
  139.6090   71.9440  220.7270 O   0  0  0  0  0  0  0  0  0  0  0  0
  139.6440   72.4210  221.8890 C   0  0  0  0  0  0  0  0  0  0  0  0
  139.5470   73.8080  222.1390 N   0  0  0  0  0  0  0  0  0  0  0  0
  139.3980   74.7390  221.0270 C   0  0  0  0  0  0  0  0  0  0  0  0
  140.2640   75.9120  221.2350 C   0  0  0  0  0  0  0  0  0  0  0  0
  140.4150   76.3210  222.4340 O   0  0  0  0  0  0  0  0  0  0  0  0
  140.9390   76.6210  220.2360 N   0  0  0  0  0  0  0  0  0  0  0  0
  140.5410   76.6840  218.8510 C   0  0  0  0  0  0  0  0  0  0  0  0
  141.8090   76.9190  218.0680 C   0  0  0  0  0  0  0  0  0  0  0  0
  142.9030   76.9690  219.1160 C   0  0  0  0  0  0  0  0  0  0  0  0
  142.1690   77.4400  220.3400 C   0  0  1  0  0  0  0  0  0  0  0  0
  141.8050   78.8880  220.1960 C   0  0  0  0  0  0  0  0  0  0  0  0
  140.8660   79.4270  221.0830 N   0  0  0  0  0  0  0  0  0  0  0  0
  141.1970   79.7100  222.4200 C   0  0  0  0  0  0  0  0  0  0  0  0
  142.6110   79.3610  222.7400 C   0  0  0  0  0  0  0  0  0  0  0  0
  143.1580   80.5120  223.5240 C   0  0  0  0  0  0  0  0  0  0  0  0
  142.0160   81.4030  223.8650 C   0  0  0  0  0  0  0  0  0  0  0  0
  141.1290   81.2390  222.6280 C   0  0  0  0  0  0  0  0  0  0  0  0
  139.7930   71.5150  223.0420 C   0  0  0  0  0  0  0  0  0  0  0  0
  139.3960   70.1950  222.9250 C   0  0  0  0  0  0  0  0  0  0  0  0
  139.5230   69.3180  223.9940 C   0  0  0  0  0  0  0  0  0  0  0  0
  140.0430   69.7410  225.1880 C   0  0  0  0  0  0  0  0  0  0  0  0
  140.1710   68.8860  226.2460 C   0  0  0  0  0  0  0  0  0  0  0  0
  140.6910   69.3360  227.4200 C   0  0  0  0  0  0  0  0  0  0  0  0
  140.8420   68.2120  228.7590 Cl  0  0  0  0  0  0  0  0  0  0  0  0
  141.0770   70.6550  227.5070 C   0  0  0  0  0  0  0  0  0  0  0  0
  140.9520   71.5220  226.4470 C   0  0  0  0  0  0  0  0  0  0  0  0
  140.4280   71.0770  225.2610 C   0  0  0  0  0  0  0  0  0  0  0  0
  140.2950   71.9110  224.2060 N   0  0  0  0  0  0  0  0  0  0  0  0
  139.5800   74.1770  223.1140 H   0  0  0  0  0  0  0  0  0  0  0  0
  139.6827   74.2370  220.0905 H   0  0  0  0  0  0  0  0  0  0  0  0
  138.3501   75.0686  220.9689 H   0  0  0  0  0  0  0  0  0  0  0  0
  140.0714   75.7378  218.5442 H   0  0  0  0  0  0  0  0  0  0  0  0
  139.8048   77.4828  218.6777 H   0  0  0  0  0  0  0  0  0  0  0  0
  141.9866   76.0956  217.3605 H   0  0  0  0  0  0  0  0  0  0  0  0
  141.7639   77.8401  217.4684 H   0  0  0  0  0  0  0  0  0  0  0  0
  143.3439   75.9741  219.2765 H   0  0  0  0  0  0  0  0  0  0  0  0
  143.7454   77.6186  218.8360 H   0  0  0  0  0  0  0  0  0  0  0  0
  142.7302   77.3449  221.2813 H   0  0  0  0  0  0  0  0  0  0  0  0
  142.7317   79.4697  220.3094 H   0  0  0  0  0  0  0  0  0  0  0  0
  141.3159   78.9487  219.2126 H   0  0  0  0  0  0  0  0  0  0  0  0
  139.9330   79.6730  220.7410 H   0  0  0  0  0  0  0  0  0  0  0  0
  140.5008   79.1327  223.0462 H   0  0  0  0  0  0  0  0  0  0  0  0
  142.6500   78.4390  223.3387 H   0  0  0  0  0  0  0  0  0  0  0  0
  143.1969   79.1842  221.8260 H   0  0  0  0  0  0  0  0  0  0  0  0
  143.6368   80.1460  224.4442 H   0  0  0  0  0  0  0  0  0  0  0  0
  143.9130   81.0565  222.9378 H   0  0  0  0  0  0  0  0  0  0  0  0
  141.5013   81.0669  224.7772 H   0  0  0  0  0  0  0  0  0  0  0  0
  142.3038   82.4430  224.0787 H   0  0  0  0  0  0  0  0  0  0  0  0
  140.0997   81.5754  222.8211 H   0  0  0  0  0  0  0  0  0  0  0  0
  141.4493   81.8306  221.7577 H   0  0  0  0  0  0  0  0  0  0  0  0
  138.9749   69.8361  221.9743 H   0  0  0  0  0  0  0  0  0  0  0  0
  139.2023   68.2719  223.8804 H   0  0  0  0  0  0  0  0  0  0  0  0
  139.8546   67.8370  226.1489 H   0  0  0  0  0  0  0  0  0  0  0  0
  141.4980   71.0263  228.4530 H   0  0  0  0  0  0  0  0  0  0  0  0
  141.2715   72.5695  226.5504 H   0  0  0  0  0  0  0  0  0  0  0  0
  1  2  2  0
  2  3  1  0
  3  4  1  0
  4  5  1  0
  5  6  2  0
  5  7  1  0
  7  8  1  0
  8  9  1  0
  9 10  1  0
 10 11  1  0
 11 12  1  0
 12 13  1  0
 13 14  1  0
 14 15  1  0
 15 16  1  0
 16 17  1  0
 17 18  1  0
  2 19  1  0
 19 20  2  0
 20 21  1  0
 21 22  2  0
 22 23  1  0
 23 24  2  0
 24 25  1  0
 24 26  1  0
 26 27  2  0
 27 28  1  0
 28 29  2  0
 11  7  1  0
 18 14  1  0
 29 19  1  0
 28 22  1  0
  3 30  1  0
  4 31  1  0
  4 32  1  0
  8 33  1  0
  8 34  1  0
  9 35  1  0
  9 36  1  0
 10 37  1  0
 10 38  1  0
 11 39  1  1
 12 40  1  0
 12 41  1  0
 13 42  1  0
 14 43  1  0
 15 44  1  0
 15 45  1  0
 16 46  1  0
 16 47  1  0
 17 48  1  0
 17 49  1  0
 18 50  1  0
 18 51  1  0
 20 52  1  0
 21 53  1  0
 23 54  1  0
 26 55  1  0
 27 56  1  0
M  END
>  <smiles>  (21) 
O=C(NCC(=O)N1CCC[C@H]1CNC1CCCC1)c1ccc2cc(Cl)ccc2n1

>  <score_type>  (21) 
oracle

>  <origin>  (21) 
autodockgpu

>  <m_score__min__energy>  (21) 
-8.4399999999999995

>  <m_primary>  (21) 
energy

>  <rmsd>  (21) 
2.1592532246775904

>  <m_score__min__rmsd>  (21) 
2.1592532246775904

>  <meeko>  (21) 
{"free_energy": -8.34, "intermolecular_energy": -10.42, "internal_energy": -1.96, "cluster_size": 28, "cluster_id": 1, "rank_in_cluster": 3}

>  <energy>  (21) 
-7.72

>  <cluster_rmsd>  (21) 
0.89

>  <cluster>  (21) 
1

$$$$

     RDKit          3D

 56 59  0  0  0  0  0  0  0  0999 V2000
  136.6390   70.8620  221.4680 O   0  0  0  0  0  0  0  0  0  0  0  0
  137.3530   71.5120  222.2720 C   0  0  0  0  0  0  0  0  0  0  0  0
  137.5960   72.8950  222.1170 N   0  0  0  0  0  0  0  0  0  0  0  0
  137.0070   73.6160  220.9950 C   0  0  0  0  0  0  0  0  0  0  0  0
  136.8400   75.0370  221.3440 C   0  0  0  0  0  0  0  0  0  0  0  0
  135.6650   75.5260  221.2600 O   0  0  0  0  0  0  0  0  0  0  0  0
  137.8560   75.9030  221.7620 N   0  0  0  0  0  0  0  0  0  0  0  0
  137.8480   76.6590  222.9900 C   0  0  0  0  0  0  0  0  0  0  0  0
  138.6900   77.8830  222.7270 C   0  0  0  0  0  0  0  0  0  0  0  0
  139.1390   77.7370  221.2860 C   0  0  0  0  0  0  0  0  0  0  0  0
  139.1280   76.2470  221.0850 C   0  0  1  0  0  0  0  0  0  0  0  0
  140.2660   75.6190  221.8350 C   0  0  0  0  0  0  0  0  0  0  0  0
  140.1120   74.3060  222.2940 N   0  0  0  0  0  0  0  0  0  0  0  0
  141.0400   73.3010  221.9690 C   0  0  0  0  0  0  0  0  0  0  0  0
  140.3890   72.0990  221.3730 C   0  0  0  0  0  0  0  0  0  0  0  0
  141.2300   71.7070  220.1990 C   0  0  0  0  0  0  0  0  0  0  0  0
  142.4790   72.5140  220.2570 C   0  0  0  0  0  0  0  0  0  0  0  0
  141.9600   73.8280  220.8460 C   0  0  0  0  0  0  0  0  0  0  0  0
  137.9670   70.8220  223.4210 C   0  0  0  0  0  0  0  0  0  0  0  0
  137.5140   69.5650  223.7790 C   0  0  0  0  0  0  0  0  0  0  0  0
  138.0720   68.8910  224.8580 C   0  0  0  0  0  0  0  0  0  0  0  0
  139.0810   69.4570  225.5910 C   0  0  0  0  0  0  0  0  0  0  0  0
  139.6360   68.8020  226.6530 C   0  0  0  0  0  0  0  0  0  0  0  0
  140.6370   69.3910  227.3630 C   0  0  0  0  0  0  0  0  0  0  0  0
  141.3280   68.5220  228.7220 Cl  0  0  0  0  0  0  0  0  0  0  0  0
  141.0660   70.6420  226.9820 C   0  0  0  0  0  0  0  0  0  0  0  0
  140.5140   71.3080  225.9130 C   0  0  0  0  0  0  0  0  0  0  0  0
  139.5040   70.7230  225.1940 C   0  0  0  0  0  0  0  0  0  0  0  0
  138.9460   71.3590  224.1400 N   0  0  0  0  0  0  0  0  0  0  0  0
  138.1930   73.4110  222.7990 H   0  0  0  0  0  0  0  0  0  0  0  0
  137.6676   73.5307  220.1196 H   0  0  0  0  0  0  0  0  0  0  0  0
  136.0232   73.1823  220.7624 H   0  0  0  0  0  0  0  0  0  0  0  0
  136.8205   76.9506  223.2532 H   0  0  0  0  0  0  0  0  0  0  0  0
  138.2436   76.0693  223.8301 H   0  0  0  0  0  0  0  0  0  0  0  0
  138.0949   78.7989  222.8573 H   0  0  0  0  0  0  0  0  0  0  0  0
  139.5389   77.9622  223.4221 H   0  0  0  0  0  0  0  0  0  0  0  0
  138.4381   78.2349  220.5999 H   0  0  0  0  0  0  0  0  0  0  0  0
  140.1178   78.1970  221.0853 H   0  0  0  0  0  0  0  0  0  0  0  0
  139.2172   75.9204  220.0384 H   0  0  0  0  0  0  0  0  0  0  0  0
  141.1414   75.6309  221.1690 H   0  0  0  0  0  0  0  0  0  0  0  0
  140.3517   76.2197  222.7525 H   0  0  0  0  0  0  0  0  0  0  0  0
  139.3390   74.0800  222.9260 H   0  0  0  0  0  0  0  0  0  0  0  0
  141.5616   73.0407  222.9018 H   0  0  0  0  0  0  0  0  0  0  0  0
  140.3544   71.2807  222.1073 H   0  0  0  0  0  0  0  0  0  0  0  0
  139.3534   72.3130  221.0703 H   0  0  0  0  0  0  0  0  0  0  0  0
  141.4721   70.6352  220.2511 H   0  0  0  0  0  0  0  0  0  0  0  0
  140.6921   71.8909  219.2573 H   0  0  0  0  0  0  0  0  0  0  0  0
  143.2296   72.0477  220.9121 H   0  0  0  0  0  0  0  0  0  0  0  0
  142.9891   72.6248  219.2888 H   0  0  0  0  0  0  0  0  0  0  0  0
  142.7790   74.4420  221.2488 H   0  0  0  0  0  0  0  0  0  0  0  0
  141.4599   74.4856  220.1197 H   0  0  0  0  0  0  0  0  0  0  0  0
  136.7035   69.0942  223.2033 H   0  0  0  0  0  0  0  0  0  0  0  0
  137.6993   67.8915  225.1266 H   0  0  0  0  0  0  0  0  0  0  0  0
  139.2753   67.8015  226.9338 H   0  0  0  0  0  0  0  0  0  0  0  0
  141.8753   71.1239  227.5501 H   0  0  0  0  0  0  0  0  0  0  0  0
  140.8817   72.3069  225.6357 H   0  0  0  0  0  0  0  0  0  0  0  0
  1  2  2  0
  2  3  1  0
  3  4  1  0
  4  5  1  0
  5  6  2  0
  5  7  1  0
  7  8  1  0
  8  9  1  0
  9 10  1  0
 10 11  1  0
 11 12  1  0
 12 13  1  0
 13 14  1  0
 14 15  1  0
 15 16  1  0
 16 17  1  0
 17 18  1  0
  2 19  1  0
 19 20  2  0
 20 21  1  0
 21 22  2  0
 22 23  1  0
 23 24  2  0
 24 25  1  0
 24 26  1  0
 26 27  2  0
 27 28  1  0
 28 29  2  0
 11  7  1  0
 18 14  1  0
 29 19  1  0
 28 22  1  0
  3 30  1  0
  4 31  1  0
  4 32  1  0
  8 33  1  0
  8 34  1  0
  9 35  1  0
  9 36  1  0
 10 37  1  0
 10 38  1  0
 11 39  1  6
 12 40  1  0
 12 41  1  0
 13 42  1  0
 14 43  1  0
 15 44  1  0
 15 45  1  0
 16 46  1  0
 16 47  1  0
 17 48  1  0
 17 49  1  0
 18 50  1  0
 18 51  1  0
 20 52  1  0
 21 53  1  0
 23 54  1  0
 26 55  1  0
 27 56  1  0
M  END
>  <smiles>  (22) 
O=C(NCC(=O)N1CCC[C@H]1CNC1CCCC1)c1ccc2cc(Cl)ccc2n1

>  <score_type>  (22) 
oracle

>  <origin>  (22) 
autodockgpu

>  <m_score__min__energy>  (22) 
-8.4399999999999995

>  <m_primary>  (22) 
energy

>  <rmsd>  (22) 
4.636167058370267

>  <m_score__min__rmsd>  (22) 
4.636167058370267

>  <meeko>  (22) 
{"free_energy": -6.89, "intermolecular_energy": -8.98, "internal_energy": -3.1, "cluster_size": 28, "cluster_id": 1, "rank_in_cluster": 25}

>  <energy>  (22) 
-7.69

>  <cluster_rmsd>  (22) 
0.84

>  <cluster>  (22) 
1

$$$$

     RDKit          3D

 56 59  0  0  0  0  0  0  0  0999 V2000
  139.4630   74.7150  220.8190 O   0  0  0  0  0  0  0  0  0  0  0  0
  139.9700   75.7230  221.3710 C   0  0  0  0  0  0  0  0  0  0  0  0
  141.3670   75.9240  221.4420 N   0  0  0  0  0  0  0  0  0  0  0  0
  142.2730   74.9410  220.8580 C   0  0  0  0  0  0  0  0  0  0  0  0
  142.6400   75.3480  219.4910 C   0  0  0  0  0  0  0  0  0  0  0  0
  143.4850   74.6210  218.8710 O   0  0  0  0  0  0  0  0  0  0  0  0
  142.1430   76.4630  218.8060 N   0  0  0  0  0  0  0  0  0  0  0  0
  141.0750   76.4330  217.8370 C   0  0  0  0  0  0  0  0  0  0  0  0
  141.3280   77.5950  216.9090 C   0  0  0  0  0  0  0  0  0  0  0  0
  142.5940   78.2390  217.4370 C   0  0  0  0  0  0  0  0  0  0  0  0
  142.5660   77.8800  218.8970 C   0  0  1  0  0  0  0  0  0  0  0  0
  141.4980   78.6650  219.5980 C   0  0  0  0  0  0  0  0  0  0  0  0
  141.5360   78.7340  220.9960 N   0  0  0  0  0  0  0  0  0  0  0  0
  142.2290   79.7610  221.6620 C   0  0  0  0  0  0  0  0  0  0  0  0
  141.4610   81.0380  221.6890 C   0  0  0  0  0  0  0  0  0  0  0  0
  141.5800   81.5690  223.0830 C   0  0  0  0  0  0  0  0  0  0  0  0
  142.6000   80.7450  223.7870 C   0  0  0  0  0  0  0  0  0  0  0  0
  142.3680   79.3720  223.1500 C   0  0  0  0  0  0  0  0  0  0  0  0
  139.0910   76.7410  221.9730 C   0  0  0  0  0  0  0  0  0  0  0  0
  137.7230   76.6560  221.7830 C   0  0  0  0  0  0  0  0  0  0  0  0
  136.8690   77.6010  222.3370 C   0  0  0  0  0  0  0  0  0  0  0  0
  137.3620   78.6390  223.0820 C   0  0  0  0  0  0  0  0  0  0  0  0
  136.5310   79.5730  223.6300 C   0  0  0  0  0  0  0  0  0  0  0  0
  137.0510   80.5930  224.3660 C   0  0  0  0  0  0  0  0  0  0  0  0
  135.9540   81.7770  225.0560 Cl  0  0  0  0  0  0  0  0  0  0  0  0
  138.4150   80.6510  224.5380 C   0  0  0  0  0  0  0  0  0  0  0  0
  139.2600   79.7140  223.9900 C   0  0  0  0  0  0  0  0  0  0  0  0
  138.7440   78.6850  223.2470 C   0  0  0  0  0  0  0  0  0  0  0  0
  139.5550   77.7530  222.6980 N   0  0  0  0  0  0  0  0  0  0  0  0
  141.7620   76.7690  221.9080 H   0  0  0  0  0  0  0  0  0  0  0  0
  143.1816   74.8710  221.4741 H   0  0  0  0  0  0  0  0  0  0  0  0
  141.7717   73.9625  220.8224 H   0  0  0  0  0  0  0  0  0  0  0  0
  141.0918   75.4858  217.2779 H   0  0  0  0  0  0  0  0  0  0  0  0
  140.0891   76.5077  218.3192 H   0  0  0  0  0  0  0  0  0  0  0  0
  141.4729   77.2430  215.8770 H   0  0  0  0  0  0  0  0  0  0  0  0
  140.4827   78.2984  216.8821 H   0  0  0  0  0  0  0  0  0  0  0  0
  143.4853   77.8237  216.9438 H   0  0  0  0  0  0  0  0  0  0  0  0
  142.6396   79.3230  217.2557 H   0  0  0  0  0  0  0  0  0  0  0  0
  143.5051   78.0662  219.4387 H   0  0  0  0  0  0  0  0  0  0  0  0
  141.5499   79.6964  219.2192 H   0  0  0  0  0  0  0  0  0  0  0  0
  140.5694   78.1180  219.3778 H   0  0  0  0  0  0  0  0  0  0  0  0
  141.0040   78.0560  221.5490 H   0  0  0  0  0  0  0  0  0  0  0  0
  143.1846   79.8913  221.1330 H   0  0  0  0  0  0  0  0  0  0  0  0
  141.8869   81.7541  220.9708 H   0  0  0  0  0  0  0  0  0  0  0  0
  140.4090   80.8784  221.4099 H   0  0  0  0  0  0  0  0  0  0  0  0
  141.8985   82.6216  223.0586 H   0  0  0  0  0  0  0  0  0  0  0  0
  140.6120   81.5166  223.6027 H   0  0  0  0  0  0  0  0  0  0  0  0
  143.6185   81.1122  223.5926 H   0  0  0  0  0  0  0  0  0  0  0  0
  142.5084   80.7544  224.8831 H   0  0  0  0  0  0  0  0  0  0  0  0
  143.2233   78.7001  223.3143 H   0  0  0  0  0  0  0  0  0  0  0  0
  141.5080   78.8208  223.5581 H   0  0  0  0  0  0  0  0  0  0  0  0
  137.3071   75.8307  221.1865 H   0  0  0  0  0  0  0  0  0  0  0  0
  135.7844   77.5147  222.1755 H   0  0  0  0  0  0  0  0  0  0  0  0
  135.4440   79.5015  223.4772 H   0  0  0  0  0  0  0  0  0  0  0  0
  138.8429   81.4720  225.1320 H   0  0  0  0  0  0  0  0  0  0  0  0
  140.3459   79.7906  224.1478 H   0  0  0  0  0  0  0  0  0  0  0  0
  1  2  2  0
  2  3  1  0
  3  4  1  0
  4  5  1  0
  5  6  2  0
  5  7  1  0
  7  8  1  0
  8  9  1  0
  9 10  1  0
 10 11  1  0
 11 12  1  0
 12 13  1  0
 13 14  1  0
 14 15  1  0
 15 16  1  0
 16 17  1  0
 17 18  1  0
  2 19  1  0
 19 20  2  0
 20 21  1  0
 21 22  2  0
 22 23  1  0
 23 24  2  0
 24 25  1  0
 24 26  1  0
 26 27  2  0
 27 28  1  0
 28 29  2  0
 11  7  1  0
 18 14  1  0
 29 19  1  0
 28 22  1  0
  3 30  1  0
  4 31  1  0
  4 32  1  0
  8 33  1  0
  8 34  1  0
  9 35  1  0
  9 36  1  0
 10 37  1  0
 10 38  1  0
 11 39  1  1
 12 40  1  0
 12 41  1  0
 13 42  1  0
 14 43  1  0
 15 44  1  0
 15 45  1  0
 16 46  1  0
 16 47  1  0
 17 48  1  0
 17 49  1  0
 18 50  1  0
 18 51  1  0
 20 52  1  0
 21 53  1  0
 23 54  1  0
 26 55  1  0
 27 56  1  0
M  END
>  <smiles>  (23) 
O=C(NCC(=O)N1CCC[C@H]1CNC1CCCC1)c1ccc2cc(Cl)ccc2n1

>  <score_type>  (23) 
oracle

>  <origin>  (23) 
autodockgpu

>  <m_score__min__energy>  (23) 
-8.4399999999999995

>  <m_primary>  (23) 
energy

>  <rmsd>  (23) 
6.103727711267222

>  <m_score__min__rmsd>  (23) 
6.103727711267222

>  <meeko>  (23) 
{"free_energy": -5.76, "intermolecular_energy": -7.85, "internal_energy": -4.15, "cluster_size": 1, "cluster_id": 10, "rank_in_cluster": 1}

>  <energy>  (23) 
-7.63

>  <cluster_rmsd>  (23) 
1.65

>  <cluster>  (23) 
1

$$$$

     RDKit          3D

 56 59  0  0  0  0  0  0  0  0999 V2000
  140.1210   72.2270  220.6920 O   0  0  0  0  0  0  0  0  0  0  0  0
  139.9450   72.6720  221.8530 C   0  0  0  0  0  0  0  0  0  0  0  0
  139.7000   74.0410  222.1080 N   0  0  0  0  0  0  0  0  0  0  0  0
  139.6430   74.9880  221.0010 C   0  0  0  0  0  0  0  0  0  0  0  0
  140.2160   76.2790  221.4170 C   0  0  0  0  0  0  0  0  0  0  0  0
  139.9930   76.6600  222.6130 O   0  0  0  0  0  0  0  0  0  0  0  0
  140.9870   77.1300  220.6160 N   0  0  0  0  0  0  0  0  0  0  0  0
  141.7380   78.2640  221.0960 C   0  0  0  0  0  0  0  0  0  0  0  0
  141.8160   79.2260  219.9370 C   0  0  0  0  0  0  0  0  0  0  0  0
  141.0570   78.5410  218.8180 C   0  0  0  0  0  0  0  0  0  0  0  0
  141.2150   77.0840  219.1540 C   0  0  1  0  0  0  0  0  0  0  0  0
  142.6260   76.6460  218.8910 C   0  0  0  0  0  0  0  0  0  0  0  0
  143.4070   76.2430  219.9800 N   0  0  0  0  0  0  0  0  0  0  0  0
  143.3890   74.9150  220.4450 C   0  0  0  0  0  0  0  0  0  0  0  0
  142.6820   73.9960  219.5070 C   0  0  0  0  0  0  0  0  0  0  0  0
  143.5370   72.7730  219.3960 C   0  0  0  0  0  0  0  0  0  0  0  0
  144.5960   72.8740  220.4360 C   0  0  0  0  0  0  0  0  0  0  0  0
  144.8390   74.3860  220.4700 C   0  0  0  0  0  0  0  0  0  0  0  0
  139.9940   71.7490  223.0010 C   0  0  0  0  0  0  0  0  0  0  0  0
  139.5220   70.4570  222.8540 C   0  0  0  0  0  0  0  0  0  0  0  0
  139.5540   69.5640  223.9180 C   0  0  0  0  0  0  0  0  0  0  0  0
  140.0530   69.9440  225.1350 C   0  0  0  0  0  0  0  0  0  0  0  0
  140.0880   69.0740  226.1870 C   0  0  0  0  0  0  0  0  0  0  0  0
  140.5900   69.4810  227.3850 C   0  0  0  0  0  0  0  0  0  0  0  0
  140.6210   68.3370  228.7160 Cl  0  0  0  0  0  0  0  0  0  0  0  0
  141.0540   70.7720  227.5000 C   0  0  0  0  0  0  0  0  0  0  0  0
  141.0220   71.6540  226.4460 C   0  0  0  0  0  0  0  0  0  0  0  0
  140.5170   71.2530  225.2360 C   0  0  0  0  0  0  0  0  0  0  0  0
  140.4760   72.1030  224.1870 N   0  0  0  0  0  0  0  0  0  0  0  0
  139.5590   74.3840  223.0830 H   0  0  0  0  0  0  0  0  0  0  0  0
  140.2173   74.5908  220.1511 H   0  0  0  0  0  0  0  0  0  0  0  0
  138.5942   75.1357  220.7040 H   0  0  0  0  0  0  0  0  0  0  0  0
  141.2228   78.7317  221.9479 H   0  0  0  0  0  0  0  0  0  0  0  0
  142.7385   77.9685  221.4448 H   0  0  0  0  0  0  0  0  0  0  0  0
  141.3435   80.1850  220.1961 H   0  0  0  0  0  0  0  0  0  0  0  0
  142.8542   79.4565  219.6560 H   0  0  0  0  0  0  0  0  0  0  0  0
  139.9972   78.8356  218.8194 H   0  0  0  0  0  0  0  0  0  0  0  0
  141.4292   78.8004  217.8159 H   0  0  0  0  0  0  0  0  0  0  0  0
  140.5609   76.4039  218.5886 H   0  0  0  0  0  0  0  0  0  0  0  0
  142.5794   75.7983  218.1916 H   0  0  0  0  0  0  0  0  0  0  0  0
  143.1270   77.5508  218.5162 H   0  0  0  0  0  0  0  0  0  0  0  0
  144.0490   76.9110  220.4160 H   0  0  0  0  0  0  0  0  0  0  0  0
  142.8918   74.9308  221.4261 H   0  0  0  0  0  0  0  0  0  0  0  0
  141.6909   73.7333  219.9053 H   0  0  0  0  0  0  0  0  0  0  0  0
  142.5274   74.4671  218.5251 H   0  0  0  0  0  0  0  0  0  0  0  0
  142.9286   71.8724  219.5653 H   0  0  0  0  0  0  0  0  0  0  0  0
  143.9834   72.7011  218.3932 H   0  0  0  0  0  0  0  0  0  0  0  0
  144.2424   72.5009  221.4085 H   0  0  0  0  0  0  0  0  0  0  0  0
  145.4954   72.2776  220.2229 H   0  0  0  0  0  0  0  0  0  0  0  0
  145.3649   74.6906  221.3869 H   0  0  0  0  0  0  0  0  0  0  0  0
  145.4744   74.7627  219.6549 H   0  0  0  0  0  0  0  0  0  0  0  0
  139.1169   70.1330  221.8840 H   0  0  0  0  0  0  0  0  0  0  0  0
  139.1743   68.5407  223.7811 H   0  0  0  0  0  0  0  0  0  0  0  0
  139.7117   68.0474  226.0666 H   0  0  0  0  0  0  0  0  0  0  0  0
  141.4627   71.1080  228.4644 H   0  0  0  0  0  0  0  0  0  0  0  0
  141.4006   72.6789  226.5731 H   0  0  0  0  0  0  0  0  0  0  0  0
  1  2  2  0
  2  3  1  0
  3  4  1  0
  4  5  1  0
  5  6  2  0
  5  7  1  0
  7  8  1  0
  8  9  1  0
  9 10  1  0
 10 11  1  0
 11 12  1  0
 12 13  1  0
 13 14  1  0
 14 15  1  0
 15 16  1  0
 16 17  1  0
 17 18  1  0
  2 19  1  0
 19 20  2  0
 20 21  1  0
 21 22  2  0
 22 23  1  0
 23 24  2  0
 24 25  1  0
 24 26  1  0
 26 27  2  0
 27 28  1  0
 28 29  2  0
 11  7  1  0
 18 14  1  0
 29 19  1  0
 28 22  1  0
  3 30  1  0
  4 31  1  0
  4 32  1  0
  8 33  1  0
  8 34  1  0
  9 35  1  0
  9 36  1  0
 10 37  1  0
 10 38  1  0
 11 39  1  6
 12 40  1  0
 12 41  1  0
 13 42  1  0
 14 43  1  0
 15 44  1  0
 15 45  1  0
 16 46  1  0
 16 47  1  0
 17 48  1  0
 17 49  1  0
 18 50  1  0
 18 51  1  0
 20 52  1  0
 21 53  1  0
 23 54  1  0
 26 55  1  0
 27 56  1  0
M  END
>  <smiles>  (24) 
O=C(NCC(=O)N1CCC[C@H]1CNC1CCCC1)c1ccc2cc(Cl)ccc2n1

>  <score_type>  (24) 
oracle

>  <origin>  (24) 
autodockgpu

>  <m_score__min__energy>  (24) 
-8.4399999999999995

>  <m_primary>  (24) 
energy

>  <rmsd>  (24) 
4.246061029250965

>  <m_score__min__rmsd>  (24) 
4.246061029250965

>  <meeko>  (24) 
{"free_energy": -7.96, "intermolecular_energy": -10.05, "internal_energy": -2.43, "cluster_size": 28, "cluster_id": 1, "rank_in_cluster": 15}

>  <energy>  (24) 
-7.39

>  <cluster_rmsd>  (24) 
1.76

>  <cluster>  (24) 
1

$$$$

     RDKit          3D

 56 59  0  0  0  0  0  0  0  0999 V2000
  140.2910   72.5930  220.8390 O   0  0  0  0  0  0  0  0  0  0  0  0
  139.6250   72.7760  221.8880 C   0  0  0  0  0  0  0  0  0  0  0  0
  138.7060   73.8410  222.0230 N   0  0  0  0  0  0  0  0  0  0  0  0
  138.5050   74.7720  220.9180 C   0  0  0  0  0  0  0  0  0  0  0  0
  138.8010   76.1450  221.3600 C   0  0  0  0  0  0  0  0  0  0  0  0
  137.8290   76.8350  221.8150 O   0  0  0  0  0  0  0  0  0  0  0  0
  140.0550   76.7650  221.3300 N   0  0  0  0  0  0  0  0  0  0  0  0
  140.6670   77.4530  222.4400 C   0  0  0  0  0  0  0  0  0  0  0  0
  141.5810   78.4860  221.8310 C   0  0  0  0  0  0  0  0  0  0  0  0
  141.4140   78.3120  220.3340 C   0  0  0  0  0  0  0  0  0  0  0  0
  141.0200   76.8670  220.2110 C   0  0  1  0  0  0  0  0  0  0  0  0
  142.2000   75.9860  220.5000 C   0  0  0  0  0  0  0  0  0  0  0  0
  142.1500   74.6530  220.0770 N   0  0  0  0  0  0  0  0  0  0  0  0
  143.3180   73.9480  219.7340 C   0  0  0  0  0  0  0  0  0  0  0  0
  144.5550   74.6340  220.2060 C   0  0  0  0  0  0  0  0  0  0  0  0
  145.4210   73.5710  220.8030 C   0  0  0  0  0  0  0  0  0  0  0  0
  144.8100   72.2560  220.4660 C   0  0  0  0  0  0  0  0  0  0  0  0
  143.3190   72.6040  220.4930 C   0  0  0  0  0  0  0  0  0  0  0  0
  139.7960   71.8580  223.0280 C   0  0  0  0  0  0  0  0  0  0  0  0
  139.4150   70.5340  222.8980 C   0  0  0  0  0  0  0  0  0  0  0  0
  139.5640   69.6460  223.9550 C   0  0  0  0  0  0  0  0  0  0  0  0
  140.0890   70.0610  225.1500 C   0  0  0  0  0  0  0  0  0  0  0  0
  140.2380   69.1950  226.1950 C   0  0  0  0  0  0  0  0  0  0  0  0
  140.7630   69.6370  227.3700 C   0  0  0  0  0  0  0  0  0  0  0  0
  140.9420   68.4980  228.6930 Cl  0  0  0  0  0  0  0  0  0  0  0  0
  141.1330   70.9590  227.4700 C   0  0  0  0  0  0  0  0  0  0  0  0
  140.9870   71.8380  226.4220 C   0  0  0  0  0  0  0  0  0  0  0  0
  140.4580   71.4000  225.2350 C   0  0  0  0  0  0  0  0  0  0  0  0
  140.3040   72.2460  224.1920 N   0  0  0  0  0  0  0  0  0  0  0  0
  138.1660   73.9710  222.9050 H   0  0  0  0  0  0  0  0  0  0  0  0
  139.1752   74.5034  220.0881 H   0  0  0  0  0  0  0  0  0  0  0  0
  137.4586   74.7167  220.5833 H   0  0  0  0  0  0  0  0  0  0  0  0
  139.8990   77.9390  223.0596 H   0  0  0  0  0  0  0  0  0  0  0  0
  141.2183   76.7591  223.0916 H   0  0  0  0  0  0  0  0  0  0  0  0
  141.2822   79.4987  222.1396 H   0  0  0  0  0  0  0  0  0  0  0  0
  142.6256   78.3583  222.1511 H   0  0  0  0  0  0  0  0  0  0  0  0
  140.6259   78.9726  219.9434 H   0  0  0  0  0  0  0  0  0  0  0  0
  142.3176   78.5682  219.7614 H   0  0  0  0  0  0  0  0  0  0  0  0
  140.6388   76.5735  219.2218 H   0  0  0  0  0  0  0  0  0  0  0  0
  143.0763   76.4473  220.0212 H   0  0  0  0  0  0  0  0  0  0  0  0
  142.2299   75.9224  221.5978 H   0  0  0  0  0  0  0  0  0  0  0  0
  141.2540   74.1590  220.0690 H   0  0  0  0  0  0  0  0  0  0  0  0
  143.3181   73.8538  218.6380 H   0  0  0  0  0  0  0  0  0  0  0  0
  145.0698   75.1152  219.3614 H   0  0  0  0  0  0  0  0  0  0  0  0
  144.3220   75.4196  220.9399 H   0  0  0  0  0  0  0  0  0  0  0  0
  146.4356   73.6327  220.3825 H   0  0  0  0  0  0  0  0  0  0  0  0
  145.4937   73.6969  221.8933 H   0  0  0  0  0  0  0  0  0  0  0  0
  145.1247   71.9086  219.4709 H   0  0  0  0  0  0  0  0  0  0  0  0
  145.0949   71.4389  221.1452 H   0  0  0  0  0  0  0  0  0  0  0  0
  142.7173   71.8449  219.9717 H   0  0  0  0  0  0  0  0  0  0  0  0
  142.8821   72.6517  221.5014 H   0  0  0  0  0  0  0  0  0  0  0  0
  138.9895   70.1812  221.9470 H   0  0  0  0  0  0  0  0  0  0  0  0
  139.2568   68.5970  223.8312 H   0  0  0  0  0  0  0  0  0  0  0  0
  139.9346   68.1432  226.0874 H   0  0  0  0  0  0  0  0  0  0  0  0
  141.5583   71.3236  228.4166 H   0  0  0  0  0  0  0  0  0  0  0  0
  141.2934   72.8883  226.5356 H   0  0  0  0  0  0  0  0  0  0  0  0
  1  2  2  0
  2  3  1  0
  3  4  1  0
  4  5  1  0
  5  6  2  0
  5  7  1  0
  7  8  1  0
  8  9  1  0
  9 10  1  0
 10 11  1  0
 11 12  1  0
 12 13  1  0
 13 14  1  0
 14 15  1  0
 15 16  1  0
 16 17  1  0
 17 18  1  0
  2 19  1  0
 19 20  2  0
 20 21  1  0
 21 22  2  0
 22 23  1  0
 23 24  2  0
 24 25  1  0
 24 26  1  0
 26 27  2  0
 27 28  1  0
 28 29  2  0
 11  7  1  0
 18 14  1  0
 29 19  1  0
 28 22  1  0
  3 30  1  0
  4 31  1  0
  4 32  1  0
  8 33  1  0
  8 34  1  0
  9 35  1  0
  9 36  1  0
 10 37  1  0
 10 38  1  0
 11 39  1  6
 12 40  1  0
 12 41  1  0
 13 42  1  0
 14 43  1  0
 15 44  1  0
 15 45  1  0
 16 46  1  0
 16 47  1  0
 17 48  1  0
 17 49  1  0
 18 50  1  0
 18 51  1  0
 20 52  1  0
 21 53  1  0
 23 54  1  0
 26 55  1  0
 27 56  1  0
M  END
>  <smiles>  (25) 
O=C(NCC(=O)N1CCC[C@H]1CNC1CCCC1)c1ccc2cc(Cl)ccc2n1

>  <score_type>  (25) 
oracle

>  <origin>  (25) 
autodockgpu

>  <m_score__min__energy>  (25) 
-8.4399999999999995

>  <m_primary>  (25) 
energy

>  <rmsd>  (25) 
4.632881819363408

>  <m_score__min__rmsd>  (25) 
4.632881819363408

>  <meeko>  (25) 
{"free_energy": -7.72, "intermolecular_energy": -9.81, "internal_energy": -2.56, "cluster_size": 28, "cluster_id": 1, "rank_in_cluster": 21}

>  <energy>  (25) 
-6.89

>  <cluster_rmsd>  (25) 
1.98

>  <cluster>  (25) 
1

$$$$

     RDKit          3D

 56 59  0  0  0  0  0  0  0  0999 V2000
  141.7260   79.8890  218.0330 O   0  0  0  0  0  0  0  0  0  0  0  0
  141.5420   79.0100  218.9120 C   0  0  0  0  0  0  0  0  0  0  0  0
  140.6630   79.2030  220.0010 N   0  0  0  0  0  0  0  0  0  0  0  0
  139.9290   80.4570  220.1290 C   0  0  0  0  0  0  0  0  0  0  0  0
  140.4440   81.2220  221.2780 C   0  0  0  0  0  0  0  0  0  0  0  0
  140.1460   82.4610  221.3350 O   0  0  0  0  0  0  0  0  0  0  0  0
  141.2320   80.7130  222.3160 N   0  0  0  0  0  0  0  0  0  0  0  0
  141.2930   81.2540  223.6520 C   0  0  0  0  0  0  0  0  0  0  0  0
  142.6600   80.8980  224.1790 C   0  0  0  0  0  0  0  0  0  0  0  0
  143.3240   80.1440  223.0430 C   0  0  0  0  0  0  0  0  0  0  0  0
  142.1540   79.5540  222.3070 C   0  0  1  0  0  0  0  0  0  0  0  0
  141.5490   78.4420  223.1120 C   0  0  0  0  0  0  0  0  0  0  0  0
  141.1470   77.2820  222.4400 N   0  0  0  0  0  0  0  0  0  0  0  0
  139.8070   76.8540  222.4520 C   0  0  0  0  0  0  0  0  0  0  0  0
  138.8490   77.9910  222.5710 C   0  0  0  0  0  0  0  0  0  0  0  0
  137.7630   77.7290  221.5760 C   0  0  0  0  0  0  0  0  0  0  0  0
  137.9540   76.3450  221.0620 C   0  0  0  0  0  0  0  0  0  0  0  0
  139.4810   76.2280  221.0790 C   0  0  0  0  0  0  0  0  0  0  0  0
  142.2630   77.7280  218.8190 C   0  0  0  0  0  0  0  0  0  0  0  0
  142.9680   77.4270  217.6670 C   0  0  0  0  0  0  0  0  0  0  0  0
  143.6570   76.2260  217.5500 C   0  0  0  0  0  0  0  0  0  0  0  0
  143.6500   75.3140  218.5710 C   0  0  0  0  0  0  0  0  0  0  0  0
  144.3230   74.1300  218.4640 C   0  0  0  0  0  0  0  0  0  0  0  0
  144.2980   73.2430  219.4960 C   0  0  0  0  0  0  0  0  0  0  0  0
  145.1740   71.7310  219.3270 Cl  0  0  0  0  0  0  0  0  0  0  0  0
  143.5880   73.5700  220.6290 C   0  0  0  0  0  0  0  0  0  0  0  0
  142.9080   74.7600  220.7450 C   0  0  0  0  0  0  0  0  0  0  0  0
  142.9270   75.6590  219.7090 C   0  0  0  0  0  0  0  0  0  0  0  0
  142.2660   76.8340  219.8010 N   0  0  0  0  0  0  0  0  0  0  0  0
  140.5300   78.4570  220.7170 H   0  0  0  0  0  0  0  0  0  0  0  0
  140.0546   81.0490  219.2104 H   0  0  0  0  0  0  0  0  0  0  0  0
  138.8624   80.2389  220.2867 H   0  0  0  0  0  0  0  0  0  0  0  0
  141.1641   82.3462  223.6289 H   0  0  0  0  0  0  0  0  0  0  0  0
  140.4950   80.8463  224.2900 H   0  0  0  0  0  0  0  0  0  0  0  0
  143.2290   81.8061  224.4272 H   0  0  0  0  0  0  0  0  0  0  0  0
  142.6088   80.3014  225.1017 H   0  0  0  0  0  0  0  0  0  0  0  0
  143.8964   80.8253  222.3963 H   0  0  0  0  0  0  0  0  0  0  0  0
  144.0486   79.3903  223.3851 H   0  0  0  0  0  0  0  0  0  0  0  0
  142.3912   79.1378  221.3168 H   0  0  0  0  0  0  0  0  0  0  0  0
  142.2932   78.1418  223.8644 H   0  0  0  0  0  0  0  0  0  0  0  0
  140.6137   78.8675  223.5047 H   0  0  0  0  0  0  0  0  0  0  0  0
  141.8280   76.7610  221.8810 H   0  0  0  0  0  0  0  0  0  0  0  0
  139.7038   76.1657  223.3038 H   0  0  0  0  0  0  0  0  0  0  0  0
  138.4320   78.0332  223.5880 H   0  0  0  0  0  0  0  0  0  0  0  0
  139.3446   78.9540  222.3785 H   0  0  0  0  0  0  0  0  0  0  0  0
  136.7796   77.8175  222.0609 H   0  0  0  0  0  0  0  0  0  0  0  0
  137.8060   78.4580  220.7534 H   0  0  0  0  0  0  0  0  0  0  0  0
  137.4856   75.6013  221.7235 H   0  0  0  0  0  0  0  0  0  0  0  0
  137.4987   76.1628  220.0774 H   0  0  0  0  0  0  0  0  0  0  0  0
  139.8067   75.1787  221.0255 H   0  0  0  0  0  0  0  0  0  0  0  0
  139.9832   76.7120  220.2284 H   0  0  0  0  0  0  0  0  0  0  0  0
  142.9832   78.1462  216.8349 H   0  0  0  0  0  0  0  0  0  0  0  0
  144.2139   76.0057  216.6273 H   0  0  0  0  0  0  0  0  0  0  0  0
  144.8831   73.8944  217.5471 H   0  0  0  0  0  0  0  0  0  0  0  0
  143.5637   72.8580  221.4671 H   0  0  0  0  0  0  0  0  0  0  0  0
  142.3510   74.9900  221.6652 H   0  0  0  0  0  0  0  0  0  0  0  0
  1  2  2  0
  2  3  1  0
  3  4  1  0
  4  5  1  0
  5  6  2  0
  5  7  1  0
  7  8  1  0
  8  9  1  0
  9 10  1  0
 10 11  1  0
 11 12  1  0
 12 13  1  0
 13 14  1  0
 14 15  1  0
 15 16  1  0
 16 17  1  0
 17 18  1  0
  2 19  1  0
 19 20  2  0
 20 21  1  0
 21 22  2  0
 22 23  1  0
 23 24  2  0
 24 25  1  0
 24 26  1  0
 26 27  2  0
 27 28  1  0
 28 29  2  0
 11  7  1  0
 18 14  1  0
 29 19  1  0
 28 22  1  0
  3 30  1  0
  4 31  1  0
  4 32  1  0
  8 33  1  0
  8 34  1  0
  9 35  1  0
  9 36  1  0
 10 37  1  0
 10 38  1  0
 11 39  1  6
 12 40  1  0
 12 41  1  0
 13 42  1  0
 14 43  1  0
 15 44  1  0
 15 45  1  0
 16 46  1  0
 16 47  1  0
 17 48  1  0
 17 49  1  0
 18 50  1  0
 18 51  1  0
 20 52  1  0
 21 53  1  0
 23 54  1  0
 26 55  1  0
 27 56  1  0
M  END
>  <smiles>  (26) 
O=C(NCC(=O)N1CCC[C@H]1CNC1CCCC1)c1ccc2cc(Cl)ccc2n1

>  <score_type>  (26) 
oracle

>  <origin>  (26) 
autodockgpu

>  <m_score__min__energy>  (26) 
-8.4399999999999995

>  <m_primary>  (26) 
energy

>  <rmsd>  (26) 
7.698492366106889

>  <m_score__min__rmsd>  (26) 
7.698492366106889

>  <meeko>  (26) 
{"free_energy": -6.08, "intermolecular_energy": -8.17, "internal_energy": -4.15, "cluster_size": 10, "cluster_id": 5, "rank_in_cluster": 8}

>  <energy>  (26) 
-6.63

>  <cluster_rmsd>  (26) 
1.87

>  <cluster>  (26) 
1

$$$$

     RDKit          3D

 56 59  0  0  0  0  0  0  0  0999 V2000
  138.3420   71.3910  221.3850 O   0  0  0  0  0  0  0  0  0  0  0  0
  138.9880   71.8560  222.3560 C   0  0  0  0  0  0  0  0  0  0  0  0
  139.4120   73.2040  222.4050 N   0  0  0  0  0  0  0  0  0  0  0  0
  139.0970   74.1050  221.3020 C   0  0  0  0  0  0  0  0  0  0  0  0
  139.9040   75.3320  221.4130 C   0  0  0  0  0  0  0  0  0  0  0  0
  141.0330   75.2390  221.9990 O   0  0  0  0  0  0  0  0  0  0  0  0
  139.5460   76.5960  220.9300 N   0  0  0  0  0  0  0  0  0  0  0  0
  138.6970   77.5360  221.6200 C   0  0  0  0  0  0  0  0  0  0  0  0
  138.0460   78.3700  220.5440 C   0  0  0  0  0  0  0  0  0  0  0  0
  138.5920   77.8130  219.2450 C   0  0  0  0  0  0  0  0  0  0  0  0
  139.9250   77.2520  219.6580 C   0  0  1  0  0  0  0  0  0  0  0  0
  140.8840   78.3680  219.9500 C   0  0  0  0  0  0  0  0  0  0  0  0
  141.7920   78.2030  221.0020 N   0  0  0  0  0  0  0  0  0  0  0  0
  142.1630   79.2790  221.8280 C   0  0  0  0  0  0  0  0  0  0  0  0
  141.6690   80.5870  221.3110 C   0  0  0  0  0  0  0  0  0  0  0  0
  141.1120   81.3190  222.4910 C   0  0  0  0  0  0  0  0  0  0  0  0
  141.4960   80.5580  223.7100 C   0  0  0  0  0  0  0  0  0  0  0  0
  141.4530   79.1190  223.1890 C   0  0  0  0  0  0  0  0  0  0  0  0
  139.3260   70.9800  223.4920 C   0  0  0  0  0  0  0  0  0  0  0  0
  139.0330   69.6300  223.4190 C   0  0  0  0  0  0  0  0  0  0  0  0
  139.3390   68.7790  224.4740 C   0  0  0  0  0  0  0  0  0  0  0  0
  139.9350   69.2590  225.6090 C   0  0  0  0  0  0  0  0  0  0  0  0
  140.2390   68.4300  226.6510 C   0  0  0  0  0  0  0  0  0  0  0  0
  140.8320   68.9360  227.7670 C   0  0  0  0  0  0  0  0  0  0  0  0
  141.2090   67.8440  229.0880 Cl  0  0  0  0  0  0  0  0  0  0  0  0
  141.1120   70.2830  227.8100 C   0  0  0  0  0  0  0  0  0  0  0  0
  140.8100   71.1250  226.7650 C   0  0  0  0  0  0  0  0  0  0  0  0
  140.2120   70.6230  225.6380 C   0  0  0  0  0  0  0  0  0  0  0  0
  139.9050   71.4310  224.5990 N   0  0  0  0  0  0  0  0  0  0  0  0
  139.9480   73.5640  223.2230 H   0  0  0  0  0  0  0  0  0  0  0  0
  139.3209   73.6059  220.3477 H   0  0  0  0  0  0  0  0  0  0  0  0
  138.0296   74.3679  221.3418 H   0  0  0  0  0  0  0  0  0  0  0  0
  137.9335   77.0036  222.2063 H   0  0  0  0  0  0  0  0  0  0  0  0
  139.2702   78.1584  222.3229 H   0  0  0  0  0  0  0  0  0  0  0  0
  136.9515   78.2662  220.5813 H   0  0  0  0  0  0  0  0  0  0  0  0
  138.2608   79.4425  220.6607 H   0  0  0  0  0  0  0  0  0  0  0  0
  137.9369   77.0249  218.8453 H   0  0  0  0  0  0  0  0  0  0  0  0
  138.6644   78.5644  218.4449 H   0  0  0  0  0  0  0  0  0  0  0  0
  140.4076   76.6054  218.9103 H   0  0  0  0  0  0  0  0  0  0  0  0
  141.4717   78.5401  219.0362 H   0  0  0  0  0  0  0  0  0  0  0  0
  140.2420   79.2007  220.2730 H   0  0  0  0  0  0  0  0  0  0  0  0
  142.1540   77.2690  221.2130 H   0  0  0  0  0  0  0  0  0  0  0  0
  143.2616   79.2700  221.8825 H   0  0  0  0  0  0  0  0  0  0  0  0
  142.4966   81.1575  220.8643 H   0  0  0  0  0  0  0  0  0  0  0  0
  140.9072   80.4473  220.5299 H   0  0  0  0  0  0  0  0  0  0  0  0
  141.5310   82.3351  222.5349 H   0  0  0  0  0  0  0  0  0  0  0  0
  140.0178   81.4024  222.4145 H   0  0  0  0  0  0  0  0  0  0  0  0
  142.5040   80.8317  224.0551 H   0  0  0  0  0  0  0  0  0  0  0  0
  140.8483   80.7425  224.5798 H   0  0  0  0  0  0  0  0  0  0  0  0
  141.9999   78.4325  223.8520 H   0  0  0  0  0  0  0  0  0  0  0  0
  140.4426   78.6888  223.1262 H   0  0  0  0  0  0  0  0  0  0  0  0
  138.5525   69.2257  222.5159 H   0  0  0  0  0  0  0  0  0  0  0  0
  139.0998   67.7082  224.3963 H   0  0  0  0  0  0  0  0  0  0  0  0
  140.0054   67.3569  226.5886 H   0  0  0  0  0  0  0  0  0  0  0  0
  141.5922   70.6991  228.7079 H   0  0  0  0  0  0  0  0  0  0  0  0
  141.0474   72.1969  226.8333 H   0  0  0  0  0  0  0  0  0  0  0  0
  1  2  2  0
  2  3  1  0
  3  4  1  0
  4  5  1  0
  5  6  2  0
  5  7  1  0
  7  8  1  0
  8  9  1  0
  9 10  1  0
 10 11  1  0
 11 12  1  0
 12 13  1  0
 13 14  1  0
 14 15  1  0
 15 16  1  0
 16 17  1  0
 17 18  1  0
  2 19  1  0
 19 20  2  0
 20 21  1  0
 21 22  2  0
 22 23  1  0
 23 24  2  0
 24 25  1  0
 24 26  1  0
 26 27  2  0
 27 28  1  0
 28 29  2  0
 11  7  1  0
 18 14  1  0
 29 19  1  0
 28 22  1  0
  3 30  1  0
  4 31  1  0
  4 32  1  0
  8 33  1  0
  8 34  1  0
  9 35  1  0
  9 36  1  0
 10 37  1  0
 10 38  1  0
 11 39  1  6
 12 40  1  0
 12 41  1  0
 13 42  1  0
 14 43  1  0
 15 44  1  0
 15 45  1  0
 16 46  1  0
 16 47  1  0
 17 48  1  0
 17 49  1  0
 18 50  1  0
 18 51  1  0
 20 52  1  0
 21 53  1  0
 23 54  1  0
 26 55  1  0
 27 56  1  0
M  END
>  <smiles>  (27) 
O=C(NCC(=O)N1CCC[C@H]1CNC1CCCC1)c1ccc2cc(Cl)ccc2n1

>  <score_type>  (27) 
oracle

>  <origin>  (27) 
autodockgpu

>  <m_score__min__energy>  (27) 
-8.4399999999999995

>  <m_primary>  (27) 
energy

>  <rmsd>  (27) 
2.2642476118478703

>  <m_score__min__rmsd>  (27) 
2.2642476118478703

>  <meeko>  (27) 
{"free_energy": -7.63, "intermolecular_energy": -9.72, "internal_energy": -2.62, "cluster_size": 28, "cluster_id": 1, "rank_in_cluster": 23}

>  <energy>  (27) 
-6.36

>  <cluster_rmsd>  (27) 
1.99

>  <cluster>  (27) 
1

$$$$

     RDKit          3D

 56 59  0  0  0  0  0  0  0  0999 V2000
  140.4340   72.5920  220.9270 O   0  0  0  0  0  0  0  0  0  0  0  0
  140.0550   72.9400  222.0730 C   0  0  0  0  0  0  0  0  0  0  0  0
  139.5990   74.2480  222.3520 N   0  0  0  0  0  0  0  0  0  0  0  0
  139.5550   75.2450  221.2890 C   0  0  0  0  0  0  0  0  0  0  0  0
  139.0800   76.5310  221.8280 C   0  0  0  0  0  0  0  0  0  0  0  0
  137.8830   76.5760  222.2660 O   0  0  0  0  0  0  0  0  0  0  0  0
  139.8260   77.7130  221.9070 N   0  0  0  0  0  0  0  0  0  0  0  0
  140.1370   78.5720  220.7910 C   0  0  0  0  0  0  0  0  0  0  0  0
  141.4310   79.2600  221.1490 C   0  0  0  0  0  0  0  0  0  0  0  0
  141.7920   78.7110  222.5150 C   0  0  0  0  0  0  0  0  0  0  0  0
  140.4520   78.3450  223.0900 C   0  0  1  0  0  0  0  0  0  0  0  0
  139.6880   79.5870  223.4430 C   0  0  0  0  0  0  0  0  0  0  0  0
  138.2940   79.5600  223.3350 N   0  0  0  0  0  0  0  0  0  0  0  0
  137.5100   80.6810  223.6600 C   0  0  0  0  0  0  0  0  0  0  0  0
  136.0930   80.3180  223.9530 C   0  0  0  0  0  0  0  0  0  0  0  0
  135.7110   81.0820  225.1820 C   0  0  0  0  0  0  0  0  0  0  0  0
  136.8010   82.0580  225.4560 C   0  0  0  0  0  0  0  0  0  0  0  0
  138.0300   81.2740  224.9870 C   0  0  0  0  0  0  0  0  0  0  0  0
  140.0820   71.9630  223.1760 C   0  0  0  0  0  0  0  0  0  0  0  0
  139.6020   70.6830  222.9620 C   0  0  0  0  0  0  0  0  0  0  0  0
  139.6140   69.7410  223.9820 C   0  0  0  0  0  0  0  0  0  0  0  0
  140.1000   70.0580  225.2220 C   0  0  0  0  0  0  0  0  0  0  0  0
  140.1150   69.1390  226.2320 C   0  0  0  0  0  0  0  0  0  0  0  0
  140.6040   69.4840  227.4540 C   0  0  0  0  0  0  0  0  0  0  0  0
  140.6090   68.2780  228.7290 Cl  0  0  0  0  0  0  0  0  0  0  0  0
  141.0750   70.7640  227.6360 C   0  0  0  0  0  0  0  0  0  0  0  0
  141.0640   71.6960  226.6250 C   0  0  0  0  0  0  0  0  0  0  0  0
  140.5720   71.3570  225.3920 C   0  0  0  0  0  0  0  0  0  0  0  0
  140.5510   72.2570  224.3830 N   0  0  0  0  0  0  0  0  0  0  0  0
  139.2910   74.5110  223.3130 H   0  0  0  0  0  0  0  0  0  0  0  0
  140.5633   75.3755  220.8692 H   0  0  0  0  0  0  0  0  0  0  0  0
  138.8659   74.9053  220.5018 H   0  0  0  0  0  0  0  0  0  0  0  0
  140.2602   77.9781  219.8733 H   0  0  0  0  0  0  0  0  0  0  0  0
  139.3319   79.2974  220.6022 H   0  0  0  0  0  0  0  0  0  0  0  0
  142.2142   79.0200  220.4149 H   0  0  0  0  0  0  0  0  0  0  0  0
  141.3333   80.3556  221.1527 H   0  0  0  0  0  0  0  0  0  0  0  0
  142.4410   77.8271  222.4282 H   0  0  0  0  0  0  0  0  0  0  0  0
  142.3535   79.4237  223.1370 H   0  0  0  0  0  0  0  0  0  0  0  0
  140.4912   77.7264  223.9987 H   0  0  0  0  0  0  0  0  0  0  0  0
  139.9292   79.8320  224.4879 H   0  0  0  0  0  0  0  0  0  0  0  0
  140.0048   80.3242  222.6905 H   0  0  0  0  0  0  0  0  0  0  0  0
  137.8330   78.7270  222.9590 H   0  0  0  0  0  0  0  0  0  0  0  0
  137.5677   81.3650  222.8005 H   0  0  0  0  0  0  0  0  0  0  0  0
  135.4448   80.6019  223.1108 H   0  0  0  0  0  0  0  0  0  0  0  0
  135.9802   79.2343  224.1039 H   0  0  0  0  0  0  0  0  0  0  0  0
  134.7631   81.6143  225.0144 H   0  0  0  0  0  0  0  0  0  0  0  0
  135.5750   80.4017  226.0357 H   0  0  0  0  0  0  0  0  0  0  0  0
  136.6682   82.9833  224.8762 H   0  0  0  0  0  0  0  0  0  0  0  0
  136.8529   82.3937  226.5022 H   0  0  0  0  0  0  0  0  0  0  0  0
  138.8933   81.9357  224.8233 H   0  0  0  0  0  0  0  0  0  0  0  0
  138.3936   80.5261  225.7071 H   0  0  0  0  0  0  0  0  0  0  0  0
  139.2065   70.4087  221.9729 H   0  0  0  0  0  0  0  0  0  0  0  0
  139.2286   68.7285  223.7916 H   0  0  0  0  0  0  0  0  0  0  0  0
  139.7327   68.1223  226.0581 H   0  0  0  0  0  0  0  0  0  0  0  0
  141.4726   71.0506  228.6208 H   0  0  0  0  0  0  0  0  0  0  0  0
  141.4490   72.7105  226.8056 H   0  0  0  0  0  0  0  0  0  0  0  0
  1  2  2  0
  2  3  1  0
  3  4  1  0
  4  5  1  0
  5  6  2  0
  5  7  1  0
  7  8  1  0
  8  9  1  0
  9 10  1  0
 10 11  1  0
 11 12  1  0
 12 13  1  0
 13 14  1  0
 14 15  1  0
 15 16  1  0
 16 17  1  0
 17 18  1  0
  2 19  1  0
 19 20  2  0
 20 21  1  0
 21 22  2  0
 22 23  1  0
 23 24  2  0
 24 25  1  0
 24 26  1  0
 26 27  2  0
 27 28  1  0
 28 29  2  0
 11  7  1  0
 18 14  1  0
 29 19  1  0
 28 22  1  0
  3 30  1  0
  4 31  1  0
  4 32  1  0
  8 33  1  0
  8 34  1  0
  9 35  1  0
  9 36  1  0
 10 37  1  0
 10 38  1  0
 11 39  1  1
 12 40  1  0
 12 41  1  0
 13 42  1  0
 14 43  1  0
 15 44  1  0
 15 45  1  0
 16 46  1  0
 16 47  1  0
 17 48  1  0
 17 49  1  0
 18 50  1  0
 18 51  1  0
 20 52  1  0
 21 53  1  0
 23 54  1  0
 26 55  1  0
 27 56  1  0
M  END
>  <smiles>  (28) 
O=C(NCC(=O)N1CCC[C@H]1CNC1CCCC1)c1ccc2cc(Cl)ccc2n1

>  <score_type>  (28) 
oracle

>  <origin>  (28) 
autodockgpu

>  <m_score__min__energy>  (28) 
-8.4399999999999995

>  <m_primary>  (28) 
energy

>  <rmsd>  (28) 
3.76495866298076

>  <m_score__min__rmsd>  (28) 
3.76495866298076

>  <meeko>  (28) 
{"free_energy": -7.57, "intermolecular_energy": -9.66, "internal_energy": -2.12, "cluster_size": 1, "cluster_id": 2, "rank_in_cluster": 1}

>  <energy>  (28) 
-6.19

>  <cluster_rmsd>  (28) 
1.99

>  <cluster>  (28) 
1

$$$$

     RDKit          3D

 56 59  0  0  0  0  0  0  0  0999 V2000
  140.0580   71.9980  220.7070 O   0  0  0  0  0  0  0  0  0  0  0  0
  139.9110   72.4530  221.8680 C   0  0  0  0  0  0  0  0  0  0  0  0
  139.6830   73.8250  222.1180 N   0  0  0  0  0  0  0  0  0  0  0  0
  139.6080   74.7640  221.0050 C   0  0  0  0  0  0  0  0  0  0  0  0
  140.1690   76.0650  221.4090 C   0  0  0  0  0  0  0  0  0  0  0  0
  139.9270   76.4620  222.5970 O   0  0  0  0  0  0  0  0  0  0  0  0
  140.9460   76.9080  220.6070 N   0  0  0  0  0  0  0  0  0  0  0  0
  141.5360   78.1520  221.0380 C   0  0  0  0  0  0  0  0  0  0  0  0
  141.6570   79.0020  219.7990 C   0  0  0  0  0  0  0  0  0  0  0  0
  141.0910   78.1420  218.6860 C   0  0  0  0  0  0  0  0  0  0  0  0
  141.3390   76.7460  219.1880 C   0  0  1  0  0  0  0  0  0  0  0  0
  142.8040   76.4270  219.1190 C   0  0  0  0  0  0  0  0  0  0  0  0
  143.3470   75.5930  220.1020 N   0  0  0  0  0  0  0  0  0  0  0  0
  143.9700   74.3760  219.7710 C   0  0  0  0  0  0  0  0  0  0  0  0
  145.2740   74.1980  220.4720 C   0  0  0  0  0  0  0  0  0  0  0  0
  145.2890   72.7890  220.9750 C   0  0  0  0  0  0  0  0  0  0  0  0
  144.1250   72.0870  220.3690 C   0  0  0  0  0  0  0  0  0  0  0  0
  143.0960   73.2190  220.3000 C   0  0  0  0  0  0  0  0  0  0  0  0
  139.9790   71.5380  223.0220 C   0  0  0  0  0  0  0  0  0  0  0  0
  139.5060   70.2450  222.8910 C   0  0  0  0  0  0  0  0  0  0  0  0
  139.5550   69.3600  223.9610 C   0  0  0  0  0  0  0  0  0  0  0  0
  140.0710   69.7490  225.1680 C   0  0  0  0  0  0  0  0  0  0  0  0
  140.1230   68.8860  226.2250 C   0  0  0  0  0  0  0  0  0  0  0  0
  140.6420   69.3030  227.4130 C   0  0  0  0  0  0  0  0  0  0  0  0
  140.6940   68.1690  228.7510 Cl  0  0  0  0  0  0  0  0  0  0  0  0
  141.1040   70.5950  227.5120 C   0  0  0  0  0  0  0  0  0  0  0  0
  141.0560   71.4700  226.4530 C   0  0  0  0  0  0  0  0  0  0  0  0
  140.5340   71.0590  225.2530 C   0  0  0  0  0  0  0  0  0  0  0  0
  140.4770   71.9020  224.1980 N   0  0  0  0  0  0  0  0  0  0  0  0
  139.5650   74.1770  223.0930 H   0  0  0  0  0  0  0  0  0  0  0  0
  140.1815   74.3678  220.1540 H   0  0  0  0  0  0  0  0  0  0  0  0
  138.5557   74.8977  220.7138 H   0  0  0  0  0  0  0  0  0  0  0  0
  140.8901   78.6455  221.7791 H   0  0  0  0  0  0  0  0  0  0  0  0
  142.5140   77.9916  221.5152 H   0  0  0  0  0  0  0  0  0  0  0  0
  141.0755   79.9295  219.9065 H   0  0  0  0  0  0  0  0  0  0  0  0
  142.6957   79.3064  219.6027 H   0  0  0  0  0  0  0  0  0  0  0  0
  140.0158   78.3288  218.5482 H   0  0  0  0  0  0  0  0  0  0  0  0
  141.5480   78.3408  217.7054 H   0  0  0  0  0  0  0  0  0  0  0  0
  140.8149   75.9540  218.6329 H   0  0  0  0  0  0  0  0  0  0  0  0
  142.9875   75.9469  218.1465 H   0  0  0  0  0  0  0  0  0  0  0  0
  143.3010   77.3952  219.2788 H   0  0  0  0  0  0  0  0  0  0  0  0
  143.3420   75.8960  221.0800 H   0  0  0  0  0  0  0  0  0  0  0  0
  144.1101   74.3800  218.6800 H   0  0  0  0  0  0  0  0  0  0  0  0
  146.1078   74.3624  219.7736 H   0  0  0  0  0  0  0  0  0  0  0  0
  145.3880   74.9186  221.2953 H   0  0  0  0  0  0  0  0  0  0  0  0
  146.2243   72.2931  220.6761 H   0  0  0  0  0  0  0  0  0  0  0  0
  145.2262   72.7682  222.0730 H   0  0  0  0  0  0  0  0  0  0  0  0
  144.3650   71.6991  219.3680 H   0  0  0  0  0  0  0  0  0  0  0  0
  143.7874   71.2045  220.9323 H   0  0  0  0  0  0  0  0  0  0  0  0
  142.2777   72.9798  219.6049 H   0  0  0  0  0  0  0  0  0  0  0  0
  142.5893   73.4312  221.2530 H   0  0  0  0  0  0  0  0  0  0  0  0
  139.0866   69.9138  221.9296 H   0  0  0  0  0  0  0  0  0  0  0  0
  139.1749   68.3352  223.8369 H   0  0  0  0  0  0  0  0  0  0  0  0
  139.7471   67.8579  226.1173 H   0  0  0  0  0  0  0  0  0  0  0  0
  141.5250   70.9386  228.4684 H   0  0  0  0  0  0  0  0  0  0  0  0
  141.4349   72.4963  226.5675 H   0  0  0  0  0  0  0  0  0  0  0  0
  1  2  2  0
  2  3  1  0
  3  4  1  0
  4  5  1  0
  5  6  2  0
  5  7  1  0
  7  8  1  0
  8  9  1  0
  9 10  1  0
 10 11  1  0
 11 12  1  0
 12 13  1  0
 13 14  1  0
 14 15  1  0
 15 16  1  0
 16 17  1  0
 17 18  1  0
  2 19  1  0
 19 20  2  0
 20 21  1  0
 21 22  2  0
 22 23  1  0
 23 24  2  0
 24 25  1  0
 24 26  1  0
 26 27  2  0
 27 28  1  0
 28 29  2  0
 11  7  1  0
 18 14  1  0
 29 19  1  0
 28 22  1  0
  3 30  1  0
  4 31  1  0
  4 32  1  0
  8 33  1  0
  8 34  1  0
  9 35  1  0
  9 36  1  0
 10 37  1  0
 10 38  1  0
 11 39  1  6
 12 40  1  0
 12 41  1  0
 13 42  1  0
 14 43  1  0
 15 44  1  0
 15 45  1  0
 16 46  1  0
 16 47  1  0
 17 48  1  0
 17 49  1  0
 18 50  1  0
 18 51  1  0
 20 52  1  0
 21 53  1  0
 23 54  1  0
 26 55  1  0
 27 56  1  0
M  END
>  <smiles>  (29) 
O=C(NCC(=O)N1CCC[C@H]1CNC1CCCC1)c1ccc2cc(Cl)ccc2n1

>  <score_type>  (29) 
oracle

>  <origin>  (29) 
autodockgpu

>  <m_score__min__energy>  (29) 
-8.4399999999999995

>  <m_primary>  (29) 
energy

>  <rmsd>  (29) 
4.507056678404487

>  <m_score__min__rmsd>  (29) 
4.507056678404487

>  <meeko>  (29) 
{"free_energy": -8.22, "intermolecular_energy": -10.31, "internal_energy": -2.37, "cluster_size": 28, "cluster_id": 1, "rank_in_cluster": 5}

>  <energy>  (29) 
-7.57

>  <cluster_rmsd>  (29) 
0.0

>  <cluster>  (29) 
2

$$$$

     RDKit          3D

 56 59  0  0  0  0  0  0  0  0999 V2000
  136.1460   71.1880  221.6760 O   0  0  0  0  0  0  0  0  0  0  0  0
  137.0140   71.7710  222.3730 C   0  0  0  0  0  0  0  0  0  0  0  0
  137.3900   73.1140  222.1420 N   0  0  0  0  0  0  0  0  0  0  0  0
  136.7630   73.8700  221.0650 C   0  0  0  0  0  0  0  0  0  0  0  0
  137.7160   74.8510  220.5200 C   0  0  0  0  0  0  0  0  0  0  0  0
  137.5380   75.2340  219.3160 O   0  0  0  0  0  0  0  0  0  0  0  0
  138.8040   75.4050  221.2040 N   0  0  0  0  0  0  0  0  0  0  0  0
  138.7080   76.2250  222.3870 C   0  0  0  0  0  0  0  0  0  0  0  0
  139.9240   77.1160  222.3710 C   0  0  0  0  0  0  0  0  0  0  0  0
  140.6660   76.7290  221.1070 C   0  0  0  0  0  0  0  0  0  0  0  0
  140.2500   75.2990  220.9030 C   0  0  1  0  0  0  0  0  0  0  0  0
  140.9010   74.4220  221.9320 C   0  0  0  0  0  0  0  0  0  0  0  0
  140.2320   73.2590  222.3290 N   0  0  0  0  0  0  0  0  0  0  0  0
  140.5170   72.0120  221.7460 C   0  0  0  0  0  0  0  0  0  0  0  0
  139.6800   71.7440  220.5410 C   0  0  0  0  0  0  0  0  0  0  0  0
  140.6050   71.1950  219.5020 C   0  0  0  0  0  0  0  0  0  0  0  0
  141.9080   70.9180  220.1670 C   0  0  0  0  0  0  0  0  0  0  0  0
  141.9620   72.0460  221.2000 C   0  0  0  0  0  0  0  0  0  0  0  0
  137.6720   71.0440  223.4730 C   0  0  0  0  0  0  0  0  0  0  0  0
  137.1710   69.8180  223.8720 C   0  0  0  0  0  0  0  0  0  0  0  0
  137.7700   69.1090  224.9060 C   0  0  0  0  0  0  0  0  0  0  0  0
  138.8670   69.6100  225.5530 C   0  0  0  0  0  0  0  0  0  0  0  0
  139.4620   68.9210  226.5720 C   0  0  0  0  0  0  0  0  0  0  0  0
  140.5530   69.4440  227.1960 C   0  0  0  0  0  0  0  0  0  0  0  0
  141.2930   68.5330  228.5000 Cl  0  0  0  0  0  0  0  0  0  0  0  0
  141.0280   70.6660  226.7760 C   0  0  0  0  0  0  0  0  0  0  0  0
  140.4360   71.3660  225.7520 C   0  0  0  0  0  0  0  0  0  0  0  0
  139.3370   70.8460  225.1180 C   0  0  0  0  0  0  0  0  0  0  0  0
  138.7380   71.5170  224.1090 N   0  0  0  0  0  0  0  0  0  0  0  0
  138.1150   73.5740  222.7350 H   0  0  0  0  0  0  0  0  0  0  0  0
  136.4540   73.1793  220.2666 H   0  0  0  0  0  0  0  0  0  0  0  0
  135.8836   74.4002  221.4593 H   0  0  0  0  0  0  0  0  0  0  0  0
  137.7898   76.8301  222.3598 H   0  0  0  0  0  0  0  0  0  0  0  0
  138.6670   75.6135  223.3004 H   0  0  0  0  0  0  0  0  0  0  0  0
  139.6288   78.1752  222.3390 H   0  0  0  0  0  0  0  0  0  0  0  0
  140.5429   76.9928  223.2720 H   0  0  0  0  0  0  0  0  0  0  0  0
  140.3572   77.3567  220.2581 H   0  0  0  0  0  0  0  0  0  0  0  0
  141.7555   76.8595  221.1836 H   0  0  0  0  0  0  0  0  0  0  0  0
  140.5053   74.8781  219.9193 H   0  0  0  0  0  0  0  0  0  0  0  0
  141.8771   74.1149  221.5283 H   0  0  0  0  0  0  0  0  0  0  0  0
  140.9301   75.0427  222.8397 H   0  0  0  0  0  0  0  0  0  0  0  0
  139.5590   73.3030  223.0990 H   0  0  0  0  0  0  0  0  0  0  0  0
  140.3389   71.2534  222.5224 H   0  0  0  0  0  0  0  0  0  0  0  0
  138.8949   71.0109  220.7778 H   0  0  0  0  0  0  0  0  0  0  0  0
  139.1808   72.6588  220.1891 H   0  0  0  0  0  0  0  0  0  0  0  0
  140.1913   70.2655  219.0838 H   0  0  0  0  0  0  0  0  0  0  0  0
  140.7342   71.9131  218.6788 H   0  0  0  0  0  0  0  0  0  0  0  0
  141.9120   69.9294  220.6494 H   0  0  0  0  0  0  0  0  0  0  0  0
  142.7678   70.8929  219.4814 H   0  0  0  0  0  0  0  0  0  0  0  0
  142.6979   71.8358  221.9901 H   0  0  0  0  0  0  0  0  0  0  0  0
  142.2712   73.0201  220.7932 H   0  0  0  0  0  0  0  0  0  0  0  0
  136.2888   69.3998  223.3652 H   0  0  0  0  0  0  0  0  0  0  0  0
  137.3581   68.1347  225.2078 H   0  0  0  0  0  0  0  0  0  0  0  0
  139.0606   67.9466  226.8872 H   0  0  0  0  0  0  0  0  0  0  0  0
  141.9088   71.0956  227.2756 H   0  0  0  0  0  0  0  0  0  0  0  0
  140.8425   72.3400  225.4421 H   0  0  0  0  0  0  0  0  0  0  0  0
  1  2  2  0
  2  3  1  0
  3  4  1  0
  4  5  1  0
  5  6  2  0
  5  7  1  0
  7  8  1  0
  8  9  1  0
  9 10  1  0
 10 11  1  0
 11 12  1  0
 12 13  1  0
 13 14  1  0
 14 15  1  0
 15 16  1  0
 16 17  1  0
 17 18  1  0
  2 19  1  0
 19 20  2  0
 20 21  1  0
 21 22  2  0
 22 23  1  0
 23 24  2  0
 24 25  1  0
 24 26  1  0
 26 27  2  0
 27 28  1  0
 28 29  2  0
 11  7  1  0
 18 14  1  0
 29 19  1  0
 28 22  1  0
  3 30  1  0
  4 31  1  0
  4 32  1  0
  8 33  1  0
  8 34  1  0
  9 35  1  0
  9 36  1  0
 10 37  1  0
 10 38  1  0
 11 39  1  6
 12 40  1  0
 12 41  1  0
 13 42  1  0
 14 43  1  0
 15 44  1  0
 15 45  1  0
 16 46  1  0
 16 47  1  0
 17 48  1  0
 17 49  1  0
 18 50  1  0
 18 51  1  0
 20 52  1  0
 21 53  1  0
 23 54  1  0
 26 55  1  0
 27 56  1  0
M  END
>  <smiles>  (30) 
O=C(NCC(=O)N1CCC[C@H]1CNC1CCCC1)c1ccc2cc(Cl)ccc2n1

>  <score_type>  (30) 
oracle

>  <origin>  (30) 
autodockgpu

>  <m_score__min__energy>  (30) 
-8.4399999999999995

>  <m_primary>  (30) 
energy

>  <rmsd>  (30) 
5.024742393702031

>  <m_score__min__rmsd>  (30) 
5.024742393702031

>  <meeko>  (30) 
{"free_energy": -6.23, "intermolecular_energy": -8.32, "internal_energy": -4.04, "cluster_size": 3, "cluster_id": 7, "rank_in_cluster": 3}

>  <energy>  (30) 
-6.81

>  <cluster_rmsd>  (30) 
0.0

>  <cluster>  (30) 
3

$$$$

     RDKit          3D

 56 59  0  0  0  0  0  0  0  0999 V2000
  139.5810   73.9570  222.3480 O   0  0  0  0  0  0  0  0  0  0  0  0
  140.2150   72.8810  222.2010 C   0  0  0  0  0  0  0  0  0  0  0  0
  140.9220   72.5780  221.0160 N   0  0  0  0  0  0  0  0  0  0  0  0
  140.9350   73.5310  219.9130 C   0  0  0  0  0  0  0  0  0  0  0  0
  141.3610   74.8550  220.3990 C   0  0  0  0  0  0  0  0  0  0  0  0
  142.4560   74.9140  221.0500 O   0  0  0  0  0  0  0  0  0  0  0  0
  140.6720   76.0580  220.2120 N   0  0  0  0  0  0  0  0  0  0  0  0
  139.3140   76.3100  220.6300 C   0  0  0  0  0  0  0  0  0  0  0  0
  138.7800   77.3570  219.6850 C   0  0  0  0  0  0  0  0  0  0  0  0
  139.9280   77.6400  218.7360 C   0  0  0  0  0  0  0  0  0  0  0  0
  141.1350   77.3090  219.5690 C   0  0  1  0  0  0  0  0  0  0  0  0
  141.3330   78.3570  220.6250 C   0  0  0  0  0  0  0  0  0  0  0  0
  141.7820   77.9490  221.8860 N   0  0  0  0  0  0  0  0  0  0  0  0
  141.6930   78.7960  223.0060 C   0  0  0  0  0  0  0  0  0  0  0  0
  142.8410   79.7440  223.0930 C   0  0  0  0  0  0  0  0  0  0  0  0
  142.2550   81.0790  223.4270 C   0  0  0  0  0  0  0  0  0  0  0  0
  140.8230   80.8660  223.7690 C   0  0  0  0  0  0  0  0  0  0  0  0
  140.4610   79.7100  222.8320 C   0  0  0  0  0  0  0  0  0  0  0  0
  140.2280   71.8910  223.2920 C   0  0  0  0  0  0  0  0  0  0  0  0
  139.7670   70.6090  223.0520 C   0  0  0  0  0  0  0  0  0  0  0  0
  139.7660   69.6540  224.0610 C   0  0  0  0  0  0  0  0  0  0  0  0
  140.2210   69.9620  225.3150 C   0  0  0  0  0  0  0  0  0  0  0  0
  140.2240   69.0300  226.3140 C   0  0  0  0  0  0  0  0  0  0  0  0
  140.6820   69.3650  227.5510 C   0  0  0  0  0  0  0  0  0  0  0  0
  140.6730   68.1440  228.8110 Cl  0  0  0  0  0  0  0  0  0  0  0  0
  141.1350   70.6480  227.7590 C   0  0  0  0  0  0  0  0  0  0  0  0
  141.1360   71.5930  226.7590 C   0  0  0  0  0  0  0  0  0  0  0  0
  140.6750   71.2630  225.5110 C   0  0  0  0  0  0  0  0  0  0  0  0
  140.6670   72.1750  224.5130 N   0  0  0  0  0  0  0  0  0  0  0  0
  141.4390   71.6770  220.9200 H   0  0  0  0  0  0  0  0  0  0  0  0
  141.6356   73.1838  219.1393 H   0  0  0  0  0  0  0  0  0  0  0  0
  139.9226   73.6091  219.4900 H   0  0  0  0  0  0  0  0  0  0  0  0
  138.7150   75.3901  220.5604 H   0  0  0  0  0  0  0  0  0  0  0  0
  139.2687   76.6481  221.6758 H   0  0  0  0  0  0  0  0  0  0  0  0
  137.9074   76.9745  219.1352 H   0  0  0  0  0  0  0  0  0  0  0  0
  138.4437   78.2615  220.2129 H   0  0  0  0  0  0  0  0  0  0  0  0
  139.8731   76.9979  217.8445 H   0  0  0  0  0  0  0  0  0  0  0  0
  139.9324   78.6706  218.3515 H   0  0  0  0  0  0  0  0  0  0  0  0
  142.0790   77.2383  219.0087 H   0  0  0  0  0  0  0  0  0  0  0  0
  142.0666   79.0781  220.2353 H   0  0  0  0  0  0  0  0  0  0  0  0
  140.3230   78.7515  220.8100 H   0  0  0  0  0  0  0  0  0  0  0  0
  142.1320   76.9960  222.0130 H   0  0  0  0  0  0  0  0  0  0  0  0
  141.6565   78.1444  223.8915 H   0  0  0  0  0  0  0  0  0  0  0  0
  143.5393   79.4260  223.8812 H   0  0  0  0  0  0  0  0  0  0  0  0
  143.4050   79.7785  222.1492 H   0  0  0  0  0  0  0  0  0  0  0  0
  142.7849   81.5176  224.2854 H   0  0  0  0  0  0  0  0  0  0  0  0
  142.3515   81.7684  222.5753 H   0  0  0  0  0  0  0  0  0  0  0  0
  140.6986   80.5830  224.8247 H   0  0  0  0  0  0  0  0  0  0  0  0
  140.1926   81.7592  223.6477 H   0  0  0  0  0  0  0  0  0  0  0  0
  139.5360   79.2066  223.1496 H   0  0  0  0  0  0  0  0  0  0  0  0
  140.2627   80.0123  221.7931 H   0  0  0  0  0  0  0  0  0  0  0  0
  139.3970   70.3427  222.0509 H   0  0  0  0  0  0  0  0  0  0  0  0
  139.3958   68.6398  223.8502 H   0  0  0  0  0  0  0  0  0  0  0  0
  139.8572   68.0115  226.1190 H   0  0  0  0  0  0  0  0  0  0  0  0
  141.5078   70.9265  228.7557 H   0  0  0  0  0  0  0  0  0  0  0  0
  141.5053   72.6094  226.9602 H   0  0  0  0  0  0  0  0  0  0  0  0
  1  2  2  0
  2  3  1  0
  3  4  1  0
  4  5  1  0
  5  6  2  0
  5  7  1  0
  7  8  1  0
  8  9  1  0
  9 10  1  0
 10 11  1  0
 11 12  1  0
 12 13  1  0
 13 14  1  0
 14 15  1  0
 15 16  1  0
 16 17  1  0
 17 18  1  0
  2 19  1  0
 19 20  2  0
 20 21  1  0
 21 22  2  0
 22 23  1  0
 23 24  2  0
 24 25  1  0
 24 26  1  0
 26 27  2  0
 27 28  1  0
 28 29  2  0
 11  7  1  0
 18 14  1  0
 29 19  1  0
 28 22  1  0
  3 30  1  0
  4 31  1  0
  4 32  1  0
  8 33  1  0
  8 34  1  0
  9 35  1  0
  9 36  1  0
 10 37  1  0
 10 38  1  0
 11 39  1  6
 12 40  1  0
 12 41  1  0
 13 42  1  0
 14 43  1  0
 15 44  1  0
 15 45  1  0
 16 46  1  0
 16 47  1  0
 17 48  1  0
 17 49  1  0
 18 50  1  0
 18 51  1  0
 20 52  1  0
 21 53  1  0
 23 54  1  0
 26 55  1  0
 27 56  1  0
M  END
>  <smiles>  (31) 
O=C(NCC(=O)N1CCC[C@H]1CNC1CCCC1)c1ccc2cc(Cl)ccc2n1

>  <score_type>  (31) 
oracle

>  <origin>  (31) 
autodockgpu

>  <m_score__min__energy>  (31) 
-8.4399999999999995

>  <m_primary>  (31) 
energy

>  <rmsd>  (31) 
2.3989064421947774

>  <m_score__min__rmsd>  (31) 
2.3989064421947774

>  <meeko>  (31) 
{"free_energy": -7.96, "intermolecular_energy": -10.05, "internal_energy": -2.02, "cluster_size": 28, "cluster_id": 1, "rank_in_cluster": 14}

>  <energy>  (31) 
-6.56

>  <cluster_rmsd>  (31) 
0.0

>  <cluster>  (31) 
4

$$$$

     RDKit          3D

 56 59  0  0  0  0  0  0  0  0999 V2000
  139.6060   71.9310  220.6990 O   0  0  0  0  0  0  0  0  0  0  0  0
  139.6280   72.4110  221.8600 C   0  0  0  0  0  0  0  0  0  0  0  0
  139.5350   73.8000  222.1060 N   0  0  0  0  0  0  0  0  0  0  0  0
  139.4070   74.7280  220.9880 C   0  0  0  0  0  0  0  0  0  0  0  0
  140.3690   75.8320  221.1420 C   0  0  0  0  0  0  0  0  0  0  0  0
  140.6320   76.2170  222.3300 O   0  0  0  0  0  0  0  0  0  0  0  0
  141.0240   76.5000  220.1020 N   0  0  0  0  0  0  0  0  0  0  0  0
  140.6970   76.3780  218.7020 C   0  0  0  0  0  0  0  0  0  0  0  0
  141.9760   76.6600  217.9540 C   0  0  0  0  0  0  0  0  0  0  0  0
  143.0020   76.9310  219.0360 C   0  0  0  0  0  0  0  0  0  0  0  0
  142.1600   77.4480  220.1690 C   0  0  1  0  0  0  0  0  0  0  0  0
  141.6640   78.8290  219.8530 C   0  0  0  0  0  0  0  0  0  0  0  0
  142.1880   79.9030  220.5810 N   0  0  0  0  0  0  0  0  0  0  0  0
  141.7500   80.1870  221.8870 C   0  0  0  0  0  0  0  0  0  0  0  0
  140.3630   79.7030  222.1390 C   0  0  0  0  0  0  0  0  0  0  0  0
  140.3870   79.0440  223.4810 C   0  0  0  0  0  0  0  0  0  0  0  0
  141.7010   79.3540  224.1070 C   0  0  0  0  0  0  0  0  0  0  0  0
  142.6170   79.3820  222.8800 C   0  0  0  0  0  0  0  0  0  0  0  0
  139.7550   71.5070  223.0180 C   0  0  0  0  0  0  0  0  0  0  0  0
  139.2940   70.2070  222.9190 C   0  0  0  0  0  0  0  0  0  0  0  0
  139.3990   69.3330  223.9930 C   0  0  0  0  0  0  0  0  0  0  0  0
  139.9610   69.7400  225.1740 C   0  0  0  0  0  0  0  0  0  0  0  0
  140.0680   68.8880  226.2360 C   0  0  0  0  0  0  0  0  0  0  0  0
  140.6320   69.3210  227.3960 C   0  0  0  0  0  0  0  0  0  0  0  0
  140.7540   68.2000  228.7420 Cl  0  0  0  0  0  0  0  0  0  0  0  0
  141.0820   70.6200  227.4650 C   0  0  0  0  0  0  0  0  0  0  0  0
  140.9780   71.4850  226.4000 C   0  0  0  0  0  0  0  0  0  0  0  0
  140.4110   71.0560  225.2280 C   0  0  0  0  0  0  0  0  0  0  0  0
  140.2980   71.8880  224.1690 N   0  0  0  0  0  0  0  0  0  0  0  0
  139.5570   74.1710  223.0800 H   0  0  0  0  0  0  0  0  0  0  0  0
  139.6098   74.1958  220.0469 H   0  0  0  0  0  0  0  0  0  0  0  0
  138.3858   75.1365  220.9709 H   0  0  0  0  0  0  0  0  0  0  0  0
  140.3395   75.3618  218.4795 H   0  0  0  0  0  0  0  0  0  0  0  0
  139.8967   77.0745  218.4115 H   0  0  0  0  0  0  0  0  0  0  0  0
  142.2711   75.7904  217.3484 H   0  0  0  0  0  0  0  0  0  0  0  0
  141.8731   77.5046  217.2568 H   0  0  0  0  0  0  0  0  0  0  0  0
  143.5292   76.0090  219.3224 H   0  0  0  0  0  0  0  0  0  0  0  0
  143.7906   77.6314  218.7237 H   0  0  0  0  0  0  0  0  0  0  0  0
  142.6761   77.5094  221.1385 H   0  0  0  0  0  0  0  0  0  0  0  0
  141.8806   79.0182  218.7913 H   0  0  0  0  0  0  0  0  0  0  0  0
  140.5996   78.8060  220.1297 H   0  0  0  0  0  0  0  0  0  0  0  0
  142.9450   80.4630  220.1800 H   0  0  0  0  0  0  0  0  0  0  0  0
  141.8103   81.2786  222.0085 H   0  0  0  0  0  0  0  0  0  0  0  0
  139.6591   80.5483  222.1421 H   0  0  0  0  0  0  0  0  0  0  0  0
  140.0345   79.0041  221.3557 H   0  0  0  0  0  0  0  0  0  0  0  0
  139.5711   79.4354  224.1065 H   0  0  0  0  0  0  0  0  0  0  0  0
  140.2515   77.9569  223.3817 H   0  0  0  0  0  0  0  0  0  0  0  0
  141.6837   80.3273  224.6192 H   0  0  0  0  0  0  0  0  0  0  0  0
  142.0100   78.6397  224.8844 H   0  0  0  0  0  0  0  0  0  0  0  0
  143.5663   79.8943  223.0956 H   0  0  0  0  0  0  0  0  0  0  0  0
  142.9209   78.3891  222.5169 H   0  0  0  0  0  0  0  0  0  0  0  0
  138.8391   69.8614  221.9790 H   0  0  0  0  0  0  0  0  0  0  0  0
  139.0268   68.3026  223.8943 H   0  0  0  0  0  0  0  0  0  0  0  0
  139.6993   67.8549  226.1538 H   0  0  0  0  0  0  0  0  0  0  0  0
  141.5386   70.9774  228.3998 H   0  0  0  0  0  0  0  0  0  0  0  0
  141.3485   72.5169  226.4887 H   0  0  0  0  0  0  0  0  0  0  0  0
  1  2  2  0
  2  3  1  0
  3  4  1  0
  4  5  1  0
  5  6  2  0
  5  7  1  0
  7  8  1  0
  8  9  1  0
  9 10  1  0
 10 11  1  0
 11 12  1  0
 12 13  1  0
 13 14  1  0
 14 15  1  0
 15 16  1  0
 16 17  1  0
 17 18  1  0
  2 19  1  0
 19 20  2  0
 20 21  1  0
 21 22  2  0
 22 23  1  0
 23 24  2  0
 24 25  1  0
 24 26  1  0
 26 27  2  0
 27 28  1  0
 28 29  2  0
 11  7  1  0
 18 14  1  0
 29 19  1  0
 28 22  1  0
  3 30  1  0
  4 31  1  0
  4 32  1  0
  8 33  1  0
  8 34  1  0
  9 35  1  0
  9 36  1  0
 10 37  1  0
 10 38  1  0
 11 39  1  1
 12 40  1  0
 12 41  1  0
 13 42  1  0
 14 43  1  0
 15 44  1  0
 15 45  1  0
 16 46  1  0
 16 47  1  0
 17 48  1  0
 17 49  1  0
 18 50  1  0
 18 51  1  0
 20 52  1  0
 21 53  1  0
 23 54  1  0
 26 55  1  0
 27 56  1  0
M  END
>  <smiles>  (32) 
O=C(NCC(=O)N1CCC[C@H]1CNC1CCCC1)c1ccc2cc(Cl)ccc2n1

>  <score_type>  (32) 
oracle

>  <origin>  (32) 
autodockgpu

>  <m_score__min__energy>  (32) 
-8.4399999999999995

>  <m_primary>  (32) 
energy

>  <rmsd>  (32) 
2.120452852142923

>  <m_score__min__rmsd>  (32) 
2.120452852142923

>  <meeko>  (32) 
{"free_energy": -8.2, "intermolecular_energy": -10.29, "internal_energy": -2.13, "cluster_size": 28, "cluster_id": 1, "rank_in_cluster": 7}

>  <energy>  (32) 
-6.44

>  <cluster_rmsd>  (32) 
0.0

>  <cluster>  (32) 
5

$$$$

     RDKit          3D

 56 59  0  0  0  0  0  0  0  0999 V2000
  139.7720   71.9270  220.7360 O   0  0  0  0  0  0  0  0  0  0  0  0
  139.7380   72.3990  221.9000 C   0  0  0  0  0  0  0  0  0  0  0  0
  139.5920   73.7820  222.1500 N   0  0  0  0  0  0  0  0  0  0  0  0
  139.4750   74.7140  221.0350 C   0  0  0  0  0  0  0  0  0  0  0  0
  139.8570   76.0680  221.4710 C   0  0  0  0  0  0  0  0  0  0  0  0
  140.1740   76.2190  222.6980 O   0  0  0  0  0  0  0  0  0  0  0  0
  139.9070   77.2070  220.6610 N   0  0  0  0  0  0  0  0  0  0  0  0
  138.9780   78.3090  220.7220 C   0  0  0  0  0  0  0  0  0  0  0  0
  138.9600   78.9110  219.3390 C   0  0  0  0  0  0  0  0  0  0  0  0
  139.9270   78.0600  218.5390 C   0  0  0  0  0  0  0  0  0  0  0  0
  140.8720   77.5520  219.5920 C   0  0  1  0  0  0  0  0  0  0  0  0
  141.7550   78.6660  220.0700 C   0  0  0  0  0  0  0  0  0  0  0  0
  142.1780   78.6490  221.4040 N   0  0  0  0  0  0  0  0  0  0  0  0
  142.5740   79.8270  222.0640 C   0  0  0  0  0  0  0  0  0  0  0  0
  141.8550   81.0310  221.5550 C   0  0  0  0  0  0  0  0  0  0  0  0
  141.4450   81.8140  222.7620 C   0  0  0  0  0  0  0  0  0  0  0  0
  142.1230   81.2060  223.9390 C   0  0  0  0  0  0  0  0  0  0  0  0
  142.1430   79.7280  223.5430 C   0  0  0  0  0  0  0  0  0  0  0  0
  139.8520   71.4910  223.0550 C   0  0  0  0  0  0  0  0  0  0  0  0
  139.4390   70.1770  222.9310 C   0  0  0  0  0  0  0  0  0  0  0  0
  139.5340   69.2990  224.0030 C   0  0  0  0  0  0  0  0  0  0  0  0
  140.0370   69.7150  225.2060 C   0  0  0  0  0  0  0  0  0  0  0  0
  140.1330   68.8590  226.2660 C   0  0  0  0  0  0  0  0  0  0  0  0
  140.6370   69.3020  227.4500 C   0  0  0  0  0  0  0  0  0  0  0  0
  140.7480   68.1760  228.7910 Cl  0  0  0  0  0  0  0  0  0  0  0  0
  141.0410   70.6150  227.5430 C   0  0  0  0  0  0  0  0  0  0  0  0
  140.9470   71.4840  226.4810 C   0  0  0  0  0  0  0  0  0  0  0  0
  140.4400   71.0450  225.2860 C   0  0  0  0  0  0  0  0  0  0  0  0
  140.3380   71.8810  224.2280 N   0  0  0  0  0  0  0  0  0  0  0  0
  139.5670   74.1470  223.1270 H   0  0  0  0  0  0  0  0  0  0  0  0
  140.1396   74.3924  220.2196 H   0  0  0  0  0  0  0  0  0  0  0  0
  138.4332   74.7276  220.6823 H   0  0  0  0  0  0  0  0  0  0  0  0
  137.9752   77.9494  220.9959 H   0  0  0  0  0  0  0  0  0  0  0  0
  139.2766   79.0477  221.4804 H   0  0  0  0  0  0  0  0  0  0  0  0
  137.9497   78.8612  218.9069 H   0  0  0  0  0  0  0  0  0  0  0  0
  139.2441   79.9737  219.3428 H   0  0  0  0  0  0  0  0  0  0  0  0
  139.4054   77.2296  218.0406 H   0  0  0  0  0  0  0  0  0  0  0  0
  140.4300   78.6134  217.7323 H   0  0  0  0  0  0  0  0  0  0  0  0
  141.5359   76.7380  219.2654 H   0  0  0  0  0  0  0  0  0  0  0  0
  142.6578   78.6591  219.4416 H   0  0  0  0  0  0  0  0  0  0  0  0
  141.1246   79.5644  219.9955 H   0  0  0  0  0  0  0  0  0  0  0  0
  142.1470   77.7730  221.9320 H   0  0  0  0  0  0  0  0  0  0  0  0
  143.6588   79.9251  221.9101 H   0  0  0  0  0  0  0  0  0  0  0  0
  142.5211   81.6322  220.9187 H   0  0  0  0  0  0  0  0  0  0  0  0
  140.9839   80.7495  220.9451 H   0  0  0  0  0  0  0  0  0  0  0  0
  141.7535   82.8641  222.6515 H   0  0  0  0  0  0  0  0  0  0  0  0
  140.3525   81.7895  222.8879 H   0  0  0  0  0  0  0  0  0  0  0  0
  143.1411   81.6025  224.0665 H   0  0  0  0  0  0  0  0  0  0  0  0
  141.6262   81.4084  224.8993 H   0  0  0  0  0  0  0  0  0  0  0  0
  142.8719   79.1595  224.1393 H   0  0  0  0  0  0  0  0  0  0  0  0
  141.1906   79.2017  223.7042 H   0  0  0  0  0  0  0  0  0  0  0  0
  139.0307   69.8233  221.9728 H   0  0  0  0  0  0  0  0  0  0  0  0
  139.2012   68.2574  223.8838 H   0  0  0  0  0  0  0  0  0  0  0  0
  139.8039   67.8145  226.1630 H   0  0  0  0  0  0  0  0  0  0  0  0
  141.4516   70.9802  228.4959 H   0  0  0  0  0  0  0  0  0  0  0  0
  141.2776   72.5274  226.5905 H   0  0  0  0  0  0  0  0  0  0  0  0
  1  2  2  0
  2  3  1  0
  3  4  1  0
  4  5  1  0
  5  6  2  0
  5  7  1  0
  7  8  1  0
  8  9  1  0
  9 10  1  0
 10 11  1  0
 11 12  1  0
 12 13  1  0
 13 14  1  0
 14 15  1  0
 15 16  1  0
 16 17  1  0
 17 18  1  0
  2 19  1  0
 19 20  2  0
 20 21  1  0
 21 22  2  0
 22 23  1  0
 23 24  2  0
 24 25  1  0
 24 26  1  0
 26 27  2  0
 27 28  1  0
 28 29  2  0
 11  7  1  0
 18 14  1  0
 29 19  1  0
 28 22  1  0
  3 30  1  0
  4 31  1  0
  4 32  1  0
  8 33  1  0
  8 34  1  0
  9 35  1  0
  9 36  1  0
 10 37  1  0
 10 38  1  0
 11 39  1  6
 12 40  1  0
 12 41  1  0
 13 42  1  0
 14 43  1  0
 15 44  1  0
 15 45  1  0
 16 46  1  0
 16 47  1  0
 17 48  1  0
 17 49  1  0
 18 50  1  0
 18 51  1  0
 20 52  1  0
 21 53  1  0
 23 54  1  0
 26 55  1  0
 27 56  1  0
M  END
>  <smiles>  (33) 
O=C(NCC(=O)N1CCC[C@H]1CNC1CCCC1)c1ccc2cc(Cl)ccc2n1

>  <score_type>  (33) 
oracle

>  <origin>  (33) 
autodockgpu

>  <m_score__min__energy>  (33) 
-8.4399999999999995

>  <m_primary>  (33) 
energy

>  <rmsd>  (33) 
2.210765721879167

>  <m_score__min__rmsd>  (33) 
2.210765721879167

>  <meeko>  (33) 
{"free_energy": -8.11, "intermolecular_energy": -10.2, "internal_energy": -2.49, "cluster_size": 28, "cluster_id": 1, "rank_in_cluster": 9}

>  <energy>  (33) 
-6.31

>  <cluster_rmsd>  (33) 
0.63

>  <cluster>  (33) 
5

$$$$

     RDKit          3D

 56 59  0  0  0  0  0  0  0  0999 V2000
  140.5960   72.2950  220.9070 O   0  0  0  0  0  0  0  0  0  0  0  0
  140.0540   72.6330  221.9890 C   0  0  0  0  0  0  0  0  0  0  0  0
  139.4480   73.8970  222.1670 N   0  0  0  0  0  0  0  0  0  0  0  0
  139.4360   74.8580  221.0710 C   0  0  0  0  0  0  0  0  0  0  0  0
  140.5340   75.8260  221.2410 C   0  0  0  0  0  0  0  0  0  0  0  0
  141.1780   75.7910  222.3410 O   0  0  0  0  0  0  0  0  0  0  0  0
  140.9380   76.7820  220.3020 N   0  0  0  0  0  0  0  0  0  0  0  0
  141.0090   78.2020  220.5430 C   0  0  0  0  0  0  0  0  0  0  0  0
  140.8050   78.8590  219.2010 C   0  0  0  0  0  0  0  0  0  0  0  0
  140.6130   77.7060  218.2350 C   0  0  0  0  0  0  0  0  0  0  0  0
  141.3690   76.5880  218.8990 C   0  0  1  0  0  0  0  0  0  0  0  0
  142.8450   76.8380  218.8010 C   0  0  0  0  0  0  0  0  0  0  0  0
  143.6840   76.2180  219.7340 N   0  0  0  0  0  0  0  0  0  0  0  0
  144.0460   74.8640  219.6110 C   0  0  0  0  0  0  0  0  0  0  0  0
  145.1850   74.4980  220.5010 C   0  0  0  0  0  0  0  0  0  0  0  0
  144.8190   73.1930  221.1340 C   0  0  0  0  0  0  0  0  0  0  0  0
  143.6020   72.6880  220.4410 C   0  0  0  0  0  0  0  0  0  0  0  0
  142.8750   73.9970  220.1210 C   0  0  0  0  0  0  0  0  0  0  0  0
  140.0440   71.6910  223.1220 C   0  0  0  0  0  0  0  0  0  0  0  0
  139.4940   70.4330  222.9540 C   0  0  0  0  0  0  0  0  0  0  0  0
  139.4680   69.5230  224.0040 C   0  0  0  0  0  0  0  0  0  0  0  0
  139.9860   69.8530  225.2280 C   0  0  0  0  0  0  0  0  0  0  0  0
  139.9650   68.9660  226.2660 C   0  0  0  0  0  0  0  0  0  0  0  0
  140.4870   69.3230  227.4710 C   0  0  0  0  0  0  0  0  0  0  0  0
  140.4440   68.1590  228.7840 Cl  0  0  0  0  0  0  0  0  0  0  0  0
  141.0270   70.5820  227.6080 C   0  0  0  0  0  0  0  0  0  0  0  0
  141.0530   71.4810  226.5680 C   0  0  0  0  0  0  0  0  0  0  0  0
  140.5280   71.1290  225.3510 C   0  0  0  0  0  0  0  0  0  0  0  0
  140.5420   71.9970  224.3140 N   0  0  0  0  0  0  0  0  0  0  0  0
  139.0070   74.1530  223.0770 H   0  0  0  0  0  0  0  0  0  0  0  0
  139.5639   74.3251  220.1172 H   0  0  0  0  0  0  0  0  0  0  0  0
  138.4762   75.3953  221.0708 H   0  0  0  0  0  0  0  0  0  0  0  0
  140.2200   78.5111  221.2444 H   0  0  0  0  0  0  0  0  0  0  0  0
  141.9720   78.4883  220.9909 H   0  0  0  0  0  0  0  0  0  0  0  0
  139.9147   79.5049  219.2163 H   0  0  0  0  0  0  0  0  0  0  0  0
  141.6513   79.5026  218.9190 H   0  0  0  0  0  0  0  0  0  0  0  0
  139.5479   77.4540  218.1250 H   0  0  0  0  0  0  0  0  0  0  0  0
  140.9658   77.9267  217.2167 H   0  0  0  0  0  0  0  0  0  0  0  0
  141.1866   75.5891  218.4760 H   0  0  0  0  0  0  0  0  0  0  0  0
  143.1664   76.5067  217.8025 H   0  0  0  0  0  0  0  0  0  0  0  0
  142.9538   77.9128  219.0084 H   0  0  0  0  0  0  0  0  0  0  0  0
  144.0900   76.7710  220.4940 H   0  0  0  0  0  0  0  0  0  0  0  0
  144.3083   74.7024  218.5550 H   0  0  0  0  0  0  0  0  0  0  0  0
  146.1087   74.3907  219.9133 H   0  0  0  0  0  0  0  0  0  0  0  0
  145.3659   75.2740  221.2594 H   0  0  0  0  0  0  0  0  0  0  0  0
  145.6435   72.4743  221.0175 H   0  0  0  0  0  0  0  0  0  0  0  0
  144.6278   73.3230  222.2094 H   0  0  0  0  0  0  0  0  0  0  0  0
  143.8598   72.1361  219.5251 H   0  0  0  0  0  0  0  0  0  0  0  0
  143.0086   71.9760  221.0334 H   0  0  0  0  0  0  0  0  0  0  0  0
  142.1090   73.8548  219.3445 H   0  0  0  0  0  0  0  0  0  0  0  0
  142.3245   74.4302  220.9691 H   0  0  0  0  0  0  0  0  0  0  0  0
  139.0724   70.1497  221.9783 H   0  0  0  0  0  0  0  0  0  0  0  0
  139.0267   68.5272  223.8503 H   0  0  0  0  0  0  0  0  0  0  0  0
  139.5275   67.9661  226.1286 H   0  0  0  0  0  0  0  0  0  0  0  0
  141.4506   70.8777  228.5792 H   0  0  0  0  0  0  0  0  0  0  0  0
  141.4932   72.4788  226.7116 H   0  0  0  0  0  0  0  0  0  0  0  0
  1  2  2  0
  2  3  1  0
  3  4  1  0
  4  5  1  0
  5  6  2  0
  5  7  1  0
  7  8  1  0
  8  9  1  0
  9 10  1  0
 10 11  1  0
 11 12  1  0
 12 13  1  0
 13 14  1  0
 14 15  1  0
 15 16  1  0
 16 17  1  0
 17 18  1  0
  2 19  1  0
 19 20  2  0
 20 21  1  0
 21 22  2  0
 22 23  1  0
 23 24  2  0
 24 25  1  0
 24 26  1  0
 26 27  2  0
 27 28  1  0
 28 29  2  0
 11  7  1  0
 18 14  1  0
 29 19  1  0
 28 22  1  0
  3 30  1  0
  4 31  1  0
  4 32  1  0
  8 33  1  0
  8 34  1  0
  9 35  1  0
  9 36  1  0
 10 37  1  0
 10 38  1  0
 11 39  1  6
 12 40  1  0
 12 41  1  0
 13 42  1  0
 14 43  1  0
 15 44  1  0
 15 45  1  0
 16 46  1  0
 16 47  1  0
 17 48  1  0
 17 49  1  0
 18 50  1  0
 18 51  1  0
 20 52  1  0
 21 53  1  0
 23 54  1  0
 26 55  1  0
 27 56  1  0
M  END
>  <smiles>  (34) 
O=C(NCC(=O)N1CCC[C@H]1CNC1CCCC1)c1ccc2cc(Cl)ccc2n1

>  <score_type>  (34) 
oracle

>  <origin>  (34) 
autodockgpu

>  <m_score__min__energy>  (34) 
-8.4399999999999995

>  <m_primary>  (34) 
energy

>  <rmsd>  (34) 
4.243754617883475

>  <m_score__min__rmsd>  (34) 
4.243754617883475

>  <meeko>  (34) 
{"free_energy": -7.91, "intermolecular_energy": -9.99, "internal_energy": -2.09, "cluster_size": 28, "cluster_id": 1, "rank_in_cluster": 17}

>  <energy>  (34) 
-6.28

>  <cluster_rmsd>  (34) 
0.57

>  <cluster>  (34) 
5

$$$$

     RDKit          3D

 56 59  0  0  0  0  0  0  0  0999 V2000
  139.4200   72.1420  221.9080 O   0  0  0  0  0  0  0  0  0  0  0  0
  140.1770   73.1060  221.6320 C   0  0  0  0  0  0  0  0  0  0  0  0
  141.4440   72.9240  221.0320 N   0  0  0  0  0  0  0  0  0  0  0  0
  141.9090   71.5800  220.7110 C   0  0  0  0  0  0  0  0  0  0  0  0
  143.0930   71.6550  219.8370 C   0  0  0  0  0  0  0  0  0  0  0  0
  143.2110   70.7620  218.9340 O   0  0  0  0  0  0  0  0  0  0  0  0
  144.1020   72.6220  219.9040 N   0  0  0  0  0  0  0  0  0  0  0  0
  145.2460   72.6890  219.0280 C   0  0  0  0  0  0  0  0  0  0  0  0
  146.3350   73.3640  219.8240 C   0  0  0  0  0  0  0  0  0  0  0  0
  145.7070   73.6430  221.1740 C   0  0  0  0  0  0  0  0  0  0  0  0
  144.2450   73.7590  220.8420 C   0  0  1  0  0  0  0  0  0  0  0  0
  143.9860   75.0390  220.1030 C   0  0  0  0  0  0  0  0  0  0  0  0
  142.7930   75.7230  220.3630 N   0  0  0  0  0  0  0  0  0  0  0  0
  142.1070   76.4140  219.3480 C   0  0  0  0  0  0  0  0  0  0  0  0
  141.8600   77.8420  219.7010 C   0  0  0  0  0  0  0  0  0  0  0  0
  142.2000   78.6390  218.4810 C   0  0  0  0  0  0  0  0  0  0  0  0
  142.4050   77.6770  217.3630 C   0  0  0  0  0  0  0  0  0  0  0  0
  143.0170   76.4850  218.1030 C   0  0  0  0  0  0  0  0  0  0  0  0
  139.7450   74.4810  221.9400 C   0  0  0  0  0  0  0  0  0  0  0  0
  138.3960   74.7860  221.9320 C   0  0  0  0  0  0  0  0  0  0  0  0
  137.9580   76.0740  222.2170 C   0  0  0  0  0  0  0  0  0  0  0  0
  138.8530   77.0680  222.5100 C   0  0  0  0  0  0  0  0  0  0  0  0
  138.4320   78.3370  222.7910 C   0  0  0  0  0  0  0  0  0  0  0  0
  139.3450   79.3040  223.0790 C   0  0  0  0  0  0  0  0  0  0  0  0
  138.7700   80.9230  223.4360 Cl  0  0  0  0  0  0  0  0  0  0  0  0
  140.6800   78.9690  223.0800 C   0  0  0  0  0  0  0  0  0  0  0  0
  141.1130   77.6940  222.7990 C   0  0  0  0  0  0  0  0  0  0  0  0
  140.1990   76.7150  222.5070 C   0  0  0  0  0  0  0  0  0  0  0  0
  140.6010   75.4550  222.2270 N   0  0  0  0  0  0  0  0  0  0  0  0
  142.0530   73.7420  220.8150 H   0  0  0  0  0  0  0  0  0  0  0  0
  142.1740   71.0540  221.6400 H   0  0  0  0  0  0  0  0  0  0  0  0
  141.1083   71.0342  220.1905 H   0  0  0  0  0  0  0  0  0  0  0  0
  145.5601   71.6777  218.7303 H   0  0  0  0  0  0  0  0  0  0  0  0
  145.0171   73.2423  218.1053 H   0  0  0  0  0  0  0  0  0  0  0  0
  147.2057   72.7004  219.9308 H   0  0  0  0  0  0  0  0  0  0  0  0
  146.6998   74.2804  219.3370 H   0  0  0  0  0  0  0  0  0  0  0  0
  145.8899   72.8153  221.8750 H   0  0  0  0  0  0  0  0  0  0  0  0
  146.1143   74.5375  221.6680 H   0  0  0  0  0  0  0  0  0  0  0  0
  143.5702   73.7512  221.7107 H   0  0  0  0  0  0  0  0  0  0  0  0
  144.8131   75.7248  220.3387 H   0  0  0  0  0  0  0  0  0  0  0  0
  143.9009   74.7332  219.0498 H   0  0  0  0  0  0  0  0  0  0  0  0
  142.3770   75.6760  221.2970 H   0  0  0  0  0  0  0  0  0  0  0  0
  141.1579   75.8809  219.1899 H   0  0  0  0  0  0  0  0  0  0  0  0
  140.8042   77.9907  219.9715 H   0  0  0  0  0  0  0  0  0  0  0  0
  142.4672   78.1521  220.5642 H   0  0  0  0  0  0  0  0  0  0  0  0
  141.3758   79.3262  218.2392 H   0  0  0  0  0  0  0  0  0  0  0  0
  143.1072   79.2380  218.6490 H   0  0  0  0  0  0  0  0  0  0  0  0
  141.4524   77.4076  216.8835 H   0  0  0  0  0  0  0  0  0  0  0  0
  143.0259   78.0653  216.5422 H   0  0  0  0  0  0  0  0  0  0  0  0
  142.9564   75.5637  217.5050 H   0  0  0  0  0  0  0  0  0  0  0  0
  144.0881   76.5925  218.3292 H   0  0  0  0  0  0  0  0  0  0  0  0
  137.6620   74.0010  221.6976 H   0  0  0  0  0  0  0  0  0  0  0  0
  136.8809   76.2971  222.2070 H   0  0  0  0  0  0  0  0  0  0  0  0
  137.3584   78.5763  222.7845 H   0  0  0  0  0  0  0  0  0  0  0  0
  141.4239   79.7451  223.3128 H   0  0  0  0  0  0  0  0  0  0  0  0
  142.1880   77.4610  222.8085 H   0  0  0  0  0  0  0  0  0  0  0  0
  1  2  2  0
  2  3  1  0
  3  4  1  0
  4  5  1  0
  5  6  2  0
  5  7  1  0
  7  8  1  0
  8  9  1  0
  9 10  1  0
 10 11  1  0
 11 12  1  0
 12 13  1  0
 13 14  1  0
 14 15  1  0
 15 16  1  0
 16 17  1  0
 17 18  1  0
  2 19  1  0
 19 20  2  0
 20 21  1  0
 21 22  2  0
 22 23  1  0
 23 24  2  0
 24 25  1  0
 24 26  1  0
 26 27  2  0
 27 28  1  0
 28 29  2  0
 11  7  1  0
 18 14  1  0
 29 19  1  0
 28 22  1  0
  3 30  1  0
  4 31  1  0
  4 32  1  0
  8 33  1  0
  8 34  1  0
  9 35  1  0
  9 36  1  0
 10 37  1  0
 10 38  1  0
 11 39  1  1
 12 40  1  0
 12 41  1  0
 13 42  1  0
 14 43  1  0
 15 44  1  0
 15 45  1  0
 16 46  1  0
 16 47  1  0
 17 48  1  0
 17 49  1  0
 18 50  1  0
 18 51  1  0
 20 52  1  0
 21 53  1  0
 23 54  1  0
 26 55  1  0
 27 56  1  0
M  END
>  <smiles>  (35) 
O=C(NCC(=O)N1CCC[C@H]1CNC1CCCC1)c1ccc2cc(Cl)ccc2n1

>  <score_type>  (35) 
oracle

>  <origin>  (35) 
autodockgpu

>  <m_score__min__energy>  (35) 
-8.4399999999999995

>  <m_primary>  (35) 
energy

>  <rmsd>  (35) 
6.434620114823361

>  <m_score__min__rmsd>  (35) 
6.434620114823361

>  <meeko>  (35) 
{"free_energy": -6.3, "intermolecular_energy": -8.39, "internal_energy": -3.78, "cluster_size": 3, "cluster_id": 6, "rank_in_cluster": 2}

>  <energy>  (35) 
-6.22

>  <cluster_rmsd>  (35) 
0.49

>  <cluster>  (35) 
5

$$$$

     RDKit          3D

 56 59  0  0  0  0  0  0  0  0999 V2000
  137.8770   71.0750  221.3760 O   0  0  0  0  0  0  0  0  0  0  0  0
  138.4740   71.6480  222.3210 C   0  0  0  0  0  0  0  0  0  0  0  0
  138.7160   73.0410  222.3280 N   0  0  0  0  0  0  0  0  0  0  0  0
  138.2630   73.8620  221.2110 C   0  0  0  0  0  0  0  0  0  0  0  0
  138.6770   75.2610  221.4190 C   0  0  0  0  0  0  0  0  0  0  0  0
  137.9600   75.9730  222.1970 O   0  0  0  0  0  0  0  0  0  0  0  0
  139.7880   75.8820  220.8390 N   0  0  0  0  0  0  0  0  0  0  0  0
  139.8060   76.5020  219.5360 C   0  0  0  0  0  0  0  0  0  0  0  0
  141.2320   76.4060  219.0540 C   0  0  0  0  0  0  0  0  0  0  0  0
  141.9680   75.6920  220.1700 C   0  0  0  0  0  0  0  0  0  0  0  0
  141.1550   76.0490  221.3840 C   0  0  1  0  0  0  0  0  0  0  0  0
  141.3680   77.4910  221.7390 C   0  0  0  0  0  0  0  0  0  0  0  0
  140.3760   78.1430  222.4810 N   0  0  0  0  0  0  0  0  0  0  0  0
  140.6430   79.3390  223.1720 C   0  0  0  0  0  0  0  0  0  0  0  0
  141.8270   79.2220  224.0710 C   0  0  0  0  0  0  0  0  0  0  0  0
  142.6350   80.4640  223.8620 C   0  0  0  0  0  0  0  0  0  0  0  0
  141.8150   81.3960  223.0410 C   0  0  0  0  0  0  0  0  0  0  0  0
  141.0550   80.4160  222.1440 C   0  0  0  0  0  0  0  0  0  0  0  0
  138.9480   70.8550  223.4700 C   0  0  0  0  0  0  0  0  0  0  0  0
  138.7340   69.4890  223.4860 C   0  0  0  0  0  0  0  0  0  0  0  0
  139.1670   68.7150  224.5560 C   0  0  0  0  0  0  0  0  0  0  0  0
  139.8140   69.2890  225.6170 C   0  0  0  0  0  0  0  0  0  0  0  0
  140.2440   68.5370  226.6730 C   0  0  0  0  0  0  0  0  0  0  0  0
  140.8840   69.1350  227.7140 C   0  0  0  0  0  0  0  0  0  0  0  0
  141.4230   68.1390  229.0550 Cl  0  0  0  0  0  0  0  0  0  0  0  0
  141.0820   70.4970  227.6690 C   0  0  0  0  0  0  0  0  0  0  0  0
  140.6540   71.2620  226.6100 C   0  0  0  0  0  0  0  0  0  0  0  0
  140.0070   70.6660  225.5580 C   0  0  0  0  0  0  0  0  0  0  0  0
  139.5770   71.3980  224.5060 N   0  0  0  0  0  0  0  0  0  0  0  0
  139.2150   73.4910  223.1250 H   0  0  0  0  0  0  0  0  0  0  0  0
  138.7062   73.4850  220.2775 H   0  0  0  0  0  0  0  0  0  0  0  0
  137.1659   73.8138  221.1466 H   0  0  0  0  0  0  0  0  0  0  0  0
  139.1328   75.9686  218.8488 H   0  0  0  0  0  0  0  0  0  0  0  0
  139.4634   77.5463  219.5802 H   0  0  0  0  0  0  0  0  0  0  0  0
  141.2877   75.8273  218.1202 H   0  0  0  0  0  0  0  0  0  0  0  0
  141.6647   77.3933  218.8351 H   0  0  0  0  0  0  0  0  0  0  0  0
  141.9788   74.6044  220.0057 H   0  0  0  0  0  0  0  0  0  0  0  0
  143.0255   75.9836  220.2518 H   0  0  0  0  0  0  0  0  0  0  0  0
  141.3859   75.4622  222.2853 H   0  0  0  0  0  0  0  0  0  0  0  0
  142.3008   77.5498  222.3191 H   0  0  0  0  0  0  0  0  0  0  0  0
  141.3711   78.0126  220.7705 H   0  0  0  0  0  0  0  0  0  0  0  0
  139.4210   77.7750  222.4800 H   0  0  0  0  0  0  0  0  0  0  0  0
  139.7373   79.5797  223.7479 H   0  0  0  0  0  0  0  0  0  0  0  0
  141.5036   79.1496  225.1199 H   0  0  0  0  0  0  0  0  0  0  0  0
  142.4139   78.3195  223.8450 H   0  0  0  0  0  0  0  0  0  0  0  0
  142.8716   80.9261  224.8318 H   0  0  0  0  0  0  0  0  0  0  0  0
  143.5822   80.2300  223.3541 H   0  0  0  0  0  0  0  0  0  0  0  0
  141.1281   81.9854  223.6661 H   0  0  0  0  0  0  0  0  0  0  0  0
  142.4013   82.1475  222.4919 H   0  0  0  0  0  0  0  0  0  0  0  0
  140.1770   80.8895  221.6804 H   0  0  0  0  0  0  0  0  0  0  0  0
  141.6375   80.0331  221.2931 H   0  0  0  0  0  0  0  0  0  0  0  0
  138.2154   69.0097  222.6426 H   0  0  0  0  0  0  0  0  0  0  0  0
  138.9879   67.6297  224.5502 H   0  0  0  0  0  0  0  0  0  0  0  0
  140.0732   67.4504  226.6818 H   0  0  0  0  0  0  0  0  0  0  0  0
  141.5988   70.9882  228.5066 H   0  0  0  0  0  0  0  0  0  0  0  0
  140.8298   72.3479  226.6065 H   0  0  0  0  0  0  0  0  0  0  0  0
  1  2  2  0
  2  3  1  0
  3  4  1  0
  4  5  1  0
  5  6  2  0
  5  7  1  0
  7  8  1  0
  8  9  1  0
  9 10  1  0
 10 11  1  0
 11 12  1  0
 12 13  1  0
 13 14  1  0
 14 15  1  0
 15 16  1  0
 16 17  1  0
 17 18  1  0
  2 19  1  0
 19 20  2  0
 20 21  1  0
 21 22  2  0
 22 23  1  0
 23 24  2  0
 24 25  1  0
 24 26  1  0
 26 27  2  0
 27 28  1  0
 28 29  2  0
 11  7  1  0
 18 14  1  0
 29 19  1  0
 28 22  1  0
  3 30  1  0
  4 31  1  0
  4 32  1  0
  8 33  1  0
  8 34  1  0
  9 35  1  0
  9 36  1  0
 10 37  1  0
 10 38  1  0
 11 39  1  1
 12 40  1  0
 12 41  1  0
 13 42  1  0
 14 43  1  0
 15 44  1  0
 15 45  1  0
 16 46  1  0
 16 47  1  0
 17 48  1  0
 17 49  1  0
 18 50  1  0
 18 51  1  0
 20 52  1  0
 21 53  1  0
 23 54  1  0
 26 55  1  0
 27 56  1  0
M  END
>  <smiles>  (36) 
O=C(NCC(=O)N1CCC[C@H]1CNC1CCCC1)c1ccc2cc(Cl)ccc2n1

>  <score_type>  (36) 
oracle

>  <origin>  (36) 
autodockgpu

>  <m_score__min__energy>  (36) 
-8.4399999999999995

>  <m_primary>  (36) 
energy

>  <rmsd>  (36) 
2.020866039278449

>  <m_score__min__rmsd>  (36) 
2.020866039278449

>  <meeko>  (36) 
{"free_energy": -7.83, "intermolecular_energy": -9.92, "internal_energy": -2.15, "cluster_size": 28, "cluster_id": 1, "rank_in_cluster": 19}

>  <energy>  (36) 
-6.19

>  <cluster_rmsd>  (36) 
0.65

>  <cluster>  (36) 
5

$$$$

     RDKit          3D

 56 59  0  0  0  0  0  0  0  0999 V2000
  136.2450   71.1600  221.8080 O   0  0  0  0  0  0  0  0  0  0  0  0
  137.1370   71.7240  222.4900 C   0  0  0  0  0  0  0  0  0  0  0  0
  137.5460   73.0550  222.2470 N   0  0  0  0  0  0  0  0  0  0  0  0
  136.9230   73.8220  221.1740 C   0  0  0  0  0  0  0  0  0  0  0  0
  137.1000   75.2630  221.4210 C   0  0  0  0  0  0  0  0  0  0  0  0
  136.0520   75.9910  221.4100 O   0  0  0  0  0  0  0  0  0  0  0  0
  138.3160   75.9090  221.6690 N   0  0  0  0  0  0  0  0  0  0  0  0
  138.5910   76.7490  222.8100 C   0  0  0  0  0  0  0  0  0  0  0  0
  139.6490   77.7230  222.3590 C   0  0  0  0  0  0  0  0  0  0  0  0
  139.9150   77.3590  220.9120 C   0  0  0  0  0  0  0  0  0  0  0  0
  139.5610   75.8980  220.8670 C   0  0  1  0  0  0  0  0  0  0  0  0
  140.6010   75.0950  221.5900 C   0  0  0  0  0  0  0  0  0  0  0  0
  140.2690   73.8000  222.0030 N   0  0  0  0  0  0  0  0  0  0  0  0
  140.7500   72.6660  221.3230 C   0  0  0  0  0  0  0  0  0  0  0  0
  140.7090   71.4380  222.1670 C   0  0  0  0  0  0  0  0  0  0  0  0
  140.1570   70.3520  221.2990 C   0  0  0  0  0  0  0  0  0  0  0  0
  140.1080   70.8760  219.9070 C   0  0  0  0  0  0  0  0  0  0  0  0
  139.7910   72.3530  220.1540 C   0  0  0  0  0  0  0  0  0  0  0  0
  137.7920   70.9850  223.5840 C   0  0  0  0  0  0  0  0  0  0  0  0
  137.3610   69.7070  223.8930 C   0  0  0  0  0  0  0  0  0  0  0  0
  137.9580   68.9860  224.9200 C   0  0  0  0  0  0  0  0  0  0  0  0
  138.9830   69.5260  225.6490 C   0  0  0  0  0  0  0  0  0  0  0  0
  139.5760   68.8250  226.6610 C   0  0  0  0  0  0  0  0  0  0  0  0
  140.5930   69.3880  227.3690 C   0  0  0  0  0  0  0  0  0  0  0  0
  141.3320   68.4600  228.6620 Cl  0  0  0  0  0  0  0  0  0  0  0  0
  140.9990   70.6610  227.0380 C   0  0  0  0  0  0  0  0  0  0  0  0
  140.4090   71.3730  226.0200 C   0  0  0  0  0  0  0  0  0  0  0  0
  139.3830   70.8140  225.3040 C   0  0  0  0  0  0  0  0  0  0  0  0
  138.7880   71.4950  224.3000 N   0  0  0  0  0  0  0  0  0  0  0  0
  138.2890   73.4980  222.8270 H   0  0  0  0  0  0  0  0  0  0  0  0
  137.3921   73.5558  220.2153 H   0  0  0  0  0  0  0  0  0  0  0  0
  135.8484   73.5895  221.1389 H   0  0  0  0  0  0  0  0  0  0  0  0
  137.6819   77.2866  223.1176 H   0  0  0  0  0  0  0  0  0  0  0  0
  138.9273   76.1586  223.6750 H   0  0  0  0  0  0  0  0  0  0  0  0
  139.2831   78.7573  222.4379 H   0  0  0  0  0  0  0  0  0  0  0  0
  140.5576   77.6660  222.9764 H   0  0  0  0  0  0  0  0  0  0  0  0
  139.2766   77.9427  220.2325 H   0  0  0  0  0  0  0  0  0  0  0  0
  140.9466   77.5678  220.5924 H   0  0  0  0  0  0  0  0  0  0  0  0
  139.4764   75.4725  219.8562 H   0  0  0  0  0  0  0  0  0  0  0  0
  141.4707   75.0110  220.9217 H   0  0  0  0  0  0  0  0  0  0  0  0
  140.7664   75.6456  222.5278 H   0  0  0  0  0  0  0  0  0  0  0  0
  139.7100   73.6680  222.8500 H   0  0  0  0  0  0  0  0  0  0  0  0
  141.7817   72.8958  221.0184 H   0  0  0  0  0  0  0  0  0  0  0  0
  141.7214   71.1759  222.5079 H   0  0  0  0  0  0  0  0  0  0  0  0
  140.0889   71.5885  223.0630 H   0  0  0  0  0  0  0  0  0  0  0  0
  140.8082   69.4667  221.3447 H   0  0  0  0  0  0  0  0  0  0  0  0
  139.1532   70.0564  221.6381 H   0  0  0  0  0  0  0  0  0  0  0  0
  141.0739   70.7514  219.3955 H   0  0  0  0  0  0  0  0  0  0  0  0
  139.3842   70.3623  219.2573 H   0  0  0  0  0  0  0  0  0  0  0  0
  140.0162   72.9682  219.2704 H   0  0  0  0  0  0  0  0  0  0  0  0
  138.7320   72.5610  220.3668 H   0  0  0  0  0  0  0  0  0  0  0  0
  136.5371   69.2570  223.3197 H   0  0  0  0  0  0  0  0  0  0  0  0
  137.6031   67.9705  225.1496 H   0  0  0  0  0  0  0  0  0  0  0  0
  139.2324   67.8084  226.9028 H   0  0  0  0  0  0  0  0  0  0  0  0
  141.8206   71.1229  227.6051 H   0  0  0  0  0  0  0  0  0  0  0  0
  140.7596   72.3879  225.7813 H   0  0  0  0  0  0  0  0  0  0  0  0
  1  2  2  0
  2  3  1  0
  3  4  1  0
  4  5  1  0
  5  6  2  0
  5  7  1  0
  7  8  1  0
  8  9  1  0
  9 10  1  0
 10 11  1  0
 11 12  1  0
 12 13  1  0
 13 14  1  0
 14 15  1  0
 15 16  1  0
 16 17  1  0
 17 18  1  0
  2 19  1  0
 19 20  2  0
 20 21  1  0
 21 22  2  0
 22 23  1  0
 23 24  2  0
 24 25  1  0
 24 26  1  0
 26 27  2  0
 27 28  1  0
 28 29  2  0
 11  7  1  0
 18 14  1  0
 29 19  1  0
 28 22  1  0
  3 30  1  0
  4 31  1  0
  4 32  1  0
  8 33  1  0
  8 34  1  0
  9 35  1  0
  9 36  1  0
 10 37  1  0
 10 38  1  0
 11 39  1  6
 12 40  1  0
 12 41  1  0
 13 42  1  0
 14 43  1  0
 15 44  1  0
 15 45  1  0
 16 46  1  0
 16 47  1  0
 17 48  1  0
 17 49  1  0
 18 50  1  0
 18 51  1  0
 20 52  1  0
 21 53  1  0
 23 54  1  0
 26 55  1  0
 27 56  1  0
M  END
>  <smiles>  (37) 
O=C(NCC(=O)N1CCC[C@H]1CNC1CCCC1)c1ccc2cc(Cl)ccc2n1

>  <score_type>  (37) 
oracle

>  <origin>  (37) 
autodockgpu

>  <m_score__min__energy>  (37) 
-8.4399999999999995

>  <m_primary>  (37) 
energy

>  <rmsd>  (37) 
5.087217548374739

>  <m_score__min__rmsd>  (37) 
5.087217548374739

>  <meeko>  (37) 
{"free_energy": -6.36, "intermolecular_energy": -8.45, "internal_energy": -3.53, "cluster_size": 28, "cluster_id": 1, "rank_in_cluster": 27}

>  <energy>  (37) 
-6.14

>  <cluster_rmsd>  (37) 
0.85

>  <cluster>  (37) 
5

$$$$

     RDKit          3D

 56 59  0  0  0  0  0  0  0  0999 V2000
  139.7570   71.9720  220.6940 O   0  0  0  0  0  0  0  0  0  0  0  0
  139.7190   72.4370  221.8600 C   0  0  0  0  0  0  0  0  0  0  0  0
  139.5630   73.8180  222.1170 N   0  0  0  0  0  0  0  0  0  0  0  0
  139.4380   74.7550  221.0070 C   0  0  0  0  0  0  0  0  0  0  0  0
  140.3600   75.8880  221.2010 C   0  0  0  0  0  0  0  0  0  0  0  0
  140.2490   76.5520  222.2840 O   0  0  0  0  0  0  0  0  0  0  0  0
  141.3510   76.3020  220.3040 N   0  0  0  0  0  0  0  0  0  0  0  0
  141.9560   77.6110  220.2840 C   0  0  0  0  0  0  0  0  0  0  0  0
  142.3910   77.8430  218.8590 C   0  0  0  0  0  0  0  0  0  0  0  0
  141.9740   76.5860  218.1220 C   0  0  0  0  0  0  0  0  0  0  0  0
  141.9930   75.5440  219.2060 C   0  0  1  0  0  0  0  0  0  0  0  0
  143.4080   75.2290  219.5920 C   0  0  0  0  0  0  0  0  0  0  0  0
  143.6290   74.5150  220.7750 N   0  0  0  0  0  0  0  0  0  0  0  0
  144.3790   73.3250  220.7850 C   0  0  0  0  0  0  0  0  0  0  0  0
  143.5220   72.1120  220.6490 C   0  0  0  0  0  0  0  0  0  0  0  0
  144.2060   71.2270  219.6550 C   0  0  0  0  0  0  0  0  0  0  0  0
  145.5560   71.7990  219.4030 C   0  0  0  0  0  0  0  0  0  0  0  0
  145.2730   73.2990  219.5260 C   0  0  0  0  0  0  0  0  0  0  0  0
  139.8400   71.5250  223.0110 C   0  0  0  0  0  0  0  0  0  0  0  0
  139.4330   70.2100  222.8810 C   0  0  0  0  0  0  0  0  0  0  0  0
  139.5340   69.3260  223.9490 C   0  0  0  0  0  0  0  0  0  0  0  0
  140.0380   69.7390  225.1530 C   0  0  0  0  0  0  0  0  0  0  0  0
  140.1410   68.8790  226.2080 C   0  0  0  0  0  0  0  0  0  0  0  0
  140.6450   69.3190  227.3930 C   0  0  0  0  0  0  0  0  0  0  0  0
  140.7640   68.1870  228.7290 Cl  0  0  0  0  0  0  0  0  0  0  0  0
  141.0430   70.6330  227.4920 C   0  0  0  0  0  0  0  0  0  0  0  0
  140.9430   71.5060  226.4340 C   0  0  0  0  0  0  0  0  0  0  0  0
  140.4350   71.0710  225.2380 C   0  0  0  0  0  0  0  0  0  0  0  0
  140.3270   71.9120  224.1850 N   0  0  0  0  0  0  0  0  0  0  0  0
  139.5350   74.1780  223.0960 H   0  0  0  0  0  0  0  0  0  0  0  0
  139.6846   74.2410  220.0663 H   0  0  0  0  0  0  0  0  0  0  0  0
  138.4053   75.1315  220.9653 H   0  0  0  0  0  0  0  0  0  0  0  0
  141.2260   78.3747  220.5904 H   0  0  0  0  0  0  0  0  0  0  0  0
  142.8046   77.6746  220.9810 H   0  0  0  0  0  0  0  0  0  0  0  0
  141.8868   78.7253  218.4379 H   0  0  0  0  0  0  0  0  0  0  0  0
  143.4712   78.0345  218.7787 H   0  0  0  0  0  0  0  0  0  0  0  0
  140.9668   76.6936  217.6931 H   0  0  0  0  0  0  0  0  0  0  0  0
  142.6275   76.3422  217.2714 H   0  0  0  0  0  0  0  0  0  0  0  0
  141.5161   74.5893  218.9392 H   0  0  0  0  0  0  0  0  0  0  0  0
  143.8470   74.6431  218.7710 H   0  0  0  0  0  0  0  0  0  0  0  0
  143.8641   76.2124  219.7789 H   0  0  0  0  0  0  0  0  0  0  0  0
  143.2850   74.8910  221.6630 H   0  0  0  0  0  0  0  0  0  0  0  0
  144.9301   73.3085  221.7369 H   0  0  0  0  0  0  0  0  0  0  0  0
  143.4312   71.5987  221.6176 H   0  0  0  0  0  0  0  0  0  0  0  0
  142.5057   72.3741  220.3198 H   0  0  0  0  0  0  0  0  0  0  0  0
  144.2991   70.2086  220.0601 H   0  0  0  0  0  0  0  0  0  0  0  0
  143.6272   71.1728  218.7211 H   0  0  0  0  0  0  0  0  0  0  0  0
  146.2830   71.4631  220.1570 H   0  0  0  0  0  0  0  0  0  0  0  0
  145.9995   71.5012  218.4414 H   0  0  0  0  0  0  0  0  0  0  0  0
  146.1986   73.8743  219.6753 H   0  0  0  0  0  0  0  0  0  0  0  0
  144.8144   73.7497  218.6335 H   0  0  0  0  0  0  0  0  0  0  0  0
  139.0247   69.8594  221.9216 H   0  0  0  0  0  0  0  0  0  0  0  0
  139.2055   68.2835  223.8254 H   0  0  0  0  0  0  0  0  0  0  0  0
  139.8175   67.8331  226.1006 H   0  0  0  0  0  0  0  0  0  0  0  0
  141.4534   70.9957  228.4460 H   0  0  0  0  0  0  0  0  0  0  0  0
  141.2698   72.5502  226.5475 H   0  0  0  0  0  0  0  0  0  0  0  0
  1  2  2  0
  2  3  1  0
  3  4  1  0
  4  5  1  0
  5  6  2  0
  5  7  1  0
  7  8  1  0
  8  9  1  0
  9 10  1  0
 10 11  1  0
 11 12  1  0
 12 13  1  0
 13 14  1  0
 14 15  1  0
 15 16  1  0
 16 17  1  0
 17 18  1  0
  2 19  1  0
 19 20  2  0
 20 21  1  0
 21 22  2  0
 22 23  1  0
 23 24  2  0
 24 25  1  0
 24 26  1  0
 26 27  2  0
 27 28  1  0
 28 29  2  0
 11  7  1  0
 18 14  1  0
 29 19  1  0
 28 22  1  0
  3 30  1  0
  4 31  1  0
  4 32  1  0
  8 33  1  0
  8 34  1  0
  9 35  1  0
  9 36  1  0
 10 37  1  0
 10 38  1  0
 11 39  1  6
 12 40  1  0
 12 41  1  0
 13 42  1  0
 14 43  1  0
 15 44  1  0
 15 45  1  0
 16 46  1  0
 16 47  1  0
 17 48  1  0
 17 49  1  0
 18 50  1  0
 18 51  1  0
 20 52  1  0
 21 53  1  0
 23 54  1  0
 26 55  1  0
 27 56  1  0
M  END
>  <smiles>  (38) 
O=C(NCC(=O)N1CCC[C@H]1CNC1CCCC1)c1ccc2cc(Cl)ccc2n1

>  <score_type>  (38) 
oracle

>  <origin>  (38) 
autodockgpu

>  <m_score__min__energy>  (38) 
-8.4399999999999995

>  <m_primary>  (38) 
energy

>  <rmsd>  (38) 
4.804960599939037

>  <m_score__min__rmsd>  (38) 
4.804960599939037

>  <meeko>  (38) 
{"free_energy": -7.96, "intermolecular_energy": -10.04, "internal_energy": -2.19, "cluster_size": 28, "cluster_id": 1, "rank_in_cluster": 16}

>  <energy>  (38) 
-6.11

>  <cluster_rmsd>  (38) 
0.74

>  <cluster>  (38) 
5

$$$$

     RDKit          3D

 56 59  0  0  0  0  0  0  0  0999 V2000
  140.1820   72.1580  220.7420 O   0  0  0  0  0  0  0  0  0  0  0  0
  139.9150   72.5740  221.8970 C   0  0  0  0  0  0  0  0  0  0  0  0
  139.5470   73.9140  222.1510 N   0  0  0  0  0  0  0  0  0  0  0  0
  139.4670   74.8670  221.0490 C   0  0  0  0  0  0  0  0  0  0  0  0
  139.8710   76.2050  221.5140 C   0  0  0  0  0  0  0  0  0  0  0  0
  139.3460   76.6320  222.5950 O   0  0  0  0  0  0  0  0  0  0  0  0
  140.7830   77.0530  220.8770 N   0  0  0  0  0  0  0  0  0  0  0  0
  141.4470   78.1730  221.4980 C   0  0  0  0  0  0  0  0  0  0  0  0
  141.7430   79.1460  220.3850 C   0  0  0  0  0  0  0  0  0  0  0  0
  141.1920   78.4820  219.1380 C   0  0  0  0  0  0  0  0  0  0  0  0
  141.2710   77.0200  219.4790 C   0  0  1  0  0  0  0  0  0  0  0  0
  142.7020   76.5670  219.4710 C   0  0  0  0  0  0  0  0  0  0  0  0
  143.0790   75.5500  220.3550 N   0  0  0  0  0  0  0  0  0  0  0  0
  143.8610   74.4600  219.9300 C   0  0  0  0  0  0  0  0  0  0  0  0
  145.2210   74.4650  220.5420 C   0  0  0  0  0  0  0  0  0  0  0  0
  145.4880   73.0590  220.9770 C   0  0  0  0  0  0  0  0  0  0  0  0
  144.4100   72.2040  220.4100 C   0  0  0  0  0  0  0  0  0  0  0  0
  143.2150   73.1600  220.4560 C   0  0  0  0  0  0  0  0  0  0  0  0
  139.9830   71.6430  223.0380 C   0  0  0  0  0  0  0  0  0  0  0  0
  139.5300   70.3450  222.8840 C   0  0  0  0  0  0  0  0  0  0  0  0
  139.5810   69.4460  223.9420 C   0  0  0  0  0  0  0  0  0  0  0  0
  140.0780   69.8260  225.1600 C   0  0  0  0  0  0  0  0  0  0  0  0
  140.1310   68.9490  226.2060 C   0  0  0  0  0  0  0  0  0  0  0  0
  140.6300   69.3560  227.4050 C   0  0  0  0  0  0  0  0  0  0  0  0
  140.6840   68.2040  228.7280 Cl  0  0  0  0  0  0  0  0  0  0  0  0
  141.0730   70.6540  227.5270 C   0  0  0  0  0  0  0  0  0  0  0  0
  141.0240   71.5430  226.4790 C   0  0  0  0  0  0  0  0  0  0  0  0
  140.5210   71.1410  225.2690 C   0  0  0  0  0  0  0  0  0  0  0  0
  140.4630   71.9980  224.2250 N   0  0  0  0  0  0  0  0  0  0  0  0
  139.3310   74.2330  223.1200 H   0  0  0  0  0  0  0  0  0  0  0  0
  140.1372   74.5446  220.2385 H   0  0  0  0  0  0  0  0  0  0  0  0
  138.4315   74.9087  220.6803 H   0  0  0  0  0  0  0  0  0  0  0  0
  140.7915   78.6383  222.2489 H   0  0  0  0  0  0  0  0  0  0  0  0
  142.3653   77.8612  222.0171 H   0  0  0  0  0  0  0  0  0  0  0  0
  141.2410   80.1078  220.5666 H   0  0  0  0  0  0  0  0  0  0  0  0
  142.8172   79.3668  220.2994 H   0  0  0  0  0  0  0  0  0  0  0  0
  140.1527   78.7900  218.9510 H   0  0  0  0  0  0  0  0  0  0  0  0
  141.7424   78.7470  218.2232 H   0  0  0  0  0  0  0  0  0  0  0  0
  140.7226   76.3548  218.7958 H   0  0  0  0  0  0  0  0  0  0  0  0
  142.9267   76.2145  218.4535 H   0  0  0  0  0  0  0  0  0  0  0  0
  143.2681   77.4468  219.8107 H   0  0  0  0  0  0  0  0  0  0  0  0
  142.8310   75.6240  221.3450 H   0  0  0  0  0  0  0  0  0  0  0  0
  143.9257   74.5266  218.8339 H   0  0  0  0  0  0  0  0  0  0  0  0
  145.9705   74.7844  219.8030 H   0  0  0  0  0  0  0  0  0  0  0  0
  145.2767   75.1642  221.3894 H   0  0  0  0  0  0  0  0  0  0  0  0
  146.4671   72.7286  220.6000 H   0  0  0  0  0  0  0  0  0  0  0  0
  145.5019   72.9886  222.0747 H   0  0  0  0  0  0  0  0  0  0  0  0
  144.6402   71.8961  219.3794 H   0  0  0  0  0  0  0  0  0  0  0  0
  144.2526   71.2591  220.9507 H   0  0  0  0  0  0  0  0  0  0  0  0
  142.3995   72.8198  219.8009 H   0  0  0  0  0  0  0  0  0  0  0  0
  142.7460   73.2540  221.4465 H   0  0  0  0  0  0  0  0  0  0  0  0
  139.1252   70.0213  221.9138 H   0  0  0  0  0  0  0  0  0  0  0  0
  139.2180   68.4174  223.7996 H   0  0  0  0  0  0  0  0  0  0  0  0
  139.7715   67.9171  226.0796 H   0  0  0  0  0  0  0  0  0  0  0  0
  141.4786   70.9902  228.4926 H   0  0  0  0  0  0  0  0  0  0  0  0
  141.3871   72.5729  226.6113 H   0  0  0  0  0  0  0  0  0  0  0  0
  1  2  2  0
  2  3  1  0
  3  4  1  0
  4  5  1  0
  5  6  2  0
  5  7  1  0
  7  8  1  0
  8  9  1  0
  9 10  1  0
 10 11  1  0
 11 12  1  0
 12 13  1  0
 13 14  1  0
 14 15  1  0
 15 16  1  0
 16 17  1  0
 17 18  1  0
  2 19  1  0
 19 20  2  0
 20 21  1  0
 21 22  2  0
 22 23  1  0
 23 24  2  0
 24 25  1  0
 24 26  1  0
 26 27  2  0
 27 28  1  0
 28 29  2  0
 11  7  1  0
 18 14  1  0
 29 19  1  0
 28 22  1  0
  3 30  1  0
  4 31  1  0
  4 32  1  0
  8 33  1  0
  8 34  1  0
  9 35  1  0
  9 36  1  0
 10 37  1  0
 10 38  1  0
 11 39  1  6
 12 40  1  0
 12 41  1  0
 13 42  1  0
 14 43  1  0
 15 44  1  0
 15 45  1  0
 16 46  1  0
 16 47  1  0
 17 48  1  0
 17 49  1  0
 18 50  1  0
 18 51  1  0
 20 52  1  0
 21 53  1  0
 23 54  1  0
 26 55  1  0
 27 56  1  0
M  END
>  <smiles>  (39) 
O=C(NCC(=O)N1CCC[C@H]1CNC1CCCC1)c1ccc2cc(Cl)ccc2n1

>  <score_type>  (39) 
oracle

>  <origin>  (39) 
autodockgpu

>  <m_score__min__energy>  (39) 
-8.4399999999999995

>  <m_primary>  (39) 
energy

>  <rmsd>  (39) 
4.515837273123014

>  <m_score__min__rmsd>  (39) 
4.515837273123014

>  <meeko>  (39) 
{"free_energy": -8.44, "intermolecular_energy": -10.53, "internal_energy": -2.22, "cluster_size": 28, "cluster_id": 1, "rank_in_cluster": 1}

>  <energy>  (39) 
-6.08

>  <cluster_rmsd>  (39) 
0.78

>  <cluster>  (39) 
5

$$$$

     RDKit          3D

 56 59  0  0  0  0  0  0  0  0999 V2000
  136.6680   71.2140  221.2860 O   0  0  0  0  0  0  0  0  0  0  0  0
  137.3330   71.8300  222.1560 C   0  0  0  0  0  0  0  0  0  0  0  0
  137.5700   73.2220  222.0800 N   0  0  0  0  0  0  0  0  0  0  0  0
  137.0320   73.9900  220.9640 C   0  0  0  0  0  0  0  0  0  0  0  0
  137.3580   75.4170  221.1350 C   0  0  0  0  0  0  0  0  0  0  0  0
  136.4320   76.2610  220.8950 O   0  0  0  0  0  0  0  0  0  0  0  0
  138.5940   75.9330  221.5400 N   0  0  0  0  0  0  0  0  0  0  0  0
  138.7890   76.8600  222.6280 C   0  0  0  0  0  0  0  0  0  0  0  0
  140.0360   77.6370  222.2890 C   0  0  0  0  0  0  0  0  0  0  0  0
  140.4870   77.0750  220.9560 C   0  0  0  0  0  0  0  0  0  0  0  0
  139.9420   75.6740  220.9850 C   0  0  1  0  0  0  0  0  0  0  0  0
  140.7200   74.8390  221.9580 C   0  0  0  0  0  0  0  0  0  0  0  0
  140.2260   73.5720  222.2870 N   0  0  0  0  0  0  0  0  0  0  0  0
  140.6640   72.4160  221.6180 C   0  0  0  0  0  0  0  0  0  0  0  0
  139.9610   72.2110  220.3190 C   0  0  0  0  0  0  0  0  0  0  0  0
  141.0160   71.8420  219.3250 C   0  0  0  0  0  0  0  0  0  0  0  0
  142.2740   71.5950  220.0820 C   0  0  0  0  0  0  0  0  0  0  0  0
  142.1430   72.6120  221.2190 C   0  0  0  0  0  0  0  0  0  0  0  0
  137.8940   71.0910  223.3010 C   0  0  0  0  0  0  0  0  0  0  0  0
  137.3180   69.8940  223.6840 C   0  0  0  0  0  0  0  0  0  0  0  0
  137.8230   69.1750  224.7600 C   0  0  0  0  0  0  0  0  0  0  0  0
  138.9030   69.6370  225.4650 C   0  0  0  0  0  0  0  0  0  0  0  0
  139.4070   68.9380  226.5240 C   0  0  0  0  0  0  0  0  0  0  0  0
  140.4800   69.4230  227.2050 C   0  0  0  0  0  0  0  0  0  0  0  0
  141.1030   68.4990  228.5620 Cl  0  0  0  0  0  0  0  0  0  0  0  0
  141.0330   70.6170  226.8000 C   0  0  0  0  0  0  0  0  0  0  0  0
  140.5320   71.3270  225.7340 C   0  0  0  0  0  0  0  0  0  0  0  0
  139.4500   70.8460  225.0440 C   0  0  0  0  0  0  0  0  0  0  0  0
  138.9410   71.5270  223.9930 N   0  0  0  0  0  0  0  0  0  0  0  0
  138.1270   73.7080  222.8150 H   0  0  0  0  0  0  0  0  0  0  0  0
  137.4721   73.6252  220.0242 H   0  0  0  0  0  0  0  0  0  0  0  0
  135.9391   73.8688  220.9339 H   0  0  0  0  0  0  0  0  0  0  0  0
  137.9268   77.5378  222.7126 H   0  0  0  0  0  0  0  0  0  0  0  0
  138.8873   76.3380  223.5912 H   0  0  0  0  0  0  0  0  0  0  0  0
  139.8128   78.7106  222.2021 H   0  0  0  0  0  0  0  0  0  0  0  0
  140.8101   77.5420  223.0648 H   0  0  0  0  0  0  0  0  0  0  0  0
  140.0614   77.6487  220.1195 H   0  0  0  0  0  0  0  0  0  0  0  0
  141.5767   77.1160  220.8118 H   0  0  0  0  0  0  0  0  0  0  0  0
  139.9701   75.1459  220.0205 H   0  0  0  0  0  0  0  0  0  0  0  0
  141.7252   74.6969  221.5345 H   0  0  0  0  0  0  0  0  0  0  0  0
  140.6704   75.4033  222.9009 H   0  0  0  0  0  0  0  0  0  0  0  0
  139.5720   73.4730  223.0690 H   0  0  0  0  0  0  0  0  0  0  0  0
  140.4822   71.5709  222.2983 H   0  0  0  0  0  0  0  0  0  0  0  0
  139.2225   71.4008  220.4092 H   0  0  0  0  0  0  0  0  0  0  0  0
  139.4195   73.1172  220.0098 H   0  0  0  0  0  0  0  0  0  0  0  0
  140.7193   70.9326  218.7819 H   0  0  0  0  0  0  0  0  0  0  0  0
  141.1567   72.6486  218.5904 H   0  0  0  0  0  0  0  0  0  0  0  0
  142.3177   70.5650  220.4658 H   0  0  0  0  0  0  0  0  0  0  0  0
  143.1899   71.7042  219.4826 H   0  0  0  0  0  0  0  0  0  0  0  0
  142.8212   72.3763  222.0524 H   0  0  0  0  0  0  0  0  0  0  0  0
  142.4051   73.6429  220.9387 H   0  0  0  0  0  0  0  0  0  0  0  0
  136.4500   69.5065  223.1305 H   0  0  0  0  0  0  0  0  0  0  0  0
  137.3507   68.2246  225.0490 H   0  0  0  0  0  0  0  0  0  0  0  0
  138.9467   67.9855  226.8256 H   0  0  0  0  0  0  0  0  0  0  0  0
  141.9015   71.0150  227.3453 H   0  0  0  0  0  0  0  0  0  0  0  0
  140.9982   72.2778  225.4362 H   0  0  0  0  0  0  0  0  0  0  0  0
  1  2  2  0
  2  3  1  0
  3  4  1  0
  4  5  1  0
  5  6  2  0
  5  7  1  0
  7  8  1  0
  8  9  1  0
  9 10  1  0
 10 11  1  0
 11 12  1  0
 12 13  1  0
 13 14  1  0
 14 15  1  0
 15 16  1  0
 16 17  1  0
 17 18  1  0
  2 19  1  0
 19 20  2  0
 20 21  1  0
 21 22  2  0
 22 23  1  0
 23 24  2  0
 24 25  1  0
 24 26  1  0
 26 27  2  0
 27 28  1  0
 28 29  2  0
 11  7  1  0
 18 14  1  0
 29 19  1  0
 28 22  1  0
  3 30  1  0
  4 31  1  0
  4 32  1  0
  8 33  1  0
  8 34  1  0
  9 35  1  0
  9 36  1  0
 10 37  1  0
 10 38  1  0
 11 39  1  6
 12 40  1  0
 12 41  1  0
 13 42  1  0
 14 43  1  0
 15 44  1  0
 15 45  1  0
 16 46  1  0
 16 47  1  0
 17 48  1  0
 17 49  1  0
 18 50  1  0
 18 51  1  0
 20 52  1  0
 21 53  1  0
 23 54  1  0
 26 55  1  0
 27 56  1  0
M  END
>  <smiles>  (40) 
O=C(NCC(=O)N1CCC[C@H]1CNC1CCCC1)c1ccc2cc(Cl)ccc2n1

>  <score_type>  (40) 
oracle

>  <origin>  (40) 
autodockgpu

>  <m_score__min__energy>  (40) 
-8.4399999999999995

>  <m_primary>  (40) 
energy

>  <rmsd>  (40) 
4.815816294756959

>  <m_score__min__rmsd>  (40) 
4.815816294756959

>  <meeko>  (40) 
{"free_energy": -6.63, "intermolecular_energy": -8.72, "internal_energy": -3.7, "cluster_size": 28, "cluster_id": 1, "rank_in_cluster": 26}

>  <energy>  (40) 
-5.93

>  <cluster_rmsd>  (40) 
0.76

>  <cluster>  (40) 
5

$$$$

     RDKit          3D

 56 59  0  0  0  0  0  0  0  0999 V2000
  138.6080   71.4660  221.1310 O   0  0  0  0  0  0  0  0  0  0  0  0
  139.0560   71.9820  222.1850 C   0  0  0  0  0  0  0  0  0  0  0  0
  139.2900   73.3700  222.3060 N   0  0  0  0  0  0  0  0  0  0  0  0
  139.0050   74.2560  221.1830 C   0  0  0  0  0  0  0  0  0  0  0  0
  138.0600   75.3060  221.6010 C   0  0  0  0  0  0  0  0  0  0  0  0
  136.8360   74.9720  221.7320 O   0  0  0  0  0  0  0  0  0  0  0  0
  138.3830   76.6410  221.8690 N   0  0  0  0  0  0  0  0  0  0  0  0
  137.6410   77.5140  222.7450 C   0  0  0  0  0  0  0  0  0  0  0  0
  137.8780   78.9120  222.2310 C   0  0  0  0  0  0  0  0  0  0  0  0
  138.7820   78.7300  221.0290 C   0  0  0  0  0  0  0  0  0  0  0  0
  139.5070   77.4530  221.3480 C   0  0  1  0  0  0  0  0  0  0  0  0
  140.4960   77.6850  222.4530 C   0  0  0  0  0  0  0  0  0  0  0  0
  141.7750   78.1380  222.1120 N   0  0  0  0  0  0  0  0  0  0  0  0
  142.2720   79.3630  222.5920 C   0  0  0  0  0  0  0  0  0  0  0  0
  142.0650   80.4780  221.6230 C   0  0  0  0  0  0  0  0  0  0  0  0
  141.5630   81.6390  222.4230 C   0  0  0  0  0  0  0  0  0  0  0  0
  141.7090   81.2850  223.8610 C   0  0  0  0  0  0  0  0  0  0  0  0
  141.4440   79.7780  223.8270 C   0  0  0  0  0  0  0  0  0  0  0  0
  139.3560   71.1220  223.3440 C   0  0  0  0  0  0  0  0  0  0  0  0
  139.0520   69.7740  223.2870 C   0  0  0  0  0  0  0  0  0  0  0  0
  139.3210   68.9390  224.3640 C   0  0  0  0  0  0  0  0  0  0  0  0
  139.8930   69.4330  225.5060 C   0  0  0  0  0  0  0  0  0  0  0  0
  140.1610   68.6210  226.5710 C   0  0  0  0  0  0  0  0  0  0  0  0
  140.7300   69.1410  227.6920 C   0  0  0  0  0  0  0  0  0  0  0  0
  141.0620   68.0690  229.0420 Cl  0  0  0  0  0  0  0  0  0  0  0  0
  141.0210   70.4860  227.7190 C   0  0  0  0  0  0  0  0  0  0  0  0
  140.7550   71.3110  226.6520 C   0  0  0  0  0  0  0  0  0  0  0  0
  140.1810   70.7950  225.5190 C   0  0  0  0  0  0  0  0  0  0  0  0
  139.9100   71.5880  224.4580 N   0  0  0  0  0  0  0  0  0  0  0  0
  139.6640   73.7720  223.1930 H   0  0  0  0  0  0  0  0  0  0  0  0
  139.9402   74.7224  220.8397 H   0  0  0  0  0  0  0  0  0  0  0  0
  138.5590   73.6719  220.3645 H   0  0  0  0  0  0  0  0  0  0  0  0
  136.5690   77.2700  222.7104 H   0  0  0  0  0  0  0  0  0  0  0  0
  137.9645   77.4075  223.7909 H   0  0  0  0  0  0  0  0  0  0  0  0
  136.9289   79.3829  221.9352 H   0  0  0  0  0  0  0  0  0  0  0  0
  138.3254   79.5663  222.9937 H   0  0  0  0  0  0  0  0  0  0  0  0
  138.1957   78.6322  220.1035 H   0  0  0  0  0  0  0  0  0  0  0  0
  139.4560   79.5824  220.8579 H   0  0  0  0  0  0  0  0  0  0  0  0
  140.0659   77.0152  220.5077 H   0  0  0  0  0  0  0  0  0  0  0  0
  140.0567   78.4301  223.1326 H   0  0  0  0  0  0  0  0  0  0  0  0
  140.6661   76.6858  222.8804 H   0  0  0  0  0  0  0  0  0  0  0  0
  142.3870   77.5430  221.5470 H   0  0  0  0  0  0  0  0  0  0  0  0
  143.3432   79.2116  222.7908 H   0  0  0  0  0  0  0  0  0  0  0  0
  143.0141   80.7362  221.1305 H   0  0  0  0  0  0  0  0  0  0  0  0
  141.3517   80.1964  220.8344 H   0  0  0  0  0  0  0  0  0  0  0  0
  142.1557   82.5371  222.1949 H   0  0  0  0  0  0  0  0  0  0  0  0
  140.5115   81.8522  222.1803 H   0  0  0  0  0  0  0  0  0  0  0  0
  142.7211   81.5077  224.2298 H   0  0  0  0  0  0  0  0  0  0  0  0
  141.0417   81.8448  224.5328 H   0  0  0  0  0  0  0  0  0  0  0  0
  141.8052   79.2833  224.7407 H   0  0  0  0  0  0  0  0  0  0  0  0
  140.3798   79.5051  223.7728 H   0  0  0  0  0  0  0  0  0  0  0  0
  138.5919   69.3583  222.3784 H   0  0  0  0  0  0  0  0  0  0  0  0
  139.0719   67.8696  224.2989 H   0  0  0  0  0  0  0  0  0  0  0  0
  139.9174   67.5494  226.5225 H   0  0  0  0  0  0  0  0  0  0  0  0
  141.4805   70.9140  228.6221 H   0  0  0  0  0  0  0  0  0  0  0  0
  141.0019   72.3815  226.7071 H   0  0  0  0  0  0  0  0  0  0  0  0
  1  2  2  0
  2  3  1  0
  3  4  1  0
  4  5  1  0
  5  6  2  0
  5  7  1  0
  7  8  1  0
  8  9  1  0
  9 10  1  0
 10 11  1  0
 11 12  1  0
 12 13  1  0
 13 14  1  0
 14 15  1  0
 15 16  1  0
 16 17  1  0
 17 18  1  0
  2 19  1  0
 19 20  2  0
 20 21  1  0
 21 22  2  0
 22 23  1  0
 23 24  2  0
 24 25  1  0
 24 26  1  0
 26 27  2  0
 27 28  1  0
 28 29  2  0
 11  7  1  0
 18 14  1  0
 29 19  1  0
 28 22  1  0
  3 30  1  0
  4 31  1  0
  4 32  1  0
  8 33  1  0
  8 34  1  0
  9 35  1  0
  9 36  1  0
 10 37  1  0
 10 38  1  0
 11 39  1  6
 12 40  1  0
 12 41  1  0
 13 42  1  0
 14 43  1  0
 15 44  1  0
 15 45  1  0
 16 46  1  0
 16 47  1  0
 17 48  1  0
 17 49  1  0
 18 50  1  0
 18 51  1  0
 20 52  1  0
 21 53  1  0
 23 54  1  0
 26 55  1  0
 27 56  1  0
M  END
>  <smiles>  (41) 
O=C(NCC(=O)N1CCC[C@H]1CNC1CCCC1)c1ccc2cc(Cl)ccc2n1

>  <score_type>  (41) 
oracle

>  <origin>  (41) 
autodockgpu

>  <m_score__min__energy>  (41) 
-8.4399999999999995

>  <m_primary>  (41) 
energy

>  <rmsd>  (41) 
2.725100866713879

>  <m_score__min__rmsd>  (41) 
2.725100866713879

>  <meeko>  (41) 
{"free_energy": -8.19, "intermolecular_energy": -10.28, "internal_energy": -1.68, "cluster_size": 28, "cluster_id": 1, "rank_in_cluster": 8}

>  <energy>  (41) 
-5.85

>  <cluster_rmsd>  (41) 
1.0

>  <cluster>  (41) 
5

$$$$

     RDKit          3D

 56 59  0  0  0  0  0  0  0  0999 V2000
  135.5910   75.0060  221.5020 O   0  0  0  0  0  0  0  0  0  0  0  0
  136.7290   74.8880  222.0210 C   0  0  0  0  0  0  0  0  0  0  0  0
  137.2830   73.6290  222.3470 N   0  0  0  0  0  0  0  0  0  0  0  0
  136.5280   72.4110  222.0800 C   0  0  0  0  0  0  0  0  0  0  0  0
  136.8040   71.4110  223.1250 C   0  0  0  0  0  0  0  0  0  0  0  0
  135.8080   70.9640  223.7840 O   0  0  0  0  0  0  0  0  0  0  0  0
  138.0640   70.9030  223.4620 N   0  0  0  0  0  0  0  0  0  0  0  0
  138.5910   69.6340  223.0210 C   0  0  0  0  0  0  0  0  0  0  0  0
  139.5630   69.1990  224.0890 C   0  0  0  0  0  0  0  0  0  0  0  0
  139.5160   70.3050  225.1240 C   0  0  0  0  0  0  0  0  0  0  0  0
  139.1170   71.5040  224.3110 C   0  0  1  0  0  0  0  0  0  0  0  0
  140.2600   71.9370  223.4400 C   0  0  0  0  0  0  0  0  0  0  0  0
  140.1140   73.1120  222.6930 N   0  0  0  0  0  0  0  0  0  0  0  0
  140.6320   73.2220  221.3900 C   0  0  0  0  0  0  0  0  0  0  0  0
  141.3120   74.5290  221.1580 C   0  0  0  0  0  0  0  0  0  0  0  0
  142.5900   74.2150  220.4450 C   0  0  0  0  0  0  0  0  0  0  0  0
  142.5390   72.7810  220.0510 C   0  0  0  0  0  0  0  0  0  0  0  0
  141.7560   72.1770  221.2200 C   0  0  0  0  0  0  0  0  0  0  0  0
  137.5260   76.0940  222.3070 C   0  0  0  0  0  0  0  0  0  0  0  0
  136.8840   77.3080  222.4750 C   0  0  0  0  0  0  0  0  0  0  0  0
  137.6090   78.4620  222.7440 C   0  0  0  0  0  0  0  0  0  0  0  0
  138.9730   78.4230  222.8480 C   0  0  0  0  0  0  0  0  0  0  0  0
  139.6950   79.5530  223.1120 C   0  0  0  0  0  0  0  0  0  0  0  0
  141.0500   79.4820  223.2100 C   0  0  0  0  0  0  0  0  0  0  0  0
  141.9460   80.9520  223.5500 Cl  0  0  0  0  0  0  0  0  0  0  0  0
  141.6600   78.2600  223.0380 C   0  0  0  0  0  0  0  0  0  0  0  0
  140.9420   77.1180  222.7730 C   0  0  0  0  0  0  0  0  0  0  0  0
  139.5760   77.1810  222.6720 C   0  0  0  0  0  0  0  0  0  0  0  0
  138.8500   76.0710  222.4110 N   0  0  0  0  0  0  0  0  0  0  0  0
  138.2300   73.5600  222.7790 H   0  0  0  0  0  0  0  0  0  0  0  0
  135.4527   72.6428  222.0719 H   0  0  0  0  0  0  0  0  0  0  0  0
  136.8284   72.0057  221.1025 H   0  0  0  0  0  0  0  0  0  0  0  0
  137.7804   68.8976  222.9179 H   0  0  0  0  0  0  0  0  0  0  0  0
  139.0795   69.7178  222.0390 H   0  0  0  0  0  0  0  0  0  0  0  0
  139.2513   68.2409  224.5304 H   0  0  0  0  0  0  0  0  0  0  0  0
  140.5767   69.0434  223.6913 H   0  0  0  0  0  0  0  0  0  0  0  0
  138.7698   70.0879  225.9025 H   0  0  0  0  0  0  0  0  0  0  0  0
  140.4663   70.4395  225.6614 H   0  0  0  0  0  0  0  0  0  0  0  0
  138.8140   72.3827  224.8993 H   0  0  0  0  0  0  0  0  0  0  0  0
  141.1348   72.0722  224.0931 H   0  0  0  0  0  0  0  0  0  0  0  0
  140.3433   71.1420  222.6843 H   0  0  0  0  0  0  0  0  0  0  0  0
  139.5720   73.8900  223.0770 H   0  0  0  0  0  0  0  0  0  0  0  0
  139.7830   73.0957  220.7021 H   0  0  0  0  0  0  0  0  0  0  0  0
  140.6804   75.1826  220.5383 H   0  0  0  0  0  0  0  0  0  0  0  0
  141.5007   75.0559  222.1050 H   0  0  0  0  0  0  0  0  0  0  0  0
  142.6866   74.8475  219.5503 H   0  0  0  0  0  0  0  0  0  0  0  0
  143.4555   74.4084  221.0958 H   0  0  0  0  0  0  0  0  0  0  0  0
  142.0084   72.6440  219.0972 H   0  0  0  0  0  0  0  0  0  0  0  0
  143.5256   72.3238  219.8852 H   0  0  0  0  0  0  0  0  0  0  0  0
  141.3517   71.1859  220.9667 H   0  0  0  0  0  0  0  0  0  0  0  0
  142.3549   72.0025  222.1260 H   0  0  0  0  0  0  0  0  0  0  0  0
  135.7882   77.3599  222.3947 H   0  0  0  0  0  0  0  0  0  0  0  0
  137.0808   79.4179  222.8749 H   0  0  0  0  0  0  0  0  0  0  0  0
  139.1820   80.5170  223.2448 H   0  0  0  0  0  0  0  0  0  0  0  0
  142.7554   78.1953  223.1149 H   0  0  0  0  0  0  0  0  0  0  0  0
  141.4614   76.1572  222.6425 H   0  0  0  0  0  0  0  0  0  0  0  0
  1  2  2  0
  2  3  1  0
  3  4  1  0
  4  5  1  0
  5  6  2  0
  5  7  1  0
  7  8  1  0
  8  9  1  0
  9 10  1  0
 10 11  1  0
 11 12  1  0
 12 13  1  0
 13 14  1  0
 14 15  1  0
 15 16  1  0
 16 17  1  0
 17 18  1  0
  2 19  1  0
 19 20  2  0
 20 21  1  0
 21 22  2  0
 22 23  1  0
 23 24  2  0
 24 25  1  0
 24 26  1  0
 26 27  2  0
 27 28  1  0
 28 29  2  0
 11  7  1  0
 18 14  1  0
 29 19  1  0
 28 22  1  0
  3 30  1  0
  4 31  1  0
  4 32  1  0
  8 33  1  0
  8 34  1  0
  9 35  1  0
  9 36  1  0
 10 37  1  0
 10 38  1  0
 11 39  1  1
 12 40  1  0
 12 41  1  0
 13 42  1  0
 14 43  1  0
 15 44  1  0
 15 45  1  0
 16 46  1  0
 16 47  1  0
 17 48  1  0
 17 49  1  0
 18 50  1  0
 18 51  1  0
 20 52  1  0
 21 53  1  0
 23 54  1  0
 26 55  1  0
 27 56  1  0
M  END
>  <smiles>  (42) 
O=C(NCC(=O)N1CCC[C@H]1CNC1CCCC1)c1ccc2cc(Cl)ccc2n1

>  <score_type>  (42) 
oracle

>  <origin>  (42) 
autodockgpu

>  <m_score__min__energy>  (42) 
-8.4399999999999995

>  <m_primary>  (42) 
energy

>  <rmsd>  (42) 
7.853091934811741

>  <m_score__min__rmsd>  (42) 
7.853091934811741

>  <meeko>  (42) 
{"free_energy": -6.56, "intermolecular_energy": -8.65, "internal_energy": -3.41, "cluster_size": 1, "cluster_id": 4, "rank_in_cluster": 1}

>  <energy>  (42) 
-6.41

>  <cluster_rmsd>  (42) 
0.0

>  <cluster>  (42) 
6

$$$$

     RDKit          3D

 56 59  0  0  0  0  0  0  0  0999 V2000
  143.6050   77.1260  218.9820 O   0  0  0  0  0  0  0  0  0  0  0  0
  142.5690   77.0380  219.6870 C   0  0  0  0  0  0  0  0  0  0  0  0
  141.7470   78.1530  219.9650 N   0  0  0  0  0  0  0  0  0  0  0  0
  142.0910   79.4620  219.4240 C   0  0  0  0  0  0  0  0  0  0  0  0
  141.6770   80.5180  220.3640 C   0  0  0  0  0  0  0  0  0  0  0  0
  141.1100   81.5490  219.8720 O   0  0  0  0  0  0  0  0  0  0  0  0
  141.8460   80.4920  221.7530 N   0  0  0  0  0  0  0  0  0  0  0  0
  141.2700   81.4390  222.6760 C   0  0  0  0  0  0  0  0  0  0  0  0
  142.2000   81.4740  223.8630 C   0  0  0  0  0  0  0  0  0  0  0  0
  143.3050   80.4970  223.5140 C   0  0  0  0  0  0  0  0  0  0  0  0
  142.6180   79.5380  222.5820 C   0  0  1  0  0  0  0  0  0  0  0  0
  141.6630   78.6710  223.3490 C   0  0  0  0  0  0  0  0  0  0  0  0
  140.8850   77.7520  222.6360 N   0  0  0  0  0  0  0  0  0  0  0  0
  139.4810   77.7580  222.7190 C   0  0  0  0  0  0  0  0  0  0  0  0
  138.9490   79.0480  223.2450 C   0  0  0  0  0  0  0  0  0  0  0  0
  137.7910   79.4110  222.3700 C   0  0  0  0  0  0  0  0  0  0  0  0
  137.5000   78.2350  221.5050 C   0  0  0  0  0  0  0  0  0  0  0  0
  138.9060   77.6680  221.2880 C   0  0  0  0  0  0  0  0  0  0  0  0
  142.1850   75.7320  220.2530 C   0  0  0  0  0  0  0  0  0  0  0  0
  143.0960   74.6920  220.2420 C   0  0  0  0  0  0  0  0  0  0  0  0
  142.7620   73.4500  220.7670 C   0  0  0  0  0  0  0  0  0  0  0  0
  141.5230   73.2280  221.3050 C   0  0  0  0  0  0  0  0  0  0  0  0
  141.1850   72.0100  221.8230 C   0  0  0  0  0  0  0  0  0  0  0  0
  139.9450   71.8200  222.3510 C   0  0  0  0  0  0  0  0  0  0  0  0
  139.5440   70.2430  223.0090 Cl  0  0  0  0  0  0  0  0  0  0  0  0
  139.0600   72.8740  222.3480 C   0  0  0  0  0  0  0  0  0  0  0  0
  139.3920   74.1040  221.8290 C   0  0  0  0  0  0  0  0  0  0  0  0
  140.6380   74.3030  221.2940 C   0  0  0  0  0  0  0  0  0  0  0  0
  140.9860   75.5030  220.7780 N   0  0  0  0  0  0  0  0  0  0  0  0
  140.8930   78.0510  220.5540 H   0  0  0  0  0  0  0  0  0  0  0  0
  143.1785   79.5180  219.2686 H   0  0  0  0  0  0  0  0  0  0  0  0
  141.5703   79.6059  218.4658 H   0  0  0  0  0  0  0  0  0  0  0  0
  141.2036   82.4341  222.2120 H   0  0  0  0  0  0  0  0  0  0  0  0
  140.2501   81.1494  222.9692 H   0  0  0  0  0  0  0  0  0  0  0  0
  142.6075   82.4855  224.0070 H   0  0  0  0  0  0  0  0  0  0  0  0
  141.6893   81.2078  224.8002 H   0  0  0  0  0  0  0  0  0  0  0  0
  144.1411   81.0067  223.0128 H   0  0  0  0  0  0  0  0  0  0  0  0
  143.7483   80.0078  224.3939 H   0  0  0  0  0  0  0  0  0  0  0  0
  143.2906   78.8620  222.0337 H   0  0  0  0  0  0  0  0  0  0  0  0
  142.2554   78.0997  224.0788 H   0  0  0  0  0  0  0  0  0  0  0  0
  140.9325   79.3772  223.7705 H   0  0  0  0  0  0  0  0  0  0  0  0
  141.3400   77.0950  221.9970 H   0  0  0  0  0  0  0  0  0  0  0  0
  139.2007   76.9226  223.3775 H   0  0  0  0  0  0  0  0  0  0  0  0
  138.6164   78.9268  224.2865 H   0  0  0  0  0  0  0  0  0  0  0  0
  139.7198   79.8327  223.2351 H   0  0  0  0  0  0  0  0  0  0  0  0
  136.9129   79.6493  222.9882 H   0  0  0  0  0  0  0  0  0  0  0  0
  138.0287   80.2936  221.7580 H   0  0  0  0  0  0  0  0  0  0  0  0
  136.8480   77.5109  222.0155 H   0  0  0  0  0  0  0  0  0  0  0  0
  136.9644   78.4802  220.5760 H   0  0  0  0  0  0  0  0  0  0  0  0
  138.8721   76.6283  220.9304 H   0  0  0  0  0  0  0  0  0  0  0  0
  139.4972   78.1976  220.5264 H   0  0  0  0  0  0  0  0  0  0  0  0
  144.0964   74.8498  219.8127 H   0  0  0  0  0  0  0  0  0  0  0  0
  143.5014   72.6358  220.7502 H   0  0  0  0  0  0  0  0  0  0  0  0
  141.9128   71.1853  221.8134 H   0  0  0  0  0  0  0  0  0  0  0  0
  138.0562   72.7284  222.7738 H   0  0  0  0  0  0  0  0  0  0  0  0
  138.6600   74.9249  221.8433 H   0  0  0  0  0  0  0  0  0  0  0  0
  1  2  2  0
  2  3  1  0
  3  4  1  0
  4  5  1  0
  5  6  2  0
  5  7  1  0
  7  8  1  0
  8  9  1  0
  9 10  1  0
 10 11  1  0
 11 12  1  0
 12 13  1  0
 13 14  1  0
 14 15  1  0
 15 16  1  0
 16 17  1  0
 17 18  1  0
  2 19  1  0
 19 20  2  0
 20 21  1  0
 21 22  2  0
 22 23  1  0
 23 24  2  0
 24 25  1  0
 24 26  1  0
 26 27  2  0
 27 28  1  0
 28 29  2  0
 11  7  1  0
 18 14  1  0
 29 19  1  0
 28 22  1  0
  3 30  1  0
  4 31  1  0
  4 32  1  0
  8 33  1  0
  8 34  1  0
  9 35  1  0
  9 36  1  0
 10 37  1  0
 10 38  1  0
 11 39  1  6
 12 40  1  0
 12 41  1  0
 13 42  1  0
 14 43  1  0
 15 44  1  0
 15 45  1  0
 16 46  1  0
 16 47  1  0
 17 48  1  0
 17 49  1  0
 18 50  1  0
 18 51  1  0
 20 52  1  0
 21 53  1  0
 23 54  1  0
 26 55  1  0
 27 56  1  0
M  END
>  <smiles>  (43) 
O=C(NCC(=O)N1CCC[C@H]1CNC1CCCC1)c1ccc2cc(Cl)ccc2n1

>  <score_type>  (43) 
oracle

>  <origin>  (43) 
autodockgpu

>  <m_score__min__energy>  (43) 
-8.4399999999999995

>  <m_primary>  (43) 
energy

>  <rmsd>  (43) 
6.35595149872511

>  <m_score__min__rmsd>  (43) 
6.35595149872511

>  <meeko>  (43) 
{"free_energy": -5.95, "intermolecular_energy": -8.04, "internal_energy": -4.17, "cluster_size": 1, "cluster_id": 9, "rank_in_cluster": 1}

>  <energy>  (43) 
-6.3

>  <cluster_rmsd>  (43) 
0.96

>  <cluster>  (43) 
6

$$$$

     RDKit          3D

 56 59  0  0  0  0  0  0  0  0999 V2000
  139.9080   74.1140  222.1940 O   0  0  0  0  0  0  0  0  0  0  0  0
  139.9870   72.8820  221.9630 C   0  0  0  0  0  0  0  0  0  0  0  0
  140.0390   72.3620  220.6500 N   0  0  0  0  0  0  0  0  0  0  0  0
  140.0030   73.2670  219.5080 C   0  0  0  0  0  0  0  0  0  0  0  0
  141.3110   73.9260  219.3510 C   0  0  0  0  0  0  0  0  0  0  0  0
  142.3460   73.1800  219.3490 O   0  0  0  0  0  0  0  0  0  0  0  0
  141.5240   75.3010  219.2010 N   0  0  0  0  0  0  0  0  0  0  0  0
  141.0600   76.0960  218.0900 C   0  0  0  0  0  0  0  0  0  0  0  0
  142.0290   77.2460  217.9740 C   0  0  0  0  0  0  0  0  0  0  0  0
  143.0370   77.0120  219.0810 C   0  0  0  0  0  0  0  0  0  0  0  0
  142.2420   76.2380  220.0950 C   0  0  1  0  0  0  0  0  0  0  0  0
  141.2450   77.1390  220.7630 C   0  0  0  0  0  0  0  0  0  0  0  0
  141.4610   77.4880  222.1010 N   0  0  0  0  0  0  0  0  0  0  0  0
  141.1920   78.7850  222.5730 C   0  0  0  0  0  0  0  0  0  0  0  0
  141.8350   79.0540  223.8920 C   0  0  0  0  0  0  0  0  0  0  0  0
  142.4440   80.4160  223.7900 C   0  0  0  0  0  0  0  0  0  0  0  0
  141.9550   81.0300  222.5250 C   0  0  0  0  0  0  0  0  0  0  0  0
  141.8530   79.8020  221.6170 C   0  0  0  0  0  0  0  0  0  0  0  0
  140.0260   71.9320  223.0890 C   0  0  0  0  0  0  0  0  0  0  0  0
  139.5420   70.6490  222.9130 C   0  0  0  0  0  0  0  0  0  0  0  0
  139.5640   69.7310  223.9560 C   0  0  0  0  0  0  0  0  0  0  0  0
  140.0660   70.0780  225.1820 C   0  0  0  0  0  0  0  0  0  0  0  0
  140.0920   69.1840  226.2130 C   0  0  0  0  0  0  0  0  0  0  0  0
  140.5970   69.5580  227.4210 C   0  0  0  0  0  0  0  0  0  0  0  0
  140.6160   68.3840  228.7250 Cl  0  0  0  0  0  0  0  0  0  0  0  0
  141.0720   70.8420  227.5660 C   0  0  0  0  0  0  0  0  0  0  0  0
  141.0500   71.7490  226.5320 C   0  0  0  0  0  0  0  0  0  0  0  0
  140.5420   71.3800  225.3130 C   0  0  0  0  0  0  0  0  0  0  0  0
  140.5100   72.2550  224.2830 N   0  0  0  0  0  0  0  0  0  0  0  0
  140.1030   71.3340  220.4860 H   0  0  0  0  0  0  0  0  0  0  0  0
  139.7703   72.6961  218.5970 H   0  0  0  0  0  0  0  0  0  0  0  0
  139.2295   74.0311  219.6749 H   0  0  0  0  0  0  0  0  0  0  0  0
  141.0609   75.4997  217.1656 H   0  0  0  0  0  0  0  0  0  0  0  0
  140.0301   76.4489  218.2471 H   0  0  0  0  0  0  0  0  0  0  0  0
  142.5233   77.2393  216.9913 H   0  0  0  0  0  0  0  0  0  0  0  0
  141.5298   78.2220  218.0648 H   0  0  0  0  0  0  0  0  0  0  0  0
  143.8948   76.4264  218.7188 H   0  0  0  0  0  0  0  0  0  0  0  0
  143.4681   77.9412  219.4818 H   0  0  0  0  0  0  0  0  0  0  0  0
  142.8378   75.7746  220.8952 H   0  0  0  0  0  0  0  0  0  0  0  0
  141.2106   78.0735  220.1837 H   0  0  0  0  0  0  0  0  0  0  0  0
  140.3157   76.5507  220.7815 H   0  0  0  0  0  0  0  0  0  0  0  0
  141.7680   76.7730  222.7660 H   0  0  0  0  0  0  0  0  0  0  0  0
  140.0979   78.8720  222.6465 H   0  0  0  0  0  0  0  0  0  0  0  0
  141.0828   79.0319  224.6943 H   0  0  0  0  0  0  0  0  0  0  0  0
  142.5928   78.2933  224.1308 H   0  0  0  0  0  0  0  0  0  0  0  0
  142.1367   81.0303  224.6492 H   0  0  0  0  0  0  0  0  0  0  0  0
  143.5421   80.3510  223.7905 H   0  0  0  0  0  0  0  0  0  0  0  0
  140.9756   81.5114  222.6631 H   0  0  0  0  0  0  0  0  0  0  0  0
  142.6012   81.8289  222.1322 H   0  0  0  0  0  0  0  0  0  0  0  0
  141.2216   80.0003  220.7383 H   0  0  0  0  0  0  0  0  0  0  0  0
  142.8121   79.4698  221.1931 H   0  0  0  0  0  0  0  0  0  0  0  0
  139.1346   70.3513  221.9356 H   0  0  0  0  0  0  0  0  0  0  0  0
  139.1741   68.7151  223.7952 H   0  0  0  0  0  0  0  0  0  0  0  0
  139.7060   68.1641  226.0684 H   0  0  0  0  0  0  0  0  0  0  0  0
  141.4817   71.1522  228.5386 H   0  0  0  0  0  0  0  0  0  0  0  0
  141.4387   72.7670  226.6826 H   0  0  0  0  0  0  0  0  0  0  0  0
  1  2  2  0
  2  3  1  0
  3  4  1  0
  4  5  1  0
  5  6  2  0
  5  7  1  0
  7  8  1  0
  8  9  1  0
  9 10  1  0
 10 11  1  0
 11 12  1  0
 12 13  1  0
 13 14  1  0
 14 15  1  0
 15 16  1  0
 16 17  1  0
 17 18  1  0
  2 19  1  0
 19 20  2  0
 20 21  1  0
 21 22  2  0
 22 23  1  0
 23 24  2  0
 24 25  1  0
 24 26  1  0
 26 27  2  0
 27 28  1  0
 28 29  2  0
 11  7  1  0
 18 14  1  0
 29 19  1  0
 28 22  1  0
  3 30  1  0
  4 31  1  0
  4 32  1  0
  8 33  1  0
  8 34  1  0
  9 35  1  0
  9 36  1  0
 10 37  1  0
 10 38  1  0
 11 39  1  1
 12 40  1  0
 12 41  1  0
 13 42  1  0
 14 43  1  0
 15 44  1  0
 15 45  1  0
 16 46  1  0
 16 47  1  0
 17 48  1  0
 17 49  1  0
 18 50  1  0
 18 51  1  0
 20 52  1  0
 21 53  1  0
 23 54  1  0
 26 55  1  0
 27 56  1  0
M  END
>  <smiles>  (44) 
O=C(NCC(=O)N1CCC[C@H]1CNC1CCCC1)c1ccc2cc(Cl)ccc2n1

>  <score_type>  (44) 
oracle

>  <origin>  (44) 
autodockgpu

>  <m_score__min__energy>  (44) 
-8.4399999999999995

>  <m_primary>  (44) 
energy

>  <rmsd>  (44) 
2.2662300235377613

>  <m_score__min__rmsd>  (44) 
2.2662300235377613

>  <meeko>  (44) 
{"free_energy": -8.44, "intermolecular_energy": -10.52, "internal_energy": -1.51, "cluster_size": 28, "cluster_id": 1, "rank_in_cluster": 2}

>  <energy>  (44) 
-5.83

>  <cluster_rmsd>  (44) 
0.68

>  <cluster>  (44) 
6

$$$$

     RDKit          3D

 56 59  0  0  0  0  0  0  0  0999 V2000
  142.8790   79.3900  217.7870 O   0  0  0  0  0  0  0  0  0  0  0  0
  142.2170   78.8140  218.6860 C   0  0  0  0  0  0  0  0  0  0  0  0
  141.3560   79.5170  219.5580 N   0  0  0  0  0  0  0  0  0  0  0  0
  141.2140   80.9620  219.4290 C   0  0  0  0  0  0  0  0  0  0  0  0
  141.1350   81.5790  220.7650 C   0  0  0  0  0  0  0  0  0  0  0  0
  140.6420   82.7530  220.8390 O   0  0  0  0  0  0  0  0  0  0  0  0
  141.5520   80.9920  221.9650 N   0  0  0  0  0  0  0  0  0  0  0  0
  141.1700   81.4390  223.2830 C   0  0  0  0  0  0  0  0  0  0  0  0
  142.2990   81.0350  224.1980 C   0  0  0  0  0  0  0  0  0  0  0  0
  143.3050   80.3550  223.2890 C   0  0  0  0  0  0  0  0  0  0  0  0
  142.4420   79.8280  222.1760 C   0  0  1  0  0  0  0  0  0  0  0  0
  141.6250   78.6680  222.6640 C   0  0  0  0  0  0  0  0  0  0  0  0
  141.4300   77.5850  221.8000 N   0  0  0  0  0  0  0  0  0  0  0  0
  140.1400   77.1450  221.4540 C   0  0  0  0  0  0  0  0  0  0  0  0
  139.9820   75.6700  221.6130 C   0  0  0  0  0  0  0  0  0  0  0  0
  138.6660   75.4610  222.2920 C   0  0  0  0  0  0  0  0  0  0  0  0
  137.9590   76.7710  222.3070 C   0  0  0  0  0  0  0  0  0  0  0  0
  139.1330   77.7420  222.4600 C   0  0  0  0  0  0  0  0  0  0  0  0
  142.3310   77.3530  218.8490 C   0  0  0  0  0  0  0  0  0  0  0  0
  141.3940   76.5280  218.2550 C   0  0  0  0  0  0  0  0  0  0  0  0
  141.4740   75.1480  218.3930 C   0  0  0  0  0  0  0  0  0  0  0  0
  142.4830   74.5750  219.1200 C   0  0  0  0  0  0  0  0  0  0  0  0
  142.5700   73.2190  219.2620 C   0  0  0  0  0  0  0  0  0  0  0  0
  143.5840   72.6790  219.9920 C   0  0  0  0  0  0  0  0  0  0  0  0
  143.6670   70.9340  220.1530 Cl  0  0  0  0  0  0  0  0  0  0  0  0
  144.5010   73.5260  220.5710 C   0  0  0  0  0  0  0  0  0  0  0  0
  144.4210   74.8920  220.4340 C   0  0  0  0  0  0  0  0  0  0  0  0
  143.4020   75.4440  219.7010 C   0  0  0  0  0  0  0  0  0  0  0  0
  143.3040   76.7840  219.5520 N   0  0  0  0  0  0  0  0  0  0  0  0
  140.8180   79.0140  220.2970 H   0  0  0  0  0  0  0  0  0  0  0  0
  142.0835   81.3674  218.8908 H   0  0  0  0  0  0  0  0  0  0  0  0
  140.2933   81.1872  218.8708 H   0  0  0  0  0  0  0  0  0  0  0  0
  141.0402   82.5313  223.2942 H   0  0  0  0  0  0  0  0  0  0  0  0
  140.2144   80.9956  223.5994 H   0  0  0  0  0  0  0  0  0  0  0  0
  142.7448   81.9187  224.6780 H   0  0  0  0  0  0  0  0  0  0  0  0
  141.9607   80.3765  225.0116 H   0  0  0  0  0  0  0  0  0  0  0  0
  144.0462   81.0739  222.9097 H   0  0  0  0  0  0  0  0  0  0  0  0
  143.8911   79.5732  223.7943 H   0  0  0  0  0  0  0  0  0  0  0  0
  142.9914   79.4787  221.2893 H   0  0  0  0  0  0  0  0  0  0  0  0
  142.1178   78.2795  223.5674 H   0  0  0  0  0  0  0  0  0  0  0  0
  140.6177   79.0861  222.8075 H   0  0  0  0  0  0  0  0  0  0  0  0
  142.2400   77.1360  221.3630 H   0  0  0  0  0  0  0  0  0  0  0  0
  139.9745   77.4457  220.4089 H   0  0  0  0  0  0  0  0  0  0  0  0
  139.9856   75.1781  220.6291 H   0  0  0  0  0  0  0  0  0  0  0  0
  140.8076   75.2398  222.1989 H   0  0  0  0  0  0  0  0  0  0  0  0
  138.0712   74.7192  221.7388 H   0  0  0  0  0  0  0  0  0  0  0  0
  138.8127   75.0874  223.3162 H   0  0  0  0  0  0  0  0  0  0  0  0
  137.4122   76.9446  221.3684 H   0  0  0  0  0  0  0  0  0  0  0  0
  137.1936   76.8615  223.0918 H   0  0  0  0  0  0  0  0  0  0  0  0
  138.8473   78.7681  222.1853 H   0  0  0  0  0  0  0  0  0  0  0  0
  139.5166   77.8323  223.4870 H   0  0  0  0  0  0  0  0  0  0  0  0
  140.5760   76.9692  217.6666 H   0  0  0  0  0  0  0  0  0  0  0  0
  140.7185   74.5086  217.9130 H   0  0  0  0  0  0  0  0  0  0  0  0
  141.8229   72.5656  218.7878 H   0  0  0  0  0  0  0  0  0  0  0  0
  145.3237   73.0970  221.1619 H   0  0  0  0  0  0  0  0  0  0  0  0
  145.1717   75.5395  220.9107 H   0  0  0  0  0  0  0  0  0  0  0  0
  1  2  2  0
  2  3  1  0
  3  4  1  0
  4  5  1  0
  5  6  2  0
  5  7  1  0
  7  8  1  0
  8  9  1  0
  9 10  1  0
 10 11  1  0
 11 12  1  0
 12 13  1  0
 13 14  1  0
 14 15  1  0
 15 16  1  0
 16 17  1  0
 17 18  1  0
  2 19  1  0
 19 20  2  0
 20 21  1  0
 21 22  2  0
 22 23  1  0
 23 24  2  0
 24 25  1  0
 24 26  1  0
 26 27  2  0
 27 28  1  0
 28 29  2  0
 11  7  1  0
 18 14  1  0
 29 19  1  0
 28 22  1  0
  3 30  1  0
  4 31  1  0
  4 32  1  0
  8 33  1  0
  8 34  1  0
  9 35  1  0
  9 36  1  0
 10 37  1  0
 10 38  1  0
 11 39  1  6
 12 40  1  0
 12 41  1  0
 13 42  1  0
 14 43  1  0
 15 44  1  0
 15 45  1  0
 16 46  1  0
 16 47  1  0
 17 48  1  0
 17 49  1  0
 18 50  1  0
 18 51  1  0
 20 52  1  0
 21 53  1  0
 23 54  1  0
 26 55  1  0
 27 56  1  0
M  END
>  <smiles>  (45) 
O=C(NCC(=O)N1CCC[C@H]1CNC1CCCC1)c1ccc2cc(Cl)ccc2n1

>  <score_type>  (45) 
oracle

>  <origin>  (45) 
autodockgpu

>  <m_score__min__energy>  (45) 
-8.4399999999999995

>  <m_primary>  (45) 
energy

>  <rmsd>  (45) 
7.4699671888865

>  <m_score__min__rmsd>  (45) 
7.4699671888865

>  <meeko>  (45) 
{"free_energy": -6.14, "intermolecular_energy": -8.23, "internal_energy": -3.87, "cluster_size": 10, "cluster_id": 5, "rank_in_cluster": 6}

>  <energy>  (45) 
-6.41

>  <cluster_rmsd>  (45) 
0.0

>  <cluster>  (45) 
7

$$$$

     RDKit          3D

 56 59  0  0  0  0  0  0  0  0999 V2000
  138.0750   75.3330  222.3820 O   0  0  0  0  0  0  0  0  0  0  0  0
  139.2130   75.7880  222.1070 C   0  0  0  0  0  0  0  0  0  0  0  0
  139.5220   77.1630  222.2130 N   0  0  0  0  0  0  0  0  0  0  0  0
  138.5020   78.1050  222.6580 C   0  0  0  0  0  0  0  0  0  0  0  0
  139.1410   79.2910  223.2520 C   0  0  0  0  0  0  0  0  0  0  0  0
  138.4760   79.9350  224.1300 O   0  0  0  0  0  0  0  0  0  0  0  0
  140.4160   79.7780  222.9430 N   0  0  0  0  0  0  0  0  0  0  0  0
  141.3480   80.3260  223.8980 C   0  0  0  0  0  0  0  0  0  0  0  0
  142.2060   81.2960  223.1250 C   0  0  0  0  0  0  0  0  0  0  0  0
  141.6710   81.2380  221.7080 C   0  0  0  0  0  0  0  0  0  0  0  0
  141.0940   79.8520  221.6290 C   0  0  1  0  0  0  0  0  0  0  0  0
  142.1980   78.8370  221.5900 C   0  0  0  0  0  0  0  0  0  0  0  0
  142.1340   77.8250  220.6250 N   0  0  0  0  0  0  0  0  0  0  0  0
  141.5960   78.0620  219.3480 C   0  0  0  0  0  0  0  0  0  0  0  0
  142.2010   79.2550  218.6900 C   0  0  0  0  0  0  0  0  0  0  0  0
  142.4870   78.8540  217.2770 C   0  0  0  0  0  0  0  0  0  0  0  0
  141.8370   77.5350  217.0480 C   0  0  0  0  0  0  0  0  0  0  0  0
  141.9850   76.8850  218.4270 C   0  0  0  0  0  0  0  0  0  0  0  0
  140.2740   74.8700  221.6540 C   0  0  0  0  0  0  0  0  0  0  0  0
  140.0490   73.5050  221.6860 C   0  0  0  0  0  0  0  0  0  0  0  0
  141.0300   72.6150  221.2670 C   0  0  0  0  0  0  0  0  0  0  0  0
  142.2400   73.0690  220.8150 C   0  0  0  0  0  0  0  0  0  0  0  0
  143.2110   72.2020  220.4020 C   0  0  0  0  0  0  0  0  0  0  0  0
  144.4040   72.6840  219.9590 C   0  0  0  0  0  0  0  0  0  0  0  0
  145.6300   71.5420  219.4340 Cl  0  0  0  0  0  0  0  0  0  0  0  0
  144.5980   74.0470  219.9390 C   0  0  0  0  0  0  0  0  0  0  0  0
  143.6260   74.9270  220.3530 C   0  0  0  0  0  0  0  0  0  0  0  0
  142.4220   74.4500  220.8020 C   0  0  0  0  0  0  0  0  0  0  0  0
  141.4520   75.2960  221.2140 N   0  0  0  0  0  0  0  0  0  0  0  0
  140.4750   77.5150  221.9770 H   0  0  0  0  0  0  0  0  0  0  0  0
  137.8895   78.4129  221.7977 H   0  0  0  0  0  0  0  0  0  0  0  0
  137.8654   77.6201  223.4127 H   0  0  0  0  0  0  0  0  0  0  0  0
  140.8094   80.8481  224.7026 H   0  0  0  0  0  0  0  0  0  0  0  0
  141.9530   79.5384  224.3709 H   0  0  0  0  0  0  0  0  0  0  0  0
  142.1087   82.3120  223.5351 H   0  0  0  0  0  0  0  0  0  0  0  0
  143.2745   81.0398  223.1773 H   0  0  0  0  0  0  0  0  0  0  0  0
  140.8950   82.0005  221.5455 H   0  0  0  0  0  0  0  0  0  0  0  0
  142.4370   81.4361  220.9438 H   0  0  0  0  0  0  0  0  0  0  0  0
  140.4584   79.6644  220.7510 H   0  0  0  0  0  0  0  0  0  0  0  0
  143.1381   79.3842  221.4265 H   0  0  0  0  0  0  0  0  0  0  0  0
  142.1118   78.3045  222.5486 H   0  0  0  0  0  0  0  0  0  0  0  0
  142.5370   76.9060  220.8300 H   0  0  0  0  0  0  0  0  0  0  0  0
  140.5128   78.1978  219.4828 H   0  0  0  0  0  0  0  0  0  0  0  0
  141.4970   80.0999  218.7113 H   0  0  0  0  0  0  0  0  0  0  0  0
  143.1166   79.5765  219.2080 H   0  0  0  0  0  0  0  0  0  0  0  0
  142.0749   79.6016  216.5833 H   0  0  0  0  0  0  0  0  0  0  0  0
  143.5713   78.7877  217.1042 H   0  0  0  0  0  0  0  0  0  0  0  0
  140.7794   77.6502  216.7684 H   0  0  0  0  0  0  0  0  0  0  0  0
  142.2772   76.9523  216.2254 H   0  0  0  0  0  0  0  0  0  0  0  0
  141.2997   76.0331  218.5482 H   0  0  0  0  0  0  0  0  0  0  0  0
  142.9810   76.4625  218.6257 H   0  0  0  0  0  0  0  0  0  0  0  0
  139.0835   73.1207  222.0469 H   0  0  0  0  0  0  0  0  0  0  0  0
  140.8324   71.5334  221.2987 H   0  0  0  0  0  0  0  0  0  0  0  0
  143.0293   71.1174  220.4273 H   0  0  0  0  0  0  0  0  0  0  0  0
  145.5595   74.4438  219.5811 H   0  0  0  0  0  0  0  0  0  0  0  0
  143.8140   76.0104  220.3240 H   0  0  0  0  0  0  0  0  0  0  0  0
  1  2  2  0
  2  3  1  0
  3  4  1  0
  4  5  1  0
  5  6  2  0
  5  7  1  0
  7  8  1  0
  8  9  1  0
  9 10  1  0
 10 11  1  0
 11 12  1  0
 12 13  1  0
 13 14  1  0
 14 15  1  0
 15 16  1  0
 16 17  1  0
 17 18  1  0
  2 19  1  0
 19 20  2  0
 20 21  1  0
 21 22  2  0
 22 23  1  0
 23 24  2  0
 24 25  1  0
 24 26  1  0
 26 27  2  0
 27 28  1  0
 28 29  2  0
 11  7  1  0
 18 14  1  0
 29 19  1  0
 28 22  1  0
  3 30  1  0
  4 31  1  0
  4 32  1  0
  8 33  1  0
  8 34  1  0
  9 35  1  0
  9 36  1  0
 10 37  1  0
 10 38  1  0
 11 39  1  6
 12 40  1  0
 12 41  1  0
 13 42  1  0
 14 43  1  0
 15 44  1  0
 15 45  1  0
 16 46  1  0
 16 47  1  0
 17 48  1  0
 17 49  1  0
 18 50  1  0
 18 51  1  0
 20 52  1  0
 21 53  1  0
 23 54  1  0
 26 55  1  0
 27 56  1  0
M  END
>  <smiles>  (46) 
O=C(NCC(=O)N1CCC[C@H]1CNC1CCCC1)c1ccc2cc(Cl)ccc2n1

>  <score_type>  (46) 
oracle

>  <origin>  (46) 
autodockgpu

>  <m_score__min__energy>  (46) 
-8.4399999999999995

>  <m_primary>  (46) 
energy

>  <rmsd>  (46) 
6.046529781780825

>  <m_score__min__rmsd>  (46) 
6.046529781780825

>  <meeko>  (46) 
{"free_energy": -6.12, "intermolecular_energy": -8.2, "internal_energy": -3.72, "cluster_size": 1, "cluster_id": 8, "rank_in_cluster": 1}

>  <energy>  (46) 
-6.23

>  <cluster_rmsd>  (46) 
0.62

>  <cluster>  (46) 
7

$$$$

     RDKit          3D

 56 59  0  0  0  0  0  0  0  0999 V2000
  138.6960   71.5640  221.1550 O   0  0  0  0  0  0  0  0  0  0  0  0
  139.0730   72.0860  222.2340 C   0  0  0  0  0  0  0  0  0  0  0  0
  139.2360   73.4820  222.3810 N   0  0  0  0  0  0  0  0  0  0  0  0
  138.9600   74.3680  221.2560 C   0  0  0  0  0  0  0  0  0  0  0  0
  139.9590   75.4500  221.2150 C   0  0  0  0  0  0  0  0  0  0  0  0
  141.0390   75.2730  221.8710 O   0  0  0  0  0  0  0  0  0  0  0  0
  139.8330   76.6570  220.5180 N   0  0  0  0  0  0  0  0  0  0  0  0
  138.7540   77.6000  220.6830 C   0  0  0  0  0  0  0  0  0  0  0  0
  138.6340   78.3220  219.3650 C   0  0  0  0  0  0  0  0  0  0  0  0
  139.7040   77.7030  218.4890 C   0  0  0  0  0  0  0  0  0  0  0  0
  140.7250   77.2390  219.4900 C   0  0  1  0  0  0  0  0  0  0  0  0
  141.4420   78.4200  220.0760 C   0  0  0  0  0  0  0  0  0  0  0  0
  141.8620   78.3440  221.4090 N   0  0  0  0  0  0  0  0  0  0  0  0
  142.2440   79.4930  222.1250 C   0  0  0  0  0  0  0  0  0  0  0  0
  141.8020   80.7510  221.4560 C   0  0  0  0  0  0  0  0  0  0  0  0
  141.2380   81.6220  222.5340 C   0  0  0  0  0  0  0  0  0  0  0  0
  141.5680   80.9860  223.8390 C   0  0  0  0  0  0  0  0  0  0  0  0
  141.4950   79.5010  223.4750 C   0  0  0  0  0  0  0  0  0  0  0  0
  139.3610   71.2260  223.3960 C   0  0  0  0  0  0  0  0  0  0  0  0
  139.0320   69.8830  223.3450 C   0  0  0  0  0  0  0  0  0  0  0  0
  139.2900   69.0480  224.4250 C   0  0  0  0  0  0  0  0  0  0  0  0
  139.8750   69.5360  225.5620 C   0  0  0  0  0  0  0  0  0  0  0  0
  140.1320   68.7230  226.6290 C   0  0  0  0  0  0  0  0  0  0  0  0
  140.7140   69.2370  227.7470 C   0  0  0  0  0  0  0  0  0  0  0  0
  141.0310   68.1650  229.1000 Cl  0  0  0  0  0  0  0  0  0  0  0  0
  141.0290   70.5770  227.7680 C   0  0  0  0  0  0  0  0  0  0  0  0
  140.7740   71.4030  226.6980 C   0  0  0  0  0  0  0  0  0  0  0  0
  140.1880   70.8920  225.5690 C   0  0  0  0  0  0  0  0  0  0  0  0
  139.9270   71.6850  224.5060 N   0  0  0  0  0  0  0  0  0  0  0  0
  139.5510   73.8890  223.2880 H   0  0  0  0  0  0  0  0  0  0  0  0
  139.0056   73.7934  220.3191 H   0  0  0  0  0  0  0  0  0  0  0  0
  137.9573   74.8043  221.3753 H   0  0  0  0  0  0  0  0  0  0  0  0
  137.8174   77.0731  220.9177 H   0  0  0  0  0  0  0  0  0  0  0  0
  138.9494   78.2979  221.5105 H   0  0  0  0  0  0  0  0  0  0  0  0
  137.6368   78.1673  218.9273 H   0  0  0  0  0  0  0  0  0  0  0  0
  138.7617   79.4092  219.4728 H   0  0  0  0  0  0  0  0  0  0  0  0
  139.3029   76.8575  217.9109 H   0  0  0  0  0  0  0  0  0  0  0  0
  140.1117   78.3991  217.7411 H   0  0  0  0  0  0  0  0  0  0  0  0
  141.4961   76.5653  219.0881 H   0  0  0  0  0  0  0  0  0  0  0  0
  142.3372   78.5959  219.4615 H   0  0  0  0  0  0  0  0  0  0  0  0
  140.6913   79.2240  220.0722 H   0  0  0  0  0  0  0  0  0  0  0  0
  141.8390   77.4440  221.8950 H   0  0  0  0  0  0  0  0  0  0  0  0
  143.3401   79.4601  222.2114 H   0  0  0  0  0  0  0  0  0  0  0  0
  142.6572   81.2470  220.9736 H   0  0  0  0  0  0  0  0  0  0  0  0
  141.0558   80.5478  220.6738 H   0  0  0  0  0  0  0  0  0  0  0  0
  141.6869   82.6248  222.4804 H   0  0  0  0  0  0  0  0  0  0  0  0
  140.1493   81.7276  222.4179 H   0  0  0  0  0  0  0  0  0  0  0  0
  142.5747   81.2678  224.1813 H   0  0  0  0  0  0  0  0  0  0  0  0
  140.9039   81.2809  224.6649 H   0  0  0  0  0  0  0  0  0  0  0  0
  142.0040   78.8759  224.2234 H   0  0  0  0  0  0  0  0  0  0  0  0
  140.4740   79.0942  223.4301 H   0  0  0  0  0  0  0  0  0  0  0  0
  138.5612   69.4721  222.4398 H   0  0  0  0  0  0  0  0  0  0  0  0
  139.0211   67.9830  224.3656 H   0  0  0  0  0  0  0  0  0  0  0  0
  139.8694   67.6557  226.5850 H   0  0  0  0  0  0  0  0  0  0  0  0
  141.4990   71.0001  228.6680 H   0  0  0  0  0  0  0  0  0  0  0  0
  141.0393   72.4694  226.7481 H   0  0  0  0  0  0  0  0  0  0  0  0
  1  2  2  0
  2  3  1  0
  3  4  1  0
  4  5  1  0
  5  6  2  0
  5  7  1  0
  7  8  1  0
  8  9  1  0
  9 10  1  0
 10 11  1  0
 11 12  1  0
 12 13  1  0
 13 14  1  0
 14 15  1  0
 15 16  1  0
 16 17  1  0
 17 18  1  0
  2 19  1  0
 19 20  2  0
 20 21  1  0
 21 22  2  0
 22 23  1  0
 23 24  2  0
 24 25  1  0
 24 26  1  0
 26 27  2  0
 27 28  1  0
 28 29  2  0
 11  7  1  0
 18 14  1  0
 29 19  1  0
 28 22  1  0
  3 30  1  0
  4 31  1  0
  4 32  1  0
  8 33  1  0
  8 34  1  0
  9 35  1  0
  9 36  1  0
 10 37  1  0
 10 38  1  0
 11 39  1  6
 12 40  1  0
 12 41  1  0
 13 42  1  0
 14 43  1  0
 15 44  1  0
 15 45  1  0
 16 46  1  0
 16 47  1  0
 17 48  1  0
 17 49  1  0
 18 50  1  0
 18 51  1  0
 20 52  1  0
 21 53  1  0
 23 54  1  0
 26 55  1  0
 27 56  1  0
M  END
>  <smiles>  (47) 
O=C(NCC(=O)N1CCC[C@H]1CNC1CCCC1)c1ccc2cc(Cl)ccc2n1

>  <score_type>  (47) 
oracle

>  <origin>  (47) 
autodockgpu

>  <m_score__min__energy>  (47) 
-8.4399999999999995

>  <m_primary>  (47) 
energy

>  <rmsd>  (47) 
1.983865880649044

>  <m_score__min__rmsd>  (47) 
1.983865880649044

>  <meeko>  (47) 
{"free_energy": -7.98, "intermolecular_energy": -10.07, "internal_energy": -2.5, "cluster_size": 28, "cluster_id": 1, "rank_in_cluster": 13}

>  <energy>  (47) 
-6.23

>  <cluster_rmsd>  (47) 
1.16

>  <cluster>  (47) 
7

$$$$

     RDKit          3D

 56 59  0  0  0  0  0  0  0  0999 V2000
  140.3020   72.3820  220.7120 O   0  0  0  0  0  0  0  0  0  0  0  0
  140.0520   72.8100  221.8660 C   0  0  0  0  0  0  0  0  0  0  0  0
  139.7570   74.1680  222.1210 N   0  0  0  0  0  0  0  0  0  0  0  0
  139.7330   75.1250  221.0210 C   0  0  0  0  0  0  0  0  0  0  0  0
  140.6810   76.2200  221.2890 C   0  0  0  0  0  0  0  0  0  0  0  0
  141.0100   76.4240  222.5040 O   0  0  0  0  0  0  0  0  0  0  0  0
  141.2580   77.0590  220.3280 N   0  0  0  0  0  0  0  0  0  0  0  0
  141.6010   78.4440  220.5360 C   0  0  0  0  0  0  0  0  0  0  0  0
  141.5230   79.0960  219.1790 C   0  0  0  0  0  0  0  0  0  0  0  0
  141.1110   77.9800  218.2400 C   0  0  0  0  0  0  0  0  0  0  0  0
  141.6410   76.7540  218.9310 C   0  0  1  0  0  0  0  0  0  0  0  0
  143.1370   76.7130  218.8310 C   0  0  0  0  0  0  0  0  0  0  0  0
  143.8590   76.1960  219.9120 N   0  0  0  0  0  0  0  0  0  0  0  0
  143.8240   74.8270  220.2310 C   0  0  0  0  0  0  0  0  0  0  0  0
  143.6240   73.9690  219.0270 C   0  0  0  0  0  0  0  0  0  0  0  0
  144.5950   72.8370  219.1550 C   0  0  0  0  0  0  0  0  0  0  0  0
  145.1750   72.9000  220.5240 C   0  0  0  0  0  0  0  0  0  0  0  0
  145.2120   74.4120  220.7640 C   0  0  0  0  0  0  0  0  0  0  0  0
  140.0650   71.8760  223.0060 C   0  0  0  0  0  0  0  0  0  0  0  0
  139.5790   70.5920  222.8380 C   0  0  0  0  0  0  0  0  0  0  0  0
  139.5770   69.6890  223.8940 C   0  0  0  0  0  0  0  0  0  0  0  0
  140.0550   70.0520  225.1250 C   0  0  0  0  0  0  0  0  0  0  0  0
  140.0570   69.1720  226.1690 C   0  0  0  0  0  0  0  0  0  0  0  0
  140.5390   69.5610  227.3810 C   0  0  0  0  0  0  0  0  0  0  0  0
  140.5270   68.4060  228.7020 Cl  0  0  0  0  0  0  0  0  0  0  0  0
  141.0160   70.8450  227.5180 C   0  0  0  0  0  0  0  0  0  0  0  0
  141.0180   71.7380  226.4710 C   0  0  0  0  0  0  0  0  0  0  0  0
  140.5340   71.3530  225.2480 C   0  0  0  0  0  0  0  0  0  0  0  0
  140.5260   72.2140  224.2050 N   0  0  0  0  0  0  0  0  0  0  0  0
  139.5540   74.4970  223.0890 H   0  0  0  0  0  0  0  0  0  0  0  0
  140.0177   74.6160  220.0883 H   0  0  0  0  0  0  0  0  0  0  0  0
  138.7188   75.5395  220.9234 H   0  0  0  0  0  0  0  0  0  0  0  0
  140.8880   78.9151  221.2286 H   0  0  0  0  0  0  0  0  0  0  0  0
  142.6023   78.5505  220.9788 H   0  0  0  0  0  0  0  0  0  0  0  0
  140.7732   79.9009  219.1777 H   0  0  0  0  0  0  0  0  0  0  0  0
  142.4764   79.5582  218.8836 H   0  0  0  0  0  0  0  0  0  0  0  0
  140.0170   77.9341  218.1344 H   0  0  0  0  0  0  0  0  0  0  0  0
  141.4961   78.1055  217.2173 H   0  0  0  0  0  0  0  0  0  0  0  0
  141.2700   75.7993  218.5299 H   0  0  0  0  0  0  0  0  0  0  0  0
  143.3882   76.1039  217.9502 H   0  0  0  0  0  0  0  0  0  0  0  0
  143.4356   77.7707  218.7854 H   0  0  0  0  0  0  0  0  0  0  0  0
  144.4720   76.8140  220.4520 H   0  0  0  0  0  0  0  0  0  0  0  0
  143.0011   74.6919  220.9483 H   0  0  0  0  0  0  0  0  0  0  0  0
  142.5932   73.5859  218.9987 H   0  0  0  0  0  0  0  0  0  0  0  0
  143.7892   74.5358  218.0989 H   0  0  0  0  0  0  0  0  0  0  0  0
  144.0756   71.8781  219.0106 H   0  0  0  0  0  0  0  0  0  0  0  0
  145.3858   72.9161  218.3944 H   0  0  0  0  0  0  0  0  0  0  0  0
  144.5323   72.3913  221.2576 H   0  0  0  0  0  0  0  0  0  0  0  0
  146.1517   72.4038  220.6231 H   0  0  0  0  0  0  0  0  0  0  0  0
  145.3222   74.6492  221.8325 H   0  0  0  0  0  0  0  0  0  0  0  0
  146.0561   74.9277  220.2828 H   0  0  0  0  0  0  0  0  0  0  0  0
  139.1896   70.2822  221.8570 H   0  0  0  0  0  0  0  0  0  0  0  0
  139.1874   68.6719  223.7397 H   0  0  0  0  0  0  0  0  0  0  0  0
  139.6702   68.1516  226.0310 H   0  0  0  0  0  0  0  0  0  0  0  0
  141.4075   71.1670  228.4942 H   0  0  0  0  0  0  0  0  0  0  0  0
  141.4066   72.7569  226.6151 H   0  0  0  0  0  0  0  0  0  0  0  0
  1  2  2  0
  2  3  1  0
  3  4  1  0
  4  5  1  0
  5  6  2  0
  5  7  1  0
  7  8  1  0
  8  9  1  0
  9 10  1  0
 10 11  1  0
 11 12  1  0
 12 13  1  0
 13 14  1  0
 14 15  1  0
 15 16  1  0
 16 17  1  0
 17 18  1  0
  2 19  1  0
 19 20  2  0
 20 21  1  0
 21 22  2  0
 22 23  1  0
 23 24  2  0
 24 25  1  0
 24 26  1  0
 26 27  2  0
 27 28  1  0
 28 29  2  0
 11  7  1  0
 18 14  1  0
 29 19  1  0
 28 22  1  0
  3 30  1  0
  4 31  1  0
  4 32  1  0
  8 33  1  0
  8 34  1  0
  9 35  1  0
  9 36  1  0
 10 37  1  0
 10 38  1  0
 11 39  1  6
 12 40  1  0
 12 41  1  0
 13 42  1  0
 14 43  1  0
 15 44  1  0
 15 45  1  0
 16 46  1  0
 16 47  1  0
 17 48  1  0
 17 49  1  0
 18 50  1  0
 18 51  1  0
 20 52  1  0
 21 53  1  0
 23 54  1  0
 26 55  1  0
 27 56  1  0
M  END
>  <smiles>  (48) 
O=C(NCC(=O)N1CCC[C@H]1CNC1CCCC1)c1ccc2cc(Cl)ccc2n1

>  <score_type>  (48) 
oracle

>  <origin>  (48) 
autodockgpu

>  <m_score__min__energy>  (48) 
-8.4399999999999995

>  <m_primary>  (48) 
energy

>  <rmsd>  (48) 
4.2992000235086865

>  <m_score__min__rmsd>  (48) 
4.2992000235086865

>  <meeko>  (48) 
{"free_energy": -8.11, "intermolecular_energy": -10.2, "internal_energy": -2.22, "cluster_size": 28, "cluster_id": 1, "rank_in_cluster": 10}

>  <energy>  (48) 
-6.12

>  <cluster_rmsd>  (48) 
0.0

>  <cluster>  (48) 
8

$$$$

     RDKit          3D

 56 59  0  0  0  0  0  0  0  0999 V2000
  135.9840   71.6670  221.1800 O   0  0  0  0  0  0  0  0  0  0  0  0
  136.7820   72.1760  222.0050 C   0  0  0  0  0  0  0  0  0  0  0  0
  137.0810   73.5570  222.0130 N   0  0  0  0  0  0  0  0  0  0  0  0
  136.4520   74.4430  221.0400 C   0  0  0  0  0  0  0  0  0  0  0  0
  136.6020   75.8440  221.4680 C   0  0  0  0  0  0  0  0  0  0  0  0
  135.5500   76.5660  221.4840 O   0  0  0  0  0  0  0  0  0  0  0  0
  137.7960   76.4580  221.8630 N   0  0  0  0  0  0  0  0  0  0  0  0
  137.9210   77.4160  222.9350 C   0  0  0  0  0  0  0  0  0  0  0  0
  139.1070   78.2780  222.5810 C   0  0  0  0  0  0  0  0  0  0  0  0
  139.5990   77.7280  221.2570 C   0  0  0  0  0  0  0  0  0  0  0  0
  139.1590   76.2910  221.3100 C   0  0  1  0  0  0  0  0  0  0  0  0
  139.9980   75.5340  222.2970 C   0  0  0  0  0  0  0  0  0  0  0  0
  139.8980   74.1380  222.3180 N   0  0  0  0  0  0  0  0  0  0  0  0
  140.4610   73.3470  221.3000 C   0  0  0  0  0  0  0  0  0  0  0  0
  141.6540   73.9890  220.6760 C   0  0  0  0  0  0  0  0  0  0  0  0
  142.6900   72.9180  220.5550 C   0  0  0  0  0  0  0  0  0  0  0  0
  142.0320   71.6220  220.8740 C   0  0  0  0  0  0  0  0  0  0  0  0
  141.0190   72.0550  221.9370 C   0  0  0  0  0  0  0  0  0  0  0  0
  137.4390   71.3170  223.0060 C   0  0  0  0  0  0  0  0  0  0  0  0
  136.8950   70.0800  223.3010 C   0  0  0  0  0  0  0  0  0  0  0  0
  137.4900   69.2480  224.2410 C   0  0  0  0  0  0  0  0  0  0  0  0
  138.6280   69.6350  224.8970 C   0  0  0  0  0  0  0  0  0  0  0  0
  139.2210   68.8250  225.8230 C   0  0  0  0  0  0  0  0  0  0  0  0
  140.3510   69.2380  226.4580 C   0  0  0  0  0  0  0  0  0  0  0  0
  141.0870   68.1720  227.6420 Cl  0  0  0  0  0  0  0  0  0  0  0  0
  140.8690   70.4740  226.1440 C   0  0  0  0  0  0  0  0  0  0  0  0
  140.2790   71.2960  225.2120 C   0  0  0  0  0  0  0  0  0  0  0  0
  139.1400   70.8880  224.5690 C   0  0  0  0  0  0  0  0  0  0  0  0
  138.5420   71.6800  223.6500 N   0  0  0  0  0  0  0  0  0  0  0  0
  137.7490   73.9540  222.7090 H   0  0  0  0  0  0  0  0  0  0  0  0
  136.9321   74.3077  220.0596 H   0  0  0  0  0  0  0  0  0  0  0  0
  135.3819   74.1992  220.9666 H   0  0  0  0  0  0  0  0  0  0  0  0
  137.0106   78.0290  223.0088 H   0  0  0  0  0  0  0  0  0  0  0  0
  138.0576   76.9196  223.9071 H   0  0  0  0  0  0  0  0  0  0  0  0
  138.8044   79.3303  222.4758 H   0  0  0  0  0  0  0  0  0  0  0  0
  139.8859   78.2544  223.3574 H   0  0  0  0  0  0  0  0  0  0  0  0
  139.1326   78.2544  220.4112 H   0  0  0  0  0  0  0  0  0  0  0  0
  140.6828   77.8468  221.1114 H   0  0  0  0  0  0  0  0  0  0  0  0
  139.2251   75.7501  220.3544 H   0  0  0  0  0  0  0  0  0  0  0  0
  141.0493   75.7824  222.0894 H   0  0  0  0  0  0  0  0  0  0  0  0
  139.6143   75.8491  223.2786 H   0  0  0  0  0  0  0  0  0  0  0  0
  139.4550   73.6750  223.1160 H   0  0  0  0  0  0  0  0  0  0  0  0
  139.6696   73.1844  220.5535 H   0  0  0  0  0  0  0  0  0  0  0  0
  141.3976   74.3852  219.6824 H   0  0  0  0  0  0  0  0  0  0  0  0
  142.0182   74.8316  221.2821 H   0  0  0  0  0  0  0  0  0  0  0  0
  143.0884   72.8948  219.5299 H   0  0  0  0  0  0  0  0  0  0  0  0
  143.5264   73.1080  221.2437 H   0  0  0  0  0  0  0  0  0  0  0  0
  141.5326   71.1957  219.9915 H   0  0  0  0  0  0  0  0  0  0  0  0
  142.7245   70.8342  221.2054 H   0  0  0  0  0  0  0  0  0  0  0  0
  140.2313   71.3000  222.0762 H   0  0  0  0  0  0  0  0  0  0  0  0
  141.4451   72.1912  222.9419 H   0  0  0  0  0  0  0  0  0  0  0  0
  135.9807   69.7512  222.7853 H   0  0  0  0  0  0  0  0  0  0  0  0
  137.0421   68.2676  224.4607 H   0  0  0  0  0  0  0  0  0  0  0  0
  138.7862   67.8415  226.0547 H   0  0  0  0  0  0  0  0  0  0  0  0
  141.7823   70.8147  226.6537 H   0  0  0  0  0  0  0  0  0  0  0  0
  140.7202   72.2775  224.9838 H   0  0  0  0  0  0  0  0  0  0  0  0
  1  2  2  0
  2  3  1  0
  3  4  1  0
  4  5  1  0
  5  6  2  0
  5  7  1  0
  7  8  1  0
  8  9  1  0
  9 10  1  0
 10 11  1  0
 11 12  1  0
 12 13  1  0
 13 14  1  0
 14 15  1  0
 15 16  1  0
 16 17  1  0
 17 18  1  0
  2 19  1  0
 19 20  2  0
 20 21  1  0
 21 22  2  0
 22 23  1  0
 23 24  2  0
 24 25  1  0
 24 26  1  0
 26 27  2  0
 27 28  1  0
 28 29  2  0
 11  7  1  0
 18 14  1  0
 29 19  1  0
 28 22  1  0
  3 30  1  0
  4 31  1  0
  4 32  1  0
  8 33  1  0
  8 34  1  0
  9 35  1  0
  9 36  1  0
 10 37  1  0
 10 38  1  0
 11 39  1  6
 12 40  1  0
 12 41  1  0
 13 42  1  0
 14 43  1  0
 15 44  1  0
 15 45  1  0
 16 46  1  0
 16 47  1  0
 17 48  1  0
 17 49  1  0
 18 50  1  0
 18 51  1  0
 20 52  1  0
 21 53  1  0
 23 54  1  0
 26 55  1  0
 27 56  1  0
M  END
>  <smiles>  (49) 
O=C(NCC(=O)N1CCC[C@H]1CNC1CCCC1)c1ccc2cc(Cl)ccc2n1

>  <score_type>  (49) 
oracle

>  <origin>  (49) 
autodockgpu

>  <m_score__min__energy>  (49) 
-8.4399999999999995

>  <m_primary>  (49) 
energy

>  <rmsd>  (49) 
4.851511744636689

>  <m_score__min__rmsd>  (49) 
4.851511744636689

>  <meeko>  (49) 
{"free_energy": -6.41, "intermolecular_energy": -8.5, "internal_energy": -3.69, "cluster_size": 3, "cluster_id": 7, "rank_in_cluster": 1}

>  <energy>  (49) 
-5.95

>  <cluster_rmsd>  (49) 
0.0

>  <cluster>  (49) 
9

$$$$

     RDKit          3D

 56 59  0  0  0  0  0  0  0  0999 V2000
  136.4990   74.8330  221.3600 O   0  0  0  0  0  0  0  0  0  0  0  0
  137.6280   74.8910  221.9090 C   0  0  0  0  0  0  0  0  0  0  0  0
  138.3380   73.7330  222.2980 N   0  0  0  0  0  0  0  0  0  0  0  0
  137.7640   72.4140  222.0620 C   0  0  0  0  0  0  0  0  0  0  0  0
  138.6430   71.3760  222.6280 C   0  0  0  0  0  0  0  0  0  0  0  0
  139.8030   71.7400  223.0140 O   0  0  0  0  0  0  0  0  0  0  0  0
  138.3200   70.0240  222.7850 N   0  0  0  0  0  0  0  0  0  0  0  0
  138.6580   68.9770  221.8510 C   0  0  0  0  0  0  0  0  0  0  0  0
  137.6010   67.9150  222.0230 C   0  0  0  0  0  0  0  0  0  0  0  0
  136.6800   68.4600  223.0960 C   0  0  0  0  0  0  0  0  0  0  0  0
  137.5880   69.3590  223.8870 C   0  0  1  0  0  0  0  0  0  0  0  0
  138.5530   68.5370  224.6900 C   0  0  0  0  0  0  0  0  0  0  0  0
  139.8570   69.0190  224.8530 N   0  0  0  0  0  0  0  0  0  0  0  0
  140.5860   68.7810  226.0320 C   0  0  0  0  0  0  0  0  0  0  0  0
  141.0410   70.0440  226.6820 C   0  0  0  0  0  0  0  0  0  0  0  0
  140.7600   69.8870  228.1430 C   0  0  0  0  0  0  0  0  0  0  0  0
  140.3770   68.4670  228.3730 C   0  0  0  0  0  0  0  0  0  0  0  0
  139.6400   68.1410  227.0710 C   0  0  0  0  0  0  0  0  0  0  0  0
  138.2450   76.2040  222.1660 C   0  0  0  0  0  0  0  0  0  0  0  0
  137.4730   77.3480  222.0660 C   0  0  0  0  0  0  0  0  0  0  0  0
  138.0270   78.6010  222.3010 C   0  0  0  0  0  0  0  0  0  0  0  0
  139.3490   78.7300  222.6350 C   0  0  0  0  0  0  0  0  0  0  0  0
  139.9020   79.9560  222.8670 C   0  0  0  0  0  0  0  0  0  0  0  0
  141.2190   80.0530  223.1970 C   0  0  0  0  0  0  0  0  0  0  0  0
  141.8990   81.6440  223.4890 Cl  0  0  0  0  0  0  0  0  0  0  0  0
  141.9610   78.8970  223.2890 C   0  0  0  0  0  0  0  0  0  0  0  0
  141.4120   77.6580  223.0570 C   0  0  0  0  0  0  0  0  0  0  0  0
  140.0860   77.5520  222.7230 C   0  0  0  0  0  0  0  0  0  0  0  0
  139.5250   76.3450  222.4910 N   0  0  0  0  0  0  0  0  0  0  0  0
  139.2730   73.8100  222.7540 H   0  0  0  0  0  0  0  0  0  0  0  0
  136.7754   72.3555  222.5407 H   0  0  0  0  0  0  0  0  0  0  0  0
  137.6629   72.2516  220.9788 H   0  0  0  0  0  0  0  0  0  0  0  0
  138.6478   69.3643  220.8215 H   0  0  0  0  0  0  0  0  0  0  0  0
  139.6661   68.5784  222.0375 H   0  0  0  0  0  0  0  0  0  0  0  0
  137.0516   67.7585  221.0829 H   0  0  0  0  0  0  0  0  0  0  0  0
  138.0307   66.9406  222.2986 H   0  0  0  0  0  0  0  0  0  0  0  0
  135.8478   69.0271  222.6535 H   0  0  0  0  0  0  0  0  0  0  0  0
  136.2060   67.6751  223.7037 H   0  0  0  0  0  0  0  0  0  0  0  0
  137.0757   70.0285  224.5936 H   0  0  0  0  0  0  0  0  0  0  0  0
  138.1217   68.4170  225.6948 H   0  0  0  0  0  0  0  0  0  0  0  0
  138.6752   67.6128  224.1061 H   0  0  0  0  0  0  0  0  0  0  0  0
  140.3150   69.5070  224.0780 H   0  0  0  0  0  0  0  0  0  0  0  0
  141.4456   68.1550  225.7505 H   0  0  0  0  0  0  0  0  0  0  0  0
  142.1181   70.1922  226.5148 H   0  0  0  0  0  0  0  0  0  0  0  0
  140.5202   70.9189  226.2657 H   0  0  0  0  0  0  0  0  0  0  0  0
  141.6589   70.1333  228.7273 H   0  0  0  0  0  0  0  0  0  0  0  0
  139.9513   70.5631  228.4576 H   0  0  0  0  0  0  0  0  0  0  0  0
  141.2621   67.8275  228.5058 H   0  0  0  0  0  0  0  0  0  0  0  0
  139.7799   68.3028  229.2821 H   0  0  0  0  0  0  0  0  0  0  0  0
  139.5478   67.0554  226.9194 H   0  0  0  0  0  0  0  0  0  0  0  0
  138.6044   68.5095  227.0305 H   0  0  0  0  0  0  0  0  0  0  0  0
  136.4095   77.2650  221.7976 H   0  0  0  0  0  0  0  0  0  0  0  0
  137.3968   79.4987  222.2178 H   0  0  0  0  0  0  0  0  0  0  0  0
  139.2851   80.8633  222.7875 H   0  0  0  0  0  0  0  0  0  0  0  0
  143.0257   78.9668  223.5563 H   0  0  0  0  0  0  0  0  0  0  0  0
  142.0343   76.7546  223.1390 H   0  0  0  0  0  0  0  0  0  0  0  0
  1  2  2  0
  2  3  1  0
  3  4  1  0
  4  5  1  0
  5  6  2  0
  5  7  1  0
  7  8  1  0
  8  9  1  0
  9 10  1  0
 10 11  1  0
 11 12  1  0
 12 13  1  0
 13 14  1  0
 14 15  1  0
 15 16  1  0
 16 17  1  0
 17 18  1  0
  2 19  1  0
 19 20  2  0
 20 21  1  0
 21 22  2  0
 22 23  1  0
 23 24  2  0
 24 25  1  0
 24 26  1  0
 26 27  2  0
 27 28  1  0
 28 29  2  0
 11  7  1  0
 18 14  1  0
 29 19  1  0
 28 22  1  0
  3 30  1  0
  4 31  1  0
  4 32  1  0
  8 33  1  0
  8 34  1  0
  9 35  1  0
  9 36  1  0
 10 37  1  0
 10 38  1  0
 11 39  1  1
 12 40  1  0
 12 41  1  0
 13 42  1  0
 14 43  1  0
 15 44  1  0
 15 45  1  0
 16 46  1  0
 16 47  1  0
 17 48  1  0
 17 49  1  0
 18 50  1  0
 18 51  1  0
 20 52  1  0
 21 53  1  0
 23 54  1  0
 26 55  1  0
 27 56  1  0
M  END
>  <smiles>  (50) 
O=C(NCC(=O)N1CCC[C@H]1CNC1CCCC1)c1ccc2cc(Cl)ccc2n1

>  <score_type>  (50) 
oracle

>  <origin>  (50) 
autodockgpu

>  <m_score__min__energy>  (50) 
-8.4399999999999995

>  <m_primary>  (50) 
energy

>  <rmsd>  (50) 
9.681892207322925

>  <m_score__min__rmsd>  (50) 
9.681892207322925

>  <meeko>  (50) 
{"free_energy": -6.81, "intermolecular_energy": -8.9, "internal_energy": -2.49, "cluster_size": 1, "cluster_id": 3, "rank_in_cluster": 1}

>  <energy>  (50) 
-5.76

>  <cluster_rmsd>  (50) 
0.0

>  <cluster>  (50) 
10

$$$$
