
     RDKit          3D

 47 49  0  0  0  0  0  0  0  0999 V2000
  140.8160   78.8810  219.2290 C   0  0  0  0  0  0  0  0  0  0  0  0
  140.6120   78.1780  220.5700 C   0  0  2  0  0  0  0  0  0  0  0  0
  141.0410   79.0460  221.6640 C   0  0  0  0  0  0  0  0  0  0  0  0
  140.1870   79.1890  222.7580 C   0  0  0  0  0  0  0  0  0  0  0  0
  140.5370   80.0040  223.8320 C   0  0  0  0  0  0  0  0  0  0  0  0
  141.7320   80.6930  223.8480 C   0  0  0  0  0  0  0  0  0  0  0  0
  142.5810   80.5540  222.7670 C   0  0  0  0  0  0  0  0  0  0  0  0
  142.2220   79.7480  221.7180 C   0  0  0  0  0  0  0  0  0  0  0  0
  141.2470   76.8600  220.5840 N   0  0  0  0  0  0  0  0  0  0  0  0
  142.4020   76.6990  219.7340 C   0  0  0  0  0  0  0  0  0  0  0  0
  140.6930   75.9070  221.4520 C   0  0  0  0  0  0  0  0  0  0  0  0
  140.6480   76.3050  222.6970 O   0  0  0  0  0  0  0  0  0  0  0  0
  140.1750   74.5790  221.2250 C   0  0  0  0  0  0  0  0  0  0  0  0
  139.9810   73.6950  222.3370 N   0  0  0  0  0  0  0  0  0  0  0  0
  140.4120   72.3230  222.3420 C   0  0  0  0  0  0  0  0  0  0  0  0
  140.9960   71.8280  221.3170 O   0  0  0  0  0  0  0  0  0  0  0  0
  140.1810   71.4840  223.5320 C   0  0  0  0  0  0  0  0  0  0  0  0
  139.5400   70.2780  223.3760 C   0  0  0  0  0  0  0  0  0  0  0  0
  139.3450   69.5220  224.5320 C   0  0  0  0  0  0  0  0  0  0  0  0
  139.7700   69.9560  225.7720 C   0  0  0  0  0  0  0  0  0  0  0  0
  139.5950   69.2390  226.9310 C   0  0  0  0  0  0  0  0  0  0  0  0
  140.0570   69.7530  228.1430 C   0  0  0  0  0  0  0  0  0  0  0  0
  140.6950   70.9850  228.2110 C   0  0  0  0  0  0  0  0  0  0  0  0
  140.8710   71.7060  227.0470 C   0  0  0  0  0  0  0  0  0  0  0  0
  140.4060   71.1720  225.8710 C   0  0  0  0  0  0  0  0  0  0  0  0
  140.5880   71.8910  224.7480 N   0  0  0  0  0  0  0  0  0  0  0  0
  141.1186   79.9240  219.4041 H   0  0  0  0  0  0  0  0  0  0  0  0
  141.6007   78.3623  218.6587 H   0  0  0  0  0  0  0  0  0  0  0  0
  139.8755   78.8629  218.6587 H   0  0  0  0  0  0  0  0  0  0  0  0
  139.5390   77.9868  220.7187 H   0  0  0  0  0  0  0  0  0  0  0  0
  139.2269   78.6523  222.7725 H   0  0  0  0  0  0  0  0  0  0  0  0
  139.8474   80.1000  224.6836 H   0  0  0  0  0  0  0  0  0  0  0  0
  142.0017   81.3360  224.6988 H   0  0  0  0  0  0  0  0  0  0  0  0
  143.5422   81.0885  222.7482 H   0  0  0  0  0  0  0  0  0  0  0  0
  142.9183   79.6577  220.8713 H   0  0  0  0  0  0  0  0  0  0  0  0
  143.3005   76.5738  220.3561 H   0  0  0  0  0  0  0  0  0  0  0  0
  142.2690   75.8107  219.0990 H   0  0  0  0  0  0  0  0  0  0  0  0
  142.5170   77.5898  219.0990 H   0  0  0  0  0  0  0  0  0  0  0  0
  139.1967   74.6969  220.7361 H   0  0  0  0  0  0  0  0  0  0  0  0
  140.9692   74.0892  220.6424 H   0  0  0  0  0  0  0  0  0  0  0  0
  139.5010   74.0060  223.2360 H   0  0  0  0  0  0  0  0  0  0  0  0
  139.1986   69.9274  222.3909 H   0  0  0  0  0  0  0  0  0  0  0  0
  138.8367   68.5496  224.4533 H   0  0  0  0  0  0  0  0  0  0  0  0
  139.0915   68.2614  226.9033 H   0  0  0  0  0  0  0  0  0  0  0  0
  139.9129   69.1700  229.0646 H   0  0  0  0  0  0  0  0  0  0  0  0
  141.0531   71.3785  229.1738 H   0  0  0  0  0  0  0  0  0  0  0  0
  141.3720   72.6852  227.0615 H   0  0  0  0  0  0  0  0  0  0  0  0
  1  2  1  0
  2  3  1  0
  3  4  2  0
  4  5  1  0
  5  6  2  0
  6  7  1  0
  7  8  2  0
  2  9  1  0
  9 10  1  0
  9 11  1  0
 11 12  2  0
 11 13  1  0
 13 14  1  0
 14 15  1  0
 15 16  2  0
 15 17  1  0
 17 18  2  0
 18 19  1  0
 19 20  2  0
 20 21  1  0
 21 22  2  0
 22 23  1  0
 23 24  2  0
 24 25  1  0
 25 26  2  0
  8  3  1  0
 26 17  1  0
 25 20  1  0
  1 27  1  0
  1 28  1  0
  1 29  1  0
  2 30  1  1
  4 31  1  0
  5 32  1  0
  6 33  1  0
  7 34  1  0
  8 35  1  0
 10 36  1  0
 10 37  1  0
 10 38  1  0
 13 39  1  0
 13 40  1  0
 14 41  1  0
 18 42  1  0
 19 43  1  0
 21 44  1  0
 22 45  1  0
 23 46  1  0
 24 47  1  0
M  END
>  <smiles>  (1) 
C[C@H](c1ccccc1)N(C)C(=O)CNC(=O)c1ccc2ccccc2n1

>  <score_type>  (1) 
oracle

>  <origin>  (1) 
autodockgpu

>  <m_score__min__energy>  (1) 
-8.9000000000000004

>  <m_primary>  (1) 
energy

>  <rmsd>  (1) 
3.8843810322097467

>  <m_score__min__rmsd>  (1) 
3.8843810322097467

>  <meeko>  (1) 
{"free_energy": -8.31, "intermolecular_energy": -10.1, "internal_energy": -1.24, "cluster_size": 17, "cluster_id": 2, "rank_in_cluster": 8}

>  <energy>  (1) 
-8.9

>  <cluster_rmsd>  (1) 
0.0

>  <cluster>  (1) 
1

$$$$

     RDKit          3D

 47 49  0  0  0  0  0  0  0  0999 V2000
  141.2530   78.0080  219.2860 C   0  0  0  0  0  0  0  0  0  0  0  0
  140.7920   77.5260  220.6610 C   0  0  2  0  0  0  0  0  0  0  0  0
  141.3090   78.4090  221.7030 C   0  0  0  0  0  0  0  0  0  0  0  0
  141.8380   79.6400  221.3150 C   0  0  0  0  0  0  0  0  0  0  0  0
  142.3490   80.5260  222.2600 C   0  0  0  0  0  0  0  0  0  0  0  0
  142.3510   80.2150  223.6040 C   0  0  0  0  0  0  0  0  0  0  0  0
  141.8280   78.9980  223.9940 C   0  0  0  0  0  0  0  0  0  0  0  0
  141.3280   78.1370  223.0510 C   0  0  0  0  0  0  0  0  0  0  0  0
  141.1220   76.1160  220.8710 N   0  0  0  0  0  0  0  0  0  0  0  0
  142.4110   75.6830  220.3900 C   0  0  0  0  0  0  0  0  0  0  0  0
  140.1690   75.3460  221.5550 C   0  0  0  0  0  0  0  0  0  0  0  0
  139.6160   75.9770  222.5580 O   0  0  0  0  0  0  0  0  0  0  0  0
  139.6970   73.9960  221.3580 C   0  0  0  0  0  0  0  0  0  0  0  0
  139.6170   73.1040  222.4780 N   0  0  0  0  0  0  0  0  0  0  0  0
  139.9970   71.7190  222.4150 C   0  0  0  0  0  0  0  0  0  0  0  0
  140.4270   71.2190  221.3190 O   0  0  0  0  0  0  0  0  0  0  0  0
  139.8920   70.8720  223.6170 C   0  0  0  0  0  0  0  0  0  0  0  0
  139.3480   69.6160  223.4950 C   0  0  0  0  0  0  0  0  0  0  0  0
  139.2700   68.8540  224.6610 C   0  0  0  0  0  0  0  0  0  0  0  0
  139.7150   69.3300  225.8790 C   0  0  0  0  0  0  0  0  0  0  0  0
  139.6540   68.6090  227.0470 C   0  0  0  0  0  0  0  0  0  0  0  0
  140.1280   69.1690  228.2350 C   0  0  0  0  0  0  0  0  0  0  0  0
  140.6630   70.4500  228.2690 C   0  0  0  0  0  0  0  0  0  0  0  0
  140.7240   71.1750  227.0950 C   0  0  0  0  0  0  0  0  0  0  0  0
  140.2510   70.5960  225.9440 C   0  0  0  0  0  0  0  0  0  0  0  0
  140.3200   71.3200  224.8110 N   0  0  0  0  0  0  0  0  0  0  0  0
  142.0086   78.7980  219.4087 H   0  0  0  0  0  0  0  0  0  0  0  0
  141.6902   77.1657  218.7298 H   0  0  0  0  0  0  0  0  0  0  0  0
  140.3921   78.4073  218.7298 H   0  0  0  0  0  0  0  0  0  0  0  0
  139.6946   77.5803  220.7142 H   0  0  0  0  0  0  0  0  0  0  0  0
  141.8517   79.9142  220.2498 H   0  0  0  0  0  0  0  0  0  0  0  0
  142.7586   81.4916  221.9287 H   0  0  0  0  0  0  0  0  0  0  0  0
  142.7585   80.9180  224.3455 H   0  0  0  0  0  0  0  0  0  0  0  0
  141.8125   78.7199  225.0582 H   0  0  0  0  0  0  0  0  0  0  0  0
  140.9190   77.1745  223.3920 H   0  0  0  0  0  0  0  0  0  0  0  0
  143.0665   75.4628  221.2454 H   0  0  0  0  0  0  0  0  0  0  0  0
  142.2888   74.7766  219.7789 H   0  0  0  0  0  0  0  0  0  0  0  0
  142.8608   76.4794  219.7789 H   0  0  0  0  0  0  0  0  0  0  0  0
  138.6842   74.0700  220.9353 H   0  0  0  0  0  0  0  0  0  0  0  0
  140.4716   73.5424  220.7222 H   0  0  0  0  0  0  0  0  0  0  0  0
  139.2680   73.4180  223.4340 H   0  0  0  0  0  0  0  0  0  0  0  0
  138.9924   69.2312  222.5278 H   0  0  0  0  0  0  0  0  0  0  0  0
  138.8407   67.8426  224.6088 H   0  0  0  0  0  0  0  0  0  0  0  0
  139.2327   67.5929  227.0462 H   0  0  0  0  0  0  0  0  0  0  0  0
  140.0765   68.5826  229.1643 H   0  0  0  0  0  0  0  0  0  0  0  0
  141.0311   70.8790  229.2126 H   0  0  0  0  0  0  0  0  0  0  0  0
  141.1418   72.1925  227.0828 H   0  0  0  0  0  0  0  0  0  0  0  0
  1  2  1  0
  2  3  1  0
  3  4  2  0
  4  5  1  0
  5  6  2  0
  6  7  1  0
  7  8  2  0
  2  9  1  0
  9 10  1  0
  9 11  1  0
 11 12  2  0
 11 13  1  0
 13 14  1  0
 14 15  1  0
 15 16  2  0
 15 17  1  0
 17 18  2  0
 18 19  1  0
 19 20  2  0
 20 21  1  0
 21 22  2  0
 22 23  1  0
 23 24  2  0
 24 25  1  0
 25 26  2  0
  8  3  1  0
 26 17  1  0
 25 20  1  0
  1 27  1  0
  1 28  1  0
  1 29  1  0
  2 30  1  6
  4 31  1  0
  5 32  1  0
  6 33  1  0
  7 34  1  0
  8 35  1  0
 10 36  1  0
 10 37  1  0
 10 38  1  0
 13 39  1  0
 13 40  1  0
 14 41  1  0
 18 42  1  0
 19 43  1  0
 21 44  1  0
 22 45  1  0
 23 46  1  0
 24 47  1  0
M  END
>  <smiles>  (2) 
C[C@H](c1ccccc1)N(C)C(=O)CNC(=O)c1ccc2ccccc2n1

>  <score_type>  (2) 
oracle

>  <origin>  (2) 
autodockgpu

>  <m_score__min__energy>  (2) 
-8.9000000000000004

>  <m_primary>  (2) 
energy

>  <rmsd>  (2) 
4.341728016816386

>  <m_score__min__rmsd>  (2) 
4.341728016816386

>  <meeko>  (2) 
{"free_energy": -8.42, "intermolecular_energy": -10.21, "internal_energy": -1.17, "cluster_size": 17, "cluster_id": 2, "rank_in_cluster": 3}

>  <energy>  (2) 
-8.87

>  <cluster_rmsd>  (2) 
1.89

>  <cluster>  (2) 
1

$$$$

     RDKit          3D

 47 49  0  0  0  0  0  0  0  0999 V2000
  138.0560   78.8470  222.3620 C   0  0  0  0  0  0  0  0  0  0  0  0
  139.4080   78.1460  222.4690 C   0  0  2  0  0  0  0  0  0  0  0  0
  140.4720   79.1290  222.6580 C   0  0  0  0  0  0  0  0  0  0  0  0
  141.4570   78.8540  223.6070 C   0  0  0  0  0  0  0  0  0  0  0  0
  142.4960   79.7520  223.8370 C   0  0  0  0  0  0  0  0  0  0  0  0
  142.5840   80.9370  223.1370 C   0  0  0  0  0  0  0  0  0  0  0  0
  141.6120   81.2150  222.1960 C   0  0  0  0  0  0  0  0  0  0  0  0
  140.5950   80.3200  221.9810 C   0  0  0  0  0  0  0  0  0  0  0  0
  139.6350   77.2470  221.3360 N   0  0  0  0  0  0  0  0  0  0  0  0
  139.3560   77.7870  220.0280 C   0  0  0  0  0  0  0  0  0  0  0  0
  140.1400   75.9730  221.6390 C   0  0  0  0  0  0  0  0  0  0  0  0
  141.2410   76.0060  222.3430 O   0  0  0  0  0  0  0  0  0  0  0  0
  139.6720   74.6470  221.3130 C   0  0  0  0  0  0  0  0  0  0  0  0
  139.5440   73.6670  222.3520 N   0  0  0  0  0  0  0  0  0  0  0  0
  140.4470   72.5590  222.5100 C   0  0  0  0  0  0  0  0  0  0  0  0
  141.4220   72.4030  221.6970 O   0  0  0  0  0  0  0  0  0  0  0  0
  140.2490   71.6010  223.6120 C   0  0  0  0  0  0  0  0  0  0  0  0
  139.5950   70.4200  223.3520 C   0  0  0  0  0  0  0  0  0  0  0  0
  139.4320   69.5470  224.4280 C   0  0  0  0  0  0  0  0  0  0  0  0
  139.9000   69.8470  225.6920 C   0  0  0  0  0  0  0  0  0  0  0  0
  139.7580   69.0120  226.7740 C   0  0  0  0  0  0  0  0  0  0  0  0
  140.2630   69.3950  228.0180 C   0  0  0  0  0  0  0  0  0  0  0  0
  140.9110   70.6100  228.1930 C   0  0  0  0  0  0  0  0  0  0  0  0
  141.0540   71.4490  227.1060 C   0  0  0  0  0  0  0  0  0  0  0  0
  140.5480   71.0440  225.8970 C   0  0  0  0  0  0  0  0  0  0  0  0
  140.6980   71.8760  224.8500 N   0  0  0  0  0  0  0  0  0  0  0  0
  137.6668   79.0488  223.3708 H   0  0  0  0  0  0  0  0  0  0  0  0
  138.1770   79.7960  221.8190 H   0  0  0  0  0  0  0  0  0  0  0  0
  137.3501   78.2013  221.8190 H   0  0  0  0  0  0  0  0  0  0  0  0
  139.4107   77.5004  223.3596 H   0  0  0  0  0  0  0  0  0  0  0  0
  141.4123   77.9164  224.1805 H   0  0  0  0  0  0  0  0  0  0  0  0
  143.2604   79.5119  224.5907 H   0  0  0  0  0  0  0  0  0  0  0  0
  143.4071   81.6425  223.3233 H   0  0  0  0  0  0  0  0  0  0  0  0
  141.6533   82.1516  221.6205 H   0  0  0  0  0  0  0  0  0  0  0  0
  139.8355   80.5686  221.2251 H   0  0  0  0  0  0  0  0  0  0  0  0
  138.8534   78.7599  220.1325 H   0  0  0  0  0  0  0  0  0  0  0  0
  140.2989   77.9188  219.4770 H   0  0  0  0  0  0  0  0  0  0  0  0
  138.7030   77.0942  219.4770 H   0  0  0  0  0  0  0  0  0  0  0  0
  138.6773   74.7620  220.8576 H   0  0  0  0  0  0  0  0  0  0  0  0
  140.4700   74.2419  220.6734 H   0  0  0  0  0  0  0  0  0  0  0  0
  138.7650   73.7020  223.0770 H   0  0  0  0  0  0  0  0  0  0  0  0
  139.2195   70.1759  222.3473 H   0  0  0  0  0  0  0  0  0  0  0  0
  138.9147   68.5901  224.2644 H   0  0  0  0  0  0  0  0  0  0  0  0
  139.2477   68.0442  226.6603 H   0  0  0  0  0  0  0  0  0  0  0  0
  140.1448   68.7194  228.8780 H   0  0  0  0  0  0  0  0  0  0  0  0
  141.3032   70.8989  229.1792 H   0  0  0  0  0  0  0  0  0  0  0  0
  141.5618   72.4195  227.2070 H   0  0  0  0  0  0  0  0  0  0  0  0
  1  2  1  0
  2  3  1  0
  3  4  2  0
  4  5  1  0
  5  6  2  0
  6  7  1  0
  7  8  2  0
  2  9  1  0
  9 10  1  0
  9 11  1  0
 11 12  2  0
 11 13  1  0
 13 14  1  0
 14 15  1  0
 15 16  2  0
 15 17  1  0
 17 18  2  0
 18 19  1  0
 19 20  2  0
 20 21  1  0
 21 22  2  0
 22 23  1  0
 23 24  2  0
 24 25  1  0
 25 26  2  0
  8  3  1  0
 26 17  1  0
 25 20  1  0
  1 27  1  0
  1 28  1  0
  1 29  1  0
  2 30  1  1
  4 31  1  0
  5 32  1  0
  6 33  1  0
  7 34  1  0
  8 35  1  0
 10 36  1  0
 10 37  1  0
 10 38  1  0
 13 39  1  0
 13 40  1  0
 14 41  1  0
 18 42  1  0
 19 43  1  0
 21 44  1  0
 22 45  1  0
 23 46  1  0
 24 47  1  0
M  END
>  <smiles>  (3) 
C[C@H](c1ccccc1)N(C)C(=O)CNC(=O)c1ccc2ccccc2n1

>  <score_type>  (3) 
oracle

>  <origin>  (3) 
autodockgpu

>  <m_score__min__energy>  (3) 
-8.9000000000000004

>  <m_primary>  (3) 
energy

>  <rmsd>  (3) 
4.036071565077356

>  <m_score__min__rmsd>  (3) 
4.036071565077356

>  <meeko>  (3) 
{"free_energy": -8.4, "intermolecular_energy": -10.19, "internal_energy": -1.03, "cluster_size": 17, "cluster_id": 2, "rank_in_cluster": 4}

>  <energy>  (3) 
-8.84

>  <cluster_rmsd>  (3) 
0.17

>  <cluster>  (3) 
1

$$$$

     RDKit          3D

 47 49  0  0  0  0  0  0  0  0999 V2000
  138.6730   77.5530  222.4460 C   0  0  0  0  0  0  0  0  0  0  0  0
  140.1930   77.4840  222.5750 C   0  0  2  0  0  0  0  0  0  0  0  0
  140.7270   78.7930  222.9460 C   0  0  0  0  0  0  0  0  0  0  0  0
  142.0180   78.8480  223.4690 C   0  0  0  0  0  0  0  0  0  0  0  0
  142.5830   80.0640  223.8450 C   0  0  0  0  0  0  0  0  0  0  0  0
  141.8860   81.2470  223.7140 C   0  0  0  0  0  0  0  0  0  0  0  0
  140.6070   81.1980  223.1970 C   0  0  0  0  0  0  0  0  0  0  0  0
  140.0650   79.9930  222.8310 C   0  0  0  0  0  0  0  0  0  0  0  0
  140.8060   76.9220  221.3710 N   0  0  0  0  0  0  0  0  0  0  0  0
  141.3620   77.8690  220.4350 C   0  0  0  0  0  0  0  0  0  0  0  0
  140.8280   75.5220  221.2750 C   0  0  0  0  0  0  0  0  0  0  0  0
  142.0350   75.0260  221.2090 O   0  0  0  0  0  0  0  0  0  0  0  0
  139.7690   74.5410  221.2300 C   0  0  0  0  0  0  0  0  0  0  0  0
  139.6090   73.6230  222.3190 N   0  0  0  0  0  0  0  0  0  0  0  0
  140.4650   72.4850  222.5260 C   0  0  0  0  0  0  0  0  0  0  0  0
  141.4230   72.2440  221.7130 O   0  0  0  0  0  0  0  0  0  0  0  0
  140.2370   71.5940  223.6780 C   0  0  0  0  0  0  0  0  0  0  0  0
  139.5590   70.4150  223.4780 C   0  0  0  0  0  0  0  0  0  0  0  0
  139.3690   69.6080  224.6000 C   0  0  0  0  0  0  0  0  0  0  0  0
  139.8340   69.9670  225.8500 C   0  0  0  0  0  0  0  0  0  0  0  0
  139.6660   69.1970  226.9750 C   0  0  0  0  0  0  0  0  0  0  0  0
  140.1700   69.6380  228.2000 C   0  0  0  0  0  0  0  0  0  0  0  0
  140.8440   70.8470  228.3130 C   0  0  0  0  0  0  0  0  0  0  0  0
  141.0130   71.6200  227.1820 C   0  0  0  0  0  0  0  0  0  0  0  0
  140.5070   71.1590  225.9930 C   0  0  0  0  0  0  0  0  0  0  0  0
  140.6830   71.9280  224.9030 N   0  0  0  0  0  0  0  0  0  0  0  0
  138.2205   77.5735  223.4484 H   0  0  0  0  0  0  0  0  0  0  0  0
  138.3925   78.4648  221.8983 H   0  0  0  0  0  0  0  0  0  0  0  0
  138.3111   76.6704  221.8983 H   0  0  0  0  0  0  0  0  0  0  0  0
  140.4557   76.7913  223.3881 H   0  0  0  0  0  0  0  0  0  0  0  0
  142.5971   77.9201  223.5860 H   0  0  0  0  0  0  0  0  0  0  0  0
  143.6040   80.0814  224.2540 H   0  0  0  0  0  0  0  0  0  0  0  0
  142.3374   82.2043  224.0136 H   0  0  0  0  0  0  0  0  0  0  0  0
  140.0241   82.1234  223.0790 H   0  0  0  0  0  0  0  0  0  0  0  0
  139.0437   79.9856  222.4226 H   0  0  0  0  0  0  0  0  0  0  0  0
  141.8439   78.6898  220.9864 H   0  0  0  0  0  0  0  0  0  0  0  0
  142.1075   77.3648  219.8025 H   0  0  0  0  0  0  0  0  0  0  0  0
  140.5585   78.2743  219.8025 H   0  0  0  0  0  0  0  0  0  0  0  0
  138.8234   75.0954  221.1376 H   0  0  0  0  0  0  0  0  0  0  0  0
  140.0528   73.8939  220.3870 H   0  0  0  0  0  0  0  0  0  0  0  0
  138.8410   73.7300  223.0490 H   0  0  0  0  0  0  0  0  0  0  0  0
  139.1858   70.1232  222.4852 H   0  0  0  0  0  0  0  0  0  0  0  0
  138.8315   68.6551  224.4855 H   0  0  0  0  0  0  0  0  0  0  0  0
  139.1357   68.2354  226.9109 H   0  0  0  0  0  0  0  0  0  0  0  0
  140.0302   69.0143  229.0952 H   0  0  0  0  0  0  0  0  0  0  0  0
  141.2355   71.1820  229.2848 H   0  0  0  0  0  0  0  0  0  0  0  0
  141.5412   72.5835  227.2328 H   0  0  0  0  0  0  0  0  0  0  0  0
  1  2  1  0
  2  3  1  0
  3  4  2  0
  4  5  1  0
  5  6  2  0
  6  7  1  0
  7  8  2  0
  2  9  1  0
  9 10  1  0
  9 11  1  0
 11 12  2  0
 11 13  1  0
 13 14  1  0
 14 15  1  0
 15 16  2  0
 15 17  1  0
 17 18  2  0
 18 19  1  0
 19 20  2  0
 20 21  1  0
 21 22  2  0
 22 23  1  0
 23 24  2  0
 24 25  1  0
 25 26  2  0
  8  3  1  0
 26 17  1  0
 25 20  1  0
  1 27  1  0
  1 28  1  0
  1 29  1  0
  2 30  1  1
  4 31  1  0
  5 32  1  0
  6 33  1  0
  7 34  1  0
  8 35  1  0
 10 36  1  0
 10 37  1  0
 10 38  1  0
 13 39  1  0
 13 40  1  0
 14 41  1  0
 18 42  1  0
 19 43  1  0
 21 44  1  0
 22 45  1  0
 23 46  1  0
 24 47  1  0
M  END
>  <smiles>  (4) 
C[C@H](c1ccccc1)N(C)C(=O)CNC(=O)c1ccc2ccccc2n1

>  <score_type>  (4) 
oracle

>  <origin>  (4) 
autodockgpu

>  <m_score__min__energy>  (4) 
-8.9000000000000004

>  <m_primary>  (4) 
energy

>  <rmsd>  (4) 
4.1596613892221965

>  <m_score__min__rmsd>  (4) 
4.1596613892221965

>  <meeko>  (4) 
{"free_energy": -8.76, "intermolecular_energy": -10.55, "internal_energy": -1.0, "cluster_size": 28, "cluster_id": 1, "rank_in_cluster": 7}

>  <energy>  (4) 
-8.83

>  <cluster_rmsd>  (4) 
1.9

>  <cluster>  (4) 
1

$$$$

     RDKit          3D

 47 49  0  0  0  0  0  0  0  0999 V2000
  141.3820   74.4100  218.2240 C   0  0  0  0  0  0  0  0  0  0  0  0
  142.2440   75.2880  219.1280 C   0  0  2  0  0  0  0  0  0  0  0  0
  143.2710   74.4810  219.7830 C   0  0  0  0  0  0  0  0  0  0  0  0
  143.0040   73.1290  219.9960 C   0  0  0  0  0  0  0  0  0  0  0  0
  143.9410   72.3070  220.6180 C   0  0  0  0  0  0  0  0  0  0  0  0
  145.1560   72.8020  221.0420 C   0  0  0  0  0  0  0  0  0  0  0  0
  145.4270   74.1400  220.8330 C   0  0  0  0  0  0  0  0  0  0  0  0
  144.4940   74.9360  220.2190 C   0  0  0  0  0  0  0  0  0  0  0  0
  141.4240   76.0620  220.0610 N   0  0  0  0  0  0  0  0  0  0  0  0
  141.2620   77.4630  219.7580 C   0  0  0  0  0  0  0  0  0  0  0  0
  140.8480   75.3520  221.1260 C   0  0  0  0  0  0  0  0  0  0  0  0
  141.1920   75.8100  222.3010 O   0  0  0  0  0  0  0  0  0  0  0  0
  139.9580   74.2150  221.1580 C   0  0  0  0  0  0  0  0  0  0  0  0
  139.8890   73.4050  222.3390 N   0  0  0  0  0  0  0  0  0  0  0  0
  140.2460   72.0130  222.3650 C   0  0  0  0  0  0  0  0  0  0  0  0
  140.6440   71.4300  221.2980 O   0  0  0  0  0  0  0  0  0  0  0  0
  140.1540   71.2530  223.6260 C   0  0  0  0  0  0  0  0  0  0  0  0
  139.6030   69.9940  223.6000 C   0  0  0  0  0  0  0  0  0  0  0  0
  139.5390   69.3170  224.8180 C   0  0  0  0  0  0  0  0  0  0  0  0
  140.0020   69.8760  225.9930 C   0  0  0  0  0  0  0  0  0  0  0  0
  139.9550   69.2400  227.2090 C   0  0  0  0  0  0  0  0  0  0  0  0
  140.4470   69.8800  228.3480 C   0  0  0  0  0  0  0  0  0  0  0  0
  140.9880   71.1570  228.2840 C   0  0  0  0  0  0  0  0  0  0  0  0
  141.0360   71.7970  227.0610 C   0  0  0  0  0  0  0  0  0  0  0  0
  140.5450   71.1410  225.9610 C   0  0  0  0  0  0  0  0  0  0  0  0
  140.6010   71.7820  224.7790 N   0  0  0  0  0  0  0  0  0  0  0  0
  140.7448   73.7610  218.8427 H   0  0  0  0  0  0  0  0  0  0  0  0
  140.7492   75.0475  217.5890 H   0  0  0  0  0  0  0  0  0  0  0  0
  142.0310   73.7890  217.5890 H   0  0  0  0  0  0  0  0  0  0  0  0
  142.7696   76.0334  218.5131 H   0  0  0  0  0  0  0  0  0  0  0  0
  142.0423   72.7067  219.6691 H   0  0  0  0  0  0  0  0  0  0  0  0
  143.7073   71.2435  220.7737 H   0  0  0  0  0  0  0  0  0  0  0  0
  145.8908   72.1479  221.5342 H   0  0  0  0  0  0  0  0  0  0  0  0
  146.3878   74.5658  221.1578 H   0  0  0  0  0  0  0  0  0  0  0  0
  144.7372   75.9979  220.0666 H   0  0  0  0  0  0  0  0  0  0  0  0
  141.1958   78.0355  220.6949 H   0  0  0  0  0  0  0  0  0  0  0  0
  142.1255   77.8141  219.1740 H   0  0  0  0  0  0  0  0  0  0  0  0
  140.3411   77.6077  219.1740 H   0  0  0  0  0  0  0  0  0  0  0  0
  138.9434   74.5976  220.9729 H   0  0  0  0  0  0  0  0  0  0  0  0
  140.3802   73.5354  220.4031 H   0  0  0  0  0  0  0  0  0  0  0  0
  139.5660   73.7910  223.2780 H   0  0  0  0  0  0  0  0  0  0  0  0
  139.2319   69.5438  222.6675 H   0  0  0  0  0  0  0  0  0  0  0  0
  139.1061   68.3061  224.8434 H   0  0  0  0  0  0  0  0  0  0  0  0
  139.5305   68.2281  227.2856 H   0  0  0  0  0  0  0  0  0  0  0  0
  140.4051   69.3613  229.3171 H   0  0  0  0  0  0  0  0  0  0  0  0
  141.3711   71.6496  229.1899 H   0  0  0  0  0  0  0  0  0  0  0  0
  141.4580   72.8089  226.9713 H   0  0  0  0  0  0  0  0  0  0  0  0
  1  2  1  0
  2  3  1  0
  3  4  2  0
  4  5  1  0
  5  6  2  0
  6  7  1  0
  7  8  2  0
  2  9  1  0
  9 10  1  0
  9 11  1  0
 11 12  2  0
 11 13  1  0
 13 14  1  0
 14 15  1  0
 15 16  2  0
 15 17  1  0
 17 18  2  0
 18 19  1  0
 19 20  2  0
 20 21  1  0
 21 22  2  0
 22 23  1  0
 23 24  2  0
 24 25  1  0
 25 26  2  0
  8  3  1  0
 26 17  1  0
 25 20  1  0
  1 27  1  0
  1 28  1  0
  1 29  1  0
  2 30  1  6
  4 31  1  0
  5 32  1  0
  6 33  1  0
  7 34  1  0
  8 35  1  0
 10 36  1  0
 10 37  1  0
 10 38  1  0
 13 39  1  0
 13 40  1  0
 14 41  1  0
 18 42  1  0
 19 43  1  0
 21 44  1  0
 22 45  1  0
 23 46  1  0
 24 47  1  0
M  END
>  <smiles>  (5) 
C[C@H](c1ccccc1)N(C)C(=O)CNC(=O)c1ccc2ccccc2n1

>  <score_type>  (5) 
oracle

>  <origin>  (5) 
autodockgpu

>  <m_score__min__energy>  (5) 
-8.9000000000000004

>  <m_primary>  (5) 
energy

>  <rmsd>  (5) 
6.455991280524397

>  <m_score__min__rmsd>  (5) 
6.455991280524397

>  <meeko>  (5) 
{"free_energy": -7.73, "intermolecular_energy": -9.52, "internal_energy": -1.7, "cluster_size": 3, "cluster_id": 3, "rank_in_cluster": 3}

>  <energy>  (5) 
-8.81

>  <cluster_rmsd>  (5) 
1.9

>  <cluster>  (5) 
1

$$$$

     RDKit          3D

 47 49  0  0  0  0  0  0  0  0999 V2000
  139.4830   78.8490  219.7870 C   0  0  0  0  0  0  0  0  0  0  0  0
  139.9360   78.0570  221.0120 C   0  0  2  0  0  0  0  0  0  0  0  0
  140.8700   78.8500  221.8080 C   0  0  0  0  0  0  0  0  0  0  0  0
  140.9000   78.6380  223.1860 C   0  0  0  0  0  0  0  0  0  0  0  0
  141.7650   79.3640  224.0000 C   0  0  0  0  0  0  0  0  0  0  0  0
  142.6160   80.3120  223.4720 C   0  0  0  0  0  0  0  0  0  0  0  0
  142.5910   80.5270  222.1080 C   0  0  0  0  0  0  0  0  0  0  0  0
  141.7330   79.8030  221.3200 C   0  0  0  0  0  0  0  0  0  0  0  0
  140.4570   76.7420  220.6360 N   0  0  0  0  0  0  0  0  0  0  0  0
  141.2590   76.6920  219.4380 C   0  0  0  0  0  0  0  0  0  0  0  0
  140.1570   75.6790  221.5010 C   0  0  0  0  0  0  0  0  0  0  0  0
  139.8770   76.0650  222.7180 O   0  0  0  0  0  0  0  0  0  0  0  0
  140.1090   74.2510  221.2960 C   0  0  0  0  0  0  0  0  0  0  0  0
  139.9490   73.3790  222.4230 N   0  0  0  0  0  0  0  0  0  0  0  0
  140.2580   71.9750  222.3870 C   0  0  0  0  0  0  0  0  0  0  0  0
  140.6930   71.4390  221.3100 O   0  0  0  0  0  0  0  0  0  0  0  0
  140.0720   71.1500  223.5950 C   0  0  0  0  0  0  0  0  0  0  0  0
  139.5010   69.9070  223.4650 C   0  0  0  0  0  0  0  0  0  0  0  0
  139.3470   69.1660  224.6370 C   0  0  0  0  0  0  0  0  0  0  0  0
  139.7450   69.6500  225.8680 C   0  0  0  0  0  0  0  0  0  0  0  0
  139.6090   68.9500  227.0410 C   0  0  0  0  0  0  0  0  0  0  0  0
  140.0390   69.5160  228.2430 C   0  0  0  0  0  0  0  0  0  0  0  0
  140.6060   70.7830  228.2840 C   0  0  0  0  0  0  0  0  0  0  0  0
  140.7430   71.4870  227.1040 C   0  0  0  0  0  0  0  0  0  0  0  0
  140.3110   70.9030  225.9400 C   0  0  0  0  0  0  0  0  0  0  0  0
  140.4540   71.6060  224.8020 N   0  0  0  0  0  0  0  0  0  0  0  0
  138.9613   79.7611  220.1124 H   0  0  0  0  0  0  0  0  0  0  0  0
  140.3604   79.1241  219.1832 H   0  0  0  0  0  0  0  0  0  0  0  0
  138.8011   78.2322  219.1832 H   0  0  0  0  0  0  0  0  0  0  0  0
  139.0652   77.8541  221.6528 H   0  0  0  0  0  0  0  0  0  0  0  0
  140.2322   77.8881  223.6351 H   0  0  0  0  0  0  0  0  0  0  0  0
  141.7698   79.1781  225.0842 H   0  0  0  0  0  0  0  0  0  0  0  0
  143.2972   80.8823  224.1206 H   0  0  0  0  0  0  0  0  0  0  0  0
  143.2569   81.2763  221.6551 H   0  0  0  0  0  0  0  0  0  0  0  0
  141.7353   79.9955  220.2370 H   0  0  0  0  0  0  0  0  0  0  0  0
  142.3225   76.6257  219.7112 H   0  0  0  0  0  0  0  0  0  0  0  0
  140.9772   75.8097  218.8446 H   0  0  0  0  0  0  0  0  0  0  0  0
  141.0889   77.6025  218.8446 H   0  0  0  0  0  0  0  0  0  0  0  0
  139.2662   74.0538  220.6172 H   0  0  0  0  0  0  0  0  0  0  0  0
  141.1162   74.0102  220.9252 H   0  0  0  0  0  0  0  0  0  0  0  0
  139.5880   73.7230  223.3640 H   0  0  0  0  0  0  0  0  0  0  0  0
  139.1818   69.5164  222.4875 H   0  0  0  0  0  0  0  0  0  0  0  0
  138.8945   68.1651  224.5790 H   0  0  0  0  0  0  0  0  0  0  0  0
  139.1620   67.9449  227.0341 H   0  0  0  0  0  0  0  0  0  0  0  0
  139.9262   68.9462  229.1771 H   0  0  0  0  0  0  0  0  0  0  0  0
  140.9395   71.2174  229.2380 H   0  0  0  0  0  0  0  0  0  0  0  0
  141.1882   72.4929  227.0974 H   0  0  0  0  0  0  0  0  0  0  0  0
  1  2  1  0
  2  3  1  0
  3  4  2  0
  4  5  1  0
  5  6  2  0
  6  7  1  0
  7  8  2  0
  2  9  1  0
  9 10  1  0
  9 11  1  0
 11 12  2  0
 11 13  1  0
 13 14  1  0
 14 15  1  0
 15 16  2  0
 15 17  1  0
 17 18  2  0
 18 19  1  0
 19 20  2  0
 20 21  1  0
 21 22  2  0
 22 23  1  0
 23 24  2  0
 24 25  1  0
 25 26  2  0
  8  3  1  0
 26 17  1  0
 25 20  1  0
  1 27  1  0
  1 28  1  0
  1 29  1  0
  2 30  1  1
  4 31  1  0
  5 32  1  0
  6 33  1  0
  7 34  1  0
  8 35  1  0
 10 36  1  0
 10 37  1  0
 10 38  1  0
 13 39  1  0
 13 40  1  0
 14 41  1  0
 18 42  1  0
 19 43  1  0
 21 44  1  0
 22 45  1  0
 23 46  1  0
 24 47  1  0
M  END
>  <smiles>  (6) 
C[C@H](c1ccccc1)N(C)C(=O)CNC(=O)c1ccc2ccccc2n1

>  <score_type>  (6) 
oracle

>  <origin>  (6) 
autodockgpu

>  <m_score__min__energy>  (6) 
-8.9000000000000004

>  <m_primary>  (6) 
energy

>  <rmsd>  (6) 
4.060678543647611

>  <m_score__min__rmsd>  (6) 
4.060678543647611

>  <meeko>  (6) 
{"free_energy": -8.19, "intermolecular_energy": -9.98, "internal_energy": -1.38, "cluster_size": 17, "cluster_id": 2, "rank_in_cluster": 11}

>  <energy>  (6) 
-8.78

>  <cluster_rmsd>  (6) 
1.85

>  <cluster>  (6) 
1

$$$$

     RDKit          3D

 47 49  0  0  0  0  0  0  0  0999 V2000
  138.5540   77.8180  222.2310 C   0  0  0  0  0  0  0  0  0  0  0  0
  140.0550   77.6120  222.4220 C   0  0  2  0  0  0  0  0  0  0  0  0
  140.7000   78.8820  222.7480 C   0  0  0  0  0  0  0  0  0  0  0  0
  141.8900   78.8440  223.4760 C   0  0  0  0  0  0  0  0  0  0  0  0
  142.5510   80.0200  223.8210 C   0  0  0  0  0  0  0  0  0  0  0  0
  142.0540   81.2530  223.4570 C   0  0  0  0  0  0  0  0  0  0  0  0
  140.8760   81.2970  222.7370 C   0  0  0  0  0  0  0  0  0  0  0  0
  140.2370   80.1310  222.4040 C   0  0  0  0  0  0  0  0  0  0  0  0
  140.6520   76.9310  221.2720 N   0  0  0  0  0  0  0  0  0  0  0  0
  141.1870   77.7790  220.2350 C   0  0  0  0  0  0  0  0  0  0  0  0
  140.6780   75.5290  221.3200 C   0  0  0  0  0  0  0  0  0  0  0  0
  141.8860   75.0370  221.4200 O   0  0  0  0  0  0  0  0  0  0  0  0
  139.6260   74.5410  221.2750 C   0  0  0  0  0  0  0  0  0  0  0  0
  139.4980   73.5950  222.3440 N   0  0  0  0  0  0  0  0  0  0  0  0
  140.4220   72.5130  222.5570 C   0  0  0  0  0  0  0  0  0  0  0  0
  141.4160   72.3500  221.7690 O   0  0  0  0  0  0  0  0  0  0  0  0
  140.2220   71.5880  223.6880 C   0  0  0  0  0  0  0  0  0  0  0  0
  139.5490   70.4100  223.4670 C   0  0  0  0  0  0  0  0  0  0  0  0
  139.3860   69.5690  224.5690 C   0  0  0  0  0  0  0  0  0  0  0  0
  139.8720   69.8970  225.8190 C   0  0  0  0  0  0  0  0  0  0  0  0
  139.7300   69.0950  226.9250 C   0  0  0  0  0  0  0  0  0  0  0  0
  140.2540   69.5050  228.1520 C   0  0  0  0  0  0  0  0  0  0  0  0
  140.9210   70.7150  228.2870 C   0  0  0  0  0  0  0  0  0  0  0  0
  141.0640   71.5220  227.1760 C   0  0  0  0  0  0  0  0  0  0  0  0
  140.5390   71.0900  225.9840 C   0  0  0  0  0  0  0  0  0  0  0  0
  140.6890   71.8910  224.9130 N   0  0  0  0  0  0  0  0  0  0  0  0
  138.0651   77.8851  223.2141 H   0  0  0  0  0  0  0  0  0  0  0  0
  138.3800   78.7485  221.6707 H   0  0  0  0  0  0  0  0  0  0  0  0
  138.1357   76.9688  221.6707 H   0  0  0  0  0  0  0  0  0  0  0  0
  140.2214   76.9413  223.2779 H   0  0  0  0  0  0  0  0  0  0  0  0
  142.3105   77.8743  223.7807 H   0  0  0  0  0  0  0  0  0  0  0  0
  143.4877   79.9639  224.3950 H   0  0  0  0  0  0  0  0  0  0  0  0
  142.5817   82.1779  223.7327 H   0  0  0  0  0  0  0  0  0  0  0  0
  140.4520   82.2650  222.4317 H   0  0  0  0  0  0  0  0  0  0  0  0
  139.3014   80.1977  221.8294 H   0  0  0  0  0  0  0  0  0  0  0  0
  141.7208   78.6251  220.6923 H   0  0  0  0  0  0  0  0  0  0  0  0
  141.8837   77.2000  219.6110 H   0  0  0  0  0  0  0  0  0  0  0  0
  140.3645   78.1585  219.6110 H   0  0  0  0  0  0  0  0  0  0  0  0
  138.6744   75.0898  221.2182 H   0  0  0  0  0  0  0  0  0  0  0  0
  139.8954   73.9172  220.4099 H   0  0  0  0  0  0  0  0  0  0  0  0
  138.7050   73.6370  223.0520 H   0  0  0  0  0  0  0  0  0  0  0  0
  139.1592   70.1439  222.4734 H   0  0  0  0  0  0  0  0  0  0  0  0
  138.8538   68.6153  224.4375 H   0  0  0  0  0  0  0  0  0  0  0  0
  139.2046   68.1320  226.8440 H   0  0  0  0  0  0  0  0  0  0  0  0
  140.1358   68.8550  229.0315 H   0  0  0  0  0  0  0  0  0  0  0  0
  141.3279   71.0249  229.2608 H   0  0  0  0  0  0  0  0  0  0  0  0
  141.5861   72.4878  227.2446 H   0  0  0  0  0  0  0  0  0  0  0  0
  1  2  1  0
  2  3  1  0
  3  4  2  0
  4  5  1  0
  5  6  2  0
  6  7  1  0
  7  8  2  0
  2  9  1  0
  9 10  1  0
  9 11  1  0
 11 12  2  0
 11 13  1  0
 13 14  1  0
 14 15  1  0
 15 16  2  0
 15 17  1  0
 17 18  2  0
 18 19  1  0
 19 20  2  0
 20 21  1  0
 21 22  2  0
 22 23  1  0
 23 24  2  0
 24 25  1  0
 25 26  2  0
  8  3  1  0
 26 17  1  0
 25 20  1  0
  1 27  1  0
  1 28  1  0
  1 29  1  0
  2 30  1  1
  4 31  1  0
  5 32  1  0
  6 33  1  0
  7 34  1  0
  8 35  1  0
 10 36  1  0
 10 37  1  0
 10 38  1  0
 13 39  1  0
 13 40  1  0
 14 41  1  0
 18 42  1  0
 19 43  1  0
 21 44  1  0
 22 45  1  0
 23 46  1  0
 24 47  1  0
M  END
>  <smiles>  (7) 
C[C@H](c1ccccc1)N(C)C(=O)CNC(=O)c1ccc2ccccc2n1

>  <score_type>  (7) 
oracle

>  <origin>  (7) 
autodockgpu

>  <m_score__min__energy>  (7) 
-8.9000000000000004

>  <m_primary>  (7) 
energy

>  <rmsd>  (7) 
4.099990340460582

>  <m_score__min__rmsd>  (7) 
4.099990340460582

>  <meeko>  (7) 
{"free_energy": -8.69, "intermolecular_energy": -10.48, "internal_energy": -0.99, "cluster_size": 28, "cluster_id": 1, "rank_in_cluster": 11}

>  <energy>  (7) 
-8.76

>  <cluster_rmsd>  (7) 
1.9

>  <cluster>  (7) 
1

$$$$

     RDKit          3D

 47 49  0  0  0  0  0  0  0  0999 V2000
  139.3390   78.8960  219.9150 C   0  0  0  0  0  0  0  0  0  0  0  0
  139.7920   78.0230  221.0840 C   0  0  2  0  0  0  0  0  0  0  0  0
  140.7660   78.7420  221.9020 C   0  0  0  0  0  0  0  0  0  0  0  0
  141.5770   79.6870  221.2740 C   0  0  0  0  0  0  0  0  0  0  0  0
  142.5270   80.4040  221.9980 C   0  0  0  0  0  0  0  0  0  0  0  0
  142.6960   80.2020  223.3520 C   0  0  0  0  0  0  0  0  0  0  0  0
  141.8960   79.2670  223.9790 C   0  0  0  0  0  0  0  0  0  0  0  0
  140.9650   78.5700  223.2520 C   0  0  0  0  0  0  0  0  0  0  0  0
  140.2640   76.7170  220.6230 N   0  0  0  0  0  0  0  0  0  0  0  0
  140.8980   76.6880  219.3280 C   0  0  0  0  0  0  0  0  0  0  0  0
  140.0890   75.6410  221.5070 C   0  0  0  0  0  0  0  0  0  0  0  0
  139.7880   76.0130  222.7230 O   0  0  0  0  0  0  0  0  0  0  0  0
  140.1860   74.2120  221.3200 C   0  0  0  0  0  0  0  0  0  0  0  0
  139.9980   73.3390  222.4410 N   0  0  0  0  0  0  0  0  0  0  0  0
  140.3760   71.9510  222.4340 C   0  0  0  0  0  0  0  0  0  0  0  0
  140.9030   71.4330  221.3910 O   0  0  0  0  0  0  0  0  0  0  0  0
  140.1550   71.1230  223.6340 C   0  0  0  0  0  0  0  0  0  0  0  0
  139.5470   69.8990  223.4890 C   0  0  0  0  0  0  0  0  0  0  0  0
  139.3600   69.1540  224.6540 C   0  0  0  0  0  0  0  0  0  0  0  0
  139.7620   69.6160  225.8920 C   0  0  0  0  0  0  0  0  0  0  0  0
  139.5940   68.9100  227.0590 C   0  0  0  0  0  0  0  0  0  0  0  0
  140.0320   69.4540  228.2680 C   0  0  0  0  0  0  0  0  0  0  0  0
  140.6370   70.7020  228.3240 C   0  0  0  0  0  0  0  0  0  0  0  0
  140.8050   71.4120  227.1510 C   0  0  0  0  0  0  0  0  0  0  0  0
  140.3660   70.8500  225.9790 C   0  0  0  0  0  0  0  0  0  0  0  0
  140.5400   71.5570  224.8480 N   0  0  0  0  0  0  0  0  0  0  0  0
  138.8648   79.8099  220.3021 H   0  0  0  0  0  0  0  0  0  0  0  0
  140.2102   79.1670  219.3006 H   0  0  0  0  0  0  0  0  0  0  0  0
  138.6158   78.3397  219.3006 H   0  0  0  0  0  0  0  0  0  0  0  0
  138.9292   77.8100  221.7322 H   0  0  0  0  0  0  0  0  0  0  0  0
  141.4653   79.8682  220.1948 H   0  0  0  0  0  0  0  0  0  0  0  0
  143.1539   81.1449  221.4803 H   0  0  0  0  0  0  0  0  0  0  0  0
  143.4485   80.7709  223.9177 H   0  0  0  0  0  0  0  0  0  0  0  0
  142.0051   79.0819  225.0578 H   0  0  0  0  0  0  0  0  0  0  0  0
  140.3423   77.8317  223.7784 H   0  0  0  0  0  0  0  0  0  0  0  0
  141.9895   76.6381  219.4551 H   0  0  0  0  0  0  0  0  0  0  0  0
  140.5530   75.8047  218.7706 H   0  0  0  0  0  0  0  0  0  0  0  0
  140.6351   77.5991  218.7706 H   0  0  0  0  0  0  0  0  0  0  0  0
  139.4311   73.9356  220.5692 H   0  0  0  0  0  0  0  0  0  0  0  0
  141.2404   74.0583  221.0470 H   0  0  0  0  0  0  0  0  0  0  0  0
  139.5630   73.6680  223.3550 H   0  0  0  0  0  0  0  0  0  0  0  0
  139.2245   69.5260  222.5057 H   0  0  0  0  0  0  0  0  0  0  0  0
  138.8774   68.1680  224.5842 H   0  0  0  0  0  0  0  0  0  0  0  0
  139.1160   67.9195  227.0407 H   0  0  0  0  0  0  0  0  0  0  0  0
  139.8946   68.8808  229.1968 H   0  0  0  0  0  0  0  0  0  0  0  0
  140.9762   71.1178  229.2842 H   0  0  0  0  0  0  0  0  0  0  0  0
  141.2795   72.4044  227.1565 H   0  0  0  0  0  0  0  0  0  0  0  0
  1  2  1  0
  2  3  1  0
  3  4  2  0
  4  5  1  0
  5  6  2  0
  6  7  1  0
  7  8  2  0
  2  9  1  0
  9 10  1  0
  9 11  1  0
 11 12  2  0
 11 13  1  0
 13 14  1  0
 14 15  1  0
 15 16  2  0
 15 17  1  0
 17 18  2  0
 18 19  1  0
 19 20  2  0
 20 21  1  0
 21 22  2  0
 22 23  1  0
 23 24  2  0
 24 25  1  0
 25 26  2  0
  8  3  1  0
 26 17  1  0
 25 20  1  0
  1 27  1  0
  1 28  1  0
  1 29  1  0
  2 30  1  1
  4 31  1  0
  5 32  1  0
  6 33  1  0
  7 34  1  0
  8 35  1  0
 10 36  1  0
 10 37  1  0
 10 38  1  0
 13 39  1  0
 13 40  1  0
 14 41  1  0
 18 42  1  0
 19 43  1  0
 21 44  1  0
 22 45  1  0
 23 46  1  0
 24 47  1  0
M  END
>  <smiles>  (8) 
C[C@H](c1ccccc1)N(C)C(=O)CNC(=O)c1ccc2ccccc2n1

>  <score_type>  (8) 
oracle

>  <origin>  (8) 
autodockgpu

>  <m_score__min__energy>  (8) 
-8.9000000000000004

>  <m_primary>  (8) 
energy

>  <rmsd>  (8) 
4.318844813903871

>  <m_score__min__rmsd>  (8) 
4.318844813903871

>  <meeko>  (8) 
{"free_energy": -8.09, "intermolecular_energy": -9.88, "internal_energy": -1.38, "cluster_size": 17, "cluster_id": 2, "rank_in_cluster": 15}

>  <energy>  (8) 
-8.76

>  <cluster_rmsd>  (8) 
1.9

>  <cluster>  (8) 
1

$$$$

     RDKit          3D

 47 49  0  0  0  0  0  0  0  0999 V2000
  138.8640   77.7200  221.6240 C   0  0  0  0  0  0  0  0  0  0  0  0
  140.3060   77.4860  222.0700 C   0  0  2  0  0  0  0  0  0  0  0  0
  140.9210   78.7500  222.4680 C   0  0  0  0  0  0  0  0  0  0  0  0
  141.9390   78.7100  223.4210 C   0  0  0  0  0  0  0  0  0  0  0  0
  142.5640   79.8790  223.8450 C   0  0  0  0  0  0  0  0  0  0  0  0
  142.1980   81.1090  223.3400 C   0  0  0  0  0  0  0  0  0  0  0  0
  141.1910   81.1550  222.3960 C   0  0  0  0  0  0  0  0  0  0  0  0
  140.5850   79.9940  221.9890 C   0  0  0  0  0  0  0  0  0  0  0  0
  141.0670   76.7580  221.0540 N   0  0  0  0  0  0  0  0  0  0  0  0
  141.7920   77.5630  220.1000 C   0  0  0  0  0  0  0  0  0  0  0  0
  141.0470   75.3580  221.1410 C   0  0  0  0  0  0  0  0  0  0  0  0
  142.2390   74.8240  221.1800 O   0  0  0  0  0  0  0  0  0  0  0  0
  139.9590   74.4090  221.1890 C   0  0  0  0  0  0  0  0  0  0  0  0
  139.8180   73.5520  222.3300 N   0  0  0  0  0  0  0  0  0  0  0  0
  140.4170   72.2480  222.4170 C   0  0  0  0  0  0  0  0  0  0  0  0
  141.1120   71.7920  221.4450 O   0  0  0  0  0  0  0  0  0  0  0  0
  140.2300   71.4330  223.6320 C   0  0  0  0  0  0  0  0  0  0  0  0
  139.5910   70.2210  223.5230 C   0  0  0  0  0  0  0  0  0  0  0  0
  139.4390   69.4890  224.7010 C   0  0  0  0  0  0  0  0  0  0  0  0
  139.9020   69.9510  225.9170 C   0  0  0  0  0  0  0  0  0  0  0  0
  139.7690   69.2580  227.0950 C   0  0  0  0  0  0  0  0  0  0  0  0
  140.2680   69.8010  228.2810 C   0  0  0  0  0  0  0  0  0  0  0  0
  140.9010   71.0370  228.3010 C   0  0  0  0  0  0  0  0  0  0  0  0
  141.0340   71.7340  227.1170 C   0  0  0  0  0  0  0  0  0  0  0  0
  140.5340   71.1730  225.9690 C   0  0  0  0  0  0  0  0  0  0  0  0
  140.6750   71.8680  224.8250 N   0  0  0  0  0  0  0  0  0  0  0  0
  138.2189   77.8247  222.5088 H   0  0  0  0  0  0  0  0  0  0  0  0
  138.8112   78.6385  221.0210 H   0  0  0  0  0  0  0  0  0  0  0  0
  138.5234   76.8654  221.0210 H   0  0  0  0  0  0  0  0  0  0  0  0
  140.3098   76.8376  222.9586 H   0  0  0  0  0  0  0  0  0  0  0  0
  142.2514   77.7431  223.8423 H   0  0  0  0  0  0  0  0  0  0  0  0
  143.3648   79.8208  224.5969 H   0  0  0  0  0  0  0  0  0  0  0  0
  142.6951   82.0294  223.6802 H   0  0  0  0  0  0  0  0  0  0  0  0
  140.8760   82.1198  221.9719 H   0  0  0  0  0  0  0  0  0  0  0  0
  139.7851   80.0620  221.2370 H   0  0  0  0  0  0  0  0  0  0  0  0
  142.4348   78.2768  220.6360 H   0  0  0  0  0  0  0  0  0  0  0  0
  142.4142   76.9118  219.4685 H   0  0  0  0  0  0  0  0  0  0  0  0
  141.0794   78.1139  219.4685 H   0  0  0  0  0  0  0  0  0  0  0  0
  139.0267   74.9869  221.1061 H   0  0  0  0  0  0  0  0  0  0  0  0
  140.1887   73.7118  220.3697 H   0  0  0  0  0  0  0  0  0  0  0  0
  139.2570   73.8340  223.1890 H   0  0  0  0  0  0  0  0  0  0  0  0
  139.2189   69.8477  222.5575 H   0  0  0  0  0  0  0  0  0  0  0  0
  138.9341   68.5126  224.6597 H   0  0  0  0  0  0  0  0  0  0  0  0
  139.2706   68.2774  227.1045 H   0  0  0  0  0  0  0  0  0  0  0  0
  140.1573   69.2377  229.2193 H   0  0  0  0  0  0  0  0  0  0  0  0
  141.2891   71.4527  229.2426 H   0  0  0  0  0  0  0  0  0  0  0  0
  141.5291   72.7160  227.0944 H   0  0  0  0  0  0  0  0  0  0  0  0
  1  2  1  0
  2  3  1  0
  3  4  2  0
  4  5  1  0
  5  6  2  0
  6  7  1  0
  7  8  2  0
  2  9  1  0
  9 10  1  0
  9 11  1  0
 11 12  2  0
 11 13  1  0
 13 14  1  0
 14 15  1  0
 15 16  2  0
 15 17  1  0
 17 18  2  0
 18 19  1  0
 19 20  2  0
 20 21  1  0
 21 22  2  0
 22 23  1  0
 23 24  2  0
 24 25  1  0
 25 26  2  0
  8  3  1  0
 26 17  1  0
 25 20  1  0
  1 27  1  0
  1 28  1  0
  1 29  1  0
  2 30  1  1
  4 31  1  0
  5 32  1  0
  6 33  1  0
  7 34  1  0
  8 35  1  0
 10 36  1  0
 10 37  1  0
 10 38  1  0
 13 39  1  0
 13 40  1  0
 14 41  1  0
 18 42  1  0
 19 43  1  0
 21 44  1  0
 22 45  1  0
 23 46  1  0
 24 47  1  0
M  END
>  <smiles>  (9) 
C[C@H](c1ccccc1)N(C)C(=O)CNC(=O)c1ccc2ccccc2n1

>  <score_type>  (9) 
oracle

>  <origin>  (9) 
autodockgpu

>  <m_score__min__energy>  (9) 
-8.9000000000000004

>  <m_primary>  (9) 
energy

>  <rmsd>  (9) 
4.106087658978672

>  <m_score__min__rmsd>  (9) 
4.106087658978672

>  <meeko>  (9) 
{"free_energy": -8.6, "intermolecular_energy": -10.39, "internal_energy": -1.04, "cluster_size": 28, "cluster_id": 1, "rank_in_cluster": 17}

>  <energy>  (9) 
-8.71

>  <cluster_rmsd>  (9) 
1.93

>  <cluster>  (9) 
1

$$$$

     RDKit          3D

 47 49  0  0  0  0  0  0  0  0999 V2000
  140.7170   78.8950  219.2200 C   0  0  0  0  0  0  0  0  0  0  0  0
  140.6080   78.0410  220.4810 C   0  0  2  0  0  0  0  0  0  0  0  0
  141.1840   78.7490  221.6210 C   0  0  0  0  0  0  0  0  0  0  0  0
  142.1220   79.7490  221.3650 C   0  0  0  0  0  0  0  0  0  0  0  0
  142.7100   80.4590  222.4080 C   0  0  0  0  0  0  0  0  0  0  0  0
  142.3860   80.1980  223.7230 C   0  0  0  0  0  0  0  0  0  0  0  0
  141.4570   79.2100  223.9830 C   0  0  0  0  0  0  0  0  0  0  0  0
  140.8860   78.5190  222.9450 C   0  0  0  0  0  0  0  0  0  0  0  0
  141.1740   76.7070  220.2740 N   0  0  0  0  0  0  0  0  0  0  0  0
  142.0850   76.5660  219.1640 C   0  0  0  0  0  0  0  0  0  0  0  0
  140.8050   75.7200  221.2000 C   0  0  0  0  0  0  0  0  0  0  0  0
  141.4340   75.8200  222.3420 O   0  0  0  0  0  0  0  0  0  0  0  0
  139.8720   74.6210  221.1210 C   0  0  0  0  0  0  0  0  0  0  0  0
  139.7560   73.7100  222.2220 N   0  0  0  0  0  0  0  0  0  0  0  0
  140.2720   72.3680  222.1940 C   0  0  0  0  0  0  0  0  0  0  0  0
  140.8640   71.9270  221.1500 O   0  0  0  0  0  0  0  0  0  0  0  0
  140.1190   71.4980  223.3750 C   0  0  0  0  0  0  0  0  0  0  0  0
  139.5310   70.2660  223.2150 C   0  0  0  0  0  0  0  0  0  0  0  0
  139.4090   69.4800  224.3620 C   0  0  0  0  0  0  0  0  0  0  0  0
  139.8530   69.9110  225.5970 C   0  0  0  0  0  0  0  0  0  0  0  0
  139.7490   69.1660  226.7460 C   0  0  0  0  0  0  0  0  0  0  0  0
  140.2260   69.6800  227.9530 C   0  0  0  0  0  0  0  0  0  0  0  0
  140.8070   70.9390  228.0250 C   0  0  0  0  0  0  0  0  0  0  0  0
  140.9120   71.6880  226.8700 C   0  0  0  0  0  0  0  0  0  0  0  0
  140.4350   71.1540  225.6990 C   0  0  0  0  0  0  0  0  0  0  0  0
  140.5460   71.9010  224.5850 N   0  0  0  0  0  0  0  0  0  0  0  0
  140.8516   79.9497  219.5019 H   0  0  0  0  0  0  0  0  0  0  0  0
  141.5799   78.5616  218.6248 H   0  0  0  0  0  0  0  0  0  0  0  0
  139.7980   78.7890  218.6248 H   0  0  0  0  0  0  0  0  0  0  0  0
  139.5457   77.8755  220.7136 H   0  0  0  0  0  0  0  0  0  0  0  0
  142.4005   79.9795  220.3261 H   0  0  0  0  0  0  0  0  0  0  0  0
  143.4469   81.2429  222.1791 H   0  0  0  0  0  0  0  0  0  0  0  0
  142.8551   80.7618  224.5428 H   0  0  0  0  0  0  0  0  0  0  0  0
  141.1755   78.9776  225.0207 H   0  0  0  0  0  0  0  0  0  0  0  0
  140.1492   77.7379  223.1837 H   0  0  0  0  0  0  0  0  0  0  0  0
  143.1049   76.4081  219.5445 H   0  0  0  0  0  0  0  0  0  0  0  0
  141.7849   75.7036  218.5506 H   0  0  0  0  0  0  0  0  0  0  0  0
  142.0597   77.4788  218.5506 H   0  0  0  0  0  0  0  0  0  0  0  0
  138.8754   75.0588  220.9622 H   0  0  0  0  0  0  0  0  0  0  0  0
  140.2783   73.9963  220.3119 H   0  0  0  0  0  0  0  0  0  0  0  0
  139.2780   73.9760  223.1350 H   0  0  0  0  0  0  0  0  0  0  0  0
  139.1751   69.9176  222.2342 H   0  0  0  0  0  0  0  0  0  0  0  0
  138.9447   68.4862  224.2799 H   0  0  0  0  0  0  0  0  0  0  0  0
  139.2908   68.1664  226.7153 H   0  0  0  0  0  0  0  0  0  0  0  0
  140.1397   69.0743  228.8672 H   0  0  0  0  0  0  0  0  0  0  0  0
  141.1765   71.3320  228.9837 H   0  0  0  0  0  0  0  0  0  0  0  0
  141.3672   72.6892  226.8878 H   0  0  0  0  0  0  0  0  0  0  0  0
  1  2  1  0
  2  3  1  0
  3  4  2  0
  4  5  1  0
  5  6  2  0
  6  7  1  0
  7  8  2  0
  2  9  1  0
  9 10  1  0
  9 11  1  0
 11 12  2  0
 11 13  1  0
 13 14  1  0
 14 15  1  0
 15 16  2  0
 15 17  1  0
 17 18  2  0
 18 19  1  0
 19 20  2  0
 20 21  1  0
 21 22  2  0
 22 23  1  0
 23 24  2  0
 24 25  1  0
 25 26  2  0
  8  3  1  0
 26 17  1  0
 25 20  1  0
  1 27  1  0
  1 28  1  0
  1 29  1  0
  2 30  1  1
  4 31  1  0
  5 32  1  0
  6 33  1  0
  7 34  1  0
  8 35  1  0
 10 36  1  0
 10 37  1  0
 10 38  1  0
 13 39  1  0
 13 40  1  0
 14 41  1  0
 18 42  1  0
 19 43  1  0
 21 44  1  0
 22 45  1  0
 23 46  1  0
 24 47  1  0
M  END
>  <smiles>  (10) 
C[C@H](c1ccccc1)N(C)C(=O)CNC(=O)c1ccc2ccccc2n1

>  <score_type>  (10) 
oracle

>  <origin>  (10) 
autodockgpu

>  <m_score__min__energy>  (10) 
-8.9000000000000004

>  <m_primary>  (10) 
energy

>  <rmsd>  (10) 
4.223247066870443

>  <m_score__min__rmsd>  (10) 
4.223247066870443

>  <meeko>  (10) 
{"free_energy": -8.25, "intermolecular_energy": -10.04, "internal_energy": -1.12, "cluster_size": 17, "cluster_id": 2, "rank_in_cluster": 9}

>  <energy>  (10) 
-8.71

>  <cluster_rmsd>  (10) 
1.88

>  <cluster>  (10) 
1

$$$$

     RDKit          3D

 47 49  0  0  0  0  0  0  0  0999 V2000
  138.9400   77.3180  222.3450 C   0  0  0  0  0  0  0  0  0  0  0  0
  140.4640   77.3610  222.4380 C   0  0  2  0  0  0  0  0  0  0  0  0
  140.9120   78.7150  222.7540 C   0  0  0  0  0  0  0  0  0  0  0  0
  142.0960   78.8610  223.4760 C   0  0  0  0  0  0  0  0  0  0  0  0
  142.5750   80.1250  223.8120 C   0  0  0  0  0  0  0  0  0  0  0  0
  141.8960   81.2670  223.4430 C   0  0  0  0  0  0  0  0  0  0  0  0
  140.7220   81.1290  222.7280 C   0  0  0  0  0  0  0  0  0  0  0  0
  140.2650   79.8770  222.4050 C   0  0  0  0  0  0  0  0  0  0  0  0
  141.0890   76.8030  221.2380 N   0  0  0  0  0  0  0  0  0  0  0  0
  141.6420   77.7540  220.3050 C   0  0  0  0  0  0  0  0  0  0  0  0
  141.1210   75.4030  221.1420 C   0  0  0  0  0  0  0  0  0  0  0  0
  142.3260   74.9220  220.9850 O   0  0  0  0  0  0  0  0  0  0  0  0
  140.0750   74.4080  221.1810 C   0  0  0  0  0  0  0  0  0  0  0  0
  139.9310   73.5780  222.3410 N   0  0  0  0  0  0  0  0  0  0  0  0
  140.3890   72.2160  222.4000 C   0  0  0  0  0  0  0  0  0  0  0  0
  140.9520   71.6810  221.3840 O   0  0  0  0  0  0  0  0  0  0  0  0
  140.2090   71.4340  223.6370 C   0  0  0  0  0  0  0  0  0  0  0  0
  139.5740   70.2180  223.5630 C   0  0  0  0  0  0  0  0  0  0  0  0
  139.4280   69.5170  224.7610 C   0  0  0  0  0  0  0  0  0  0  0  0
  139.8960   70.0120  225.9620 C   0  0  0  0  0  0  0  0  0  0  0  0
  139.7710   69.3500  227.1590 C   0  0  0  0  0  0  0  0  0  0  0  0
  140.2740   69.9250  228.3270 C   0  0  0  0  0  0  0  0  0  0  0  0
  140.9040   71.1630  228.3120 C   0  0  0  0  0  0  0  0  0  0  0  0
  141.0300   71.8280  227.1080 C   0  0  0  0  0  0  0  0  0  0  0  0
  140.5260   71.2360  225.9780 C   0  0  0  0  0  0  0  0  0  0  0  0
  140.6590   71.9010  224.8160 N   0  0  0  0  0  0  0  0  0  0  0  0
  138.5110   77.3059  223.3578 H   0  0  0  0  0  0  0  0  0  0  0  0
  138.5804   78.2064  221.8051 H   0  0  0  0  0  0  0  0  0  0  0  0
  138.6311   76.4108  221.8051 H   0  0  0  0  0  0  0  0  0  0  0  0
  140.7930   76.7161  223.2661 H   0  0  0  0  0  0  0  0  0  0  0  0
  142.6584   77.9672  223.7839 H   0  0  0  0  0  0  0  0  0  0  0  0
  143.5117   80.2138  224.3819 H   0  0  0  0  0  0  0  0  0  0  0  0
  142.2794   82.2626  223.7111 H   0  0  0  0  0  0  0  0  0  0  0  0
  140.1559   82.0201  222.4189 H   0  0  0  0  0  0  0  0  0  0  0  0
  139.3279   79.7979  221.8345 H   0  0  0  0  0  0  0  0  0  0  0  0
  142.1198   78.5756  220.8588 H   0  0  0  0  0  0  0  0  0  0  0  0
  142.3904   77.2543  219.6724 H   0  0  0  0  0  0  0  0  0  0  0  0
  140.8375   78.1573  219.6724 H   0  0  0  0  0  0  0  0  0  0  0  0
  139.1218   74.9410  221.0490 H   0  0  0  0  0  0  0  0  0  0  0  0
  140.3644   73.6990  220.3913 H   0  0  0  0  0  0  0  0  0  0  0  0
  139.4730   73.9250  223.2370 H   0  0  0  0  0  0  0  0  0  0  0  0
  139.2001   69.8177  222.6091 H   0  0  0  0  0  0  0  0  0  0  0  0
  138.9242   68.5393  224.7480 H   0  0  0  0  0  0  0  0  0  0  0  0
  139.2755   68.3687  227.1969 H   0  0  0  0  0  0  0  0  0  0  0  0
  140.1693   69.3861  229.2802 H   0  0  0  0  0  0  0  0  0  0  0  0
  141.2947   71.6049  229.2405 H   0  0  0  0  0  0  0  0  0  0  0  0
  141.5232   72.8099  227.0565 H   0  0  0  0  0  0  0  0  0  0  0  0
  1  2  1  0
  2  3  1  0
  3  4  2  0
  4  5  1  0
  5  6  2  0
  6  7  1  0
  7  8  2  0
  2  9  1  0
  9 10  1  0
  9 11  1  0
 11 12  2  0
 11 13  1  0
 13 14  1  0
 14 15  1  0
 15 16  2  0
 15 17  1  0
 17 18  2  0
 18 19  1  0
 19 20  2  0
 20 21  1  0
 21 22  2  0
 22 23  1  0
 23 24  2  0
 24 25  1  0
 25 26  2  0
  8  3  1  0
 26 17  1  0
 25 20  1  0
  1 27  1  0
  1 28  1  0
  1 29  1  0
  2 30  1  1
  4 31  1  0
  5 32  1  0
  6 33  1  0
  7 34  1  0
  8 35  1  0
 10 36  1  0
 10 37  1  0
 10 38  1  0
 13 39  1  0
 13 40  1  0
 14 41  1  0
 18 42  1  0
 19 43  1  0
 21 44  1  0
 22 45  1  0
 23 46  1  0
 24 47  1  0
M  END
>  <smiles>  (11) 
C[C@H](c1ccccc1)N(C)C(=O)CNC(=O)c1ccc2ccccc2n1

>  <score_type>  (11) 
oracle

>  <origin>  (11) 
autodockgpu

>  <m_score__min__energy>  (11) 
-8.9000000000000004

>  <m_primary>  (11) 
energy

>  <rmsd>  (11) 
4.1375217049995205

>  <m_score__min__rmsd>  (11) 
4.1375217049995205

>  <meeko>  (11) 
{"free_energy": -8.76, "intermolecular_energy": -10.55, "internal_energy": -1.05, "cluster_size": 28, "cluster_id": 1, "rank_in_cluster": 8}

>  <energy>  (11) 
-8.69

>  <cluster_rmsd>  (11) 
1.94

>  <cluster>  (11) 
1

$$$$

     RDKit          3D

 47 49  0  0  0  0  0  0  0  0999 V2000
  138.6480   77.7440  222.6670 C   0  0  0  0  0  0  0  0  0  0  0  0
  140.1660   77.5860  222.6120 C   0  0  2  0  0  0  0  0  0  0  0  0
  140.8160   78.8670  222.8740 C   0  0  0  0  0  0  0  0  0  0  0  0
  142.1760   78.8600  223.1860 C   0  0  0  0  0  0  0  0  0  0  0  0
  142.8530   80.0470  223.4500 C   0  0  0  0  0  0  0  0  0  0  0  0
  142.2040   81.2640  223.4130 C   0  0  0  0  0  0  0  0  0  0  0  0
  140.8580   81.2780  223.1050 C   0  0  0  0  0  0  0  0  0  0  0  0
  140.2050   80.0990  222.8480 C   0  0  0  0  0  0  0  0  0  0  0  0
  140.5920   76.9590  221.3600 N   0  0  0  0  0  0  0  0  0  0  0  0
  140.9480   77.8540  220.2860 C   0  0  0  0  0  0  0  0  0  0  0  0
  140.6510   75.5570  221.3500 C   0  0  0  0  0  0  0  0  0  0  0  0
  141.8700   75.0890  221.4130 O   0  0  0  0  0  0  0  0  0  0  0  0
  139.6210   74.5480  221.2790 C   0  0  0  0  0  0  0  0  0  0  0  0
  139.4880   73.5970  222.3440 N   0  0  0  0  0  0  0  0  0  0  0  0
  140.4120   72.5170  222.5600 C   0  0  0  0  0  0  0  0  0  0  0  0
  141.4130   72.3600  221.7790 O   0  0  0  0  0  0  0  0  0  0  0  0
  140.2070   71.5870  223.6860 C   0  0  0  0  0  0  0  0  0  0  0  0
  139.5230   70.4170  223.4590 C   0  0  0  0  0  0  0  0  0  0  0  0
  139.3550   69.5710  224.5570 C   0  0  0  0  0  0  0  0  0  0  0  0
  139.8460   69.8880  225.8080 C   0  0  0  0  0  0  0  0  0  0  0  0
  139.6990   69.0800  226.9100 C   0  0  0  0  0  0  0  0  0  0  0  0
  140.2290   69.4780  228.1380 C   0  0  0  0  0  0  0  0  0  0  0  0
  140.9070   70.6820  228.2790 C   0  0  0  0  0  0  0  0  0  0  0  0
  141.0540   71.4940  227.1720 C   0  0  0  0  0  0  0  0  0  0  0  0
  140.5230   71.0740  225.9780 C   0  0  0  0  0  0  0  0  0  0  0  0
  140.6780   71.8790  224.9110 N   0  0  0  0  0  0  0  0  0  0  0  0
  138.3207   77.7781  223.7166 H   0  0  0  0  0  0  0  0  0  0  0  0
  138.3579   78.6772  222.1620 H   0  0  0  0  0  0  0  0  0  0  0  0
  138.1720   76.8906  222.1620 H   0  0  0  0  0  0  0  0  0  0  0  0
  140.4868   76.8985  223.4085 H   0  0  0  0  0  0  0  0  0  0  0  0
  142.7198   77.9045  223.2238 H   0  0  0  0  0  0  0  0  0  0  0  0
  143.9254   80.0143  223.6927 H   0  0  0  0  0  0  0  0  0  0  0  0
  142.7446   82.1986  223.6233 H   0  0  0  0  0  0  0  0  0  0  0  0
  140.3109   82.2315  223.0658 H   0  0  0  0  0  0  0  0  0  0  0  0
  139.1324   80.1414  222.6077 H   0  0  0  0  0  0  0  0  0  0  0  0
  141.3238   78.7989  220.7055 H   0  0  0  0  0  0  0  0  0  0  0  0
  141.7303   77.3908  219.6668 H   0  0  0  0  0  0  0  0  0  0  0  0
  140.0613   78.0547  219.6668 H   0  0  0  0  0  0  0  0  0  0  0  0
  138.6598   75.0772  221.2011 H   0  0  0  0  0  0  0  0  0  0  0  0
  139.9227   73.9317  220.4193 H   0  0  0  0  0  0  0  0  0  0  0  0
  138.6880   73.6350  223.0460 H   0  0  0  0  0  0  0  0  0  0  0  0
  139.1286   70.1604  222.4647 H   0  0  0  0  0  0  0  0  0  0  0  0
  138.8147   68.6225  224.4212 H   0  0  0  0  0  0  0  0  0  0  0  0
  139.1650   68.1221  226.8242 H   0  0  0  0  0  0  0  0  0  0  0  0
  140.1071   68.8237  229.0138 H   0  0  0  0  0  0  0  0  0  0  0  0
  141.3188   70.9828  229.2537 H   0  0  0  0  0  0  0  0  0  0  0  0
  141.5842   72.4550  227.2452 H   0  0  0  0  0  0  0  0  0  0  0  0
  1  2  1  0
  2  3  1  0
  3  4  2  0
  4  5  1  0
  5  6  2  0
  6  7  1  0
  7  8  2  0
  2  9  1  0
  9 10  1  0
  9 11  1  0
 11 12  2  0
 11 13  1  0
 13 14  1  0
 14 15  1  0
 15 16  2  0
 15 17  1  0
 17 18  2  0
 18 19  1  0
 19 20  2  0
 20 21  1  0
 21 22  2  0
 22 23  1  0
 23 24  2  0
 24 25  1  0
 25 26  2  0
  8  3  1  0
 26 17  1  0
 25 20  1  0
  1 27  1  0
  1 28  1  0
  1 29  1  0
  2 30  1  1
  4 31  1  0
  5 32  1  0
  6 33  1  0
  7 34  1  0
  8 35  1  0
 10 36  1  0
 10 37  1  0
 10 38  1  0
 13 39  1  0
 13 40  1  0
 14 41  1  0
 18 42  1  0
 19 43  1  0
 21 44  1  0
 22 45  1  0
 23 46  1  0
 24 47  1  0
M  END
>  <smiles>  (12) 
C[C@H](c1ccccc1)N(C)C(=O)CNC(=O)c1ccc2ccccc2n1

>  <score_type>  (12) 
oracle

>  <origin>  (12) 
autodockgpu

>  <m_score__min__energy>  (12) 
-8.9000000000000004

>  <m_primary>  (12) 
energy

>  <rmsd>  (12) 
4.144784177554094

>  <m_score__min__rmsd>  (12) 
4.144784177554094

>  <meeko>  (12) 
{"free_energy": -8.71, "intermolecular_energy": -10.5, "internal_energy": -1.0, "cluster_size": 28, "cluster_id": 1, "rank_in_cluster": 9}

>  <energy>  (12) 
-8.67

>  <cluster_rmsd>  (12) 
0.27

>  <cluster>  (12) 
1

$$$$

     RDKit          3D

 47 49  0  0  0  0  0  0  0  0999 V2000
  138.1870   78.1180  222.4700 C   0  0  0  0  0  0  0  0  0  0  0  0
  139.6620   77.7280  222.5450 C   0  0  2  0  0  0  0  0  0  0  0  0
  140.4800   78.9020  222.8380 C   0  0  0  0  0  0  0  0  0  0  0  0
  141.8190   78.7000  223.1710 C   0  0  0  0  0  0  0  0  0  0  0  0
  142.6500   79.7780  223.4640 C   0  0  0  0  0  0  0  0  0  0  0  0
  142.1780   81.0730  223.4350 C   0  0  0  0  0  0  0  0  0  0  0  0
  140.8530   81.2800  223.1060 C   0  0  0  0  0  0  0  0  0  0  0  0
  140.0470   80.2080  222.8190 C   0  0  0  0  0  0  0  0  0  0  0  0
  140.0840   77.0040  221.3450 N   0  0  0  0  0  0  0  0  0  0  0  0
  140.3060   77.8020  220.1630 C   0  0  0  0  0  0  0  0  0  0  0  0
  140.2690   75.6200  221.4810 C   0  0  0  0  0  0  0  0  0  0  0  0
  141.4910   75.2900  221.8080 O   0  0  0  0  0  0  0  0  0  0  0  0
  139.3660   74.5050  221.3220 C   0  0  0  0  0  0  0  0  0  0  0  0
  139.2850   73.5090  222.3510 N   0  0  0  0  0  0  0  0  0  0  0  0
  140.3250   72.5490  222.6050 C   0  0  0  0  0  0  0  0  0  0  0  0
  141.3880   72.5470  221.8940 O   0  0  0  0  0  0  0  0  0  0  0  0
  140.1650   71.5620  223.6890 C   0  0  0  0  0  0  0  0  0  0  0  0
  139.5260   70.3770  223.4150 C   0  0  0  0  0  0  0  0  0  0  0  0
  139.4000   69.4780  224.4750 C   0  0  0  0  0  0  0  0  0  0  0  0
  139.8890   69.7570  225.7360 C   0  0  0  0  0  0  0  0  0  0  0  0
  139.7830   68.8960  226.8010 C   0  0  0  0  0  0  0  0  0  0  0  0
  140.3080   69.2590  228.0420 C   0  0  0  0  0  0  0  0  0  0  0  0
  140.9400   70.4810  228.2320 C   0  0  0  0  0  0  0  0  0  0  0  0
  141.0460   71.3470  227.1610 C   0  0  0  0  0  0  0  0  0  0  0  0
  140.5210   70.9600  225.9540 C   0  0  0  0  0  0  0  0  0  0  0  0
  140.6360   71.8170  224.9240 N   0  0  0  0  0  0  0  0  0  0  0  0
  137.7837   78.2246  223.4878 H   0  0  0  0  0  0  0  0  0  0  0  0
  138.0871   79.0734  221.9341 H   0  0  0  0  0  0  0  0  0  0  0  0
  137.6280   77.3368  221.9341 H   0  0  0  0  0  0  0  0  0  0  0  0
  139.8081   77.0245  223.3779 H   0  0  0  0  0  0  0  0  0  0  0  0
  142.2232   77.6775  223.2026 H   0  0  0  0  0  0  0  0  0  0  0  0
  143.7028   79.5930  223.7235 H   0  0  0  0  0  0  0  0  0  0  0  0
  142.8401   81.9199  223.6680 H   0  0  0  0  0  0  0  0  0  0  0  0
  140.4453   82.3012  223.0742 H   0  0  0  0  0  0  0  0  0  0  0  0
  138.9961   80.4031  222.5592 H   0  0  0  0  0  0  0  0  0  0  0  0
  140.5900   78.8230  220.4579 H   0  0  0  0  0  0  0  0  0  0  0  0
  141.1139   77.3549  219.5651 H   0  0  0  0  0  0  0  0  0  0  0  0
  139.3833   77.8363  219.5651 H   0  0  0  0  0  0  0  0  0  0  0  0
  138.3564   74.9254  221.2036 H   0  0  0  0  0  0  0  0  0  0  0  0
  139.7817   73.9565  220.4639 H   0  0  0  0  0  0  0  0  0  0  0  0
  138.4410   73.4200  222.9950 H   0  0  0  0  0  0  0  0  0  0  0  0
  139.1343   70.1488  222.4128 H   0  0  0  0  0  0  0  0  0  0  0  0
  138.8950   68.5165  224.3005 H   0  0  0  0  0  0  0  0  0  0  0  0
  139.2856   67.9229  226.6760 H   0  0  0  0  0  0  0  0  0  0  0  0
  140.2193   68.5619  228.8883 H   0  0  0  0  0  0  0  0  0  0  0  0
  141.3483   70.7540  229.2163 H   0  0  0  0  0  0  0  0  0  0  0  0
  141.5396   72.3236  227.2732 H   0  0  0  0  0  0  0  0  0  0  0  0
  1  2  1  0
  2  3  1  0
  3  4  2  0
  4  5  1  0
  5  6  2  0
  6  7  1  0
  7  8  2  0
  2  9  1  0
  9 10  1  0
  9 11  1  0
 11 12  2  0
 11 13  1  0
 13 14  1  0
 14 15  1  0
 15 16  2  0
 15 17  1  0
 17 18  2  0
 18 19  1  0
 19 20  2  0
 20 21  1  0
 21 22  2  0
 22 23  1  0
 23 24  2  0
 24 25  1  0
 25 26  2  0
  8  3  1  0
 26 17  1  0
 25 20  1  0
  1 27  1  0
  1 28  1  0
  1 29  1  0
  2 30  1  1
  4 31  1  0
  5 32  1  0
  6 33  1  0
  7 34  1  0
  8 35  1  0
 10 36  1  0
 10 37  1  0
 10 38  1  0
 13 39  1  0
 13 40  1  0
 14 41  1  0
 18 42  1  0
 19 43  1  0
 21 44  1  0
 22 45  1  0
 23 46  1  0
 24 47  1  0
M  END
>  <smiles>  (13) 
C[C@H](c1ccccc1)N(C)C(=O)CNC(=O)c1ccc2ccccc2n1

>  <score_type>  (13) 
oracle

>  <origin>  (13) 
autodockgpu

>  <m_score__min__energy>  (13) 
-8.9000000000000004

>  <m_primary>  (13) 
energy

>  <rmsd>  (13) 
4.170406079540555

>  <m_score__min__rmsd>  (13) 
4.170406079540555

>  <meeko>  (13) 
{"free_energy": -8.61, "intermolecular_energy": -10.4, "internal_energy": -1.01, "cluster_size": 28, "cluster_id": 1, "rank_in_cluster": 16}

>  <energy>  (13) 
-8.64

>  <cluster_rmsd>  (13) 
1.99

>  <cluster>  (13) 
1

$$$$

     RDKit          3D

 47 49  0  0  0  0  0  0  0  0999 V2000
  139.3390   68.7340  224.5960 C   0  0  0  0  0  0  0  0  0  0  0  0
  139.9240   70.1420  224.4960 C   0  0  2  0  0  0  0  0  0  0  0  0
  140.2760   70.6370  225.8240 C   0  0  0  0  0  0  0  0  0  0  0  0
  141.0910   71.7660  225.9070 C   0  0  0  0  0  0  0  0  0  0  0  0
  141.4640   72.2860  227.1440 C   0  0  0  0  0  0  0  0  0  0  0  0
  141.0430   71.7040  228.3210 C   0  0  0  0  0  0  0  0  0  0  0  0
  140.2350   70.5860  228.2450 C   0  0  0  0  0  0  0  0  0  0  0  0
  139.8760   70.0860  227.0200 C   0  0  0  0  0  0  0  0  0  0  0  0
  139.0370   71.0370  223.7520 N   0  0  0  0  0  0  0  0  0  0  0  0
  137.6740   71.1170  224.2180 C   0  0  0  0  0  0  0  0  0  0  0  0
  139.6160   71.7550  222.6940 C   0  0  0  0  0  0  0  0  0  0  0  0
  140.8730   71.4570  222.4930 O   0  0  0  0  0  0  0  0  0  0  0  0
  139.0820   72.7550  221.8000 C   0  0  0  0  0  0  0  0  0  0  0  0
  139.0780   74.1310  222.2010 N   0  0  0  0  0  0  0  0  0  0  0  0
  140.1570   75.0400  221.9200 C   0  0  0  0  0  0  0  0  0  0  0  0
  141.1920   74.6340  221.2870 O   0  0  0  0  0  0  0  0  0  0  0  0
  140.0690   76.4440  222.3610 C   0  0  0  0  0  0  0  0  0  0  0  0
  138.8280   76.9910  222.5820 C   0  0  0  0  0  0  0  0  0  0  0  0
  138.7990   78.3220  222.9980 C   0  0  0  0  0  0  0  0  0  0  0  0
  139.9520   79.0600  223.1800 C   0  0  0  0  0  0  0  0  0  0  0  0
  139.9610   80.3710  223.5880 C   0  0  0  0  0  0  0  0  0  0  0  0
  141.1750   81.0410  223.7470 C   0  0  0  0  0  0  0  0  0  0  0  0
  142.3880   80.4110  223.4990 C   0  0  0  0  0  0  0  0  0  0  0  0
  142.3790   79.0920  223.0890 C   0  0  0  0  0  0  0  0  0  0  0  0
  141.1690   78.4620  222.9440 C   0  0  0  0  0  0  0  0  0  0  0  0
  141.1830   77.1770  222.5430 N   0  0  0  0  0  0  0  0  0  0  0  0
  139.2247   68.4588  225.6549 H   0  0  0  0  0  0  0  0  0  0  0  0
  138.3562   68.7094  224.1026 H   0  0  0  0  0  0  0  0  0  0  0  0
  140.0150   68.0202  224.1026 H   0  0  0  0  0  0  0  0  0  0  0  0
  140.8569   70.1057  223.9143 H   0  0  0  0  0  0  0  0  0  0  0  0
  141.4432   72.2512  224.9848 H   0  0  0  0  0  0  0  0  0  0  0  0
  142.1066   73.1779  227.1828 H   0  0  0  0  0  0  0  0  0  0  0  0
  141.3426   72.1189  229.2947 H   0  0  0  0  0  0  0  0  0  0  0  0
  139.8806   70.0982  229.1650 H   0  0  0  0  0  0  0  0  0  0  0  0
  139.2322   69.1945  226.9915 H   0  0  0  0  0  0  0  0  0  0  0  0
  137.6620   71.1177  225.3179 H   0  0  0  0  0  0  0  0  0  0  0  0
  137.2130   72.0437  223.8457 H   0  0  0  0  0  0  0  0  0  0  0  0
  137.1077   70.2505  223.8457 H   0  0  0  0  0  0  0  0  0  0  0  0
  139.6642   72.6950  220.8686 H   0  0  0  0  0  0  0  0  0  0  0  0
  138.0135   72.5013  221.7377 H   0  0  0  0  0  0  0  0  0  0  0  0
  138.2680   74.5680  222.7360 H   0  0  0  0  0  0  0  0  0  0  0  0
  137.9054   76.4095  222.4383 H   0  0  0  0  0  0  0  0  0  0  0  0
  137.8262   78.7993  223.1873 H   0  0  0  0  0  0  0  0  0  0  0  0
  139.0134   80.8922  223.7891 H   0  0  0  0  0  0  0  0  0  0  0  0
  141.1712   82.0907  224.0758 H   0  0  0  0  0  0  0  0  0  0  0  0
  143.3372   80.9520  223.6266 H   0  0  0  0  0  0  0  0  0  0  0  0
  143.3194   78.5596  222.8837 H   0  0  0  0  0  0  0  0  0  0  0  0
  1  2  1  0
  2  3  1  0
  3  4  2  0
  4  5  1  0
  5  6  2  0
  6  7  1  0
  7  8  2  0
  2  9  1  0
  9 10  1  0
  9 11  1  0
 11 12  2  0
 11 13  1  0
 13 14  1  0
 14 15  1  0
 15 16  2  0
 15 17  1  0
 17 18  2  0
 18 19  1  0
 19 20  2  0
 20 21  1  0
 21 22  2  0
 22 23  1  0
 23 24  2  0
 24 25  1  0
 25 26  2  0
  8  3  1  0
 26 17  1  0
 25 20  1  0
  1 27  1  0
  1 28  1  0
  1 29  1  0
  2 30  1  6
  4 31  1  0
  5 32  1  0
  6 33  1  0
  7 34  1  0
  8 35  1  0
 10 36  1  0
 10 37  1  0
 10 38  1  0
 13 39  1  0
 13 40  1  0
 14 41  1  0
 18 42  1  0
 19 43  1  0
 21 44  1  0
 22 45  1  0
 23 46  1  0
 24 47  1  0
M  END
>  <smiles>  (14) 
C[C@H](c1ccccc1)N(C)C(=O)CNC(=O)c1ccc2ccccc2n1

>  <score_type>  (14) 
oracle

>  <origin>  (14) 
autodockgpu

>  <m_score__min__energy>  (14) 
-8.9000000000000004

>  <m_primary>  (14) 
energy

>  <rmsd>  (14) 
10.169157875360181

>  <m_score__min__rmsd>  (14) 
10.169157875360181

>  <meeko>  (14) 
{"free_energy": -8.67, "intermolecular_energy": -10.46, "internal_energy": -1.07, "cluster_size": 28, "cluster_id": 1, "rank_in_cluster": 12}

>  <energy>  (14) 
-8.64

>  <cluster_rmsd>  (14) 
1.97

>  <cluster>  (14) 
1

$$$$

     RDKit          3D

 47 49  0  0  0  0  0  0  0  0999 V2000
  138.1250   78.3590  222.7140 C   0  0  0  0  0  0  0  0  0  0  0  0
  139.5660   77.8510  222.6820 C   0  0  2  0  0  0  0  0  0  0  0  0
  140.4900   78.9390  222.9900 C   0  0  0  0  0  0  0  0  0  0  0  0
  141.8540   78.7110  222.8070 C   0  0  0  0  0  0  0  0  0  0  0  0
  142.7870   79.7060  223.0860 C   0  0  0  0  0  0  0  0  0  0  0  0
  142.3940   80.9440  223.5510 C   0  0  0  0  0  0  0  0  0  0  0  0
  141.0450   81.1760  223.7340 C   0  0  0  0  0  0  0  0  0  0  0  0
  140.1390   80.1850  223.4550 C   0  0  0  0  0  0  0  0  0  0  0  0
  139.8640   77.1680  221.4220 N   0  0  0  0  0  0  0  0  0  0  0  0
  139.8290   77.9820  220.2310 C   0  0  0  0  0  0  0  0  0  0  0  0
  140.1930   75.8070  221.5110 C   0  0  0  0  0  0  0  0  0  0  0  0
  141.4410   75.5960  221.8380 O   0  0  0  0  0  0  0  0  0  0  0  0
  139.4130   74.6090  221.3040 C   0  0  0  0  0  0  0  0  0  0  0  0
  139.3340   73.6280  222.3450 N   0  0  0  0  0  0  0  0  0  0  0  0
  140.2980   72.5730  222.5120 C   0  0  0  0  0  0  0  0  0  0  0  0
  141.2850   72.4690  221.7060 O   0  0  0  0  0  0  0  0  0  0  0  0
  140.1470   71.6080  223.6170 C   0  0  0  0  0  0  0  0  0  0  0  0
  139.5330   70.4050  223.3650 C   0  0  0  0  0  0  0  0  0  0  0  0
  139.4150   69.5270  224.4430 C   0  0  0  0  0  0  0  0  0  0  0  0
  139.8880   69.8440  225.7010 C   0  0  0  0  0  0  0  0  0  0  0  0
  139.7890   69.0050  226.7850 C   0  0  0  0  0  0  0  0  0  0  0  0
  140.2960   69.4060  228.0220 C   0  0  0  0  0  0  0  0  0  0  0  0
  140.9030   70.6440  228.1900 C   0  0  0  0  0  0  0  0  0  0  0  0
  141.0020   71.4870  227.1000 C   0  0  0  0  0  0  0  0  0  0  0  0
  140.4950   71.0630  225.8980 C   0  0  0  0  0  0  0  0  0  0  0  0
  140.6020   71.9000  224.8490 N   0  0  0  0  0  0  0  0  0  0  0  0
  137.7998   78.4737  223.7585 H   0  0  0  0  0  0  0  0  0  0  0  0
  138.0676   79.3315  222.2032 H   0  0  0  0  0  0  0  0  0  0  0  0
  137.4704   77.6374  222.2032 H   0  0  0  0  0  0  0  0  0  0  0  0
  139.6987   77.0901  223.4653 H   0  0  0  0  0  0  0  0  0  0  0  0
  142.1966   77.7331  222.4378 H   0  0  0  0  0  0  0  0  0  0  0  0
  143.8569   79.5013  222.9329 H   0  0  0  0  0  0  0  0  0  0  0  0
  143.1359   81.7260  223.7703 H   0  0  0  0  0  0  0  0  0  0  0  0
  140.6982   82.1527  224.1024 H   0  0  0  0  0  0  0  0  0  0  0  0
  139.0714   80.3986  223.6119 H   0  0  0  0  0  0  0  0  0  0  0  0
  139.7833   79.0440  220.5139 H   0  0  0  0  0  0  0  0  0  0  0  0
  140.7358   77.7998  219.6356 H   0  0  0  0  0  0  0  0  0  0  0  0
  138.9412   77.7227  219.6356 H   0  0  0  0  0  0  0  0  0  0  0  0
  138.3833   74.9311  221.0897 H   0  0  0  0  0  0  0  0  0  0  0  0
  139.9511   74.0873  220.4989 H   0  0  0  0  0  0  0  0  0  0  0  0
  138.5500   73.6210  223.0660 H   0  0  0  0  0  0  0  0  0  0  0  0
  139.1540   70.1473  222.3650 H   0  0  0  0  0  0  0  0  0  0  0  0
  138.9302   68.5522  224.2859 H   0  0  0  0  0  0  0  0  0  0  0  0
  139.3114   68.0199  226.6780 H   0  0  0  0  0  0  0  0  0  0  0  0
  140.2130   68.7265  228.8830 H   0  0  0  0  0  0  0  0  0  0  0  0
  141.2970   70.9471  229.1713 H   0  0  0  0  0  0  0  0  0  0  0  0
  141.4763   72.4751  227.1938 H   0  0  0  0  0  0  0  0  0  0  0  0
  1  2  1  0
  2  3  1  0
  3  4  2  0
  4  5  1  0
  5  6  2  0
  6  7  1  0
  7  8  2  0
  2  9  1  0
  9 10  1  0
  9 11  1  0
 11 12  2  0
 11 13  1  0
 13 14  1  0
 14 15  1  0
 15 16  2  0
 15 17  1  0
 17 18  2  0
 18 19  1  0
 19 20  2  0
 20 21  1  0
 21 22  2  0
 22 23  1  0
 23 24  2  0
 24 25  1  0
 25 26  2  0
  8  3  1  0
 26 17  1  0
 25 20  1  0
  1 27  1  0
  1 28  1  0
  1 29  1  0
  2 30  1  1
  4 31  1  0
  5 32  1  0
  6 33  1  0
  7 34  1  0
  8 35  1  0
 10 36  1  0
 10 37  1  0
 10 38  1  0
 13 39  1  0
 13 40  1  0
 14 41  1  0
 18 42  1  0
 19 43  1  0
 21 44  1  0
 22 45  1  0
 23 46  1  0
 24 47  1  0
M  END
>  <smiles>  (15) 
C[C@H](c1ccccc1)N(C)C(=O)CNC(=O)c1ccc2ccccc2n1

>  <score_type>  (15) 
oracle

>  <origin>  (15) 
autodockgpu

>  <m_score__min__energy>  (15) 
-8.9000000000000004

>  <m_primary>  (15) 
energy

>  <rmsd>  (15) 
4.230724578466399

>  <m_score__min__rmsd>  (15) 
4.230724578466399

>  <meeko>  (15) 
{"free_energy": -8.61, "intermolecular_energy": -10.4, "internal_energy": -1.03, "cluster_size": 28, "cluster_id": 1, "rank_in_cluster": 15}

>  <energy>  (15) 
-8.61

>  <cluster_rmsd>  (15) 
1.99

>  <cluster>  (15) 
1

$$$$

     RDKit          3D

 47 49  0  0  0  0  0  0  0  0999 V2000
  138.6170   77.4140  222.6300 C   0  0  0  0  0  0  0  0  0  0  0  0
  140.1350   77.3060  222.4890 C   0  0  2  0  0  0  0  0  0  0  0  0
  140.7640   78.5800  222.8270 C   0  0  0  0  0  0  0  0  0  0  0  0
  139.9620   79.7200  222.8520 C   0  0  0  0  0  0  0  0  0  0  0  0
  140.5020   80.9650  223.1640 C   0  0  0  0  0  0  0  0  0  0  0  0
  141.8420   81.1100  223.4570 C   0  0  0  0  0  0  0  0  0  0  0  0
  142.6420   79.9840  223.4340 C   0  0  0  0  0  0  0  0  0  0  0  0
  142.0940   78.7650  223.1250 C   0  0  0  0  0  0  0  0  0  0  0  0
  140.5130   76.7980  221.1690 N   0  0  0  0  0  0  0  0  0  0  0  0
  140.6830   77.7840  220.1300 C   0  0  0  0  0  0  0  0  0  0  0  0
  140.7120   75.4130  221.0660 C   0  0  0  0  0  0  0  0  0  0  0  0
  141.9570   75.0840  220.8380 O   0  0  0  0  0  0  0  0  0  0  0  0
  139.8010   74.2970  221.1590 C   0  0  0  0  0  0  0  0  0  0  0  0
  139.7980   73.4830  222.3390 N   0  0  0  0  0  0  0  0  0  0  0  0
  140.0890   72.0740  222.3290 C   0  0  0  0  0  0  0  0  0  0  0  0
  140.3620   71.4810  221.2300 O   0  0  0  0  0  0  0  0  0  0  0  0
  140.0740   71.3120  223.5910 C   0  0  0  0  0  0  0  0  0  0  0  0
  139.5840   70.0270  223.5810 C   0  0  0  0  0  0  0  0  0  0  0  0
  139.5900   69.3480  224.7990 C   0  0  0  0  0  0  0  0  0  0  0  0
  140.0620   69.9290  225.9600 C   0  0  0  0  0  0  0  0  0  0  0  0
  140.0830   69.2910  227.1760 C   0  0  0  0  0  0  0  0  0  0  0  0
  140.5790   69.9540  228.3000 C   0  0  0  0  0  0  0  0  0  0  0  0
  141.0550   71.2560  228.2210 C   0  0  0  0  0  0  0  0  0  0  0  0
  141.0340   71.8980  226.9990 C   0  0  0  0  0  0  0  0  0  0  0  0
  140.5410   71.2180  225.9130 C   0  0  0  0  0  0  0  0  0  0  0  0
  140.5290   71.8610  224.7310 N   0  0  0  0  0  0  0  0  0  0  0  0
  138.3483   77.4331  223.6965 H   0  0  0  0  0  0  0  0  0  0  0  0
  138.2688   78.3392  222.1475 H   0  0  0  0  0  0  0  0  0  0  0  0
  138.1414   76.5474  222.1475 H   0  0  0  0  0  0  0  0  0  0  0  0
  140.5136   76.5646  223.2080 H   0  0  0  0  0  0  0  0  0  0  0  0
  138.8896   79.6350  222.6225 H   0  0  0  0  0  0  0  0  0  0  0  0
  139.8478   81.8492  223.1770 H   0  0  0  0  0  0  0  0  0  0  0  0
  142.2626   82.0963  223.7025 H   0  0  0  0  0  0  0  0  0  0  0  0
  143.7149   80.0646  223.6627 H   0  0  0  0  0  0  0  0  0  0  0  0
  142.7553   77.8861  223.1150 H   0  0  0  0  0  0  0  0  0  0  0  0
  140.8531   78.7708  220.5853 H   0  0  0  0  0  0  0  0  0  0  0  0
  141.5478   77.5140  219.5062 H   0  0  0  0  0  0  0  0  0  0  0  0
  139.7777   77.8192  219.5062 H   0  0  0  0  0  0  0  0  0  0  0  0
  138.7849   74.7037  221.0487 H   0  0  0  0  0  0  0  0  0  0  0  0
  140.1524   73.6114  220.3739 H   0  0  0  0  0  0  0  0  0  0  0  0
  139.5790   73.8760  223.3040 H   0  0  0  0  0  0  0  0  0  0  0  0
  139.2068   69.5590  222.6598 H   0  0  0  0  0  0  0  0  0  0  0  0
  139.2069   68.3175  224.8364 H   0  0  0  0  0  0  0  0  0  0  0  0
  139.7099   68.2600  227.2641 H   0  0  0  0  0  0  0  0  0  0  0  0
  140.5930   69.4338  229.2691 H   0  0  0  0  0  0  0  0  0  0  0  0
  141.4416   71.7664  229.1154 H   0  0  0  0  0  0  0  0  0  0  0  0
  141.4033   72.9292  226.8979 H   0  0  0  0  0  0  0  0  0  0  0  0
  1  2  1  0
  2  3  1  0
  3  4  2  0
  4  5  1  0
  5  6  2  0
  6  7  1  0
  7  8  2  0
  2  9  1  0
  9 10  1  0
  9 11  1  0
 11 12  2  0
 11 13  1  0
 13 14  1  0
 14 15  1  0
 15 16  2  0
 15 17  1  0
 17 18  2  0
 18 19  1  0
 19 20  2  0
 20 21  1  0
 21 22  2  0
 22 23  1  0
 23 24  2  0
 24 25  1  0
 25 26  2  0
  8  3  1  0
 26 17  1  0
 25 20  1  0
  1 27  1  0
  1 28  1  0
  1 29  1  0
  2 30  1  1
  4 31  1  0
  5 32  1  0
  6 33  1  0
  7 34  1  0
  8 35  1  0
 10 36  1  0
 10 37  1  0
 10 38  1  0
 13 39  1  0
 13 40  1  0
 14 41  1  0
 18 42  1  0
 19 43  1  0
 21 44  1  0
 22 45  1  0
 23 46  1  0
 24 47  1  0
M  END
>  <smiles>  (16) 
C[C@H](c1ccccc1)N(C)C(=O)CNC(=O)c1ccc2ccccc2n1

>  <score_type>  (16) 
oracle

>  <origin>  (16) 
autodockgpu

>  <m_score__min__energy>  (16) 
-8.9000000000000004

>  <m_primary>  (16) 
energy

>  <rmsd>  (16) 
4.142341432127223

>  <m_score__min__rmsd>  (16) 
4.142341432127223

>  <meeko>  (16) 
{"free_energy": -8.49, "intermolecular_energy": -10.28, "internal_energy": -1.18, "cluster_size": 28, "cluster_id": 1, "rank_in_cluster": 18}

>  <energy>  (16) 
-8.61

>  <cluster_rmsd>  (16) 
1.99

>  <cluster>  (16) 
1

$$$$

     RDKit          3D

 47 49  0  0  0  0  0  0  0  0999 V2000
  141.3160   73.9680  218.5750 C   0  0  0  0  0  0  0  0  0  0  0  0
  142.2970   74.9740  219.1740 C   0  0  2  0  0  0  0  0  0  0  0  0
  143.4370   74.2770  219.7650 C   0  0  0  0  0  0  0  0  0  0  0  0
  143.4320   72.8820  219.7460 C   0  0  0  0  0  0  0  0  0  0  0  0
  144.4870   72.1590  220.2960 C   0  0  0  0  0  0  0  0  0  0  0  0
  145.5660   72.7950  220.8730 C   0  0  0  0  0  0  0  0  0  0  0  0
  145.5760   74.1760  220.8940 C   0  0  0  0  0  0  0  0  0  0  0  0
  144.5290   74.8740  220.3490 C   0  0  0  0  0  0  0  0  0  0  0  0
  141.6250   75.8880  220.1000 N   0  0  0  0  0  0  0  0  0  0  0  0
  141.7380   77.2950  219.8030 C   0  0  0  0  0  0  0  0  0  0  0  0
  140.9080   75.2970  221.1520 C   0  0  0  0  0  0  0  0  0  0  0  0
  141.3410   75.6470  222.3350 O   0  0  0  0  0  0  0  0  0  0  0  0
  139.7940   74.3790  221.1650 C   0  0  0  0  0  0  0  0  0  0  0  0
  139.6240   73.4880  222.2750 N   0  0  0  0  0  0  0  0  0  0  0  0
  140.4890   72.3680  222.5290 C   0  0  0  0  0  0  0  0  0  0  0  0
  141.4660   72.1170  221.7420 O   0  0  0  0  0  0  0  0  0  0  0  0
  140.2500   71.5050  223.7010 C   0  0  0  0  0  0  0  0  0  0  0  0
  139.5340   70.3440  223.5320 C   0  0  0  0  0  0  0  0  0  0  0  0
  139.3350   69.5630  224.6710 C   0  0  0  0  0  0  0  0  0  0  0  0
  139.8270   69.9310  225.9070 C   0  0  0  0  0  0  0  0  0  0  0  0
  139.6500   69.1880  227.0490 C   0  0  0  0  0  0  0  0  0  0  0  0
  140.1840   69.6350  228.2590 C   0  0  0  0  0  0  0  0  0  0  0  0
  140.8960   70.8250  228.3410 C   0  0  0  0  0  0  0  0  0  0  0  0
  141.0730   71.5720  227.1930 C   0  0  0  0  0  0  0  0  0  0  0  0
  140.5380   71.1050  226.0200 C   0  0  0  0  0  0  0  0  0  0  0  0
  140.7220   71.8480  224.9130 N   0  0  0  0  0  0  0  0  0  0  0  0
  140.7966   73.4353  219.3852 H   0  0  0  0  0  0  0  0  0  0  0  0
  140.5795   74.4991  217.9542 H   0  0  0  0  0  0  0  0  0  0  0  0
  141.8655   73.2451  217.9542 H   0  0  0  0  0  0  0  0  0  0  0  0
  142.6966   75.6110  218.3711 H   0  0  0  0  0  0  0  0  0  0  0  0
  142.5850   72.3474  219.2913 H   0  0  0  0  0  0  0  0  0  0  0  0
  144.4593   71.0597  220.2698 H   0  0  0  0  0  0  0  0  0  0  0  0
  146.3967   72.2178  221.3051 H   0  0  0  0  0  0  0  0  0  0  0  0
  146.4216   74.7145  221.3467 H   0  0  0  0  0  0  0  0  0  0  0  0
  144.5649   75.9730  220.3809 H   0  0  0  0  0  0  0  0  0  0  0  0
  141.7838   77.8655  220.7424 H   0  0  0  0  0  0  0  0  0  0  0  0
  142.6534   77.4743  219.2201 H   0  0  0  0  0  0  0  0  0  0  0  0
  140.8629   77.6181  219.2201 H   0  0  0  0  0  0  0  0  0  0  0  0
  138.8790   74.9860  221.0995 H   0  0  0  0  0  0  0  0  0  0  0  0
  140.0072   73.7037  220.3232 H   0  0  0  0  0  0  0  0  0  0  0  0
  138.8410   73.6050  222.9870 H   0  0  0  0  0  0  0  0  0  0  0  0
  139.1384   70.0460  222.5498 H   0  0  0  0  0  0  0  0  0  0  0  0
  138.7682   68.6245  224.5811 H   0  0  0  0  0  0  0  0  0  0  0  0
  139.0886   68.2428  227.0100 H   0  0  0  0  0  0  0  0  0  0  0  0
  140.0378   69.0318  229.1672 H   0  0  0  0  0  0  0  0  0  0  0  0
  141.3106   71.1656  229.3013 H   0  0  0  0  0  0  0  0  0  0  0  0
  141.6304   72.5199  227.2190 H   0  0  0  0  0  0  0  0  0  0  0  0
  1  2  1  0
  2  3  1  0
  3  4  2  0
  4  5  1  0
  5  6  2  0
  6  7  1  0
  7  8  2  0
  2  9  1  0
  9 10  1  0
  9 11  1  0
 11 12  2  0
 11 13  1  0
 13 14  1  0
 14 15  1  0
 15 16  2  0
 15 17  1  0
 17 18  2  0
 18 19  1  0
 19 20  2  0
 20 21  1  0
 21 22  2  0
 22 23  1  0
 23 24  2  0
 24 25  1  0
 25 26  2  0
  8  3  1  0
 26 17  1  0
 25 20  1  0
  1 27  1  0
  1 28  1  0
  1 29  1  0
  2 30  1  6
  4 31  1  0
  5 32  1  0
  6 33  1  0
  7 34  1  0
  8 35  1  0
 10 36  1  0
 10 37  1  0
 10 38  1  0
 13 39  1  0
 13 40  1  0
 14 41  1  0
 18 42  1  0
 19 43  1  0
 21 44  1  0
 22 45  1  0
 23 46  1  0
 24 47  1  0
M  END
>  <smiles>  (17) 
C[C@H](c1ccccc1)N(C)C(=O)CNC(=O)c1ccc2ccccc2n1

>  <score_type>  (17) 
oracle

>  <origin>  (17) 
autodockgpu

>  <m_score__min__energy>  (17) 
-8.9000000000000004

>  <m_primary>  (17) 
energy

>  <rmsd>  (17) 
6.556497337956927

>  <m_score__min__rmsd>  (17) 
6.556497337956927

>  <meeko>  (17) 
{"free_energy": -7.88, "intermolecular_energy": -9.67, "internal_energy": -1.43, "cluster_size": 3, "cluster_id": 3, "rank_in_cluster": 1}

>  <energy>  (17) 
-8.6

>  <cluster_rmsd>  (17) 
1.95

>  <cluster>  (17) 
1

$$$$

     RDKit          3D

 47 49  0  0  0  0  0  0  0  0999 V2000
  138.9420   77.4470  222.3340 C   0  0  0  0  0  0  0  0  0  0  0  0
  140.4600   77.3890  222.4870 C   0  0  2  0  0  0  0  0  0  0  0  0
  140.9810   78.7060  222.8450 C   0  0  0  0  0  0  0  0  0  0  0  0
  140.2070   79.8230  222.5310 C   0  0  0  0  0  0  0  0  0  0  0  0
  140.6490   81.1060  222.8430 C   0  0  0  0  0  0  0  0  0  0  0  0
  141.8610   81.3130  223.4670 C   0  0  0  0  0  0  0  0  0  0  0  0
  142.6320   80.2110  223.7800 C   0  0  0  0  0  0  0  0  0  0  0  0
  142.1830   78.9530  223.4670 C   0  0  0  0  0  0  0  0  0  0  0  0
  141.0950   76.8100  221.3020 N   0  0  0  0  0  0  0  0  0  0  0  0
  141.6920   77.7430  220.3770 C   0  0  0  0  0  0  0  0  0  0  0  0
  141.0930   75.4100  221.2120 C   0  0  0  0  0  0  0  0  0  0  0  0
  142.2910   74.8950  221.1130 O   0  0  0  0  0  0  0  0  0  0  0  0
  140.0190   74.4440  221.2030 C   0  0  0  0  0  0  0  0  0  0  0  0
  139.8380   73.5780  222.3310 N   0  0  0  0  0  0  0  0  0  0  0  0
  140.4730   72.2930  222.4510 C   0  0  0  0  0  0  0  0  0  0  0  0
  141.2390   71.8640  221.5210 O   0  0  0  0  0  0  0  0  0  0  0  0
  140.2400   71.4670  223.6510 C   0  0  0  0  0  0  0  0  0  0  0  0
  139.5690   70.2760  223.5120 C   0  0  0  0  0  0  0  0  0  0  0  0
  139.3740   69.5320  224.6760 C   0  0  0  0  0  0  0  0  0  0  0  0
  139.8270   69.9630  225.9070 C   0  0  0  0  0  0  0  0  0  0  0  0
  139.6520   69.2580  227.0720 C   0  0  0  0  0  0  0  0  0  0  0  0
  140.1450   69.7690  228.2740 C   0  0  0  0  0  0  0  0  0  0  0  0
  140.8120   70.9860  228.3250 C   0  0  0  0  0  0  0  0  0  0  0  0
  140.9870   71.6950  227.1530 C   0  0  0  0  0  0  0  0  0  0  0  0
  140.4930   71.1650  225.9880 C   0  0  0  0  0  0  0  0  0  0  0  0
  140.6740   71.8720  224.8580 N   0  0  0  0  0  0  0  0  0  0  0  0
  138.4736   77.4649  223.3291 H   0  0  0  0  0  0  0  0  0  0  0  0
  138.6637   78.3564  221.7813 H   0  0  0  0  0  0  0  0  0  0  0  0
  138.5951   76.5615  221.7813 H   0  0  0  0  0  0  0  0  0  0  0  0
  140.7140   76.7112  223.3153 H   0  0  0  0  0  0  0  0  0  0  0  0
  139.2363   79.6888  222.0312 H   0  0  0  0  0  0  0  0  0  0  0  0
  140.0193   81.9708  222.5868 H   0  0  0  0  0  0  0  0  0  0  0  0
  142.2047   82.3295  223.7092 H   0  0  0  0  0  0  0  0  0  0  0  0
  143.6036   80.3415  224.2790 H   0  0  0  0  0  0  0  0  0  0  0  0
  142.8192   78.0944  223.7278 H   0  0  0  0  0  0  0  0  0  0  0  0
  142.2020   78.5400  220.9380 H   0  0  0  0  0  0  0  0  0  0  0  0
  142.4211   77.2160  219.7440 H   0  0  0  0  0  0  0  0  0  0  0  0
  140.9080   78.1842  219.7440 H   0  0  0  0  0  0  0  0  0  0  0  0
  139.0827   75.0079  221.0793 H   0  0  0  0  0  0  0  0  0  0  0  0
  140.2979   73.7557  220.3915 H   0  0  0  0  0  0  0  0  0  0  0  0
  139.2170   73.8370  223.1570 H   0  0  0  0  0  0  0  0  0  0  0  0
  139.2047   69.9275  222.5343 H   0  0  0  0  0  0  0  0  0  0  0  0
  138.8423   68.5712  224.6109 H   0  0  0  0  0  0  0  0  0  0  0  0
  139.1246   68.2928  227.0584 H   0  0  0  0  0  0  0  0  0  0  0  0
  140.0020   69.1949  229.2013 H   0  0  0  0  0  0  0  0  0  0  0  0
  141.1932   71.3773  229.2797 H   0  0  0  0  0  0  0  0  0  0  0  0
  141.5105   72.6625  227.1535 H   0  0  0  0  0  0  0  0  0  0  0  0
  1  2  1  0
  2  3  1  0
  3  4  2  0
  4  5  1  0
  5  6  2  0
  6  7  1  0
  7  8  2  0
  2  9  1  0
  9 10  1  0
  9 11  1  0
 11 12  2  0
 11 13  1  0
 13 14  1  0
 14 15  1  0
 15 16  2  0
 15 17  1  0
 17 18  2  0
 18 19  1  0
 19 20  2  0
 20 21  1  0
 21 22  2  0
 22 23  1  0
 23 24  2  0
 24 25  1  0
 25 26  2  0
  8  3  1  0
 26 17  1  0
 25 20  1  0
  1 27  1  0
  1 28  1  0
  1 29  1  0
  2 30  1  1
  4 31  1  0
  5 32  1  0
  6 33  1  0
  7 34  1  0
  8 35  1  0
 10 36  1  0
 10 37  1  0
 10 38  1  0
 13 39  1  0
 13 40  1  0
 14 41  1  0
 18 42  1  0
 19 43  1  0
 21 44  1  0
 22 45  1  0
 23 46  1  0
 24 47  1  0
M  END
>  <smiles>  (18) 
C[C@H](c1ccccc1)N(C)C(=O)CNC(=O)c1ccc2ccccc2n1

>  <score_type>  (18) 
oracle

>  <origin>  (18) 
autodockgpu

>  <m_score__min__energy>  (18) 
-8.9000000000000004

>  <m_primary>  (18) 
energy

>  <rmsd>  (18) 
4.106288957074066

>  <m_score__min__rmsd>  (18) 
4.106288957074066

>  <meeko>  (18) 
{"free_energy": -8.83, "intermolecular_energy": -10.62, "internal_energy": -1.02, "cluster_size": 28, "cluster_id": 1, "rank_in_cluster": 4}

>  <energy>  (18) 
-8.49

>  <cluster_rmsd>  (18) 
1.89

>  <cluster>  (18) 
1

$$$$

     RDKit          3D

 47 49  0  0  0  0  0  0  0  0999 V2000
  139.3810   69.1660  223.6450 C   0  0  0  0  0  0  0  0  0  0  0  0
  139.8880   70.5900  223.8690 C   0  0  2  0  0  0  0  0  0  0  0  0
  140.1890   70.8010  225.2830 C   0  0  0  0  0  0  0  0  0  0  0  0
  139.6290   69.9220  226.2100 C   0  0  0  0  0  0  0  0  0  0  0  0
  139.8750   70.0710  227.5720 C   0  0  0  0  0  0  0  0  0  0  0  0
  140.6750   71.0890  228.0470 C   0  0  0  0  0  0  0  0  0  0  0  0
  141.2330   71.9630  227.1340 C   0  0  0  0  0  0  0  0  0  0  0  0
  140.9810   71.8020  225.7950 C   0  0  0  0  0  0  0  0  0  0  0  0
  138.9630   71.5800  223.3130 N   0  0  0  0  0  0  0  0  0  0  0  0
  137.5590   71.3430  223.5450 C   0  0  0  0  0  0  0  0  0  0  0  0
  139.5420   72.6730  222.6510 C   0  0  0  0  0  0  0  0  0  0  0  0
  140.8480   72.6340  222.6290 O   0  0  0  0  0  0  0  0  0  0  0  0
  138.9620   73.8260  222.0020 C   0  0  0  0  0  0  0  0  0  0  0  0
  139.4550   75.1350  222.3150 N   0  0  0  0  0  0  0  0  0  0  0  0
  138.6130   76.2980  222.3970 C   0  0  0  0  0  0  0  0  0  0  0  0
  137.3560   76.2000  222.1800 O   0  0  0  0  0  0  0  0  0  0  0  0
  139.2000   77.6090  222.7330 C   0  0  0  0  0  0  0  0  0  0  0  0
  138.3580   78.6490  223.0440 C   0  0  0  0  0  0  0  0  0  0  0  0
  138.9620   79.8680  223.3540 C   0  0  0  0  0  0  0  0  0  0  0  0
  140.3340   80.0290  223.3510 C   0  0  0  0  0  0  0  0  0  0  0  0
  140.9620   81.2120  223.6510 C   0  0  0  0  0  0  0  0  0  0  0  0
  142.3560   81.2850  223.6250 C   0  0  0  0  0  0  0  0  0  0  0  0
  143.1330   80.1810  223.2980 C   0  0  0  0  0  0  0  0  0  0  0  0
  142.5010   78.9910  222.9960 C   0  0  0  0  0  0  0  0  0  0  0  0
  141.1300   78.9520  223.0330 C   0  0  0  0  0  0  0  0  0  0  0  0
  140.5340   77.7820  222.7350 N   0  0  0  0  0  0  0  0  0  0  0  0
  139.2083   68.6811  224.6171 H   0  0  0  0  0  0  0  0  0  0  0  0
  138.4387   69.1972  223.0783 H   0  0  0  0  0  0  0  0  0  0  0  0
  140.1309   68.5947  223.0783 H   0  0  0  0  0  0  0  0  0  0  0  0
  140.8307   70.7288  223.3194 H   0  0  0  0  0  0  0  0  0  0  0  0
  138.9853   69.1013  225.8606 H   0  0  0  0  0  0  0  0  0  0  0  0
  139.4228   69.3635  228.2827 H   0  0  0  0  0  0  0  0  0  0  0  0
  140.8639   71.2022  229.1247 H   0  0  0  0  0  0  0  0  0  0  0  0
  141.8771   72.7851  227.4794 H   0  0  0  0  0  0  0  0  0  0  0  0
  141.4381   72.5135  225.0915 H   0  0  0  0  0  0  0  0  0  0  0  0
  137.3666   71.3105  224.6276 H   0  0  0  0  0  0  0  0  0  0  0  0
  136.9704   72.1545  223.0922 H   0  0  0  0  0  0  0  0  0  0  0  0
  137.2694   70.3833  223.0922 H   0  0  0  0  0  0  0  0  0  0  0  0
  139.0953   73.6844  220.9193 H   0  0  0  0  0  0  0  0  0  0  0  0
  137.9289   73.8422  222.3794 H   0  0  0  0  0  0  0  0  0  0  0  0
  140.4850   75.3270  222.5070 H   0  0  0  0  0  0  0  0  0  0  0  0
  137.2648   78.5271  223.0484 H   0  0  0  0  0  0  0  0  0  0  0  0
  138.3254   80.7281  223.6089 H   0  0  0  0  0  0  0  0  0  0  0  0
  140.3683   82.1007  223.9114 H   0  0  0  0  0  0  0  0  0  0  0  0
  142.8496   82.2373  223.8687 H   0  0  0  0  0  0  0  0  0  0  0  0
  144.2305   80.2533  223.2800 H   0  0  0  0  0  0  0  0  0  0  0  0
  143.0829   78.0956  222.7320 H   0  0  0  0  0  0  0  0  0  0  0  0
  1  2  1  0
  2  3  1  0
  3  4  2  0
  4  5  1  0
  5  6  2  0
  6  7  1  0
  7  8  2  0
  2  9  1  0
  9 10  1  0
  9 11  1  0
 11 12  2  0
 11 13  1  0
 13 14  1  0
 14 15  1  0
 15 16  2  0
 15 17  1  0
 17 18  2  0
 18 19  1  0
 19 20  2  0
 20 21  1  0
 21 22  2  0
 22 23  1  0
 23 24  2  0
 24 25  1  0
 25 26  2  0
  8  3  1  0
 26 17  1  0
 25 20  1  0
  1 27  1  0
  1 28  1  0
  1 29  1  0
  2 30  1  6
  4 31  1  0
  5 32  1  0
  6 33  1  0
  7 34  1  0
  8 35  1  0
 10 36  1  0
 10 37  1  0
 10 38  1  0
 13 39  1  0
 13 40  1  0
 14 41  1  0
 18 42  1  0
 19 43  1  0
 21 44  1  0
 22 45  1  0
 23 46  1  0
 24 47  1  0
M  END
>  <smiles>  (19) 
C[C@H](c1ccccc1)N(C)C(=O)CNC(=O)c1ccc2ccccc2n1

>  <score_type>  (19) 
oracle

>  <origin>  (19) 
autodockgpu

>  <m_score__min__energy>  (19) 
-8.9000000000000004

>  <m_primary>  (19) 
energy

>  <rmsd>  (19) 
10.101285229055469

>  <m_score__min__rmsd>  (19) 
10.101285229055469

>  <meeko>  (19) 
{"free_energy": -7.94, "intermolecular_energy": -9.73, "internal_energy": -1.47, "cluster_size": 28, "cluster_id": 1, "rank_in_cluster": 26}

>  <energy>  (19) 
-8.48

>  <cluster_rmsd>  (19) 
2.0

>  <cluster>  (19) 
1

$$$$

     RDKit          3D

 47 49  0  0  0  0  0  0  0  0999 V2000
  139.2600   68.1250  225.4350 C   0  0  0  0  0  0  0  0  0  0  0  0
  139.5640   69.5240  224.9040 C   0  0  2  0  0  0  0  0  0  0  0  0
  140.1120   70.3600  225.9700 C   0  0  0  0  0  0  0  0  0  0  0  0
  139.7770   70.0440  227.2860 C   0  0  0  0  0  0  0  0  0  0  0  0
  140.2640   70.8030  228.3470 C   0  0  0  0  0  0  0  0  0  0  0  0
  141.0890   71.8870  228.1310 C   0  0  0  0  0  0  0  0  0  0  0  0
  141.4240   72.2050  226.8290 C   0  0  0  0  0  0  0  0  0  0  0  0
  140.9360   71.4470  225.7960 C   0  0  0  0  0  0  0  0  0  0  0  0
  138.3970   70.1090  224.2420 N   0  0  0  0  0  0  0  0  0  0  0  0
  137.1210   69.5110  224.5520 C   0  0  0  0  0  0  0  0  0  0  0  0
  138.6370   71.2150  223.4120 C   0  0  0  0  0  0  0  0  0  0  0  0
  137.5960   71.9930  223.2710 O   0  0  0  0  0  0  0  0  0  0  0  0
  139.8110   71.6410  222.6880 C   0  0  0  0  0  0  0  0  0  0  0  0
  140.0110   73.0360  222.4250 N   0  0  0  0  0  0  0  0  0  0  0  0
  141.0860   73.5410  221.6130 C   0  0  0  0  0  0  0  0  0  0  0  0
  141.9300   72.7360  221.0880 O   0  0  0  0  0  0  0  0  0  0  0  0
  141.2150   74.9930  221.3850 C   0  0  0  0  0  0  0  0  0  0  0  0
  141.9130   75.4290  220.2840 C   0  0  0  0  0  0  0  0  0  0  0  0
  142.0070   76.8100  220.1130 C   0  0  0  0  0  0  0  0  0  0  0  0
  141.4310   77.7000  220.9990 C   0  0  0  0  0  0  0  0  0  0  0  0
  141.5030   79.0640  220.8620 C   0  0  0  0  0  0  0  0  0  0  0  0
  140.8910   79.8910  221.8060 C   0  0  0  0  0  0  0  0  0  0  0  0
  140.2040   79.3640  222.8920 C   0  0  0  0  0  0  0  0  0  0  0  0
  140.1310   77.9920  223.0300 C   0  0  0  0  0  0  0  0  0  0  0  0
  140.7430   77.2080  222.0850 C   0  0  0  0  0  0  0  0  0  0  0  0
  140.6600   75.8730  222.2370 N   0  0  0  0  0  0  0  0  0  0  0  0
  139.2636   68.1415  226.5349 H   0  0  0  0  0  0  0  0  0  0  0  0
  138.2710   67.8036  225.0763 H   0  0  0  0  0  0  0  0  0  0  0  0
  140.0264   67.4221  225.0763 H   0  0  0  0  0  0  0  0  0  0  0  0
  140.3381   69.4548  224.1255 H   0  0  0  0  0  0  0  0  0  0  0  0
  139.1203   69.1851  227.4885 H   0  0  0  0  0  0  0  0  0  0  0  0
  139.9856   70.5331  229.3764 H   0  0  0  0  0  0  0  0  0  0  0  0
  141.4703   72.4828  228.9734 H   0  0  0  0  0  0  0  0  0  0  0  0
  142.0800   73.0634  226.6218 H   0  0  0  0  0  0  0  0  0  0  0  0
  141.2197   71.7241  224.7700 H   0  0  0  0  0  0  0  0  0  0  0  0
  136.9985   69.4536  225.6437 H   0  0  0  0  0  0  0  0  0  0  0  0
  136.3147   70.1250  224.1243 H   0  0  0  0  0  0  0  0  0  0  0  0
  137.0770   68.4985  224.1243 H   0  0  0  0  0  0  0  0  0  0  0  0
  140.6836   71.2953  223.2617 H   0  0  0  0  0  0  0  0  0  0  0  0
  139.6686   71.2074  221.6871 H   0  0  0  0  0  0  0  0  0  0  0  0
  139.3690   73.7890  222.8170 H   0  0  0  0  0  0  0  0  0  0  0  0
  142.3734   74.7254  219.5748 H   0  0  0  0  0  0  0  0  0  0  0  0
  142.5571   77.2030  219.2453 H   0  0  0  0  0  0  0  0  0  0  0  0
  142.0418   79.5046  220.0102 H   0  0  0  0  0  0  0  0  0  0  0  0
  140.9543   80.9827  221.6871 H   0  0  0  0  0  0  0  0  0  0  0  0
  139.7269   80.0273  223.6285 H   0  0  0  0  0  0  0  0  0  0  0  0
  139.5952   77.5387  223.8770 H   0  0  0  0  0  0  0  0  0  0  0  0
  1  2  1  0
  2  3  1  0
  3  4  2  0
  4  5  1  0
  5  6  2  0
  6  7  1  0
  7  8  2  0
  2  9  1  0
  9 10  1  0
  9 11  1  0
 11 12  2  0
 11 13  1  0
 13 14  1  0
 14 15  1  0
 15 16  2  0
 15 17  1  0
 17 18  2  0
 18 19  1  0
 19 20  2  0
 20 21  1  0
 21 22  2  0
 22 23  1  0
 23 24  2  0
 24 25  1  0
 25 26  2  0
  8  3  1  0
 26 17  1  0
 25 20  1  0
  1 27  1  0
  1 28  1  0
  1 29  1  0
  2 30  1  6
  4 31  1  0
  5 32  1  0
  6 33  1  0
  7 34  1  0
  8 35  1  0
 10 36  1  0
 10 37  1  0
 10 38  1  0
 13 39  1  0
 13 40  1  0
 14 41  1  0
 18 42  1  0
 19 43  1  0
 21 44  1  0
 22 45  1  0
 23 46  1  0
 24 47  1  0
M  END
>  <smiles>  (20) 
C[C@H](c1ccccc1)N(C)C(=O)CNC(=O)c1ccc2ccccc2n1

>  <score_type>  (20) 
oracle

>  <origin>  (20) 
autodockgpu

>  <m_score__min__energy>  (20) 
-8.9000000000000004

>  <m_primary>  (20) 
energy

>  <rmsd>  (20) 
10.017593201153476

>  <m_score__min__rmsd>  (20) 
10.017593201153476

>  <meeko>  (20) 
{"free_energy": -7.88, "intermolecular_energy": -9.67, "internal_energy": -1.6, "cluster_size": 28, "cluster_id": 1, "rank_in_cluster": 27}

>  <energy>  (20) 
-8.34

>  <cluster_rmsd>  (20) 
1.89

>  <cluster>  (20) 
1

$$$$

     RDKit          3D

 47 49  0  0  0  0  0  0  0  0999 V2000
  139.5820   78.7150  219.8310 C   0  0  0  0  0  0  0  0  0  0  0  0
  140.1430   77.8640  220.9690 C   0  0  2  0  0  0  0  0  0  0  0  0
  141.0110   78.6730  221.8210 C   0  0  0  0  0  0  0  0  0  0  0  0
  141.0840   78.3490  223.1760 C   0  0  0  0  0  0  0  0  0  0  0  0
  141.8900   79.0830  224.0420 C   0  0  0  0  0  0  0  0  0  0  0  0
  142.6380   80.1500  223.5900 C   0  0  0  0  0  0  0  0  0  0  0  0
  142.5700   80.4760  222.2500 C   0  0  0  0  0  0  0  0  0  0  0  0
  141.7710   79.7430  221.4100 C   0  0  0  0  0  0  0  0  0  0  0  0
  140.7860   76.6510  220.4620 N   0  0  0  0  0  0  0  0  0  0  0  0
  141.6260   76.8110  219.3000 C   0  0  0  0  0  0  0  0  0  0  0  0
  140.5520   75.4710  221.1840 C   0  0  0  0  0  0  0  0  0  0  0  0
  141.5470   75.1330  221.9620 O   0  0  0  0  0  0  0  0  0  0  0  0
  139.4260   74.5680  221.2190 C   0  0  0  0  0  0  0  0  0  0  0  0
  139.3140   73.6190  222.2880 N   0  0  0  0  0  0  0  0  0  0  0  0
  140.2510   72.5480  222.4960 C   0  0  0  0  0  0  0  0  0  0  0  0
  141.2440   72.3980  221.7030 O   0  0  0  0  0  0  0  0  0  0  0  0
  140.0670   71.6190  223.6270 C   0  0  0  0  0  0  0  0  0  0  0  0
  139.3410   70.4700  223.4260 C   0  0  0  0  0  0  0  0  0  0  0  0
  139.1960   69.6250  224.5270 C   0  0  0  0  0  0  0  0  0  0  0  0
  139.7490   69.9210  225.7570 C   0  0  0  0  0  0  0  0  0  0  0  0
  139.6270   69.1130  226.8610 C   0  0  0  0  0  0  0  0  0  0  0  0
  140.2210   69.4900  228.0670 C   0  0  0  0  0  0  0  0  0  0  0  0
  140.9390   70.6730  228.1820 C   0  0  0  0  0  0  0  0  0  0  0  0
  141.0620   71.4850  227.0720 C   0  0  0  0  0  0  0  0  0  0  0  0
  140.4680   71.0860  225.9010 C   0  0  0  0  0  0  0  0  0  0  0  0
  140.6000   71.8920  224.8320 N   0  0  0  0  0  0  0  0  0  0  0  0
  139.0222   79.5642  220.2498 H   0  0  0  0  0  0  0  0  0  0  0  0
  140.4098   79.0911  219.2119 H   0  0  0  0  0  0  0  0  0  0  0  0
  138.9101   78.1024  219.2119 H   0  0  0  0  0  0  0  0  0  0  0  0
  139.3140   77.5131  221.6011 H   0  0  0  0  0  0  0  0  0  0  0  0
  140.4977   77.5034  223.5648 H   0  0  0  0  0  0  0  0  0  0  0  0
  141.9310   78.8069  225.1060 H   0  0  0  0  0  0  0  0  0  0  0  0
  143.2724   80.7265  224.2793 H   0  0  0  0  0  0  0  0  0  0  0  0
  143.1548   81.3209  221.8574 H   0  0  0  0  0  0  0  0  0  0  0  0
  141.7361   80.0269  220.3479 H   0  0  0  0  0  0  0  0  0  0  0  0
  142.6600   77.0079  219.6194 H   0  0  0  0  0  0  0  0  0  0  0  0
  141.5973   75.8912  218.6973 H   0  0  0  0  0  0  0  0  0  0  0  0
  141.2612   77.6558  218.6973 H   0  0  0  0  0  0  0  0  0  0  0  0
  138.5186   75.1892  221.2465 H   0  0  0  0  0  0  0  0  0  0  0  0
  139.5727   73.9381  220.3292 H   0  0  0  0  0  0  0  0  0  0  0  0
  138.5220   73.6510  223.0000 H   0  0  0  0  0  0  0  0  0  0  0  0
  138.8974   70.2289  222.4487 H   0  0  0  0  0  0  0  0  0  0  0  0
  138.6228   68.6933  224.4112 H   0  0  0  0  0  0  0  0  0  0  0  0
  139.0627   68.1711  226.7951 H   0  0  0  0  0  0  0  0  0  0  0  0
  140.1180   68.8356  228.9452 H   0  0  0  0  0  0  0  0  0  0  0  0
  141.4008   70.9577  229.1389 H   0  0  0  0  0  0  0  0  0  0  0  0
  141.6230   72.4297  227.1251 H   0  0  0  0  0  0  0  0  0  0  0  0
  1  2  1  0
  2  3  1  0
  3  4  2  0
  4  5  1  0
  5  6  2  0
  6  7  1  0
  7  8  2  0
  2  9  1  0
  9 10  1  0
  9 11  1  0
 11 12  2  0
 11 13  1  0
 13 14  1  0
 14 15  1  0
 15 16  2  0
 15 17  1  0
 17 18  2  0
 18 19  1  0
 19 20  2  0
 20 21  1  0
 21 22  2  0
 22 23  1  0
 23 24  2  0
 24 25  1  0
 25 26  2  0
  8  3  1  0
 26 17  1  0
 25 20  1  0
  1 27  1  0
  1 28  1  0
  1 29  1  0
  2 30  1  1
  4 31  1  0
  5 32  1  0
  6 33  1  0
  7 34  1  0
  8 35  1  0
 10 36  1  0
 10 37  1  0
 10 38  1  0
 13 39  1  0
 13 40  1  0
 14 41  1  0
 18 42  1  0
 19 43  1  0
 21 44  1  0
 22 45  1  0
 23 46  1  0
 24 47  1  0
M  END
>  <smiles>  (21) 
C[C@H](c1ccccc1)N(C)C(=O)CNC(=O)c1ccc2ccccc2n1

>  <score_type>  (21) 
oracle

>  <origin>  (21) 
autodockgpu

>  <m_score__min__energy>  (21) 
-8.9000000000000004

>  <m_primary>  (21) 
energy

>  <rmsd>  (21) 
4.074926051827921

>  <m_score__min__rmsd>  (21) 
4.074926051827921

>  <meeko>  (21) 
{"free_energy": -8.39, "intermolecular_energy": -10.18, "internal_energy": -1.05, "cluster_size": 17, "cluster_id": 2, "rank_in_cluster": 5}

>  <energy>  (21) 
-8.19

>  <cluster_rmsd>  (21) 
0.88

>  <cluster>  (21) 
1

$$$$

     RDKit          3D

 47 49  0  0  0  0  0  0  0  0999 V2000
  139.0470   68.9300  224.6720 C   0  0  0  0  0  0  0  0  0  0  0  0
  139.8550   70.2120  224.4750 C   0  0  2  0  0  0  0  0  0  0  0  0
  140.2960   70.7330  225.7670 C   0  0  0  0  0  0  0  0  0  0  0  0
  139.9040   70.0480  226.9170 C   0  0  0  0  0  0  0  0  0  0  0  0
  140.2890   70.4950  228.1780 C   0  0  0  0  0  0  0  0  0  0  0  0
  141.0660   71.6250  228.3300 C   0  0  0  0  0  0  0  0  0  0  0  0
  141.4570   72.3070  227.1950 C   0  0  0  0  0  0  0  0  0  0  0  0
  141.0700   71.8530  225.9590 C   0  0  0  0  0  0  0  0  0  0  0  0
  139.1200   71.1880  223.6700 N   0  0  0  0  0  0  0  0  0  0  0  0
  137.7160   71.3340  223.9680 C   0  0  0  0  0  0  0  0  0  0  0  0
  139.8650   71.9080  222.7240 C   0  0  0  0  0  0  0  0  0  0  0  0
  141.1310   71.5800  222.7040 O   0  0  0  0  0  0  0  0  0  0  0  0
  139.4940   72.9380  221.7830 C   0  0  0  0  0  0  0  0  0  0  0  0
  139.4560   74.3060  222.2110 N   0  0  0  0  0  0  0  0  0  0  0  0
  140.4560   75.2750  221.8520 C   0  0  0  0  0  0  0  0  0  0  0  0
  141.4480   74.9350  221.1190 O   0  0  0  0  0  0  0  0  0  0  0  0
  140.3370   76.6660  222.3280 C   0  0  0  0  0  0  0  0  0  0  0  0
  139.0850   77.1680  222.5950 C   0  0  0  0  0  0  0  0  0  0  0  0
  139.0260   78.4880  223.0420 C   0  0  0  0  0  0  0  0  0  0  0  0
  140.1600   79.2570  223.2110 C   0  0  0  0  0  0  0  0  0  0  0  0
  140.1400   80.5580  223.6500 C   0  0  0  0  0  0  0  0  0  0  0  0
  141.3370   81.2620  223.7930 C   0  0  0  0  0  0  0  0  0  0  0  0
  142.5610   80.6760  223.4990 C   0  0  0  0  0  0  0  0  0  0  0  0
  142.5820   79.3680  223.0580 C   0  0  0  0  0  0  0  0  0  0  0  0
  141.3890   78.7030  222.9290 C   0  0  0  0  0  0  0  0  0  0  0  0
  141.4310   77.4290  222.4980 N   0  0  0  0  0  0  0  0  0  0  0  0
  138.9244   68.7355  225.7477 H   0  0  0  0  0  0  0  0  0  0  0  0
  138.0577   69.0447  224.2050 H   0  0  0  0  0  0  0  0  0  0  0  0
  139.5773   68.0870  224.2050 H   0  0  0  0  0  0  0  0  0  0  0  0
  140.7632   69.9820  223.8985 H   0  0  0  0  0  0  0  0  0  0  0  0
  139.2835   69.1442  226.8266 H   0  0  0  0  0  0  0  0  0  0  0  0
  139.9678   69.9369  229.0698 H   0  0  0  0  0  0  0  0  0  0  0  0
  141.3661   71.9734  229.3293 H   0  0  0  0  0  0  0  0  0  0  0  0
  142.0769   73.2116  227.2811 H   0  0  0  0  0  0  0  0  0  0  0  0
  141.3973   72.4165  225.0728 H   0  0  0  0  0  0  0  0  0  0  0  0
  137.5722   71.3489  225.0585 H   0  0  0  0  0  0  0  0  0  0  0  0
  137.3455   72.2755  223.5364 H   0  0  0  0  0  0  0  0  0  0  0  0
  137.1597   70.4889  223.5364 H   0  0  0  0  0  0  0  0  0  0  0  0
  140.2104   72.8833  220.9501 H   0  0  0  0  0  0  0  0  0  0  0  0
  138.4427   72.7105  221.5527 H   0  0  0  0  0  0  0  0  0  0  0  0
  138.6770   74.6900  222.8270 H   0  0  0  0  0  0  0  0  0  0  0  0
  138.1775   76.5605  222.4630 H   0  0  0  0  0  0  0  0  0  0  0  0
  138.0444   78.9304  223.2671 H   0  0  0  0  0  0  0  0  0  0  0  0
  139.1827   81.0445  223.8885 H   0  0  0  0  0  0  0  0  0  0  0  0
  141.3099   82.3034  224.1462 H   0  0  0  0  0  0  0  0  0  0  0  0
  143.4962   81.2433  223.6153 H   0  0  0  0  0  0  0  0  0  0  0  0
  143.5328   78.8707  222.8158 H   0  0  0  0  0  0  0  0  0  0  0  0
  1  2  1  0
  2  3  1  0
  3  4  2  0
  4  5  1  0
  5  6  2  0
  6  7  1  0
  7  8  2  0
  2  9  1  0
  9 10  1  0
  9 11  1  0
 11 12  2  0
 11 13  1  0
 13 14  1  0
 14 15  1  0
 15 16  2  0
 15 17  1  0
 17 18  2  0
 18 19  1  0
 19 20  2  0
 20 21  1  0
 21 22  2  0
 22 23  1  0
 23 24  2  0
 24 25  1  0
 25 26  2  0
  8  3  1  0
 26 17  1  0
 25 20  1  0
  1 27  1  0
  1 28  1  0
  1 29  1  0
  2 30  1  6
  4 31  1  0
  5 32  1  0
  6 33  1  0
  7 34  1  0
  8 35  1  0
 10 36  1  0
 10 37  1  0
 10 38  1  0
 13 39  1  0
 13 40  1  0
 14 41  1  0
 18 42  1  0
 19 43  1  0
 21 44  1  0
 22 45  1  0
 23 46  1  0
 24 47  1  0
M  END
>  <smiles>  (22) 
C[C@H](c1ccccc1)N(C)C(=O)CNC(=O)c1ccc2ccccc2n1

>  <score_type>  (22) 
oracle

>  <origin>  (22) 
autodockgpu

>  <m_score__min__energy>  (22) 
-8.9000000000000004

>  <m_primary>  (22) 
energy

>  <rmsd>  (22) 
10.040815372024642

>  <m_score__min__rmsd>  (22) 
10.040815372024642

>  <meeko>  (22) 
{"free_energy": -8.84, "intermolecular_energy": -10.63, "internal_energy": -1.04, "cluster_size": 28, "cluster_id": 1, "rank_in_cluster": 3}

>  <energy>  (22) 
-8.19

>  <cluster_rmsd>  (22) 
1.0

>  <cluster>  (22) 
1

$$$$

     RDKit          3D

 47 49  0  0  0  0  0  0  0  0999 V2000
  139.5590   67.3890  226.4450 C   0  0  0  0  0  0  0  0  0  0  0  0
  139.9410   68.4650  225.4300 C   0  0  2  0  0  0  0  0  0  0  0  0
  140.3040   69.7010  226.1180 C   0  0  0  0  0  0  0  0  0  0  0  0
  141.0120   70.6650  225.4010 C   0  0  0  0  0  0  0  0  0  0  0  0
  141.3910   71.8640  226.0010 C   0  0  0  0  0  0  0  0  0  0  0  0
  141.0790   72.1340  227.3170 C   0  0  0  0  0  0  0  0  0  0  0  0
  140.3770   71.1830  228.0320 C   0  0  0  0  0  0  0  0  0  0  0  0
  140.0120   70.0080  227.4270 C   0  0  0  0  0  0  0  0  0  0  0  0
  138.8960   68.6410  224.4200 N   0  0  0  0  0  0  0  0  0  0  0  0
  138.9610   67.7670  223.2750 C   0  0  0  0  0  0  0  0  0  0  0  0
  137.9190   69.6110  224.6940 C   0  0  0  0  0  0  0  0  0  0  0  0
  137.5150   69.6030  225.9370 O   0  0  0  0  0  0  0  0  0  0  0  0
  137.2820   70.6010  223.8590 C   0  0  0  0  0  0  0  0  0  0  0  0
  138.0600   71.6790  223.3220 N   0  0  0  0  0  0  0  0  0  0  0  0
  139.2640   71.4820  222.5610 C   0  0  0  0  0  0  0  0  0  0  0  0
  139.6980   70.3000  222.3370 O   0  0  0  0  0  0  0  0  0  0  0  0
  140.0010   72.6470  222.0360 C   0  0  0  0  0  0  0  0  0  0  0  0
  141.1060   72.4290  221.2490 C   0  0  0  0  0  0  0  0  0  0  0  0
  141.7690   73.5630  220.7780 C   0  0  0  0  0  0  0  0  0  0  0  0
  141.3430   74.8410  221.0820 C   0  0  0  0  0  0  0  0  0  0  0  0
  141.9690   75.9790  220.6360 C   0  0  0  0  0  0  0  0  0  0  0  0
  141.4690   77.2330  220.9920 C   0  0  0  0  0  0  0  0  0  0  0  0
  140.3430   77.3620  221.7950 C   0  0  0  0  0  0  0  0  0  0  0  0
  139.7130   76.2180  222.2430 C   0  0  0  0  0  0  0  0  0  0  0  0
  140.2290   75.0010  221.8750 C   0  0  0  0  0  0  0  0  0  0  0  0
  139.6000   73.8980  222.3220 N   0  0  0  0  0  0  0  0  0  0  0  0
  139.6978   67.7801  227.4637 H   0  0  0  0  0  0  0  0  0  0  0  0
  138.5057   67.1066  226.3011 H   0  0  0  0  0  0  0  0  0  0  0  0
  140.1985   66.5056  226.3011 H   0  0  0  0  0  0  0  0  0  0  0  0
  140.8325   68.1382  224.8747 H   0  0  0  0  0  0  0  0  0  0  0  0
  141.2743   70.4766  224.3495 H   0  0  0  0  0  0  0  0  0  0  0  0
  141.9491   72.6087  225.4145 H   0  0  0  0  0  0  0  0  0  0  0  0
  141.3814   73.0823  227.7853 H   0  0  0  0  0  0  0  0  0  0  0  0
  140.1117   71.3679  229.0834 H   0  0  0  0  0  0  0  0  0  0  0  0
  139.4544   69.2693  228.0215 H   0  0  0  0  0  0  0  0  0  0  0  0
  139.0386   66.7235  223.6142 H   0  0  0  0  0  0  0  0  0  0  0  0
  138.0513   67.8888  222.6687 H   0  0  0  0  0  0  0  0  0  0  0  0
  139.8427   68.0220  222.6687 H   0  0  0  0  0  0  0  0  0  0  0  0
  136.8453   70.0647  223.0036 H   0  0  0  0  0  0  0  0  0  0  0  0
  136.5822   71.1036  224.5429 H   0  0  0  0  0  0  0  0  0  0  0  0
  137.7890   72.7000  223.4540 H   0  0  0  0  0  0  0  0  0  0  0  0
  141.4501   71.4136  221.0030 H   0  0  0  0  0  0  0  0  0  0  0  0
  142.6591   73.4349  220.1445 H   0  0  0  0  0  0  0  0  0  0  0  0
  142.8628   75.9027  219.9994 H   0  0  0  0  0  0  0  0  0  0  0  0
  141.9776   78.1382  220.6288 H   0  0  0  0  0  0  0  0  0  0  0  0
  139.9606   78.3564  222.0687 H   0  0  0  0  0  0  0  0  0  0  0  0
  138.8184   76.2807  222.8800 H   0  0  0  0  0  0  0  0  0  0  0  0
  1  2  1  0
  2  3  1  0
  3  4  2  0
  4  5  1  0
  5  6  2  0
  6  7  1  0
  7  8  2  0
  2  9  1  0
  9 10  1  0
  9 11  1  0
 11 12  2  0
 11 13  1  0
 13 14  1  0
 14 15  1  0
 15 16  2  0
 15 17  1  0
 17 18  2  0
 18 19  1  0
 19 20  2  0
 20 21  1  0
 21 22  2  0
 22 23  1  0
 23 24  2  0
 24 25  1  0
 25 26  2  0
  8  3  1  0
 26 17  1  0
 25 20  1  0
  1 27  1  0
  1 28  1  0
  1 29  1  0
  2 30  1  6
  4 31  1  0
  5 32  1  0
  6 33  1  0
  7 34  1  0
  8 35  1  0
 10 36  1  0
 10 37  1  0
 10 38  1  0
 13 39  1  0
 13 40  1  0
 14 41  1  0
 18 42  1  0
 19 43  1  0
 21 44  1  0
 22 45  1  0
 23 46  1  0
 24 47  1  0
M  END
>  <smiles>  (23) 
C[C@H](c1ccccc1)N(C)C(=O)CNC(=O)c1ccc2ccccc2n1

>  <score_type>  (23) 
oracle

>  <origin>  (23) 
autodockgpu

>  <m_score__min__energy>  (23) 
-8.9000000000000004

>  <m_primary>  (23) 
energy

>  <rmsd>  (23) 
10.040079614803743

>  <m_score__min__rmsd>  (23) 
10.040079614803743

>  <meeko>  (23) 
{"free_energy": -7.54, "intermolecular_energy": -9.33, "internal_energy": -1.91, "cluster_size": 1, "cluster_id": 4, "rank_in_cluster": 1}

>  <energy>  (23) 
-8.18

>  <cluster_rmsd>  (23) 
0.9

>  <cluster>  (23) 
1

$$$$

     RDKit          3D

 47 49  0  0  0  0  0  0  0  0999 V2000
  140.6660   71.4730  224.3730 C   0  0  0  0  0  0  0  0  0  0  0  0
  139.4930   70.7850  225.0690 C   0  0  2  0  0  0  0  0  0  0  0  0
  139.9830   69.8520  226.0800 C   0  0  0  0  0  0  0  0  0  0  0  0
  140.3490   70.3670  227.3230 C   0  0  0  0  0  0  0  0  0  0  0  0
  140.8270   69.5300  228.3280 C   0  0  0  0  0  0  0  0  0  0  0  0
  140.9550   68.1720  228.1270 C   0  0  0  0  0  0  0  0  0  0  0  0
  140.5950   67.6560  226.8980 C   0  0  0  0  0  0  0  0  0  0  0  0
  140.1250   68.4930  225.9180 C   0  0  0  0  0  0  0  0  0  0  0  0
  138.5810   70.1740  224.1010 N   0  0  0  0  0  0  0  0  0  0  0  0
  139.1810   69.6650  222.8910 C   0  0  0  0  0  0  0  0  0  0  0  0
  137.2290   70.1090  224.4690 C   0  0  0  0  0  0  0  0  0  0  0  0
  137.0230   69.4300  225.5670 O   0  0  0  0  0  0  0  0  0  0  0  0
  136.0350   70.6450  223.8590 C   0  0  0  0  0  0  0  0  0  0  0  0
  135.2870   71.6590  224.5420 N   0  0  0  0  0  0  0  0  0  0  0  0
  134.3170   71.3730  225.5650 C   0  0  0  0  0  0  0  0  0  0  0  0
  134.0780   70.1630  225.9050 O   0  0  0  0  0  0  0  0  0  0  0  0
  133.5960   72.4770  226.2240 C   0  0  0  0  0  0  0  0  0  0  0  0
  132.4770   72.1860  226.9670 C   0  0  0  0  0  0  0  0  0  0  0  0
  131.8310   73.2650  227.5700 C   0  0  0  0  0  0  0  0  0  0  0  0
  132.2850   74.5620  227.4330 C   0  0  0  0  0  0  0  0  0  0  0  0
  131.6750   75.6480  228.0120 C   0  0  0  0  0  0  0  0  0  0  0  0
  132.2040   76.9250  227.8210 C   0  0  0  0  0  0  0  0  0  0  0  0
  133.3420   77.1310  227.0520 C   0  0  0  0  0  0  0  0  0  0  0  0
  133.9550   76.0390  226.4700 C   0  0  0  0  0  0  0  0  0  0  0  0
  133.4120   74.7970  226.6770 C   0  0  0  0  0  0  0  0  0  0  0  0
  134.0250   73.7470  226.1010 N   0  0  0  0  0  0  0  0  0  0  0  0
  141.3551   71.8772  225.1291 H   0  0  0  0  0  0  0  0  0  0  0  0
  141.1982   70.7439  223.7443 H   0  0  0  0  0  0  0  0  0  0  0  0
  140.2894   72.2933  223.7443 H   0  0  0  0  0  0  0  0  0  0  0  0
  138.8942   71.5406  225.5986 H   0  0  0  0  0  0  0  0  0  0  0  0
  140.2591   71.4469  227.5119 H   0  0  0  0  0  0  0  0  0  0  0  0
  141.1078   69.9604  229.3006 H   0  0  0  0  0  0  0  0  0  0  0  0
  141.3341   67.5167  228.9250 H   0  0  0  0  0  0  0  0  0  0  0  0
  140.6848   66.5768  226.7052 H   0  0  0  0  0  0  0  0  0  0  0  0
  139.8462   68.0534  224.9490 H   0  0  0  0  0  0  0  0  0  0  0  0
  139.9964   68.9732  223.1490 H   0  0  0  0  0  0  0  0  0  0  0  0
  138.4209   69.1320  222.3009 H   0  0  0  0  0  0  0  0  0  0  0  0
  139.5829   70.5018  222.3009 H   0  0  0  0  0  0  0  0  0  0  0  0
  136.3338   71.0673  222.8882 H   0  0  0  0  0  0  0  0  0  0  0  0
  135.3476   69.7865  223.8394 H   0  0  0  0  0  0  0  0  0  0  0  0
  135.4050   72.6960  224.3310 H   0  0  0  0  0  0  0  0  0  0  0  0
  132.1099   71.1553  227.0802 H   0  0  0  0  0  0  0  0  0  0  0  0
  130.9311   73.0769  228.1740 H   0  0  0  0  0  0  0  0  0  0  0  0
  130.7717   75.5113  228.6247 H   0  0  0  0  0  0  0  0  0  0  0  0
  131.7086   77.7879  228.2900 H   0  0  0  0  0  0  0  0  0  0  0  0
  133.7469   78.1438  226.9094 H   0  0  0  0  0  0  0  0  0  0  0  0
  134.8582   76.1627  225.8544 H   0  0  0  0  0  0  0  0  0  0  0  0
  1  2  1  0
  2  3  1  0
  3  4  2  0
  4  5  1  0
  5  6  2  0
  6  7  1  0
  7  8  2  0
  2  9  1  0
  9 10  1  0
  9 11  1  0
 11 12  2  0
 11 13  1  0
 13 14  1  0
 14 15  1  0
 15 16  2  0
 15 17  1  0
 17 18  2  0
 18 19  1  0
 19 20  2  0
 20 21  1  0
 21 22  2  0
 22 23  1  0
 23 24  2  0
 24 25  1  0
 25 26  2  0
  8  3  1  0
 26 17  1  0
 25 20  1  0
  1 27  1  0
  1 28  1  0
  1 29  1  0
  2 30  1  1
  4 31  1  0
  5 32  1  0
  6 33  1  0
  7 34  1  0
  8 35  1  0
 10 36  1  0
 10 37  1  0
 10 38  1  0
 13 39  1  0
 13 40  1  0
 14 41  1  0
 18 42  1  0
 19 43  1  0
 21 44  1  0
 22 45  1  0
 23 46  1  0
 24 47  1  0
M  END
>  <smiles>  (24) 
C[C@H](c1ccccc1)N(C)C(=O)CNC(=O)c1ccc2ccccc2n1

>  <score_type>  (24) 
oracle

>  <origin>  (24) 
autodockgpu

>  <m_score__min__energy>  (24) 
-8.9000000000000004

>  <m_primary>  (24) 
energy

>  <rmsd>  (24) 
10.77294182632683

>  <m_score__min__rmsd>  (24) 
10.77294182632683

>  <meeko>  (24) 
{"free_energy": -7.46, "intermolecular_energy": -9.25, "internal_energy": -1.36, "cluster_size": 1, "cluster_id": 5, "rank_in_cluster": 1}

>  <energy>  (24) 
-8.03

>  <cluster_rmsd>  (24) 
1.26

>  <cluster>  (24) 
1

$$$$

     RDKit          3D

 47 49  0  0  0  0  0  0  0  0999 V2000
  138.9410   77.4370  222.3720 C   0  0  0  0  0  0  0  0  0  0  0  0
  140.4610   77.3910  222.5160 C   0  0  2  0  0  0  0  0  0  0  0  0
  140.9750   78.7140  222.8590 C   0  0  0  0  0  0  0  0  0  0  0  0
  140.1930   79.8230  222.5380 C   0  0  0  0  0  0  0  0  0  0  0  0
  140.6280   81.1120  222.8350 C   0  0  0  0  0  0  0  0  0  0  0  0
  141.8420   81.3320  223.4530 C   0  0  0  0  0  0  0  0  0  0  0  0
  142.6200   80.2370  223.7740 C   0  0  0  0  0  0  0  0  0  0  0  0
  142.1770   78.9750  223.4740 C   0  0  0  0  0  0  0  0  0  0  0  0
  141.0910   76.8060  221.3310 N   0  0  0  0  0  0  0  0  0  0  0  0
  141.7830   77.7230  220.4580 C   0  0  0  0  0  0  0  0  0  0  0  0
  140.9940   75.4130  221.1940 C   0  0  0  0  0  0  0  0  0  0  0  0
  142.1490   74.8280  221.0090 O   0  0  0  0  0  0  0  0  0  0  0  0
  139.8610   74.5170  221.2140 C   0  0  0  0  0  0  0  0  0  0  0  0
  139.6930   73.6150  222.3160 N   0  0  0  0  0  0  0  0  0  0  0  0
  140.4920   72.4340  222.4990 C   0  0  0  0  0  0  0  0  0  0  0  0
  141.4040   72.1350  221.6530 O   0  0  0  0  0  0  0  0  0  0  0  0
  140.2590   71.5630  223.6660 C   0  0  0  0  0  0  0  0  0  0  0  0
  139.5580   70.3940  223.4890 C   0  0  0  0  0  0  0  0  0  0  0  0
  139.3640   69.6060  224.6240 C   0  0  0  0  0  0  0  0  0  0  0  0
  139.8490   69.9730  225.8640 C   0  0  0  0  0  0  0  0  0  0  0  0
  139.6770   69.2230  227.0010 C   0  0  0  0  0  0  0  0  0  0  0  0
  140.2030   69.6700  228.2150 C   0  0  0  0  0  0  0  0  0  0  0  0
  140.9000   70.8670  228.3040 C   0  0  0  0  0  0  0  0  0  0  0  0
  141.0730   71.6220  227.1610 C   0  0  0  0  0  0  0  0  0  0  0  0
  140.5450   71.1540  225.9830 C   0  0  0  0  0  0  0  0  0  0  0  0
  140.7250   71.9050  224.8810 N   0  0  0  0  0  0  0  0  0  0  0  0
  138.4784   77.4510  223.3699 H   0  0  0  0  0  0  0  0  0  0  0  0
  138.6522   78.3443  221.8212 H   0  0  0  0  0  0  0  0  0  0  0  0
  138.5978   76.5488  221.8212 H   0  0  0  0  0  0  0  0  0  0  0  0
  140.7259   76.7229  223.3488 H   0  0  0  0  0  0  0  0  0  0  0  0
  139.2208   79.6778  222.0442 H   0  0  0  0  0  0  0  0  0  0  0  0
  139.9924   81.9704  222.5722 H   0  0  0  0  0  0  0  0  0  0  0  0
  142.1811   82.3526  223.6839 H   0  0  0  0  0  0  0  0  0  0  0  0
  143.5923   80.3772  224.2690 H   0  0  0  0  0  0  0  0  0  0  0  0
  142.8194   78.1227  223.7403 H   0  0  0  0  0  0  0  0  0  0  0  0
  142.3368   78.4569  221.0619 H   0  0  0  0  0  0  0  0  0  0  0  0
  142.4868   77.1646  219.8233 H   0  0  0  0  0  0  0  0  0  0  0  0
  141.0530   78.2466  219.8233 H   0  0  0  0  0  0  0  0  0  0  0  0
  138.9574   75.1429  221.1724 H   0  0  0  0  0  0  0  0  0  0  0  0
  140.0449   73.8492  220.3595 H   0  0  0  0  0  0  0  0  0  0  0  0
  138.9600   73.7690  223.0730 H   0  0  0  0  0  0  0  0  0  0  0  0
  139.1702   70.0953  222.5039 H   0  0  0  0  0  0  0  0  0  0  0  0
  138.8070   68.6623  224.5281 H   0  0  0  0  0  0  0  0  0  0  0  0
  139.1260   68.2720  226.9559 H   0  0  0  0  0  0  0  0  0  0  0  0
  140.0620   69.0606  229.1198 H   0  0  0  0  0  0  0  0  0  0  0  0
  141.3070   71.2079  229.2674 H   0  0  0  0  0  0  0  0  0  0  0  0
  141.6206   72.5755  227.1933 H   0  0  0  0  0  0  0  0  0  0  0  0
  1  2  1  0
  2  3  1  0
  3  4  2  0
  4  5  1  0
  5  6  2  0
  6  7  1  0
  7  8  2  0
  2  9  1  0
  9 10  1  0
  9 11  1  0
 11 12  2  0
 11 13  1  0
 13 14  1  0
 14 15  1  0
 15 16  2  0
 15 17  1  0
 17 18  2  0
 18 19  1  0
 19 20  2  0
 20 21  1  0
 21 22  2  0
 22 23  1  0
 23 24  2  0
 24 25  1  0
 25 26  2  0
  8  3  1  0
 26 17  1  0
 25 20  1  0
  1 27  1  0
  1 28  1  0
  1 29  1  0
  2 30  1  1
  4 31  1  0
  5 32  1  0
  6 33  1  0
  7 34  1  0
  8 35  1  0
 10 36  1  0
 10 37  1  0
 10 38  1  0
 13 39  1  0
 13 40  1  0
 14 41  1  0
 18 42  1  0
 19 43  1  0
 21 44  1  0
 22 45  1  0
 23 46  1  0
 24 47  1  0
M  END
>  <smiles>  (25) 
C[C@H](c1ccccc1)N(C)C(=O)CNC(=O)c1ccc2ccccc2n1

>  <score_type>  (25) 
oracle

>  <origin>  (25) 
autodockgpu

>  <m_score__min__energy>  (25) 
-8.9000000000000004

>  <m_primary>  (25) 
energy

>  <rmsd>  (25) 
4.089157538041267

>  <m_score__min__rmsd>  (25) 
4.089157538041267

>  <meeko>  (25) 
{"free_energy": -8.87, "intermolecular_energy": -10.66, "internal_energy": -0.97, "cluster_size": 28, "cluster_id": 1, "rank_in_cluster": 2}

>  <energy>  (25) 
-8.02

>  <cluster_rmsd>  (25) 
1.08

>  <cluster>  (25) 
1

$$$$

     RDKit          3D

 47 49  0  0  0  0  0  0  0  0999 V2000
  140.5570   78.8230  219.5330 C   0  0  0  0  0  0  0  0  0  0  0  0
  140.4970   78.0670  220.8590 C   0  0  2  0  0  0  0  0  0  0  0  0
  141.2210   78.8040  221.8920 C   0  0  0  0  0  0  0  0  0  0  0  0
  142.1480   79.7630  221.4840 C   0  0  0  0  0  0  0  0  0  0  0  0
  142.8730   80.4970  222.4190 C   0  0  0  0  0  0  0  0  0  0  0  0
  142.6980   80.3000  223.7730 C   0  0  0  0  0  0  0  0  0  0  0  0
  141.7810   79.3520  224.1830 C   0  0  0  0  0  0  0  0  0  0  0  0
  141.0750   78.6380  223.2490 C   0  0  0  0  0  0  0  0  0  0  0  0
  140.9440   76.6820  220.7050 N   0  0  0  0  0  0  0  0  0  0  0  0
  142.0340   76.4620  219.7860 C   0  0  0  0  0  0  0  0  0  0  0  0
  140.2960   75.7240  221.4990 C   0  0  0  0  0  0  0  0  0  0  0  0
  140.0790   76.1260  222.7240 O   0  0  0  0  0  0  0  0  0  0  0  0
  139.8340   74.3860  221.2130 C   0  0  0  0  0  0  0  0  0  0  0  0
  139.6350   73.4610  222.2900 N   0  0  0  0  0  0  0  0  0  0  0  0
  140.4860   72.3260  222.5250 C   0  0  0  0  0  0  0  0  0  0  0  0
  141.4770   72.0930  221.7510 O   0  0  0  0  0  0  0  0  0  0  0  0
  140.2160   71.4280  223.6630 C   0  0  0  0  0  0  0  0  0  0  0  0
  139.5110   70.2700  223.4380 C   0  0  0  0  0  0  0  0  0  0  0  0
  139.2810   69.4540  224.5460 C   0  0  0  0  0  0  0  0  0  0  0  0
  139.7340   69.7870  225.8080 C   0  0  0  0  0  0  0  0  0  0  0  0
  139.5270   69.0090  226.9210 C   0  0  0  0  0  0  0  0  0  0  0  0
  140.0220   69.4220  228.1590 C   0  0  0  0  0  0  0  0  0  0  0  0
  140.7240   70.6120  228.2980 C   0  0  0  0  0  0  0  0  0  0  0  0
  140.9330   71.3940  227.1790 C   0  0  0  0  0  0  0  0  0  0  0  0
  140.4350   70.9600  225.9770 C   0  0  0  0  0  0  0  0  0  0  0  0
  140.6500   71.7360  224.8990 N   0  0  0  0  0  0  0  0  0  0  0  0
  140.6427   79.9019  219.7296 H   0  0  0  0  0  0  0  0  0  0  0  0
  141.4311   78.4847  218.9573 H   0  0  0  0  0  0  0  0  0  0  0  0
  139.6405   78.6268  218.9573 H   0  0  0  0  0  0  0  0  0  0  0  0
  139.4503   78.0010  221.1906 H   0  0  0  0  0  0  0  0  0  0  0  0
  142.3082   79.9416  220.4105 H   0  0  0  0  0  0  0  0  0  0  0  0
  143.5984   81.2475  222.0717 H   0  0  0  0  0  0  0  0  0  0  0  0
  143.2738   80.8827  224.5071 H   0  0  0  0  0  0  0  0  0  0  0  0
  141.6175   79.1703  225.2555 H   0  0  0  0  0  0  0  0  0  0  0  0
  140.3511   77.8904  223.6056 H   0  0  0  0  0  0  0  0  0  0  0  0
  142.9587   76.2754  220.3518 H   0  0  0  0  0  0  0  0  0  0  0  0
  141.8095   75.5910  219.1527 H   0  0  0  0  0  0  0  0  0  0  0  0
  142.1649   77.3518  219.1527 H   0  0  0  0  0  0  0  0  0  0  0  0
  138.8690   74.4851  220.6944 H   0  0  0  0  0  0  0  0  0  0  0  0
  140.6642   73.9431  220.6432 H   0  0  0  0  0  0  0  0  0  0  0  0
  138.8370   73.5610  222.9880 H   0  0  0  0  0  0  0  0  0  0  0  0
  139.1467   70.0003  222.4357 H   0  0  0  0  0  0  0  0  0  0  0  0
  138.7217   68.5165  224.4106 H   0  0  0  0  0  0  0  0  0  0  0  0
  138.9724   68.0628  226.8368 H   0  0  0  0  0  0  0  0  0  0  0  0
  139.8523   68.7910  229.0439 H   0  0  0  0  0  0  0  0  0  0  0  0
  141.1063   70.9258  229.2805 H   0  0  0  0  0  0  0  0  0  0  0  0
  141.4857   72.3424  227.2501 H   0  0  0  0  0  0  0  0  0  0  0  0
  1  2  1  0
  2  3  1  0
  3  4  2  0
  4  5  1  0
  5  6  2  0
  6  7  1  0
  7  8  2  0
  2  9  1  0
  9 10  1  0
  9 11  1  0
 11 12  2  0
 11 13  1  0
 13 14  1  0
 14 15  1  0
 15 16  2  0
 15 17  1  0
 17 18  2  0
 18 19  1  0
 19 20  2  0
 20 21  1  0
 21 22  2  0
 22 23  1  0
 23 24  2  0
 24 25  1  0
 25 26  2  0
  8  3  1  0
 26 17  1  0
 25 20  1  0
  1 27  1  0
  1 28  1  0
  1 29  1  0
  2 30  1  1
  4 31  1  0
  5 32  1  0
  6 33  1  0
  7 34  1  0
  8 35  1  0
 10 36  1  0
 10 37  1  0
 10 38  1  0
 13 39  1  0
 13 40  1  0
 14 41  1  0
 18 42  1  0
 19 43  1  0
 21 44  1  0
 22 45  1  0
 23 46  1  0
 24 47  1  0
M  END
>  <smiles>  (26) 
C[C@H](c1ccccc1)N(C)C(=O)CNC(=O)c1ccc2ccccc2n1

>  <score_type>  (26) 
oracle

>  <origin>  (26) 
autodockgpu

>  <m_score__min__energy>  (26) 
-8.9000000000000004

>  <m_primary>  (26) 
energy

>  <rmsd>  (26) 
4.25636367800395

>  <m_score__min__rmsd>  (26) 
4.25636367800395

>  <meeko>  (26) 
{"free_energy": -8.62, "intermolecular_energy": -10.41, "internal_energy": -1.01, "cluster_size": 17, "cluster_id": 2, "rank_in_cluster": 2}

>  <energy>  (26) 
-7.94

>  <cluster_rmsd>  (26) 
1.19

>  <cluster>  (26) 
1

$$$$

     RDKit          3D

 47 49  0  0  0  0  0  0  0  0999 V2000
  138.3540   77.2750  222.7060 C   0  0  0  0  0  0  0  0  0  0  0  0
  139.8710   77.2290  222.5350 C   0  0  2  0  0  0  0  0  0  0  0  0
  140.4610   78.5090  222.9210 C   0  0  0  0  0  0  0  0  0  0  0  0
  141.8410   78.5620  223.1160 C   0  0  0  0  0  0  0  0  0  0  0  0
  142.4630   79.7510  223.4870 C   0  0  0  0  0  0  0  0  0  0  0  0
  141.7380   80.9090  223.6750 C   0  0  0  0  0  0  0  0  0  0  0  0
  140.3710   80.8630  223.4830 C   0  0  0  0  0  0  0  0  0  0  0  0
  139.7730   79.6840  223.1170 C   0  0  0  0  0  0  0  0  0  0  0  0
  140.2440   76.7950  221.1880 N   0  0  0  0  0  0  0  0  0  0  0  0
  140.3050   77.8250  220.1790 C   0  0  0  0  0  0  0  0  0  0  0  0
  140.5440   75.4330  221.0300 C   0  0  0  0  0  0  0  0  0  0  0  0
  141.8010   75.2090  220.7480 O   0  0  0  0  0  0  0  0  0  0  0  0
  139.7240   74.2480  221.1160 C   0  0  0  0  0  0  0  0  0  0  0  0
  139.7520   73.4540  222.3090 N   0  0  0  0  0  0  0  0  0  0  0  0
  139.9950   72.0360  222.3100 C   0  0  0  0  0  0  0  0  0  0  0  0
  140.1930   71.4170  221.2090 O   0  0  0  0  0  0  0  0  0  0  0  0
  140.0160   71.2950  223.5840 C   0  0  0  0  0  0  0  0  0  0  0  0
  139.5420   70.0050  223.6060 C   0  0  0  0  0  0  0  0  0  0  0  0
  139.5820   69.3470  224.8350 C   0  0  0  0  0  0  0  0  0  0  0  0
  140.0720   69.9530  225.9760 C   0  0  0  0  0  0  0  0  0  0  0  0
  140.1270   69.3360  227.2020 C   0  0  0  0  0  0  0  0  0  0  0  0
  140.6390   70.0240  228.3030 C   0  0  0  0  0  0  0  0  0  0  0  0
  141.0980   71.3300  228.1920 C   0  0  0  0  0  0  0  0  0  0  0  0
  141.0420   71.9500  226.9600 C   0  0  0  0  0  0  0  0  0  0  0  0
  140.5350   71.2470  225.8970 C   0  0  0  0  0  0  0  0  0  0  0  0
  140.4890   71.8700  224.7050 N   0  0  0  0  0  0  0  0  0  0  0  0
  138.1059   77.2825  223.7776 H   0  0  0  0  0  0  0  0  0  0  0  0
  137.9590   78.1855  222.2318 H   0  0  0  0  0  0  0  0  0  0  0  0
  137.9046   76.3901  222.2318 H   0  0  0  0  0  0  0  0  0  0  0  0
  140.2879   76.4697  223.2130 H   0  0  0  0  0  0  0  0  0  0  0  0
  142.4451   77.6536  222.9750 H   0  0  0  0  0  0  0  0  0  0  0  0
  143.5532   79.7671  223.6329 H   0  0  0  0  0  0  0  0  0  0  0  0
  142.2354   81.8447  223.9701 H   0  0  0  0  0  0  0  0  0  0  0  0
  139.7636   81.7693  223.6232 H   0  0  0  0  0  0  0  0  0  0  0  0
  138.6826   79.6778  222.9722 H   0  0  0  0  0  0  0  0  0  0  0  0
  140.3633   78.8105  220.6641 H   0  0  0  0  0  0  0  0  0  0  0  0
  141.1956   77.6717  219.5519 H   0  0  0  0  0  0  0  0  0  0  0  0
  139.4025   77.7779  219.5519 H   0  0  0  0  0  0  0  0  0  0  0  0
  138.6820   74.5690  220.9700 H   0  0  0  0  0  0  0  0  0  0  0  0
  140.1529   73.5818  220.3529 H   0  0  0  0  0  0  0  0  0  0  0  0
  139.5940   73.8710  223.2760 H   0  0  0  0  0  0  0  0  0  0  0  0
  139.1513   69.5168  222.7010 H   0  0  0  0  0  0  0  0  0  0  0  0
  139.2118   68.3131  224.8980 H   0  0  0  0  0  0  0  0  0  0  0  0
  139.7684   68.3023  227.3157 H   0  0  0  0  0  0  0  0  0  0  0  0
  140.6799   69.5207  229.2803 H   0  0  0  0  0  0  0  0  0  0  0  0
  141.4984   71.8600  229.0688 H   0  0  0  0  0  0  0  0  0  0  0  0
  141.3958   72.9839  226.8337 H   0  0  0  0  0  0  0  0  0  0  0  0
  1  2  1  0
  2  3  1  0
  3  4  2  0
  4  5  1  0
  5  6  2  0
  6  7  1  0
  7  8  2  0
  2  9  1  0
  9 10  1  0
  9 11  1  0
 11 12  2  0
 11 13  1  0
 13 14  1  0
 14 15  1  0
 15 16  2  0
 15 17  1  0
 17 18  2  0
 18 19  1  0
 19 20  2  0
 20 21  1  0
 21 22  2  0
 22 23  1  0
 23 24  2  0
 24 25  1  0
 25 26  2  0
  8  3  1  0
 26 17  1  0
 25 20  1  0
  1 27  1  0
  1 28  1  0
  1 29  1  0
  2 30  1  1
  4 31  1  0
  5 32  1  0
  6 33  1  0
  7 34  1  0
  8 35  1  0
 10 36  1  0
 10 37  1  0
 10 38  1  0
 13 39  1  0
 13 40  1  0
 14 41  1  0
 18 42  1  0
 19 43  1  0
 21 44  1  0
 22 45  1  0
 23 46  1  0
 24 47  1  0
M  END
>  <smiles>  (27) 
C[C@H](c1ccccc1)N(C)C(=O)CNC(=O)c1ccc2ccccc2n1

>  <score_type>  (27) 
oracle

>  <origin>  (27) 
autodockgpu

>  <m_score__min__energy>  (27) 
-8.9000000000000004

>  <m_primary>  (27) 
energy

>  <rmsd>  (27) 
4.322361321989639

>  <m_score__min__rmsd>  (27) 
4.322361321989639

>  <meeko>  (27) 
{"free_energy": -8.34, "intermolecular_energy": -10.13, "internal_energy": -1.21, "cluster_size": 28, "cluster_id": 1, "rank_in_cluster": 20}

>  <energy>  (27) 
-7.88

>  <cluster_rmsd>  (27) 
1.64

>  <cluster>  (27) 
1

$$$$

     RDKit          3D

 47 49  0  0  0  0  0  0  0  0999 V2000
  140.2990   78.1280  219.4840 C   0  0  0  0  0  0  0  0  0  0  0  0
  140.6650   77.3030  220.7170 C   0  0  2  0  0  0  0  0  0  0  0  0
  141.2420   78.1640  221.7460 C   0  0  0  0  0  0  0  0  0  0  0  0
  141.8340   79.3610  221.3420 C   0  0  0  0  0  0  0  0  0  0  0  0
  142.4050   80.2240  222.2730 C   0  0  0  0  0  0  0  0  0  0  0  0
  142.4040   79.9240  223.6200 C   0  0  0  0  0  0  0  0  0  0  0  0
  141.8190   78.7410  224.0260 C   0  0  0  0  0  0  0  0  0  0  0  0
  141.2610   77.9020  223.0960 C   0  0  0  0  0  0  0  0  0  0  0  0
  141.5120   76.1630  220.3640 N   0  0  0  0  0  0  0  0  0  0  0  0
  142.8100   76.4770  219.8180 C   0  0  0  0  0  0  0  0  0  0  0  0
  140.9900   74.8890  220.6340 C   0  0  0  0  0  0  0  0  0  0  0  0
  141.7920   73.9160  220.2860 O   0  0  0  0  0  0  0  0  0  0  0  0
  139.7390   74.4610  221.2140 C   0  0  0  0  0  0  0  0  0  0  0  0
  139.7500   73.5970  222.3590 N   0  0  0  0  0  0  0  0  0  0  0  0
  140.0320   72.1890  222.2840 C   0  0  0  0  0  0  0  0  0  0  0  0
  140.2830   71.6420  221.1550 O   0  0  0  0  0  0  0  0  0  0  0  0
  140.0310   71.3730  223.5120 C   0  0  0  0  0  0  0  0  0  0  0  0
  139.5470   70.0880  223.4510 C   0  0  0  0  0  0  0  0  0  0  0  0
  139.5680   69.3570  224.6390 C   0  0  0  0  0  0  0  0  0  0  0  0
  140.0470   69.8900  225.8200 C   0  0  0  0  0  0  0  0  0  0  0  0
  140.0820   69.2010  227.0070 C   0  0  0  0  0  0  0  0  0  0  0  0
  140.5850   69.8180  228.1540 C   0  0  0  0  0  0  0  0  0  0  0  0
  141.0550   71.1240  228.1270 C   0  0  0  0  0  0  0  0  0  0  0  0
  141.0190   71.8170  226.9330 C   0  0  0  0  0  0  0  0  0  0  0  0
  140.5200   71.1830  225.8230 C   0  0  0  0  0  0  0  0  0  0  0  0
  140.4940   71.8760  224.6700 N   0  0  0  0  0  0  0  0  0  0  0  0
  139.8718   79.0909  219.8007 H   0  0  0  0  0  0  0  0  0  0  0  0
  141.2018   78.3077  218.8818 H   0  0  0  0  0  0  0  0  0  0  0  0
  139.5599   77.5793  218.8818 H   0  0  0  0  0  0  0  0  0  0  0  0
  139.7504   76.8666  221.1449 H   0  0  0  0  0  0  0  0  0  0  0  0
  141.8497   79.6261  220.2745 H   0  0  0  0  0  0  0  0  0  0  0  0
  142.8653   81.1619  221.9289 H   0  0  0  0  0  0  0  0  0  0  0  0
  142.8574   80.6094  224.3512 H   0  0  0  0  0  0  0  0  0  0  0  0
  141.8006   78.4724  225.0925 H   0  0  0  0  0  0  0  0  0  0  0  0
  140.8027   76.9666  223.4496 H   0  0  0  0  0  0  0  0  0  0  0  0
  143.5214   76.6491  220.6392 H   0  0  0  0  0  0  0  0  0  0  0  0
  143.1603   75.6377  219.1993 H   0  0  0  0  0  0  0  0  0  0  0  0
  142.7380   77.3836  219.1993 H   0  0  0  0  0  0  0  0  0  0  0  0
  139.1934   75.3708  221.5050 H   0  0  0  0  0  0  0  0  0  0  0  0
  139.2882   73.8398  220.4261 H   0  0  0  0  0  0  0  0  0  0  0  0
  139.5490   73.9500  223.3430 H   0  0  0  0  0  0  0  0  0  0  0  0
  139.1630   69.6583  222.5140 H   0  0  0  0  0  0  0  0  0  0  0  0
  139.1912   68.3235  224.6352 H   0  0  0  0  0  0  0  0  0  0  0  0
  139.7146   68.1652  227.0542 H   0  0  0  0  0  0  0  0  0  0  0  0
  140.6094   69.2570  229.0999 H   0  0  0  0  0  0  0  0  0  0  0  0
  141.4483   71.5975  229.0387 H   0  0  0  0  0  0  0  0  0  0  0  0
  141.3821   72.8536  226.8731 H   0  0  0  0  0  0  0  0  0  0  0  0
  1  2  1  0
  2  3  1  0
  3  4  2  0
  4  5  1  0
  5  6  2  0
  6  7  1  0
  7  8  2  0
  2  9  1  0
  9 10  1  0
  9 11  1  0
 11 12  2  0
 11 13  1  0
 13 14  1  0
 14 15  1  0
 15 16  2  0
 15 17  1  0
 17 18  2  0
 18 19  1  0
 19 20  2  0
 20 21  1  0
 21 22  2  0
 22 23  1  0
 23 24  2  0
 24 25  1  0
 25 26  2  0
  8  3  1  0
 26 17  1  0
 25 20  1  0
  1 27  1  0
  1 28  1  0
  1 29  1  0
  2 30  1  1
  4 31  1  0
  5 32  1  0
  6 33  1  0
  7 34  1  0
  8 35  1  0
 10 36  1  0
 10 37  1  0
 10 38  1  0
 13 39  1  0
 13 40  1  0
 14 41  1  0
 18 42  1  0
 19 43  1  0
 21 44  1  0
 22 45  1  0
 23 46  1  0
 24 47  1  0
M  END
>  <smiles>  (28) 
C[C@H](c1ccccc1)N(C)C(=O)CNC(=O)c1ccc2ccccc2n1

>  <score_type>  (28) 
oracle

>  <origin>  (28) 
autodockgpu

>  <m_score__min__energy>  (28) 
-8.9000000000000004

>  <m_primary>  (28) 
energy

>  <rmsd>  (28) 
4.412594885615807

>  <m_score__min__rmsd>  (28) 
4.412594885615807

>  <meeko>  (28) 
{"free_energy": -8.16, "intermolecular_energy": -9.95, "internal_energy": -1.2, "cluster_size": 17, "cluster_id": 2, "rank_in_cluster": 12}

>  <energy>  (28) 
-7.81

>  <cluster_rmsd>  (28) 
1.59

>  <cluster>  (28) 
1

$$$$

     RDKit          3D

 47 49  0  0  0  0  0  0  0  0999 V2000
  138.4460   76.9590  222.1070 C   0  0  0  0  0  0  0  0  0  0  0  0
  139.9550   76.8350  222.3110 C   0  0  2  0  0  0  0  0  0  0  0  0
  140.5140   78.1190  222.7250 C   0  0  0  0  0  0  0  0  0  0  0  0
  139.7500   79.2660  222.5100 C   0  0  0  0  0  0  0  0  0  0  0  0
  140.2280   80.5200  222.8790 C   0  0  0  0  0  0  0  0  0  0  0  0
  141.4680   80.6690  223.4650 C   0  0  0  0  0  0  0  0  0  0  0  0
  142.2300   79.5370  223.6800 C   0  0  0  0  0  0  0  0  0  0  0  0
  141.7440   78.3090  223.3110 C   0  0  0  0  0  0  0  0  0  0  0  0
  140.6080   76.2640  221.1320 N   0  0  0  0  0  0  0  0  0  0  0  0
  141.0550   77.2030  220.1320 C   0  0  0  0  0  0  0  0  0  0  0  0
  140.7670   74.8700  221.1180 C   0  0  0  0  0  0  0  0  0  0  0  0
  141.9730   74.4890  220.7880 O   0  0  0  0  0  0  0  0  0  0  0  0
  139.8480   73.7900  221.3950 C   0  0  0  0  0  0  0  0  0  0  0  0
  139.9030   73.1230  222.6630 N   0  0  0  0  0  0  0  0  0  0  0  0
  140.3390   71.7620  222.8220 C   0  0  0  0  0  0  0  0  0  0  0  0
  140.6980   71.0780  221.8030 O   0  0  0  0  0  0  0  0  0  0  0  0
  140.3730   71.1540  224.1650 C   0  0  0  0  0  0  0  0  0  0  0  0
  140.8750   71.8900  225.2110 C   0  0  0  0  0  0  0  0  0  0  0  0
  140.8860   71.2700  226.4610 C   0  0  0  0  0  0  0  0  0  0  0  0
  140.4190   69.9830  226.6450 C   0  0  0  0  0  0  0  0  0  0  0  0
  140.4140   69.3420  227.8600 C   0  0  0  0  0  0  0  0  0  0  0  0
  139.9210   68.0390  227.9560 C   0  0  0  0  0  0  0  0  0  0  0  0
  139.4310   67.3670  226.8440 C   0  0  0  0  0  0  0  0  0  0  0  0
  139.4360   68.0110  225.6230 C   0  0  0  0  0  0  0  0  0  0  0  0
  139.9260   69.2920  225.5620 C   0  0  0  0  0  0  0  0  0  0  0  0
  139.9210   69.9020  224.3630 N   0  0  0  0  0  0  0  0  0  0  0  0
  137.9458   77.0001  223.0858 H   0  0  0  0  0  0  0  0  0  0  0  0
  138.2264   77.8782  221.5441 H   0  0  0  0  0  0  0  0  0  0  0  0
  138.0793   76.0880  221.5441 H   0  0  0  0  0  0  0  0  0  0  0  0
  140.1528   76.1247  223.1274 H   0  0  0  0  0  0  0  0  0  0  0  0
  138.7578   79.1784  222.0432 H   0  0  0  0  0  0  0  0  0  0  0  0
  139.6054   81.4090  222.7000 H   0  0  0  0  0  0  0  0  0  0  0  0
  141.8402   81.6631  223.7535 H   0  0  0  0  0  0  0  0  0  0  0  0
  143.2231   79.6204  224.1455 H   0  0  0  0  0  0  0  0  0  0  0  0
  142.3735   77.4256  223.4940 H   0  0  0  0  0  0  0  0  0  0  0  0
  141.4776   78.0907  220.6254 H   0  0  0  0  0  0  0  0  0  0  0  0
  141.8251   76.7311  219.5041 H   0  0  0  0  0  0  0  0  0  0  0  0
  140.2032   77.5032  219.5041 H   0  0  0  0  0  0  0  0  0  0  0  0
  138.8324   74.2002  221.2932 H   0  0  0  0  0  0  0  0  0  0  0  0
  140.1447   73.0089  220.6795 H   0  0  0  0  0  0  0  0  0  0  0  0
  139.6210   73.6010  223.5720 H   0  0  0  0  0  0  0  0  0  0  0  0
  141.2489   72.9149  225.0703 H   0  0  0  0  0  0  0  0  0  0  0  0
  141.2788   71.8233  227.3268 H   0  0  0  0  0  0  0  0  0  0  0  0
  140.7974   69.8538  228.7550 H   0  0  0  0  0  0  0  0  0  0  0  0
  139.9208   67.5342  228.9333 H   0  0  0  0  0  0  0  0  0  0  0  0
  139.0460   66.3405  226.9344 H   0  0  0  0  0  0  0  0  0  0  0  0
  139.0564   67.5097  224.7204 H   0  0  0  0  0  0  0  0  0  0  0  0
  1  2  1  0
  2  3  1  0
  3  4  2  0
  4  5  1  0
  5  6  2  0
  6  7  1  0
  7  8  2  0
  2  9  1  0
  9 10  1  0
  9 11  1  0
 11 12  2  0
 11 13  1  0
 13 14  1  0
 14 15  1  0
 15 16  2  0
 15 17  1  0
 17 18  2  0
 18 19  1  0
 19 20  2  0
 20 21  1  0
 21 22  2  0
 22 23  1  0
 23 24  2  0
 24 25  1  0
 25 26  2  0
  8  3  1  0
 26 17  1  0
 25 20  1  0
  1 27  1  0
  1 28  1  0
  1 29  1  0
  2 30  1  1
  4 31  1  0
  5 32  1  0
  6 33  1  0
  7 34  1  0
  8 35  1  0
 10 36  1  0
 10 37  1  0
 10 38  1  0
 13 39  1  0
 13 40  1  0
 14 41  1  0
 18 42  1  0
 19 43  1  0
 21 44  1  0
 22 45  1  0
 23 46  1  0
 24 47  1  0
M  END
>  <smiles>  (29) 
C[C@H](c1ccccc1)N(C)C(=O)CNC(=O)c1ccc2ccccc2n1

>  <score_type>  (29) 
oracle

>  <origin>  (29) 
autodockgpu

>  <m_score__min__energy>  (29) 
-8.9000000000000004

>  <m_primary>  (29) 
energy

>  <rmsd>  (29) 
3.933804960773367

>  <m_score__min__rmsd>  (29) 
3.933804960773367

>  <meeko>  (29) 
{"free_energy": -7.95, "intermolecular_energy": -9.74, "internal_energy": -0.98, "cluster_size": 17, "cluster_id": 2, "rank_in_cluster": 17}

>  <energy>  (29) 
-8.63

>  <cluster_rmsd>  (29) 
0.0

>  <cluster>  (29) 
2

$$$$

     RDKit          3D

 47 49  0  0  0  0  0  0  0  0999 V2000
  138.0970   78.3290  222.6630 C   0  0  0  0  0  0  0  0  0  0  0  0
  139.5380   77.8220  222.6610 C   0  0  2  0  0  0  0  0  0  0  0  0
  140.4590   78.9180  222.9510 C   0  0  0  0  0  0  0  0  0  0  0  0
  141.8270   78.6520  222.9060 C   0  0  0  0  0  0  0  0  0  0  0  0
  142.7570   79.6530  223.1750 C   0  0  0  0  0  0  0  0  0  0  0  0
  142.3560   80.9340  223.4960 C   0  0  0  0  0  0  0  0  0  0  0  0
  141.0020   81.2030  223.5430 C   0  0  0  0  0  0  0  0  0  0  0  0
  140.0990   80.2060  223.2740 C   0  0  0  0  0  0  0  0  0  0  0  0
  139.8510   77.1060  221.4230 N   0  0  0  0  0  0  0  0  0  0  0  0
  139.8540   77.8940  220.2140 C   0  0  0  0  0  0  0  0  0  0  0  0
  140.1550   75.7420  221.5490 C   0  0  0  0  0  0  0  0  0  0  0  0
  141.3820   75.5190  221.9420 O   0  0  0  0  0  0  0  0  0  0  0  0
  139.3700   74.5520  221.3190 C   0  0  0  0  0  0  0  0  0  0  0  0
  139.2830   73.5540  222.3440 N   0  0  0  0  0  0  0  0  0  0  0  0
  140.3380   72.6180  222.6270 C   0  0  0  0  0  0  0  0  0  0  0  0
  141.4200   72.6420  221.9460 O   0  0  0  0  0  0  0  0  0  0  0  0
  140.1710   71.6270  223.7060 C   0  0  0  0  0  0  0  0  0  0  0  0
  139.5440   70.4380  223.4200 C   0  0  0  0  0  0  0  0  0  0  0  0
  139.4100   69.5340  224.4740 C   0  0  0  0  0  0  0  0  0  0  0  0
  139.8810   69.8120  225.7420 C   0  0  0  0  0  0  0  0  0  0  0  0
  139.7670   68.9470  226.8030 C   0  0  0  0  0  0  0  0  0  0  0  0
  140.2730   69.3100  228.0530 C   0  0  0  0  0  0  0  0  0  0  0  0
  140.8940   70.5350  228.2550 C   0  0  0  0  0  0  0  0  0  0  0  0
  141.0080   71.4050  227.1880 C   0  0  0  0  0  0  0  0  0  0  0  0
  140.5020   71.0190  225.9730 C   0  0  0  0  0  0  0  0  0  0  0  0
  140.6240   71.8810  224.9470 N   0  0  0  0  0  0  0  0  0  0  0  0
  137.7524   78.4502  223.7006 H   0  0  0  0  0  0  0  0  0  0  0  0
  138.0486   79.2982  222.1449 H   0  0  0  0  0  0  0  0  0  0  0  0
  137.4524   77.6037  222.1449 H   0  0  0  0  0  0  0  0  0  0  0  0
  139.6614   77.0826  223.4660 H   0  0  0  0  0  0  0  0  0  0  0  0
  142.1758   77.6394  222.6550 H   0  0  0  0  0  0  0  0  0  0  0  0
  143.8308   79.4184  223.1308 H   0  0  0  0  0  0  0  0  0  0  0  0
  143.0953   81.7202  223.7088 H   0  0  0  0  0  0  0  0  0  0  0  0
  140.6488   82.2137  223.7954 H   0  0  0  0  0  0  0  0  0  0  0  0
  139.0273   80.4499  223.3191 H   0  0  0  0  0  0  0  0  0  0  0  0
  139.8581   78.9630  220.4731 H   0  0  0  0  0  0  0  0  0  0  0  0
  140.7512   77.6564  219.6237 H   0  0  0  0  0  0  0  0  0  0  0  0
  138.9550   77.6632  219.6237 H   0  0  0  0  0  0  0  0  0  0  0  0
  138.3426   74.8827  221.1067 H   0  0  0  0  0  0  0  0  0  0  0  0
  139.9078   74.0412  220.5066 H   0  0  0  0  0  0  0  0  0  0  0  0
  138.4250   73.4450  222.9640 H   0  0  0  0  0  0  0  0  0  0  0  0
  139.1672   70.2108  222.4118 H   0  0  0  0  0  0  0  0  0  0  0  0
  138.9138   68.5698  224.2893 H   0  0  0  0  0  0  0  0  0  0  0  0
  139.2783   67.9707  226.6684 H   0  0  0  0  0  0  0  0  0  0  0  0
  140.1774   68.6099  228.8960 H   0  0  0  0  0  0  0  0  0  0  0  0
  141.2876   70.8076  229.2453 H   0  0  0  0  0  0  0  0  0  0  0  0
  141.4933   72.3846  227.3100 H   0  0  0  0  0  0  0  0  0  0  0  0
  1  2  1  0
  2  3  1  0
  3  4  2  0
  4  5  1  0
  5  6  2  0
  6  7  1  0
  7  8  2  0
  2  9  1  0
  9 10  1  0
  9 11  1  0
 11 12  2  0
 11 13  1  0
 13 14  1  0
 14 15  1  0
 15 16  2  0
 15 17  1  0
 17 18  2  0
 18 19  1  0
 19 20  2  0
 20 21  1  0
 21 22  2  0
 22 23  1  0
 23 24  2  0
 24 25  1  0
 25 26  2  0
  8  3  1  0
 26 17  1  0
 25 20  1  0
  1 27  1  0
  1 28  1  0
  1 29  1  0
  2 30  1  1
  4 31  1  0
  5 32  1  0
  6 33  1  0
  7 34  1  0
  8 35  1  0
 10 36  1  0
 10 37  1  0
 10 38  1  0
 13 39  1  0
 13 40  1  0
 14 41  1  0
 18 42  1  0
 19 43  1  0
 21 44  1  0
 22 45  1  0
 23 46  1  0
 24 47  1  0
M  END
>  <smiles>  (30) 
C[C@H](c1ccccc1)N(C)C(=O)CNC(=O)c1ccc2ccccc2n1

>  <score_type>  (30) 
oracle

>  <origin>  (30) 
autodockgpu

>  <m_score__min__energy>  (30) 
-8.9000000000000004

>  <m_primary>  (30) 
energy

>  <rmsd>  (30) 
4.22411918025811

>  <m_score__min__rmsd>  (30) 
4.22411918025811

>  <meeko>  (30) 
{"free_energy": -8.64, "intermolecular_energy": -10.43, "internal_energy": -1.02, "cluster_size": 28, "cluster_id": 1, "rank_in_cluster": 13}

>  <energy>  (30) 
-8.62

>  <cluster_rmsd>  (30) 
0.32

>  <cluster>  (30) 
2

$$$$

     RDKit          3D

 47 49  0  0  0  0  0  0  0  0999 V2000
  138.9780   77.0620  222.5830 C   0  0  0  0  0  0  0  0  0  0  0  0
  140.5040   77.1420  222.5940 C   0  0  2  0  0  0  0  0  0  0  0  0
  140.9350   78.4750  223.0090 C   0  0  0  0  0  0  0  0  0  0  0  0
  140.0000   79.5090  222.9620 C   0  0  0  0  0  0  0  0  0  0  0  0
  140.3490   80.8030  223.3410 C   0  0  0  0  0  0  0  0  0  0  0  0
  141.6240   81.1010  223.7730 C   0  0  0  0  0  0  0  0  0  0  0  0
  142.5540   80.0810  223.8230 C   0  0  0  0  0  0  0  0  0  0  0  0
  142.1950   78.8120  223.4460 C   0  0  0  0  0  0  0  0  0  0  0  0
  141.0710   76.7150  221.3140 N   0  0  0  0  0  0  0  0  0  0  0  0
  141.6160   77.7580  220.4780 C   0  0  0  0  0  0  0  0  0  0  0  0
  141.0630   75.3370  221.0540 C   0  0  0  0  0  0  0  0  0  0  0  0
  142.2310   74.8690  220.7010 O   0  0  0  0  0  0  0  0  0  0  0  0
  140.0080   74.3520  221.1010 C   0  0  0  0  0  0  0  0  0  0  0  0
  139.8520   73.5380  222.2710 N   0  0  0  0  0  0  0  0  0  0  0  0
  140.4200   72.2230  222.4020 C   0  0  0  0  0  0  0  0  0  0  0  0
  141.0990   71.7170  221.4430 O   0  0  0  0  0  0  0  0  0  0  0  0
  140.2180   71.4560  223.6450 C   0  0  0  0  0  0  0  0  0  0  0  0
  139.5360   70.2640  223.5820 C   0  0  0  0  0  0  0  0  0  0  0  0
  139.3720   69.5760  224.7850 C   0  0  0  0  0  0  0  0  0  0  0  0
  139.8660   70.0610  225.9800 C   0  0  0  0  0  0  0  0  0  0  0  0
  139.7230   69.4110  227.1820 C   0  0  0  0  0  0  0  0  0  0  0  0
  140.2560   69.9740  228.3430 C   0  0  0  0  0  0  0  0  0  0  0  0
  140.9320   71.1860  228.3160 C   0  0  0  0  0  0  0  0  0  0  0  0
  141.0760   71.8390  227.1080 C   0  0  0  0  0  0  0  0  0  0  0  0
  140.5420   71.2600  225.9850 C   0  0  0  0  0  0  0  0  0  0  0  0
  140.6930   71.9120  224.8170 N   0  0  0  0  0  0  0  0  0  0  0  0
  138.6044   77.0424  223.6174 H   0  0  0  0  0  0  0  0  0  0  0  0
  138.5685   77.9399  222.0618 H   0  0  0  0  0  0  0  0  0  0  0  0
  138.6626   76.1461  222.0618 H   0  0  0  0  0  0  0  0  0  0  0  0
  140.8978   76.4343  223.3384 H   0  0  0  0  0  0  0  0  0  0  0  0
  138.9751   79.3000  222.6217 H   0  0  0  0  0  0  0  0  0  0  0  0
  139.5939   81.6016  223.2949 H   0  0  0  0  0  0  0  0  0  0  0  0
  141.8937   82.1251  224.0703 H   0  0  0  0  0  0  0  0  0  0  0  0
  143.5795   80.2858  224.1642 H   0  0  0  0  0  0  0  0  0  0  0  0
  142.9568   78.0200  223.4959 H   0  0  0  0  0  0  0  0  0  0  0  0
  142.0326   78.5553  221.1111 H   0  0  0  0  0  0  0  0  0  0  0  0
  142.4114   77.3408  219.8429 H   0  0  0  0  0  0  0  0  0  0  0  0
  140.8193   78.1727  219.8429 H   0  0  0  0  0  0  0  0  0  0  0  0
  139.0602   74.8917  220.9584 H   0  0  0  0  0  0  0  0  0  0  0  0
  140.2941   73.6306  220.3214 H   0  0  0  0  0  0  0  0  0  0  0  0
  139.3010   73.8620  223.1230 H   0  0  0  0  0  0  0  0  0  0  0  0
  139.1403   69.8730  222.6330 H   0  0  0  0  0  0  0  0  0  0  0  0
  138.8324   68.6174  224.7813 H   0  0  0  0  0  0  0  0  0  0  0  0
  139.1901   68.4499  227.2294 H   0  0  0  0  0  0  0  0  0  0  0  0
  140.1376   69.4454  229.3004 H   0  0  0  0  0  0  0  0  0  0  0  0
  141.3451   71.6180  229.2394 H   0  0  0  0  0  0  0  0  0  0  0  0
  141.6064   72.8008  227.0476 H   0  0  0  0  0  0  0  0  0  0  0  0
  1  2  1  0
  2  3  1  0
  3  4  2  0
  4  5  1  0
  5  6  2  0
  6  7  1  0
  7  8  2  0
  2  9  1  0
  9 10  1  0
  9 11  1  0
 11 12  2  0
 11 13  1  0
 13 14  1  0
 14 15  1  0
 15 16  2  0
 15 17  1  0
 17 18  2  0
 18 19  1  0
 19 20  2  0
 20 21  1  0
 21 22  2  0
 22 23  1  0
 23 24  2  0
 24 25  1  0
 25 26  2  0
  8  3  1  0
 26 17  1  0
 25 20  1  0
  1 27  1  0
  1 28  1  0
  1 29  1  0
  2 30  1  1
  4 31  1  0
  5 32  1  0
  6 33  1  0
  7 34  1  0
  8 35  1  0
 10 36  1  0
 10 37  1  0
 10 38  1  0
 13 39  1  0
 13 40  1  0
 14 41  1  0
 18 42  1  0
 19 43  1  0
 21 44  1  0
 22 45  1  0
 23 46  1  0
 24 47  1  0
M  END
>  <smiles>  (31) 
C[C@H](c1ccccc1)N(C)C(=O)CNC(=O)c1ccc2ccccc2n1

>  <score_type>  (31) 
oracle

>  <origin>  (31) 
autodockgpu

>  <m_score__min__energy>  (31) 
-8.9000000000000004

>  <m_primary>  (31) 
energy

>  <rmsd>  (31) 
4.165803533241276

>  <m_score__min__rmsd>  (31) 
4.165803533241276

>  <meeko>  (31) 
{"free_energy": -8.78, "intermolecular_energy": -10.57, "internal_energy": -1.02, "cluster_size": 28, "cluster_id": 1, "rank_in_cluster": 6}

>  <energy>  (31) 
-8.42

>  <cluster_rmsd>  (31) 
0.57

>  <cluster>  (31) 
2

$$$$

     RDKit          3D

 47 49  0  0  0  0  0  0  0  0999 V2000
  143.2830   76.6030  218.4450 C   0  0  0  0  0  0  0  0  0  0  0  0
  142.8390   75.8940  219.7230 C   0  0  2  0  0  0  0  0  0  0  0  0
  143.6300   74.6840  219.9290 C   0  0  0  0  0  0  0  0  0  0  0  0
  143.0980   73.4720  219.4910 C   0  0  0  0  0  0  0  0  0  0  0  0
  143.8020   72.2820  219.6600 C   0  0  0  0  0  0  0  0  0  0  0  0
  145.0410   72.2640  220.2660 C   0  0  0  0  0  0  0  0  0  0  0  0
  145.5730   73.4620  220.7030 C   0  0  0  0  0  0  0  0  0  0  0  0
  144.8670   74.6250  220.5280 C   0  0  0  0  0  0  0  0  0  0  0  0
  141.3940   75.6580  219.7280 N   0  0  0  0  0  0  0  0  0  0  0  0
  140.6880   75.9990  218.5170 C   0  0  0  0  0  0  0  0  0  0  0  0
  140.8580   75.0850  220.8910 C   0  0  0  0  0  0  0  0  0  0  0  0
  141.4280   75.5090  221.9880 O   0  0  0  0  0  0  0  0  0  0  0  0
  139.8050   74.1170  221.0940 C   0  0  0  0  0  0  0  0  0  0  0  0
  139.7900   73.3290  222.2910 N   0  0  0  0  0  0  0  0  0  0  0  0
  140.0670   71.9180  222.3120 C   0  0  0  0  0  0  0  0  0  0  0  0
  140.3370   71.2990  221.2260 O   0  0  0  0  0  0  0  0  0  0  0  0
  140.0400   71.1820  223.5900 C   0  0  0  0  0  0  0  0  0  0  0  0
  139.5530   69.8970  223.6020 C   0  0  0  0  0  0  0  0  0  0  0  0
  139.5480   69.2440  224.8350 C   0  0  0  0  0  0  0  0  0  0  0  0
  140.0060   69.8510  225.9880 C   0  0  0  0  0  0  0  0  0  0  0  0
  140.0160   69.2390  227.2180 C   0  0  0  0  0  0  0  0  0  0  0  0
  140.4980   69.9280  228.3320 C   0  0  0  0  0  0  0  0  0  0  0  0
  140.9720   71.2290  228.2300 C   0  0  0  0  0  0  0  0  0  0  0  0
  140.9620   71.8440  226.9940 C   0  0  0  0  0  0  0  0  0  0  0  0
  140.4830   71.1400  225.9180 C   0  0  0  0  0  0  0  0  0  0  0  0
  140.4820   71.7580  224.7220 N   0  0  0  0  0  0  0  0  0  0  0  0
  143.8501   77.5086  218.7062 H   0  0  0  0  0  0  0  0  0  0  0  0
  143.9205   75.9288  217.8542 H   0  0  0  0  0  0  0  0  0  0  0  0
  142.3981   76.8822  217.8542 H   0  0  0  0  0  0  0  0  0  0  0  0
  143.0316   76.5490  220.5855 H   0  0  0  0  0  0  0  0  0  0  0  0
  142.1107   73.4553  219.0063 H   0  0  0  0  0  0  0  0  0  0  0  0
  143.3617   71.3391  219.3036 H   0  0  0  0  0  0  0  0  0  0  0  0
  145.5911   71.3206  220.3979 H   0  0  0  0  0  0  0  0  0  0  0  0
  146.5593   73.4830  221.1896 H   0  0  0  0  0  0  0  0  0  0  0  0
  145.3152   75.5633  220.8868 H   0  0  0  0  0  0  0  0  0  0  0  0
  139.7247   76.4643  218.7728 H   0  0  0  0  0  0  0  0  0  0  0  0
  141.2912   76.7051  217.9274 H   0  0  0  0  0  0  0  0  0  0  0  0
  140.5099   75.0876  217.9274 H   0  0  0  0  0  0  0  0  0  0  0  0
  138.8536   74.6682  221.0623 H   0  0  0  0  0  0  0  0  0  0  0  0
  139.9796   73.3760  220.3000 H   0  0  0  0  0  0  0  0  0  0  0  0
  139.5720   73.7460  223.2460 H   0  0  0  0  0  0  0  0  0  0  0  0
  139.1862   69.4087  222.6871 H   0  0  0  0  0  0  0  0  0  0  0  0
  139.1674   68.2135  224.8905 H   0  0  0  0  0  0  0  0  0  0  0  0
  139.6452   68.2089  227.3245 H   0  0  0  0  0  0  0  0  0  0  0  0
  140.5024   69.4293  229.3124 H   0  0  0  0  0  0  0  0  0  0  0  0
  141.3483   71.7596  229.1170 H   0  0  0  0  0  0  0  0  0  0  0  0
  141.3293   72.8740  226.8746 H   0  0  0  0  0  0  0  0  0  0  0  0
  1  2  1  0
  2  3  1  0
  3  4  2  0
  4  5  1  0
  5  6  2  0
  6  7  1  0
  7  8  2  0
  2  9  1  0
  9 10  1  0
  9 11  1  0
 11 12  2  0
 11 13  1  0
 13 14  1  0
 14 15  1  0
 15 16  2  0
 15 17  1  0
 17 18  2  0
 18 19  1  0
 19 20  2  0
 20 21  1  0
 21 22  2  0
 22 23  1  0
 23 24  2  0
 24 25  1  0
 25 26  2  0
  8  3  1  0
 26 17  1  0
 25 20  1  0
  1 27  1  0
  1 28  1  0
  1 29  1  0
  2 30  1  1
  4 31  1  0
  5 32  1  0
  6 33  1  0
  7 34  1  0
  8 35  1  0
 10 36  1  0
 10 37  1  0
 10 38  1  0
 13 39  1  0
 13 40  1  0
 14 41  1  0
 18 42  1  0
 19 43  1  0
 21 44  1  0
 22 45  1  0
 23 46  1  0
 24 47  1  0
M  END
>  <smiles>  (32) 
C[C@H](c1ccccc1)N(C)C(=O)CNC(=O)c1ccc2ccccc2n1

>  <score_type>  (32) 
oracle

>  <origin>  (32) 
autodockgpu

>  <m_score__min__energy>  (32) 
-8.9000000000000004

>  <m_primary>  (32) 
energy

>  <rmsd>  (32) 
6.3203500092122

>  <m_score__min__rmsd>  (32) 
6.3203500092122

>  <meeko>  (32) 
{"free_energy": -7.84, "intermolecular_energy": -9.63, "internal_energy": -1.52, "cluster_size": 3, "cluster_id": 3, "rank_in_cluster": 2}

>  <energy>  (32) 
-8.4

>  <cluster_rmsd>  (32) 
1.1

>  <cluster>  (32) 
2

$$$$

     RDKit          3D

 47 49  0  0  0  0  0  0  0  0999 V2000
  138.3000   78.3360  223.0600 C   0  0  0  0  0  0  0  0  0  0  0  0
  139.6030   77.6190  222.7120 C   0  0  2  0  0  0  0  0  0  0  0  0
  140.7210   78.5590  222.7510 C   0  0  0  0  0  0  0  0  0  0  0  0
  141.1010   79.1740  221.5590 C   0  0  0  0  0  0  0  0  0  0  0  0
  142.1600   80.0770  221.5280 C   0  0  0  0  0  0  0  0  0  0  0  0
  142.8650   80.3910  222.6720 C   0  0  0  0  0  0  0  0  0  0  0  0
  142.4930   79.7850  223.8560 C   0  0  0  0  0  0  0  0  0  0  0  0
  141.4470   78.8980  223.8690 C   0  0  0  0  0  0  0  0  0  0  0  0
  139.4930   76.8930  221.4460 N   0  0  0  0  0  0  0  0  0  0  0  0
  138.5770   77.4400  220.4750 C   0  0  0  0  0  0  0  0  0  0  0  0
  140.3190   75.7690  221.2950 C   0  0  0  0  0  0  0  0  0  0  0  0
  141.5920   76.0620  221.2670 O   0  0  0  0  0  0  0  0  0  0  0  0
  140.0200   74.3630  221.1610 C   0  0  0  0  0  0  0  0  0  0  0  0
  139.9250   73.5450  222.3350 N   0  0  0  0  0  0  0  0  0  0  0  0
  140.3110   72.1600  222.3670 C   0  0  0  0  0  0  0  0  0  0  0  0
  140.7610   71.5920  221.3130 O   0  0  0  0  0  0  0  0  0  0  0  0
  140.1890   71.3920  223.6200 C   0  0  0  0  0  0  0  0  0  0  0  0
  139.5890   70.1560  223.5820 C   0  0  0  0  0  0  0  0  0  0  0  0
  139.4970   69.4700  224.7930 C   0  0  0  0  0  0  0  0  0  0  0  0
  139.9810   69.9990  225.9740 C   0  0  0  0  0  0  0  0  0  0  0  0
  139.9090   69.3520  227.1830 C   0  0  0  0  0  0  0  0  0  0  0  0
  140.4250   69.9610  228.3290 C   0  0  0  0  0  0  0  0  0  0  0  0
  141.0160   71.2170  228.2780 C   0  0  0  0  0  0  0  0  0  0  0  0
  141.0890   71.8670  227.0620 C   0  0  0  0  0  0  0  0  0  0  0  0
  140.5740   71.2410  225.9540 C   0  0  0  0  0  0  0  0  0  0  0  0
  140.6550   71.8920  224.7790 N   0  0  0  0  0  0  0  0  0  0  0  0
  138.1942   78.3942  224.1534 H   0  0  0  0  0  0  0  0  0  0  0  0
  138.3167   79.3520  222.6386 H   0  0  0  0  0  0  0  0  0  0  0  0
  137.4507   77.7782  222.6386 H   0  0  0  0  0  0  0  0  0  0  0  0
  139.8062   76.8507  223.4726 H   0  0  0  0  0  0  0  0  0  0  0  0
  140.5571   78.9428  220.6312 H   0  0  0  0  0  0  0  0  0  0  0  0
  142.4399   80.5487  220.5745 H   0  0  0  0  0  0  0  0  0  0  0  0
  143.7012   81.1051  222.6417 H   0  0  0  0  0  0  0  0  0  0  0  0
  143.0342   80.0132  224.7861 H   0  0  0  0  0  0  0  0  0  0  0  0
  141.1734   78.4317  224.8270 H   0  0  0  0  0  0  0  0  0  0  0  0
  137.7449   77.9369  220.9952 H   0  0  0  0  0  0  0  0  0  0  0  0
  139.1043   78.1712  219.8447 H   0  0  0  0  0  0  0  0  0  0  0  0
  138.1834   76.6290  219.8447 H   0  0  0  0  0  0  0  0  0  0  0  0
  139.0533   74.2899  220.6413 H   0  0  0  0  0  0  0  0  0  0  0  0
  140.9000   73.9612  220.6374 H   0  0  0  0  0  0  0  0  0  0  0  0
  139.5590   73.9180  223.2620 H   0  0  0  0  0  0  0  0  0  0  0  0
  139.2014   69.7298  222.6449 H   0  0  0  0  0  0  0  0  0  0  0  0
  139.0243   68.4768  224.8082 H   0  0  0  0  0  0  0  0  0  0  0  0
  139.4460   68.3564  227.2487 H   0  0  0  0  0  0  0  0  0  0  0  0
  140.3620   69.4346  229.2928 H   0  0  0  0  0  0  0  0  0  0  0  0
  141.4181   71.6848  229.1888 H   0  0  0  0  0  0  0  0  0  0  0  0
  141.5490   72.8631  226.9829 H   0  0  0  0  0  0  0  0  0  0  0  0
  1  2  1  0
  2  3  1  0
  3  4  2  0
  4  5  1  0
  5  6  2  0
  6  7  1  0
  7  8  2  0
  2  9  1  0
  9 10  1  0
  9 11  1  0
 11 12  2  0
 11 13  1  0
 13 14  1  0
 14 15  1  0
 15 16  2  0
 15 17  1  0
 17 18  2  0
 18 19  1  0
 19 20  2  0
 20 21  1  0
 21 22  2  0
 22 23  1  0
 23 24  2  0
 24 25  1  0
 25 26  2  0
  8  3  1  0
 26 17  1  0
 25 20  1  0
  1 27  1  0
  1 28  1  0
  1 29  1  0
  2 30  1  1
  4 31  1  0
  5 32  1  0
  6 33  1  0
  7 34  1  0
  8 35  1  0
 10 36  1  0
 10 37  1  0
 10 38  1  0
 13 39  1  0
 13 40  1  0
 14 41  1  0
 18 42  1  0
 19 43  1  0
 21 44  1  0
 22 45  1  0
 23 46  1  0
 24 47  1  0
M  END
>  <smiles>  (33) 
C[C@H](c1ccccc1)N(C)C(=O)CNC(=O)c1ccc2ccccc2n1

>  <score_type>  (33) 
oracle

>  <origin>  (33) 
autodockgpu

>  <m_score__min__energy>  (33) 
-8.9000000000000004

>  <m_primary>  (33) 
energy

>  <rmsd>  (33) 
4.314796227311449

>  <m_score__min__rmsd>  (33) 
4.314796227311449

>  <meeko>  (33) 
{"free_energy": -8.25, "intermolecular_energy": -10.04, "internal_energy": -1.11, "cluster_size": 17, "cluster_id": 2, "rank_in_cluster": 10}

>  <energy>  (33) 
-8.39

>  <cluster_rmsd>  (33) 
0.68

>  <cluster>  (33) 
2

$$$$

     RDKit          3D

 47 49  0  0  0  0  0  0  0  0999 V2000
  138.8280   77.3730  222.4000 C   0  0  0  0  0  0  0  0  0  0  0  0
  140.3540   77.3140  222.4430 C   0  0  2  0  0  0  0  0  0  0  0  0
  140.8980   78.6180  222.8150 C   0  0  0  0  0  0  0  0  0  0  0  0
  140.0370   79.7160  222.7950 C   0  0  0  0  0  0  0  0  0  0  0  0
  140.4950   80.9860  223.1360 C   0  0  0  0  0  0  0  0  0  0  0  0
  141.8080   81.1990  223.5000 C   0  0  0  0  0  0  0  0  0  0  0  0
  142.6650   80.1170  223.5210 C   0  0  0  0  0  0  0  0  0  0  0  0
  142.1990   78.8720  223.1830 C   0  0  0  0  0  0  0  0  0  0  0  0
  140.9040   76.7840  221.1950 N   0  0  0  0  0  0  0  0  0  0  0  0
  141.3470   77.7590  220.2280 C   0  0  0  0  0  0  0  0  0  0  0  0
  140.9830   75.3870  221.0900 C   0  0  0  0  0  0  0  0  0  0  0  0
  142.1960   74.9510  220.8690 O   0  0  0  0  0  0  0  0  0  0  0  0
  139.9770   74.3540  221.1740 C   0  0  0  0  0  0  0  0  0  0  0  0
  139.9070   73.5300  222.3450 N   0  0  0  0  0  0  0  0  0  0  0  0
  140.2800   72.1410  222.3570 C   0  0  0  0  0  0  0  0  0  0  0  0
  140.6930   71.5760  221.2870 O   0  0  0  0  0  0  0  0  0  0  0  0
  140.1860   71.3660  223.6090 C   0  0  0  0  0  0  0  0  0  0  0  0
  139.6380   70.1060  223.5650 C   0  0  0  0  0  0  0  0  0  0  0  0
  139.5710   69.4140  224.7750 C   0  0  0  0  0  0  0  0  0  0  0  0
  140.0290   69.9600  225.9580 C   0  0  0  0  0  0  0  0  0  0  0  0
  139.9790   69.3080  227.1670 C   0  0  0  0  0  0  0  0  0  0  0  0
  140.4660   69.9360  228.3150 C   0  0  0  0  0  0  0  0  0  0  0  0
  141.0040   71.2150  228.2680 C   0  0  0  0  0  0  0  0  0  0  0  0
  141.0540   71.8700  227.0540 C   0  0  0  0  0  0  0  0  0  0  0  0
  140.5690   71.2260  225.9440 C   0  0  0  0  0  0  0  0  0  0  0  0
  140.6270   71.8820  224.7700 N   0  0  0  0  0  0  0  0  0  0  0  0
  138.4326   77.3883  223.4264 H   0  0  0  0  0  0  0  0  0  0  0  0
  138.5110   78.2841  221.8713 H   0  0  0  0  0  0  0  0  0  0  0  0
  138.4416   76.4891  221.8713 H   0  0  0  0  0  0  0  0  0  0  0  0
  140.6664   76.6050  223.2238 H   0  0  0  0  0  0  0  0  0  0  0  0
  138.9847   79.5767  222.5066 H   0  0  0  0  0  0  0  0  0  0  0  0
  139.7963   81.8354  223.1146 H   0  0  0  0  0  0  0  0  0  0  0  0
  142.1633   82.2053  223.7668 H   0  0  0  0  0  0  0  0  0  0  0  0
  143.7182   80.2528  223.8079 H   0  0  0  0  0  0  0  0  0  0  0  0
  142.9054   78.0291  223.2076 H   0  0  0  0  0  0  0  0  0  0  0  0
  141.7471   78.6396  220.7520 H   0  0  0  0  0  0  0  0  0  0  0  0
  142.1335   77.3189  219.5974 H   0  0  0  0  0  0  0  0  0  0  0  0
  140.4981   78.0619  219.5974 H   0  0  0  0  0  0  0  0  0  0  0  0
  139.0003   74.8497  221.0728 H   0  0  0  0  0  0  0  0  0  0  0  0
  140.2634   73.6494  220.3793 H   0  0  0  0  0  0  0  0  0  0  0  0
  139.5720   73.9010  223.2850 H   0  0  0  0  0  0  0  0  0  0  0  0
  139.2716   69.6664  222.6256 H   0  0  0  0  0  0  0  0  0  0  0  0
  139.1399   68.4021  224.7869 H   0  0  0  0  0  0  0  0  0  0  0  0
  139.5565   68.2943  227.2299 H   0  0  0  0  0  0  0  0  0  0  0  0
  140.4225   69.4058  229.2778 H   0  0  0  0  0  0  0  0  0  0  0  0
  141.3833   71.6973  229.1810 H   0  0  0  0  0  0  0  0  0  0  0  0
  141.4728   72.8843  226.9784 H   0  0  0  0  0  0  0  0  0  0  0  0
  1  2  1  0
  2  3  1  0
  3  4  2  0
  4  5  1  0
  5  6  2  0
  6  7  1  0
  7  8  2  0
  2  9  1  0
  9 10  1  0
  9 11  1  0
 11 12  2  0
 11 13  1  0
 13 14  1  0
 14 15  1  0
 15 16  2  0
 15 17  1  0
 17 18  2  0
 18 19  1  0
 19 20  2  0
 20 21  1  0
 21 22  2  0
 22 23  1  0
 23 24  2  0
 24 25  1  0
 25 26  2  0
  8  3  1  0
 26 17  1  0
 25 20  1  0
  1 27  1  0
  1 28  1  0
  1 29  1  0
  2 30  1  1
  4 31  1  0
  5 32  1  0
  6 33  1  0
  7 34  1  0
  8 35  1  0
 10 36  1  0
 10 37  1  0
 10 38  1  0
 13 39  1  0
 13 40  1  0
 14 41  1  0
 18 42  1  0
 19 43  1  0
 21 44  1  0
 22 45  1  0
 23 46  1  0
 24 47  1  0
M  END
>  <smiles>  (34) 
C[C@H](c1ccccc1)N(C)C(=O)CNC(=O)c1ccc2ccccc2n1

>  <score_type>  (34) 
oracle

>  <origin>  (34) 
autodockgpu

>  <m_score__min__energy>  (34) 
-8.9000000000000004

>  <m_primary>  (34) 
energy

>  <rmsd>  (34) 
4.120003667947415

>  <m_score__min__rmsd>  (34) 
4.120003667947415

>  <meeko>  (34) 
{"free_energy": -8.71, "intermolecular_energy": -10.5, "internal_energy": -1.11, "cluster_size": 28, "cluster_id": 1, "rank_in_cluster": 10}

>  <energy>  (34) 
-8.38

>  <cluster_rmsd>  (34) 
0.58

>  <cluster>  (34) 
2

$$$$

     RDKit          3D

 47 49  0  0  0  0  0  0  0  0999 V2000
  138.5200   78.1050  222.0260 C   0  0  0  0  0  0  0  0  0  0  0  0
  139.9610   77.7050  222.3360 C   0  0  2  0  0  0  0  0  0  0  0  0
  140.7330   78.8770  222.7410 C   0  0  0  0  0  0  0  0  0  0  0  0
  140.2560   80.1350  222.3740 C   0  0  0  0  0  0  0  0  0  0  0  0
  140.9470   81.2910  222.7260 C   0  0  0  0  0  0  0  0  0  0  0  0
  142.1220   81.2290  223.4460 C   0  0  0  0  0  0  0  0  0  0  0  0
  142.6000   79.9870  223.8130 C   0  0  0  0  0  0  0  0  0  0  0  0
  141.9070   78.8580  223.4590 C   0  0  0  0  0  0  0  0  0  0  0  0
  140.5600   76.9640  221.2250 N   0  0  0  0  0  0  0  0  0  0  0  0
  141.0710   77.7550  220.1320 C   0  0  0  0  0  0  0  0  0  0  0  0
  140.6120   75.5680  221.3600 C   0  0  0  0  0  0  0  0  0  0  0  0
  141.8170   75.1150  221.5860 O   0  0  0  0  0  0  0  0  0  0  0  0
  139.5890   74.5530  221.2890 C   0  0  0  0  0  0  0  0  0  0  0  0
  139.4660   73.5980  222.3510 N   0  0  0  0  0  0  0  0  0  0  0  0
  140.3990   72.5230  222.5600 C   0  0  0  0  0  0  0  0  0  0  0  0
  141.3970   72.3750  221.7750 O   0  0  0  0  0  0  0  0  0  0  0  0
  140.2030   71.5890  223.6840 C   0  0  0  0  0  0  0  0  0  0  0  0
  139.5320   70.4110  223.4560 C   0  0  0  0  0  0  0  0  0  0  0  0
  139.3730   69.5620  224.5510 C   0  0  0  0  0  0  0  0  0  0  0  0
  139.8620   69.8800  225.8030 C   0  0  0  0  0  0  0  0  0  0  0  0
  139.7240   69.0680  226.9020 C   0  0  0  0  0  0  0  0  0  0  0  0
  140.2510   69.4690  228.1310 C   0  0  0  0  0  0  0  0  0  0  0  0
  140.9170   70.6790  228.2740 C   0  0  0  0  0  0  0  0  0  0  0  0
  141.0550   71.4950  227.1690 C   0  0  0  0  0  0  0  0  0  0  0  0
  140.5270   71.0720  225.9750 C   0  0  0  0  0  0  0  0  0  0  0  0
  140.6730   71.8820  224.9100 N   0  0  0  0  0  0  0  0  0  0  0  0
  137.9712   78.2573  222.9671 H   0  0  0  0  0  0  0  0  0  0  0  0
  138.5157   79.0383  221.4438 H   0  0  0  0  0  0  0  0  0  0  0  0
  138.0352   77.3075  221.4438 H   0  0  0  0  0  0  0  0  0  0  0  0
  139.9681   77.0102  223.1887 H   0  0  0  0  0  0  0  0  0  0  0  0
  139.3217   80.2148  221.7989 H   0  0  0  0  0  0  0  0  0  0  0  0
  140.5491   82.2712  222.4247 H   0  0  0  0  0  0  0  0  0  0  0  0
  142.6642   82.1458  223.7207 H   0  0  0  0  0  0  0  0  0  0  0  0
  143.5342   79.9033  224.3878 H   0  0  0  0  0  0  0  0  0  0  0  0
  142.3121   77.8825  223.7661 H   0  0  0  0  0  0  0  0  0  0  0  0
  141.6272   78.6160  220.5312 H   0  0  0  0  0  0  0  0  0  0  0  0
  141.7421   77.1387  219.5157 H   0  0  0  0  0  0  0  0  0  0  0  0
  140.2333   78.1134  219.5157 H   0  0  0  0  0  0  0  0  0  0  0  0
  138.6241   75.0761  221.2160 H   0  0  0  0  0  0  0  0  0  0  0  0
  139.8918   73.9416  220.4262 H   0  0  0  0  0  0  0  0  0  0  0  0
  138.6690   73.6280  223.0570 H   0  0  0  0  0  0  0  0  0  0  0  0
  139.1407   70.1514  222.4613 H   0  0  0  0  0  0  0  0  0  0  0  0
  138.8413   68.6089  224.4132 H   0  0  0  0  0  0  0  0  0  0  0  0
  139.1999   68.1049  226.8141 H   0  0  0  0  0  0  0  0  0  0  0  0
  140.1361   68.8118  229.0056 H   0  0  0  0  0  0  0  0  0  0  0  0
  141.3268   70.9815  229.2490 H   0  0  0  0  0  0  0  0  0  0  0  0
  141.5757   72.4611  227.2438 H   0  0  0  0  0  0  0  0  0  0  0  0
  1  2  1  0
  2  3  1  0
  3  4  2  0
  4  5  1  0
  5  6  2  0
  6  7  1  0
  7  8  2  0
  2  9  1  0
  9 10  1  0
  9 11  1  0
 11 12  2  0
 11 13  1  0
 13 14  1  0
 14 15  1  0
 15 16  2  0
 15 17  1  0
 17 18  2  0
 18 19  1  0
 19 20  2  0
 20 21  1  0
 21 22  2  0
 22 23  1  0
 23 24  2  0
 24 25  1  0
 25 26  2  0
  8  3  1  0
 26 17  1  0
 25 20  1  0
  1 27  1  0
  1 28  1  0
  1 29  1  0
  2 30  1  1
  4 31  1  0
  5 32  1  0
  6 33  1  0
  7 34  1  0
  8 35  1  0
 10 36  1  0
 10 37  1  0
 10 38  1  0
 13 39  1  0
 13 40  1  0
 14 41  1  0
 18 42  1  0
 19 43  1  0
 21 44  1  0
 22 45  1  0
 23 46  1  0
 24 47  1  0
M  END
>  <smiles>  (35) 
C[C@H](c1ccccc1)N(C)C(=O)CNC(=O)c1ccc2ccccc2n1

>  <score_type>  (35) 
oracle

>  <origin>  (35) 
autodockgpu

>  <m_score__min__energy>  (35) 
-8.9000000000000004

>  <m_primary>  (35) 
energy

>  <rmsd>  (35) 
4.107035479301962

>  <m_score__min__rmsd>  (35) 
4.107035479301962

>  <meeko>  (35) 
{"free_energy": -8.64, "intermolecular_energy": -10.43, "internal_energy": -1.0, "cluster_size": 28, "cluster_id": 1, "rank_in_cluster": 14}

>  <energy>  (35) 
-8.35

>  <cluster_rmsd>  (35) 
0.56

>  <cluster>  (35) 
2

$$$$

     RDKit          3D

 47 49  0  0  0  0  0  0  0  0999 V2000
  141.0950   78.9130  219.3210 C   0  0  0  0  0  0  0  0  0  0  0  0
  140.8380   78.1750  220.6330 C   0  0  2  0  0  0  0  0  0  0  0  0
  141.2870   78.9850  221.7630 C   0  0  0  0  0  0  0  0  0  0  0  0
  140.3390   79.3710  222.7100 C   0  0  0  0  0  0  0  0  0  0  0  0
  140.7030   80.1460  223.8080 C   0  0  0  0  0  0  0  0  0  0  0  0
  142.0070   80.5560  223.9930 C   0  0  0  0  0  0  0  0  0  0  0  0
  142.9500   80.1770  223.0580 C   0  0  0  0  0  0  0  0  0  0  0  0
  142.5760   79.4130  221.9830 C   0  0  0  0  0  0  0  0  0  0  0  0
  141.4130   76.8300  220.6110 N   0  0  0  0  0  0  0  0  0  0  0  0
  142.5510   76.6360  219.7450 C   0  0  0  0  0  0  0  0  0  0  0  0
  140.8260   75.8840  221.4660 C   0  0  0  0  0  0  0  0  0  0  0  0
  140.7200   76.2970  222.7010 O   0  0  0  0  0  0  0  0  0  0  0  0
  140.3280   74.5490  221.2310 C   0  0  0  0  0  0  0  0  0  0  0  0
  140.0870   73.6790  222.3440 N   0  0  0  0  0  0  0  0  0  0  0  0
  140.5920   72.3340  222.4200 C   0  0  0  0  0  0  0  0  0  0  0  0
  141.2880   71.8530  221.4610 O   0  0  0  0  0  0  0  0  0  0  0  0
  140.3050   71.5070  223.6070 C   0  0  0  0  0  0  0  0  0  0  0  0
  139.5920   70.3430  223.4440 C   0  0  0  0  0  0  0  0  0  0  0  0
  139.3470   69.5970  224.5970 C   0  0  0  0  0  0  0  0  0  0  0  0
  139.7940   70.0000  225.8410 C   0  0  0  0  0  0  0  0  0  0  0  0
  139.5710   69.2910  226.9960 C   0  0  0  0  0  0  0  0  0  0  0  0
  140.0610   69.7720  228.2110 C   0  0  0  0  0  0  0  0  0  0  0  0
  140.7730   70.9620  228.2850 C   0  0  0  0  0  0  0  0  0  0  0  0
  140.9970   71.6740  227.1240 C   0  0  0  0  0  0  0  0  0  0  0  0
  140.5040   71.1740  225.9450 C   0  0  0  0  0  0  0  0  0  0  0  0
  140.7330   71.8840  224.8250 N   0  0  0  0  0  0  0  0  0  0  0  0
  141.4497   79.9316  219.5367 H   0  0  0  0  0  0  0  0  0  0  0  0
  141.8584   78.3741  218.7406 H   0  0  0  0  0  0  0  0  0  0  0  0
  140.1620   78.9649  218.7406 H   0  0  0  0  0  0  0  0  0  0  0  0
  139.7552   78.0276  220.7586 H   0  0  0  0  0  0  0  0  0  0  0  0
  139.2911   79.0595  222.5881 H   0  0  0  0  0  0  0  0  0  0  0  0
  139.9365   80.4367  224.5415 H   0  0  0  0  0  0  0  0  0  0  0  0
  142.2883   81.1686  224.8622 H   0  0  0  0  0  0  0  0  0  0  0  0
  143.9987   80.4874  223.1756 H   0  0  0  0  0  0  0  0  0  0  0  0
  143.3497   79.1261  221.2556 H   0  0  0  0  0  0  0  0  0  0  0  0
  143.4536   76.4821  220.3546 H   0  0  0  0  0  0  0  0  0  0  0  0
  142.3825   75.7536  219.1102 H   0  0  0  0  0  0  0  0  0  0  0  0
  142.6843   77.5244  219.1102 H   0  0  0  0  0  0  0  0  0  0  0  0
  139.3735   74.6536  220.6943 H   0  0  0  0  0  0  0  0  0  0  0  0
  141.1518   74.0573  220.6928 H   0  0  0  0  0  0  0  0  0  0  0  0
  139.5150   73.9790  223.1910 H   0  0  0  0  0  0  0  0  0  0  0  0
  139.2336   70.0170  222.4564 H   0  0  0  0  0  0  0  0  0  0  0  0
  138.7800   68.6581  224.5133 H   0  0  0  0  0  0  0  0  0  0  0  0
  139.0078   68.3467  226.9635 H   0  0  0  0  0  0  0  0  0  0  0  0
  139.8793   69.1959  229.1302 H   0  0  0  0  0  0  0  0  0  0  0  0
  141.1511   71.3300  229.2502 H   0  0  0  0  0  0  0  0  0  0  0  0
  141.5576   72.6202  227.1433 H   0  0  0  0  0  0  0  0  0  0  0  0
  1  2  1  0
  2  3  1  0
  3  4  2  0
  4  5  1  0
  5  6  2  0
  6  7  1  0
  7  8  2  0
  2  9  1  0
  9 10  1  0
  9 11  1  0
 11 12  2  0
 11 13  1  0
 13 14  1  0
 14 15  1  0
 15 16  2  0
 15 17  1  0
 17 18  2  0
 18 19  1  0
 19 20  2  0
 20 21  1  0
 21 22  2  0
 22 23  1  0
 23 24  2  0
 24 25  1  0
 25 26  2  0
  8  3  1  0
 26 17  1  0
 25 20  1  0
  1 27  1  0
  1 28  1  0
  1 29  1  0
  2 30  1  1
  4 31  1  0
  5 32  1  0
  6 33  1  0
  7 34  1  0
  8 35  1  0
 10 36  1  0
 10 37  1  0
 10 38  1  0
 13 39  1  0
 13 40  1  0
 14 41  1  0
 18 42  1  0
 19 43  1  0
 21 44  1  0
 22 45  1  0
 23 46  1  0
 24 47  1  0
M  END
>  <smiles>  (36) 
C[C@H](c1ccccc1)N(C)C(=O)CNC(=O)c1ccc2ccccc2n1

>  <score_type>  (36) 
oracle

>  <origin>  (36) 
autodockgpu

>  <m_score__min__energy>  (36) 
-8.9000000000000004

>  <m_primary>  (36) 
energy

>  <rmsd>  (36) 
3.944330143756997

>  <m_score__min__rmsd>  (36) 
3.944330143756997

>  <meeko>  (36) 
{"free_energy": -8.35, "intermolecular_energy": -10.14, "internal_energy": -1.21, "cluster_size": 17, "cluster_id": 2, "rank_in_cluster": 7}

>  <energy>  (36) 
-8.31

>  <cluster_rmsd>  (36) 
0.55

>  <cluster>  (36) 
2

$$$$

     RDKit          3D

 47 49  0  0  0  0  0  0  0  0999 V2000
  140.8040   78.1310  219.3220 C   0  0  0  0  0  0  0  0  0  0  0  0
  140.4650   77.5110  220.6770 C   0  0  2  0  0  0  0  0  0  0  0  0
  140.9010   78.3930  221.7570 C   0  0  0  0  0  0  0  0  0  0  0  0
  142.1820   78.9400  221.6790 C   0  0  0  0  0  0  0  0  0  0  0  0
  142.6580   79.7850  222.6780 C   0  0  0  0  0  0  0  0  0  0  0  0
  141.8820   80.1050  223.7730 C   0  0  0  0  0  0  0  0  0  0  0  0
  140.6130   79.5670  223.8560 C   0  0  0  0  0  0  0  0  0  0  0  0
  140.1590   78.7360  222.8630 C   0  0  0  0  0  0  0  0  0  0  0  0
  140.9870   76.1480  220.7860 N   0  0  0  0  0  0  0  0  0  0  0  0
  142.2210   75.8790  220.0880 C   0  0  0  0  0  0  0  0  0  0  0  0
  140.2560   75.2610  221.5910 C   0  0  0  0  0  0  0  0  0  0  0  0
  139.8060   75.8090  222.6890 O   0  0  0  0  0  0  0  0  0  0  0  0
  139.9190   73.8660  221.4300 C   0  0  0  0  0  0  0  0  0  0  0  0
  139.8980   73.0080  222.5780 N   0  0  0  0  0  0  0  0  0  0  0  0
  139.8240   71.5740  222.4910 C   0  0  0  0  0  0  0  0  0  0  0  0
  139.7650   71.0000  221.3500 O   0  0  0  0  0  0  0  0  0  0  0  0
  139.8150   70.7630  223.7230 C   0  0  0  0  0  0  0  0  0  0  0  0
  139.3100   69.4860  223.6690 C   0  0  0  0  0  0  0  0  0  0  0  0
  139.3230   68.7600  224.8610 C   0  0  0  0  0  0  0  0  0  0  0  0
  139.8170   69.2890  226.0370 C   0  0  0  0  0  0  0  0  0  0  0  0
  139.8470   68.6040  227.2270 C   0  0  0  0  0  0  0  0  0  0  0  0
  140.3660   69.2170  228.3690 C   0  0  0  0  0  0  0  0  0  0  0  0
  140.8570   70.5160  228.3340 C   0  0  0  0  0  0  0  0  0  0  0  0
  140.8270   71.2050  227.1370 C   0  0  0  0  0  0  0  0  0  0  0  0
  140.3120   70.5740  226.0330 C   0  0  0  0  0  0  0  0  0  0  0  0
  140.2920   71.2630  224.8770 N   0  0  0  0  0  0  0  0  0  0  0  0
  141.3265   79.0866  219.4764 H   0  0  0  0  0  0  0  0  0  0  0  0
  141.4528   77.4455  218.7571 H   0  0  0  0  0  0  0  0  0  0  0  0
  139.8767   78.3072  218.7571 H   0  0  0  0  0  0  0  0  0  0  0  0
  139.3731   77.4137  220.7679 H   0  0  0  0  0  0  0  0  0  0  0  0
  142.8236   78.7009  220.8181 H   0  0  0  0  0  0  0  0  0  0  0  0
  143.6711   80.2051  222.5927 H   0  0  0  0  0  0  0  0  0  0  0  0
  142.2645   80.7717  224.5599 H   0  0  0  0  0  0  0  0  0  0  0  0
  139.9683   79.8038  224.7152 H   0  0  0  0  0  0  0  0  0  0  0  0
  139.1447   78.3209  222.9568 H   0  0  0  0  0  0  0  0  0  0  0  0
  143.0247   75.7038  220.8183 H   0  0  0  0  0  0  0  0  0  0  0  0
  142.0982   74.9865  219.4568 H   0  0  0  0  0  0  0  0  0  0  0  0
  142.4808   76.7416  219.4568 H   0  0  0  0  0  0  0  0  0  0  0  0
  138.9140   73.8290  220.9844 H   0  0  0  0  0  0  0  0  0  0  0  0
  140.7473   73.4682  220.8253 H   0  0  0  0  0  0  0  0  0  0  0  0
  139.9370   73.3840  223.5730 H   0  0  0  0  0  0  0  0  0  0  0  0
  138.9161   69.0584  222.7352 H   0  0  0  0  0  0  0  0  0  0  0  0
  138.9271   67.7337  224.8637 H   0  0  0  0  0  0  0  0  0  0  0  0
  139.4629   67.5746  227.2803 H   0  0  0  0  0  0  0  0  0  0  0  0
  140.3865   68.6593  229.3169 H   0  0  0  0  0  0  0  0  0  0  0  0
  141.2619   70.9869  229.2419 H   0  0  0  0  0  0  0  0  0  0  0  0
  141.2070   72.2351  227.0706 H   0  0  0  0  0  0  0  0  0  0  0  0
  1  2  1  0
  2  3  1  0
  3  4  2  0
  4  5  1  0
  5  6  2  0
  6  7  1  0
  7  8  2  0
  2  9  1  0
  9 10  1  0
  9 11  1  0
 11 12  2  0
 11 13  1  0
 13 14  1  0
 14 15  1  0
 15 16  2  0
 15 17  1  0
 17 18  2  0
 18 19  1  0
 19 20  2  0
 20 21  1  0
 21 22  2  0
 22 23  1  0
 23 24  2  0
 24 25  1  0
 25 26  2  0
  8  3  1  0
 26 17  1  0
 25 20  1  0
  1 27  1  0
  1 28  1  0
  1 29  1  0
  2 30  1  6
  4 31  1  0
  5 32  1  0
  6 33  1  0
  7 34  1  0
  8 35  1  0
 10 36  1  0
 10 37  1  0
 10 38  1  0
 13 39  1  0
 13 40  1  0
 14 41  1  0
 18 42  1  0
 19 43  1  0
 21 44  1  0
 22 45  1  0
 23 46  1  0
 24 47  1  0
M  END
>  <smiles>  (37) 
C[C@H](c1ccccc1)N(C)C(=O)CNC(=O)c1ccc2ccccc2n1

>  <score_type>  (37) 
oracle

>  <origin>  (37) 
autodockgpu

>  <m_score__min__energy>  (37) 
-8.9000000000000004

>  <m_primary>  (37) 
energy

>  <rmsd>  (37) 
4.384693020200484

>  <m_score__min__rmsd>  (37) 
4.384693020200484

>  <meeko>  (37) 
{"free_energy": -8.14, "intermolecular_energy": -9.93, "internal_energy": -1.43, "cluster_size": 17, "cluster_id": 2, "rank_in_cluster": 13}

>  <energy>  (37) 
-8.25

>  <cluster_rmsd>  (37) 
0.51

>  <cluster>  (37) 
2

$$$$

     RDKit          3D

 47 49  0  0  0  0  0  0  0  0999 V2000
  137.7820   78.0620  221.9900 C   0  0  0  0  0  0  0  0  0  0  0  0
  139.1080   77.3730  222.3070 C   0  0  2  0  0  0  0  0  0  0  0  0
  140.1190   78.3660  222.6620 C   0  0  0  0  0  0  0  0  0  0  0  0
  139.7230   79.4520  223.4420 C   0  0  0  0  0  0  0  0  0  0  0  0
  140.6370   80.4350  223.8120 C   0  0  0  0  0  0  0  0  0  0  0  0
  141.9580   80.3660  223.4200 C   0  0  0  0  0  0  0  0  0  0  0  0
  142.3560   79.2930  222.6480 C   0  0  0  0  0  0  0  0  0  0  0  0
  141.4430   78.3330  222.2920 C   0  0  0  0  0  0  0  0  0  0  0  0
  139.5190   76.4810  221.2220 N   0  0  0  0  0  0  0  0  0  0  0  0
  139.4220   77.0150  219.8850 C   0  0  0  0  0  0  0  0  0  0  0  0
  140.0040   75.2190  221.5990 C   0  0  0  0  0  0  0  0  0  0  0  0
  141.2280   75.2500  222.0550 O   0  0  0  0  0  0  0  0  0  0  0  0
  139.4040   73.9060  221.5700 C   0  0  0  0  0  0  0  0  0  0  0  0
  139.5650   73.0300  222.6930 N   0  0  0  0  0  0  0  0  0  0  0  0
  139.4060   71.6030  222.6120 C   0  0  0  0  0  0  0  0  0  0  0  0
  139.0990   71.0520  221.4990 O   0  0  0  0  0  0  0  0  0  0  0  0
  139.5990   70.7730  223.8150 C   0  0  0  0  0  0  0  0  0  0  0  0
  139.2320   69.4490  223.7700 C   0  0  0  0  0  0  0  0  0  0  0  0
  139.4330   68.7060  224.9330 C   0  0  0  0  0  0  0  0  0  0  0  0
  139.9730   69.2650  226.0760 C   0  0  0  0  0  0  0  0  0  0  0  0
  140.1860   68.5640  227.2380 C   0  0  0  0  0  0  0  0  0  0  0  0
  140.7380   69.2090  228.3460 C   0  0  0  0  0  0  0  0  0  0  0  0
  141.0800   70.5540  228.3060 C   0  0  0  0  0  0  0  0  0  0  0  0
  140.8660   71.2580  227.1370 C   0  0  0  0  0  0  0  0  0  0  0  0
  140.3230   70.5960  226.0650 C   0  0  0  0  0  0  0  0  0  0  0  0
  140.1230   71.3000  224.9360 N   0  0  0  0  0  0  0  0  0  0  0  0
  137.2727   78.3266  222.9284 H   0  0  0  0  0  0  0  0  0  0  0  0
  137.9733   78.9747  221.4067 H   0  0  0  0  0  0  0  0  0  0  0  0
  137.1451   77.3808  221.4067 H   0  0  0  0  0  0  0  0  0  0  0  0
  138.9775   76.7242  223.1856 H   0  0  0  0  0  0  0  0  0  0  0  0
  138.6758   79.5330  223.7689 H   0  0  0  0  0  0  0  0  0  0  0  0
  140.2998   81.2818  224.4279 H   0  0  0  0  0  0  0  0  0  0  0  0
  142.6755   81.1458  223.7150 H   0  0  0  0  0  0  0  0  0  0  0  0
  143.4023   79.2080  222.3192 H   0  0  0  0  0  0  0  0  0  0  0  0
  141.7893   77.4898  221.6763 H   0  0  0  0  0  0  0  0  0  0  0  0
  139.2256   78.0962  219.9353 H   0  0  0  0  0  0  0  0  0  0  0  0
  140.3669   76.8385  219.3502 H   0  0  0  0  0  0  0  0  0  0  0  0
  138.5995   76.5174  219.3502 H   0  0  0  0  0  0  0  0  0  0  0  0
  138.3226   74.0517  221.4307 H   0  0  0  0  0  0  0  0  0  0  0  0
  139.9468   73.3925  220.7628 H   0  0  0  0  0  0  0  0  0  0  0  0
  139.8150   73.3870  223.6650 H   0  0  0  0  0  0  0  0  0  0  0  0
  138.8019   68.9987  222.8632 H   0  0  0  0  0  0  0  0  0  0  0  0
  139.1531   67.6422  224.9409 H   0  0  0  0  0  0  0  0  0  0  0  0
  139.9224   67.4976  227.2952 H   0  0  0  0  0  0  0  0  0  0  0  0
  140.9058   68.6389  229.2716 H   0  0  0  0  0  0  0  0  0  0  0  0
  141.5128   71.0492  229.1878 H   0  0  0  0  0  0  0  0  0  0  0  0
  141.1250   72.3248  227.0672 H   0  0  0  0  0  0  0  0  0  0  0  0
  1  2  1  0
  2  3  1  0
  3  4  2  0
  4  5  1  0
  5  6  2  0
  6  7  1  0
  7  8  2  0
  2  9  1  0
  9 10  1  0
  9 11  1  0
 11 12  2  0
 11 13  1  0
 13 14  1  0
 14 15  1  0
 15 16  2  0
 15 17  1  0
 17 18  2  0
 18 19  1  0
 19 20  2  0
 20 21  1  0
 21 22  2  0
 22 23  1  0
 23 24  2  0
 24 25  1  0
 25 26  2  0
  8  3  1  0
 26 17  1  0
 25 20  1  0
  1 27  1  0
  1 28  1  0
  1 29  1  0
  2 30  1  1
  4 31  1  0
  5 32  1  0
  6 33  1  0
  7 34  1  0
  8 35  1  0
 10 36  1  0
 10 37  1  0
 10 38  1  0
 13 39  1  0
 13 40  1  0
 14 41  1  0
 18 42  1  0
 19 43  1  0
 21 44  1  0
 22 45  1  0
 23 46  1  0
 24 47  1  0
M  END
>  <smiles>  (38) 
C[C@H](c1ccccc1)N(C)C(=O)CNC(=O)c1ccc2ccccc2n1

>  <score_type>  (38) 
oracle

>  <origin>  (38) 
autodockgpu

>  <m_score__min__energy>  (38) 
-8.9000000000000004

>  <m_primary>  (38) 
energy

>  <rmsd>  (38) 
4.333550684602649

>  <m_score__min__rmsd>  (38) 
4.333550684602649

>  <meeko>  (38) 
{"free_energy": -8.04, "intermolecular_energy": -9.83, "internal_energy": -1.38, "cluster_size": 17, "cluster_id": 2, "rank_in_cluster": 16}

>  <energy>  (38) 
-8.25

>  <cluster_rmsd>  (38) 
1.06

>  <cluster>  (38) 
2

$$$$

     RDKit          3D

 47 49  0  0  0  0  0  0  0  0999 V2000
  138.7830   69.0980  224.2320 C   0  0  0  0  0  0  0  0  0  0  0  0
  139.6310   70.3690  224.2020 C   0  0  2  0  0  0  0  0  0  0  0  0
  140.0250   70.7430  225.5580 C   0  0  0  0  0  0  0  0  0  0  0  0
  139.6410   69.9060  226.6060 C   0  0  0  0  0  0  0  0  0  0  0  0
  139.9820   70.2090  227.9220 C   0  0  0  0  0  0  0  0  0  0  0  0
  140.7080   71.3410  228.2290 C   0  0  0  0  0  0  0  0  0  0  0  0
  141.0920   72.1730  227.1960 C   0  0  0  0  0  0  0  0  0  0  0  0
  140.7470   71.8610  225.9060 C   0  0  0  0  0  0  0  0  0  0  0  0
  138.9570   71.4430  223.4700 N   0  0  0  0  0  0  0  0  0  0  0  0
  137.5260   71.5230  223.6300 C   0  0  0  0  0  0  0  0  0  0  0  0
  139.7790   72.3040  222.7270 C   0  0  0  0  0  0  0  0  0  0  0  0
  141.0520   72.1510  222.9800 O   0  0  0  0  0  0  0  0  0  0  0  0
  139.4760   73.3210  221.7480 C   0  0  0  0  0  0  0  0  0  0  0  0
  139.7580   74.6950  222.0460 N   0  0  0  0  0  0  0  0  0  0  0  0
  138.7380   75.6670  222.3320 C   0  0  0  0  0  0  0  0  0  0  0  0
  137.5040   75.3280  222.3230 O   0  0  0  0  0  0  0  0  0  0  0  0
  139.1150   77.0600  222.6380 C   0  0  0  0  0  0  0  0  0  0  0  0
  138.1180   77.9890  222.8190 C   0  0  0  0  0  0  0  0  0  0  0  0
  138.5270   79.2920  223.1060 C   0  0  0  0  0  0  0  0  0  0  0  0
  139.8600   79.6390  223.2030 C   0  0  0  0  0  0  0  0  0  0  0  0
  140.2980   80.9100  223.4830 C   0  0  0  0  0  0  0  0  0  0  0  0
  141.6670   81.1710  223.5630 C   0  0  0  0  0  0  0  0  0  0  0  0
  142.6080   80.1700  223.3640 C   0  0  0  0  0  0  0  0  0  0  0  0
  142.1680   78.8920  223.0820 C   0  0  0  0  0  0  0  0  0  0  0  0
  140.8160   78.6670  223.0110 C   0  0  0  0  0  0  0  0  0  0  0  0
  140.4080   77.4150  222.7360 N   0  0  0  0  0  0  0  0  0  0  0  0
  138.5908   68.8100  225.2761 H   0  0  0  0  0  0  0  0  0  0  0  0
  137.8268   69.2830  223.7207 H   0  0  0  0  0  0  0  0  0  0  0  0
  139.3210   68.2861  223.7207 H   0  0  0  0  0  0  0  0  0  0  0  0
  140.5587   70.1725  223.6446 H   0  0  0  0  0  0  0  0  0  0  0  0
  139.0620   68.9959  226.3904 H   0  0  0  0  0  0  0  0  0  0  0  0
  139.6667   69.5335  228.7309 H   0  0  0  0  0  0  0  0  0  0  0  0
  140.9743   71.5750  229.2703 H   0  0  0  0  0  0  0  0  0  0  0  0
  141.6727   73.0830  227.4072 H   0  0  0  0  0  0  0  0  0  0  0  0
  141.0656   72.5433  225.1042 H   0  0  0  0  0  0  0  0  0  0  0  0
  137.2771   71.5369  224.7014 H   0  0  0  0  0  0  0  0  0  0  0  0
  137.1549   72.4433  223.1553 H   0  0  0  0  0  0  0  0  0  0  0  0
  137.0546   70.6498  223.1553 H   0  0  0  0  0  0  0  0  0  0  0  0
  140.0414   73.0683  220.8389 H   0  0  0  0  0  0  0  0  0  0  0  0
  138.3787   73.2922  221.6772 H   0  0  0  0  0  0  0  0  0  0  0  0
  140.7500   75.0810  222.0740 H   0  0  0  0  0  0  0  0  0  0  0  0
  137.0543   77.7196  222.7417 H   0  0  0  0  0  0  0  0  0  0  0  0
  137.7626   80.0679  223.2600 H   0  0  0  0  0  0  0  0  0  0  0  0
  139.5719   81.7205  223.6439 H   0  0  0  0  0  0  0  0  0  0  0  0
  142.0076   82.1923  223.7887 H   0  0  0  0  0  0  0  0  0  0  0  0
  143.6836   80.3907  223.4297 H   0  0  0  0  0  0  0  0  0  0  0  0
  142.8843   78.0734  222.9181 H   0  0  0  0  0  0  0  0  0  0  0  0
  1  2  1  0
  2  3  1  0
  3  4  2  0
  4  5  1  0
  5  6  2  0
  6  7  1  0
  7  8  2  0
  2  9  1  0
  9 10  1  0
  9 11  1  0
 11 12  2  0
 11 13  1  0
 13 14  1  0
 14 15  1  0
 15 16  2  0
 15 17  1  0
 17 18  2  0
 18 19  1  0
 19 20  2  0
 20 21  1  0
 21 22  2  0
 22 23  1  0
 23 24  2  0
 24 25  1  0
 25 26  2  0
  8  3  1  0
 26 17  1  0
 25 20  1  0
  1 27  1  0
  1 28  1  0
  1 29  1  0
  2 30  1  6
  4 31  1  0
  5 32  1  0
  6 33  1  0
  7 34  1  0
  8 35  1  0
 10 36  1  0
 10 37  1  0
 10 38  1  0
 13 39  1  0
 13 40  1  0
 14 41  1  0
 18 42  1  0
 19 43  1  0
 21 44  1  0
 22 45  1  0
 23 46  1  0
 24 47  1  0
M  END
>  <smiles>  (39) 
C[C@H](c1ccccc1)N(C)C(=O)CNC(=O)c1ccc2ccccc2n1

>  <score_type>  (39) 
oracle

>  <origin>  (39) 
autodockgpu

>  <m_score__min__energy>  (39) 
-8.9000000000000004

>  <m_primary>  (39) 
energy

>  <rmsd>  (39) 
10.059785687136866

>  <m_score__min__rmsd>  (39) 
10.059785687136866

>  <meeko>  (39) 
{"free_energy": -8.02, "intermolecular_energy": -9.81, "internal_energy": -1.44, "cluster_size": 28, "cluster_id": 1, "rank_in_cluster": 25}

>  <energy>  (39) 
-8.19

>  <cluster_rmsd>  (39) 
0.46

>  <cluster>  (39) 
2

$$$$

     RDKit          3D

 47 49  0  0  0  0  0  0  0  0999 V2000
  137.4400   71.1860  223.8730 C   0  0  0  0  0  0  0  0  0  0  0  0
  138.7440   70.4270  223.6300 C   0  0  2  0  0  0  0  0  0  0  0  0
  139.5550   70.4170  224.8450 C   0  0  0  0  0  0  0  0  0  0  0  0
  139.6310   69.2290  225.5720 C   0  0  0  0  0  0  0  0  0  0  0  0
  140.3850   69.1560  226.7400 C   0  0  0  0  0  0  0  0  0  0  0  0
  141.0770   70.2510  227.2140 C   0  0  0  0  0  0  0  0  0  0  0  0
  141.0050   71.4300  226.4990 C   0  0  0  0  0  0  0  0  0  0  0  0
  140.2580   71.4860  225.3500 C   0  0  0  0  0  0  0  0  0  0  0  0
  139.4510   70.9410  222.4570 N   0  0  0  0  0  0  0  0  0  0  0  0
  139.9090   69.9580  221.5050 C   0  0  0  0  0  0  0  0  0  0  0  0
  139.5720   72.3360  222.3610 C   0  0  0  0  0  0  0  0  0  0  0  0
  140.7240   72.7870  222.7840 O   0  0  0  0  0  0  0  0  0  0  0  0
  138.6620   73.3530  221.8890 C   0  0  0  0  0  0  0  0  0  0  0  0
  138.8350   74.7100  222.3190 N   0  0  0  0  0  0  0  0  0  0  0  0
  139.9280   75.5410  221.8930 C   0  0  0  0  0  0  0  0  0  0  0  0
  140.8160   75.0790  221.0960 O   0  0  0  0  0  0  0  0  0  0  0  0
  140.0270   76.9310  222.3770 C   0  0  0  0  0  0  0  0  0  0  0  0
  138.8710   77.6060  222.6870 C   0  0  0  0  0  0  0  0  0  0  0  0
  139.0180   78.9180  223.1400 C   0  0  0  0  0  0  0  0  0  0  0  0
  140.2570   79.5140  223.2710 C   0  0  0  0  0  0  0  0  0  0  0  0
  140.4390   80.8010  223.7130 C   0  0  0  0  0  0  0  0  0  0  0  0
  141.7290   81.3240  223.8170 C   0  0  0  0  0  0  0  0  0  0  0  0
  142.8460   80.5700  223.4800 C   0  0  0  0  0  0  0  0  0  0  0  0
  142.6630   79.2760  223.0360 C   0  0  0  0  0  0  0  0  0  0  0  0
  141.3820   78.7900  222.9460 C   0  0  0  0  0  0  0  0  0  0  0  0
  141.2260   77.5270  222.5110 N   0  0  0  0  0  0  0  0  0  0  0  0
  137.2697   71.2851  224.9552 H   0  0  0  0  0  0  0  0  0  0  0  0
  137.5077   72.1858  223.4194 H   0  0  0  0  0  0  0  0  0  0  0  0
  136.6041   70.6333  223.4194 H   0  0  0  0  0  0  0  0  0  0  0  0
  138.5130   69.3777  223.3944 H   0  0  0  0  0  0  0  0  0  0  0  0
  139.0889   68.3396  225.2184 H   0  0  0  0  0  0  0  0  0  0  0  0
  140.4297   68.2074  227.2952 H   0  0  0  0  0  0  0  0  0  0  0  0
  141.6708   70.1866  228.1377 H   0  0  0  0  0  0  0  0  0  0  0  0
  141.5451   72.3217  226.8498 H   0  0  0  0  0  0  0  0  0  0  0  0
  140.2189   72.4389  224.8019 H   0  0  0  0  0  0  0  0  0  0  0  0
  140.3143   69.0880  222.0425 H   0  0  0  0  0  0  0  0  0  0  0  0
  139.0668   69.6390  220.8734 H   0  0  0  0  0  0  0  0  0  0  0  0
  140.6950   70.3976  220.8734 H   0  0  0  0  0  0  0  0  0  0  0  0
  138.7258   73.3547  220.7909 H   0  0  0  0  0  0  0  0  0  0  0  0
  137.6979   73.0626  222.3319 H   0  0  0  0  0  0  0  0  0  0  0  0
  138.1570   75.1890  222.9860 H   0  0  0  0  0  0  0  0  0  0  0  0
  137.8814   77.1369  222.5836 H   0  0  0  0  0  0  0  0  0  0  0  0
  138.1188   79.4954  223.4009 H   0  0  0  0  0  0  0  0  0  0  0  0
  139.5702   81.4186  223.9846 H   0  0  0  0  0  0  0  0  0  0  0  0
  141.8640   82.3558  224.1736 H   0  0  0  0  0  0  0  0  0  0  0  0
  143.8566   80.9959  223.5653 H   0  0  0  0  0  0  0  0  0  0  0  0
  143.5235   78.6486  222.7606 H   0  0  0  0  0  0  0  0  0  0  0  0
  1  2  1  0
  2  3  1  0
  3  4  2  0
  4  5  1  0
  5  6  2  0
  6  7  1  0
  7  8  2  0
  2  9  1  0
  9 10  1  0
  9 11  1  0
 11 12  2  0
 11 13  1  0
 13 14  1  0
 14 15  1  0
 15 16  2  0
 15 17  1  0
 17 18  2  0
 18 19  1  0
 19 20  2  0
 20 21  1  0
 21 22  2  0
 22 23  1  0
 23 24  2  0
 24 25  1  0
 25 26  2  0
  8  3  1  0
 26 17  1  0
 25 20  1  0
  1 27  1  0
  1 28  1  0
  1 29  1  0
  2 30  1  6
  4 31  1  0
  5 32  1  0
  6 33  1  0
  7 34  1  0
  8 35  1  0
 10 36  1  0
 10 37  1  0
 10 38  1  0
 13 39  1  0
 13 40  1  0
 14 41  1  0
 18 42  1  0
 19 43  1  0
 21 44  1  0
 22 45  1  0
 23 46  1  0
 24 47  1  0
M  END
>  <smiles>  (40) 
C[C@H](c1ccccc1)N(C)C(=O)CNC(=O)c1ccc2ccccc2n1

>  <score_type>  (40) 
oracle

>  <origin>  (40) 
autodockgpu

>  <m_score__min__energy>  (40) 
-8.9000000000000004

>  <m_primary>  (40) 
energy

>  <rmsd>  (40) 
10.001500585646204

>  <m_score__min__rmsd>  (40) 
10.001500585646204

>  <meeko>  (40) 
{"free_energy": -8.19, "intermolecular_energy": -9.98, "internal_energy": -0.98, "cluster_size": 28, "cluster_id": 1, "rank_in_cluster": 21}

>  <energy>  (40) 
-8.16

>  <cluster_rmsd>  (40) 
0.76

>  <cluster>  (40) 
2

$$$$

     RDKit          3D

 47 49  0  0  0  0  0  0  0  0999 V2000
  138.9140   68.3270  224.0490 C   0  0  0  0  0  0  0  0  0  0  0  0
  139.6320   69.6560  224.2750 C   0  0  2  0  0  0  0  0  0  0  0  0
  140.0940   69.7510  225.6580 C   0  0  0  0  0  0  0  0  0  0  0  0
  140.2420   68.5680  226.3810 C   0  0  0  0  0  0  0  0  0  0  0  0
  140.6750   68.5900  227.7040 C   0  0  0  0  0  0  0  0  0  0  0  0
  140.9700   69.7790  228.3390 C   0  0  0  0  0  0  0  0  0  0  0  0
  140.8250   70.9540  227.6280 C   0  0  0  0  0  0  0  0  0  0  0  0
  140.3980   70.9140  226.3260 C   0  0  0  0  0  0  0  0  0  0  0  0
  138.8050   70.7880  223.8550 N   0  0  0  0  0  0  0  0  0  0  0  0
  137.4040   70.7160  224.1950 C   0  0  0  0  0  0  0  0  0  0  0  0
  139.4670   71.8410  223.2050 C   0  0  0  0  0  0  0  0  0  0  0  0
  140.6970   72.0110  223.6160 O   0  0  0  0  0  0  0  0  0  0  0  0
  139.0410   72.7640  222.1800 C   0  0  0  0  0  0  0  0  0  0  0  0
  139.5470   74.1050  222.1820 N   0  0  0  0  0  0  0  0  0  0  0  0
  140.5100   74.5880  221.2290 C   0  0  0  0  0  0  0  0  0  0  0  0
  140.9670   73.8090  220.3240 O   0  0  0  0  0  0  0  0  0  0  0  0
  140.9720   75.9870  221.2960 C   0  0  0  0  0  0  0  0  0  0  0  0
  141.6340   76.5160  220.2140 C   0  0  0  0  0  0  0  0  0  0  0  0
  142.0510   77.8430  220.3270 C   0  0  0  0  0  0  0  0  0  0  0  0
  141.8150   78.5920  221.4630 C   0  0  0  0  0  0  0  0  0  0  0  0
  142.2110   79.8990  221.6090 C   0  0  0  0  0  0  0  0  0  0  0  0
  141.9290   80.5820  222.7940 C   0  0  0  0  0  0  0  0  0  0  0  0
  141.2540   79.9680  223.8410 C   0  0  0  0  0  0  0  0  0  0  0  0
  140.8570   78.6540  223.6940 C   0  0  0  0  0  0  0  0  0  0  0  0
  141.1470   78.0110  222.5170 C   0  0  0  0  0  0  0  0  0  0  0  0
  140.7510   76.7310  222.3950 N   0  0  0  0  0  0  0  0  0  0  0  0
  138.6687   67.8730  225.0204 H   0  0  0  0  0  0  0  0  0  0  0  0
  137.9879   68.5024  223.4819 H   0  0  0  0  0  0  0  0  0  0  0  0
  139.5683   67.6485  223.4819 H   0  0  0  0  0  0  0  0  0  0  0  0
  140.5278   69.6954  223.6377 H   0  0  0  0  0  0  0  0  0  0  0  0
  140.0138   67.6054  225.9001 H   0  0  0  0  0  0  0  0  0  0  0  0
  140.7839   67.6429  228.2527 H   0  0  0  0  0  0  0  0  0  0  0  0
  141.3118   69.7906  229.3845 H   0  0  0  0  0  0  0  0  0  0  0  0
  141.0514   71.9190  228.1050 H   0  0  0  0  0  0  0  0  0  0  0  0
  140.2926   71.8659  225.7850 H   0  0  0  0  0  0  0  0  0  0  0  0
  137.2921   70.7103  225.2893 H   0  0  0  0  0  0  0  0  0  0  0  0
  136.8800   71.5884  223.7774 H   0  0  0  0  0  0  0  0  0  0  0  0
  136.9722   69.7945  223.7774 H   0  0  0  0  0  0  0  0  0  0  0  0
  139.3189   72.3188  221.2133 H   0  0  0  0  0  0  0  0  0  0  0  0
  137.9670   72.8933  222.3796 H   0  0  0  0  0  0  0  0  0  0  0  0
  139.2360   74.8320  222.8950 H   0  0  0  0  0  0  0  0  0  0  0  0
  141.8252   75.9245  219.3065 H   0  0  0  0  0  0  0  0  0  0  0  0
  142.5846   78.3071  219.4845 H   0  0  0  0  0  0  0  0  0  0  0  0
  142.7489   80.4065  220.7946 H   0  0  0  0  0  0  0  0  0  0  0  0
  142.2485   81.6292  222.9005 H   0  0  0  0  0  0  0  0  0  0  0  0
  141.0399   80.5180  224.7693 H   0  0  0  0  0  0  0  0  0  0  0  0
  140.3206   78.1345  224.5017 H   0  0  0  0  0  0  0  0  0  0  0  0
  1  2  1  0
  2  3  1  0
  3  4  2  0
  4  5  1  0
  5  6  2  0
  6  7  1  0
  7  8  2  0
  2  9  1  0
  9 10  1  0
  9 11  1  0
 11 12  2  0
 11 13  1  0
 13 14  1  0
 14 15  1  0
 15 16  2  0
 15 17  1  0
 17 18  2  0
 18 19  1  0
 19 20  2  0
 20 21  1  0
 21 22  2  0
 22 23  1  0
 23 24  2  0
 24 25  1  0
 25 26  2  0
  8  3  1  0
 26 17  1  0
 25 20  1  0
  1 27  1  0
  1 28  1  0
  1 29  1  0
  2 30  1  6
  4 31  1  0
  5 32  1  0
  6 33  1  0
  7 34  1  0
  8 35  1  0
 10 36  1  0
 10 37  1  0
 10 38  1  0
 13 39  1  0
 13 40  1  0
 14 41  1  0
 18 42  1  0
 19 43  1  0
 21 44  1  0
 22 45  1  0
 23 46  1  0
 24 47  1  0
M  END
>  <smiles>  (41) 
C[C@H](c1ccccc1)N(C)C(=O)CNC(=O)c1ccc2ccccc2n1

>  <score_type>  (41) 
oracle

>  <origin>  (41) 
autodockgpu

>  <m_score__min__energy>  (41) 
-8.9000000000000004

>  <m_primary>  (41) 
energy

>  <rmsd>  (41) 
10.539589744865209

>  <m_score__min__rmsd>  (41) 
10.539589744865209

>  <meeko>  (41) 
{"free_energy": -8.03, "intermolecular_energy": -9.82, "internal_energy": -1.31, "cluster_size": 28, "cluster_id": 1, "rank_in_cluster": 24}

>  <energy>  (41) 
-8.14

>  <cluster_rmsd>  (41) 
0.73

>  <cluster>  (41) 
2

$$$$

     RDKit          3D

 47 49  0  0  0  0  0  0  0  0999 V2000
  140.6020   78.7710  219.4630 C   0  0  0  0  0  0  0  0  0  0  0  0
  140.6010   78.0310  220.7990 C   0  0  2  0  0  0  0  0  0  0  0  0
  141.3240   78.8050  221.8040 C   0  0  0  0  0  0  0  0  0  0  0  0
  141.1630   78.4510  223.1440 C   0  0  0  0  0  0  0  0  0  0  0  0
  141.8220   79.1510  224.1500 C   0  0  0  0  0  0  0  0  0  0  0  0
  142.6520   80.2130  223.8570 C   0  0  0  0  0  0  0  0  0  0  0  0
  142.8160   80.5680  222.5320 C   0  0  0  0  0  0  0  0  0  0  0  0
  142.1590   79.8680  221.5530 C   0  0  0  0  0  0  0  0  0  0  0  0
  141.0910   76.6600  220.6500 N   0  0  0  0  0  0  0  0  0  0  0  0
  142.2550   76.4850  219.8150 C   0  0  0  0  0  0  0  0  0  0  0  0
  140.4050   75.6680  221.3670 C   0  0  0  0  0  0  0  0  0  0  0  0
  139.7240   76.1390  222.3790 O   0  0  0  0  0  0  0  0  0  0  0  0
  140.3200   74.2370  221.1960 C   0  0  0  0  0  0  0  0  0  0  0  0
  140.0980   73.4000  222.3390 N   0  0  0  0  0  0  0  0  0  0  0  0
  140.5490   72.0370  222.4200 C   0  0  0  0  0  0  0  0  0  0  0  0
  141.1770   71.5070  221.4400 O   0  0  0  0  0  0  0  0  0  0  0  0
  140.2870   71.2480  223.6380 C   0  0  0  0  0  0  0  0  0  0  0  0
  139.6060   70.0600  223.5210 C   0  0  0  0  0  0  0  0  0  0  0  0
  139.3830   69.3500  224.7010 C   0  0  0  0  0  0  0  0  0  0  0  0
  139.8200   69.8110  225.9280 C   0  0  0  0  0  0  0  0  0  0  0  0
  139.6180   69.1400  227.1090 C   0  0  0  0  0  0  0  0  0  0  0  0
  140.0960   69.6800  228.3050 C   0  0  0  0  0  0  0  0  0  0  0  0
  140.7750   70.8910  228.3320 C   0  0  0  0  0  0  0  0  0  0  0  0
  140.9780   71.5650  227.1450 C   0  0  0  0  0  0  0  0  0  0  0  0
  140.4970   71.0080  225.9870 C   0  0  0  0  0  0  0  0  0  0  0  0
  140.7060   71.6810  224.8400 N   0  0  0  0  0  0  0  0  0  0  0  0
  140.6035   79.8559  219.6448 H   0  0  0  0  0  0  0  0  0  0  0  0
  141.4998   78.4938  218.8910 H   0  0  0  0  0  0  0  0  0  0  0  0
  139.7035   78.4963  218.8910 H   0  0  0  0  0  0  0  0  0  0  0  0
  139.5658   77.9340  221.1582 H   0  0  0  0  0  0  0  0  0  0  0  0
  140.5072   77.6084  223.4084 H   0  0  0  0  0  0  0  0  0  0  0  0
  141.6783   78.8518  225.1987 H   0  0  0  0  0  0  0  0  0  0  0  0
  143.1695   80.7626  224.6570 H   0  0  0  0  0  0  0  0  0  0  0  0
  143.4715   81.4095  222.2633 H   0  0  0  0  0  0  0  0  0  0  0  0
  142.3085   80.1744  220.5072 H   0  0  0  0  0  0  0  0  0  0  0  0
  143.1441   76.3513  220.4487 H   0  0  0  0  0  0  0  0  0  0  0  0
  142.1205   75.5970  219.1799 H   0  0  0  0  0  0  0  0  0  0  0  0
  142.3876   77.3733  219.1799 H   0  0  0  0  0  0  0  0  0  0  0  0
  139.4934   74.0473  220.4955 H   0  0  0  0  0  0  0  0  0  0  0  0
  141.3305   73.9567  220.8637 H   0  0  0  0  0  0  0  0  0  0  0  0
  139.5810   73.7420  223.2050 H   0  0  0  0  0  0  0  0  0  0  0  0
  139.2549   69.6881  222.5471 H   0  0  0  0  0  0  0  0  0  0  0  0
  138.8423   68.3932  224.6531 H   0  0  0  0  0  0  0  0  0  0  0  0
  139.0812   68.1799  227.1130 H   0  0  0  0  0  0  0  0  0  0  0  0
  139.9311   69.1343  229.2458 H   0  0  0  0  0  0  0  0  0  0  0  0
  141.1441   71.3053  229.2818 H   0  0  0  0  0  0  0  0  0  0  0  0
  141.5128   72.5261  227.1276 H   0  0  0  0  0  0  0  0  0  0  0  0
  1  2  1  0
  2  3  1  0
  3  4  2  0
  4  5  1  0
  5  6  2  0
  6  7  1  0
  7  8  2  0
  2  9  1  0
  9 10  1  0
  9 11  1  0
 11 12  2  0
 11 13  1  0
 13 14  1  0
 14 15  1  0
 15 16  2  0
 15 17  1  0
 17 18  2  0
 18 19  1  0
 19 20  2  0
 20 21  1  0
 21 22  2  0
 22 23  1  0
 23 24  2  0
 24 25  1  0
 25 26  2  0
  8  3  1  0
 26 17  1  0
 25 20  1  0
  1 27  1  0
  1 28  1  0
  1 29  1  0
  2 30  1  1
  4 31  1  0
  5 32  1  0
  6 33  1  0
  7 34  1  0
  8 35  1  0
 10 36  1  0
 10 37  1  0
 10 38  1  0
 13 39  1  0
 13 40  1  0
 14 41  1  0
 18 42  1  0
 19 43  1  0
 21 44  1  0
 22 45  1  0
 23 46  1  0
 24 47  1  0
M  END
>  <smiles>  (42) 
C[C@H](c1ccccc1)N(C)C(=O)CNC(=O)c1ccc2ccccc2n1

>  <score_type>  (42) 
oracle

>  <origin>  (42) 
autodockgpu

>  <m_score__min__energy>  (42) 
-8.9000000000000004

>  <m_primary>  (42) 
energy

>  <rmsd>  (42) 
4.068657219252226

>  <m_score__min__rmsd>  (42) 
4.068657219252226

>  <meeko>  (42) 
{"free_energy": -8.63, "intermolecular_energy": -10.42, "internal_energy": -1.24, "cluster_size": 17, "cluster_id": 2, "rank_in_cluster": 1}

>  <energy>  (42) 
-8.11

>  <cluster_rmsd>  (42) 
0.68

>  <cluster>  (42) 
2

$$$$

     RDKit          3D

 47 49  0  0  0  0  0  0  0  0999 V2000
  140.5060   78.1440  219.4130 C   0  0  0  0  0  0  0  0  0  0  0  0
  140.4780   77.5880  220.8350 C   0  0  2  0  0  0  0  0  0  0  0  0
  141.1940   78.4840  221.7400 C   0  0  0  0  0  0  0  0  0  0  0  0
  141.1870   78.1810  223.1020 C   0  0  0  0  0  0  0  0  0  0  0  0
  141.8470   78.9970  224.0170 C   0  0  0  0  0  0  0  0  0  0  0  0
  142.5260   80.1260  223.6080 C   0  0  0  0  0  0  0  0  0  0  0  0
  142.5370   80.4310  222.2610 C   0  0  0  0  0  0  0  0  0  0  0  0
  141.8810   79.6170  221.3730 C   0  0  0  0  0  0  0  0  0  0  0  0
  140.9590   76.2060  220.8780 N   0  0  0  0  0  0  0  0  0  0  0  0
  142.2080   75.9430  220.2060 C   0  0  0  0  0  0  0  0  0  0  0  0
  140.1770   75.2930  221.6030 C   0  0  0  0  0  0  0  0  0  0  0  0
  139.5760   75.8300  222.6330 O   0  0  0  0  0  0  0  0  0  0  0  0
  139.9210   73.8840  221.4220 C   0  0  0  0  0  0  0  0  0  0  0  0
  139.9040   73.0170  222.5640 N   0  0  0  0  0  0  0  0  0  0  0  0
  139.8950   71.5820  222.4670 C   0  0  0  0  0  0  0  0  0  0  0  0
  139.8950   71.0140  221.3210 O   0  0  0  0  0  0  0  0  0  0  0  0
  139.8860   70.7630  223.6930 C   0  0  0  0  0  0  0  0  0  0  0  0
  139.3730   69.4890  223.6330 C   0  0  0  0  0  0  0  0  0  0  0  0
  139.3870   68.7550  224.8190 C   0  0  0  0  0  0  0  0  0  0  0  0
  139.8880   69.2740  225.9970 C   0  0  0  0  0  0  0  0  0  0  0  0
  139.9180   68.5800  227.1820 C   0  0  0  0  0  0  0  0  0  0  0  0
  140.4440   69.1820  228.3260 C   0  0  0  0  0  0  0  0  0  0  0  0
  140.9420   70.4780  228.2990 C   0  0  0  0  0  0  0  0  0  0  0  0
  140.9120   71.1750  227.1070 C   0  0  0  0  0  0  0  0  0  0  0  0
  140.3900   70.5550  226.0000 C   0  0  0  0  0  0  0  0  0  0  0  0
  140.3700   71.2520  224.8490 N   0  0  0  0  0  0  0  0  0  0  0  0
  140.5613   79.2420  219.4496 H   0  0  0  0  0  0  0  0  0  0  0  0
  141.3854   77.7501  218.8825 H   0  0  0  0  0  0  0  0  0  0  0  0
  139.5914   77.8404  218.8825 H   0  0  0  0  0  0  0  0  0  0  0  0
  139.4365   77.5465  221.1864 H   0  0  0  0  0  0  0  0  0  0  0  0
  140.6537   77.2868  223.4571 H   0  0  0  0  0  0  0  0  0  0  0  0
  141.8266   78.7366  225.0855 H   0  0  0  0  0  0  0  0  0  0  0  0
  143.0453   80.7668  224.3359 H   0  0  0  0  0  0  0  0  0  0  0  0
  143.0700   81.3236  221.9016 H   0  0  0  0  0  0  0  0  0  0  0  0
  141.9060   79.8860  220.3067 H   0  0  0  0  0  0  0  0  0  0  0  0
  142.9983   75.7766  220.9528 H   0  0  0  0  0  0  0  0  0  0  0  0
  142.1040   75.0471  219.5763 H   0  0  0  0  0  0  0  0  0  0  0  0
  142.4741   76.8048  219.5763 H   0  0  0  0  0  0  0  0  0  0  0  0
  138.9362   73.7971  220.9397 H   0  0  0  0  0  0  0  0  0  0  0  0
  140.7908   73.5354  220.8459 H   0  0  0  0  0  0  0  0  0  0  0  0
  139.8980   73.3870  223.5620 H   0  0  0  0  0  0  0  0  0  0  0  0
  138.9723   69.0701  222.6981 H   0  0  0  0  0  0  0  0  0  0  0  0
  138.9864   67.7305  224.8161 H   0  0  0  0  0  0  0  0  0  0  0  0
  139.5284   67.5524  227.2292 H   0  0  0  0  0  0  0  0  0  0  0  0
  140.4645   68.6174  229.2698 H   0  0  0  0  0  0  0  0  0  0  0  0
  141.3522   70.9403  229.2089 H   0  0  0  0  0  0  0  0  0  0  0  0
  141.2977   72.2034  227.0466 H   0  0  0  0  0  0  0  0  0  0  0  0
  1  2  1  0
  2  3  1  0
  3  4  2  0
  4  5  1  0
  5  6  2  0
  6  7  1  0
  7  8  2  0
  2  9  1  0
  9 10  1  0
  9 11  1  0
 11 12  2  0
 11 13  1  0
 13 14  1  0
 14 15  1  0
 15 16  2  0
 15 17  1  0
 17 18  2  0
 18 19  1  0
 19 20  2  0
 20 21  1  0
 21 22  2  0
 22 23  1  0
 23 24  2  0
 24 25  1  0
 25 26  2  0
  8  3  1  0
 26 17  1  0
 25 20  1  0
  1 27  1  0
  1 28  1  0
  1 29  1  0
  2 30  1  1
  4 31  1  0
  5 32  1  0
  6 33  1  0
  7 34  1  0
  8 35  1  0
 10 36  1  0
 10 37  1  0
 10 38  1  0
 13 39  1  0
 13 40  1  0
 14 41  1  0
 18 42  1  0
 19 43  1  0
 21 44  1  0
 22 45  1  0
 23 46  1  0
 24 47  1  0
M  END
>  <smiles>  (43) 
C[C@H](c1ccccc1)N(C)C(=O)CNC(=O)c1ccc2ccccc2n1

>  <score_type>  (43) 
oracle

>  <origin>  (43) 
autodockgpu

>  <m_score__min__energy>  (43) 
-8.9000000000000004

>  <m_primary>  (43) 
energy

>  <rmsd>  (43) 
4.197105909249214

>  <m_score__min__rmsd>  (43) 
4.197105909249214

>  <meeko>  (43) 
{"free_energy": -8.38, "intermolecular_energy": -10.17, "internal_energy": -1.36, "cluster_size": 17, "cluster_id": 2, "rank_in_cluster": 6}

>  <energy>  (43) 
-8.09

>  <cluster_rmsd>  (43) 
0.54

>  <cluster>  (43) 
2

$$$$

     RDKit          3D

 47 49  0  0  0  0  0  0  0  0999 V2000
  139.5310   67.8210  225.6040 C   0  0  0  0  0  0  0  0  0  0  0  0
  139.8110   69.1860  224.9780 C   0  0  2  0  0  0  0  0  0  0  0  0
  140.2490   70.1300  226.0040 C   0  0  0  0  0  0  0  0  0  0  0  0
  139.8080   69.9270  227.3110 C   0  0  0  0  0  0  0  0  0  0  0  0
  140.1870   70.7930  228.3340 C   0  0  0  0  0  0  0  0  0  0  0  0
  141.0050   71.8750  228.0870 C   0  0  0  0  0  0  0  0  0  0  0  0
  141.4450   72.0820  226.7940 C   0  0  0  0  0  0  0  0  0  0  0  0
  141.0630   71.2190  225.7980 C   0  0  0  0  0  0  0  0  0  0  0  0
  138.6680   69.6590  224.1950 N   0  0  0  0  0  0  0  0  0  0  0  0
  137.3680   69.2030  224.6240 C   0  0  0  0  0  0  0  0  0  0  0  0
  138.9540   70.5380  223.1400 C   0  0  0  0  0  0  0  0  0  0  0  0
  140.1400   70.3560  222.6210 O   0  0  0  0  0  0  0  0  0  0  0  0
  138.1860   71.5990  222.5320 C   0  0  0  0  0  0  0  0  0  0  0  0
  138.7860   72.8870  222.3430 N   0  0  0  0  0  0  0  0  0  0  0  0
  139.8730   73.1260  221.4320 C   0  0  0  0  0  0  0  0  0  0  0  0
  140.3600   72.1640  220.7440 O   0  0  0  0  0  0  0  0  0  0  0  0
  140.4280   74.4850  221.2910 C   0  0  0  0  0  0  0  0  0  0  0  0
  141.4480   74.6920  220.3940 C   0  0  0  0  0  0  0  0  0  0  0  0
  141.9390   75.9950  220.2970 C   0  0  0  0  0  0  0  0  0  0  0  0
  141.4310   77.0280  221.0600 C   0  0  0  0  0  0  0  0  0  0  0  0
  141.8880   78.3210  220.9920 C   0  0  0  0  0  0  0  0  0  0  0  0
  141.3150   79.3050  221.8000 C   0  0  0  0  0  0  0  0  0  0  0  0
  140.2850   79.0070  222.6820 C   0  0  0  0  0  0  0  0  0  0  0  0
  139.8250   77.7070  222.7510 C   0  0  0  0  0  0  0  0  0  0  0  0
  140.4080   76.7640  221.9430 C   0  0  0  0  0  0  0  0  0  0  0  0
  139.9450   75.5030  222.0250 N   0  0  0  0  0  0  0  0  0  0  0  0
  139.5492   67.9097  226.7003 H   0  0  0  0  0  0  0  0  0  0  0  0
  138.5413   67.4657  225.2813 H   0  0  0  0  0  0  0  0  0  0  0  0
  140.3009   67.1047  225.2813 H   0  0  0  0  0  0  0  0  0  0  0  0
  140.6384   69.0920  224.2593 H   0  0  0  0  0  0  0  0  0  0  0  0
  139.1529   69.0727  227.5370 H   0  0  0  0  0  0  0  0  0  0  0  0
  139.8272   70.6104  229.3573 H   0  0  0  0  0  0  0  0  0  0  0  0
  141.2998   72.5561  228.8989 H   0  0  0  0  0  0  0  0  0  0  0  0
  142.0993   72.9357  226.5637 H   0  0  0  0  0  0  0  0  0  0  0  0
  141.4283   71.4089  224.7779 H   0  0  0  0  0  0  0  0  0  0  0  0
  137.3286   69.1892  225.7232 H   0  0  0  0  0  0  0  0  0  0  0  0
  136.5949   69.8836  224.2379 H   0  0  0  0  0  0  0  0  0  0  0  0
  137.1894   68.1886  224.2379 H   0  0  0  0  0  0  0  0  0  0  0  0
  137.8771   71.2413  221.5387 H   0  0  0  0  0  0  0  0  0  0  0  0
  137.3876   71.7914  223.2638 H   0  0  0  0  0  0  0  0  0  0  0  0
  138.4590   73.7520  222.8700 H   0  0  0  0  0  0  0  0  0  0  0  0
  141.8566   73.8731  219.7838 H   0  0  0  0  0  0  0  0  0  0  0  0
  142.7558   76.2056  219.5910 H   0  0  0  0  0  0  0  0  0  0  0  0
  142.7042   78.5812  220.3021 H   0  0  0  0  0  0  0  0  0  0  0  0
  141.6875   80.3381  221.7364 H   0  0  0  0  0  0  0  0  0  0  0  0
  139.8437   79.7918  223.3139 H   0  0  0  0  0  0  0  0  0  0  0  0
  139.0102   77.4339  223.4377 H   0  0  0  0  0  0  0  0  0  0  0  0
  1  2  1  0
  2  3  1  0
  3  4  2  0
  4  5  1  0
  5  6  2  0
  6  7  1  0
  7  8  2  0
  2  9  1  0
  9 10  1  0
  9 11  1  0
 11 12  2  0
 11 13  1  0
 13 14  1  0
 14 15  1  0
 15 16  2  0
 15 17  1  0
 17 18  2  0
 18 19  1  0
 19 20  2  0
 20 21  1  0
 21 22  2  0
 22 23  1  0
 23 24  2  0
 24 25  1  0
 25 26  2  0
  8  3  1  0
 26 17  1  0
 25 20  1  0
  1 27  1  0
  1 28  1  0
  1 29  1  0
  2 30  1  6
  4 31  1  0
  5 32  1  0
  6 33  1  0
  7 34  1  0
  8 35  1  0
 10 36  1  0
 10 37  1  0
 10 38  1  0
 13 39  1  0
 13 40  1  0
 14 41  1  0
 18 42  1  0
 19 43  1  0
 21 44  1  0
 22 45  1  0
 23 46  1  0
 24 47  1  0
M  END
>  <smiles>  (44) 
C[C@H](c1ccccc1)N(C)C(=O)CNC(=O)c1ccc2ccccc2n1

>  <score_type>  (44) 
oracle

>  <origin>  (44) 
autodockgpu

>  <m_score__min__energy>  (44) 
-8.9000000000000004

>  <m_primary>  (44) 
energy

>  <rmsd>  (44) 
9.987212447983133

>  <m_score__min__rmsd>  (44) 
9.987212447983133

>  <meeko>  (44) 
{"free_energy": -7.81, "intermolecular_energy": -9.6, "internal_energy": -1.46, "cluster_size": 28, "cluster_id": 1, "rank_in_cluster": 28}

>  <energy>  (44) 
-8.04

>  <cluster_rmsd>  (44) 
1.32

>  <cluster>  (44) 
2

$$$$

     RDKit          3D

 47 49  0  0  0  0  0  0  0  0999 V2000
  139.2370   68.8020  224.5140 C   0  0  0  0  0  0  0  0  0  0  0  0
  139.8770   70.1890  224.4630 C   0  0  2  0  0  0  0  0  0  0  0  0
  140.2220   70.6340  225.8100 C   0  0  0  0  0  0  0  0  0  0  0  0
  141.0270   71.7660  225.9390 C   0  0  0  0  0  0  0  0  0  0  0  0
  141.3950   72.2400  227.1960 C   0  0  0  0  0  0  0  0  0  0  0  0
  140.9770   71.6080  228.3480 C   0  0  0  0  0  0  0  0  0  0  0  0
  140.1800   70.4870  228.2270 C   0  0  0  0  0  0  0  0  0  0  0  0
  139.8260   70.0330  226.9820 C   0  0  0  0  0  0  0  0  0  0  0  0
  139.0370   71.1370  223.7290 N   0  0  0  0  0  0  0  0  0  0  0  0
  137.6280   71.1130  224.0380 C   0  0  0  0  0  0  0  0  0  0  0  0
  139.6960   71.9960  222.8370 C   0  0  0  0  0  0  0  0  0  0  0  0
  140.9960   71.8540  222.8450 O   0  0  0  0  0  0  0  0  0  0  0  0
  139.2050   73.0020  221.9240 C   0  0  0  0  0  0  0  0  0  0  0  0
  139.2280   74.3810  222.3140 N   0  0  0  0  0  0  0  0  0  0  0  0
  140.2880   75.2860  221.9550 C   0  0  0  0  0  0  0  0  0  0  0  0
  141.2790   74.8740  221.2610 O   0  0  0  0  0  0  0  0  0  0  0  0
  140.2300   76.6940  222.3900 C   0  0  0  0  0  0  0  0  0  0  0  0
  139.0010   77.2670  222.6120 C   0  0  0  0  0  0  0  0  0  0  0  0
  139.0000   78.6010  223.0220 C   0  0  0  0  0  0  0  0  0  0  0  0
  140.1690   79.3150  223.1960 C   0  0  0  0  0  0  0  0  0  0  0  0
  140.2060   80.6280  223.5980 C   0  0  0  0  0  0  0  0  0  0  0  0
  141.4340   81.2740  223.7500 C   0  0  0  0  0  0  0  0  0  0  0  0
  142.6330   80.6180  223.5020 C   0  0  0  0  0  0  0  0  0  0  0  0
  142.5960   79.2980  223.0990 C   0  0  0  0  0  0  0  0  0  0  0  0
  141.3730   78.6910  222.9600 C   0  0  0  0  0  0  0  0  0  0  0  0
  141.3590   77.4050  222.5650 N   0  0  0  0  0  0  0  0  0  0  0  0
  139.0980   68.5007  225.5628 H   0  0  0  0  0  0  0  0  0  0  0  0
  138.2607   68.8298  224.0080 H   0  0  0  0  0  0  0  0  0  0  0  0
  139.8917   68.0772  224.0080 H   0  0  0  0  0  0  0  0  0  0  0  0
  140.8185   70.1331  223.8970 H   0  0  0  0  0  0  0  0  0  0  0  0
  141.3753   72.2906  225.0371 H   0  0  0  0  0  0  0  0  0  0  0  0
  142.0306   73.1347  227.2710 H   0  0  0  0  0  0  0  0  0  0  0  0
  141.2709   71.9871  229.3379 H   0  0  0  0  0  0  0  0  0  0  0  0
  139.8299   69.9595  229.1265 H   0  0  0  0  0  0  0  0  0  0  0  0
  139.1897   69.1380  226.9173 H   0  0  0  0  0  0  0  0  0  0  0  0
  137.4920   71.1107  225.1296 H   0  0  0  0  0  0  0  0  0  0  0  0
  137.1436   72.0030  223.6100 H   0  0  0  0  0  0  0  0  0  0  0  0
  137.1742   70.2070  223.6100 H   0  0  0  0  0  0  0  0  0  0  0  0
  139.8038   72.9195  221.0049 H   0  0  0  0  0  0  0  0  0  0  0  0
  138.1319   72.7747  221.8422 H   0  0  0  0  0  0  0  0  0  0  0  0
  138.4550   74.8240  222.8970 H   0  0  0  0  0  0  0  0  0  0  0  0
  138.0665   76.7035  222.4737 H   0  0  0  0  0  0  0  0  0  0  0  0
  138.0380   79.0992  223.2125 H   0  0  0  0  0  0  0  0  0  0  0  0
  139.2698   81.1692  223.7997 H   0  0  0  0  0  0  0  0  0  0  0  0
  141.4526   82.3253  224.0732 H   0  0  0  0  0  0  0  0  0  0  0  0
  143.5934   81.1401  223.6243 H   0  0  0  0  0  0  0  0  0  0  0  0
  143.5250   78.7458  222.8941 H   0  0  0  0  0  0  0  0  0  0  0  0
  1  2  1  0
  2  3  1  0
  3  4  2  0
  4  5  1  0
  5  6  2  0
  6  7  1  0
  7  8  2  0
  2  9  1  0
  9 10  1  0
  9 11  1  0
 11 12  2  0
 11 13  1  0
 13 14  1  0
 14 15  1  0
 15 16  2  0
 15 17  1  0
 17 18  2  0
 18 19  1  0
 19 20  2  0
 20 21  1  0
 21 22  2  0
 22 23  1  0
 23 24  2  0
 24 25  1  0
 25 26  2  0
  8  3  1  0
 26 17  1  0
 25 20  1  0
  1 27  1  0
  1 28  1  0
  1 29  1  0
  2 30  1  6
  4 31  1  0
  5 32  1  0
  6 33  1  0
  7 34  1  0
  8 35  1  0
 10 36  1  0
 10 37  1  0
 10 38  1  0
 13 39  1  0
 13 40  1  0
 14 41  1  0
 18 42  1  0
 19 43  1  0
 21 44  1  0
 22 45  1  0
 23 46  1  0
 24 47  1  0
M  END
>  <smiles>  (45) 
C[C@H](c1ccccc1)N(C)C(=O)CNC(=O)c1ccc2ccccc2n1

>  <score_type>  (45) 
oracle

>  <origin>  (45) 
autodockgpu

>  <m_score__min__energy>  (45) 
-8.9000000000000004

>  <m_primary>  (45) 
energy

>  <rmsd>  (45) 
10.246044110164009

>  <m_score__min__rmsd>  (45) 
10.246044110164009

>  <meeko>  (45) 
{"free_energy": -8.9, "intermolecular_energy": -10.69, "internal_energy": -1.03, "cluster_size": 28, "cluster_id": 1, "rank_in_cluster": 1}

>  <energy>  (45) 
-7.95

>  <cluster_rmsd>  (45) 
1.36

>  <cluster>  (45) 
2

$$$$

     RDKit          3D

 47 49  0  0  0  0  0  0  0  0999 V2000
  138.9320   68.5710  225.0750 C   0  0  0  0  0  0  0  0  0  0  0  0
  139.8050   69.7540  224.6630 C   0  0  2  0  0  0  0  0  0  0  0  0
  140.2570   70.4830  225.8450 C   0  0  0  0  0  0  0  0  0  0  0  0
  139.8550   70.0150  227.0960 C   0  0  0  0  0  0  0  0  0  0  0  0
  140.2490   70.6670  228.2620 C   0  0  0  0  0  0  0  0  0  0  0  0
  141.0450   71.7930  228.2170 C   0  0  0  0  0  0  0  0  0  0  0  0
  141.4460   72.2620  226.9810 C   0  0  0  0  0  0  0  0  0  0  0  0
  141.0490   71.6080  225.8430 C   0  0  0  0  0  0  0  0  0  0  0  0
  139.1300   70.5980  223.6760 N   0  0  0  0  0  0  0  0  0  0  0  0
  137.8850   71.1960  224.0940 C   0  0  0  0  0  0  0  0  0  0  0  0
  139.7850   70.7710  222.4470 C   0  0  0  0  0  0  0  0  0  0  0  0
  139.7340   69.7140  221.6800 O   0  0  0  0  0  0  0  0  0  0  0  0
  140.5010   71.8910  221.8840 C   0  0  0  0  0  0  0  0  0  0  0  0
  140.1370   73.2250  222.2620 N   0  0  0  0  0  0  0  0  0  0  0  0
  140.5870   74.3960  221.5590 C   0  0  0  0  0  0  0  0  0  0  0  0
  141.3580   74.2820  220.5450 O   0  0  0  0  0  0  0  0  0  0  0  0
  140.1580   75.7340  222.0090 C   0  0  0  0  0  0  0  0  0  0  0  0
  138.8150   75.9810  222.1570 C   0  0  0  0  0  0  0  0  0  0  0  0
  138.4600   77.2610  222.5840 C   0  0  0  0  0  0  0  0  0  0  0  0
  139.4040   78.2350  222.8460 C   0  0  0  0  0  0  0  0  0  0  0  0
  139.0920   79.5040  223.2680 C   0  0  0  0  0  0  0  0  0  0  0  0
  140.1120   80.4260  223.5110 C   0  0  0  0  0  0  0  0  0  0  0  0
  141.4480   80.0910  223.3350 C   0  0  0  0  0  0  0  0  0  0  0  0
  141.7620   78.8150  222.9110 C   0  0  0  0  0  0  0  0  0  0  0  0
  140.7370   77.9320  222.6820 C   0  0  0  0  0  0  0  0  0  0  0  0
  141.0640   76.6930  222.2690 N   0  0  0  0  0  0  0  0  0  0  0  0
  138.8885   68.5121  226.1726 H   0  0  0  0  0  0  0  0  0  0  0  0
  137.9166   68.7076  224.6746 H   0  0  0  0  0  0  0  0  0  0  0  0
  139.3620   67.6410  224.6746 H   0  0  0  0  0  0  0  0  0  0  0  0
  140.7073   69.3785  224.1581 H   0  0  0  0  0  0  0  0  0  0  0  0
  139.2190   69.1200  227.1625 H   0  0  0  0  0  0  0  0  0  0  0  0
  139.9196   70.2771  229.2364 H   0  0  0  0  0  0  0  0  0  0  0  0
  141.3524   72.3040  229.1413 H   0  0  0  0  0  0  0  0  0  0  0  0
  142.0816   73.1570  226.9100 H   0  0  0  0  0  0  0  0  0  0  0  0
  141.3828   72.0055  224.8732 H   0  0  0  0  0  0  0  0  0  0  0  0
  137.8394   71.2179  225.1928 H   0  0  0  0  0  0  0  0  0  0  0  0
  137.8221   72.2226  223.7039 H   0  0  0  0  0  0  0  0  0  0  0  0
  137.0444   70.6034  223.7039 H   0  0  0  0  0  0  0  0  0  0  0  0
  141.5600   71.7606  222.1516 H   0  0  0  0  0  0  0  0  0  0  0  0
  140.2473   71.8478  220.8145 H   0  0  0  0  0  0  0  0  0  0  0  0
  139.5050   73.4310  223.0940 H   0  0  0  0  0  0  0  0  0  0  0  0
  138.0586   75.2097  221.9496 H   0  0  0  0  0  0  0  0  0  0  0  0
  137.3949   77.5022  222.7162 H   0  0  0  0  0  0  0  0  0  0  0  0
  138.0409   79.7935  223.4143 H   0  0  0  0  0  0  0  0  0  0  0  0
  139.8516   81.4398  223.8492 H   0  0  0  0  0  0  0  0  0  0  0  0
  142.2410   80.8280  223.5296 H   0  0  0  0  0  0  0  0  0  0  0  0
  142.8091   78.5135  222.7603 H   0  0  0  0  0  0  0  0  0  0  0  0
  1  2  1  0
  2  3  1  0
  3  4  2  0
  4  5  1  0
  5  6  2  0
  6  7  1  0
  7  8  2  0
  2  9  1  0
  9 10  1  0
  9 11  1  0
 11 12  2  0
 11 13  1  0
 13 14  1  0
 14 15  1  0
 15 16  2  0
 15 17  1  0
 17 18  2  0
 18 19  1  0
 19 20  2  0
 20 21  1  0
 21 22  2  0
 22 23  1  0
 23 24  2  0
 24 25  1  0
 25 26  2  0
  8  3  1  0
 26 17  1  0
 25 20  1  0
  1 27  1  0
  1 28  1  0
  1 29  1  0
  2 30  1  6
  4 31  1  0
  5 32  1  0
  6 33  1  0
  7 34  1  0
  8 35  1  0
 10 36  1  0
 10 37  1  0
 10 38  1  0
 13 39  1  0
 13 40  1  0
 14 41  1  0
 18 42  1  0
 19 43  1  0
 21 44  1  0
 22 45  1  0
 23 46  1  0
 24 47  1  0
M  END
>  <smiles>  (46) 
C[C@H](c1ccccc1)N(C)C(=O)CNC(=O)c1ccc2ccccc2n1

>  <score_type>  (46) 
oracle

>  <origin>  (46) 
autodockgpu

>  <m_score__min__energy>  (46) 
-8.9000000000000004

>  <m_primary>  (46) 
energy

>  <rmsd>  (46) 
9.925216544264979

>  <m_score__min__rmsd>  (46) 
9.925216544264979

>  <meeko>  (46) 
{"free_energy": -8.19, "intermolecular_energy": -9.98, "internal_energy": -1.1, "cluster_size": 28, "cluster_id": 1, "rank_in_cluster": 22}

>  <energy>  (46) 
-7.88

>  <cluster_rmsd>  (46) 
0.0

>  <cluster>  (46) 
3

$$$$

     RDKit          3D

 47 49  0  0  0  0  0  0  0  0999 V2000
  139.1680   68.4950  224.7250 C   0  0  0  0  0  0  0  0  0  0  0  0
  139.7500   69.8690  224.3990 C   0  0  2  0  0  0  0  0  0  0  0  0
  140.1970   70.5300  225.6220 C   0  0  0  0  0  0  0  0  0  0  0  0
  139.8030   69.9820  226.8430 C   0  0  0  0  0  0  0  0  0  0  0  0
  140.1930   70.5670  228.0450 C   0  0  0  0  0  0  0  0  0  0  0  0
  140.9770   71.7010  228.0670 C   0  0  0  0  0  0  0  0  0  0  0  0
  141.3700   72.2480  226.8610 C   0  0  0  0  0  0  0  0  0  0  0  0
  140.9780   71.6600  225.6860 C   0  0  0  0  0  0  0  0  0  0  0  0
  138.8150   70.6710  223.6070 N   0  0  0  0  0  0  0  0  0  0  0  0
  137.5400   70.9550  224.2200 C   0  0  0  0  0  0  0  0  0  0  0  0
  139.2730   71.1130  222.3570 C   0  0  0  0  0  0  0  0  0  0  0  0
  138.7840   70.4310  221.3550 O   0  0  0  0  0  0  0  0  0  0  0  0
  140.1810   72.1710  221.9810 C   0  0  0  0  0  0  0  0  0  0  0  0
  139.8760   73.5250  222.3380 N   0  0  0  0  0  0  0  0  0  0  0  0
  140.5050   74.6650  221.7260 C   0  0  0  0  0  0  0  0  0  0  0  0
  141.3910   74.5020  220.8190 O   0  0  0  0  0  0  0  0  0  0  0  0
  140.1260   76.0270  222.1470 C   0  0  0  0  0  0  0  0  0  0  0  0
  138.7920   76.3350  222.2660 C   0  0  0  0  0  0  0  0  0  0  0  0
  138.4860   77.6360  222.6660 C   0  0  0  0  0  0  0  0  0  0  0  0
  139.4660   78.5720  222.9300 C   0  0  0  0  0  0  0  0  0  0  0  0
  139.2020   79.8600  223.3260 C   0  0  0  0  0  0  0  0  0  0  0  0
  140.2560   80.7410  223.5730 C   0  0  0  0  0  0  0  0  0  0  0  0
  141.5790   80.3460  223.4270 C   0  0  0  0  0  0  0  0  0  0  0  0
  141.8450   79.0510  223.0300 C   0  0  0  0  0  0  0  0  0  0  0  0
  140.7870   78.2090  222.7950 C   0  0  0  0  0  0  0  0  0  0  0  0
  141.0680   76.9510  222.4090 N   0  0  0  0  0  0  0  0  0  0  0  0
  139.1146   68.3690  225.8165 H   0  0  0  0  0  0  0  0  0  0  0  0
  138.1581   68.4135  224.2967 H   0  0  0  0  0  0  0  0  0  0  0  0
  139.8121   67.7129  224.2967 H   0  0  0  0  0  0  0  0  0  0  0  0
  140.6389   69.7435  223.7633 H   0  0  0  0  0  0  0  0  0  0  0  0
  139.1771   69.0775  226.8564 H   0  0  0  0  0  0  0  0  0  0  0  0
  139.8695   70.1160  228.9947 H   0  0  0  0  0  0  0  0  0  0  0  0
  141.2816   72.1581  229.0200 H   0  0  0  0  0  0  0  0  0  0  0  0
  141.9956   73.1526  226.8433 H   0  0  0  0  0  0  0  0  0  0  0  0
  141.3067   72.1180  224.7414 H   0  0  0  0  0  0  0  0  0  0  0  0
  137.6461   70.9314  225.3146 H   0  0  0  0  0  0  0  0  0  0  0  0
  137.1962   71.9517  223.9063 H   0  0  0  0  0  0  0  0  0  0  0  0
  136.8057   70.1984  223.9063 H   0  0  0  0  0  0  0  0  0  0  0  0
  141.1546   71.9326  222.4340 H   0  0  0  0  0  0  0  0  0  0  0  0
  140.1291   72.1765  220.8822 H   0  0  0  0  0  0  0  0  0  0  0  0
  139.1580   73.7710  223.0850 H   0  0  0  0  0  0  0  0  0  0  0  0
  138.0063   75.5942  222.0567 H   0  0  0  0  0  0  0  0  0  0  0  0
  137.4303   77.9253  222.7745 H   0  0  0  0  0  0  0  0  0  0  0  0
  138.1620   80.1968  223.4483 H   0  0  0  0  0  0  0  0  0  0  0  0
  140.0337   81.7705  223.8902 H   0  0  0  0  0  0  0  0  0  0  0  0
  142.3996   81.0516  223.6240 H   0  0  0  0  0  0  0  0  0  0  0  0
  142.8807   78.7021  222.9049 H   0  0  0  0  0  0  0  0  0  0  0  0
  1  2  1  0
  2  3  1  0
  3  4  2  0
  4  5  1  0
  5  6  2  0
  6  7  1  0
  7  8  2  0
  2  9  1  0
  9 10  1  0
  9 11  1  0
 11 12  2  0
 11 13  1  0
 13 14  1  0
 14 15  1  0
 15 16  2  0
 15 17  1  0
 17 18  2  0
 18 19  1  0
 19 20  2  0
 20 21  1  0
 21 22  2  0
 22 23  1  0
 23 24  2  0
 24 25  1  0
 25 26  2  0
  8  3  1  0
 26 17  1  0
 25 20  1  0
  1 27  1  0
  1 28  1  0
  1 29  1  0
  2 30  1  6
  4 31  1  0
  5 32  1  0
  6 33  1  0
  7 34  1  0
  8 35  1  0
 10 36  1  0
 10 37  1  0
 10 38  1  0
 13 39  1  0
 13 40  1  0
 14 41  1  0
 18 42  1  0
 19 43  1  0
 21 44  1  0
 22 45  1  0
 23 46  1  0
 24 47  1  0
M  END
>  <smiles>  (47) 
C[C@H](c1ccccc1)N(C)C(=O)CNC(=O)c1ccc2ccccc2n1

>  <score_type>  (47) 
oracle

>  <origin>  (47) 
autodockgpu

>  <m_score__min__energy>  (47) 
-8.9000000000000004

>  <m_primary>  (47) 
energy

>  <rmsd>  (47) 
9.95167175669561

>  <m_score__min__rmsd>  (47) 
9.95167175669561

>  <meeko>  (47) 
{"free_energy": -8.18, "intermolecular_energy": -9.97, "internal_energy": -1.08, "cluster_size": 28, "cluster_id": 1, "rank_in_cluster": 23}

>  <energy>  (47) 
-7.84

>  <cluster_rmsd>  (47) 
0.8

>  <cluster>  (47) 
3

$$$$

     RDKit          3D

 47 49  0  0  0  0  0  0  0  0999 V2000
  138.9540   77.3130  222.3560 C   0  0  0  0  0  0  0  0  0  0  0  0
  140.4780   77.3060  222.4580 C   0  0  2  0  0  0  0  0  0  0  0  0
  140.9700   78.6530  222.7390 C   0  0  0  0  0  0  0  0  0  0  0  0
  142.1040   78.7810  223.5410 C   0  0  0  0  0  0  0  0  0  0  0  0
  142.6210   80.0370  223.8480 C   0  0  0  0  0  0  0  0  0  0  0  0
  142.0310   81.1890  223.3720 C   0  0  0  0  0  0  0  0  0  0  0  0
  140.9080   81.0680  222.5780 C   0  0  0  0  0  0  0  0  0  0  0  0
  140.4110   79.8240  222.2840 C   0  0  0  0  0  0  0  0  0  0  0  0
  141.0900   76.6930  221.2770 N   0  0  0  0  0  0  0  0  0  0  0  0
  141.8290   77.5780  220.4100 C   0  0  0  0  0  0  0  0  0  0  0  0
  140.9280   75.3070  221.1370 C   0  0  0  0  0  0  0  0  0  0  0  0
  142.0430   74.6800  220.8690 O   0  0  0  0  0  0  0  0  0  0  0  0
  139.7650   74.4560  221.2290 C   0  0  0  0  0  0  0  0  0  0  0  0
  139.6360   73.5530  222.3350 N   0  0  0  0  0  0  0  0  0  0  0  0
  140.4830   72.4060  222.5220 C   0  0  0  0  0  0  0  0  0  0  0  0
  141.4050   72.1420  221.6750 O   0  0  0  0  0  0  0  0  0  0  0  0
  140.2880   71.5310  223.6930 C   0  0  0  0  0  0  0  0  0  0  0  0
  139.6270   70.3380  223.5230 C   0  0  0  0  0  0  0  0  0  0  0  0
  139.4680   69.5460  224.6610 C   0  0  0  0  0  0  0  0  0  0  0  0
  139.9470   69.9340  225.8970 C   0  0  0  0  0  0  0  0  0  0  0  0
  139.8090   69.1820  227.0380 C   0  0  0  0  0  0  0  0  0  0  0  0
  140.3250   69.6510  228.2470 C   0  0  0  0  0  0  0  0  0  0  0  0
  140.9800   70.8730  228.3290 C   0  0  0  0  0  0  0  0  0  0  0  0
  141.1190   71.6290  227.1820 C   0  0  0  0  0  0  0  0  0  0  0  0
  140.6020   71.1400  226.0090 C   0  0  0  0  0  0  0  0  0  0  0  0
  140.7480   71.8930  224.9040 N   0  0  0  0  0  0  0  0  0  0  0  0
  138.5189   77.3150  223.3663 H   0  0  0  0  0  0  0  0  0  0  0  0
  138.6269   78.2127  221.8141 H   0  0  0  0  0  0  0  0  0  0  0  0
  138.6186   76.4164  221.8141 H   0  0  0  0  0  0  0  0  0  0  0  0
  140.7808   76.6737  223.3057 H   0  0  0  0  0  0  0  0  0  0  0  0
  142.5955   77.8795  223.9355 H   0  0  0  0  0  0  0  0  0  0  0  0
  143.5168   80.1117  224.4821 H   0  0  0  0  0  0  0  0  0  0  0  0
  142.4442   82.1782  223.6184 H   0  0  0  0  0  0  0  0  0  0  0  0
  140.4131   81.9671  222.1822 H   0  0  0  0  0  0  0  0  0  0  0  0
  139.5153   79.7594  221.6488 H   0  0  0  0  0  0  0  0  0  0  0  0
  142.4163   78.2814  221.0185 H   0  0  0  0  0  0  0  0  0  0  0  0
  142.5065   76.9881  219.7752 H   0  0  0  0  0  0  0  0  0  0  0  0
  141.1277   78.1394  219.7752 H   0  0  0  0  0  0  0  0  0  0  0  0
  138.8860   75.1170  221.2516 H   0  0  0  0  0  0  0  0  0  0  0  0
  139.8647   73.7880  220.3608 H   0  0  0  0  0  0  0  0  0  0  0  0
  138.8980   73.6780  223.0920 H   0  0  0  0  0  0  0  0  0  0  0  0
  139.2433   70.0238  222.5411 H   0  0  0  0  0  0  0  0  0  0  0  0
  138.9448   68.5826  224.5708 H   0  0  0  0  0  0  0  0  0  0  0  0
  139.2926   68.2115  226.9990 H   0  0  0  0  0  0  0  0  0  0  0  0
  140.2105   69.0398  229.1543 H   0  0  0  0  0  0  0  0  0  0  0  0
  141.3802   71.2315  229.2889 H   0  0  0  0  0  0  0  0  0  0  0  0
  141.6326   72.6014  227.2081 H   0  0  0  0  0  0  0  0  0  0  0  0
  1  2  1  0
  2  3  1  0
  3  4  2  0
  4  5  1  0
  5  6  2  0
  6  7  1  0
  7  8  2  0
  2  9  1  0
  9 10  1  0
  9 11  1  0
 11 12  2  0
 11 13  1  0
 13 14  1  0
 14 15  1  0
 15 16  2  0
 15 17  1  0
 17 18  2  0
 18 19  1  0
 19 20  2  0
 20 21  1  0
 21 22  2  0
 22 23  1  0
 23 24  2  0
 24 25  1  0
 25 26  2  0
  8  3  1  0
 26 17  1  0
 25 20  1  0
  1 27  1  0
  1 28  1  0
  1 29  1  0
  2 30  1  1
  4 31  1  0
  5 32  1  0
  6 33  1  0
  7 34  1  0
  8 35  1  0
 10 36  1  0
 10 37  1  0
 10 38  1  0
 13 39  1  0
 13 40  1  0
 14 41  1  0
 18 42  1  0
 19 43  1  0
 21 44  1  0
 22 45  1  0
 23 46  1  0
 24 47  1  0
M  END
>  <smiles>  (48) 
C[C@H](c1ccccc1)N(C)C(=O)CNC(=O)c1ccc2ccccc2n1

>  <score_type>  (48) 
oracle

>  <origin>  (48) 
autodockgpu

>  <m_score__min__energy>  (48) 
-8.9000000000000004

>  <m_primary>  (48) 
energy

>  <rmsd>  (48) 
4.12663280310868

>  <m_score__min__rmsd>  (48) 
4.12663280310868

>  <meeko>  (48) 
{"free_energy": -8.81, "intermolecular_energy": -10.6, "internal_energy": -0.93, "cluster_size": 28, "cluster_id": 1, "rank_in_cluster": 5}

>  <energy>  (48) 
-7.73

>  <cluster_rmsd>  (48) 
0.43

>  <cluster>  (48) 
3

$$$$

     RDKit          3D

 47 49  0  0  0  0  0  0  0  0999 V2000
  140.4450   78.2410  219.3390 C   0  0  0  0  0  0  0  0  0  0  0  0
  140.3370   77.5660  220.7040 C   0  0  2  0  0  0  0  0  0  0  0  0
  140.9020   78.4280  221.7390 C   0  0  0  0  0  0  0  0  0  0  0  0
  140.0960   78.7590  222.8280 C   0  0  0  0  0  0  0  0  0  0  0  0
  140.5740   79.5790  223.8460 C   0  0  0  0  0  0  0  0  0  0  0  0
  141.8560   80.0890  223.8100 C   0  0  0  0  0  0  0  0  0  0  0  0
  142.6590   79.7640  222.7350 C   0  0  0  0  0  0  0  0  0  0  0  0
  142.1730   78.9550  221.7410 C   0  0  0  0  0  0  0  0  0  0  0  0
  140.9140   76.2210  220.6820 N   0  0  0  0  0  0  0  0  0  0  0  0
  142.0640   76.0330  219.8300 C   0  0  0  0  0  0  0  0  0  0  0  0
  140.3160   75.2690  221.5220 C   0  0  0  0  0  0  0  0  0  0  0  0
  139.9330   75.7610  222.6710 O   0  0  0  0  0  0  0  0  0  0  0  0
  140.0550   73.8590  221.3520 C   0  0  0  0  0  0  0  0  0  0  0  0
  139.9840   73.0100  222.5050 N   0  0  0  0  0  0  0  0  0  0  0  0
  140.0060   71.5730  222.4300 C   0  0  0  0  0  0  0  0  0  0  0  0
  140.0840   70.9880  221.2960 O   0  0  0  0  0  0  0  0  0  0  0  0
  139.9370   70.7730  223.6670 C   0  0  0  0  0  0  0  0  0  0  0  0
  139.4120   69.5040  223.6040 C   0  0  0  0  0  0  0  0  0  0  0  0
  139.3680   68.7880  224.8000 C   0  0  0  0  0  0  0  0  0  0  0  0
  139.8270   69.3180  225.9900 C   0  0  0  0  0  0  0  0  0  0  0  0
  139.8010   68.6420  227.1850 C   0  0  0  0  0  0  0  0  0  0  0  0
  140.2870   69.2550  228.3410 C   0  0  0  0  0  0  0  0  0  0  0  0
  140.8020   70.5450  228.3150 C   0  0  0  0  0  0  0  0  0  0  0  0
  140.8290   71.2240  227.1130 C   0  0  0  0  0  0  0  0  0  0  0  0
  140.3440   70.5940  225.9950 C   0  0  0  0  0  0  0  0  0  0  0  0
  140.3800   71.2730  224.8340 N   0  0  0  0  0  0  0  0  0  0  0  0
  140.6175   79.3188  219.4755 H   0  0  0  0  0  0  0  0  0  0  0  0
  141.2846   77.8034  218.7790 H   0  0  0  0  0  0  0  0  0  0  0  0
  139.5108   78.0872  218.7790 H   0  0  0  0  0  0  0  0  0  0  0  0
  139.2752   77.4246  220.9540 H   0  0  0  0  0  0  0  0  0  0  0  0
  139.0697   78.3671  222.8831 H   0  0  0  0  0  0  0  0  0  0  0  0
  139.9184   79.8250  224.6943 H   0  0  0  0  0  0  0  0  0  0  0  0
  142.2282   80.7375  224.6168 H   0  0  0  0  0  0  0  0  0  0  0  0
  143.6861   80.1533  222.6764 H   0  0  0  0  0  0  0  0  0  0  0  0
  142.8364   78.7135  220.8974 H   0  0  0  0  0  0  0  0  0  0  0  0
  142.9602   75.8865  220.4508 H   0  0  0  0  0  0  0  0  0  0  0  0
  141.9091   75.1482  219.1950 H   0  0  0  0  0  0  0  0  0  0  0  0
  142.1990   76.9210  219.1950 H   0  0  0  0  0  0  0  0  0  0  0  0
  139.0899   73.7728  220.8313 H   0  0  0  0  0  0  0  0  0  0  0  0
  140.9444   73.4944  220.8172 H   0  0  0  0  0  0  0  0  0  0  0  0
  139.9110   73.3950  223.4950 H   0  0  0  0  0  0  0  0  0  0  0  0
  139.0457   69.0756  222.6594 H   0  0  0  0  0  0  0  0  0  0  0  0
  138.9545   67.7687  224.7955 H   0  0  0  0  0  0  0  0  0  0  0  0
  139.3980   67.6195  227.2311 H   0  0  0  0  0  0  0  0  0  0  0  0
  140.2617   68.7048  229.2932 H   0  0  0  0  0  0  0  0  0  0  0  0
  141.1808   71.0162  229.2339 H   0  0  0  0  0  0  0  0  0  0  0  0
  141.2301   72.2465  227.0533 H   0  0  0  0  0  0  0  0  0  0  0  0
  1  2  1  0
  2  3  1  0
  3  4  2  0
  4  5  1  0
  5  6  2  0
  6  7  1  0
  7  8  2  0
  2  9  1  0
  9 10  1  0
  9 11  1  0
 11 12  2  0
 11 13  1  0
 13 14  1  0
 14 15  1  0
 15 16  2  0
 15 17  1  0
 17 18  2  0
 18 19  1  0
 19 20  2  0
 20 21  1  0
 21 22  2  0
 22 23  1  0
 23 24  2  0
 24 25  1  0
 25 26  2  0
  8  3  1  0
 26 17  1  0
 25 20  1  0
  1 27  1  0
  1 28  1  0
  1 29  1  0
  2 30  1  1
  4 31  1  0
  5 32  1  0
  6 33  1  0
  7 34  1  0
  8 35  1  0
 10 36  1  0
 10 37  1  0
 10 38  1  0
 13 39  1  0
 13 40  1  0
 14 41  1  0
 18 42  1  0
 19 43  1  0
 21 44  1  0
 22 45  1  0
 23 46  1  0
 24 47  1  0
M  END
>  <smiles>  (49) 
C[C@H](c1ccccc1)N(C)C(=O)CNC(=O)c1ccc2ccccc2n1

>  <score_type>  (49) 
oracle

>  <origin>  (49) 
autodockgpu

>  <m_score__min__energy>  (49) 
-8.9000000000000004

>  <m_primary>  (49) 
energy

>  <rmsd>  (49) 
4.156407502862185

>  <m_score__min__rmsd>  (49) 
4.156407502862185

>  <meeko>  (49) 
{"free_energy": -8.11, "intermolecular_energy": -9.9, "internal_energy": -1.47, "cluster_size": 17, "cluster_id": 2, "rank_in_cluster": 14}

>  <energy>  (49) 
-7.54

>  <cluster_rmsd>  (49) 
0.0

>  <cluster>  (49) 
4

$$$$

     RDKit          3D

 47 49  0  0  0  0  0  0  0  0999 V2000
  137.9370   78.3650  222.8410 C   0  0  0  0  0  0  0  0  0  0  0  0
  139.3670   77.8410  222.7210 C   0  0  2  0  0  0  0  0  0  0  0  0
  140.3200   78.9290  222.9280 C   0  0  0  0  0  0  0  0  0  0  0  0
  141.6350   78.5930  223.2510 C   0  0  0  0  0  0  0  0  0  0  0  0
  142.5910   79.5830  223.4640 C   0  0  0  0  0  0  0  0  0  0  0  0
  142.2700   80.9210  223.3640 C   0  0  0  0  0  0  0  0  0  0  0  0
  140.9700   81.2590  223.0440 C   0  0  0  0  0  0  0  0  0  0  0  0
  140.0400   80.2720  222.8370 C   0  0  0  0  0  0  0  0  0  0  0  0
  139.5670   77.1180  221.4650 N   0  0  0  0  0  0  0  0  0  0  0  0
  139.2040   77.8200  220.2590 C   0  0  0  0  0  0  0  0  0  0  0  0
  140.1300   75.8360  221.5640 C   0  0  0  0  0  0  0  0  0  0  0  0
  141.3700   75.8460  221.9790 O   0  0  0  0  0  0  0  0  0  0  0  0
  139.5960   74.5230  221.2890 C   0  0  0  0  0  0  0  0  0  0  0  0
  139.4550   73.5790  222.3590 N   0  0  0  0  0  0  0  0  0  0  0  0
  140.4140   72.5420  222.6300 C   0  0  0  0  0  0  0  0  0  0  0  0
  141.4550   72.4200  221.8980 O   0  0  0  0  0  0  0  0  0  0  0  0
  140.1960   71.6170  223.7570 C   0  0  0  0  0  0  0  0  0  0  0  0
  139.4640   70.4740  223.5420 C   0  0  0  0  0  0  0  0  0  0  0  0
  139.2860   69.6320  224.6400 C   0  0  0  0  0  0  0  0  0  0  0  0
  139.8150   69.9240  225.8820 C   0  0  0  0  0  0  0  0  0  0  0  0
  139.6600   69.1190  226.9840 C   0  0  0  0  0  0  0  0  0  0  0  0
  140.2300   69.4910  228.2020 C   0  0  0  0  0  0  0  0  0  0  0  0
  140.9560   70.6680  228.3320 C   0  0  0  0  0  0  0  0  0  0  0  0
  141.1120   71.4770  227.2240 C   0  0  0  0  0  0  0  0  0  0  0  0
  140.5400   71.0830  226.0410 C   0  0  0  0  0  0  0  0  0  0  0  0
  140.7040   71.8860  224.9740 N   0  0  0  0  0  0  0  0  0  0  0  0
  137.6703   78.4627  223.9037 H   0  0  0  0  0  0  0  0  0  0  0  0
  137.8645   79.3481  222.3529 H   0  0  0  0  0  0  0  0  0  0  0  0
  137.2465   77.6615  222.3529 H   0  0  0  0  0  0  0  0  0  0  0  0
  139.5501   77.1025  223.5154 H   0  0  0  0  0  0  0  0  0  0  0  0
  141.9199   77.5341  223.3384 H   0  0  0  0  0  0  0  0  0  0  0  0
  143.6215   79.2927  223.7167 H   0  0  0  0  0  0  0  0  0  0  0  0
  143.0296   81.6981  223.5347 H   0  0  0  0  0  0  0  0  0  0  0  0
  140.6809   82.3166  222.9553 H   0  0  0  0  0  0  0  0  0  0  0  0
  139.0124   80.5720  222.5840 H   0  0  0  0  0  0  0  0  0  0  0  0
  138.7133   78.7690  220.5208 H   0  0  0  0  0  0  0  0  0  0  0  0
  140.1087   78.0258  219.6681 H   0  0  0  0  0  0  0  0  0  0  0  0
  138.5131   77.2007  219.6681 H   0  0  0  0  0  0  0  0  0  0  0  0
  138.5948   74.6690  220.8573 H   0  0  0  0  0  0  0  0  0  0  0  0
  140.3574   74.0656  220.6401 H   0  0  0  0  0  0  0  0  0  0  0  0
  138.6230   73.5900  223.0230 H   0  0  0  0  0  0  0  0  0  0  0  0
  139.0404   70.2354  222.5553 H   0  0  0  0  0  0  0  0  0  0  0  0
  138.7059   68.7061  224.5126 H   0  0  0  0  0  0  0  0  0  0  0  0
  139.0876   68.1829  226.9065 H   0  0  0  0  0  0  0  0  0  0  0  0
  140.1017   68.8382  229.0780 H   0  0  0  0  0  0  0  0  0  0  0  0
  141.3981   70.9501  229.2989 H   0  0  0  0  0  0  0  0  0  0  0  0
  141.6818   72.4157  227.2884 H   0  0  0  0  0  0  0  0  0  0  0  0
  1  2  1  0
  2  3  1  0
  3  4  2  0
  4  5  1  0
  5  6  2  0
  6  7  1  0
  7  8  2  0
  2  9  1  0
  9 10  1  0
  9 11  1  0
 11 12  2  0
 11 13  1  0
 13 14  1  0
 14 15  1  0
 15 16  2  0
 15 17  1  0
 17 18  2  0
 18 19  1  0
 19 20  2  0
 20 21  1  0
 21 22  2  0
 22 23  1  0
 23 24  2  0
 24 25  1  0
 25 26  2  0
  8  3  1  0
 26 17  1  0
 25 20  1  0
  1 27  1  0
  1 28  1  0
  1 29  1  0
  2 30  1  1
  4 31  1  0
  5 32  1  0
  6 33  1  0
  7 34  1  0
  8 35  1  0
 10 36  1  0
 10 37  1  0
 10 38  1  0
 13 39  1  0
 13 40  1  0
 14 41  1  0
 18 42  1  0
 19 43  1  0
 21 44  1  0
 22 45  1  0
 23 46  1  0
 24 47  1  0
M  END
>  <smiles>  (50) 
C[C@H](c1ccccc1)N(C)C(=O)CNC(=O)c1ccc2ccccc2n1

>  <score_type>  (50) 
oracle

>  <origin>  (50) 
autodockgpu

>  <m_score__min__energy>  (50) 
-8.9000000000000004

>  <m_primary>  (50) 
energy

>  <rmsd>  (50) 
4.196409973615217

>  <m_score__min__rmsd>  (50) 
4.196409973615217

>  <meeko>  (50) 
{"free_energy": -8.48, "intermolecular_energy": -10.27, "internal_energy": -1.02, "cluster_size": 28, "cluster_id": 1, "rank_in_cluster": 19}

>  <energy>  (50) 
-7.46

>  <cluster_rmsd>  (50) 
0.0

>  <cluster>  (50) 
5

$$$$
