
     RDKit          3D

 55 58  0  0  0  0  0  0  0  0999 V2000
  144.0860   71.6450  220.8820 N   0  0  0  0  0  0  0  0  0  0  0  0
  145.0870   72.9500  220.3680 S   0  0  0  0  0  0  0  0  0  0  0  0
  145.8500   73.5560  221.5060 O   0  0  0  0  0  0  0  0  0  0  0  0
  146.0400   72.5270  219.2870 O   0  0  0  0  0  0  0  0  0  0  0  0
  144.0800   74.2030  219.6850 C   0  0  0  0  0  0  0  0  0  0  0  0
  144.1590   75.5170  220.0910 C   0  0  0  0  0  0  0  0  0  0  0  0
  143.3490   76.4810  219.5330 C   0  0  0  0  0  0  0  0  0  0  0  0
  142.4170   76.1900  218.5370 C   0  0  0  0  0  0  0  0  0  0  0  0
  141.5770   77.2330  217.9690 C   0  0  0  0  0  0  0  0  0  0  0  0
  140.5130   77.7400  218.5580 C   0  0  0  0  0  0  0  0  0  0  0  0
  140.5770   78.1200  219.9650 C   0  0  0  0  0  0  0  0  0  0  0  0
  141.4930   79.0610  220.3090 N   0  0  0  0  0  0  0  0  0  0  0  0
  141.6480   79.4870  221.5670 C   0  0  0  0  0  0  0  0  0  0  0  0
  142.5880   80.4470  221.9050 C   0  0  0  0  0  0  0  0  0  0  0  0
  142.7250   80.8700  223.2140 C   0  0  0  0  0  0  0  0  0  0  0  0
  141.9030   80.3110  224.1760 C   0  0  0  0  0  0  0  0  0  0  0  0
  140.9660   79.3540  223.8420 C   0  0  0  0  0  0  0  0  0  0  0  0
  140.8360   78.9380  222.5270 C   0  0  0  0  0  0  0  0  0  0  0  0
  139.9110   77.9830  222.1490 C   0  0  0  0  0  0  0  0  0  0  0  0
  139.1930   77.5160  223.0680 O   0  0  0  0  0  0  0  0  0  0  0  0
  139.7590   77.5600  220.9030 N   0  0  0  0  0  0  0  0  0  0  0  0
  138.8270   76.5540  220.4530 C   0  0  0  0  0  0  0  0  0  0  0  0
  139.4100   75.1740  220.5040 C   0  0  0  0  0  0  0  0  0  0  0  0
  138.3680   74.2670  221.1440 C   0  0  0  0  0  0  0  0  0  0  0  0
  138.9680   72.8740  221.1720 C   0  0  0  0  0  0  0  0  0  0  0  0
  140.1200   72.8910  222.1300 C   0  0  0  0  0  0  0  0  0  0  0  0
  141.1960   73.7960  221.5730 C   0  0  0  0  0  0  0  0  0  0  0  0
  140.6680   75.1970  221.3300 C   0  0  0  0  0  0  0  0  0  0  0  0
  142.3590   74.8670  218.1480 C   0  0  0  0  0  0  0  0  0  0  0  0
  143.1670   73.8990  218.7060 C   0  0  0  0  0  0  0  0  0  0  0  0
  143.1550   72.0690  221.1210 H   0  0  0  0  0  0  0  0  0  0  0  0
  144.4550   71.3030  221.8120 H   0  0  0  0  0  0  0  0  0  0  0  0
  144.8796   75.8004  220.8723 H   0  0  0  0  0  0  0  0  0  0  0  0
  143.4405   77.5188  219.8859 H   0  0  0  0  0  0  0  0  0  0  0  0
  141.8492   77.6260  216.9783 H   0  0  0  0  0  0  0  0  0  0  0  0
  139.5802   77.8762  217.9911 H   0  0  0  0  0  0  0  0  0  0  0  0
  143.2320   80.8771  221.1237 H   0  0  0  0  0  0  0  0  0  0  0  0
  143.4699   81.6329  223.4842 H   0  0  0  0  0  0  0  0  0  0  0  0
  141.9975   80.6341  225.2232 H   0  0  0  0  0  0  0  0  0  0  0  0
  140.3215   78.9210  224.6212 H   0  0  0  0  0  0  0  0  0  0  0  0
  137.9352   76.5851  221.0962 H   0  0  0  0  0  0  0  0  0  0  0  0
  138.5748   76.7740  219.4051 H   0  0  0  0  0  0  0  0  0  0  0  0
  139.6654   74.8082  219.4985 H   0  0  0  0  0  0  0  0  0  0  0  0
  138.1461   74.6058  222.1667 H   0  0  0  0  0  0  0  0  0  0  0  0
  137.4253   74.2826  220.5774 H   0  0  0  0  0  0  0  0  0  0  0  0
  138.2129   72.1479  221.5076 H   0  0  0  0  0  0  0  0  0  0  0  0
  139.3078   72.5816  220.1675 H   0  0  0  0  0  0  0  0  0  0  0  0
  139.7847   73.2710  223.1063 H   0  0  0  0  0  0  0  0  0  0  0  0
  140.5154   71.8729  222.2611 H   0  0  0  0  0  0  0  0  0  0  0  0
  142.0283   73.8464  222.2904 H   0  0  0  0  0  0  0  0  0  0  0  0
  141.5344   73.3815  220.6119 H   0  0  0  0  0  0  0  0  0  0  0  0
  140.4515   75.6709  222.2988 H   0  0  0  0  0  0  0  0  0  0  0  0
  141.4330   75.7648  220.7801 H   0  0  0  0  0  0  0  0  0  0  0  0
  141.6432   74.5746  217.3656 H   0  0  0  0  0  0  0  0  0  0  0  0
  143.0779   72.8591  218.3586 H   0  0  0  0  0  0  0  0  0  0  0  0
  1  2  1  0
  2  3  2  0
  2  4  2  0
  2  5  1  0
  5  6  2  0
  6  7  1  0
  7  8  2  0
  8  9  1  0
  9 10  2  0
 10 11  1  0
 11 12  2  0
 12 13  1  0
 13 14  2  0
 14 15  1  0
 15 16  2  0
 16 17  1  0
 17 18  2  0
 18 19  1  0
 19 20  2  0
 19 21  1  0
 21 22  1  0
 22 23  1  0
 23 24  1  0
 24 25  1  0
 25 26  1  0
 26 27  1  0
 27 28  1  0
  8 29  1  0
 29 30  2  0
 30  5  1  0
 21 11  1  0
 28 23  1  0
 18 13  1  0
  1 31  1  0
  1 32  1  0
  6 33  1  0
  7 34  1  0
  9 35  1  0
 10 36  1  0
 14 37  1  0
 15 38  1  0
 16 39  1  0
 17 40  1  0
 22 41  1  0
 22 42  1  0
 23 43  1  0
 24 44  1  0
 24 45  1  0
 25 46  1  0
 25 47  1  0
 26 48  1  0
 26 49  1  0
 27 50  1  0
 27 51  1  0
 28 52  1  0
 28 53  1  0
 29 54  1  0
 30 55  1  0
M  END
>  <smiles>  (1) 
NS(=O)(=O)c1ccc(/C=C/c2nc3ccccc3c(=O)n2CC2CCCCC2)cc1

>  <score_type>  (1) 
oracle

>  <origin>  (1) 
autodockgpu

>  <m_score__min__energy>  (1) 
-9.2400000000000002

>  <m_primary>  (1) 
energy

>  <rmsd>  (1) 
4.486028867723865

>  <m_score__min__rmsd>  (1) 
4.486028867723865

>  <meeko>  (1) 
{"free_energy": -7.17, "intermolecular_energy": -9.26, "internal_energy": -2.48, "cluster_size": 5, "cluster_id": 10, "rank_in_cluster": 5}

>  <energy>  (1) 
-9.24

>  <cluster_rmsd>  (1) 
0.0

>  <cluster>  (1) 
1

$$$$

     RDKit          3D

 55 58  0  0  0  0  0  0  0  0999 V2000
  145.9980   71.1210  219.7080 N   0  0  0  0  0  0  0  0  0  0  0  0
  145.6900   72.7330  219.1840 S   0  0  0  0  0  0  0  0  0  0  0  0
  146.6990   73.7020  219.7220 O   0  0  0  0  0  0  0  0  0  0  0  0
  145.6410   72.8310  217.6870 O   0  0  0  0  0  0  0  0  0  0  0  0
  144.1210   73.2300  219.7700 C   0  0  0  0  0  0  0  0  0  0  0  0
  143.0030   72.4340  219.6510 C   0  0  0  0  0  0  0  0  0  0  0  0
  141.7800   72.8540  220.1230 C   0  0  0  0  0  0  0  0  0  0  0  0
  141.6020   74.0920  220.7410 C   0  0  0  0  0  0  0  0  0  0  0  0
  140.2960   74.5060  221.2280 C   0  0  0  0  0  0  0  0  0  0  0  0
  139.6970   75.6330  220.8980 C   0  0  0  0  0  0  0  0  0  0  0  0
  140.3990   76.9000  221.0670 C   0  0  0  0  0  0  0  0  0  0  0  0
  140.6560   77.3000  222.3390 N   0  0  0  0  0  0  0  0  0  0  0  0
  141.2890   78.4440  222.6190 C   0  0  0  0  0  0  0  0  0  0  0  0
  141.5440   78.8410  223.9210 C   0  0  0  0  0  0  0  0  0  0  0  0
  142.2010   80.0290  224.1810 C   0  0  0  0  0  0  0  0  0  0  0  0
  142.5970   80.8100  223.1100 C   0  0  0  0  0  0  0  0  0  0  0  0
  142.3440   80.4170  221.8110 C   0  0  0  0  0  0  0  0  0  0  0  0
  141.6850   79.2250  221.5620 C   0  0  0  0  0  0  0  0  0  0  0  0
  141.4120   78.7940  220.2770 C   0  0  0  0  0  0  0  0  0  0  0  0
  141.7990   79.5460  219.3480 O   0  0  0  0  0  0  0  0  0  0  0  0
  140.7840   77.6610  220.0000 N   0  0  0  0  0  0  0  0  0  0  0  0
  140.4540   77.1700  218.6840 C   0  0  0  0  0  0  0  0  0  0  0  0
  141.4590   76.1810  218.1760 C   0  0  0  0  0  0  0  0  0  0  0  0
  142.6940   76.9680  217.7570 C   0  0  0  0  0  0  0  0  0  0  0  0
  143.7050   75.9500  217.2610 C   0  0  0  0  0  0  0  0  0  0  0  0
  143.1690   75.3520  215.9960 C   0  0  0  0  0  0  0  0  0  0  0  0
  141.9180   74.5680  216.3270 C   0  0  0  0  0  0  0  0  0  0  0  0
  140.8780   75.4450  216.9980 C   0  0  0  0  0  0  0  0  0  0  0  0
  142.7380   74.8690  220.8490 C   0  0  0  0  0  0  0  0  0  0  0  0
  143.9640   74.4510  220.3760 C   0  0  0  0  0  0  0  0  0  0  0  0
  145.1160   70.7920  220.1730 H   0  0  0  0  0  0  0  0  0  0  0  0
  146.6990   71.1680  220.4980 H   0  0  0  0  0  0  0  0  0  0  0  0
  143.0889   71.4477  219.1715 H   0  0  0  0  0  0  0  0  0  0  0  0
  140.9112   72.1891  220.0087 H   0  0  0  0  0  0  0  0  0  0  0  0
  139.7710   73.8315  221.9204 H   0  0  0  0  0  0  0  0  0  0  0  0
  138.6728   75.6178  220.4971 H   0  0  0  0  0  0  0  0  0  0  0  0
  141.2202   78.2040  224.7573 H   0  0  0  0  0  0  0  0  0  0  0  0
  142.4041   80.3458  225.2146 H   0  0  0  0  0  0  0  0  0  0  0  0
  143.1215   81.7588  223.2963 H   0  0  0  0  0  0  0  0  0  0  0  0
  142.6664   81.0518  220.9725 H   0  0  0  0  0  0  0  0  0  0  0  0
  139.4685   76.6831  218.7252 H   0  0  0  0  0  0  0  0  0  0  0  0
  140.4502   78.0285  217.9963 H   0  0  0  0  0  0  0  0  0  0  0  0
  141.7228   75.4426  218.9475 H   0  0  0  0  0  0  0  0  0  0  0  0
  142.4400   77.6744  216.9529 H   0  0  0  0  0  0  0  0  0  0  0  0
  143.0972   77.5530  218.5968 H   0  0  0  0  0  0  0  0  0  0  0  0
  144.6675   76.4443  217.0629 H   0  0  0  0  0  0  0  0  0  0  0  0
  143.8663   75.1681  218.0177 H   0  0  0  0  0  0  0  0  0  0  0  0
  142.9270   76.1521  215.2810 H   0  0  0  0  0  0  0  0  0  0  0  0
  143.9212   74.6880  215.5452 H   0  0  0  0  0  0  0  0  0  0  0  0
  141.4955   74.1587  215.3975 H   0  0  0  0  0  0  0  0  0  0  0  0
  142.1893   73.7590  217.0211 H   0  0  0  0  0  0  0  0  0  0  0  0
  140.5023   76.1772  216.2682 H   0  0  0  0  0  0  0  0  0  0  0  0
  140.0626   74.8012  217.3594 H   0  0  0  0  0  0  0  0  0  0  0  0
  142.6626   75.8558  221.3290 H   0  0  0  0  0  0  0  0  0  0  0  0
  144.8364   75.1117  220.4871 H   0  0  0  0  0  0  0  0  0  0  0  0
  1  2  1  0
  2  3  2  0
  2  4  2  0
  2  5  1  0
  5  6  2  0
  6  7  1  0
  7  8  2  0
  8  9  1  0
  9 10  2  0
 10 11  1  0
 11 12  2  0
 12 13  1  0
 13 14  2  0
 14 15  1  0
 15 16  2  0
 16 17  1  0
 17 18  2  0
 18 19  1  0
 19 20  2  0
 19 21  1  0
 21 22  1  0
 22 23  1  0
 23 24  1  0
 24 25  1  0
 25 26  1  0
 26 27  1  0
 27 28  1  0
  8 29  1  0
 29 30  2  0
 30  5  1  0
 21 11  1  0
 28 23  1  0
 18 13  1  0
  1 31  1  0
  1 32  1  0
  6 33  1  0
  7 34  1  0
  9 35  1  0
 10 36  1  0
 14 37  1  0
 15 38  1  0
 16 39  1  0
 17 40  1  0
 22 41  1  0
 22 42  1  0
 23 43  1  0
 24 44  1  0
 24 45  1  0
 25 46  1  0
 25 47  1  0
 26 48  1  0
 26 49  1  0
 27 50  1  0
 27 51  1  0
 28 52  1  0
 28 53  1  0
 29 54  1  0
 30 55  1  0
M  END
>  <smiles>  (2) 
NS(=O)(=O)c1ccc(/C=C/c2nc3ccccc3c(=O)n2CC2CCCCC2)cc1

>  <score_type>  (2) 
oracle

>  <origin>  (2) 
autodockgpu

>  <m_score__min__energy>  (2) 
-9.2400000000000002

>  <m_primary>  (2) 
energy

>  <rmsd>  (2) 
3.785812276323658

>  <m_score__min__rmsd>  (2) 
3.785812276323658

>  <meeko>  (2) 
{"free_energy": -7.03, "intermolecular_energy": -9.12, "internal_energy": -2.62, "cluster_size": 6, "cluster_id": 9, "rank_in_cluster": 6}

>  <energy>  (2) 
-9.0

>  <cluster_rmsd>  (2) 
0.76

>  <cluster>  (2) 
1

$$$$

     RDKit          3D

 55 58  0  0  0  0  0  0  0  0999 V2000
  145.1930   74.1190  217.5340 N   0  0  0  0  0  0  0  0  0  0  0  0
  145.4370   73.0000  218.8220 S   0  0  0  0  0  0  0  0  0  0  0  0
  145.6680   71.6070  218.3200 O   0  0  0  0  0  0  0  0  0  0  0  0
  146.5740   73.4140  219.7110 O   0  0  0  0  0  0  0  0  0  0  0  0
  144.0050   72.9660  219.8220 C   0  0  0  0  0  0  0  0  0  0  0  0
  143.5450   71.8100  220.4120 C   0  0  0  0  0  0  0  0  0  0  0  0
  142.4120   71.8170  221.1960 C   0  0  0  0  0  0  0  0  0  0  0  0
  141.6760   72.9770  221.4360 C   0  0  0  0  0  0  0  0  0  0  0  0
  140.4840   72.9490  222.2690 C   0  0  0  0  0  0  0  0  0  0  0  0
  139.7040   71.8980  222.4220 C   0  0  0  0  0  0  0  0  0  0  0  0
  139.7490   71.1390  223.6680 C   0  0  0  0  0  0  0  0  0  0  0  0
  140.3350   71.7380  224.7360 N   0  0  0  0  0  0  0  0  0  0  0  0
  140.4400   71.1410  225.9270 C   0  0  0  0  0  0  0  0  0  0  0  0
  141.0410   71.7640  227.0090 C   0  0  0  0  0  0  0  0  0  0  0  0
  141.1340   71.1220  228.2300 C   0  0  0  0  0  0  0  0  0  0  0  0
  140.6140   69.8460  228.3440 C   0  0  0  0  0  0  0  0  0  0  0  0
  140.0140   69.2230  227.2680 C   0  0  0  0  0  0  0  0  0  0  0  0
  139.9260   69.8740  226.0490 C   0  0  0  0  0  0  0  0  0  0  0  0
  139.3340   69.2880  224.9460 C   0  0  0  0  0  0  0  0  0  0  0  0
  138.8780   68.1290  225.1150 O   0  0  0  0  0  0  0  0  0  0  0  0
  139.2320   69.8790  223.7660 N   0  0  0  0  0  0  0  0  0  0  0  0
  138.6440   69.3110  222.5760 C   0  0  0  0  0  0  0  0  0  0  0  0
  137.1570   69.4920  222.5330 C   0  0  0  0  0  0  0  0  0  0  0  0
  136.7650   70.3070  223.7570 C   0  0  0  0  0  0  0  0  0  0  0  0
  135.2610   70.4930  223.6870 C   0  0  0  0  0  0  0  0  0  0  0  0
  134.6240   69.1510  223.8840 C   0  0  0  0  0  0  0  0  0  0  0  0
  134.9880   68.2680  222.7110 C   0  0  0  0  0  0  0  0  0  0  0  0
  136.4920   68.1410  222.5630 C   0  0  0  0  0  0  0  0  0  0  0  0
  142.1600   74.1210  220.8350 C   0  0  0  0  0  0  0  0  0  0  0  0
  143.2930   74.1170  220.0490 C   0  0  0  0  0  0  0  0  0  0  0  0
  146.1500   74.4070  217.2130 H   0  0  0  0  0  0  0  0  0  0  0  0
  144.7860   75.0020  217.9480 H   0  0  0  0  0  0  0  0  0  0  0  0
  144.0899   70.8674  220.2552 H   0  0  0  0  0  0  0  0  0  0  0  0
  142.0756   70.8729  221.6493 H   0  0  0  0  0  0  0  0  0  0  0  0
  140.2150   73.8690  222.8087 H   0  0  0  0  0  0  0  0  0  0  0  0
  139.0220   71.5940  221.6143 H   0  0  0  0  0  0  0  0  0  0  0  0
  141.4482   72.7795  226.8954 H   0  0  0  0  0  0  0  0  0  0  0  0
  141.6104   71.6148  229.0903 H   0  0  0  0  0  0  0  0  0  0  0  0
  140.6794   69.3189  229.3073 H   0  0  0  0  0  0  0  0  0  0  0  0
  139.6052   68.2079  227.3792 H   0  0  0  0  0  0  0  0  0  0  0  0
  139.0853   69.8005  221.6953 H   0  0  0  0  0  0  0  0  0  0  0  0
  138.8510   68.2307  222.5817 H   0  0  0  0  0  0  0  0  0  0  0  0
  136.8417   70.0107  221.6157 H   0  0  0  0  0  0  0  0  0  0  0  0
  137.0389   69.7681  224.6760 H   0  0  0  0  0  0  0  0  0  0  0  0
  137.2854   71.2760  223.7730 H   0  0  0  0  0  0  0  0  0  0  0  0
  134.9321   71.1831  224.4779 H   0  0  0  0  0  0  0  0  0  0  0  0
  134.9711   70.9169  222.7143 H   0  0  0  0  0  0  0  0  0  0  0  0
  134.9925   68.6990  224.8167 H   0  0  0  0  0  0  0  0  0  0  0  0
  133.5312   69.2592  223.9485 H   0  0  0  0  0  0  0  0  0  0  0  0
  134.5577   67.2679  222.8681 H   0  0  0  0  0  0  0  0  0  0  0  0
  134.5862   68.7248  221.7946 H   0  0  0  0  0  0  0  0  0  0  0  0
  136.8880   67.5659  223.4130 H   0  0  0  0  0  0  0  0  0  0  0  0
  136.7045   67.6293  221.6128 H   0  0  0  0  0  0  0  0  0  0  0  0
  141.6234   75.0690  220.9882 H   0  0  0  0  0  0  0  0  0  0  0  0
  143.6340   75.0583  219.5933 H   0  0  0  0  0  0  0  0  0  0  0  0
  1  2  1  0
  2  3  2  0
  2  4  2  0
  2  5  1  0
  5  6  2  0
  6  7  1  0
  7  8  2  0
  8  9  1  0
  9 10  2  0
 10 11  1  0
 11 12  2  0
 12 13  1  0
 13 14  2  0
 14 15  1  0
 15 16  2  0
 16 17  1  0
 17 18  2  0
 18 19  1  0
 19 20  2  0
 19 21  1  0
 21 22  1  0
 22 23  1  0
 23 24  1  0
 24 25  1  0
 25 26  1  0
 26 27  1  0
 27 28  1  0
  8 29  1  0
 29 30  2  0
 30  5  1  0
 21 11  1  0
 28 23  1  0
 18 13  1  0
  1 31  1  0
  1 32  1  0
  6 33  1  0
  7 34  1  0
  9 35  1  0
 10 36  1  0
 14 37  1  0
 15 38  1  0
 16 39  1  0
 17 40  1  0
 22 41  1  0
 22 42  1  0
 23 43  1  0
 24 44  1  0
 24 45  1  0
 25 46  1  0
 25 47  1  0
 26 48  1  0
 26 49  1  0
 27 50  1  0
 27 51  1  0
 28 52  1  0
 28 53  1  0
 29 54  1  0
 30 55  1  0
M  END
>  <smiles>  (3) 
NS(=O)(=O)c1ccc(/C=C/c2nc3ccccc3c(=O)n2CC2CCCCC2)cc1

>  <score_type>  (3) 
oracle

>  <origin>  (3) 
autodockgpu

>  <m_score__min__energy>  (3) 
-9.2400000000000002

>  <m_primary>  (3) 
energy

>  <rmsd>  (3) 
11.298079821268793

>  <m_score__min__rmsd>  (3) 
11.298079821268793

>  <meeko>  (3) 
{"free_energy": -9.0, "intermolecular_energy": -11.09, "internal_energy": -1.32, "cluster_size": 16, "cluster_id": 1, "rank_in_cluster": 2}

>  <energy>  (3) 
-8.99

>  <cluster_rmsd>  (3) 
0.84

>  <cluster>  (3) 
1

$$$$

     RDKit          3D

 55 58  0  0  0  0  0  0  0  0999 V2000
  141.3660   67.7560  227.2080 N   0  0  0  0  0  0  0  0  0  0  0  0
  139.8090   68.3980  226.8430 S   0  0  0  0  0  0  0  0  0  0  0  0
  138.8340   67.3270  226.4610 O   0  0  0  0  0  0  0  0  0  0  0  0
  139.2570   69.2020  227.9860 O   0  0  0  0  0  0  0  0  0  0  0  0
  139.9490   69.4890  225.4860 C   0  0  0  0  0  0  0  0  0  0  0  0
  139.4550   69.1820  224.2380 C   0  0  0  0  0  0  0  0  0  0  0  0
  139.5820   70.0640  223.1880 C   0  0  0  0  0  0  0  0  0  0  0  0
  140.2090   71.3020  223.3240 C   0  0  0  0  0  0  0  0  0  0  0  0
  140.3260   72.2110  222.1940 C   0  0  0  0  0  0  0  0  0  0  0  0
  139.3100   72.8180  221.6140 C   0  0  0  0  0  0  0  0  0  0  0  0
  139.0340   74.2170  221.9220 C   0  0  0  0  0  0  0  0  0  0  0  0
  140.1030   75.0450  222.0500 N   0  0  0  0  0  0  0  0  0  0  0  0
  139.9750   76.3450  222.3340 C   0  0  0  0  0  0  0  0  0  0  0  0
  141.0750   77.1780  222.4620 C   0  0  0  0  0  0  0  0  0  0  0  0
  140.9130   78.5200  222.7560 C   0  0  0  0  0  0  0  0  0  0  0  0
  139.6290   79.0070  222.9190 C   0  0  0  0  0  0  0  0  0  0  0  0
  138.5310   78.1790  222.7910 C   0  0  0  0  0  0  0  0  0  0  0  0
  138.7050   76.8370  222.4970 C   0  0  0  0  0  0  0  0  0  0  0  0
  137.6340   75.9730  222.3600 C   0  0  0  0  0  0  0  0  0  0  0  0
  136.4940   76.4780  222.5170 O   0  0  0  0  0  0  0  0  0  0  0  0
  137.7610   74.6850  222.0800 N   0  0  0  0  0  0  0  0  0  0  0  0
  136.6850   73.7330  221.9460 C   0  0  0  0  0  0  0  0  0  0  0  0
  136.4330   72.9750  223.2140 C   0  0  0  0  0  0  0  0  0  0  0  0
  136.4760   71.4920  222.8700 C   0  0  0  0  0  0  0  0  0  0  0  0
  136.2360   70.7420  224.1670 C   0  0  0  0  0  0  0  0  0  0  0  0
  134.8240   71.0090  224.5950 C   0  0  0  0  0  0  0  0  0  0  0  0
  134.6930   72.4770  224.9340 C   0  0  0  0  0  0  0  0  0  0  0  0
  135.0800   73.3510  223.7560 C   0  0  0  0  0  0  0  0  0  0  0  0
  140.6940   71.5860  224.5850 C   0  0  0  0  0  0  0  0  0  0  0  0
  140.5690   70.7050  225.6370 C   0  0  0  0  0  0  0  0  0  0  0  0
  141.8230   67.5570  226.2830 H   0  0  0  0  0  0  0  0  0  0  0  0
  141.2270   66.7990  227.6340 H   0  0  0  0  0  0  0  0  0  0  0  0
  138.9512   68.2175  224.0772 H   0  0  0  0  0  0  0  0  0  0  0  0
  139.1740   69.7816  222.2063 H   0  0  0  0  0  0  0  0  0  0  0  0
  141.3329   72.4052  221.7959 H   0  0  0  0  0  0  0  0  0  0  0  0
  138.6736   72.2727  220.9015 H   0  0  0  0  0  0  0  0  0  0  0  0
  142.0870   76.7681  222.3285 H   0  0  0  0  0  0  0  0  0  0  0  0
  141.7844   79.1836  222.8576 H   0  0  0  0  0  0  0  0  0  0  0  0
  139.4797   80.0711  223.1544 H   0  0  0  0  0  0  0  0  0  0  0  0
  137.5175   78.5859  222.9227 H   0  0  0  0  0  0  0  0  0  0  0  0
  135.7677   74.2731  221.6688 H   0  0  0  0  0  0  0  0  0  0  0  0
  136.9738   73.0065  221.1722 H   0  0  0  0  0  0  0  0  0  0  0  0
  137.1879   73.2094  223.9790 H   0  0  0  0  0  0  0  0  0  0  0  0
  135.6907   71.2484  222.1392 H   0  0  0  0  0  0  0  0  0  0  0  0
  137.4422   71.2150  222.4232 H   0  0  0  0  0  0  0  0  0  0  0  0
  136.3814   69.6633  224.0082 H   0  0  0  0  0  0  0  0  0  0  0  0
  136.9424   71.0763  224.9411 H   0  0  0  0  0  0  0  0  0  0  0  0
  134.1342   70.7544  223.7769 H   0  0  0  0  0  0  0  0  0  0  0  0
  134.5751   70.3963  225.4740 H   0  0  0  0  0  0  0  0  0  0  0  0
  133.6496   72.6893  225.2103 H   0  0  0  0  0  0  0  0  0  0  0  0
  135.3705   72.7021  225.7709 H   0  0  0  0  0  0  0  0  0  0  0  0
  134.3300   73.2317  222.9602 H   0  0  0  0  0  0  0  0  0  0  0  0
  135.1226   74.3953  224.0991 H   0  0  0  0  0  0  0  0  0  0  0  0
  141.1976   72.5489  224.7558 H   0  0  0  0  0  0  0  0  0  0  0  0
  140.9754   70.9822  226.6209 H   0  0  0  0  0  0  0  0  0  0  0  0
  1  2  1  0
  2  3  2  0
  2  4  2  0
  2  5  1  0
  5  6  2  0
  6  7  1  0
  7  8  2  0
  8  9  1  0
  9 10  2  0
 10 11  1  0
 11 12  2  0
 12 13  1  0
 13 14  2  0
 14 15  1  0
 15 16  2  0
 16 17  1  0
 17 18  2  0
 18 19  1  0
 19 20  2  0
 19 21  1  0
 21 22  1  0
 22 23  1  0
 23 24  1  0
 24 25  1  0
 25 26  1  0
 26 27  1  0
 27 28  1  0
  8 29  1  0
 29 30  2  0
 30  5  1  0
 21 11  1  0
 28 23  1  0
 18 13  1  0
  1 31  1  0
  1 32  1  0
  6 33  1  0
  7 34  1  0
  9 35  1  0
 10 36  1  0
 14 37  1  0
 15 38  1  0
 16 39  1  0
 17 40  1  0
 22 41  1  0
 22 42  1  0
 23 43  1  0
 24 44  1  0
 24 45  1  0
 25 46  1  0
 25 47  1  0
 26 48  1  0
 26 49  1  0
 27 50  1  0
 27 51  1  0
 28 52  1  0
 28 53  1  0
 29 54  1  0
 30 55  1  0
M  END
>  <smiles>  (4) 
NS(=O)(=O)c1ccc(/C=C/c2nc3ccccc3c(=O)n2CC2CCCCC2)cc1

>  <score_type>  (4) 
oracle

>  <origin>  (4) 
autodockgpu

>  <m_score__min__energy>  (4) 
-9.2400000000000002

>  <m_primary>  (4) 
energy

>  <rmsd>  (4) 
6.948755431639547

>  <m_score__min__rmsd>  (4) 
6.948755431639547

>  <meeko>  (4) 
{"free_energy": -7.78, "intermolecular_energy": -9.87, "internal_energy": -1.94, "cluster_size": 2, "cluster_id": 6, "rank_in_cluster": 2}

>  <energy>  (4) 
-8.93

>  <cluster_rmsd>  (4) 
1.33

>  <cluster>  (4) 
1

$$$$

     RDKit          3D

 55 58  0  0  0  0  0  0  0  0999 V2000
  139.2370   67.3150  226.1100 N   0  0  0  0  0  0  0  0  0  0  0  0
  139.8990   68.8500  226.5240 S   0  0  0  0  0  0  0  0  0  0  0  0
  139.2540   69.4290  227.7460 O   0  0  0  0  0  0  0  0  0  0  0  0
  141.3860   68.7800  226.7200 O   0  0  0  0  0  0  0  0  0  0  0  0
  139.6200   69.9630  225.2060 C   0  0  0  0  0  0  0  0  0  0  0  0
  140.6040   70.7980  224.7260 C   0  0  0  0  0  0  0  0  0  0  0  0
  140.3520   71.6650  223.6850 C   0  0  0  0  0  0  0  0  0  0  0  0
  139.1050   71.7460  223.0650 C   0  0  0  0  0  0  0  0  0  0  0  0
  138.8730   72.6730  221.9680 C   0  0  0  0  0  0  0  0  0  0  0  0
  139.3450   73.9020  221.9160 C   0  0  0  0  0  0  0  0  0  0  0  0
  140.6690   74.1440  221.3520 C   0  0  0  0  0  0  0  0  0  0  0  0
  141.5310   73.0960  221.3260 N   0  0  0  0  0  0  0  0  0  0  0  0
  142.7710   73.1970  220.8380 C   0  0  0  0  0  0  0  0  0  0  0  0
  143.6410   72.1190  220.8170 C   0  0  0  0  0  0  0  0  0  0  0  0
  144.9190   72.2530  220.3060 C   0  0  0  0  0  0  0  0  0  0  0  0
  145.3050   73.4870  219.8160 C   0  0  0  0  0  0  0  0  0  0  0  0
  144.4410   74.5630  219.8340 C   0  0  0  0  0  0  0  0  0  0  0  0
  143.1630   74.4180  220.3490 C   0  0  0  0  0  0  0  0  0  0  0  0
  142.2650   75.4690  220.3870 C   0  0  0  0  0  0  0  0  0  0  0  0
  142.6760   76.5630  219.9250 O   0  0  0  0  0  0  0  0  0  0  0  0
  141.0370   75.3680  220.8720 N   0  0  0  0  0  0  0  0  0  0  0  0
  140.0650   76.4320  220.9560 C   0  0  0  0  0  0  0  0  0  0  0  0
  140.2870   77.3140  222.1480 C   0  0  0  0  0  0  0  0  0  0  0  0
  139.0290   78.1510  222.3310 C   0  0  0  0  0  0  0  0  0  0  0  0
  139.2660   79.0240  223.5490 C   0  0  0  0  0  0  0  0  0  0  0  0
  140.3470   80.0040  223.2060 C   0  0  0  0  0  0  0  0  0  0  0  0
  141.6350   79.2420  222.9830 C   0  0  0  0  0  0  0  0  0  0  0  0
  141.4780   78.2000  221.8930 C   0  0  0  0  0  0  0  0  0  0  0  0
  138.1380   70.8970  223.5650 C   0  0  0  0  0  0  0  0  0  0  0  0
  138.3870   70.0290  224.6070 C   0  0  0  0  0  0  0  0  0  0  0  0
  139.5680   66.6450  226.8480 H   0  0  0  0  0  0  0  0  0  0  0  0
  139.7200   66.9820  225.2310 H   0  0  0  0  0  0  0  0  0  0  0  0
  141.6056   70.7726  225.1800 H   0  0  0  0  0  0  0  0  0  0  0  0
  141.1637   72.3170  223.3300 H   0  0  0  0  0  0  0  0  0  0  0  0
  138.2611   72.3236  221.1234 H   0  0  0  0  0  0  0  0  0  0  0  0
  138.7441   74.7414  222.2958 H   0  0  0  0  0  0  0  0  0  0  0  0
  143.3117   71.1462  221.2110 H   0  0  0  0  0  0  0  0  0  0  0  0
  145.6117   71.3986  220.2897 H   0  0  0  0  0  0  0  0  0  0  0  0
  146.3175   73.6132  219.4050 H   0  0  0  0  0  0  0  0  0  0  0  0
  144.7672   75.5365  219.4392 H   0  0  0  0  0  0  0  0  0  0  0  0
  140.1322   77.0450  220.0451 H   0  0  0  0  0  0  0  0  0  0  0  0
  139.0711   75.9719  221.0587 H   0  0  0  0  0  0  0  0  0  0  0  0
  140.4845   76.7233  223.0547 H   0  0  0  0  0  0  0  0  0  0  0  0
  138.8562   78.7766  221.4428 H   0  0  0  0  0  0  0  0  0  0  0  0
  138.1428   77.5132  222.4650 H   0  0  0  0  0  0  0  0  0  0  0  0
  138.3424   79.5615  223.8097 H   0  0  0  0  0  0  0  0  0  0  0  0
  139.5639   78.4089  224.4109 H   0  0  0  0  0  0  0  0  0  0  0  0
  140.0758   80.5497  222.2902 H   0  0  0  0  0  0  0  0  0  0  0  0
  140.4742   80.7261  224.0260 H   0  0  0  0  0  0  0  0  0  0  0  0
  142.4241   79.9503  222.6904 H   0  0  0  0  0  0  0  0  0  0  0  0
  141.9002   78.7279  223.9186 H   0  0  0  0  0  0  0  0  0  0  0  0
  141.3450   78.7094  220.9272 H   0  0  0  0  0  0  0  0  0  0  0  0
  142.3809   77.5719  221.8815 H   0  0  0  0  0  0  0  0  0  0  0  0
  137.1338   70.9136  223.1164 H   0  0  0  0  0  0  0  0  0  0  0  0
  137.5791   69.3746  224.9663 H   0  0  0  0  0  0  0  0  0  0  0  0
  1  2  1  0
  2  3  2  0
  2  4  2  0
  2  5  1  0
  5  6  2  0
  6  7  1  0
  7  8  2  0
  8  9  1  0
  9 10  2  0
 10 11  1  0
 11 12  2  0
 12 13  1  0
 13 14  2  0
 14 15  1  0
 15 16  2  0
 16 17  1  0
 17 18  2  0
 18 19  1  0
 19 20  2  0
 19 21  1  0
 21 22  1  0
 22 23  1  0
 23 24  1  0
 24 25  1  0
 25 26  1  0
 26 27  1  0
 27 28  1  0
  8 29  1  0
 29 30  2  0
 30  5  1  0
 21 11  1  0
 28 23  1  0
 18 13  1  0
  1 31  1  0
  1 32  1  0
  6 33  1  0
  7 34  1  0
  9 35  1  0
 10 36  1  0
 14 37  1  0
 15 38  1  0
 16 39  1  0
 17 40  1  0
 22 41  1  0
 22 42  1  0
 23 43  1  0
 24 44  1  0
 24 45  1  0
 25 46  1  0
 25 47  1  0
 26 48  1  0
 26 49  1  0
 27 50  1  0
 27 51  1  0
 28 52  1  0
 28 53  1  0
 29 54  1  0
 30 55  1  0
M  END
>  <smiles>  (5) 
NS(=O)(=O)c1ccc(/C=C/c2nc3ccccc3c(=O)n2CC2CCCCC2)cc1

>  <score_type>  (5) 
oracle

>  <origin>  (5) 
autodockgpu

>  <m_score__min__energy>  (5) 
-9.2400000000000002

>  <m_primary>  (5) 
energy

>  <rmsd>  (5) 
7.625461400726728

>  <m_score__min__rmsd>  (5) 
7.625461400726728

>  <meeko>  (5) 
{"free_energy": -8.72, "intermolecular_energy": -10.8, "internal_energy": -1.31, "cluster_size": 3, "cluster_id": 3, "rank_in_cluster": 1}

>  <energy>  (5) 
-8.92

>  <cluster_rmsd>  (5) 
1.47

>  <cluster>  (5) 
1

$$$$

     RDKit          3D

 55 58  0  0  0  0  0  0  0  0999 V2000
  133.0890   72.5430  227.5650 N   0  0  0  0  0  0  0  0  0  0  0  0
  133.6040   73.1540  226.0390 S   0  0  0  0  0  0  0  0  0  0  0  0
  132.4490   73.5780  225.1840 O   0  0  0  0  0  0  0  0  0  0  0  0
  134.5670   74.2960  226.1930 O   0  0  0  0  0  0  0  0  0  0  0  0
  134.4570   71.8930  225.1810 C   0  0  0  0  0  0  0  0  0  0  0  0
  134.6730   70.6470  225.7260 C   0  0  0  0  0  0  0  0  0  0  0  0
  135.3500   69.6740  225.0240 C   0  0  0  0  0  0  0  0  0  0  0  0
  135.8480   69.8900  223.7390 C   0  0  0  0  0  0  0  0  0  0  0  0
  136.5580   68.8400  223.0250 C   0  0  0  0  0  0  0  0  0  0  0  0
  137.8710   68.7330  222.9650 C   0  0  0  0  0  0  0  0  0  0  0  0
  138.6860   69.2130  224.0750 C   0  0  0  0  0  0  0  0  0  0  0  0
  138.9110   68.3480  225.0960 N   0  0  0  0  0  0  0  0  0  0  0  0
  139.6390   68.6750  226.1690 C   0  0  0  0  0  0  0  0  0  0  0  0
  139.8590   67.7820  227.2050 C   0  0  0  0  0  0  0  0  0  0  0  0
  140.6180   68.1470  228.3020 C   0  0  0  0  0  0  0  0  0  0  0  0
  141.1490   69.4240  228.3380 C   0  0  0  0  0  0  0  0  0  0  0  0
  140.9320   70.3160  227.3070 C   0  0  0  0  0  0  0  0  0  0  0  0
  140.1710   69.9390  226.2130 C   0  0  0  0  0  0  0  0  0  0  0  0
  139.9280   70.8000  225.1590 C   0  0  0  0  0  0  0  0  0  0  0  0
  140.4410   71.9440  225.2510 O   0  0  0  0  0  0  0  0  0  0  0  0
  139.2050   70.4760  224.0970 N   0  0  0  0  0  0  0  0  0  0  0  0
  138.9020   71.3360  222.9790 C   0  0  0  0  0  0  0  0  0  0  0  0
  140.0730   72.1800  222.5740 C   0  0  0  0  0  0  0  0  0  0  0  0
  139.5190   73.4630  221.9700 C   0  0  0  0  0  0  0  0  0  0  0  0
  140.7180   74.3080  221.5820 C   0  0  0  0  0  0  0  0  0  0  0  0
  141.4220   73.6130  220.4570 C   0  0  0  0  0  0  0  0  0  0  0  0
  141.9850   72.3080  220.9750 C   0  0  0  0  0  0  0  0  0  0  0  0
  140.8950   71.4310  221.5590 C   0  0  0  0  0  0  0  0  0  0  0  0
  135.6160   71.1460  223.2160 C   0  0  0  0  0  0  0  0  0  0  0  0
  134.9400   72.1220  223.9170 C   0  0  0  0  0  0  0  0  0  0  0  0
  132.6180   73.3430  228.0550 H   0  0  0  0  0  0  0  0  0  0  0  0
  133.9520   72.3620  228.1470 H   0  0  0  0  0  0  0  0  0  0  0  0
  134.2995   70.4253  226.7366 H   0  0  0  0  0  0  0  0  0  0  0  0
  135.5034   68.6913  225.4937 H   0  0  0  0  0  0  0  0  0  0  0  0
  135.9581   68.0829  222.4987 H   0  0  0  0  0  0  0  0  0  0  0  0
  138.3492   68.2839  222.0820 H   0  0  0  0  0  0  0  0  0  0  0  0
  139.4255   66.7723  227.1546 H   0  0  0  0  0  0  0  0  0  0  0  0
  140.7951   67.4395  229.1255 H   0  0  0  0  0  0  0  0  0  0  0  0
  141.7543   69.7338  229.2027 H   0  0  0  0  0  0  0  0  0  0  0  0
  141.3637   71.3266  227.3544 H   0  0  0  0  0  0  0  0  0  0  0  0
  138.6037   70.7118  222.1238 H   0  0  0  0  0  0  0  0  0  0  0  0
  138.0909   72.0126  223.2862 H   0  0  0  0  0  0  0  0  0  0  0  0
  140.7168   72.4140  223.4347 H   0  0  0  0  0  0  0  0  0  0  0  0
  138.9119   73.2339  221.0818 H   0  0  0  0  0  0  0  0  0  0  0  0
  138.8728   73.9932  222.6851 H   0  0  0  0  0  0  0  0  0  0  0  0
  140.3842   75.3042  221.2562 H   0  0  0  0  0  0  0  0  0  0  0  0
  141.3945   74.4329  222.4404 H   0  0  0  0  0  0  0  0  0  0  0  0
  140.7110   73.4126  219.6420 H   0  0  0  0  0  0  0  0  0  0  0  0
  142.2343   74.2471  220.0723 H   0  0  0  0  0  0  0  0  0  0  0  0
  142.4697   71.7725  220.1454 H   0  0  0  0  0  0  0  0  0  0  0  0
  142.7114   72.5343  221.7694 H   0  0  0  0  0  0  0  0  0  0  0  0
  140.2366   71.0895  220.7467 H   0  0  0  0  0  0  0  0  0  0  0  0
  141.3705   70.5756  222.0613 H   0  0  0  0  0  0  0  0  0  0  0  0
  135.9831   71.3763  222.2050 H   0  0  0  0  0  0  0  0  0  0  0  0
  134.7842   73.1069  223.4525 H   0  0  0  0  0  0  0  0  0  0  0  0
  1  2  1  0
  2  3  2  0
  2  4  2  0
  2  5  1  0
  5  6  2  0
  6  7  1  0
  7  8  2  0
  8  9  1  0
  9 10  2  0
 10 11  1  0
 11 12  2  0
 12 13  1  0
 13 14  2  0
 14 15  1  0
 15 16  2  0
 16 17  1  0
 17 18  2  0
 18 19  1  0
 19 20  2  0
 19 21  1  0
 21 22  1  0
 22 23  1  0
 23 24  1  0
 24 25  1  0
 25 26  1  0
 26 27  1  0
 27 28  1  0
  8 29  1  0
 29 30  2  0
 30  5  1  0
 21 11  1  0
 28 23  1  0
 18 13  1  0
  1 31  1  0
  1 32  1  0
  6 33  1  0
  7 34  1  0
  9 35  1  0
 10 36  1  0
 14 37  1  0
 15 38  1  0
 16 39  1  0
 17 40  1  0
 22 41  1  0
 22 42  1  0
 23 43  1  0
 24 44  1  0
 24 45  1  0
 25 46  1  0
 25 47  1  0
 26 48  1  0
 26 49  1  0
 27 50  1  0
 27 51  1  0
 28 52  1  0
 28 53  1  0
 29 54  1  0
 30 55  1  0
M  END
>  <smiles>  (6) 
NS(=O)(=O)c1ccc(/C=C/c2nc3ccccc3c(=O)n2CC2CCCCC2)cc1

>  <score_type>  (6) 
oracle

>  <origin>  (6) 
autodockgpu

>  <m_score__min__energy>  (6) 
-9.2400000000000002

>  <m_primary>  (6) 
energy

>  <rmsd>  (6) 
10.334365021919448

>  <m_score__min__rmsd>  (6) 
10.334365021919448

>  <meeko>  (6) 
{"free_energy": -8.3, "intermolecular_energy": -10.39, "internal_energy": -1.7, "cluster_size": 2, "cluster_id": 7, "rank_in_cluster": 1}

>  <energy>  (6) 
-8.76

>  <cluster_rmsd>  (6) 
1.4

>  <cluster>  (6) 
1

$$$$

     RDKit          3D

 55 58  0  0  0  0  0  0  0  0999 V2000
  133.4110   73.3320  227.0140 N   0  0  0  0  0  0  0  0  0  0  0  0
  133.3960   71.6120  227.1060 S   0  0  0  0  0  0  0  0  0  0  0  0
  133.9650   71.1130  228.4000 O   0  0  0  0  0  0  0  0  0  0  0  0
  132.0140   71.0570  226.9130 O   0  0  0  0  0  0  0  0  0  0  0  0
  134.3800   70.9660  225.8160 C   0  0  0  0  0  0  0  0  0  0  0  0
  134.8090   71.7360  224.7580 C   0  0  0  0  0  0  0  0  0  0  0  0
  135.5840   71.1970  223.7560 C   0  0  0  0  0  0  0  0  0  0  0  0
  135.9750   69.8580  223.7520 C   0  0  0  0  0  0  0  0  0  0  0  0
  136.7940   69.3200  222.6770 C   0  0  0  0  0  0  0  0  0  0  0  0
  138.0190   68.8580  222.8300 C   0  0  0  0  0  0  0  0  0  0  0  0
  138.8180   69.2940  223.9700 C   0  0  0  0  0  0  0  0  0  0  0  0
  139.0000   68.4000  224.9760 N   0  0  0  0  0  0  0  0  0  0  0  0
  139.7090   68.6860  226.0720 C   0  0  0  0  0  0  0  0  0  0  0  0
  139.8870   67.7650  227.0920 C   0  0  0  0  0  0  0  0  0  0  0  0
  140.6260   68.0880  228.2140 C   0  0  0  0  0  0  0  0  0  0  0  0
  141.1830   69.3510  228.2940 C   0  0  0  0  0  0  0  0  0  0  0  0
  141.0080   70.2720  227.2800 C   0  0  0  0  0  0  0  0  0  0  0  0
  140.2660   69.9380  226.1600 C   0  0  0  0  0  0  0  0  0  0  0  0
  140.0660   70.8280  225.1210 C   0  0  0  0  0  0  0  0  0  0  0  0
  140.6000   71.9580  225.2520 O   0  0  0  0  0  0  0  0  0  0  0  0
  139.3620   70.5450  224.0360 N   0  0  0  0  0  0  0  0  0  0  0  0
  139.1030   71.4380  222.9320 C   0  0  0  0  0  0  0  0  0  0  0  0
  140.3170   72.2230  222.5360 C   0  0  0  0  0  0  0  0  0  0  0  0
  139.8320   73.5510  221.9730 C   0  0  0  0  0  0  0  0  0  0  0  0
  141.0740   74.3370  221.5940 C   0  0  0  0  0  0  0  0  0  0  0  0
  141.7270   73.6330  220.4430 C   0  0  0  0  0  0  0  0  0  0  0  0
  142.2180   72.2840  220.9200 C   0  0  0  0  0  0  0  0  0  0  0  0
  141.0850   71.4550  221.4930 C   0  0  0  0  0  0  0  0  0  0  0  0
  135.5330   69.1080  224.8240 C   0  0  0  0  0  0  0  0  0  0  0  0
  134.7560   69.6460  225.8280 C   0  0  0  0  0  0  0  0  0  0  0  0
  133.1580   73.6780  227.9730 H   0  0  0  0  0  0  0  0  0  0  0  0
  132.5940   73.6300  226.4130 H   0  0  0  0  0  0  0  0  0  0  0  0
  134.5280   72.7985  224.7128 H   0  0  0  0  0  0  0  0  0  0  0  0
  135.9067   71.8458  222.9284 H   0  0  0  0  0  0  0  0  0  0  0  0
  136.3610   69.2971  221.6661 H   0  0  0  0  0  0  0  0  0  0  0  0
  138.4367   68.1473  222.1017 H   0  0  0  0  0  0  0  0  0  0  0  0
  139.4350   66.7657  227.0075 H   0  0  0  0  0  0  0  0  0  0  0  0
  140.7678   67.3577  229.0243 H   0  0  0  0  0  0  0  0  0  0  0  0
  141.7749   69.6265  229.1793 H   0  0  0  0  0  0  0  0  0  0  0  0
  141.4586   71.2721  227.3623 H   0  0  0  0  0  0  0  0  0  0  0  0
  138.7687   70.8445  222.0683 H   0  0  0  0  0  0  0  0  0  0  0  0
  138.3308   72.1529  223.2525 H   0  0  0  0  0  0  0  0  0  0  0  0
  140.9823   72.3962  223.3947 H   0  0  0  0  0  0  0  0  0  0  0  0
  139.2042   73.3812  221.0859 H   0  0  0  0  0  0  0  0  0  0  0  0
  139.2244   74.0974  222.7094 H   0  0  0  0  0  0  0  0  0  0  0  0
  140.7945   75.3589  221.2980 H   0  0  0  0  0  0  0  0  0  0  0  0
  141.7645   74.4004  222.4479 H   0  0  0  0  0  0  0  0  0  0  0  0
  140.9984   73.4963  219.6303 H   0  0  0  0  0  0  0  0  0  0  0  0
  142.5713   74.2295  220.0670 H   0  0  0  0  0  0  0  0  0  0  0  0
  142.6629   71.7442  220.0711 H   0  0  0  0  0  0  0  0  0  0  0  0
  142.9635   72.4468  221.7123 H   0  0  0  0  0  0  0  0  0  0  0  0
  140.4004   71.1732  220.6794 H   0  0  0  0  0  0  0  0  0  0  0  0
  141.5152   70.5608  221.9676 H   0  0  0  0  0  0  0  0  0  0  0  0
  135.8103   68.0449  224.8788 H   0  0  0  0  0  0  0  0  0  0  0  0
  134.4298   69.0022  226.6581 H   0  0  0  0  0  0  0  0  0  0  0  0
  1  2  1  0
  2  3  2  0
  2  4  2  0
  2  5  1  0
  5  6  2  0
  6  7  1  0
  7  8  2  0
  8  9  1  0
  9 10  2  0
 10 11  1  0
 11 12  2  0
 12 13  1  0
 13 14  2  0
 14 15  1  0
 15 16  2  0
 16 17  1  0
 17 18  2  0
 18 19  1  0
 19 20  2  0
 19 21  1  0
 21 22  1  0
 22 23  1  0
 23 24  1  0
 24 25  1  0
 25 26  1  0
 26 27  1  0
 27 28  1  0
  8 29  1  0
 29 30  2  0
 30  5  1  0
 21 11  1  0
 28 23  1  0
 18 13  1  0
  1 31  1  0
  1 32  1  0
  6 33  1  0
  7 34  1  0
  9 35  1  0
 10 36  1  0
 14 37  1  0
 15 38  1  0
 16 39  1  0
 17 40  1  0
 22 41  1  0
 22 42  1  0
 23 43  1  0
 24 44  1  0
 24 45  1  0
 25 46  1  0
 25 47  1  0
 26 48  1  0
 26 49  1  0
 27 50  1  0
 27 51  1  0
 28 52  1  0
 28 53  1  0
 29 54  1  0
 30 55  1  0
M  END
>  <smiles>  (7) 
NS(=O)(=O)c1ccc(/C=C/c2nc3ccccc3c(=O)n2CC2CCCCC2)cc1

>  <score_type>  (7) 
oracle

>  <origin>  (7) 
autodockgpu

>  <m_score__min__energy>  (7) 
-9.2400000000000002

>  <m_primary>  (7) 
energy

>  <rmsd>  (7) 
10.32622266952005

>  <m_score__min__rmsd>  (7) 
10.32622266952005

>  <meeko>  (7) 
{"free_energy": -8.14, "intermolecular_energy": -10.23, "internal_energy": -1.64, "cluster_size": 2, "cluster_id": 7, "rank_in_cluster": 2}

>  <energy>  (7) 
-8.74

>  <cluster_rmsd>  (7) 
1.29

>  <cluster>  (7) 
1

$$$$

     RDKit          3D

 55 58  0  0  0  0  0  0  0  0999 V2000
  145.9030   73.5480  218.0910 N   0  0  0  0  0  0  0  0  0  0  0  0
  145.8860   72.9080  219.6900 S   0  0  0  0  0  0  0  0  0  0  0  0
  146.3330   71.4780  219.7280 O   0  0  0  0  0  0  0  0  0  0  0  0
  146.7270   73.7270  220.6260 O   0  0  0  0  0  0  0  0  0  0  0  0
  144.2530   72.9640  220.3070 C   0  0  0  0  0  0  0  0  0  0  0  0
  143.5320   74.1350  220.3830 C   0  0  0  0  0  0  0  0  0  0  0  0
  142.2460   74.1460  220.8740 C   0  0  0  0  0  0  0  0  0  0  0  0
  141.6050   72.9890  221.3180 C   0  0  0  0  0  0  0  0  0  0  0  0
  140.2450   73.0360  221.8310 C   0  0  0  0  0  0  0  0  0  0  0  0
  139.4970   71.9760  222.0640 C   0  0  0  0  0  0  0  0  0  0  0  0
  139.5680   71.3110  223.3600 C   0  0  0  0  0  0  0  0  0  0  0  0
  140.3520   71.8870  224.3080 N   0  0  0  0  0  0  0  0  0  0  0  0
  140.4990   71.3680  225.5310 C   0  0  0  0  0  0  0  0  0  0  0  0
  141.3030   71.9650  226.4890 C   0  0  0  0  0  0  0  0  0  0  0  0
  141.4350   71.4070  227.7470 C   0  0  0  0  0  0  0  0  0  0  0  0
  140.7470   70.2390  228.0240 C   0  0  0  0  0  0  0  0  0  0  0  0
  139.9450   69.6420  227.0720 C   0  0  0  0  0  0  0  0  0  0  0  0
  139.8200   70.2100  225.8150 C   0  0  0  0  0  0  0  0  0  0  0  0
  139.0270   69.6450  224.8330 C   0  0  0  0  0  0  0  0  0  0  0  0
  138.4260   68.5880  225.1480 O   0  0  0  0  0  0  0  0  0  0  0  0
  138.8830   70.1590  223.6200 N   0  0  0  0  0  0  0  0  0  0  0  0
  138.0890   69.6050  222.5500 C   0  0  0  0  0  0  0  0  0  0  0  0
  136.6330   69.9350  222.6920 C   0  0  0  0  0  0  0  0  0  0  0  0
  136.5400   71.2640  223.4270 C   0  0  0  0  0  0  0  0  0  0  0  0
  135.0630   71.5880  223.5460 C   0  0  0  0  0  0  0  0  0  0  0  0
  134.4470   70.5810  224.4690 C   0  0  0  0  0  0  0  0  0  0  0  0
  134.5220   69.2190  223.8150 C   0  0  0  0  0  0  0  0  0  0  0  0
  135.9540   68.8470  223.4800 C   0  0  0  0  0  0  0  0  0  0  0  0
  142.3490   71.8290  221.2300 C   0  0  0  0  0  0  0  0  0  0  0  0
  143.6370   71.8160  220.7390 C   0  0  0  0  0  0  0  0  0  0  0  0
  146.8060   74.0760  217.9980 H   0  0  0  0  0  0  0  0  0  0  0  0
  145.1620   74.3010  218.0380 H   0  0  0  0  0  0  0  0  0  0  0  0
  143.9909   75.0762  220.0461 H   0  0  0  0  0  0  0  0  0  0  0  0
  141.7038   75.1021  220.9179 H   0  0  0  0  0  0  0  0  0  0  0  0
  139.8104   74.0248  222.0390 H   0  0  0  0  0  0  0  0  0  0  0  0
  138.8218   71.5944  221.2839 H   0  0  0  0  0  0  0  0  0  0  0  0
  141.8418   72.8927  226.2459 H   0  0  0  0  0  0  0  0  0  0  0  0
  142.0716   71.8801  228.5092 H   0  0  0  0  0  0  0  0  0  0  0  0
  140.8405   69.7787  229.0187 H   0  0  0  0  0  0  0  0  0  0  0  0
  139.4048   68.7143  227.3120 H   0  0  0  0  0  0  0  0  0  0  0  0
  138.4519   70.0101  221.5939 H   0  0  0  0  0  0  0  0  0  0  0  0
  138.1911   68.5104  222.5872 H   0  0  0  0  0  0  0  0  0  0  0  0
  136.1398   70.0096  221.7116 H   0  0  0  0  0  0  0  0  0  0  0  0
  136.9919   71.1781  224.4262 H   0  0  0  0  0  0  0  0  0  0  0  0
  137.0787   72.0561  222.8863 H   0  0  0  0  0  0  0  0  0  0  0  0
  134.9337   72.6003  223.9564 H   0  0  0  0  0  0  0  0  0  0  0  0
  134.5802   71.5504  222.5583 H   0  0  0  0  0  0  0  0  0  0  0  0
  134.9971   70.5658  225.4214 H   0  0  0  0  0  0  0  0  0  0  0  0
  133.3980   70.8454  224.6682 H   0  0  0  0  0  0  0  0  0  0  0  0
  134.1082   68.4675  224.5035 H   0  0  0  0  0  0  0  0  0  0  0  0
  133.9434   69.2503  222.8800 H   0  0  0  0  0  0  0  0  0  0  0  0
  136.5093   68.6823  224.4151 H   0  0  0  0  0  0  0  0  0  0  0  0
  135.9406   67.9328  222.8684 H   0  0  0  0  0  0  0  0  0  0  0  0
  141.8982   70.8826  221.5633 H   0  0  0  0  0  0  0  0  0  0  0  0
  144.1842   70.8629  220.6923 H   0  0  0  0  0  0  0  0  0  0  0  0
  1  2  1  0
  2  3  2  0
  2  4  2  0
  2  5  1  0
  5  6  2  0
  6  7  1  0
  7  8  2  0
  8  9  1  0
  9 10  2  0
 10 11  1  0
 11 12  2  0
 12 13  1  0
 13 14  2  0
 14 15  1  0
 15 16  2  0
 16 17  1  0
 17 18  2  0
 18 19  1  0
 19 20  2  0
 19 21  1  0
 21 22  1  0
 22 23  1  0
 23 24  1  0
 24 25  1  0
 25 26  1  0
 26 27  1  0
 27 28  1  0
  8 29  1  0
 29 30  2  0
 30  5  1  0
 21 11  1  0
 28 23  1  0
 18 13  1  0
  1 31  1  0
  1 32  1  0
  6 33  1  0
  7 34  1  0
  9 35  1  0
 10 36  1  0
 14 37  1  0
 15 38  1  0
 16 39  1  0
 17 40  1  0
 22 41  1  0
 22 42  1  0
 23 43  1  0
 24 44  1  0
 24 45  1  0
 25 46  1  0
 25 47  1  0
 26 48  1  0
 26 49  1  0
 27 50  1  0
 27 51  1  0
 28 52  1  0
 28 53  1  0
 29 54  1  0
 30 55  1  0
M  END
>  <smiles>  (8) 
NS(=O)(=O)c1ccc(/C=C/c2nc3ccccc3c(=O)n2CC2CCCCC2)cc1

>  <score_type>  (8) 
oracle

>  <origin>  (8) 
autodockgpu

>  <m_score__min__energy>  (8) 
-9.2400000000000002

>  <m_primary>  (8) 
energy

>  <rmsd>  (8) 
10.868839996460675

>  <m_score__min__rmsd>  (8) 
10.868839996460675

>  <meeko>  (8) 
{"free_energy": -8.99, "intermolecular_energy": -11.07, "internal_energy": -1.47, "cluster_size": 16, "cluster_id": 1, "rank_in_cluster": 3}

>  <energy>  (8) 
-8.66

>  <cluster_rmsd>  (8) 
1.17

>  <cluster>  (8) 
1

$$$$

     RDKit          3D

 55 58  0  0  0  0  0  0  0  0999 V2000
  139.7900   68.7710  228.0700 N   0  0  0  0  0  0  0  0  0  0  0  0
  140.1760   68.1690  226.5030 S   0  0  0  0  0  0  0  0  0  0  0  0
  141.5850   67.6650  226.4260 O   0  0  0  0  0  0  0  0  0  0  0  0
  139.2270   67.0880  226.0730 O   0  0  0  0  0  0  0  0  0  0  0  0
  140.0180   69.4650  225.3420 C   0  0  0  0  0  0  0  0  0  0  0  0
  140.8320   70.5750  225.3600 C   0  0  0  0  0  0  0  0  0  0  0  0
  140.6810   71.5800  224.4310 C   0  0  0  0  0  0  0  0  0  0  0  0
  139.7100   71.5340  223.4310 C   0  0  0  0  0  0  0  0  0  0  0  0
  139.5770   72.6130  222.4640 C   0  0  0  0  0  0  0  0  0  0  0  0
  140.4630   72.8910  221.5290 C   0  0  0  0  0  0  0  0  0  0  0  0
  140.8270   74.2800  221.2690 C   0  0  0  0  0  0  0  0  0  0  0  0
  140.2550   75.2270  222.0560 N   0  0  0  0  0  0  0  0  0  0  0  0
  140.5080   76.5320  221.9100 C   0  0  0  0  0  0  0  0  0  0  0  0
  139.9180   77.4880  222.7210 C   0  0  0  0  0  0  0  0  0  0  0  0
  140.1980   78.8300  222.5480 C   0  0  0  0  0  0  0  0  0  0  0  0
  141.0810   79.1940  221.5470 C   0  0  0  0  0  0  0  0  0  0  0  0
  141.6710   78.2440  220.7380 C   0  0  0  0  0  0  0  0  0  0  0  0
  141.3830   76.9010  220.9200 C   0  0  0  0  0  0  0  0  0  0  0  0
  141.9520   75.9170  220.1330 C   0  0  0  0  0  0  0  0  0  0  0  0
  142.7470   76.3120  219.2440 O   0  0  0  0  0  0  0  0  0  0  0  0
  141.7000   74.6250  220.2770 N   0  0  0  0  0  0  0  0  0  0  0  0
  142.2460   73.5560  219.4750 C   0  0  0  0  0  0  0  0  0  0  0  0
  143.4520   72.9280  220.1070 C   0  0  0  0  0  0  0  0  0  0  0  0
  144.3780   74.0580  220.5350 C   0  0  0  0  0  0  0  0  0  0  0  0
  145.5820   73.4030  221.1860 C   0  0  0  0  0  0  0  0  0  0  0  0
  146.3300   72.6600  220.1210 C   0  0  0  0  0  0  0  0  0  0  0  0
  145.4600   71.5270  219.6230 C   0  0  0  0  0  0  0  0  0  0  0  0
  144.1320   72.0400  219.0990 C   0  0  0  0  0  0  0  0  0  0  0  0
  138.9090   70.4100  223.4340 C   0  0  0  0  0  0  0  0  0  0  0  0
  139.0570   69.4030  224.3640 C   0  0  0  0  0  0  0  0  0  0  0  0
  139.6750   67.9280  228.6860 H   0  0  0  0  0  0  0  0  0  0  0  0
  138.8190   69.1870  228.0250 H   0  0  0  0  0  0  0  0  0  0  0  0
  141.6148   70.6604  226.1281 H   0  0  0  0  0  0  0  0  0  0  0  0
  141.3508   72.4512  224.4794 H   0  0  0  0  0  0  0  0  0  0  0  0
  138.6747   73.2399  222.5171 H   0  0  0  0  0  0  0  0  0  0  0  0
  140.9259   72.0801  220.9475 H   0  0  0  0  0  0  0  0  0  0  0  0
  139.2193   77.1753  223.5109 H   0  0  0  0  0  0  0  0  0  0  0  0
  139.7302   79.5905  223.1906 H   0  0  0  0  0  0  0  0  0  0  0  0
  141.3166   80.2574  221.3934 H   0  0  0  0  0  0  0  0  0  0  0  0
  142.3708   78.5535  219.9478 H   0  0  0  0  0  0  0  0  0  0  0  0
  141.4739   72.7838  219.3422 H   0  0  0  0  0  0  0  0  0  0  0  0
  142.5566   73.9843  218.5106 H   0  0  0  0  0  0  0  0  0  0  0  0
  143.1773   72.3140  220.9773 H   0  0  0  0  0  0  0  0  0  0  0  0
  144.6916   74.6451  219.6592 H   0  0  0  0  0  0  0  0  0  0  0  0
  143.8735   74.7448  221.2305 H   0  0  0  0  0  0  0  0  0  0  0  0
  146.2305   74.1713  221.6322 H   0  0  0  0  0  0  0  0  0  0  0  0
  145.2618   72.7149  221.9822 H   0  0  0  0  0  0  0  0  0  0  0  0
  146.5646   73.3405  219.2892 H   0  0  0  0  0  0  0  0  0  0  0  0
  147.2699   72.2609  220.5300 H   0  0  0  0  0  0  0  0  0  0  0  0
  145.9859   71.0012  218.8124 H   0  0  0  0  0  0  0  0  0  0  0  0
  145.2615   70.8466  220.4642 H   0  0  0  0  0  0  0  0  0  0  0  0
  144.3081   72.6138  218.1772 H   0  0  0  0  0  0  0  0  0  0  0  0
  143.4799   71.1764  218.9015 H   0  0  0  0  0  0  0  0  0  0  0  0
  138.1254   70.3143  222.6679 H   0  0  0  0  0  0  0  0  0  0  0  0
  138.3895   68.5297  224.3212 H   0  0  0  0  0  0  0  0  0  0  0  0
  1  2  1  0
  2  3  2  0
  2  4  2  0
  2  5  1  0
  5  6  2  0
  6  7  1  0
  7  8  2  0
  8  9  1  0
  9 10  2  0
 10 11  1  0
 11 12  2  0
 12 13  1  0
 13 14  2  0
 14 15  1  0
 15 16  2  0
 16 17  1  0
 17 18  2  0
 18 19  1  0
 19 20  2  0
 19 21  1  0
 21 22  1  0
 22 23  1  0
 23 24  1  0
 24 25  1  0
 25 26  1  0
 26 27  1  0
 27 28  1  0
  8 29  1  0
 29 30  2  0
 30  5  1  0
 21 11  1  0
 28 23  1  0
 18 13  1  0
  1 31  1  0
  1 32  1  0
  6 33  1  0
  7 34  1  0
  9 35  1  0
 10 36  1  0
 14 37  1  0
 15 38  1  0
 16 39  1  0
 17 40  1  0
 22 41  1  0
 22 42  1  0
 23 43  1  0
 24 44  1  0
 24 45  1  0
 25 46  1  0
 25 47  1  0
 26 48  1  0
 26 49  1  0
 27 50  1  0
 27 51  1  0
 28 52  1  0
 28 53  1  0
 29 54  1  0
 30 55  1  0
M  END
>  <smiles>  (9) 
NS(=O)(=O)c1ccc(/C=C/c2nc3ccccc3c(=O)n2CC2CCCCC2)cc1

>  <score_type>  (9) 
oracle

>  <origin>  (9) 
autodockgpu

>  <m_score__min__energy>  (9) 
-9.2400000000000002

>  <m_primary>  (9) 
energy

>  <rmsd>  (9) 
5.429597531703635

>  <m_score__min__rmsd>  (9) 
5.429597531703635

>  <meeko>  (9) 
{"free_energy": -8.79, "intermolecular_energy": -10.88, "internal_energy": -1.27, "cluster_size": 8, "cluster_id": 2, "rank_in_cluster": 5}

>  <energy>  (9) 
-8.59

>  <cluster_rmsd>  (9) 
1.36

>  <cluster>  (9) 
1

$$$$

     RDKit          3D

 55 58  0  0  0  0  0  0  0  0999 V2000
  145.9670   73.4360  218.2960 N   0  0  0  0  0  0  0  0  0  0  0  0
  145.7950   72.6380  219.8140 S   0  0  0  0  0  0  0  0  0  0  0  0
  146.0590   71.1670  219.7090 O   0  0  0  0  0  0  0  0  0  0  0  0
  146.6850   73.2400  220.8630 O   0  0  0  0  0  0  0  0  0  0  0  0
  144.1530   72.8380  220.3770 C   0  0  0  0  0  0  0  0  0  0  0  0
  143.5200   74.0610  220.3840 C   0  0  0  0  0  0  0  0  0  0  0  0
  142.2240   74.1860  220.8350 C   0  0  0  0  0  0  0  0  0  0  0  0
  141.4870   73.0980  221.3020 C   0  0  0  0  0  0  0  0  0  0  0  0
  140.1200   73.2640  221.7710 C   0  0  0  0  0  0  0  0  0  0  0  0
  139.2480   72.2850  221.8950 C   0  0  0  0  0  0  0  0  0  0  0  0
  139.2390   71.4750  223.1080 C   0  0  0  0  0  0  0  0  0  0  0  0
  140.1020   71.8280  224.0950 N   0  0  0  0  0  0  0  0  0  0  0  0
  140.1870   71.1600  225.2490 C   0  0  0  0  0  0  0  0  0  0  0  0
  141.0730   71.5310  226.2480 C   0  0  0  0  0  0  0  0  0  0  0  0
  141.1390   70.8220  227.4320 C   0  0  0  0  0  0  0  0  0  0  0  0
  140.3000   69.7340  227.5950 C   0  0  0  0  0  0  0  0  0  0  0  0
  139.4160   69.3620  226.6030 C   0  0  0  0  0  0  0  0  0  0  0  0
  139.3580   70.0800  225.4200 C   0  0  0  0  0  0  0  0  0  0  0  0
  138.4870   69.7420  224.4000 C   0  0  0  0  0  0  0  0  0  0  0  0
  137.7510   68.7460  224.6100 O   0  0  0  0  0  0  0  0  0  0  0  0
  138.4050   70.4030  223.2550 N   0  0  0  0  0  0  0  0  0  0  0  0
  137.5330   70.0860  222.1500 C   0  0  0  0  0  0  0  0  0  0  0  0
  138.0100   68.8980  221.3700 C   0  0  0  0  0  0  0  0  0  0  0  0
  137.4080   67.6600  222.0190 C   0  0  0  0  0  0  0  0  0  0  0  0
  137.8890   66.4720  221.2070 C   0  0  0  0  0  0  0  0  0  0  0  0
  139.3690   66.3460  221.4120 C   0  0  0  0  0  0  0  0  0  0  0  0
  140.0420   67.5600  220.8100 C   0  0  0  0  0  0  0  0  0  0  0  0
  139.5140   68.8440  221.4220 C   0  0  0  0  0  0  0  0  0  0  0  0
  142.1450   71.8840  221.2820 C   0  0  0  0  0  0  0  0  0  0  0  0
  143.4420   71.7560  220.8330 C   0  0  0  0  0  0  0  0  0  0  0  0
  146.8570   73.9900  218.3580 H   0  0  0  0  0  0  0  0  0  0  0  0
  145.2130   74.1730  218.2320 H   0  0  0  0  0  0  0  0  0  0  0  0
  144.0569   74.9512  220.0243 H   0  0  0  0  0  0  0  0  0  0  0  0
  141.7535   75.1803  220.8264 H   0  0  0  0  0  0  0  0  0  0  0  0
  139.7916   74.2785  222.0410 H   0  0  0  0  0  0  0  0  0  0  0  0
  138.5298   72.0791  221.0877 H   0  0  0  0  0  0  0  0  0  0  0  0
  141.7309   72.3995  226.0966 H   0  0  0  0  0  0  0  0  0  0  0  0
  141.8416   71.1154  228.2259 H   0  0  0  0  0  0  0  0  0  0  0  0
  140.3383   69.1563  228.5303 H   0  0  0  0  0  0  0  0  0  0  0  0
  138.7566   68.4942  226.7519 H   0  0  0  0  0  0  0  0  0  0  0  0
  136.5284   69.8707  222.5429 H   0  0  0  0  0  0  0  0  0  0  0  0
  137.5226   70.9515  221.4712 H   0  0  0  0  0  0  0  0  0  0  0  0
  137.7036   68.9591  220.3153 H   0  0  0  0  0  0  0  0  0  0  0  0
  137.7504   67.5722  223.0607 H   0  0  0  0  0  0  0  0  0  0  0  0
  136.3094   67.7130  222.0347 H   0  0  0  0  0  0  0  0  0  0  0  0
  137.3846   65.5562  221.5488 H   0  0  0  0  0  0  0  0  0  0  0  0
  137.6596   66.6169  220.1410 H   0  0  0  0  0  0  0  0  0  0  0  0
  139.5915   66.2938  222.4880 H   0  0  0  0  0  0  0  0  0  0  0  0
  139.7400   65.4305  220.9280 H   0  0  0  0  0  0  0  0  0  0  0  0
  141.1251   67.4958  220.9911 H   0  0  0  0  0  0  0  0  0  0  0  0
  139.8278   67.5762  219.7312 H   0  0  0  0  0  0  0  0  0  0  0  0
  139.8383   68.9003  222.4716 H   0  0  0  0  0  0  0  0  0  0  0  0
  139.9116   69.6921  220.8453 H   0  0  0  0  0  0  0  0  0  0  0  0
  141.6155   70.9875  221.6369 H   0  0  0  0  0  0  0  0  0  0  0  0
  143.9180   70.7643  220.8403 H   0  0  0  0  0  0  0  0  0  0  0  0
  1  2  1  0
  2  3  2  0
  2  4  2  0
  2  5  1  0
  5  6  2  0
  6  7  1  0
  7  8  2  0
  8  9  1  0
  9 10  2  0
 10 11  1  0
 11 12  2  0
 12 13  1  0
 13 14  2  0
 14 15  1  0
 15 16  2  0
 16 17  1  0
 17 18  2  0
 18 19  1  0
 19 20  2  0
 19 21  1  0
 21 22  1  0
 22 23  1  0
 23 24  1  0
 24 25  1  0
 25 26  1  0
 26 27  1  0
 27 28  1  0
  8 29  1  0
 29 30  2  0
 30  5  1  0
 21 11  1  0
 28 23  1  0
 18 13  1  0
  1 31  1  0
  1 32  1  0
  6 33  1  0
  7 34  1  0
  9 35  1  0
 10 36  1  0
 14 37  1  0
 15 38  1  0
 16 39  1  0
 17 40  1  0
 22 41  1  0
 22 42  1  0
 23 43  1  0
 24 44  1  0
 24 45  1  0
 25 46  1  0
 25 47  1  0
 26 48  1  0
 26 49  1  0
 27 50  1  0
 27 51  1  0
 28 52  1  0
 28 53  1  0
 29 54  1  0
 30 55  1  0
M  END
>  <smiles>  (10) 
NS(=O)(=O)c1ccc(/C=C/c2nc3ccccc3c(=O)n2CC2CCCCC2)cc1

>  <score_type>  (10) 
oracle

>  <origin>  (10) 
autodockgpu

>  <m_score__min__energy>  (10) 
-9.2400000000000002

>  <m_primary>  (10) 
energy

>  <rmsd>  (10) 
11.408701786172285

>  <m_score__min__rmsd>  (10) 
11.408701786172285

>  <meeko>  (10) 
{"free_energy": -8.49, "intermolecular_energy": -10.58, "internal_energy": -1.69, "cluster_size": 16, "cluster_id": 1, "rank_in_cluster": 13}

>  <energy>  (10) 
-8.59

>  <cluster_rmsd>  (10) 
0.69

>  <cluster>  (10) 
1

$$$$

     RDKit          3D

 55 58  0  0  0  0  0  0  0  0999 V2000
  146.2980   73.5420  217.8290 N   0  0  0  0  0  0  0  0  0  0  0  0
  145.8380   72.9050  219.3620 S   0  0  0  0  0  0  0  0  0  0  0  0
  145.8720   71.4070  219.3820 O   0  0  0  0  0  0  0  0  0  0  0  0
  146.6960   73.4460  220.4690 O   0  0  0  0  0  0  0  0  0  0  0  0
  144.1990   73.3980  219.7120 C   0  0  0  0  0  0  0  0  0  0  0  0
  143.1040   72.7240  219.2180 C   0  0  0  0  0  0  0  0  0  0  0  0
  141.8240   73.1390  219.5130 C   0  0  0  0  0  0  0  0  0  0  0  0
  141.5640   74.2480  220.3180 C   0  0  0  0  0  0  0  0  0  0  0  0
  140.2000   74.6590  220.6090 C   0  0  0  0  0  0  0  0  0  0  0  0
  139.6840   75.8260  220.2790 C   0  0  0  0  0  0  0  0  0  0  0  0
  140.3880   77.0530  220.6330 C   0  0  0  0  0  0  0  0  0  0  0  0
  140.6610   77.2530  221.9480 N   0  0  0  0  0  0  0  0  0  0  0  0
  141.2970   78.3410  222.3930 C   0  0  0  0  0  0  0  0  0  0  0  0
  141.5680   78.5330  223.7380 C   0  0  0  0  0  0  0  0  0  0  0  0
  142.2290   79.6680  224.1700 C   0  0  0  0  0  0  0  0  0  0  0  0
  142.6120   80.6050  223.2270 C   0  0  0  0  0  0  0  0  0  0  0  0
  142.3440   80.4160  221.8860 C   0  0  0  0  0  0  0  0  0  0  0  0
  141.6810   79.2760  221.4640 C   0  0  0  0  0  0  0  0  0  0  0  0
  141.3930   79.0470  220.1320 C   0  0  0  0  0  0  0  0  0  0  0  0
  141.7690   79.9340  219.3250 O   0  0  0  0  0  0  0  0  0  0  0  0
  140.7610   77.9690  219.6910 N   0  0  0  0  0  0  0  0  0  0  0  0
  140.4150   77.6870  218.3190 C   0  0  0  0  0  0  0  0  0  0  0  0
  141.3560   76.7070  217.6840 C   0  0  0  0  0  0  0  0  0  0  0  0
  142.7550   77.0310  218.1920 C   0  0  0  0  0  0  0  0  0  0  0  0
  143.6890   76.0210  217.5520 C   0  0  0  0  0  0  0  0  0  0  0  0
  143.7270   76.3020  216.0800 C   0  0  0  0  0  0  0  0  0  0  0  0
  142.3570   76.0240  215.5020 C   0  0  0  0  0  0  0  0  0  0  0  0
  141.2900   76.8560  216.1880 C   0  0  0  0  0  0  0  0  0  0  0  0
  142.6790   74.9030  220.8010 C   0  0  0  0  0  0  0  0  0  0  0  0
  143.9610   74.4920  220.5070 C   0  0  0  0  0  0  0  0  0  0  0  0
  147.1450   74.1380  218.0030 H   0  0  0  0  0  0  0  0  0  0  0  0
  145.5570   74.2340  217.5320 H   0  0  0  0  0  0  0  0  0  0  0  0
  143.2538   71.8415  218.5786 H   0  0  0  0  0  0  0  0  0  0  0  0
  140.9755   72.5749  219.0984 H   0  0  0  0  0  0  0  0  0  0  0  0
  139.5536   73.9461  221.1418 H   0  0  0  0  0  0  0  0  0  0  0  0
  138.7268   75.8742  219.7391 H   0  0  0  0  0  0  0  0  0  0  0  0
  141.2539   77.7744  224.4701 H   0  0  0  0  0  0  0  0  0  0  0  0
  142.4451   79.8222  225.2375 H   0  0  0  0  0  0  0  0  0  0  0  0
  143.1384   81.5150  223.5508 H   0  0  0  0  0  0  0  0  0  0  0  0
  142.6577   81.1723  221.1515 H   0  0  0  0  0  0  0  0  0  0  0  0
  139.3974   77.2703  218.2894 H   0  0  0  0  0  0  0  0  0  0  0  0
  140.4801   78.6293  217.7553 H   0  0  0  0  0  0  0  0  0  0  0  0
  141.0906   75.6703  217.9388 H   0  0  0  0  0  0  0  0  0  0  0  0
  143.0395   78.0519  217.8975 H   0  0  0  0  0  0  0  0  0  0  0  0
  142.8024   76.9776  219.2897 H   0  0  0  0  0  0  0  0  0  0  0  0
  144.6980   76.1214  217.9785 H   0  0  0  0  0  0  0  0  0  0  0  0
  143.3343   74.9967  217.7390 H   0  0  0  0  0  0  0  0  0  0  0  0
  143.9944   77.3554  215.9103 H   0  0  0  0  0  0  0  0  0  0  0  0
  144.4779   75.6619  215.5937 H   0  0  0  0  0  0  0  0  0  0  0  0
  142.3650   76.2658  214.4289 H   0  0  0  0  0  0  0  0  0  0  0  0
  142.1229   74.9608  215.6597 H   0  0  0  0  0  0  0  0  0  0  0  0
  141.4381   77.9142  215.9267 H   0  0  0  0  0  0  0  0  0  0  0  0
  140.3047   76.5046  215.8479 H   0  0  0  0  0  0  0  0  0  0  0  0
  142.5391   75.7847  221.4437 H   0  0  0  0  0  0  0  0  0  0  0  0
  144.8130   75.0530  220.9185 H   0  0  0  0  0  0  0  0  0  0  0  0
  1  2  1  0
  2  3  2  0
  2  4  2  0
  2  5  1  0
  5  6  2  0
  6  7  1  0
  7  8  2  0
  8  9  1  0
  9 10  2  0
 10 11  1  0
 11 12  2  0
 12 13  1  0
 13 14  2  0
 14 15  1  0
 15 16  2  0
 16 17  1  0
 17 18  2  0
 18 19  1  0
 19 20  2  0
 19 21  1  0
 21 22  1  0
 22 23  1  0
 23 24  1  0
 24 25  1  0
 25 26  1  0
 26 27  1  0
 27 28  1  0
  8 29  1  0
 29 30  2  0
 30  5  1  0
 21 11  1  0
 28 23  1  0
 18 13  1  0
  1 31  1  0
  1 32  1  0
  6 33  1  0
  7 34  1  0
  9 35  1  0
 10 36  1  0
 14 37  1  0
 15 38  1  0
 16 39  1  0
 17 40  1  0
 22 41  1  0
 22 42  1  0
 23 43  1  0
 24 44  1  0
 24 45  1  0
 25 46  1  0
 25 47  1  0
 26 48  1  0
 26 49  1  0
 27 50  1  0
 27 51  1  0
 28 52  1  0
 28 53  1  0
 29 54  1  0
 30 55  1  0
M  END
>  <smiles>  (11) 
NS(=O)(=O)c1ccc(/C=C/c2nc3ccccc3c(=O)n2CC2CCCCC2)cc1

>  <score_type>  (11) 
oracle

>  <origin>  (11) 
autodockgpu

>  <m_score__min__energy>  (11) 
-9.2400000000000002

>  <m_primary>  (11) 
energy

>  <rmsd>  (11) 
4.056090893482751

>  <m_score__min__rmsd>  (11) 
4.056090893482751

>  <meeko>  (11) 
{"free_energy": -7.24, "intermolecular_energy": -9.32, "internal_energy": -2.44, "cluster_size": 6, "cluster_id": 9, "rank_in_cluster": 4}

>  <energy>  (11) 
-8.56

>  <cluster_rmsd>  (11) 
1.42

>  <cluster>  (11) 
1

$$$$

     RDKit          3D

 55 58  0  0  0  0  0  0  0  0999 V2000
  146.2940   73.4910  218.2040 N   0  0  0  0  0  0  0  0  0  0  0  0
  145.8120   73.0510  219.7980 S   0  0  0  0  0  0  0  0  0  0  0  0
  145.7870   71.5650  219.9880 O   0  0  0  0  0  0  0  0  0  0  0  0
  146.6920   73.6810  220.8390 O   0  0  0  0  0  0  0  0  0  0  0  0
  144.1940   73.6440  220.0860 C   0  0  0  0  0  0  0  0  0  0  0  0
  143.8580   74.9720  219.9370 C   0  0  0  0  0  0  0  0  0  0  0  0
  142.5730   75.4080  220.1720 C   0  0  0  0  0  0  0  0  0  0  0  0
  141.5510   74.5450  220.5670 C   0  0  0  0  0  0  0  0  0  0  0  0
  140.2040   75.0400  220.8070 C   0  0  0  0  0  0  0  0  0  0  0  0
  139.7590   75.4600  221.9740 C   0  0  0  0  0  0  0  0  0  0  0  0
  139.8530   76.8760  222.3160 C   0  0  0  0  0  0  0  0  0  0  0  0
  141.0770   77.3470  222.6650 N   0  0  0  0  0  0  0  0  0  0  0  0
  141.2870   78.6240  223.0030 C   0  0  0  0  0  0  0  0  0  0  0  0
  142.5410   79.0920  223.3580 C   0  0  0  0  0  0  0  0  0  0  0  0
  142.7290   80.4180  223.7020 C   0  0  0  0  0  0  0  0  0  0  0  0
  141.6340   81.2640  223.6810 C   0  0  0  0  0  0  0  0  0  0  0  0
  140.3830   80.8000  223.3260 C   0  0  0  0  0  0  0  0  0  0  0  0
  140.2060   79.4700  222.9840 C   0  0  0  0  0  0  0  0  0  0  0  0
  138.9710   78.9650  222.6230 C   0  0  0  0  0  0  0  0  0  0  0  0
  138.0190   79.7840  222.6210 O   0  0  0  0  0  0  0  0  0  0  0  0
  138.7640   77.6990  222.2900 N   0  0  0  0  0  0  0  0  0  0  0  0
  137.4980   77.1110  221.9250 C   0  0  0  0  0  0  0  0  0  0  0  0
  136.6590   76.7750  223.1220 C   0  0  0  0  0  0  0  0  0  0  0  0
  136.2990   75.2990  223.0190 C   0  0  0  0  0  0  0  0  0  0  0  0
  135.4650   74.9740  224.2450 C   0  0  0  0  0  0  0  0  0  0  0  0
  134.1650   75.7090  224.1220 C   0  0  0  0  0  0  0  0  0  0  0  0
  134.4430   77.1940  224.1910 C   0  0  0  0  0  0  0  0  0  0  0  0
  135.4160   77.6240  223.1100 C   0  0  0  0  0  0  0  0  0  0  0  0
  141.9140   73.2210  220.7070 C   0  0  0  0  0  0  0  0  0  0  0  0
  143.2000   72.7810  220.4740 C   0  0  0  0  0  0  0  0  0  0  0  0
  147.1390   74.1040  218.3140 H   0  0  0  0  0  0  0  0  0  0  0  0
  145.5580   74.1410  217.8130 H   0  0  0  0  0  0  0  0  0  0  0  0
  144.6272   75.6942  219.6259 H   0  0  0  0  0  0  0  0  0  0  0  0
  142.3442   76.4762  220.0434 H   0  0  0  0  0  0  0  0  0  0  0  0
  139.5087   75.0654  219.9550 H   0  0  0  0  0  0  0  0  0  0  0  0
  139.3189   74.7472  222.6869 H   0  0  0  0  0  0  0  0  0  0  0  0
  143.3970   78.4013  223.3664 H   0  0  0  0  0  0  0  0  0  0  0  0
  143.7242   80.7912  223.9853 H   0  0  0  0  0  0  0  0  0  0  0  0
  141.7623   82.3225  223.9513 H   0  0  0  0  0  0  0  0  0  0  0  0
  139.5251   81.4884  223.3149 H   0  0  0  0  0  0  0  0  0  0  0  0
  136.9457   77.8237  221.2950 H   0  0  0  0  0  0  0  0  0  0  0  0
  137.7053   76.1746  221.3864 H   0  0  0  0  0  0  0  0  0  0  0  0
  137.1990   76.9697  224.0603 H   0  0  0  0  0  0  0  0  0  0  0  0
  135.7184   75.1121  222.1036 H   0  0  0  0  0  0  0  0  0  0  0  0
  137.2010   74.6711  222.9728 H   0  0  0  0  0  0  0  0  0  0  0  0
  135.2793   73.8909  224.2950 H   0  0  0  0  0  0  0  0  0  0  0  0
  135.9932   75.2777  225.1608 H   0  0  0  0  0  0  0  0  0  0  0  0
  133.6907   75.4649  223.1600 H   0  0  0  0  0  0  0  0  0  0  0  0
  133.4879   75.4148  224.9374 H   0  0  0  0  0  0  0  0  0  0  0  0
  133.4980   77.7418  224.0608 H   0  0  0  0  0  0  0  0  0  0  0  0
  134.8913   77.4179  225.1702 H   0  0  0  0  0  0  0  0  0  0  0  0
  134.9268   77.5288  222.1294 H   0  0  0  0  0  0  0  0  0  0  0  0
  135.7071   78.6675  223.3007 H   0  0  0  0  0  0  0  0  0  0  0  0
  141.1509   72.4911  221.0152 H   0  0  0  0  0  0  0  0  0  0  0  0
  143.4344   71.7139  220.6021 H   0  0  0  0  0  0  0  0  0  0  0  0
  1  2  1  0
  2  3  2  0
  2  4  2  0
  2  5  1  0
  5  6  2  0
  6  7  1  0
  7  8  2  0
  8  9  1  0
  9 10  2  0
 10 11  1  0
 11 12  2  0
 12 13  1  0
 13 14  2  0
 14 15  1  0
 15 16  2  0
 16 17  1  0
 17 18  2  0
 18 19  1  0
 19 20  2  0
 19 21  1  0
 21 22  1  0
 22 23  1  0
 23 24  1  0
 24 25  1  0
 25 26  1  0
 26 27  1  0
 27 28  1  0
  8 29  1  0
 29 30  2  0
 30  5  1  0
 21 11  1  0
 28 23  1  0
 18 13  1  0
  1 31  1  0
  1 32  1  0
  6 33  1  0
  7 34  1  0
  9 35  1  0
 10 36  1  0
 14 37  1  0
 15 38  1  0
 16 39  1  0
 17 40  1  0
 22 41  1  0
 22 42  1  0
 23 43  1  0
 24 44  1  0
 24 45  1  0
 25 46  1  0
 25 47  1  0
 26 48  1  0
 26 49  1  0
 27 50  1  0
 27 51  1  0
 28 52  1  0
 28 53  1  0
 29 54  1  0
 30 55  1  0
M  END
>  <smiles>  (12) 
NS(=O)(=O)c1ccc(/C=C/c2nc3ccccc3c(=O)n2CC2CCCCC2)cc1

>  <score_type>  (12) 
oracle

>  <origin>  (12) 
autodockgpu

>  <m_score__min__energy>  (12) 
-9.2400000000000002

>  <m_primary>  (12) 
energy

>  <rmsd>  (12) 
5.841536076724194

>  <m_score__min__rmsd>  (12) 
5.841536076724194

>  <meeko>  (12) 
{"free_energy": -8.71, "intermolecular_energy": -10.8, "internal_energy": -1.39, "cluster_size": 5, "cluster_id": 4, "rank_in_cluster": 1}

>  <energy>  (12) 
-8.52

>  <cluster_rmsd>  (12) 
1.08

>  <cluster>  (12) 
1

$$$$

     RDKit          3D

 55 58  0  0  0  0  0  0  0  0999 V2000
  146.3510   73.4180  218.0130 N   0  0  0  0  0  0  0  0  0  0  0  0
  145.2870   72.1410  218.4690 S   0  0  0  0  0  0  0  0  0  0  0  0
  144.7010   71.4460  217.2770 O   0  0  0  0  0  0  0  0  0  0  0  0
  145.9680   71.1400  219.3570 O   0  0  0  0  0  0  0  0  0  0  0  0
  143.9620   72.8090  219.3910 C   0  0  0  0  0  0  0  0  0  0  0  0
  144.0800   73.9780  220.1100 C   0  0  0  0  0  0  0  0  0  0  0  0
  143.0160   74.4780  220.8280 C   0  0  0  0  0  0  0  0  0  0  0  0
  141.7750   73.8420  220.8680 C   0  0  0  0  0  0  0  0  0  0  0  0
  140.6730   74.3980  221.6360 C   0  0  0  0  0  0  0  0  0  0  0  0
  139.9770   75.4600  221.2840 C   0  0  0  0  0  0  0  0  0  0  0  0
  140.5920   76.7810  221.3510 C   0  0  0  0  0  0  0  0  0  0  0  0
  140.8870   77.2640  222.5860 N   0  0  0  0  0  0  0  0  0  0  0  0
  141.4480   78.4630  222.7730 C   0  0  0  0  0  0  0  0  0  0  0  0
  141.7430   78.9440  224.0390 C   0  0  0  0  0  0  0  0  0  0  0  0
  142.3240   80.1880  224.2030 C   0  0  0  0  0  0  0  0  0  0  0  0
  142.6030   80.9380  223.0750 C   0  0  0  0  0  0  0  0  0  0  0  0
  142.3110   80.4610  221.8130 C   0  0  0  0  0  0  0  0  0  0  0  0
  141.7280   79.2140  221.6590 C   0  0  0  0  0  0  0  0  0  0  0  0
  141.4190   78.6980  220.4140 C   0  0  0  0  0  0  0  0  0  0  0  0
  141.7000   79.4260  219.4300 O   0  0  0  0  0  0  0  0  0  0  0  0
  140.8620   77.5110  220.2290 N   0  0  0  0  0  0  0  0  0  0  0  0
  140.4990   76.9300  218.9590 C   0  0  0  0  0  0  0  0  0  0  0  0
  141.5690   76.0310  218.4160 C   0  0  0  0  0  0  0  0  0  0  0  0
  142.6540   76.9240  217.8290 C   0  0  0  0  0  0  0  0  0  0  0  0
  143.7340   75.9980  217.3000 C   0  0  0  0  0  0  0  0  0  0  0  0
  143.1630   75.2490  216.1340 C   0  0  0  0  0  0  0  0  0  0  0  0
  142.0550   74.3510  216.6350 C   0  0  0  0  0  0  0  0  0  0  0  0
  140.9800   75.1470  217.3500 C   0  0  0  0  0  0  0  0  0  0  0  0
  141.6850   72.6740  220.1370 C   0  0  0  0  0  0  0  0  0  0  0  0
  142.7480   72.1700  219.4190 C   0  0  0  0  0  0  0  0  0  0  0  0
  146.6520   73.8790  218.9080 H   0  0  0  0  0  0  0  0  0  0  0  0
  145.7760   74.1590  217.5270 H   0  0  0  0  0  0  0  0  0  0  0  0
  145.0373   74.5199  220.1108 H   0  0  0  0  0  0  0  0  0  0  0  0
  143.1499   75.4136  221.3908 H   0  0  0  0  0  0  0  0  0  0  0  0
  140.4012   73.8971  222.5768 H   0  0  0  0  0  0  0  0  0  0  0  0
  138.9374   75.3510  220.9413 H   0  0  0  0  0  0  0  0  0  0  0  0
  141.5126   78.3300  224.9221 H   0  0  0  0  0  0  0  0  0  0  0  0
  142.5587   80.5720  225.2067 H   0  0  0  0  0  0  0  0  0  0  0  0
  143.0648   81.9302  223.1852 H   0  0  0  0  0  0  0  0  0  0  0  0
  142.5417   81.0723  220.9281 H   0  0  0  0  0  0  0  0  0  0  0  0
  139.5773   76.3439  219.0890 H   0  0  0  0  0  0  0  0  0  0  0  0
  140.3556   77.7521  218.2424 H   0  0  0  0  0  0  0  0  0  0  0  0
  141.9909   75.3877  219.2023 H   0  0  0  0  0  0  0  0  0  0  0  0
  142.2428   77.5345  217.0115 H   0  0  0  0  0  0  0  0  0  0  0  0
  143.0561   77.6124  218.5869 H   0  0  0  0  0  0  0  0  0  0  0  0
  144.6058   76.5858  216.9768 H   0  0  0  0  0  0  0  0  0  0  0  0
  144.0593   75.2988  218.0844 H   0  0  0  0  0  0  0  0  0  0  0  0
  142.7597   75.9601  215.3980 H   0  0  0  0  0  0  0  0  0  0  0  0
  143.9476   74.6462  215.6533 H   0  0  0  0  0  0  0  0  0  0  0  0
  141.6036   73.8277  215.7792 H   0  0  0  0  0  0  0  0  0  0  0  0
  142.4863   73.6326  217.3476 H   0  0  0  0  0  0  0  0  0  0  0  0
  140.4516   75.7740  216.6168 H   0  0  0  0  0  0  0  0  0  0  0  0
  140.2874   74.4401  217.8302 H   0  0  0  0  0  0  0  0  0  0  0  0
  140.7310   72.1264  220.1274 H   0  0  0  0  0  0  0  0  0  0  0  0
  142.6203   71.2340  218.8555 H   0  0  0  0  0  0  0  0  0  0  0  0
  1  2  1  0
  2  3  2  0
  2  4  2  0
  2  5  1  0
  5  6  2  0
  6  7  1  0
  7  8  2  0
  8  9  1  0
  9 10  2  0
 10 11  1  0
 11 12  2  0
 12 13  1  0
 13 14  2  0
 14 15  1  0
 15 16  2  0
 16 17  1  0
 17 18  2  0
 18 19  1  0
 19 20  2  0
 19 21  1  0
 21 22  1  0
 22 23  1  0
 23 24  1  0
 24 25  1  0
 25 26  1  0
 26 27  1  0
 27 28  1  0
  8 29  1  0
 29 30  2  0
 30  5  1  0
 21 11  1  0
 28 23  1  0
 18 13  1  0
  1 31  1  0
  1 32  1  0
  6 33  1  0
  7 34  1  0
  9 35  1  0
 10 36  1  0
 14 37  1  0
 15 38  1  0
 16 39  1  0
 17 40  1  0
 22 41  1  0
 22 42  1  0
 23 43  1  0
 24 44  1  0
 24 45  1  0
 25 46  1  0
 25 47  1  0
 26 48  1  0
 26 49  1  0
 27 50  1  0
 27 51  1  0
 28 52  1  0
 28 53  1  0
 29 54  1  0
 30 55  1  0
M  END
>  <smiles>  (13) 
NS(=O)(=O)c1ccc(/C=C/c2nc3ccccc3c(=O)n2CC2CCCCC2)cc1

>  <score_type>  (13) 
oracle

>  <origin>  (13) 
autodockgpu

>  <m_score__min__energy>  (13) 
-9.2400000000000002

>  <m_primary>  (13) 
energy

>  <rmsd>  (13) 
3.7464058597373793

>  <m_score__min__rmsd>  (13) 
3.7464058597373793

>  <meeko>  (13) 
{"free_energy": -7.09, "intermolecular_energy": -9.18, "internal_energy": -2.66, "cluster_size": 6, "cluster_id": 9, "rank_in_cluster": 5}

>  <energy>  (13) 
-8.49

>  <cluster_rmsd>  (13) 
1.06

>  <cluster>  (13) 
1

$$$$

     RDKit          3D

 55 58  0  0  0  0  0  0  0  0999 V2000
  146.6640   73.9560  220.1550 N   0  0  0  0  0  0  0  0  0  0  0  0
  145.6620   72.7540  219.4330 S   0  0  0  0  0  0  0  0  0  0  0  0
  145.4500   73.0040  217.9710 O   0  0  0  0  0  0  0  0  0  0  0  0
  146.2150   71.3730  219.6370 O   0  0  0  0  0  0  0  0  0  0  0  0
  144.0940   72.7850  220.2040 C   0  0  0  0  0  0  0  0  0  0  0  0
  143.3940   73.9530  220.4060 C   0  0  0  0  0  0  0  0  0  0  0  0
  142.1600   73.9440  221.0180 C   0  0  0  0  0  0  0  0  0  0  0  0
  141.5550   72.7680  221.4620 C   0  0  0  0  0  0  0  0  0  0  0  0
  140.2500   72.7940  222.1040 C   0  0  0  0  0  0  0  0  0  0  0  0
  139.4730   71.7410  222.2600 C   0  0  0  0  0  0  0  0  0  0  0  0
  139.5870   70.9310  223.4680 C   0  0  0  0  0  0  0  0  0  0  0  0
  140.1380   71.5230  224.5590 N   0  0  0  0  0  0  0  0  0  0  0  0
  140.2990   70.8810  225.7210 C   0  0  0  0  0  0  0  0  0  0  0  0
  140.8640   71.4960  226.8260 C   0  0  0  0  0  0  0  0  0  0  0  0
  141.0170   70.8080  228.0150 C   0  0  0  0  0  0  0  0  0  0  0  0
  140.5930   69.4920  228.0740 C   0  0  0  0  0  0  0  0  0  0  0  0
  140.0290   68.8770  226.9740 C   0  0  0  0  0  0  0  0  0  0  0  0
  139.8810   69.5750  225.7870 C   0  0  0  0  0  0  0  0  0  0  0  0
  139.3220   68.9980  224.6620 C   0  0  0  0  0  0  0  0  0  0  0  0
  138.9540   67.8020  224.7810 O   0  0  0  0  0  0  0  0  0  0  0  0
  139.1640   69.6330  223.5110 N   0  0  0  0  0  0  0  0  0  0  0  0
  138.6080   69.0780  222.3010 C   0  0  0  0  0  0  0  0  0  0  0  0
  139.5570   68.1420  221.6150 C   0  0  0  0  0  0  0  0  0  0  0  0
  139.9560   68.7910  220.2960 C   0  0  0  0  0  0  0  0  0  0  0  0
  140.9270   67.8380  219.6250 C   0  0  0  0  0  0  0  0  0  0  0  0
  140.1680   66.6040  219.2440 C   0  0  0  0  0  0  0  0  0  0  0  0
  139.7120   65.9100  220.5090 C   0  0  0  0  0  0  0  0  0  0  0  0
  138.8640   66.8290  221.3670 C   0  0  0  0  0  0  0  0  0  0  0  0
  142.2770   71.6120  221.2450 C   0  0  0  0  0  0  0  0  0  0  0  0
  143.5130   71.6180  220.6340 C   0  0  0  0  0  0  0  0  0  0  0  0
  147.3580   74.2370  219.4190 H   0  0  0  0  0  0  0  0  0  0  0  0
  147.2540   73.4820  220.8930 H   0  0  0  0  0  0  0  0  0  0  0  0
  143.8267   74.9081  220.0736 H   0  0  0  0  0  0  0  0  0  0  0  0
  141.6326   74.8985  221.1618 H   0  0  0  0  0  0  0  0  0  0  0  0
  139.8865   73.7595  222.4858 H   0  0  0  0  0  0  0  0  0  0  0  0
  138.7418   71.4740  221.4828 H   0  0  0  0  0  0  0  0  0  0  0  0
  141.1944   72.5429  226.7566 H   0  0  0  0  0  0  0  0  0  0  0  0
  141.4652   71.2950  228.8936 H   0  0  0  0  0  0  0  0  0  0  0  0
  140.7070   68.9275  229.0112 H   0  0  0  0  0  0  0  0  0  0  0  0
  139.6966   67.8305  227.0405 H   0  0  0  0  0  0  0  0  0  0  0  0
  137.6896   68.5279  222.5538 H   0  0  0  0  0  0  0  0  0  0  0  0
  138.4013   69.9111  221.6130 H   0  0  0  0  0  0  0  0  0  0  0  0
  140.4489   67.9509  222.2298 H   0  0  0  0  0  0  0  0  0  0  0  0
  139.0696   68.9396  219.6619 H   0  0  0  0  0  0  0  0  0  0  0  0
  140.4149   69.7772  220.4600 H   0  0  0  0  0  0  0  0  0  0  0  0
  141.3520   68.3084  218.7261 H   0  0  0  0  0  0  0  0  0  0  0  0
  141.7520   67.5862  220.3077 H   0  0  0  0  0  0  0  0  0  0  0  0
  139.2935   66.8793  218.6361 H   0  0  0  0  0  0  0  0  0  0  0  0
  140.8116   65.9322  218.6571 H   0  0  0  0  0  0  0  0  0  0  0  0
  139.1186   65.0244  220.2378 H   0  0  0  0  0  0  0  0  0  0  0  0
  140.6025   65.6202  221.0861 H   0  0  0  0  0  0  0  0  0  0  0  0
  137.9100   67.0191  220.8534 H   0  0  0  0  0  0  0  0  0  0  0  0
  138.6938   66.3384  222.3367 H   0  0  0  0  0  0  0  0  0  0  0  0
  141.8512   70.6516  221.5711 H   0  0  0  0  0  0  0  0  0  0  0  0
  144.0453   70.6665  220.4879 H   0  0  0  0  0  0  0  0  0  0  0  0
  1  2  1  0
  2  3  2  0
  2  4  2  0
  2  5  1  0
  5  6  2  0
  6  7  1  0
  7  8  2  0
  8  9  1  0
  9 10  2  0
 10 11  1  0
 11 12  2  0
 12 13  1  0
 13 14  2  0
 14 15  1  0
 15 16  2  0
 16 17  1  0
 17 18  2  0
 18 19  1  0
 19 20  2  0
 19 21  1  0
 21 22  1  0
 22 23  1  0
 23 24  1  0
 24 25  1  0
 25 26  1  0
 26 27  1  0
 27 28  1  0
  8 29  1  0
 29 30  2  0
 30  5  1  0
 21 11  1  0
 28 23  1  0
 18 13  1  0
  1 31  1  0
  1 32  1  0
  6 33  1  0
  7 34  1  0
  9 35  1  0
 10 36  1  0
 14 37  1  0
 15 38  1  0
 16 39  1  0
 17 40  1  0
 22 41  1  0
 22 42  1  0
 23 43  1  0
 24 44  1  0
 24 45  1  0
 25 46  1  0
 25 47  1  0
 26 48  1  0
 26 49  1  0
 27 50  1  0
 27 51  1  0
 28 52  1  0
 28 53  1  0
 29 54  1  0
 30 55  1  0
M  END
>  <smiles>  (14) 
NS(=O)(=O)c1ccc(/C=C/c2nc3ccccc3c(=O)n2CC2CCCCC2)cc1

>  <score_type>  (14) 
oracle

>  <origin>  (14) 
autodockgpu

>  <m_score__min__energy>  (14) 
-9.2400000000000002

>  <m_primary>  (14) 
energy

>  <rmsd>  (14) 
11.038556021572878

>  <m_score__min__rmsd>  (14) 
11.038556021572878

>  <meeko>  (14) 
{"free_energy": -8.31, "intermolecular_energy": -10.4, "internal_energy": -1.65, "cluster_size": 16, "cluster_id": 1, "rank_in_cluster": 16}

>  <energy>  (14) 
-8.44

>  <cluster_rmsd>  (14) 
1.5

>  <cluster>  (14) 
1

$$$$

     RDKit          3D

 55 58  0  0  0  0  0  0  0  0999 V2000
  146.0080   73.4260  218.2840 N   0  0  0  0  0  0  0  0  0  0  0  0
  145.9290   72.8580  219.9080 S   0  0  0  0  0  0  0  0  0  0  0  0
  146.5600   71.5080  220.0630 O   0  0  0  0  0  0  0  0  0  0  0  0
  146.5600   73.8260  220.8670 O   0  0  0  0  0  0  0  0  0  0  0  0
  144.2520   72.7100  220.3770 C   0  0  0  0  0  0  0  0  0  0  0  0
  143.6740   71.4970  220.6770 C   0  0  0  0  0  0  0  0  0  0  0  0
  142.3490   71.4150  221.0430 C   0  0  0  0  0  0  0  0  0  0  0  0
  141.5260   72.5380  221.1300 C   0  0  0  0  0  0  0  0  0  0  0  0
  140.1300   72.4150  221.5200 C   0  0  0  0  0  0  0  0  0  0  0  0
  139.6710   72.6370  222.7350 C   0  0  0  0  0  0  0  0  0  0  0  0
  139.6010   71.5390  223.6930 C   0  0  0  0  0  0  0  0  0  0  0  0
  140.3310   71.6630  224.8310 N   0  0  0  0  0  0  0  0  0  0  0  0
  140.3490   70.7210  225.7790 C   0  0  0  0  0  0  0  0  0  0  0  0
  141.0990   70.8600  226.9360 C   0  0  0  0  0  0  0  0  0  0  0  0
  141.0990   69.8700  227.9010 C   0  0  0  0  0  0  0  0  0  0  0  0
  140.3330   68.7390  227.6820 C   0  0  0  0  0  0  0  0  0  0  0  0
  139.5840   68.5970  226.5310 C   0  0  0  0  0  0  0  0  0  0  0  0
  139.5920   69.5960  225.5710 C   0  0  0  0  0  0  0  0  0  0  0  0
  138.8570   69.4950  224.4040 C   0  0  0  0  0  0  0  0  0  0  0  0
  138.1800   68.4450  224.2670 O   0  0  0  0  0  0  0  0  0  0  0  0
  138.8400   70.4280  223.4640 N   0  0  0  0  0  0  0  0  0  0  0  0
  138.1110   70.3690  222.2200 C   0  0  0  0  0  0  0  0  0  0  0  0
  136.7430   70.9710  222.3320 C   0  0  0  0  0  0  0  0  0  0  0  0
  136.7430   72.2510  221.5070 C   0  0  0  0  0  0  0  0  0  0  0  0
  135.3470   72.8360  221.6200 C   0  0  0  0  0  0  0  0  0  0  0  0
  135.1500   73.2790  223.0380 C   0  0  0  0  0  0  0  0  0  0  0  0
  135.1620   72.0580  223.9300 C   0  0  0  0  0  0  0  0  0  0  0  0
  136.4530   71.2760  223.7780 C   0  0  0  0  0  0  0  0  0  0  0  0
  142.1310   73.7400  220.8250 C   0  0  0  0  0  0  0  0  0  0  0  0
  143.4570   73.8260  220.4580 C   0  0  0  0  0  0  0  0  0  0  0  0
  146.8960   73.9830  218.2130 H   0  0  0  0  0  0  0  0  0  0  0  0
  145.2460   74.1470  218.1570 H   0  0  0  0  0  0  0  0  0  0  0  0
  144.2793   70.5801  220.6236 H   0  0  0  0  0  0  0  0  0  0  0  0
  141.9238   70.4275  221.2753 H   0  0  0  0  0  0  0  0  0  0  0  0
  139.4072   72.1158  220.7467 H   0  0  0  0  0  0  0  0  0  0  0  0
  139.3421   73.6456  223.0256 H   0  0  0  0  0  0  0  0  0  0  0  0
  141.7009   71.7680  227.0883 H   0  0  0  0  0  0  0  0  0  0  0  0
  141.6934   69.9789  228.8202 H   0  0  0  0  0  0  0  0  0  0  0  0
  140.3205   67.9396  228.4375 H   0  0  0  0  0  0  0  0  0  0  0  0
  138.9806   67.6904  226.3760 H   0  0  0  0  0  0  0  0  0  0  0  0
  138.6768   70.9173  221.4523 H   0  0  0  0  0  0  0  0  0  0  0  0
  137.9907   69.3092  221.9509 H   0  0  0  0  0  0  0  0  0  0  0  0
  135.9692   70.2819  221.9627 H   0  0  0  0  0  0  0  0  0  0  0  0
  137.4852   72.9592  221.9041 H   0  0  0  0  0  0  0  0  0  0  0  0
  137.0060   72.0485  220.4583 H   0  0  0  0  0  0  0  0  0  0  0  0
  135.2455   73.6960  220.9417 H   0  0  0  0  0  0  0  0  0  0  0  0
  134.5920   72.0854  221.3433 H   0  0  0  0  0  0  0  0  0  0  0  0
  135.9633   73.9596  223.3302 H   0  0  0  0  0  0  0  0  0  0  0  0
  134.1905   73.8078  223.1370 H   0  0  0  0  0  0  0  0  0  0  0  0
  135.0585   72.3784  224.9772 H   0  0  0  0  0  0  0  0  0  0  0  0
  134.3254   71.4065  223.6374 H   0  0  0  0  0  0  0  0  0  0  0  0
  137.2817   71.8692  224.1919 H   0  0  0  0  0  0  0  0  0  0  0  0
  136.3469   70.3238  224.3184 H   0  0  0  0  0  0  0  0  0  0  0  0
  141.5340   74.6625  220.8765 H   0  0  0  0  0  0  0  0  0  0  0  0
  143.8876   74.8110  220.2248 H   0  0  0  0  0  0  0  0  0  0  0  0
  1  2  1  0
  2  3  2  0
  2  4  2  0
  2  5  1  0
  5  6  2  0
  6  7  1  0
  7  8  2  0
  8  9  1  0
  9 10  2  0
 10 11  1  0
 11 12  2  0
 12 13  1  0
 13 14  2  0
 14 15  1  0
 15 16  2  0
 16 17  1  0
 17 18  2  0
 18 19  1  0
 19 20  2  0
 19 21  1  0
 21 22  1  0
 22 23  1  0
 23 24  1  0
 24 25  1  0
 25 26  1  0
 26 27  1  0
 27 28  1  0
  8 29  1  0
 29 30  2  0
 30  5  1  0
 21 11  1  0
 28 23  1  0
 18 13  1  0
  1 31  1  0
  1 32  1  0
  6 33  1  0
  7 34  1  0
  9 35  1  0
 10 36  1  0
 14 37  1  0
 15 38  1  0
 16 39  1  0
 17 40  1  0
 22 41  1  0
 22 42  1  0
 23 43  1  0
 24 44  1  0
 24 45  1  0
 25 46  1  0
 25 47  1  0
 26 48  1  0
 26 49  1  0
 27 50  1  0
 27 51  1  0
 28 52  1  0
 28 53  1  0
 29 54  1  0
 30 55  1  0
M  END
>  <smiles>  (15) 
NS(=O)(=O)c1ccc(/C=C/c2nc3ccccc3c(=O)n2CC2CCCCC2)cc1

>  <score_type>  (15) 
oracle

>  <origin>  (15) 
autodockgpu

>  <m_score__min__energy>  (15) 
-9.2400000000000002

>  <m_primary>  (15) 
energy

>  <rmsd>  (15) 
10.6727379137651

>  <m_score__min__rmsd>  (15) 
10.6727379137651

>  <meeko>  (15) 
{"free_energy": -8.39, "intermolecular_energy": -10.48, "internal_energy": -1.32, "cluster_size": 16, "cluster_id": 1, "rank_in_cluster": 15}

>  <energy>  (15) 
-8.39

>  <cluster_rmsd>  (15) 
1.5

>  <cluster>  (15) 
1

$$$$

     RDKit          3D

 55 58  0  0  0  0  0  0  0  0999 V2000
  139.1920   67.1320  226.4710 N   0  0  0  0  0  0  0  0  0  0  0  0
  140.0300   68.5540  226.9650 S   0  0  0  0  0  0  0  0  0  0  0  0
  139.3600   69.2260  228.1250 O   0  0  0  0  0  0  0  0  0  0  0  0
  141.4640   68.2640  227.3050 O   0  0  0  0  0  0  0  0  0  0  0  0
  140.0500   69.6900  225.6390 C   0  0  0  0  0  0  0  0  0  0  0  0
  140.7080   70.8970  225.7110 C   0  0  0  0  0  0  0  0  0  0  0  0
  140.7050   71.7720  224.6470 C   0  0  0  0  0  0  0  0  0  0  0  0
  140.0450   71.4910  223.4510 C   0  0  0  0  0  0  0  0  0  0  0  0
  140.0610   72.4380  222.3470 C   0  0  0  0  0  0  0  0  0  0  0  0
  141.1490   72.8360  221.7190 C   0  0  0  0  0  0  0  0  0  0  0  0
  141.2830   74.2330  221.3200 C   0  0  0  0  0  0  0  0  0  0  0  0
  140.7390   75.1660  222.1430 N   0  0  0  0  0  0  0  0  0  0  0  0
  140.7950   76.4760  221.8800 C   0  0  0  0  0  0  0  0  0  0  0  0
  140.2350   77.4180  222.7290 C   0  0  0  0  0  0  0  0  0  0  0  0
  140.3090   78.7660  222.4320 C   0  0  0  0  0  0  0  0  0  0  0  0
  140.9530   79.1500  221.2700 C   0  0  0  0  0  0  0  0  0  0  0  0
  141.5120   78.2140  220.4230 C   0  0  0  0  0  0  0  0  0  0  0  0
  141.4330   76.8660  220.7300 C   0  0  0  0  0  0  0  0  0  0  0  0
  141.9780   75.8950  219.9100 C   0  0  0  0  0  0  0  0  0  0  0  0
  142.5520   76.3090  218.8710 O   0  0  0  0  0  0  0  0  0  0  0  0
  141.9220   74.5980  220.1700 N   0  0  0  0  0  0  0  0  0  0  0  0
  142.4530   73.5400  219.3440 C   0  0  0  0  0  0  0  0  0  0  0  0
  143.9490   73.4640  219.4090 C   0  0  0  0  0  0  0  0  0  0  0  0
  144.3170   72.0060  219.6510 C   0  0  0  0  0  0  0  0  0  0  0  0
  145.8320   71.9460  219.6970 C   0  0  0  0  0  0  0  0  0  0  0  0
  146.2810   72.6770  220.9260 C   0  0  0  0  0  0  0  0  0  0  0  0
  145.9280   74.1400  220.7720 C   0  0  0  0  0  0  0  0  0  0  0  0
  144.4410   74.3270  220.5400 C   0  0  0  0  0  0  0  0  0  0  0  0
  139.3940   70.2750  223.4040 C   0  0  0  0  0  0  0  0  0  0  0  0
  139.3950   69.3980  224.4680 C   0  0  0  0  0  0  0  0  0  0  0  0
  138.1700   67.3760  226.4840 H   0  0  0  0  0  0  0  0  0  0  0  0
  139.2910   66.4150  227.2420 H   0  0  0  0  0  0  0  0  0  0  0  0
  141.2445   71.1670  226.6325 H   0  0  0  0  0  0  0  0  0  0  0  0
  141.2426   72.7268  224.7442 H   0  0  0  0  0  0  0  0  0  0  0  0
  139.0976   72.8508  222.0130 H   0  0  0  0  0  0  0  0  0  0  0  0
  141.9524   72.1183  221.4966 H   0  0  0  0  0  0  0  0  0  0  0  0
  139.7269   77.0897  223.6477 H   0  0  0  0  0  0  0  0  0  0  0  0
  139.8660   79.5157  223.1042 H   0  0  0  0  0  0  0  0  0  0  0  0
  141.0209   80.2182  221.0165 H   0  0  0  0  0  0  0  0  0  0  0  0
  142.0206   78.5393  219.5035 H   0  0  0  0  0  0  0  0  0  0  0  0
  142.0349   72.5814  219.6849 H   0  0  0  0  0  0  0  0  0  0  0  0
  142.1718   73.7530  218.3021 H   0  0  0  0  0  0  0  0  0  0  0  0
  144.4106   73.8223  218.4770 H   0  0  0  0  0  0  0  0  0  0  0  0
  143.8939   71.6607  220.6059 H   0  0  0  0  0  0  0  0  0  0  0  0
  143.9172   71.3578  218.8572 H   0  0  0  0  0  0  0  0  0  0  0  0
  146.1640   70.8983  219.7422 H   0  0  0  0  0  0  0  0  0  0  0  0
  146.2629   72.4071  218.7961 H   0  0  0  0  0  0  0  0  0  0  0  0
  145.7726   72.2639  221.8096 H   0  0  0  0  0  0  0  0  0  0  0  0
  147.3675   72.5637  221.0553 H   0  0  0  0  0  0  0  0  0  0  0  0
  146.2181   74.6768  221.6873 H   0  0  0  0  0  0  0  0  0  0  0  0
  146.4679   74.5373  219.8999 H   0  0  0  0  0  0  0  0  0  0  0  0
  143.8987   74.0571  221.4582 H   0  0  0  0  0  0  0  0  0  0  0  0
  144.2614   75.3796  220.2758 H   0  0  0  0  0  0  0  0  0  0  0  0
  138.8558   69.9958  222.4862 H   0  0  0  0  0  0  0  0  0  0  0  0
  138.8585   68.4420  224.3766 H   0  0  0  0  0  0  0  0  0  0  0  0
  1  2  1  0
  2  3  2  0
  2  4  2  0
  2  5  1  0
  5  6  2  0
  6  7  1  0
  7  8  2  0
  8  9  1  0
  9 10  2  0
 10 11  1  0
 11 12  2  0
 12 13  1  0
 13 14  2  0
 14 15  1  0
 15 16  2  0
 16 17  1  0
 17 18  2  0
 18 19  1  0
 19 20  2  0
 19 21  1  0
 21 22  1  0
 22 23  1  0
 23 24  1  0
 24 25  1  0
 25 26  1  0
 26 27  1  0
 27 28  1  0
  8 29  1  0
 29 30  2  0
 30  5  1  0
 21 11  1  0
 28 23  1  0
 18 13  1  0
  1 31  1  0
  1 32  1  0
  6 33  1  0
  7 34  1  0
  9 35  1  0
 10 36  1  0
 14 37  1  0
 15 38  1  0
 16 39  1  0
 17 40  1  0
 22 41  1  0
 22 42  1  0
 23 43  1  0
 24 44  1  0
 24 45  1  0
 25 46  1  0
 25 47  1  0
 26 48  1  0
 26 49  1  0
 27 50  1  0
 27 51  1  0
 28 52  1  0
 28 53  1  0
 29 54  1  0
 30 55  1  0
M  END
>  <smiles>  (16) 
NS(=O)(=O)c1ccc(/C=C/c2nc3ccccc3c(=O)n2CC2CCCCC2)cc1

>  <score_type>  (16) 
oracle

>  <origin>  (16) 
autodockgpu

>  <m_score__min__energy>  (16) 
-9.2400000000000002

>  <m_primary>  (16) 
energy

>  <rmsd>  (16) 
5.761494708389222

>  <m_score__min__rmsd>  (16) 
5.761494708389222

>  <meeko>  (16) 
{"free_energy": -8.91, "intermolecular_energy": -10.99, "internal_energy": -1.26, "cluster_size": 8, "cluster_id": 2, "rank_in_cluster": 2}

>  <energy>  (16) 
-8.31

>  <cluster_rmsd>  (16) 
1.59

>  <cluster>  (16) 
1

$$$$

     RDKit          3D

 55 58  0  0  0  0  0  0  0  0999 V2000
  146.2550   71.8670  220.0910 N   0  0  0  0  0  0  0  0  0  0  0  0
  145.3600   73.3280  219.9100 S   0  0  0  0  0  0  0  0  0  0  0  0
  145.9640   74.4570  220.6880 O   0  0  0  0  0  0  0  0  0  0  0  0
  145.2250   73.7210  218.4670 O   0  0  0  0  0  0  0  0  0  0  0  0
  143.7400   73.0790  220.5150 C   0  0  0  0  0  0  0  0  0  0  0  0
  142.8690   74.1210  220.7400 C   0  0  0  0  0  0  0  0  0  0  0  0
  141.5970   73.8920  221.2180 C   0  0  0  0  0  0  0  0  0  0  0  0
  141.1240   72.6100  221.4980 C   0  0  0  0  0  0  0  0  0  0  0  0
  139.7760   72.4040  222.0020 C   0  0  0  0  0  0  0  0  0  0  0  0
  139.2650   71.2290  222.3110 C   0  0  0  0  0  0  0  0  0  0  0  0
  139.5180   70.6540  223.6280 C   0  0  0  0  0  0  0  0  0  0  0  0
  140.1010   71.4600  224.5520 N   0  0  0  0  0  0  0  0  0  0  0  0
  140.3860   71.0440  225.7910 C   0  0  0  0  0  0  0  0  0  0  0  0
  140.9820   71.8760  226.7240 C   0  0  0  0  0  0  0  0  0  0  0  0
  141.2640   71.4200  227.9980 C   0  0  0  0  0  0  0  0  0  0  0  0
  140.9370   70.1140  228.3170 C   0  0  0  0  0  0  0  0  0  0  0  0
  140.3430   69.2830  227.3890 C   0  0  0  0  0  0  0  0  0  0  0  0
  140.0640   69.7500  226.1150 C   0  0  0  0  0  0  0  0  0  0  0  0
  139.4700   68.9510  225.1560 C   0  0  0  0  0  0  0  0  0  0  0  0
  139.1950   67.7770  225.5080 O   0  0  0  0  0  0  0  0  0  0  0  0
  139.1900   69.3630  223.9280 N   0  0  0  0  0  0  0  0  0  0  0  0
  138.5910   68.5710  222.8810 C   0  0  0  0  0  0  0  0  0  0  0  0
  137.0930   68.5870  222.9410 C   0  0  0  0  0  0  0  0  0  0  0  0
  136.5980   69.2890  221.6840 C   0  0  0  0  0  0  0  0  0  0  0  0
  135.0820   69.2800  221.7550 C   0  0  0  0  0  0  0  0  0  0  0  0
  134.6720   70.1670  222.8910 C   0  0  0  0  0  0  0  0  0  0  0  0
  135.1520   69.5450  224.1840 C   0  0  0  0  0  0  0  0  0  0  0  0
  136.6540   69.3350  224.1710 C   0  0  0  0  0  0  0  0  0  0  0  0
  142.0170   71.5840  221.2620 C   0  0  0  0  0  0  0  0  0  0  0  0
  143.2900   71.8110  220.7850 C   0  0  0  0  0  0  0  0  0  0  0  0
  145.5450   71.0950  220.1500 H   0  0  0  0  0  0  0  0  0  0  0  0
  146.6990   71.8780  221.0510 H   0  0  0  0  0  0  0  0  0  0  0  0
  143.1933   75.1520  220.5352 H   0  0  0  0  0  0  0  0  0  0  0  0
  140.9306   74.7511  221.3848 H   0  0  0  0  0  0  0  0  0  0  0  0
  139.1382   73.2903  222.1347 H   0  0  0  0  0  0  0  0  0  0  0  0
  138.6505   70.6842  221.5792 H   0  0  0  0  0  0  0  0  0  0  0  0
  141.2336   72.9107  226.4483 H   0  0  0  0  0  0  0  0  0  0  0  0
  141.7371   72.0796  228.7404 H   0  0  0  0  0  0  0  0  0  0  0  0
  141.1538   69.7323  229.3256 H   0  0  0  0  0  0  0  0  0  0  0  0
  140.0906   68.2476  227.6615 H   0  0  0  0  0  0  0  0  0  0  0  0
  138.9102   68.9719  221.9077 H   0  0  0  0  0  0  0  0  0  0  0  0
  138.9218   67.5306  223.0153 H   0  0  0  0  0  0  0  0  0  0  0  0
  136.6818   67.5681  222.9930 H   0  0  0  0  0  0  0  0  0  0  0  0
  136.9710   70.3234  221.6544 H   0  0  0  0  0  0  0  0  0  0  0  0
  136.9571   68.7811  220.7768 H   0  0  0  0  0  0  0  0  0  0  0  0
  134.6609   69.6600  220.8125 H   0  0  0  0  0  0  0  0  0  0  0  0
  134.7106   68.2567  221.9128 H   0  0  0  0  0  0  0  0  0  0  0  0
  135.1252   71.1616  222.7672 H   0  0  0  0  0  0  0  0  0  0  0  0
  133.5774   70.2749  222.9085 H   0  0  0  0  0  0  0  0  0  0  0  0
  134.8905   70.2102  225.0202 H   0  0  0  0  0  0  0  0  0  0  0  0
  134.6657   68.5651  224.2991 H   0  0  0  0  0  0  0  0  0  0  0  0
  137.1527   70.3153  224.1908 H   0  0  0  0  0  0  0  0  0  0  0  0
  136.9281   68.7398  225.0545 H   0  0  0  0  0  0  0  0  0  0  0  0
  141.7016   70.5493  221.4616 H   0  0  0  0  0  0  0  0  0  0  0  0
  143.9610   70.9557  220.6168 H   0  0  0  0  0  0  0  0  0  0  0  0
  1  2  1  0
  2  3  2  0
  2  4  2  0
  2  5  1  0
  5  6  2  0
  6  7  1  0
  7  8  2  0
  8  9  1  0
  9 10  2  0
 10 11  1  0
 11 12  2  0
 12 13  1  0
 13 14  2  0
 14 15  1  0
 15 16  2  0
 16 17  1  0
 17 18  2  0
 18 19  1  0
 19 20  2  0
 19 21  1  0
 21 22  1  0
 22 23  1  0
 23 24  1  0
 24 25  1  0
 25 26  1  0
 26 27  1  0
 27 28  1  0
  8 29  1  0
 29 30  2  0
 30  5  1  0
 21 11  1  0
 28 23  1  0
 18 13  1  0
  1 31  1  0
  1 32  1  0
  6 33  1  0
  7 34  1  0
  9 35  1  0
 10 36  1  0
 14 37  1  0
 15 38  1  0
 16 39  1  0
 17 40  1  0
 22 41  1  0
 22 42  1  0
 23 43  1  0
 24 44  1  0
 24 45  1  0
 25 46  1  0
 25 47  1  0
 26 48  1  0
 26 49  1  0
 27 50  1  0
 27 51  1  0
 28 52  1  0
 28 53  1  0
 29 54  1  0
 30 55  1  0
M  END
>  <smiles>  (17) 
NS(=O)(=O)c1ccc(/C=C/c2nc3ccccc3c(=O)n2CC2CCCCC2)cc1

>  <score_type>  (17) 
oracle

>  <origin>  (17) 
autodockgpu

>  <m_score__min__energy>  (17) 
-9.2400000000000002

>  <m_primary>  (17) 
energy

>  <rmsd>  (17) 
11.135135869479727

>  <m_score__min__rmsd>  (17) 
11.135135869479727

>  <meeko>  (17) 
{"free_energy": -8.74, "intermolecular_energy": -10.82, "internal_energy": -1.45, "cluster_size": 16, "cluster_id": 1, "rank_in_cluster": 7}

>  <energy>  (17) 
-9.15

>  <cluster_rmsd>  (17) 
0.0

>  <cluster>  (17) 
2

$$$$

     RDKit          3D

 55 58  0  0  0  0  0  0  0  0999 V2000
  141.1540   67.7430  227.1300 N   0  0  0  0  0  0  0  0  0  0  0  0
  139.6810   68.4910  226.6390 S   0  0  0  0  0  0  0  0  0  0  0  0
  138.6980   67.4960  226.1010 O   0  0  0  0  0  0  0  0  0  0  0  0
  139.0520   69.2700  227.7590 O   0  0  0  0  0  0  0  0  0  0  0  0
  140.0230   69.6350  225.3640 C   0  0  0  0  0  0  0  0  0  0  0  0
  139.5710   69.4590  224.0750 C   0  0  0  0  0  0  0  0  0  0  0  0
  139.8580   70.3800  223.0910 C   0  0  0  0  0  0  0  0  0  0  0  0
  140.6120   71.5270  223.3380 C   0  0  0  0  0  0  0  0  0  0  0  0
  140.8970   72.4790  222.2760 C   0  0  0  0  0  0  0  0  0  0  0  0
  140.0610   73.4110  221.8640 C   0  0  0  0  0  0  0  0  0  0  0  0
  140.5610   74.7500  221.5700 C   0  0  0  0  0  0  0  0  0  0  0  0
  140.1110   75.7630  222.3530 N   0  0  0  0  0  0  0  0  0  0  0  0
  140.4940   77.0320  222.1770 C   0  0  0  0  0  0  0  0  0  0  0  0
  140.0270   78.0570  222.9840 C   0  0  0  0  0  0  0  0  0  0  0  0
  140.4410   79.3600  222.7800 C   0  0  0  0  0  0  0  0  0  0  0  0
  141.3320   79.6140  221.7520 C   0  0  0  0  0  0  0  0  0  0  0  0
  141.7990   78.5950  220.9470 C   0  0  0  0  0  0  0  0  0  0  0  0
  141.3780   77.2930  221.1610 C   0  0  0  0  0  0  0  0  0  0  0  0
  141.8210   76.2420  220.3790 C   0  0  0  0  0  0  0  0  0  0  0  0
  142.6310   76.5380  219.4640 O   0  0  0  0  0  0  0  0  0  0  0  0
  141.4400   74.9860  220.5520 N   0  0  0  0  0  0  0  0  0  0  0  0
  141.8520   73.8540  219.7570 C   0  0  0  0  0  0  0  0  0  0  0  0
  143.1080   73.2210  220.2740 C   0  0  0  0  0  0  0  0  0  0  0  0
  144.1780   74.3040  220.3100 C   0  0  0  0  0  0  0  0  0  0  0  0
  145.4350   73.6490  220.8500 C   0  0  0  0  0  0  0  0  0  0  0  0
  145.9090   72.6580  219.8300 C   0  0  0  0  0  0  0  0  0  0  0  0
  144.8810   71.5540  219.7180 C   0  0  0  0  0  0  0  0  0  0  0  0
  143.5170   72.1050  219.3490 C   0  0  0  0  0  0  0  0  0  0  0  0
  141.0510   71.6790  224.6380 C   0  0  0  0  0  0  0  0  0  0  0  0
  140.7660   70.7590  225.6240 C   0  0  0  0  0  0  0  0  0  0  0  0
  141.6570   67.4840  226.2460 H   0  0  0  0  0  0  0  0  0  0  0  0
  140.9120   66.8120  227.5670 H   0  0  0  0  0  0  0  0  0  0  0  0
  138.9721   68.5702  223.8273 H   0  0  0  0  0  0  0  0  0  0  0  0
  139.4786   70.2041  222.0736 H   0  0  0  0  0  0  0  0  0  0  0  0
  141.8781   72.4169  221.7825 H   0  0  0  0  0  0  0  0  0  0  0  0
  138.9923   73.1807  221.7424 H   0  0  0  0  0  0  0  0  0  0  0  0
  139.3194   77.8315  223.7954 H   0  0  0  0  0  0  0  0  0  0  0  0
  140.0712   80.1752  223.4193 H   0  0  0  0  0  0  0  0  0  0  0  0
  141.6734   80.6444  221.5737 H   0  0  0  0  0  0  0  0  0  0  0  0
  142.5064   78.8171  220.1345 H   0  0  0  0  0  0  0  0  0  0  0  0
  141.0479   73.1035  219.7672 H   0  0  0  0  0  0  0  0  0  0  0  0
  142.0529   74.2149  218.7375 H   0  0  0  0  0  0  0  0  0  0  0  0
  142.9618   72.7991  221.2793 H   0  0  0  0  0  0  0  0  0  0  0  0
  144.3578   74.6945  219.2975 H   0  0  0  0  0  0  0  0  0  0  0  0
  143.8673   75.1497  220.9411 H   0  0  0  0  0  0  0  0  0  0  0  0
  146.2102   74.4105  221.0205 H   0  0  0  0  0  0  0  0  0  0  0  0
  145.2265   73.1467  221.8062 H   0  0  0  0  0  0  0  0  0  0  0  0
  146.0264   73.1556  218.8560 H   0  0  0  0  0  0  0  0  0  0  0  0
  146.8795   72.2392  220.1346 H   0  0  0  0  0  0  0  0  0  0  0  0
  145.2019   70.8432  218.9423 H   0  0  0  0  0  0  0  0  0  0  0  0
  144.8006   71.0547  220.6949 H   0  0  0  0  0  0  0  0  0  0  0  0
  143.5525   72.4887  218.3187 H   0  0  0  0  0  0  0  0  0  0  0  0
  142.7797   71.2935  219.4374 H   0  0  0  0  0  0  0  0  0  0  0  0
  141.6492   72.5654  224.8960 H   0  0  0  0  0  0  0  0  0  0  0  0
  141.1430   70.9298  226.6432 H   0  0  0  0  0  0  0  0  0  0  0  0
  1  2  1  0
  2  3  2  0
  2  4  2  0
  2  5  1  0
  5  6  2  0
  6  7  1  0
  7  8  2  0
  8  9  1  0
  9 10  2  0
 10 11  1  0
 11 12  2  0
 12 13  1  0
 13 14  2  0
 14 15  1  0
 15 16  2  0
 16 17  1  0
 17 18  2  0
 18 19  1  0
 19 20  2  0
 19 21  1  0
 21 22  1  0
 22 23  1  0
 23 24  1  0
 24 25  1  0
 25 26  1  0
 26 27  1  0
 27 28  1  0
  8 29  1  0
 29 30  2  0
 30  5  1  0
 21 11  1  0
 28 23  1  0
 18 13  1  0
  1 31  1  0
  1 32  1  0
  6 33  1  0
  7 34  1  0
  9 35  1  0
 10 36  1  0
 14 37  1  0
 15 38  1  0
 16 39  1  0
 17 40  1  0
 22 41  1  0
 22 42  1  0
 23 43  1  0
 24 44  1  0
 24 45  1  0
 25 46  1  0
 25 47  1  0
 26 48  1  0
 26 49  1  0
 27 50  1  0
 27 51  1  0
 28 52  1  0
 28 53  1  0
 29 54  1  0
 30 55  1  0
M  END
>  <smiles>  (18) 
NS(=O)(=O)c1ccc(/C=C/c2nc3ccccc3c(=O)n2CC2CCCCC2)cc1

>  <score_type>  (18) 
oracle

>  <origin>  (18) 
autodockgpu

>  <m_score__min__energy>  (18) 
-9.2400000000000002

>  <m_primary>  (18) 
energy

>  <rmsd>  (18) 
5.051183535944891

>  <m_score__min__rmsd>  (18) 
5.051183535944891

>  <meeko>  (18) 
{"free_energy": -8.71, "intermolecular_energy": -10.8, "internal_energy": -1.12, "cluster_size": 8, "cluster_id": 2, "rank_in_cluster": 7}

>  <energy>  (18) 
-8.91

>  <cluster_rmsd>  (18) 
0.58

>  <cluster>  (18) 
2

$$$$

     RDKit          3D

 55 58  0  0  0  0  0  0  0  0999 V2000
  139.2300   67.3060  226.3730 N   0  0  0  0  0  0  0  0  0  0  0  0
  139.9320   68.8270  226.7730 S   0  0  0  0  0  0  0  0  0  0  0  0
  139.2480   69.4740  227.9380 O   0  0  0  0  0  0  0  0  0  0  0  0
  141.4030   68.7050  227.0520 O   0  0  0  0  0  0  0  0  0  0  0  0
  139.7710   69.9030  225.4060 C   0  0  0  0  0  0  0  0  0  0  0  0
  140.7590   70.7910  225.0440 C   0  0  0  0  0  0  0  0  0  0  0  0
  140.6010   71.6260  223.9610 C   0  0  0  0  0  0  0  0  0  0  0  0
  139.4470   71.6230  223.1770 C   0  0  0  0  0  0  0  0  0  0  0  0
  139.3120   72.5190  222.0390 C   0  0  0  0  0  0  0  0  0  0  0  0
  139.8450   73.7220  221.9680 C   0  0  0  0  0  0  0  0  0  0  0  0
  141.1350   73.9040  221.3110 C   0  0  0  0  0  0  0  0  0  0  0  0
  141.9070   72.7990  221.1480 N   0  0  0  0  0  0  0  0  0  0  0  0
  143.1090   72.8420  220.5640 C   0  0  0  0  0  0  0  0  0  0  0  0
  143.8870   71.7070  220.4040 C   0  0  0  0  0  0  0  0  0  0  0  0
  145.1260   71.7810  219.7960 C   0  0  0  0  0  0  0  0  0  0  0  0
  145.5680   73.0140  219.3510 C   0  0  0  0  0  0  0  0  0  0  0  0
  144.7950   74.1460  219.5080 C   0  0  0  0  0  0  0  0  0  0  0  0
  143.5550   74.0610  220.1190 C   0  0  0  0  0  0  0  0  0  0  0  0
  142.7480   75.1700  220.2960 C   0  0  0  0  0  0  0  0  0  0  0  0
  143.2050   76.2590  219.8690 O   0  0  0  0  0  0  0  0  0  0  0  0
  141.5580   75.1270  220.8760 N   0  0  0  0  0  0  0  0  0  0  0  0
  140.6830   76.2510  221.1070 C   0  0  0  0  0  0  0  0  0  0  0  0
  141.4280   77.4700  221.5640 C   0  0  0  0  0  0  0  0  0  0  0  0
  140.9110   77.8200  222.9530 C   0  0  0  0  0  0  0  0  0  0  0  0
  141.6870   79.0440  223.4030 C   0  0  0  0  0  0  0  0  0  0  0  0
  141.2810   80.1910  222.5290 C   0  0  0  0  0  0  0  0  0  0  0  0
  141.7400   79.9050  221.1160 C   0  0  0  0  0  0  0  0  0  0  0  0
  141.1660   78.5990  220.6030 C   0  0  0  0  0  0  0  0  0  0  0  0
  138.4730   70.7230  223.5600 C   0  0  0  0  0  0  0  0  0  0  0  0
  138.6290   69.8860  224.6440 C   0  0  0  0  0  0  0  0  0  0  0  0
  139.5480   66.6340  227.1160 H   0  0  0  0  0  0  0  0  0  0  0  0
  139.7010   66.9540  225.4950 H   0  0  0  0  0  0  0  0  0  0  0  0
  141.6893   70.8339  225.6294 H   0  0  0  0  0  0  0  0  0  0  0  0
  141.4142   72.3209  223.7044 H   0  0  0  0  0  0  0  0  0  0  0  0
  138.7242   72.1679  221.1780 H   0  0  0  0  0  0  0  0  0  0  0  0
  139.3196   74.5854  222.4022 H   0  0  0  0  0  0  0  0  0  0  0  0
  143.5148   70.7367  220.7646 H   0  0  0  0  0  0  0  0  0  0  0  0
  145.7457   70.8811  219.6690 H   0  0  0  0  0  0  0  0  0  0  0  0
  146.5513   73.0932  218.8643 H   0  0  0  0  0  0  0  0  0  0  0  0
  145.1641   75.1174  219.1474 H   0  0  0  0  0  0  0  0  0  0  0  0
  140.1577   76.4884  220.1701 H   0  0  0  0  0  0  0  0  0  0  0  0
  139.9784   75.9699  221.9035 H   0  0  0  0  0  0  0  0  0  0  0  0
  142.5128   77.2907  221.5971 H   0  0  0  0  0  0  0  0  0  0  0  0
  139.8350   78.0452  222.9129 H   0  0  0  0  0  0  0  0  0  0  0  0
  141.0475   76.9819  223.6523 H   0  0  0  0  0  0  0  0  0  0  0  0
  141.4506   79.2717  224.4529 H   0  0  0  0  0  0  0  0  0  0  0  0
  142.7691   78.8638  223.3221 H   0  0  0  0  0  0  0  0  0  0  0  0
  140.1869   80.3027  222.5481 H   0  0  0  0  0  0  0  0  0  0  0  0
  141.7398   81.1223  222.8927 H   0  0  0  0  0  0  0  0  0  0  0  0
  141.4099   80.7236  220.4596 H   0  0  0  0  0  0  0  0  0  0  0  0
  142.8371   79.8248  221.1173 H   0  0  0  0  0  0  0  0  0  0  0  0
  140.0798   78.7124  220.4713 H   0  0  0  0  0  0  0  0  0  0  0  0
  141.6517   78.3591  219.6456 H   0  0  0  0  0  0  0  0  0  0  0  0
  137.5398   70.6720  222.9799 H   0  0  0  0  0  0  0  0  0  0  0  0
  137.8197   69.1881  224.9047 H   0  0  0  0  0  0  0  0  0  0  0  0
  1  2  1  0
  2  3  2  0
  2  4  2  0
  2  5  1  0
  5  6  2  0
  6  7  1  0
  7  8  2  0
  8  9  1  0
  9 10  2  0
 10 11  1  0
 11 12  2  0
 12 13  1  0
 13 14  2  0
 14 15  1  0
 15 16  2  0
 16 17  1  0
 17 18  2  0
 18 19  1  0
 19 20  2  0
 19 21  1  0
 21 22  1  0
 22 23  1  0
 23 24  1  0
 24 25  1  0
 25 26  1  0
 26 27  1  0
 27 28  1  0
  8 29  1  0
 29 30  2  0
 30  5  1  0
 21 11  1  0
 28 23  1  0
 18 13  1  0
  1 31  1  0
  1 32  1  0
  6 33  1  0
  7 34  1  0
  9 35  1  0
 10 36  1  0
 14 37  1  0
 15 38  1  0
 16 39  1  0
 17 40  1  0
 22 41  1  0
 22 42  1  0
 23 43  1  0
 24 44  1  0
 24 45  1  0
 25 46  1  0
 25 47  1  0
 26 48  1  0
 26 49  1  0
 27 50  1  0
 27 51  1  0
 28 52  1  0
 28 53  1  0
 29 54  1  0
 30 55  1  0
M  END
>  <smiles>  (19) 
NS(=O)(=O)c1ccc(/C=C/c2nc3ccccc3c(=O)n2CC2CCCCC2)cc1

>  <score_type>  (19) 
oracle

>  <origin>  (19) 
autodockgpu

>  <m_score__min__energy>  (19) 
-9.2400000000000002

>  <m_primary>  (19) 
energy

>  <rmsd>  (19) 
7.945640714269288

>  <m_score__min__rmsd>  (19) 
7.945640714269288

>  <meeko>  (19) 
{"free_energy": -8.7, "intermolecular_energy": -10.79, "internal_energy": -1.24, "cluster_size": 3, "cluster_id": 3, "rank_in_cluster": 2}

>  <energy>  (19) 
-8.81

>  <cluster_rmsd>  (19) 
0.73

>  <cluster>  (19) 
2

$$$$

     RDKit          3D

 55 58  0  0  0  0  0  0  0  0999 V2000
  146.0350   71.5080  220.0990 N   0  0  0  0  0  0  0  0  0  0  0  0
  145.8490   73.1690  219.6770 S   0  0  0  0  0  0  0  0  0  0  0  0
  146.7590   74.0560  220.4700 O   0  0  0  0  0  0  0  0  0  0  0  0
  146.0700   73.3970  218.2090 O   0  0  0  0  0  0  0  0  0  0  0  0
  144.2080   73.6610  220.0180 C   0  0  0  0  0  0  0  0  0  0  0  0
  143.2120   72.7550  220.3090 C   0  0  0  0  0  0  0  0  0  0  0  0
  141.9270   73.1750  220.5740 C   0  0  0  0  0  0  0  0  0  0  0  0
  141.5640   74.5220  220.5630 C   0  0  0  0  0  0  0  0  0  0  0  0
  140.1970   74.9320  220.8470 C   0  0  0  0  0  0  0  0  0  0  0  0
  139.7800   75.3880  222.0100 C   0  0  0  0  0  0  0  0  0  0  0  0
  139.8630   76.8160  222.2980 C   0  0  0  0  0  0  0  0  0  0  0  0
  141.0830   77.3090  222.6320 N   0  0  0  0  0  0  0  0  0  0  0  0
  141.2820   78.5990  222.9210 C   0  0  0  0  0  0  0  0  0  0  0  0
  142.5330   79.0890  223.2620 C   0  0  0  0  0  0  0  0  0  0  0  0
  142.7100   80.4290  223.5550 C   0  0  0  0  0  0  0  0  0  0  0  0
  141.6100   81.2660  223.4990 C   0  0  0  0  0  0  0  0  0  0  0  0
  140.3630   80.7800  223.1600 C   0  0  0  0  0  0  0  0  0  0  0  0
  140.1960   79.4370  222.8690 C   0  0  0  0  0  0  0  0  0  0  0  0
  138.9660   78.9090  222.5240 C   0  0  0  0  0  0  0  0  0  0  0  0
  138.0070   79.7200  222.4890 O   0  0  0  0  0  0  0  0  0  0  0  0
  138.7680   77.6300  222.2400 N   0  0  0  0  0  0  0  0  0  0  0  0
  137.5070   77.0200  221.8950 C   0  0  0  0  0  0  0  0  0  0  0  0
  136.6710   76.7180  223.1020 C   0  0  0  0  0  0  0  0  0  0  0  0
  136.2700   75.2510  223.0190 C   0  0  0  0  0  0  0  0  0  0  0  0
  135.4390   74.9620  224.2540 C   0  0  0  0  0  0  0  0  0  0  0  0
  134.1580   75.7290  224.1340 C   0  0  0  0  0  0  0  0  0  0  0  0
  134.4760   77.2070  224.1850 C   0  0  0  0  0  0  0  0  0  0  0  0
  135.4500   77.6000  223.0910 C   0  0  0  0  0  0  0  0  0  0  0  0
  142.5810   75.4080  220.2690 C   0  0  0  0  0  0  0  0  0  0  0  0
  143.8670   74.9900  220.0040 C   0  0  0  0  0  0  0  0  0  0  0  0
  145.1650   71.2430  220.6250 H   0  0  0  0  0  0  0  0  0  0  0  0
  146.8000   71.4450  220.8260 H   0  0  0  0  0  0  0  0  0  0  0  0
  143.4461   71.6804  220.3301 H   0  0  0  0  0  0  0  0  0  0  0  0
  141.1594   72.4210  220.8025 H   0  0  0  0  0  0  0  0  0  0  0  0
  139.4605   74.8557  220.0335 H   0  0  0  0  0  0  0  0  0  0  0  0
  139.3711   74.6957  222.7606 H   0  0  0  0  0  0  0  0  0  0  0  0
  143.3937   78.4051  223.2999 H   0  0  0  0  0  0  0  0  0  0  0  0
  143.7018   80.8199  223.8261 H   0  0  0  0  0  0  0  0  0  0  0  0
  141.7307   82.3351  223.7281 H   0  0  0  0  0  0  0  0  0  0  0  0
  139.5004   81.4614  223.1211 H   0  0  0  0  0  0  0  0  0  0  0  0
  136.9492   77.7067  221.2413 H   0  0  0  0  0  0  0  0  0  0  0  0
  137.7218   76.0677  221.3881 H   0  0  0  0  0  0  0  0  0  0  0  0
  137.2253   76.9072  224.0331 H   0  0  0  0  0  0  0  0  0  0  0  0
  135.6766   75.0699  222.1106 H   0  0  0  0  0  0  0  0  0  0  0  0
  137.1544   74.5986  222.9727 H   0  0  0  0  0  0  0  0  0  0  0  0
  135.2255   73.8848  224.3177 H   0  0  0  0  0  0  0  0  0  0  0  0
  135.9828   75.2622  225.1618 H   0  0  0  0  0  0  0  0  0  0  0  0
  133.6692   75.4875  223.1786 H   0  0  0  0  0  0  0  0  0  0  0  0
  133.4801   75.4610  224.9578 H   0  0  0  0  0  0  0  0  0  0  0  0
  133.5447   77.7783  224.0576 H   0  0  0  0  0  0  0  0  0  0  0  0
  134.9391   77.4288  225.1578 H   0  0  0  0  0  0  0  0  0  0  0  0
  134.9498   77.5072  222.1157 H   0  0  0  0  0  0  0  0  0  0  0  0
  135.7698   78.6376  223.2674 H   0  0  0  0  0  0  0  0  0  0  0  0
  142.3571   76.4847  220.2455 H   0  0  0  0  0  0  0  0  0  0  0  0
  144.6388   75.7398  219.7757 H   0  0  0  0  0  0  0  0  0  0  0  0
  1  2  1  0
  2  3  2  0
  2  4  2  0
  2  5  1  0
  5  6  2  0
  6  7  1  0
  7  8  2  0
  8  9  1  0
  9 10  2  0
 10 11  1  0
 11 12  2  0
 12 13  1  0
 13 14  2  0
 14 15  1  0
 15 16  2  0
 16 17  1  0
 17 18  2  0
 18 19  1  0
 19 20  2  0
 19 21  1  0
 21 22  1  0
 22 23  1  0
 23 24  1  0
 24 25  1  0
 25 26  1  0
 26 27  1  0
 27 28  1  0
  8 29  1  0
 29 30  2  0
 30  5  1  0
 21 11  1  0
 28 23  1  0
 18 13  1  0
  1 31  1  0
  1 32  1  0
  6 33  1  0
  7 34  1  0
  9 35  1  0
 10 36  1  0
 14 37  1  0
 15 38  1  0
 16 39  1  0
 17 40  1  0
 22 41  1  0
 22 42  1  0
 23 43  1  0
 24 44  1  0
 24 45  1  0
 25 46  1  0
 25 47  1  0
 26 48  1  0
 26 49  1  0
 27 50  1  0
 27 51  1  0
 28 52  1  0
 28 53  1  0
 29 54  1  0
 30 55  1  0
M  END
>  <smiles>  (20) 
NS(=O)(=O)c1ccc(/C=C/c2nc3ccccc3c(=O)n2CC2CCCCC2)cc1

>  <score_type>  (20) 
oracle

>  <origin>  (20) 
autodockgpu

>  <m_score__min__energy>  (20) 
-9.2400000000000002

>  <m_primary>  (20) 
energy

>  <rmsd>  (20) 
5.825849335911341

>  <m_score__min__rmsd>  (20) 
5.825849335911341

>  <meeko>  (20) 
{"free_energy": -8.35, "intermolecular_energy": -10.44, "internal_energy": -1.4, "cluster_size": 5, "cluster_id": 4, "rank_in_cluster": 5}

>  <energy>  (20) 
-8.81

>  <cluster_rmsd>  (20) 
0.56

>  <cluster>  (20) 
2

$$$$

     RDKit          3D

 55 58  0  0  0  0  0  0  0  0999 V2000
  145.9250   73.5880  218.0130 N   0  0  0  0  0  0  0  0  0  0  0  0
  145.9050   72.9620  219.6180 S   0  0  0  0  0  0  0  0  0  0  0  0
  146.3110   71.5200  219.6630 O   0  0  0  0  0  0  0  0  0  0  0  0
  146.7800   73.7640  220.5380 O   0  0  0  0  0  0  0  0  0  0  0  0
  144.2810   73.0710  220.2500 C   0  0  0  0  0  0  0  0  0  0  0  0
  143.5990   74.2650  220.3310 C   0  0  0  0  0  0  0  0  0  0  0  0
  142.3190   74.3180  220.8350 C   0  0  0  0  0  0  0  0  0  0  0  0
  141.6460   73.1830  221.2860 C   0  0  0  0  0  0  0  0  0  0  0  0
  140.2930   73.2740  221.8130 C   0  0  0  0  0  0  0  0  0  0  0  0
  139.4460   72.2660  221.8760 C   0  0  0  0  0  0  0  0  0  0  0  0
  139.3430   71.4860  223.1050 C   0  0  0  0  0  0  0  0  0  0  0  0
  140.2000   71.7970  224.1100 N   0  0  0  0  0  0  0  0  0  0  0  0
  140.2030   71.1500  225.2790 C   0  0  0  0  0  0  0  0  0  0  0  0
  141.0850   71.4780  226.2960 C   0  0  0  0  0  0  0  0  0  0  0  0
  141.0650   70.7910  227.4960 C   0  0  0  0  0  0  0  0  0  0  0  0
  140.1440   69.7710  227.6550 C   0  0  0  0  0  0  0  0  0  0  0  0
  139.2650   69.4420  226.6430 C   0  0  0  0  0  0  0  0  0  0  0  0
  139.2930   70.1360  225.4460 C   0  0  0  0  0  0  0  0  0  0  0  0
  138.4300   69.8400  224.4070 C   0  0  0  0  0  0  0  0  0  0  0  0
  137.6170   68.9050  224.6140 O   0  0  0  0  0  0  0  0  0  0  0  0
  138.4290   70.4810  223.2470 N   0  0  0  0  0  0  0  0  0  0  0  0
  137.5690   70.2030  222.1220 C   0  0  0  0  0  0  0  0  0  0  0  0
  137.9960   68.9830  221.3650 C   0  0  0  0  0  0  0  0  0  0  0  0
  137.3540   67.7810  222.0450 C   0  0  0  0  0  0  0  0  0  0  0  0
  137.7850   66.5590  221.2560 C   0  0  0  0  0  0  0  0  0  0  0  0
  139.2600   66.3840  221.4520 C   0  0  0  0  0  0  0  0  0  0  0  0
  139.9730   67.5590  220.8200 C   0  0  0  0  0  0  0  0  0  0  0  0
  139.4970   68.8740  221.4080 C   0  0  0  0  0  0  0  0  0  0  0  0
  142.3500   72.0000  221.1920 C   0  0  0  0  0  0  0  0  0  0  0  0
  143.6330   71.9440  220.6890 C   0  0  0  0  0  0  0  0  0  0  0  0
  146.8320   74.1080  217.9140 H   0  0  0  0  0  0  0  0  0  0  0  0
  145.1910   74.3460  217.9540 H   0  0  0  0  0  0  0  0  0  0  0  0
  144.0846   75.1904  219.9877 H   0  0  0  0  0  0  0  0  0  0  0  0
  141.8085   75.2912  220.8838 H   0  0  0  0  0  0  0  0  0  0  0  0
  139.9532   74.2520  222.1847 H   0  0  0  0  0  0  0  0  0  0  0  0
  138.8203   72.0142  221.0070 H   0  0  0  0  0  0  0  0  0  0  0  0
  141.8085   72.2931  226.1474 H   0  0  0  0  0  0  0  0  0  0  0  0
  141.7646   71.0493  228.3046 H   0  0  0  0  0  0  0  0  0  0  0  0
  140.1117   69.2135  228.6027 H   0  0  0  0  0  0  0  0  0  0  0  0
  138.5409   68.6267  226.7882 H   0  0  0  0  0  0  0  0  0  0  0  0
  136.5439   70.0495  222.4903 H   0  0  0  0  0  0  0  0  0  0  0  0
  137.6263   71.0608  221.4358 H   0  0  0  0  0  0  0  0  0  0  0  0
  137.6840   69.0337  220.3114 H   0  0  0  0  0  0  0  0  0  0  0  0
  137.7009   67.7031  223.0860 H   0  0  0  0  0  0  0  0  0  0  0  0
  136.2582   67.8744  222.0667 H   0  0  0  0  0  0  0  0  0  0  0  0
  137.2508   65.6698  221.6219 H   0  0  0  0  0  0  0  0  0  0  0  0
  137.5520   66.6889  220.1888 H   0  0  0  0  0  0  0  0  0  0  0  0
  139.4891   66.3460  222.5272 H   0  0  0  0  0  0  0  0  0  0  0  0
  139.5929   65.4460  220.9837 H   0  0  0  0  0  0  0  0  0  0  0  0
  141.0543   67.4586  220.9955 H   0  0  0  0  0  0  0  0  0  0  0  0
  139.7521   67.5604  219.7424 H   0  0  0  0  0  0  0  0  0  0  0  0
  139.8309   68.9402  222.4540 H   0  0  0  0  0  0  0  0  0  0  0  0
  139.9212   69.6944  220.8105 H   0  0  0  0  0  0  0  0  0  0  0  0
  141.8713   71.0691  221.5300 H   0  0  0  0  0  0  0  0  0  0  0  0
  144.1486   70.9736  220.6386 H   0  0  0  0  0  0  0  0  0  0  0  0
  1  2  1  0
  2  3  2  0
  2  4  2  0
  2  5  1  0
  5  6  2  0
  6  7  1  0
  7  8  2  0
  8  9  1  0
  9 10  2  0
 10 11  1  0
 11 12  2  0
 12 13  1  0
 13 14  2  0
 14 15  1  0
 15 16  2  0
 16 17  1  0
 17 18  2  0
 18 19  1  0
 19 20  2  0
 19 21  1  0
 21 22  1  0
 22 23  1  0
 23 24  1  0
 24 25  1  0
 25 26  1  0
 26 27  1  0
 27 28  1  0
  8 29  1  0
 29 30  2  0
 30  5  1  0
 21 11  1  0
 28 23  1  0
 18 13  1  0
  1 31  1  0
  1 32  1  0
  6 33  1  0
  7 34  1  0
  9 35  1  0
 10 36  1  0
 14 37  1  0
 15 38  1  0
 16 39  1  0
 17 40  1  0
 22 41  1  0
 22 42  1  0
 23 43  1  0
 24 44  1  0
 24 45  1  0
 25 46  1  0
 25 47  1  0
 26 48  1  0
 26 49  1  0
 27 50  1  0
 27 51  1  0
 28 52  1  0
 28 53  1  0
 29 54  1  0
 30 55  1  0
M  END
>  <smiles>  (21) 
NS(=O)(=O)c1ccc(/C=C/c2nc3ccccc3c(=O)n2CC2CCCCC2)cc1

>  <score_type>  (21) 
oracle

>  <origin>  (21) 
autodockgpu

>  <m_score__min__energy>  (21) 
-9.2400000000000002

>  <m_primary>  (21) 
energy

>  <rmsd>  (21) 
11.382682859418535

>  <m_score__min__rmsd>  (21) 
11.382682859418535

>  <meeko>  (21) 
{"free_energy": -8.52, "intermolecular_energy": -10.61, "internal_energy": -1.59, "cluster_size": 16, "cluster_id": 1, "rank_in_cluster": 12}

>  <energy>  (21) 
-8.79

>  <cluster_rmsd>  (21) 
0.97

>  <cluster>  (21) 
2

$$$$

     RDKit          3D

 55 58  0  0  0  0  0  0  0  0999 V2000
  146.3090   73.4080  218.5650 N   0  0  0  0  0  0  0  0  0  0  0  0
  145.7740   72.5410  219.9540 S   0  0  0  0  0  0  0  0  0  0  0  0
  145.6860   71.0670  219.6970 O   0  0  0  0  0  0  0  0  0  0  0  0
  146.6540   72.7970  221.1440 O   0  0  0  0  0  0  0  0  0  0  0  0
  144.1740   73.0940  220.3870 C   0  0  0  0  0  0  0  0  0  0  0  0
  143.1380   72.2250  220.6480 C   0  0  0  0  0  0  0  0  0  0  0  0
  141.8880   72.6930  220.9860 C   0  0  0  0  0  0  0  0  0  0  0  0
  141.6010   74.0540  221.0840 C   0  0  0  0  0  0  0  0  0  0  0  0
  140.2690   74.5150  221.4430 C   0  0  0  0  0  0  0  0  0  0  0  0
  139.7240   75.6360  221.0140 C   0  0  0  0  0  0  0  0  0  0  0  0
  140.4470   76.8940  221.1620 C   0  0  0  0  0  0  0  0  0  0  0  0
  140.6410   77.3500  222.4260 N   0  0  0  0  0  0  0  0  0  0  0  0
  141.2860   78.4920  222.6870 C   0  0  0  0  0  0  0  0  0  0  0  0
  141.4760   78.9470  223.9820 C   0  0  0  0  0  0  0  0  0  0  0  0
  142.1470   80.1320  224.2220 C   0  0  0  0  0  0  0  0  0  0  0  0
  142.6230   80.8490  223.1390 C   0  0  0  0  0  0  0  0  0  0  0  0
  142.4350   80.3980  221.8480 C   0  0  0  0  0  0  0  0  0  0  0  0
  141.7610   79.2110  221.6190 C   0  0  0  0  0  0  0  0  0  0  0  0
  141.5520   78.7220  220.3420 C   0  0  0  0  0  0  0  0  0  0  0  0
  142.0100   79.4190  219.4030 O   0  0  0  0  0  0  0  0  0  0  0  0
  140.9120   77.5920  220.0840 N   0  0  0  0  0  0  0  0  0  0  0  0
  140.6450   77.0440  218.7760 C   0  0  0  0  0  0  0  0  0  0  0  0
  141.8030   76.2570  218.2410 C   0  0  0  0  0  0  0  0  0  0  0  0
  142.5610   77.1640  217.2810 C   0  0  0  0  0  0  0  0  0  0  0  0
  143.7360   76.3560  216.7630 C   0  0  0  0  0  0  0  0  0  0  0  0
  143.1910   75.2480  215.9140 C   0  0  0  0  0  0  0  0  0  0  0  0
  142.4000   74.3090  216.7980 C   0  0  0  0  0  0  0  0  0  0  0  0
  141.2850   75.0410  217.5210 C   0  0  0  0  0  0  0  0  0  0  0  0
  142.6570   74.9030  220.8190 C   0  0  0  0  0  0  0  0  0  0  0  0
  143.9090   74.4380  220.4790 C   0  0  0  0  0  0  0  0  0  0  0  0
  147.0580   74.0640  218.9020 H   0  0  0  0  0  0  0  0  0  0  0  0
  145.5260   74.0510  218.2650 H   0  0  0  0  0  0  0  0  0  0  0  0
  143.3118   71.1406  220.5855 H   0  0  0  0  0  0  0  0  0  0  0  0
  141.0865   71.9667  221.1860 H   0  0  0  0  0  0  0  0  0  0  0  0
  139.6747   73.8838  222.1200 H   0  0  0  0  0  0  0  0  0  0  0  0
  138.7284   75.6227  220.5465 H   0  0  0  0  0  0  0  0  0  0  0  0
  141.0891   78.3595  224.8277 H   0  0  0  0  0  0  0  0  0  0  0  0
  142.2986   80.4956  225.2490 H   0  0  0  0  0  0  0  0  0  0  0  0
  143.1600   81.7938  223.3093 H   0  0  0  0  0  0  0  0  0  0  0  0
  142.8213   80.9827  221.0002 H   0  0  0  0  0  0  0  0  0  0  0  0
  139.7684   76.3828  218.8418 H   0  0  0  0  0  0  0  0  0  0  0  0
  140.4641   77.8845  218.0899 H   0  0  0  0  0  0  0  0  0  0  0  0
  142.4686   75.9206  219.0496 H   0  0  0  0  0  0  0  0  0  0  0  0
  141.9093   77.4645  216.4473 H   0  0  0  0  0  0  0  0  0  0  0  0
  142.8999   78.0816  217.7842 H   0  0  0  0  0  0  0  0  0  0  0  0
  144.3958   76.9985  216.1615 H   0  0  0  0  0  0  0  0  0  0  0  0
  144.3200   75.9467  217.6005 H   0  0  0  0  0  0  0  0  0  0  0  0
  142.5351   75.6654  215.1358 H   0  0  0  0  0  0  0  0  0  0  0  0
  144.0156   74.7042  215.4300 H   0  0  0  0  0  0  0  0  0  0  0  0
  141.9625   73.5144  216.1758 H   0  0  0  0  0  0  0  0  0  0  0  0
  143.0810   73.8838  217.5500 H   0  0  0  0  0  0  0  0  0  0  0  0
  140.5282   75.3550  216.7870 H   0  0  0  0  0  0  0  0  0  0  0  0
  140.8479   74.3584  218.2646 H   0  0  0  0  0  0  0  0  0  0  0  0
  142.4933   75.9890  220.8814 H   0  0  0  0  0  0  0  0  0  0  0  0
  144.7140   75.1598  220.2768 H   0  0  0  0  0  0  0  0  0  0  0  0
  1  2  1  0
  2  3  2  0
  2  4  2  0
  2  5  1  0
  5  6  2  0
  6  7  1  0
  7  8  2  0
  8  9  1  0
  9 10  2  0
 10 11  1  0
 11 12  2  0
 12 13  1  0
 13 14  2  0
 14 15  1  0
 15 16  2  0
 16 17  1  0
 17 18  2  0
 18 19  1  0
 19 20  2  0
 19 21  1  0
 21 22  1  0
 22 23  1  0
 23 24  1  0
 24 25  1  0
 25 26  1  0
 26 27  1  0
 27 28  1  0
  8 29  1  0
 29 30  2  0
 30  5  1  0
 21 11  1  0
 28 23  1  0
 18 13  1  0
  1 31  1  0
  1 32  1  0
  6 33  1  0
  7 34  1  0
  9 35  1  0
 10 36  1  0
 14 37  1  0
 15 38  1  0
 16 39  1  0
 17 40  1  0
 22 41  1  0
 22 42  1  0
 23 43  1  0
 24 44  1  0
 24 45  1  0
 25 46  1  0
 25 47  1  0
 26 48  1  0
 26 49  1  0
 27 50  1  0
 27 51  1  0
 28 52  1  0
 28 53  1  0
 29 54  1  0
 30 55  1  0
M  END
>  <smiles>  (22) 
NS(=O)(=O)c1ccc(/C=C/c2nc3ccccc3c(=O)n2CC2CCCCC2)cc1

>  <score_type>  (22) 
oracle

>  <origin>  (22) 
autodockgpu

>  <m_score__min__energy>  (22) 
-9.2400000000000002

>  <m_primary>  (22) 
energy

>  <rmsd>  (22) 
3.7550129933997662

>  <m_score__min__rmsd>  (22) 
3.7550129933997662

>  <meeko>  (22) 
{"free_energy": -7.83, "intermolecular_energy": -9.92, "internal_energy": -2.23, "cluster_size": 6, "cluster_id": 9, "rank_in_cluster": 2}

>  <energy>  (22) 
-8.76

>  <cluster_rmsd>  (22) 
0.96

>  <cluster>  (22) 
2

$$$$

     RDKit          3D

 55 58  0  0  0  0  0  0  0  0999 V2000
  145.0080   73.8930  217.2580 N   0  0  0  0  0  0  0  0  0  0  0  0
  145.2880   72.8780  218.6220 S   0  0  0  0  0  0  0  0  0  0  0  0
  145.5610   71.4600  218.2220 O   0  0  0  0  0  0  0  0  0  0  0  0
  146.4140   73.3900  219.4740 O   0  0  0  0  0  0  0  0  0  0  0  0
  143.8600   72.8750  219.6290 C   0  0  0  0  0  0  0  0  0  0  0  0
  143.5190   71.8020  220.4220 C   0  0  0  0  0  0  0  0  0  0  0  0
  142.3860   71.8300  221.2050 C   0  0  0  0  0  0  0  0  0  0  0  0
  141.5300   72.9300  221.2410 C   0  0  0  0  0  0  0  0  0  0  0  0
  140.3410   72.9270  222.0790 C   0  0  0  0  0  0  0  0  0  0  0  0
  139.5610   71.8810  222.2660 C   0  0  0  0  0  0  0  0  0  0  0  0
  139.6380   71.1380  223.5180 C   0  0  0  0  0  0  0  0  0  0  0  0
  140.2400   71.7540  224.5670 N   0  0  0  0  0  0  0  0  0  0  0  0
  140.3740   71.1710  225.7630 C   0  0  0  0  0  0  0  0  0  0  0  0
  140.9910   71.8110  226.8260 C   0  0  0  0  0  0  0  0  0  0  0  0
  141.1140   71.1850  228.0520 C   0  0  0  0  0  0  0  0  0  0  0  0
  140.6060   69.9060  228.1910 C   0  0  0  0  0  0  0  0  0  0  0  0
  139.9900   69.2660  227.1350 C   0  0  0  0  0  0  0  0  0  0  0  0
  139.8720   69.9020  225.9110 C   0  0  0  0  0  0  0  0  0  0  0  0
  139.2620   69.2980  224.8270 C   0  0  0  0  0  0  0  0  0  0  0  0
  138.8190   68.1380  225.0180 O   0  0  0  0  0  0  0  0  0  0  0  0
  139.1320   69.8750  223.6420 N   0  0  0  0  0  0  0  0  0  0  0  0
  138.5250   69.2880  222.4710 C   0  0  0  0  0  0  0  0  0  0  0  0
  139.4600   68.3680  221.7450 C   0  0  0  0  0  0  0  0  0  0  0  0
  139.6910   68.9600  220.3610 C   0  0  0  0  0  0  0  0  0  0  0  0
  140.6500   68.0250  219.6490 C   0  0  0  0  0  0  0  0  0  0  0  0
  139.9350   66.7300  219.4110 C   0  0  0  0  0  0  0  0  0  0  0  0
  139.6460   66.0870  220.7500 C   0  0  0  0  0  0  0  0  0  0  0  0
  138.8290   67.0060  221.6380 C   0  0  0  0  0  0  0  0  0  0  0  0
  141.8960   73.9920  220.4380 C   0  0  0  0  0  0  0  0  0  0  0  0
  143.0290   73.9670  219.6530 C   0  0  0  0  0  0  0  0  0  0  0  0
  145.6210   73.5230  216.4900 H   0  0  0  0  0  0  0  0  0  0  0  0
  145.4160   74.8430  217.4740 H   0  0  0  0  0  0  0  0  0  0  0  0
  144.1612   70.9089  220.4303 H   0  0  0  0  0  0  0  0  0  0  0  0
  142.1479   70.9527  221.8244 H   0  0  0  0  0  0  0  0  0  0  0  0
  140.0743   73.8626  222.5923 H   0  0  0  0  0  0  0  0  0  0  0  0
  138.8555   71.5702  221.4813 H   0  0  0  0  0  0  0  0  0  0  0  0
  141.3872   72.8284  226.6926 H   0  0  0  0  0  0  0  0  0  0  0  0
  141.6039   71.6915  228.8966 H   0  0  0  0  0  0  0  0  0  0  0  0
  140.6945   69.3908  229.1588 H   0  0  0  0  0  0  0  0  0  0  0  0
  139.5921   68.2489  227.2660 H   0  0  0  0  0  0  0  0  0  0  0  0
  137.6374   68.7172  222.7813 H   0  0  0  0  0  0  0  0  0  0  0  0
  138.2579   70.1055  221.7852 H   0  0  0  0  0  0  0  0  0  0  0  0
  140.4170   68.2635  222.2772 H   0  0  0  0  0  0  0  0  0  0  0  0
  138.7408   69.0217  219.8103 H   0  0  0  0  0  0  0  0  0  0  0  0
  140.1022   69.9781  220.4267 H   0  0  0  0  0  0  0  0  0  0  0  0
  140.9576   68.4646  218.6887 H   0  0  0  0  0  0  0  0  0  0  0  0
  141.5503   67.8604  220.2592 H   0  0  0  0  0  0  0  0  0  0  0  0
  138.9910   66.9198  218.8792 H   0  0  0  0  0  0  0  0  0  0  0  0
  140.5593   66.0620  218.7994 H   0  0  0  0  0  0  0  0  0  0  0  0
  139.0850   65.1551  220.5863 H   0  0  0  0  0  0  0  0  0  0  0  0
  140.6038   65.8819  221.2505 H   0  0  0  0  0  0  0  0  0  0  0  0
  137.8201   67.1112  221.2125 H   0  0  0  0  0  0  0  0  0  0  0  0
  138.7835   66.5650  222.6447 H   0  0  0  0  0  0  0  0  0  0  0  0
  141.2609   74.8900  220.4242 H   0  0  0  0  0  0  0  0  0  0  0  0
  143.2724   74.8418  219.0321 H   0  0  0  0  0  0  0  0  0  0  0  0
  1  2  1  0
  2  3  2  0
  2  4  2  0
  2  5  1  0
  5  6  2  0
  6  7  1  0
  7  8  2  0
  8  9  1  0
  9 10  2  0
 10 11  1  0
 11 12  2  0
 12 13  1  0
 13 14  2  0
 14 15  1  0
 15 16  2  0
 16 17  1  0
 17 18  2  0
 18 19  1  0
 19 20  2  0
 19 21  1  0
 21 22  1  0
 22 23  1  0
 23 24  1  0
 24 25  1  0
 25 26  1  0
 26 27  1  0
 27 28  1  0
  8 29  1  0
 29 30  2  0
 30  5  1  0
 21 11  1  0
 28 23  1  0
 18 13  1  0
  1 31  1  0
  1 32  1  0
  6 33  1  0
  7 34  1  0
  9 35  1  0
 10 36  1  0
 14 37  1  0
 15 38  1  0
 16 39  1  0
 17 40  1  0
 22 41  1  0
 22 42  1  0
 23 43  1  0
 24 44  1  0
 24 45  1  0
 25 46  1  0
 25 47  1  0
 26 48  1  0
 26 49  1  0
 27 50  1  0
 27 51  1  0
 28 52  1  0
 28 53  1  0
 29 54  1  0
 30 55  1  0
M  END
>  <smiles>  (23) 
NS(=O)(=O)c1ccc(/C=C/c2nc3ccccc3c(=O)n2CC2CCCCC2)cc1

>  <score_type>  (23) 
oracle

>  <origin>  (23) 
autodockgpu

>  <m_score__min__energy>  (23) 
-9.2400000000000002

>  <m_primary>  (23) 
energy

>  <rmsd>  (23) 
10.83232927083934

>  <m_score__min__rmsd>  (23) 
10.83232927083934

>  <meeko>  (23) 
{"free_energy": -8.56, "intermolecular_energy": -10.64, "internal_energy": -1.6, "cluster_size": 16, "cluster_id": 1, "rank_in_cluster": 11}

>  <energy>  (23) 
-8.71

>  <cluster_rmsd>  (23) 
1.02

>  <cluster>  (23) 
2

$$$$

     RDKit          3D

 55 58  0  0  0  0  0  0  0  0999 V2000
  139.1800   67.0490  226.4290 N   0  0  0  0  0  0  0  0  0  0  0  0
  139.9540   68.5070  226.9210 S   0  0  0  0  0  0  0  0  0  0  0  0
  139.2430   69.1630  228.0660 O   0  0  0  0  0  0  0  0  0  0  0  0
  141.3930   68.2780  227.2830 O   0  0  0  0  0  0  0  0  0  0  0  0
  139.9470   69.6320  225.5850 C   0  0  0  0  0  0  0  0  0  0  0  0
  139.0010   69.5840  224.5850 C   0  0  0  0  0  0  0  0  0  0  0  0
  139.0230   70.4860  223.5440 C   0  0  0  0  0  0  0  0  0  0  0  0
  139.9900   71.4860  223.4420 C   0  0  0  0  0  0  0  0  0  0  0  0
  139.9840   72.4220  222.3290 C   0  0  0  0  0  0  0  0  0  0  0  0
  141.0670   72.8950  221.7440 C   0  0  0  0  0  0  0  0  0  0  0  0
  141.1090   74.2910  221.3230 C   0  0  0  0  0  0  0  0  0  0  0  0
  140.5480   75.2050  222.1550 N   0  0  0  0  0  0  0  0  0  0  0  0
  140.5220   76.5120  221.8740 C   0  0  0  0  0  0  0  0  0  0  0  0
  139.9460   77.4350  222.7320 C   0  0  0  0  0  0  0  0  0  0  0  0
  139.9350   78.7810  222.4160 C   0  0  0  0  0  0  0  0  0  0  0  0
  140.5120   79.1820  221.2250 C   0  0  0  0  0  0  0  0  0  0  0  0
  141.0880   78.2650  220.3690 C   0  0  0  0  0  0  0  0  0  0  0  0
  141.0930   76.9190  220.6950 C   0  0  0  0  0  0  0  0  0  0  0  0
  141.6590   75.9680  219.8660 C   0  0  0  0  0  0  0  0  0  0  0  0
  142.1690   76.3960  218.8010 O   0  0  0  0  0  0  0  0  0  0  0  0
  141.6830   74.6730  220.1440 N   0  0  0  0  0  0  0  0  0  0  0  0
  142.2390   73.6340  219.3110 C   0  0  0  0  0  0  0  0  0  0  0  0
  143.7290   73.5330  219.4430 C   0  0  0  0  0  0  0  0  0  0  0  0
  144.0490   72.1060  219.8660 C   0  0  0  0  0  0  0  0  0  0  0  0
  145.5600   72.0200  219.9790 C   0  0  0  0  0  0  0  0  0  0  0  0
  145.9830   72.8790  221.1310 C   0  0  0  0  0  0  0  0  0  0  0  0
  145.6730   74.3210  220.7960 C   0  0  0  0  0  0  0  0  0  0  0  0
  144.2000   74.5110  220.4860 C   0  0  0  0  0  0  0  0  0  0  0  0
  140.9250   71.5120  224.4570 C   0  0  0  0  0  0  0  0  0  0  0  0
  140.9060   70.6110  225.5000 C   0  0  0  0  0  0  0  0  0  0  0  0
  138.1470   67.2330  226.4890 H   0  0  0  0  0  0  0  0  0  0  0  0
  139.3520   66.3240  227.1790 H   0  0  0  0  0  0  0  0  0  0  0  0
  138.2162   68.8139  224.6181 H   0  0  0  0  0  0  0  0  0  0  0  0
  138.2498   70.4150  222.7648 H   0  0  0  0  0  0  0  0  0  0  0  0
  139.0083   72.7588  221.9487 H   0  0  0  0  0  0  0  0  0  0  0  0
  141.9344   72.2401  221.5743 H   0  0  0  0  0  0  0  0  0  0  0  0
  139.4928   77.0934  223.6743 H   0  0  0  0  0  0  0  0  0  0  0  0
  139.4782   79.5153  223.0958 H   0  0  0  0  0  0  0  0  0  0  0  0
  140.5120   80.2485  220.9555 H   0  0  0  0  0  0  0  0  0  0  0  0
  141.5436   78.6037  219.4268 H   0  0  0  0  0  0  0  0  0  0  0  0
  141.7924   72.6715  219.6012 H   0  0  0  0  0  0  0  0  0  0  0  0
  142.0108   73.8845  218.2645 H   0  0  0  0  0  0  0  0  0  0  0  0
  144.2346   73.7696  218.4951 H   0  0  0  0  0  0  0  0  0  0  0  0
  143.5818   71.8833  220.8366 H   0  0  0  0  0  0  0  0  0  0  0  0
  143.6620   71.3783  219.1375 H   0  0  0  0  0  0  0  0  0  0  0  0
  145.8631   70.9779  220.1583 H   0  0  0  0  0  0  0  0  0  0  0  0
  146.0350   72.3643  219.0485 H   0  0  0  0  0  0  0  0  0  0  0  0
  145.4331   72.5822  222.0363 H   0  0  0  0  0  0  0  0  0  0  0  0
  147.0610   72.7587  221.3139 H   0  0  0  0  0  0  0  0  0  0  0  0
  145.9431   74.9541  221.6540 H   0  0  0  0  0  0  0  0  0  0  0  0
  146.2542   74.6031  219.9057 H   0  0  0  0  0  0  0  0  0  0  0  0
  143.6178   74.3604  221.4071 H   0  0  0  0  0  0  0  0  0  0  0  0
  144.0562   75.5296  220.0963 H   0  0  0  0  0  0  0  0  0  0  0  0
  141.7132   72.2789  224.4327 H   0  0  0  0  0  0  0  0  0  0  0  0
  141.6767   70.6778  226.2821 H   0  0  0  0  0  0  0  0  0  0  0  0
  1  2  1  0
  2  3  2  0
  2  4  2  0
  2  5  1  0
  5  6  2  0
  6  7  1  0
  7  8  2  0
  8  9  1  0
  9 10  2  0
 10 11  1  0
 11 12  2  0
 12 13  1  0
 13 14  2  0
 14 15  1  0
 15 16  2  0
 16 17  1  0
 17 18  2  0
 18 19  1  0
 19 20  2  0
 19 21  1  0
 21 22  1  0
 22 23  1  0
 23 24  1  0
 24 25  1  0
 25 26  1  0
 26 27  1  0
 27 28  1  0
  8 29  1  0
 29 30  2  0
 30  5  1  0
 21 11  1  0
 28 23  1  0
 18 13  1  0
  1 31  1  0
  1 32  1  0
  6 33  1  0
  7 34  1  0
  9 35  1  0
 10 36  1  0
 14 37  1  0
 15 38  1  0
 16 39  1  0
 17 40  1  0
 22 41  1  0
 22 42  1  0
 23 43  1  0
 24 44  1  0
 24 45  1  0
 25 46  1  0
 25 47  1  0
 26 48  1  0
 26 49  1  0
 27 50  1  0
 27 51  1  0
 28 52  1  0
 28 53  1  0
 29 54  1  0
 30 55  1  0
M  END
>  <smiles>  (24) 
NS(=O)(=O)c1ccc(/C=C/c2nc3ccccc3c(=O)n2CC2CCCCC2)cc1

>  <score_type>  (24) 
oracle

>  <origin>  (24) 
autodockgpu

>  <m_score__min__energy>  (24) 
-9.2400000000000002

>  <m_primary>  (24) 
energy

>  <rmsd>  (24) 
5.6172142024874425

>  <m_score__min__rmsd>  (24) 
5.6172142024874425

>  <meeko>  (24) 
{"free_energy": -8.6, "intermolecular_energy": -10.69, "internal_energy": -1.29, "cluster_size": 8, "cluster_id": 2, "rank_in_cluster": 8}

>  <energy>  (24) 
-8.6

>  <cluster_rmsd>  (24) 
0.6

>  <cluster>  (24) 
2

$$$$

     RDKit          3D

 55 58  0  0  0  0  0  0  0  0999 V2000
  140.9740   67.5160  227.5360 N   0  0  0  0  0  0  0  0  0  0  0  0
  140.5220   69.1470  227.8590 S   0  0  0  0  0  0  0  0  0  0  0  0
  139.2310   69.2330  228.6150 O   0  0  0  0  0  0  0  0  0  0  0  0
  141.5970   69.8850  228.6040 O   0  0  0  0  0  0  0  0  0  0  0  0
  140.2990   69.9850  226.3420 C   0  0  0  0  0  0  0  0  0  0  0  0
  140.9010   71.1930  226.0720 C   0  0  0  0  0  0  0  0  0  0  0  0
  140.7050   71.8290  224.8660 C   0  0  0  0  0  0  0  0  0  0  0  0
  139.8980   71.2950  223.8620 C   0  0  0  0  0  0  0  0  0  0  0  0
  139.7130   71.9930  222.5990 C   0  0  0  0  0  0  0  0  0  0  0  0
  140.6940   72.4070  221.8220 C   0  0  0  0  0  0  0  0  0  0  0  0
  140.7550   73.8080  221.4220 C   0  0  0  0  0  0  0  0  0  0  0  0
  140.0810   74.7010  222.1900 N   0  0  0  0  0  0  0  0  0  0  0  0
  140.0610   76.0110  221.9210 C   0  0  0  0  0  0  0  0  0  0  0  0
  139.3680   76.9110  222.7130 C   0  0  0  0  0  0  0  0  0  0  0  0
  139.3650   78.2610  222.4110 C   0  0  0  0  0  0  0  0  0  0  0  0
  140.0700   78.6870  221.3000 C   0  0  0  0  0  0  0  0  0  0  0  0
  140.7620   77.7920  220.5080 C   0  0  0  0  0  0  0  0  0  0  0  0
  140.7580   76.4430  220.8200 C   0  0  0  0  0  0  0  0  0  0  0  0
  141.4370   75.5120  220.0560 C   0  0  0  0  0  0  0  0  0  0  0  0
  142.0600   75.9630  219.0620 O   0  0  0  0  0  0  0  0  0  0  0  0
  141.4560   74.2150  220.3220 N   0  0  0  0  0  0  0  0  0  0  0  0
  142.1280   73.1970  219.5510 C   0  0  0  0  0  0  0  0  0  0  0  0
  143.4620   72.8320  220.1300 C   0  0  0  0  0  0  0  0  0  0  0  0
  144.1560   74.1290  220.5180 C   0  0  0  0  0  0  0  0  0  0  0  0
  145.4950   73.7390  221.1150 C   0  0  0  0  0  0  0  0  0  0  0  0
  146.3320   73.1550  220.0180 C   0  0  0  0  0  0  0  0  0  0  0  0
  145.6910   71.8640  219.5580 C   0  0  0  0  0  0  0  0  0  0  0  0
  144.2650   72.0930  219.0930 C   0  0  0  0  0  0  0  0  0  0  0  0
  139.3090   70.0820  224.1580 C   0  0  0  0  0  0  0  0  0  0  0  0
  139.5020   69.4440  225.3640 C   0  0  0  0  0  0  0  0  0  0  0  0
  140.0910   67.0180  227.2600 H   0  0  0  0  0  0  0  0  0  0  0  0
  141.2420   67.0680  228.4550 H   0  0  0  0  0  0  0  0  0  0  0  0
  141.5482   71.6574  226.8306 H   0  0  0  0  0  0  0  0  0  0  0  0
  141.2033   72.7934  224.6884 H   0  0  0  0  0  0  0  0  0  0  0  0
  138.6820   72.1890  222.2693 H   0  0  0  0  0  0  0  0  0  0  0  0
  141.4625   71.6995  221.4772 H   0  0  0  0  0  0  0  0  0  0  0  0
  138.8140   76.5487  223.5915 H   0  0  0  0  0  0  0  0  0  0  0  0
  138.8156   78.9778  223.0389 H   0  0  0  0  0  0  0  0  0  0  0  0
  140.0797   79.7565  221.0430 H   0  0  0  0  0  0  0  0  0  0  0  0
  141.3168   78.1511  219.6286 H   0  0  0  0  0  0  0  0  0  0  0  0
  141.4955   72.2974  219.5254 H   0  0  0  0  0  0  0  0  0  0  0  0
  142.2980   73.5976  218.5407 H   0  0  0  0  0  0  0  0  0  0  0  0
  143.3547   72.1820  221.0109 H   0  0  0  0  0  0  0  0  0  0  0  0
  144.3054   74.7605  219.6298 H   0  0  0  0  0  0  0  0  0  0  0  0
  143.5526   74.7038  221.2360 H   0  0  0  0  0  0  0  0  0  0  0  0
  145.9917   74.6273  221.5324 H   0  0  0  0  0  0  0  0  0  0  0  0
  145.3566   73.0070  221.9244 H   0  0  0  0  0  0  0  0  0  0  0  0
  146.3867   73.8620  219.1770 H   0  0  0  0  0  0  0  0  0  0  0  0
  147.3502   72.9594  220.3853 H   0  0  0  0  0  0  0  0  0  0  0  0
  146.2776   71.4494  218.7249 H   0  0  0  0  0  0  0  0  0  0  0  0
  145.6719   71.1638  220.4061 H   0  0  0  0  0  0  0  0  0  0  0  0
  144.2814   72.6835  218.1651 H   0  0  0  0  0  0  0  0  0  0  0  0
  143.7942   71.1134  218.9234 H   0  0  0  0  0  0  0  0  0  0  0  0
  138.6628   69.6081  223.4045 H   0  0  0  0  0  0  0  0  0  0  0  0
  139.0062   68.4793  225.5472 H   0  0  0  0  0  0  0  0  0  0  0  0
  1  2  1  0
  2  3  2  0
  2  4  2  0
  2  5  1  0
  5  6  2  0
  6  7  1  0
  7  8  2  0
  8  9  1  0
  9 10  2  0
 10 11  1  0
 11 12  2  0
 12 13  1  0
 13 14  2  0
 14 15  1  0
 15 16  2  0
 16 17  1  0
 17 18  2  0
 18 19  1  0
 19 20  2  0
 19 21  1  0
 21 22  1  0
 22 23  1  0
 23 24  1  0
 24 25  1  0
 25 26  1  0
 26 27  1  0
 27 28  1  0
  8 29  1  0
 29 30  2  0
 30  5  1  0
 21 11  1  0
 28 23  1  0
 18 13  1  0
  1 31  1  0
  1 32  1  0
  6 33  1  0
  7 34  1  0
  9 35  1  0
 10 36  1  0
 14 37  1  0
 15 38  1  0
 16 39  1  0
 17 40  1  0
 22 41  1  0
 22 42  1  0
 23 43  1  0
 24 44  1  0
 24 45  1  0
 25 46  1  0
 25 47  1  0
 26 48  1  0
 26 49  1  0
 27 50  1  0
 27 51  1  0
 28 52  1  0
 28 53  1  0
 29 54  1  0
 30 55  1  0
M  END
>  <smiles>  (25) 
NS(=O)(=O)c1ccc(/C=C/c2nc3ccccc3c(=O)n2CC2CCCCC2)cc1

>  <score_type>  (25) 
oracle

>  <origin>  (25) 
autodockgpu

>  <m_score__min__energy>  (25) 
-9.2400000000000002

>  <m_primary>  (25) 
energy

>  <rmsd>  (25) 
5.491492087444065

>  <m_score__min__rmsd>  (25) 
5.491492087444065

>  <meeko>  (25) 
{"free_energy": -8.81, "intermolecular_energy": -10.9, "internal_energy": -1.29, "cluster_size": 8, "cluster_id": 2, "rank_in_cluster": 3}

>  <energy>  (25) 
-8.72

>  <cluster_rmsd>  (25) 
0.0

>  <cluster>  (25) 
3

$$$$

     RDKit          3D

 55 58  0  0  0  0  0  0  0  0999 V2000
  142.4890   79.1050  222.2050 N   0  0  0  0  0  0  0  0  0  0  0  0
  141.4600   78.5670  220.9320 S   0  0  0  0  0  0  0  0  0  0  0  0
  140.2750   79.4670  220.7500 O   0  0  0  0  0  0  0  0  0  0  0  0
  142.2020   78.4370  219.6340 O   0  0  0  0  0  0  0  0  0  0  0  0
  140.8550   76.9760  221.3250 C   0  0  0  0  0  0  0  0  0  0  0  0
  139.6960   76.7840  222.0430 C   0  0  0  0  0  0  0  0  0  0  0  0
  139.2460   75.5160  222.3370 C   0  0  0  0  0  0  0  0  0  0  0  0
  139.9270   74.3680  221.9300 C   0  0  0  0  0  0  0  0  0  0  0  0
  139.4230   73.0430  222.2580 C   0  0  0  0  0  0  0  0  0  0  0  0
  140.1770   71.9700  222.3950 C   0  0  0  0  0  0  0  0  0  0  0  0
  140.1000   71.1860  223.6220 C   0  0  0  0  0  0  0  0  0  0  0  0
  140.5910   71.7560  224.7520 N   0  0  0  0  0  0  0  0  0  0  0  0
  140.5800   71.1330  225.9350 C   0  0  0  0  0  0  0  0  0  0  0  0
  141.0850   71.7260  227.0810 C   0  0  0  0  0  0  0  0  0  0  0  0
  141.0590   71.0580  228.2910 C   0  0  0  0  0  0  0  0  0  0  0  0
  140.5170   69.7860  228.3300 C   0  0  0  0  0  0  0  0  0  0  0  0
  140.0120   69.1930  227.1900 C   0  0  0  0  0  0  0  0  0  0  0  0
  140.0430   69.8710  225.9830 C   0  0  0  0  0  0  0  0  0  0  0  0
  139.5480   69.3140  224.8170 C   0  0  0  0  0  0  0  0  0  0  0  0
  139.0670   68.1580  224.9190 O   0  0  0  0  0  0  0  0  0  0  0  0
  139.5620   69.9310  223.6460 N   0  0  0  0  0  0  0  0  0  0  0  0
  139.0800   69.3940  222.3960 C   0  0  0  0  0  0  0  0  0  0  0  0
  137.5870   69.4740  222.2780 C   0  0  0  0  0  0  0  0  0  0  0  0
  137.1090   70.5060  223.2910 C   0  0  0  0  0  0  0  0  0  0  0  0
  135.6010   70.5840  223.1460 C   0  0  0  0  0  0  0  0  0  0  0  0
  135.0290   69.2790  223.6100 C   0  0  0  0  0  0  0  0  0  0  0  0
  135.4810   68.1910  222.6610 C   0  0  0  0  0  0  0  0  0  0  0  0
  136.9940   68.1240  222.5800 C   0  0  0  0  0  0  0  0  0  0  0  0
  141.0840   74.5890  221.2120 C   0  0  0  0  0  0  0  0  0  0  0  0
  141.5370   75.8570  220.9170 C   0  0  0  0  0  0  0  0  0  0  0  0
  143.3100   79.5660  221.7400 H   0  0  0  0  0  0  0  0  0  0  0  0
  142.9060   78.2490  222.6650 H   0  0  0  0  0  0  0  0  0  0  0  0
  139.1209   77.6563  222.3869 H   0  0  0  0  0  0  0  0  0  0  0  0
  138.3160   75.4041  222.9136 H   0  0  0  0  0  0  0  0  0  0  0  0
  138.3384   72.9286  222.4015 H   0  0  0  0  0  0  0  0  0  0  0  0
  140.8606   71.6679  221.5879 H   0  0  0  0  0  0  0  0  0  0  0  0
  141.5110   72.7387  227.0274 H   0  0  0  0  0  0  0  0  0  0  0  0
  141.4600   71.5271  229.2016 H   0  0  0  0  0  0  0  0  0  0  0  0
  140.4879   69.2386  229.2837 H   0  0  0  0  0  0  0  0  0  0  0  0
  139.5845   68.1807  227.2406 H   0  0  0  0  0  0  0  0  0  0  0  0
  139.5308   69.9631  221.5696 H   0  0  0  0  0  0  0  0  0  0  0  0
  139.3635   68.3319  222.3553 H   0  0  0  0  0  0  0  0  0  0  0  0
  137.2781   69.7669  221.2637 H   0  0  0  0  0  0  0  0  0  0  0  0
  137.3771   70.1908  224.3102 H   0  0  0  0  0  0  0  0  0  0  0  0
  137.5773   71.4853  223.1130 H   0  0  0  0  0  0  0  0  0  0  0  0
  135.2076   71.4056  223.7627 H   0  0  0  0  0  0  0  0  0  0  0  0
  135.3247   70.7743  222.0984 H   0  0  0  0  0  0  0  0  0  0  0  0
  135.3875   69.0573  224.6261 H   0  0  0  0  0  0  0  0  0  0  0  0
  133.9304   69.3334  223.6245 H   0  0  0  0  0  0  0  0  0  0  0  0
  135.0980   67.2232  223.0169 H   0  0  0  0  0  0  0  0  0  0  0  0
  135.0894   68.4197  221.6588 H   0  0  0  0  0  0  0  0  0  0  0  0
  137.3887   67.7667  223.5426 H   0  0  0  0  0  0  0  0  0  0  0  0
  137.2675   67.4355  221.7669 H   0  0  0  0  0  0  0  0  0  0  0  0
  141.6654   73.7230  220.8627 H   0  0  0  0  0  0  0  0  0  0  0  0
  142.4668   75.9748  220.3412 H   0  0  0  0  0  0  0  0  0  0  0  0
  1  2  1  0
  2  3  2  0
  2  4  2  0
  2  5  1  0
  5  6  2  0
  6  7  1  0
  7  8  2  0
  8  9  1  0
  9 10  2  0
 10 11  1  0
 11 12  2  0
 12 13  1  0
 13 14  2  0
 14 15  1  0
 15 16  2  0
 16 17  1  0
 17 18  2  0
 18 19  1  0
 19 20  2  0
 19 21  1  0
 21 22  1  0
 22 23  1  0
 23 24  1  0
 24 25  1  0
 25 26  1  0
 26 27  1  0
 27 28  1  0
  8 29  1  0
 29 30  2  0
 30  5  1  0
 21 11  1  0
 28 23  1  0
 18 13  1  0
  1 31  1  0
  1 32  1  0
  6 33  1  0
  7 34  1  0
  9 35  1  0
 10 36  1  0
 14 37  1  0
 15 38  1  0
 16 39  1  0
 17 40  1  0
 22 41  1  0
 22 42  1  0
 23 43  1  0
 24 44  1  0
 24 45  1  0
 25 46  1  0
 25 47  1  0
 26 48  1  0
 26 49  1  0
 27 50  1  0
 27 51  1  0
 28 52  1  0
 28 53  1  0
 29 54  1  0
 30 55  1  0
M  END
>  <smiles>  (26) 
NS(=O)(=O)c1ccc(/C=C/c2nc3ccccc3c(=O)n2CC2CCCCC2)cc1

>  <score_type>  (26) 
oracle

>  <origin>  (26) 
autodockgpu

>  <m_score__min__energy>  (26) 
-9.2400000000000002

>  <m_primary>  (26) 
energy

>  <rmsd>  (26) 
11.109886078903822

>  <m_score__min__rmsd>  (26) 
11.109886078903822

>  <meeko>  (26) 
{"free_energy": -8.26, "intermolecular_energy": -10.35, "internal_energy": -1.42, "cluster_size": 2, "cluster_id": 8, "rank_in_cluster": 1}

>  <energy>  (26) 
-8.7

>  <cluster_rmsd>  (26) 
0.69

>  <cluster>  (26) 
3

$$$$

     RDKit          3D

 55 58  0  0  0  0  0  0  0  0999 V2000
  139.4230   67.0950  226.8220 N   0  0  0  0  0  0  0  0  0  0  0  0
  139.9920   68.6570  227.2740 S   0  0  0  0  0  0  0  0  0  0  0  0
  139.1570   69.2660  228.3600 O   0  0  0  0  0  0  0  0  0  0  0  0
  141.4310   68.6240  227.7000 O   0  0  0  0  0  0  0  0  0  0  0  0
  139.9040   69.7160  225.8880 C   0  0  0  0  0  0  0  0  0  0  0  0
  140.7050   70.8290  225.7580 C   0  0  0  0  0  0  0  0  0  0  0  0
  140.6110   71.6450  224.6520 C   0  0  0  0  0  0  0  0  0  0  0  0
  139.7150   71.3960  223.6130 C   0  0  0  0  0  0  0  0  0  0  0  0
  139.6420   72.2780  222.4590 C   0  0  0  0  0  0  0  0  0  0  0  0
  140.6640   72.5800  221.6830 C   0  0  0  0  0  0  0  0  0  0  0  0
  140.9130   73.9730  221.3280 C   0  0  0  0  0  0  0  0  0  0  0  0
  140.3590   74.9230  222.1230 N   0  0  0  0  0  0  0  0  0  0  0  0
  140.5150   76.2310  221.8950 C   0  0  0  0  0  0  0  0  0  0  0  0
  139.9430   77.1910  222.7150 C   0  0  0  0  0  0  0  0  0  0  0  0
  140.1220   78.5370  222.4560 C   0  0  0  0  0  0  0  0  0  0  0  0
  140.8840   78.9010  221.3600 C   0  0  0  0  0  0  0  0  0  0  0  0
  141.4550   77.9470  220.5420 C   0  0  0  0  0  0  0  0  0  0  0  0
  141.2700   76.6010  220.8100 C   0  0  0  0  0  0  0  0  0  0  0  0
  141.8240   75.6130  220.0170 C   0  0  0  0  0  0  0  0  0  0  0  0
  142.5070   76.0080  219.0400 O   0  0  0  0  0  0  0  0  0  0  0  0
  141.6680   74.3170  220.2430 N   0  0  0  0  0  0  0  0  0  0  0  0
  142.2030   73.2440  219.4410 C   0  0  0  0  0  0  0  0  0  0  0  0
  143.4390   72.6440  220.0420 C   0  0  0  0  0  0  0  0  0  0  0  0
  144.2350   73.7820  220.6660 C   0  0  0  0  0  0  0  0  0  0  0  0
  145.4720   73.1550  221.2820 C   0  0  0  0  0  0  0  0  0  0  0  0
  146.3270   72.6390  220.1650 C   0  0  0  0  0  0  0  0  0  0  0  0
  145.5900   71.5130  219.4750 C   0  0  0  0  0  0  0  0  0  0  0  0
  144.2400   71.9720  218.9590 C   0  0  0  0  0  0  0  0  0  0  0  0
  138.9260   70.2740  223.7680 C   0  0  0  0  0  0  0  0  0  0  0  0
  139.0160   69.4560  224.8740 C   0  0  0  0  0  0  0  0  0  0  0  0
  138.8000   66.7740  227.6040 H   0  0  0  0  0  0  0  0  0  0  0  0
  140.2440   66.4300  226.8610 H   0  0  0  0  0  0  0  0  0  0  0  0
  141.4305   71.0699  226.5490 H   0  0  0  0  0  0  0  0  0  0  0  0
  141.2670   72.5255  224.5861 H   0  0  0  0  0  0  0  0  0  0  0  0
  138.6661   72.7242  222.2168 H   0  0  0  0  0  0  0  0  0  0  0  0
  141.3253   71.7862  221.3053 H   0  0  0  0  0  0  0  0  0  0  0  0
  139.3405   76.8786  223.5807 H   0  0  0  0  0  0  0  0  0  0  0  0
  139.6694   79.3005  223.1058 H   0  0  0  0  0  0  0  0  0  0  0  0
  141.0372   79.9672  221.1371 H   0  0  0  0  0  0  0  0  0  0  0  0
  142.0581   78.2565  219.6757 H   0  0  0  0  0  0  0  0  0  0  0  0
  141.4388   72.4585  219.3464 H   0  0  0  0  0  0  0  0  0  0  0  0
  142.4749   73.6612  218.4602 H   0  0  0  0  0  0  0  0  0  0  0  0
  143.1912   71.8911  220.8048 H   0  0  0  0  0  0  0  0  0  0  0  0
  144.5227   74.5120  219.8951 H   0  0  0  0  0  0  0  0  0  0  0  0
  143.6406   74.3154  221.4224 H   0  0  0  0  0  0  0  0  0  0  0  0
  146.0260   73.9095  221.8598 H   0  0  0  0  0  0  0  0  0  0  0  0
  145.1910   72.3365  221.9611 H   0  0  0  0  0  0  0  0  0  0  0  0
  146.5255   73.4476  219.4461 H   0  0  0  0  0  0  0  0  0  0  0  0
  147.2852   72.2733  220.5628 H   0  0  0  0  0  0  0  0  0  0  0  0
  146.1943   71.1552  218.6284 H   0  0  0  0  0  0  0  0  0  0  0  0
  145.4265   70.7067  220.2051 H   0  0  0  0  0  0  0  0  0  0  0  0
  144.3948   72.6833  218.1343 H   0  0  0  0  0  0  0  0  0  0  0  0
  143.6827   71.0891  218.6127 H   0  0  0  0  0  0  0  0  0  0  0  0
  138.1995   70.0237  222.9809 H   0  0  0  0  0  0  0  0  0  0  0  0
  138.3614   68.5749  224.9456 H   0  0  0  0  0  0  0  0  0  0  0  0
  1  2  1  0
  2  3  2  0
  2  4  2  0
  2  5  1  0
  5  6  2  0
  6  7  1  0
  7  8  2  0
  8  9  1  0
  9 10  2  0
 10 11  1  0
 11 12  2  0
 12 13  1  0
 13 14  2  0
 14 15  1  0
 15 16  2  0
 16 17  1  0
 17 18  2  0
 18 19  1  0
 19 20  2  0
 19 21  1  0
 21 22  1  0
 22 23  1  0
 23 24  1  0
 24 25  1  0
 25 26  1  0
 26 27  1  0
 27 28  1  0
  8 29  1  0
 29 30  2  0
 30  5  1  0
 21 11  1  0
 28 23  1  0
 18 13  1  0
  1 31  1  0
  1 32  1  0
  6 33  1  0
  7 34  1  0
  9 35  1  0
 10 36  1  0
 14 37  1  0
 15 38  1  0
 16 39  1  0
 17 40  1  0
 22 41  1  0
 22 42  1  0
 23 43  1  0
 24 44  1  0
 24 45  1  0
 25 46  1  0
 25 47  1  0
 26 48  1  0
 26 49  1  0
 27 50  1  0
 27 51  1  0
 28 52  1  0
 28 53  1  0
 29 54  1  0
 30 55  1  0
M  END
>  <smiles>  (27) 
NS(=O)(=O)c1ccc(/C=C/c2nc3ccccc3c(=O)n2CC2CCCCC2)cc1

>  <score_type>  (27) 
oracle

>  <origin>  (27) 
autodockgpu

>  <m_score__min__energy>  (27) 
-9.2400000000000002

>  <m_primary>  (27) 
energy

>  <rmsd>  (27) 
5.5806794621021005

>  <m_score__min__rmsd>  (27) 
5.5806794621021005

>  <meeko>  (27) 
{"free_energy": -9.15, "intermolecular_energy": -11.24, "internal_energy": -1.29, "cluster_size": 8, "cluster_id": 2, "rank_in_cluster": 1}

>  <energy>  (27) 
-8.62

>  <cluster_rmsd>  (27) 
1.08

>  <cluster>  (27) 
3

$$$$

     RDKit          3D

 55 58  0  0  0  0  0  0  0  0999 V2000
  145.1350   73.7590  217.4870 N   0  0  0  0  0  0  0  0  0  0  0  0
  145.3610   72.8440  218.9300 S   0  0  0  0  0  0  0  0  0  0  0  0
  145.6450   71.4010  218.6410 O   0  0  0  0  0  0  0  0  0  0  0  0
  146.4550   73.4150  219.7850 O   0  0  0  0  0  0  0  0  0  0  0  0
  143.8960   72.9110  219.8790 C   0  0  0  0  0  0  0  0  0  0  0  0
  143.1940   74.0800  220.0700 C   0  0  0  0  0  0  0  0  0  0  0  0
  142.0420   74.1000  220.8250 C   0  0  0  0  0  0  0  0  0  0  0  0
  141.5260   72.9540  221.4310 C   0  0  0  0  0  0  0  0  0  0  0  0
  140.3060   73.0100  222.2220 C   0  0  0  0  0  0  0  0  0  0  0  0
  139.4930   71.9910  222.4160 C   0  0  0  0  0  0  0  0  0  0  0  0
  139.6060   71.1980  223.6350 C   0  0  0  0  0  0  0  0  0  0  0  0
  140.1770   71.7970  224.7110 N   0  0  0  0  0  0  0  0  0  0  0  0
  140.3380   71.1690  225.8810 C   0  0  0  0  0  0  0  0  0  0  0  0
  140.9230   71.7920  226.9720 C   0  0  0  0  0  0  0  0  0  0  0  0
  141.0760   71.1190  228.1700 C   0  0  0  0  0  0  0  0  0  0  0  0
  140.6320   69.8120  228.2520 C   0  0  0  0  0  0  0  0  0  0  0  0
  140.0490   69.1890  227.1660 C   0  0  0  0  0  0  0  0  0  0  0  0
  139.9000   69.8720  225.9710 C   0  0  0  0  0  0  0  0  0  0  0  0
  139.3220   69.2860  224.8600 C   0  0  0  0  0  0  0  0  0  0  0  0
  138.9370   68.0990  224.9990 O   0  0  0  0  0  0  0  0  0  0  0  0
  139.1630   69.9080  223.7010 N   0  0  0  0  0  0  0  0  0  0  0  0
  138.5870   69.3430  222.5040 C   0  0  0  0  0  0  0  0  0  0  0  0
  139.5620   68.4910  221.7490 C   0  0  0  0  0  0  0  0  0  0  0  0
  139.7780   69.1460  220.3920 C   0  0  0  0  0  0  0  0  0  0  0  0
  140.7780   68.2800  219.6500 C   0  0  0  0  0  0  0  0  0  0  0  0
  140.1170   66.9670  219.3560 C   0  0  0  0  0  0  0  0  0  0  0  0
  139.8460   66.2610  220.6650 C   0  0  0  0  0  0  0  0  0  0  0  0
  138.9880   67.1100  221.5830 C   0  0  0  0  0  0  0  0  0  0  0  0
  142.2480   71.7960  221.2220 C   0  0  0  0  0  0  0  0  0  0  0  0
  143.4010   71.7740  220.4680 C   0  0  0  0  0  0  0  0  0  0  0  0
  145.2280   74.7680  217.7650 H   0  0  0  0  0  0  0  0  0  0  0  0
  144.1210   73.6660  217.2030 H   0  0  0  0  0  0  0  0  0  0  0  0
  143.5585   75.0118  219.6129 H   0  0  0  0  0  0  0  0  0  0  0  0
  141.5097   75.0538  220.9548 H   0  0  0  0  0  0  0  0  0  0  0  0
  140.0439   73.9700  222.6908 H   0  0  0  0  0  0  0  0  0  0  0  0
  138.7326   71.7396  221.6620 H   0  0  0  0  0  0  0  0  0  0  0  0
  141.2691   72.8324  226.8839 H   0  0  0  0  0  0  0  0  0  0  0  0
  141.5399   71.6116  229.0373 H   0  0  0  0  0  0  0  0  0  0  0  0
  140.7449   69.2600  229.1967 H   0  0  0  0  0  0  0  0  0  0  0  0
  139.7025   68.1484  227.2506 H   0  0  0  0  0  0  0  0  0  0  0  0
  137.7218   68.7249  222.7858 H   0  0  0  0  0  0  0  0  0  0  0  0
  138.2908   70.1754  221.8487 H   0  0  0  0  0  0  0  0  0  0  0  0
  140.5189   68.4040  222.2845 H   0  0  0  0  0  0  0  0  0  0  0  0
  138.8295   69.1919  219.8369 H   0  0  0  0  0  0  0  0  0  0  0  0
  140.1482   70.1760  220.5019 H   0  0  0  0  0  0  0  0  0  0  0  0
  141.0723   68.7697  218.7100 H   0  0  0  0  0  0  0  0  0  0  0  0
  141.6813   68.1278  220.2590 H   0  0  0  0  0  0  0  0  0  0  0  0
  139.1694   67.1397  218.8247 H   0  0  0  0  0  0  0  0  0  0  0  0
  140.7718   66.3493  218.7239 H   0  0  0  0  0  0  0  0  0  0  0  0
  139.3235   65.3149  220.4601 H   0  0  0  0  0  0  0  0  0  0  0  0
  140.8084   66.0747  221.1641 H   0  0  0  0  0  0  0  0  0  0  0  0
  137.9779   67.1913  221.1550 H   0  0  0  0  0  0  0  0  0  0  0  0
  138.9556   66.6274  222.5710 H   0  0  0  0  0  0  0  0  0  0  0  0
  141.8904   70.8586  221.6730 H   0  0  0  0  0  0  0  0  0  0  0  0
  143.9375   70.8230  220.3348 H   0  0  0  0  0  0  0  0  0  0  0  0
  1  2  1  0
  2  3  2  0
  2  4  2  0
  2  5  1  0
  5  6  2  0
  6  7  1  0
  7  8  2  0
  8  9  1  0
  9 10  2  0
 10 11  1  0
 11 12  2  0
 12 13  1  0
 13 14  2  0
 14 15  1  0
 15 16  2  0
 16 17  1  0
 17 18  2  0
 18 19  1  0
 19 20  2  0
 19 21  1  0
 21 22  1  0
 22 23  1  0
 23 24  1  0
 24 25  1  0
 25 26  1  0
 26 27  1  0
 27 28  1  0
  8 29  1  0
 29 30  2  0
 30  5  1  0
 21 11  1  0
 28 23  1  0
 18 13  1  0
  1 31  1  0
  1 32  1  0
  6 33  1  0
  7 34  1  0
  9 35  1  0
 10 36  1  0
 14 37  1  0
 15 38  1  0
 16 39  1  0
 17 40  1  0
 22 41  1  0
 22 42  1  0
 23 43  1  0
 24 44  1  0
 24 45  1  0
 25 46  1  0
 25 47  1  0
 26 48  1  0
 26 49  1  0
 27 50  1  0
 27 51  1  0
 28 52  1  0
 28 53  1  0
 29 54  1  0
 30 55  1  0
M  END
>  <smiles>  (28) 
NS(=O)(=O)c1ccc(/C=C/c2nc3ccccc3c(=O)n2CC2CCCCC2)cc1

>  <score_type>  (28) 
oracle

>  <origin>  (28) 
autodockgpu

>  <m_score__min__energy>  (28) 
-9.2400000000000002

>  <m_primary>  (28) 
energy

>  <rmsd>  (28) 
10.801062189537392

>  <m_score__min__rmsd>  (28) 
10.801062189537392

>  <meeko>  (28) 
{"free_energy": -8.59, "intermolecular_energy": -10.68, "internal_energy": -1.67, "cluster_size": 16, "cluster_id": 1, "rank_in_cluster": 9}

>  <energy>  (28) 
-8.71

>  <cluster_rmsd>  (28) 
0.0

>  <cluster>  (28) 
4

$$$$

     RDKit          3D

 55 58  0  0  0  0  0  0  0  0999 V2000
  146.4050   71.2140  219.7200 N   0  0  0  0  0  0  0  0  0  0  0  0
  145.8360   72.8400  219.6810 S   0  0  0  0  0  0  0  0  0  0  0  0
  146.6680   73.7470  220.5360 O   0  0  0  0  0  0  0  0  0  0  0  0
  145.7790   73.3760  218.2790 O   0  0  0  0  0  0  0  0  0  0  0  0
  144.2040   72.8850  220.3000 C   0  0  0  0  0  0  0  0  0  0  0  0
  143.4320   74.0250  220.2650 C   0  0  0  0  0  0  0  0  0  0  0  0
  142.1480   74.0280  220.7620 C   0  0  0  0  0  0  0  0  0  0  0  0
  141.5610   72.8940  221.3220 C   0  0  0  0  0  0  0  0  0  0  0  0
  140.2010   72.9310  221.8390 C   0  0  0  0  0  0  0  0  0  0  0  0
  139.4700   71.8650  222.0960 C   0  0  0  0  0  0  0  0  0  0  0  0
  139.5040   71.2700  223.4270 C   0  0  0  0  0  0  0  0  0  0  0  0
  140.3560   71.8210  224.3300 N   0  0  0  0  0  0  0  0  0  0  0  0
  140.4770   71.3590  225.5780 C   0  0  0  0  0  0  0  0  0  0  0  0
  141.3520   71.9290  226.4890 C   0  0  0  0  0  0  0  0  0  0  0  0
  141.4560   71.4320  227.7750 C   0  0  0  0  0  0  0  0  0  0  0  0
  140.6670   70.3520  228.1280 C   0  0  0  0  0  0  0  0  0  0  0  0
  139.7940   69.7810  227.2230 C   0  0  0  0  0  0  0  0  0  0  0  0
  139.6980   70.2880  225.9380 C   0  0  0  0  0  0  0  0  0  0  0  0
  138.8370   69.7470  225.0000 C   0  0  0  0  0  0  0  0  0  0  0  0
  138.1460   68.7710  225.3830 O   0  0  0  0  0  0  0  0  0  0  0  0
  138.7190   70.2040  223.7620 N   0  0  0  0  0  0  0  0  0  0  0  0
  137.8550   69.6700  222.7370 C   0  0  0  0  0  0  0  0  0  0  0  0
  136.4150   70.0170  222.9660 C   0  0  0  0  0  0  0  0  0  0  0  0
  136.3850   71.3100  223.7700 C   0  0  0  0  0  0  0  0  0  0  0  0
  134.9210   71.6530  223.9770 C   0  0  0  0  0  0  0  0  0  0  0  0
  134.3300   70.6120  224.8780 C   0  0  0  0  0  0  0  0  0  0  0  0
  134.3470   69.2840  224.1550 C   0  0  0  0  0  0  0  0  0  0  0  0
  135.7520   68.9030  223.7320 C   0  0  0  0  0  0  0  0  0  0  0  0
  142.3550   71.7650  221.3440 C   0  0  0  0  0  0  0  0  0  0  0  0
  143.6410   71.7590  220.8480 C   0  0  0  0  0  0  0  0  0  0  0  0
  145.5800   70.6230  219.9880 H   0  0  0  0  0  0  0  0  0  0  0  0
  147.0620   71.1230  220.5430 H   0  0  0  0  0  0  0  0  0  0  0  0
  143.8477   74.9474  219.8333 H   0  0  0  0  0  0  0  0  0  0  0  0
  141.5639   74.9590  220.7156 H   0  0  0  0  0  0  0  0  0  0  0  0
  139.7521   73.9172  222.0284 H   0  0  0  0  0  0  0  0  0  0  0  0
  138.8373   71.4262  221.3104 H   0  0  0  0  0  0  0  0  0  0  0  0
  141.9707   72.7864  226.1856 H   0  0  0  0  0  0  0  0  0  0  0  0
  142.1491   71.8843  228.4996 H   0  0  0  0  0  0  0  0  0  0  0  0
  140.7361   69.9413  229.1461 H   0  0  0  0  0  0  0  0  0  0  0  0
  139.1746   68.9230  227.5231 H   0  0  0  0  0  0  0  0  0  0  0  0
  138.1665   70.0784  221.7643 H   0  0  0  0  0  0  0  0  0  0  0  0
  137.9438   68.5739  222.7609 H   0  0  0  0  0  0  0  0  0  0  0  0
  135.8767   70.1485  222.0158 H   0  0  0  0  0  0  0  0  0  0  0  0
  136.8828   71.1661  224.7403 H   0  0  0  0  0  0  0  0  0  0  0  0
  136.9132   72.1188  223.2438 H   0  0  0  0  0  0  0  0  0  0  0  0
  134.8314   72.6455  224.4426 H   0  0  0  0  0  0  0  0  0  0  0  0
  134.3910   71.6730  223.0133 H   0  0  0  0  0  0  0  0  0  0  0  0
  134.9244   70.5395  225.8007 H   0  0  0  0  0  0  0  0  0  0  0  0
  133.2971   70.8842  225.1408 H   0  0  0  0  0  0  0  0  0  0  0  0
  133.9517   68.5064  224.8252 H   0  0  0  0  0  0  0  0  0  0  0  0
  133.7255   69.3734  223.2518 H   0  0  0  0  0  0  0  0  0  0  0  0
  136.3483   68.6810  224.6293 H   0  0  0  0  0  0  0  0  0  0  0  0
  135.6899   68.0212  223.0773 H   0  0  0  0  0  0  0  0  0  0  0  0
  141.9471   70.8376  221.7724 H   0  0  0  0  0  0  0  0  0  0  0  0
  144.2297   70.8309  220.8922 H   0  0  0  0  0  0  0  0  0  0  0  0
  1  2  1  0
  2  3  2  0
  2  4  2  0
  2  5  1  0
  5  6  2  0
  6  7  1  0
  7  8  2  0
  8  9  1  0
  9 10  2  0
 10 11  1  0
 11 12  2  0
 12 13  1  0
 13 14  2  0
 14 15  1  0
 15 16  2  0
 16 17  1  0
 17 18  2  0
 18 19  1  0
 19 20  2  0
 19 21  1  0
 21 22  1  0
 22 23  1  0
 23 24  1  0
 24 25  1  0
 25 26  1  0
 26 27  1  0
 27 28  1  0
  8 29  1  0
 29 30  2  0
 30  5  1  0
 21 11  1  0
 28 23  1  0
 18 13  1  0
  1 31  1  0
  1 32  1  0
  6 33  1  0
  7 34  1  0
  9 35  1  0
 10 36  1  0
 14 37  1  0
 15 38  1  0
 16 39  1  0
 17 40  1  0
 22 41  1  0
 22 42  1  0
 23 43  1  0
 24 44  1  0
 24 45  1  0
 25 46  1  0
 25 47  1  0
 26 48  1  0
 26 49  1  0
 27 50  1  0
 27 51  1  0
 28 52  1  0
 28 53  1  0
 29 54  1  0
 30 55  1  0
M  END
>  <smiles>  (29) 
NS(=O)(=O)c1ccc(/C=C/c2nc3ccccc3c(=O)n2CC2CCCCC2)cc1

>  <score_type>  (29) 
oracle

>  <origin>  (29) 
autodockgpu

>  <m_score__min__energy>  (29) 
-9.2400000000000002

>  <m_primary>  (29) 
energy

>  <rmsd>  (29) 
10.976988757355901

>  <m_score__min__rmsd>  (29) 
10.976988757355901

>  <meeko>  (29) 
{"free_energy": -8.44, "intermolecular_energy": -10.53, "internal_energy": -1.46, "cluster_size": 16, "cluster_id": 1, "rank_in_cluster": 14}

>  <energy>  (29) 
-8.68

>  <cluster_rmsd>  (29) 
0.24

>  <cluster>  (29) 
4

$$$$

     RDKit          3D

 55 58  0  0  0  0  0  0  0  0999 V2000
  141.0300   68.0040  227.5300 N   0  0  0  0  0  0  0  0  0  0  0  0
  140.4200   69.6030  227.7250 S   0  0  0  0  0  0  0  0  0  0  0  0
  139.1450   69.6270  228.5120 O   0  0  0  0  0  0  0  0  0  0  0  0
  141.4300   70.5100  228.3680 O   0  0  0  0  0  0  0  0  0  0  0  0
  140.0770   70.2750  226.1490 C   0  0  0  0  0  0  0  0  0  0  0  0
  138.9830   69.8910  225.4060 C   0  0  0  0  0  0  0  0  0  0  0  0
  138.7400   70.4400  224.1660 C   0  0  0  0  0  0  0  0  0  0  0  0
  139.5750   71.4020  223.5980 C   0  0  0  0  0  0  0  0  0  0  0  0
  139.2890   71.9610  222.2860 C   0  0  0  0  0  0  0  0  0  0  0  0
  139.4630   73.2260  221.9580 C   0  0  0  0  0  0  0  0  0  0  0  0
  140.7500   73.6650  221.4290 C   0  0  0  0  0  0  0  0  0  0  0  0
  141.7360   72.7350  221.3520 N   0  0  0  0  0  0  0  0  0  0  0  0
  142.9570   73.0190  220.8880 C   0  0  0  0  0  0  0  0  0  0  0  0
  143.9550   72.0610  220.8150 C   0  0  0  0  0  0  0  0  0  0  0  0
  145.2090   72.3830  220.3300 C   0  0  0  0  0  0  0  0  0  0  0  0
  145.4420   73.6840  219.9210 C   0  0  0  0  0  0  0  0  0  0  0  0
  144.4500   74.6410  219.9930 C   0  0  0  0  0  0  0  0  0  0  0  0
  143.1970   74.3080  220.4800 C   0  0  0  0  0  0  0  0  0  0  0  0
  142.1750   75.2340  220.5690 C   0  0  0  0  0  0  0  0  0  0  0  0
  142.4490   76.3970  220.1790 O   0  0  0  0  0  0  0  0  0  0  0  0
  140.9650   74.9520  221.0290 N   0  0  0  0  0  0  0  0  0  0  0  0
  139.8680   75.8800  221.1640 C   0  0  0  0  0  0  0  0  0  0  0  0
  140.3300   77.2630  221.5120 C   0  0  0  0  0  0  0  0  0  0  0  0
  141.0740   77.1710  222.8370 C   0  0  0  0  0  0  0  0  0  0  0  0
  141.5470   78.5750  223.1640 C   0  0  0  0  0  0  0  0  0  0  0  0
  140.3360   79.4110  223.4470 C   0  0  0  0  0  0  0  0  0  0  0  0
  139.5260   79.5310  222.1760 C   0  0  0  0  0  0  0  0  0  0  0  0
  139.1340   78.1670  221.6410 C   0  0  0  0  0  0  0  0  0  0  0  0
  140.6620   71.7700  224.3640 C   0  0  0  0  0  0  0  0  0  0  0  0
  140.9080   71.2220  225.6050 C   0  0  0  0  0  0  0  0  0  0  0  0
  140.3180   67.3660  227.9650 H   0  0  0  0  0  0  0  0  0  0  0  0
  141.8760   67.9040  228.1560 H   0  0  0  0  0  0  0  0  0  0  0  0
  138.2930   69.1348  225.8085 H   0  0  0  0  0  0  0  0  0  0  0  0
  137.8552   70.1075  223.6034 H   0  0  0  0  0  0  0  0  0  0  0  0
  138.9005   71.2809  221.5137 H   0  0  0  0  0  0  0  0  0  0  0  0
  138.6417   73.9471  222.0825 H   0  0  0  0  0  0  0  0  0  0  0  0
  143.7475   71.0329  221.1465 H   0  0  0  0  0  0  0  0  0  0  0  0
  146.0022   71.6232  220.2707 H   0  0  0  0  0  0  0  0  0  0  0  0
  146.4334   73.9600  219.5324 H   0  0  0  0  0  0  0  0  0  0  0  0
  144.6550   75.6701  219.6629 H   0  0  0  0  0  0  0  0  0  0  0  0
  139.3195   75.9199  220.2113 H   0  0  0  0  0  0  0  0  0  0  0  0
  139.2262   75.5243  221.9835 H   0  0  0  0  0  0  0  0  0  0  0  0
  140.9902   77.6738  220.7339 H   0  0  0  0  0  0  0  0  0  0  0  0
  140.4013   76.8033  223.6258 H   0  0  0  0  0  0  0  0  0  0  0  0
  141.9204   76.4716  222.7702 H   0  0  0  0  0  0  0  0  0  0  0  0
  142.2017   78.5532  224.0477 H   0  0  0  0  0  0  0  0  0  0  0  0
  142.1161   78.9951  222.3216 H   0  0  0  0  0  0  0  0  0  0  0  0
  139.7293   78.9318  224.2294 H   0  0  0  0  0  0  0  0  0  0  0  0
  140.6408   80.4092  223.7944 H   0  0  0  0  0  0  0  0  0  0  0  0
  138.6140   80.1092  222.3856 H   0  0  0  0  0  0  0  0  0  0  0  0
  140.1423   80.0370  221.4182 H   0  0  0  0  0  0  0  0  0  0  0  0
  138.4103   77.7069  222.3299 H   0  0  0  0  0  0  0  0  0  0  0  0
  138.6921   78.3008  220.6426 H   0  0  0  0  0  0  0  0  0  0  0  0
  141.3566   72.5270  223.9709 H   0  0  0  0  0  0  0  0  0  0  0  0
  141.7909   71.5515  226.1723 H   0  0  0  0  0  0  0  0  0  0  0  0
  1  2  1  0
  2  3  2  0
  2  4  2  0
  2  5  1  0
  5  6  2  0
  6  7  1  0
  7  8  2  0
  8  9  1  0
  9 10  2  0
 10 11  1  0
 11 12  2  0
 12 13  1  0
 13 14  2  0
 14 15  1  0
 15 16  2  0
 16 17  1  0
 17 18  2  0
 18 19  1  0
 19 20  2  0
 19 21  1  0
 21 22  1  0
 22 23  1  0
 23 24  1  0
 24 25  1  0
 25 26  1  0
 26 27  1  0
 27 28  1  0
  8 29  1  0
 29 30  2  0
 30  5  1  0
 21 11  1  0
 28 23  1  0
 18 13  1  0
  1 31  1  0
  1 32  1  0
  6 33  1  0
  7 34  1  0
  9 35  1  0
 10 36  1  0
 14 37  1  0
 15 38  1  0
 16 39  1  0
 17 40  1  0
 22 41  1  0
 22 42  1  0
 23 43  1  0
 24 44  1  0
 24 45  1  0
 25 46  1  0
 25 47  1  0
 26 48  1  0
 26 49  1  0
 27 50  1  0
 27 51  1  0
 28 52  1  0
 28 53  1  0
 29 54  1  0
 30 55  1  0
M  END
>  <smiles>  (30) 
NS(=O)(=O)c1ccc(/C=C/c2nc3ccccc3c(=O)n2CC2CCCCC2)cc1

>  <score_type>  (30) 
oracle

>  <origin>  (30) 
autodockgpu

>  <m_score__min__energy>  (30) 
-9.2400000000000002

>  <m_primary>  (30) 
energy

>  <rmsd>  (30) 
7.622535369938909

>  <m_score__min__rmsd>  (30) 
7.622535369938909

>  <meeko>  (30) 
{"free_energy": -8.62, "intermolecular_energy": -10.71, "internal_energy": -1.22, "cluster_size": 3, "cluster_id": 3, "rank_in_cluster": 3}

>  <energy>  (30) 
-8.63

>  <cluster_rmsd>  (30) 
1.31

>  <cluster>  (30) 
4

$$$$

     RDKit          3D

 55 58  0  0  0  0  0  0  0  0999 V2000
  139.3770   67.0560  226.7880 N   0  0  0  0  0  0  0  0  0  0  0  0
  139.9790   68.6230  227.1790 S   0  0  0  0  0  0  0  0  0  0  0  0
  139.1760   69.2790  228.2610 O   0  0  0  0  0  0  0  0  0  0  0  0
  141.4270   68.5790  227.5760 O   0  0  0  0  0  0  0  0  0  0  0  0
  139.8800   69.6390  225.7610 C   0  0  0  0  0  0  0  0  0  0  0  0
  138.9690   69.4120  224.7530 C   0  0  0  0  0  0  0  0  0  0  0  0
  138.9160   70.2320  223.6480 C   0  0  0  0  0  0  0  0  0  0  0  0
  139.7690   71.3240  223.4860 C   0  0  0  0  0  0  0  0  0  0  0  0
  139.6860   72.1690  222.3050 C   0  0  0  0  0  0  0  0  0  0  0  0
  138.6160   72.8490  221.9460 C   0  0  0  0  0  0  0  0  0  0  0  0
  138.5770   74.2940  222.1480 C   0  0  0  0  0  0  0  0  0  0  0  0
  139.7630   74.9530  222.1350 N   0  0  0  0  0  0  0  0  0  0  0  0
  139.8540   76.2750  222.3130 C   0  0  0  0  0  0  0  0  0  0  0  0
  141.0710   76.9350  222.2990 C   0  0  0  0  0  0  0  0  0  0  0  0
  141.1350   78.3030  222.4850 C   0  0  0  0  0  0  0  0  0  0  0  0
  139.9540   78.9950  222.6850 C   0  0  0  0  0  0  0  0  0  0  0  0
  138.7390   78.3400  222.6990 C   0  0  0  0  0  0  0  0  0  0  0  0
  138.6870   76.9690  222.5120 C   0  0  0  0  0  0  0  0  0  0  0  0
  137.4920   76.2740  222.5190 C   0  0  0  0  0  0  0  0  0  0  0  0
  136.4550   76.9600  222.7020 O   0  0  0  0  0  0  0  0  0  0  0  0
  137.4030   74.9640  222.3440 N   0  0  0  0  0  0  0  0  0  0  0  0
  136.1900   74.1830  222.3610 C   0  0  0  0  0  0  0  0  0  0  0  0
  135.7960   73.7720  223.7480 C   0  0  0  0  0  0  0  0  0  0  0  0
  135.0070   72.4750  223.6280 C   0  0  0  0  0  0  0  0  0  0  0  0
  134.6320   72.0670  225.0400 C   0  0  0  0  0  0  0  0  0  0  0  0
  133.6560   73.0770  225.5640 C   0  0  0  0  0  0  0  0  0  0  0  0
  134.3620   74.4080  225.6900 C   0  0  0  0  0  0  0  0  0  0  0  0
  134.9450   74.8520  224.3620 C   0  0  0  0  0  0  0  0  0  0  0  0
  140.6700   71.5290  224.5110 C   0  0  0  0  0  0  0  0  0  0  0  0
  140.7260   70.7100  225.6180 C   0  0  0  0  0  0  0  0  0  0  0  0
  138.7680   66.7690  227.5930 H   0  0  0  0  0  0  0  0  0  0  0  0
  140.1890   66.3800  226.8300 H   0  0  0  0  0  0  0  0  0  0  0  0
  138.2737   68.5633  224.8319 H   0  0  0  0  0  0  0  0  0  0  0  0
  138.1741   70.0182  222.8645 H   0  0  0  0  0  0  0  0  0  0  0  0
  140.5788   72.2457  221.6670 H   0  0  0  0  0  0  0  0  0  0  0  0
  137.7565   72.3303  221.4964 H   0  0  0  0  0  0  0  0  0  0  0  0
  141.9974   76.3641  222.1380 H   0  0  0  0  0  0  0  0  0  0  0  0
  142.1012   78.8286  222.4743 H   0  0  0  0  0  0  0  0  0  0  0  0
  139.9836   80.0843  222.8352 H   0  0  0  0  0  0  0  0  0  0  0  0
  137.8107   78.9080  222.8590 H   0  0  0  0  0  0  0  0  0  0  0  0
  135.3772   74.7828  221.9257 H   0  0  0  0  0  0  0  0  0  0  0  0
  136.3713   73.2679  221.7781 H   0  0  0  0  0  0  0  0  0  0  0  0
  136.6776   73.6220  224.3886 H   0  0  0  0  0  0  0  0  0  0  0  0
  134.1008   72.6358  223.0255 H   0  0  0  0  0  0  0  0  0  0  0  0
  135.6005   71.6927  223.1322 H   0  0  0  0  0  0  0  0  0  0  0  0
  134.1694   71.0691  225.0309 H   0  0  0  0  0  0  0  0  0  0  0  0
  135.5262   72.0285  225.6795 H   0  0  0  0  0  0  0  0  0  0  0  0
  132.8096   73.1707  224.8677 H   0  0  0  0  0  0  0  0  0  0  0  0
  133.2755   72.7585  226.5457 H   0  0  0  0  0  0  0  0  0  0  0  0
  133.6417   75.1641  226.0355 H   0  0  0  0  0  0  0  0  0  0  0  0
  135.1859   74.2965  226.4103 H   0  0  0  0  0  0  0  0  0  0  0  0
  134.1225   75.0948  223.6731 H   0  0  0  0  0  0  0  0  0  0  0  0
  135.5784   75.7337  224.5390 H   0  0  0  0  0  0  0  0  0  0  0  0
  141.3683   72.3762  224.4420 H   0  0  0  0  0  0  0  0  0  0  0  0
  141.4656   70.9195  226.4048 H   0  0  0  0  0  0  0  0  0  0  0  0
  1  2  1  0
  2  3  2  0
  2  4  2  0
  2  5  1  0
  5  6  2  0
  6  7  1  0
  7  8  2  0
  8  9  1  0
  9 10  2  0
 10 11  1  0
 11 12  2  0
 12 13  1  0
 13 14  2  0
 14 15  1  0
 15 16  2  0
 16 17  1  0
 17 18  2  0
 18 19  1  0
 19 20  2  0
 19 21  1  0
 21 22  1  0
 22 23  1  0
 23 24  1  0
 24 25  1  0
 25 26  1  0
 26 27  1  0
 27 28  1  0
  8 29  1  0
 29 30  2  0
 30  5  1  0
 21 11  1  0
 28 23  1  0
 18 13  1  0
  1 31  1  0
  1 32  1  0
  6 33  1  0
  7 34  1  0
  9 35  1  0
 10 36  1  0
 14 37  1  0
 15 38  1  0
 16 39  1  0
 17 40  1  0
 22 41  1  0
 22 42  1  0
 23 43  1  0
 24 44  1  0
 24 45  1  0
 25 46  1  0
 25 47  1  0
 26 48  1  0
 26 49  1  0
 27 50  1  0
 27 51  1  0
 28 52  1  0
 28 53  1  0
 29 54  1  0
 30 55  1  0
M  END
>  <smiles>  (31) 
NS(=O)(=O)c1ccc(/C=C/c2nc3ccccc3c(=O)n2CC2CCCCC2)cc1

>  <score_type>  (31) 
oracle

>  <origin>  (31) 
autodockgpu

>  <m_score__min__energy>  (31) 
-9.2400000000000002

>  <m_primary>  (31) 
energy

>  <rmsd>  (31) 
7.352596873268512

>  <m_score__min__rmsd>  (31) 
7.352596873268512

>  <meeko>  (31) 
{"free_energy": -8.43, "intermolecular_energy": -10.52, "internal_energy": -1.57, "cluster_size": 2, "cluster_id": 6, "rank_in_cluster": 1}

>  <energy>  (31) 
-8.62

>  <cluster_rmsd>  (31) 
0.42

>  <cluster>  (31) 
4

$$$$

     RDKit          3D

 55 58  0  0  0  0  0  0  0  0999 V2000
  139.2000   67.0540  226.4560 N   0  0  0  0  0  0  0  0  0  0  0  0
  139.9760   68.5110  226.9490 S   0  0  0  0  0  0  0  0  0  0  0  0
  139.2630   69.1690  228.0910 O   0  0  0  0  0  0  0  0  0  0  0  0
  141.4140   68.2800  227.3150 O   0  0  0  0  0  0  0  0  0  0  0  0
  139.9750   69.6350  225.6120 C   0  0  0  0  0  0  0  0  0  0  0  0
  139.0960   69.5270  224.5570 C   0  0  0  0  0  0  0  0  0  0  0  0
  139.1200   70.4290  223.5170 C   0  0  0  0  0  0  0  0  0  0  0  0
  140.0230   71.4920  223.4710 C   0  0  0  0  0  0  0  0  0  0  0  0
  140.0220   72.4270  222.3580 C   0  0  0  0  0  0  0  0  0  0  0  0
  141.1030   72.8370  221.7240 C   0  0  0  0  0  0  0  0  0  0  0  0
  141.2160   74.2330  221.3160 C   0  0  0  0  0  0  0  0  0  0  0  0
  140.6730   75.1640  222.1400 N   0  0  0  0  0  0  0  0  0  0  0  0
  140.7100   76.4730  221.8690 C   0  0  0  0  0  0  0  0  0  0  0  0
  140.1510   77.4130  222.7190 C   0  0  0  0  0  0  0  0  0  0  0  0
  140.2050   78.7610  222.4150 C   0  0  0  0  0  0  0  0  0  0  0  0
  140.8300   79.1450  221.2420 C   0  0  0  0  0  0  0  0  0  0  0  0
  141.3890   78.2110  220.3940 C   0  0  0  0  0  0  0  0  0  0  0  0
  141.3290   76.8640  220.7090 C   0  0  0  0  0  0  0  0  0  0  0  0
  141.8750   75.8940  219.8880 C   0  0  0  0  0  0  0  0  0  0  0  0
  142.4310   76.3080  218.8400 O   0  0  0  0  0  0  0  0  0  0  0  0
  141.8360   74.5980  220.1550 N   0  0  0  0  0  0  0  0  0  0  0  0
  142.3700   73.5420  219.3290 C   0  0  0  0  0  0  0  0  0  0  0  0
  143.8640   73.4510  219.4130 C   0  0  0  0  0  0  0  0  0  0  0  0
  144.2130   71.9950  219.6870 C   0  0  0  0  0  0  0  0  0  0  0  0
  145.7270   71.9210  219.7520 C   0  0  0  0  0  0  0  0  0  0  0  0
  146.1700   72.6710  220.9720 C   0  0  0  0  0  0  0  0  0  0  0  0
  145.8330   74.1340  220.7860 C   0  0  0  0  0  0  0  0  0  0  0  0
  144.3510   74.3310  220.5330 C   0  0  0  0  0  0  0  0  0  0  0  0
  140.8920   71.5780  224.5410 C   0  0  0  0  0  0  0  0  0  0  0  0
  140.8700   70.6760  225.5820 C   0  0  0  0  0  0  0  0  0  0  0  0
  138.1690   67.2520  226.4740 H   0  0  0  0  0  0  0  0  0  0  0  0
  139.3350   66.3410  227.2240 H   0  0  0  0  0  0  0  0  0  0  0  0
  138.3630   68.7069  224.5452 H   0  0  0  0  0  0  0  0  0  0  0  0
  138.4017   70.3074  222.6929 H   0  0  0  0  0  0  0  0  0  0  0  0
  139.0514   72.8201  222.0211 H   0  0  0  0  0  0  0  0  0  0  0  0
  141.9160   72.1295  221.5037 H   0  0  0  0  0  0  0  0  0  0  0  0
  139.6587   77.0837  223.6459 H   0  0  0  0  0  0  0  0  0  0  0  0
  139.7621   79.5091  223.0889 H   0  0  0  0  0  0  0  0  0  0  0  0
  140.8822   80.2123  220.9811 H   0  0  0  0  0  0  0  0  0  0  0  0
  141.8829   78.5369  219.4667 H   0  0  0  0  0  0  0  0  0  0  0  0
  141.9387   72.5847  219.6569 H   0  0  0  0  0  0  0  0  0  0  0  0
  142.1058   73.7665  218.2851 H   0  0  0  0  0  0  0  0  0  0  0  0
  144.3410   73.7856  218.4800 H   0  0  0  0  0  0  0  0  0  0  0  0
  143.7752   71.6725  220.6432 H   0  0  0  0  0  0  0  0  0  0  0  0
  143.8154   71.3355  218.9015 H   0  0  0  0  0  0  0  0  0  0  0  0
  146.0478   70.8711  219.8211 H   0  0  0  0  0  0  0  0  0  0  0  0
  146.1726   72.3607  218.8475 H   0  0  0  0  0  0  0  0  0  0  0  0
  145.6480   72.2799  221.8577 H   0  0  0  0  0  0  0  0  0  0  0  0
  147.2538   72.5496  221.1157 H   0  0  0  0  0  0  0  0  0  0  0  0
  146.1177   74.6854  221.6942 H   0  0  0  0  0  0  0  0  0  0  0  0
  146.3868   74.5092  219.9128 H   0  0  0  0  0  0  0  0  0  0  0  0
  143.7954   74.0842  221.4497 H   0  0  0  0  0  0  0  0  0  0  0  0
  144.1848   75.3800  220.2468 H   0  0  0  0  0  0  0  0  0  0  0  0
  141.6276   72.3956  224.5628 H   0  0  0  0  0  0  0  0  0  0  0  0
  141.5863   70.7924  226.4087 H   0  0  0  0  0  0  0  0  0  0  0  0
  1  2  1  0
  2  3  2  0
  2  4  2  0
  2  5  1  0
  5  6  2  0
  6  7  1  0
  7  8  2  0
  8  9  1  0
  9 10  2  0
 10 11  1  0
 11 12  2  0
 12 13  1  0
 13 14  2  0
 14 15  1  0
 15 16  2  0
 16 17  1  0
 17 18  2  0
 18 19  1  0
 19 20  2  0
 19 21  1  0
 21 22  1  0
 22 23  1  0
 23 24  1  0
 24 25  1  0
 25 26  1  0
 26 27  1  0
 27 28  1  0
  8 29  1  0
 29 30  2  0
 30  5  1  0
 21 11  1  0
 28 23  1  0
 18 13  1  0
  1 31  1  0
  1 32  1  0
  6 33  1  0
  7 34  1  0
  9 35  1  0
 10 36  1  0
 14 37  1  0
 15 38  1  0
 16 39  1  0
 17 40  1  0
 22 41  1  0
 22 42  1  0
 23 43  1  0
 24 44  1  0
 24 45  1  0
 25 46  1  0
 25 47  1  0
 26 48  1  0
 26 49  1  0
 27 50  1  0
 27 51  1  0
 28 52  1  0
 28 53  1  0
 29 54  1  0
 30 55  1  0
M  END
>  <smiles>  (32) 
NS(=O)(=O)c1ccc(/C=C/c2nc3ccccc3c(=O)n2CC2CCCCC2)cc1

>  <score_type>  (32) 
oracle

>  <origin>  (32) 
autodockgpu

>  <m_score__min__energy>  (32) 
-9.2400000000000002

>  <m_primary>  (32) 
energy

>  <rmsd>  (32) 
5.722656396784989

>  <m_score__min__rmsd>  (32) 
5.722656396784989

>  <meeko>  (32) 
{"free_energy": -8.81, "intermolecular_energy": -10.9, "internal_energy": -1.28, "cluster_size": 8, "cluster_id": 2, "rank_in_cluster": 4}

>  <energy>  (32) 
-8.35

>  <cluster_rmsd>  (32) 
1.18

>  <cluster>  (32) 
4

$$$$

     RDKit          3D

 55 58  0  0  0  0  0  0  0  0999 V2000
  146.4810   72.7040  221.6310 N   0  0  0  0  0  0  0  0  0  0  0  0
  145.4750   73.3480  220.3890 S   0  0  0  0  0  0  0  0  0  0  0  0
  145.3550   74.8390  220.4800 O   0  0  0  0  0  0  0  0  0  0  0  0
  145.9620   72.9610  219.0220 O   0  0  0  0  0  0  0  0  0  0  0  0
  143.8700   72.6810  220.5560 C   0  0  0  0  0  0  0  0  0  0  0  0
  143.5820   71.3690  220.2530 C   0  0  0  0  0  0  0  0  0  0  0  0
  142.3040   70.8720  220.3950 C   0  0  0  0  0  0  0  0  0  0  0  0
  141.2440   71.6570  220.8480 C   0  0  0  0  0  0  0  0  0  0  0  0
  139.9070   71.1010  220.9870 C   0  0  0  0  0  0  0  0  0  0  0  0
  139.1090   71.3190  222.0130 C   0  0  0  0  0  0  0  0  0  0  0  0
  139.3990   70.6950  223.2990 C   0  0  0  0  0  0  0  0  0  0  0  0
  139.9430   71.4830  224.2610 N   0  0  0  0  0  0  0  0  0  0  0  0
  140.2550   71.0220  225.4760 C   0  0  0  0  0  0  0  0  0  0  0  0
  140.8110   71.8380  226.4490 C   0  0  0  0  0  0  0  0  0  0  0  0
  141.1230   71.3350  227.6980 C   0  0  0  0  0  0  0  0  0  0  0  0
  140.8660   69.9990  227.9520 C   0  0  0  0  0  0  0  0  0  0  0  0
  140.3120   69.1840  226.9850 C   0  0  0  0  0  0  0  0  0  0  0  0
  140.0040   69.6990  225.7370 C   0  0  0  0  0  0  0  0  0  0  0  0
  139.4470   68.9180  224.7410 C   0  0  0  0  0  0  0  0  0  0  0  0
  139.2360   67.7150  225.0350 O   0  0  0  0  0  0  0  0  0  0  0  0
  139.1400   69.3750  223.5360 N   0  0  0  0  0  0  0  0  0  0  0  0
  138.5780   68.6060  222.4520 C   0  0  0  0  0  0  0  0  0  0  0  0
  137.1800   68.1490  222.7420 C   0  0  0  0  0  0  0  0  0  0  0  0
  136.5060   67.8780  221.4030 C   0  0  0  0  0  0  0  0  0  0  0  0
  135.1000   67.4020  221.7170 C   0  0  0  0  0  0  0  0  0  0  0  0
  134.3500   68.5550  222.3130 C   0  0  0  0  0  0  0  0  0  0  0  0
  134.9780   68.9020  223.6440 C   0  0  0  0  0  0  0  0  0  0  0  0
  136.4500   69.2320  223.4900 C   0  0  0  0  0  0  0  0  0  0  0  0
  141.5610   72.9670  221.1460 C   0  0  0  0  0  0  0  0  0  0  0  0
  142.8370   73.4670  221.0040 C   0  0  0  0  0  0  0  0  0  0  0  0
  146.9940   71.8950  221.2000 H   0  0  0  0  0  0  0  0  0  0  0  0
  145.8540   72.2530  222.3510 H   0  0  0  0  0  0  0  0  0  0  0  0
  144.3836   70.7077  219.8923 H   0  0  0  0  0  0  0  0  0  0  0  0
  142.1135   69.8186  220.1420 H   0  0  0  0  0  0  0  0  0  0  0  0
  139.5360   70.4532  220.1791 H   0  0  0  0  0  0  0  0  0  0  0  0
  138.2284   71.9685  221.9000 H   0  0  0  0  0  0  0  0  0  0  0  0
  141.0060   72.8971  226.2247 H   0  0  0  0  0  0  0  0  0  0  0  0
  141.5648   71.9807  228.4712 H   0  0  0  0  0  0  0  0  0  0  0  0
  141.1070   69.5798  228.9400 H   0  0  0  0  0  0  0  0  0  0  0  0
  140.1151   68.1246  227.2061 H   0  0  0  0  0  0  0  0  0  0  0  0
  138.5653   69.2294  221.5458 H   0  0  0  0  0  0  0  0  0  0  0  0
  139.2027   67.7109  222.3159 H   0  0  0  0  0  0  0  0  0  0  0  0
  137.1745   67.2393  223.3604 H   0  0  0  0  0  0  0  0  0  0  0  0
  136.4702   68.7988  220.8023 H   0  0  0  0  0  0  0  0  0  0  0  0
  137.0607   67.1253  220.8236 H   0  0  0  0  0  0  0  0  0  0  0  0
  134.6027   67.0686  220.7942 H   0  0  0  0  0  0  0  0  0  0  0  0
  135.1279   66.5564  222.4199 H   0  0  0  0  0  0  0  0  0  0  0  0
  134.4069   69.4224  221.6389 H   0  0  0  0  0  0  0  0  0  0  0  0
  133.2936   68.2832  222.4551 H   0  0  0  0  0  0  0  0  0  0  0  0
  134.4581   69.7732  224.0691 H   0  0  0  0  0  0  0  0  0  0  0  0
  134.8855   68.0306  224.3090 H   0  0  0  0  0  0  0  0  0  0  0  0
  136.5488   70.1779  222.9372 H   0  0  0  0  0  0  0  0  0  0  0  0
  136.8923   69.3184  224.4934 H   0  0  0  0  0  0  0  0  0  0  0  0
  140.7667   73.6355  221.5097 H   0  0  0  0  0  0  0  0  0  0  0  0
  143.0327   74.5199  221.2552 H   0  0  0  0  0  0  0  0  0  0  0  0
  1  2  1  0
  2  3  2  0
  2  4  2  0
  2  5  1  0
  5  6  2  0
  6  7  1  0
  7  8  2  0
  8  9  1  0
  9 10  2  0
 10 11  1  0
 11 12  2  0
 12 13  1  0
 13 14  2  0
 14 15  1  0
 15 16  2  0
 16 17  1  0
 17 18  2  0
 18 19  1  0
 19 20  2  0
 19 21  1  0
 21 22  1  0
 22 23  1  0
 23 24  1  0
 24 25  1  0
 25 26  1  0
 26 27  1  0
 27 28  1  0
  8 29  1  0
 29 30  2  0
 30  5  1  0
 21 11  1  0
 28 23  1  0
 18 13  1  0
  1 31  1  0
  1 32  1  0
  6 33  1  0
  7 34  1  0
  9 35  1  0
 10 36  1  0
 14 37  1  0
 15 38  1  0
 16 39  1  0
 17 40  1  0
 22 41  1  0
 22 42  1  0
 23 43  1  0
 24 44  1  0
 24 45  1  0
 25 46  1  0
 25 47  1  0
 26 48  1  0
 26 49  1  0
 27 50  1  0
 27 51  1  0
 28 52  1  0
 28 53  1  0
 29 54  1  0
 30 55  1  0
M  END
>  <smiles>  (33) 
NS(=O)(=O)c1ccc(/C=C/c2nc3ccccc3c(=O)n2CC2CCCCC2)cc1

>  <score_type>  (33) 
oracle

>  <origin>  (33) 
autodockgpu

>  <m_score__min__energy>  (33) 
-9.2400000000000002

>  <m_primary>  (33) 
energy

>  <rmsd>  (33) 
11.480953846156384

>  <m_score__min__rmsd>  (33) 
11.480953846156384

>  <meeko>  (33) 
{"free_energy": -8.76, "intermolecular_energy": -10.84, "internal_energy": -1.48, "cluster_size": 16, "cluster_id": 1, "rank_in_cluster": 6}

>  <energy>  (33) 
-8.66

>  <cluster_rmsd>  (33) 
0.0

>  <cluster>  (33) 
5

$$$$

     RDKit          3D

 55 58  0  0  0  0  0  0  0  0999 V2000
  145.9710   73.4360  218.2530 N   0  0  0  0  0  0  0  0  0  0  0  0
  145.8600   72.8600  219.8730 S   0  0  0  0  0  0  0  0  0  0  0  0
  146.3520   71.4500  220.0030 O   0  0  0  0  0  0  0  0  0  0  0  0
  146.6030   73.7470  220.8310 O   0  0  0  0  0  0  0  0  0  0  0  0
  144.1860   72.8800  220.3690 C   0  0  0  0  0  0  0  0  0  0  0  0
  143.4530   74.0430  220.4480 C   0  0  0  0  0  0  0  0  0  0  0  0
  142.1340   74.0250  220.8430 C   0  0  0  0  0  0  0  0  0  0  0  0
  141.4710   72.8460  221.1810 C   0  0  0  0  0  0  0  0  0  0  0  0
  140.0760   72.8620  221.5940 C   0  0  0  0  0  0  0  0  0  0  0  0
  139.5740   72.1190  222.5600 C   0  0  0  0  0  0  0  0  0  0  0  0
  139.4490   70.6780  222.3720 C   0  0  0  0  0  0  0  0  0  0  0  0
  139.6530   70.1980  221.1190 N   0  0  0  0  0  0  0  0  0  0  0  0
  139.5620   68.8970  220.8240 C   0  0  0  0  0  0  0  0  0  0  0  0
  139.7720   68.4200  219.5400 C   0  0  0  0  0  0  0  0  0  0  0  0
  139.6720   67.0690  219.2630 C   0  0  0  0  0  0  0  0  0  0  0  0
  139.3570   66.2080  220.2990 C   0  0  0  0  0  0  0  0  0  0  0  0
  139.1470   66.6800  221.5790 C   0  0  0  0  0  0  0  0  0  0  0  0
  139.2500   68.0350  221.8450 C   0  0  0  0  0  0  0  0  0  0  0  0
  139.0480   68.5500  223.1120 C   0  0  0  0  0  0  0  0  0  0  0  0
  138.7680   67.7160  224.0090 O   0  0  0  0  0  0  0  0  0  0  0  0
  139.1370   69.8390  223.4040 N   0  0  0  0  0  0  0  0  0  0  0  0
  138.9180   70.4360  224.6990 C   0  0  0  0  0  0  0  0  0  0  0  0
  140.0820   70.2370  225.6230 C   0  0  0  0  0  0  0  0  0  0  0  0
  139.7180   69.1030  226.5710 C   0  0  0  0  0  0  0  0  0  0  0  0
  140.9120   68.9070  227.4860 C   0  0  0  0  0  0  0  0  0  0  0  0
  141.0310   70.1240  228.3510 C   0  0  0  0  0  0  0  0  0  0  0  0
  141.3710   71.3080  227.4730 C   0  0  0  0  0  0  0  0  0  0  0  0
  140.3280   71.5090  226.3900 C   0  0  0  0  0  0  0  0  0  0  0  0
  142.2270   71.6940  221.0920 C   0  0  0  0  0  0  0  0  0  0  0  0
  143.5480   71.7090  220.6980 C   0  0  0  0  0  0  0  0  0  0  0  0
  146.8500   74.0090  218.2070 H   0  0  0  0  0  0  0  0  0  0  0  0
  145.1990   74.1440  218.1100 H   0  0  0  0  0  0  0  0  0  0  0  0
  143.9285   75.0012  220.1916 H   0  0  0  0  0  0  0  0  0  0  0  0
  141.5832   74.9758  220.8937 H   0  0  0  0  0  0  0  0  0  0  0  0
  139.3928   73.5414  221.0632 H   0  0  0  0  0  0  0  0  0  0  0  0
  139.2509   72.5834  223.5034 H   0  0  0  0  0  0  0  0  0  0  0  0
  140.0210   69.1239  218.7322 H   0  0  0  0  0  0  0  0  0  0  0  0
  139.8387   66.6884  218.2445 H   0  0  0  0  0  0  0  0  0  0  0  0
  139.2725   65.1296  220.0994 H   0  0  0  0  0  0  0  0  0  0  0  0
  138.8975   65.9787  222.3889 H   0  0  0  0  0  0  0  0  0  0  0  0
  138.7519   71.5154  224.5671 H   0  0  0  0  0  0  0  0  0  0  0  0
  138.0428   69.9464  225.1510 H   0  0  0  0  0  0  0  0  0  0  0  0
  140.9983   69.9869  225.0681 H   0  0  0  0  0  0  0  0  0  0  0  0
  138.8280   69.3705  227.1595 H   0  0  0  0  0  0  0  0  0  0  0  0
  139.4850   68.1812  226.0178 H   0  0  0  0  0  0  0  0  0  0  0  0
  140.7607   68.0158  228.1128 H   0  0  0  0  0  0  0  0  0  0  0  0
  141.8291   68.7643  226.8955 H   0  0  0  0  0  0  0  0  0  0  0  0
  140.0768   70.3069  228.8668 H   0  0  0  0  0  0  0  0  0  0  0  0
  141.8195   69.9750  229.1033 H   0  0  0  0  0  0  0  0  0  0  0  0
  141.4200   72.2134  228.0957 H   0  0  0  0  0  0  0  0  0  0  0  0
  142.3402   71.1149  226.9899 H   0  0  0  0  0  0  0  0  0  0  0  0
  139.3861   71.8341  226.8559 H   0  0  0  0  0  0  0  0  0  0  0  0
  140.6990   72.2707  225.6884 H   0  0  0  0  0  0  0  0  0  0  0  0
  141.7590   70.7310  221.3442 H   0  0  0  0  0  0  0  0  0  0  0  0
  144.1039   70.7613  220.6459 H   0  0  0  0  0  0  0  0  0  0  0  0
  1  2  1  0
  2  3  2  0
  2  4  2  0
  2  5  1  0
  5  6  2  0
  6  7  1  0
  7  8  2  0
  8  9  1  0
  9 10  2  0
 10 11  1  0
 11 12  2  0
 12 13  1  0
 13 14  2  0
 14 15  1  0
 15 16  2  0
 16 17  1  0
 17 18  2  0
 18 19  1  0
 19 20  2  0
 19 21  1  0
 21 22  1  0
 22 23  1  0
 23 24  1  0
 24 25  1  0
 25 26  1  0
 26 27  1  0
 27 28  1  0
  8 29  1  0
 29 30  2  0
 30  5  1  0
 21 11  1  0
 28 23  1  0
 18 13  1  0
  1 31  1  0
  1 32  1  0
  6 33  1  0
  7 34  1  0
  9 35  1  0
 10 36  1  0
 14 37  1  0
 15 38  1  0
 16 39  1  0
 17 40  1  0
 22 41  1  0
 22 42  1  0
 23 43  1  0
 24 44  1  0
 24 45  1  0
 25 46  1  0
 25 47  1  0
 26 48  1  0
 26 49  1  0
 27 50  1  0
 27 51  1  0
 28 52  1  0
 28 53  1  0
 29 54  1  0
 30 55  1  0
M  END
>  <smiles>  (34) 
NS(=O)(=O)c1ccc(/C=C/c2nc3ccccc3c(=O)n2CC2CCCCC2)cc1

>  <score_type>  (34) 
oracle

>  <origin>  (34) 
autodockgpu

>  <m_score__min__energy>  (34) 
-9.2400000000000002

>  <m_primary>  (34) 
energy

>  <rmsd>  (34) 
12.738162854507078

>  <m_score__min__rmsd>  (34) 
12.738162854507078

>  <meeko>  (34) 
{"free_energy": -8.66, "intermolecular_energy": -10.74, "internal_energy": -1.47, "cluster_size": 1, "cluster_id": 5, "rank_in_cluster": 1}

>  <energy>  (34) 
-8.43

>  <cluster_rmsd>  (34) 
0.0

>  <cluster>  (34) 
6

$$$$

     RDKit          3D

 55 58  0  0  0  0  0  0  0  0999 V2000
  142.2050   78.7060  221.1680 N   0  0  0  0  0  0  0  0  0  0  0  0
  140.8730   78.3650  222.2060 S   0  0  0  0  0  0  0  0  0  0  0  0
  141.1960   78.6400  223.6430 O   0  0  0  0  0  0  0  0  0  0  0  0
  139.6450   79.1310  221.8070 O   0  0  0  0  0  0  0  0  0  0  0  0
  140.4700   76.6700  222.0740 C   0  0  0  0  0  0  0  0  0  0  0  0
  139.2350   76.1760  222.4290 C   0  0  0  0  0  0  0  0  0  0  0  0
  138.9480   74.8330  222.3130 C   0  0  0  0  0  0  0  0  0  0  0  0
  139.8780   73.9090  221.8370 C   0  0  0  0  0  0  0  0  0  0  0  0
  139.5430   72.4980  221.7270 C   0  0  0  0  0  0  0  0  0  0  0  0
  140.3230   71.5110  222.1200 C   0  0  0  0  0  0  0  0  0  0  0  0
  140.1520   70.9410  223.4520 C   0  0  0  0  0  0  0  0  0  0  0  0
  140.6980   71.6240  224.4920 N   0  0  0  0  0  0  0  0  0  0  0  0
  140.6100   71.1980  225.7560 C   0  0  0  0  0  0  0  0  0  0  0  0
  141.1720   71.9040  226.8080 C   0  0  0  0  0  0  0  0  0  0  0  0
  141.0640   71.4410  228.1060 C   0  0  0  0  0  0  0  0  0  0  0  0
  140.3830   70.2570  228.3280 C   0  0  0  0  0  0  0  0  0  0  0  0
  139.8220   69.5520  227.2820 C   0  0  0  0  0  0  0  0  0  0  0  0
  139.9350   70.0250  225.9860 C   0  0  0  0  0  0  0  0  0  0  0  0
  139.3880   69.3510  224.9090 C   0  0  0  0  0  0  0  0  0  0  0  0
  138.7800   68.2850  225.1770 O   0  0  0  0  0  0  0  0  0  0  0  0
  139.4770   69.7720  223.6570 N   0  0  0  0  0  0  0  0  0  0  0  0
  138.9450   69.1030  222.4940 C   0  0  0  0  0  0  0  0  0  0  0  0
  137.4860   69.3800  222.2940 C   0  0  0  0  0  0  0  0  0  0  0  0
  137.1290   70.5750  223.1680 C   0  0  0  0  0  0  0  0  0  0  0  0
  135.6540   70.8500  222.9400 C   0  0  0  0  0  0  0  0  0  0  0  0
  134.8810   69.6990  223.5080 C   0  0  0  0  0  0  0  0  0  0  0  0
  135.2020   68.4590  222.7030 C   0  0  0  0  0  0  0  0  0  0  0  0
  136.6910   68.1700  222.7060 C   0  0  0  0  0  0  0  0  0  0  0  0
  141.1070   74.4310  221.4870 C   0  0  0  0  0  0  0  0  0  0  0  0
  141.3970   75.7740  221.6030 C   0  0  0  0  0  0  0  0  0  0  0  0
  142.8240   77.8580  221.1990 H   0  0  0  0  0  0  0  0  0  0  0  0
  142.7850   79.4610  221.6260 H   0  0  0  0  0  0  0  0  0  0  0  0
  138.4658   76.8634  222.8109 H   0  0  0  0  0  0  0  0  0  0  0  0
  137.9494   74.4770  222.6064 H   0  0  0  0  0  0  0  0  0  0  0  0
  138.5704   72.2362  221.2848 H   0  0  0  0  0  0  0  0  0  0  0  0
  141.0994   71.1188  221.4467 H   0  0  0  0  0  0  0  0  0  0  0  0
  141.7096   72.8426  226.6079 H   0  0  0  0  0  0  0  0  0  0  0  0
  141.5087   72.0003  228.9423 H   0  0  0  0  0  0  0  0  0  0  0  0
  140.2872   69.8716  229.3538 H   0  0  0  0  0  0  0  0  0  0  0  0
  139.2843   68.6128  227.4788 H   0  0  0  0  0  0  0  0  0  0  0  0
  139.4951   69.4473  221.6058 H   0  0  0  0  0  0  0  0  0  0  0  0
  139.0633   68.0200  222.6463 H   0  0  0  0  0  0  0  0  0  0  0  0
  137.2592   69.5992  221.2402 H   0  0  0  0  0  0  0  0  0  0  0  0
  137.3125   70.3398  224.2268 H   0  0  0  0  0  0  0  0  0  0  0  0
  137.7415   71.4522  222.9121 H   0  0  0  0  0  0  0  0  0  0  0  0
  135.3643   71.7821  223.4472 H   0  0  0  0  0  0  0  0  0  0  0  0
  135.4451   70.9607  221.8657 H   0  0  0  0  0  0  0  0  0  0  0  0
  135.1666   69.5431  224.5588 H   0  0  0  0  0  0  0  0  0  0  0  0
  133.8025   69.9099  223.4599 H   0  0  0  0  0  0  0  0  0  0  0  0
  134.6696   67.6009  223.1391 H   0  0  0  0  0  0  0  0  0  0  0  0
  134.8832   68.6276  221.6638 H   0  0  0  0  0  0  0  0  0  0  0  0
  136.9953   67.8699  223.7196 H   0  0  0  0  0  0  0  0  0  0  0  0
  136.8887   67.3637  221.9844 H   0  0  0  0  0  0  0  0  0  0  0  0
  141.8820   73.7519  221.1021 H   0  0  0  0  0  0  0  0  0  0  0  0
  142.3941   76.1356  221.3114 H   0  0  0  0  0  0  0  0  0  0  0  0
  1  2  1  0
  2  3  2  0
  2  4  2  0
  2  5  1  0
  5  6  2  0
  6  7  1  0
  7  8  2  0
  8  9  1  0
  9 10  2  0
 10 11  1  0
 11 12  2  0
 12 13  1  0
 13 14  2  0
 14 15  1  0
 15 16  2  0
 16 17  1  0
 17 18  2  0
 18 19  1  0
 19 20  2  0
 19 21  1  0
 21 22  1  0
 22 23  1  0
 23 24  1  0
 24 25  1  0
 25 26  1  0
 26 27  1  0
 27 28  1  0
  8 29  1  0
 29 30  2  0
 30  5  1  0
 21 11  1  0
 28 23  1  0
 18 13  1  0
  1 31  1  0
  1 32  1  0
  6 33  1  0
  7 34  1  0
  9 35  1  0
 10 36  1  0
 14 37  1  0
 15 38  1  0
 16 39  1  0
 17 40  1  0
 22 41  1  0
 22 42  1  0
 23 43  1  0
 24 44  1  0
 24 45  1  0
 25 46  1  0
 25 47  1  0
 26 48  1  0
 26 49  1  0
 27 50  1  0
 27 51  1  0
 28 52  1  0
 28 53  1  0
 29 54  1  0
 30 55  1  0
M  END
>  <smiles>  (35) 
NS(=O)(=O)c1ccc(/C=C/c2nc3ccccc3c(=O)n2CC2CCCCC2)cc1

>  <score_type>  (35) 
oracle

>  <origin>  (35) 
autodockgpu

>  <m_score__min__energy>  (35) 
-9.2400000000000002

>  <m_primary>  (35) 
energy

>  <rmsd>  (35) 
10.921028343011603

>  <m_score__min__rmsd>  (35) 
10.921028343011603

>  <meeko>  (35) 
{"free_energy": -8.25, "intermolecular_energy": -10.34, "internal_energy": -1.57, "cluster_size": 2, "cluster_id": 8, "rank_in_cluster": 2}

>  <energy>  (35) 
-7.78

>  <cluster_rmsd>  (35) 
1.05

>  <cluster>  (35) 
6

$$$$

     RDKit          3D

 55 58  0  0  0  0  0  0  0  0999 V2000
  145.8750   73.4500  218.1960 N   0  0  0  0  0  0  0  0  0  0  0  0
  145.8500   72.7360  219.7640 S   0  0  0  0  0  0  0  0  0  0  0  0
  146.3260   71.3150  219.7430 O   0  0  0  0  0  0  0  0  0  0  0  0
  146.6610   73.5280  220.7490 O   0  0  0  0  0  0  0  0  0  0  0  0
  144.2070   72.7300  220.3580 C   0  0  0  0  0  0  0  0  0  0  0  0
  143.4590   73.8810  220.4680 C   0  0  0  0  0  0  0  0  0  0  0  0
  142.1660   73.8430  220.9410 C   0  0  0  0  0  0  0  0  0  0  0  0
  141.5460   72.6550  221.3300 C   0  0  0  0  0  0  0  0  0  0  0  0
  140.1790   72.6510  221.8250 C   0  0  0  0  0  0  0  0  0  0  0  0
  139.4840   71.5630  222.0920 C   0  0  0  0  0  0  0  0  0  0  0  0
  139.6520   70.8960  223.3780 C   0  0  0  0  0  0  0  0  0  0  0  0
  140.1800   71.6290  224.3910 N   0  0  0  0  0  0  0  0  0  0  0  0
  140.3860   71.1250  225.6120 C   0  0  0  0  0  0  0  0  0  0  0  0
  140.9260   71.8850  226.6370 C   0  0  0  0  0  0  0  0  0  0  0  0
  141.1270   71.3380  227.8910 C   0  0  0  0  0  0  0  0  0  0  0  0
  140.7750   70.0160  228.0960 C   0  0  0  0  0  0  0  0  0  0  0  0
  140.2360   69.2560  227.0760 C   0  0  0  0  0  0  0  0  0  0  0  0
  140.0390   69.8140  225.8240 C   0  0  0  0  0  0  0  0  0  0  0  0
  139.5020   69.0910  224.7760 C   0  0  0  0  0  0  0  0  0  0  0  0
  139.2000   67.8970  225.0270 O   0  0  0  0  0  0  0  0  0  0  0  0
  139.3000   69.5900  223.5660 N   0  0  0  0  0  0  0  0  0  0  0  0
  138.7640   68.8790  222.4300 C   0  0  0  0  0  0  0  0  0  0  0  0
  137.4120   68.2940  222.7100 C   0  0  0  0  0  0  0  0  0  0  0  0
  136.8240   67.8550  221.3760 C   0  0  0  0  0  0  0  0  0  0  0  0
  135.4660   67.2530  221.6820 C   0  0  0  0  0  0  0  0  0  0  0  0
  134.5740   68.3560  222.1630 C   0  0  0  0  0  0  0  0  0  0  0  0
  135.1080   68.8650  223.4840 C   0  0  0  0  0  0  0  0  0  0  0  0
  136.5420   69.3420  223.3510 C   0  0  0  0  0  0  0  0  0  0  0  0
  142.3180   71.5170  221.2080 C   0  0  0  0  0  0  0  0  0  0  0  0
  143.6130   71.5520  220.7360 C   0  0  0  0  0  0  0  0  0  0  0  0
  146.7760   73.9870  218.1350 H   0  0  0  0  0  0  0  0  0  0  0  0
  145.1310   74.1990  218.1710 H   0  0  0  0  0  0  0  0  0  0  0  0
  143.9005   74.8446  220.1739 H   0  0  0  0  0  0  0  0  0  0  0  0
  141.6012   74.7840  221.0148 H   0  0  0  0  0  0  0  0  0  0  0  0
  139.6908   73.6231  221.9880 H   0  0  0  0  0  0  0  0  0  0  0  0
  138.7807   71.1602  221.3483 H   0  0  0  0  0  0  0  0  0  0  0  0
  141.1977   72.9346  226.4512 H   0  0  0  0  0  0  0  0  0  0  0  0
  141.5564   71.9395  228.7058 H   0  0  0  0  0  0  0  0  0  0  0  0
  140.9266   69.5628  229.0867 H   0  0  0  0  0  0  0  0  0  0  0  0
  139.9629   68.2062  227.2586 H   0  0  0  0  0  0  0  0  0  0  0  0
  138.6790   69.5769  221.5840 H   0  0  0  0  0  0  0  0  0  0  0  0
  139.4482   68.0491  222.1995 H   0  0  0  0  0  0  0  0  0  0  0  0
  137.4792   67.4360  223.3951 H   0  0  0  0  0  0  0  0  0  0  0  0
  136.7139   68.7204  220.7059 H   0  0  0  0  0  0  0  0  0  0  0  0
  137.4778   67.1273  220.8730 H   0  0  0  0  0  0  0  0  0  0  0  0
  135.0440   66.8001  220.7727 H   0  0  0  0  0  0  0  0  0  0  0  0
  135.5569   66.4701  222.4494 H   0  0  0  0  0  0  0  0  0  0  0  0
  134.5650   69.1734  221.4269 H   0  0  0  0  0  0  0  0  0  0  0  0
  133.5477   67.9815  222.2909 H   0  0  0  0  0  0  0  0  0  0  0  0
  134.4818   69.7026  223.8250 H   0  0  0  0  0  0  0  0  0  0  0  0
  135.0823   68.0395  224.2105 H   0  0  0  0  0  0  0  0  0  0  0  0
  136.5609   70.2508  222.7315 H   0  0  0  0  0  0  0  0  0  0  0  0
  136.9332   69.5481  224.3582 H   0  0  0  0  0  0  0  0  0  0  0  0
  141.8847   70.5483  221.4975 H   0  0  0  0  0  0  0  0  0  0  0  0
  144.1831   70.6143  220.6607 H   0  0  0  0  0  0  0  0  0  0  0  0
  1  2  1  0
  2  3  2  0
  2  4  2  0
  2  5  1  0
  5  6  2  0
  6  7  1  0
  7  8  2  0
  8  9  1  0
  9 10  2  0
 10 11  1  0
 11 12  2  0
 12 13  1  0
 13 14  2  0
 14 15  1  0
 15 16  2  0
 16 17  1  0
 17 18  2  0
 18 19  1  0
 19 20  2  0
 19 21  1  0
 21 22  1  0
 22 23  1  0
 23 24  1  0
 24 25  1  0
 25 26  1  0
 26 27  1  0
 27 28  1  0
  8 29  1  0
 29 30  2  0
 30  5  1  0
 21 11  1  0
 28 23  1  0
 18 13  1  0
  1 31  1  0
  1 32  1  0
  6 33  1  0
  7 34  1  0
  9 35  1  0
 10 36  1  0
 14 37  1  0
 15 38  1  0
 16 39  1  0
 17 40  1  0
 22 41  1  0
 22 42  1  0
 23 43  1  0
 24 44  1  0
 24 45  1  0
 25 46  1  0
 25 47  1  0
 26 48  1  0
 26 49  1  0
 27 50  1  0
 27 51  1  0
 28 52  1  0
 28 53  1  0
 29 54  1  0
 30 55  1  0
M  END
>  <smiles>  (36) 
NS(=O)(=O)c1ccc(/C=C/c2nc3ccccc3c(=O)n2CC2CCCCC2)cc1

>  <score_type>  (36) 
oracle

>  <origin>  (36) 
autodockgpu

>  <m_score__min__energy>  (36) 
-9.2400000000000002

>  <m_primary>  (36) 
energy

>  <rmsd>  (36) 
11.43230569944801

>  <m_score__min__rmsd>  (36) 
11.43230569944801

>  <meeko>  (36) 
{"free_energy": -9.24, "intermolecular_energy": -11.33, "internal_energy": -1.42, "cluster_size": 16, "cluster_id": 1, "rank_in_cluster": 1}

>  <energy>  (36) 
-8.3

>  <cluster_rmsd>  (36) 
0.0

>  <cluster>  (36) 
7

$$$$

     RDKit          3D

 55 58  0  0  0  0  0  0  0  0999 V2000
  146.3270   73.4300  218.5020 N   0  0  0  0  0  0  0  0  0  0  0  0
  145.6200   72.7310  219.9090 S   0  0  0  0  0  0  0  0  0  0  0  0
  145.4320   71.2510  219.7680 O   0  0  0  0  0  0  0  0  0  0  0  0
  146.4270   73.0240  221.1410 O   0  0  0  0  0  0  0  0  0  0  0  0
  144.0440   73.4390  220.1630 C   0  0  0  0  0  0  0  0  0  0  0  0
  143.7960   74.7790  219.9620 C   0  0  0  0  0  0  0  0  0  0  0  0
  142.5410   75.3070  220.1710 C   0  0  0  0  0  0  0  0  0  0  0  0
  141.4630   74.5290  220.5930 C   0  0  0  0  0  0  0  0  0  0  0  0
  140.1510   75.1190  220.8050 C   0  0  0  0  0  0  0  0  0  0  0  0
  139.6950   75.5280  221.9720 C   0  0  0  0  0  0  0  0  0  0  0  0
  139.8140   76.9350  222.3410 C   0  0  0  0  0  0  0  0  0  0  0  0
  141.0450   77.3770  222.7030 N   0  0  0  0  0  0  0  0  0  0  0  0
  141.2770   78.6430  223.0650 C   0  0  0  0  0  0  0  0  0  0  0  0
  142.5380   79.0810  223.4340 C   0  0  0  0  0  0  0  0  0  0  0  0
  142.7490   80.3970  223.8030 C   0  0  0  0  0  0  0  0  0  0  0  0
  141.6700   81.2630  223.7940 C   0  0  0  0  0  0  0  0  0  0  0  0
  140.4120   80.8290  223.4270 C   0  0  0  0  0  0  0  0  0  0  0  0
  140.2120   79.5090  223.0600 C   0  0  0  0  0  0  0  0  0  0  0  0
  138.9690   79.0330  222.6850 C   0  0  0  0  0  0  0  0  0  0  0  0
  138.0320   79.8700  222.6960 O   0  0  0  0  0  0  0  0  0  0  0  0
  138.7400   77.7790  222.3280 N   0  0  0  0  0  0  0  0  0  0  0  0
  137.4650   77.2210  221.9480 C   0  0  0  0  0  0  0  0  0  0  0  0
  136.6350   76.8330  223.1350 C   0  0  0  0  0  0  0  0  0  0  0  0
  136.3010   75.3550  222.9890 C   0  0  0  0  0  0  0  0  0  0  0  0
  135.4760   74.9780  224.2060 C   0  0  0  0  0  0  0  0  0  0  0  0
  134.1630   75.6930  224.1080 C   0  0  0  0  0  0  0  0  0  0  0  0
  134.4150   77.1800  224.2210 C   0  0  0  0  0  0  0  0  0  0  0  0
  135.3770   77.6600  223.1520 C   0  0  0  0  0  0  0  0  0  0  0  0
  141.7390   73.1900  220.7870 C   0  0  0  0  0  0  0  0  0  0  0  0
  142.9940   72.6590  220.5780 C   0  0  0  0  0  0  0  0  0  0  0  0
  147.0780   74.0790  218.8450 H   0  0  0  0  0  0  0  0  0  0  0  0
  145.6120   74.0760  218.0690 H   0  0  0  0  0  0  0  0  0  0  0  0
  144.6123   75.4372  219.6297 H   0  0  0  0  0  0  0  0  0  0  0  0
  142.3832   76.3819  219.9987 H   0  0  0  0  0  0  0  0  0  0  0  0
  139.4933   75.2318  219.9305 H   0  0  0  0  0  0  0  0  0  0  0  0
  139.2272   74.8126  222.6643 H   0  0  0  0  0  0  0  0  0  0  0  0
  143.3810   78.3743  223.4336 H   0  0  0  0  0  0  0  0  0  0  0  0
  143.7499   80.7466  224.0964 H   0  0  0  0  0  0  0  0  0  0  0  0
  141.8169   82.3139  224.0839 H   0  0  0  0  0  0  0  0  0  0  0  0
  139.5669   81.5331  223.4261 H   0  0  0  0  0  0  0  0  0  0  0  0
  136.9130   77.9691  221.3601 H   0  0  0  0  0  0  0  0  0  0  0  0
  137.6583   76.3107  221.3616 H   0  0  0  0  0  0  0  0  0  0  0  0
  137.1744   77.0082  224.0775 H   0  0  0  0  0  0  0  0  0  0  0  0
  135.7216   75.1853  222.0695 H   0  0  0  0  0  0  0  0  0  0  0  0
  137.2141   74.7452  222.9227 H   0  0  0  0  0  0  0  0  0  0  0  0
  135.3097   73.8908  224.2233 H   0  0  0  0  0  0  0  0  0  0  0  0
  136.0010   75.2631  225.1296 H   0  0  0  0  0  0  0  0  0  0  0  0
  133.6904   75.4695  223.1402 H   0  0  0  0  0  0  0  0  0  0  0  0
  133.4933   75.3624  224.9156 H   0  0  0  0  0  0  0  0  0  0  0  0
  133.4601   77.7145  224.1094 H   0  0  0  0  0  0  0  0  0  0  0  0
  134.8621   77.3819  225.2055 H   0  0  0  0  0  0  0  0  0  0  0  0
  134.8868   77.5864  222.1700 H   0  0  0  0  0  0  0  0  0  0  0  0
  135.6502   78.7021  223.3742 H   0  0  0  0  0  0  0  0  0  0  0  0
  140.9294   72.5239  221.1199 H   0  0  0  0  0  0  0  0  0  0  0  0
  143.1576   71.5846  220.7479 H   0  0  0  0  0  0  0  0  0  0  0  0
  1  2  1  0
  2  3  2  0
  2  4  2  0
  2  5  1  0
  5  6  2  0
  6  7  1  0
  7  8  2  0
  8  9  1  0
  9 10  2  0
 10 11  1  0
 11 12  2  0
 12 13  1  0
 13 14  2  0
 14 15  1  0
 15 16  2  0
 16 17  1  0
 17 18  2  0
 18 19  1  0
 19 20  2  0
 19 21  1  0
 21 22  1  0
 22 23  1  0
 23 24  1  0
 24 25  1  0
 25 26  1  0
 26 27  1  0
 27 28  1  0
  8 29  1  0
 29 30  2  0
 30  5  1  0
 21 11  1  0
 28 23  1  0
 18 13  1  0
  1 31  1  0
  1 32  1  0
  6 33  1  0
  7 34  1  0
  9 35  1  0
 10 36  1  0
 14 37  1  0
 15 38  1  0
 16 39  1  0
 17 40  1  0
 22 41  1  0
 22 42  1  0
 23 43  1  0
 24 44  1  0
 24 45  1  0
 25 46  1  0
 25 47  1  0
 26 48  1  0
 26 49  1  0
 27 50  1  0
 27 51  1  0
 28 52  1  0
 28 53  1  0
 29 54  1  0
 30 55  1  0
M  END
>  <smiles>  (37) 
NS(=O)(=O)c1ccc(/C=C/c2nc3ccccc3c(=O)n2CC2CCCCC2)cc1

>  <score_type>  (37) 
oracle

>  <origin>  (37) 
autodockgpu

>  <m_score__min__energy>  (37) 
-9.2400000000000002

>  <m_primary>  (37) 
energy

>  <rmsd>  (37) 
5.845981485697926

>  <m_score__min__rmsd>  (37) 
5.845981485697926

>  <meeko>  (37) 
{"free_energy": -8.68, "intermolecular_energy": -10.77, "internal_energy": -1.37, "cluster_size": 5, "cluster_id": 4, "rank_in_cluster": 2}

>  <energy>  (37) 
-8.14

>  <cluster_rmsd>  (37) 
1.06

>  <cluster>  (37) 
7

$$$$

     RDKit          3D

 55 58  0  0  0  0  0  0  0  0999 V2000
  146.7420   73.7500  219.9250 N   0  0  0  0  0  0  0  0  0  0  0  0
  145.7210   72.5020  219.3180 S   0  0  0  0  0  0  0  0  0  0  0  0
  145.5110   72.6180  217.8390 O   0  0  0  0  0  0  0  0  0  0  0  0
  146.2530   71.1370  219.6490 O   0  0  0  0  0  0  0  0  0  0  0  0
  144.1550   72.6270  220.0820 C   0  0  0  0  0  0  0  0  0  0  0  0
  143.4800   73.8230  220.1870 C   0  0  0  0  0  0  0  0  0  0  0  0
  142.2460   73.8890  220.7970 C   0  0  0  0  0  0  0  0  0  0  0  0
  141.6170   72.7660  221.3340 C   0  0  0  0  0  0  0  0  0  0  0  0
  140.3130   72.8710  221.9710 C   0  0  0  0  0  0  0  0  0  0  0  0
  139.5020   71.8540  222.1850 C   0  0  0  0  0  0  0  0  0  0  0  0
  139.5990   71.1020  223.4320 C   0  0  0  0  0  0  0  0  0  0  0  0
  140.1860   71.7260  224.4860 N   0  0  0  0  0  0  0  0  0  0  0  0
  140.3350   71.1370  225.6770 C   0  0  0  0  0  0  0  0  0  0  0  0
  140.9360   71.7840  226.7440 C   0  0  0  0  0  0  0  0  0  0  0  0
  141.0760   71.1510  227.9650 C   0  0  0  0  0  0  0  0  0  0  0  0
  140.6020   69.8570  228.0940 C   0  0  0  0  0  0  0  0  0  0  0  0
  140.0030   69.2100  227.0320 C   0  0  0  0  0  0  0  0  0  0  0  0
  139.8680   69.8540  225.8130 C   0  0  0  0  0  0  0  0  0  0  0  0
  139.2730   69.2430  224.7240 C   0  0  0  0  0  0  0  0  0  0  0  0
  138.8620   68.0700  224.9060 O   0  0  0  0  0  0  0  0  0  0  0  0
  139.1270   69.8260  223.5440 N   0  0  0  0  0  0  0  0  0  0  0  0
  138.5360   69.2330  222.3690 C   0  0  0  0  0  0  0  0  0  0  0  0
  139.4830   68.3180  221.6540 C   0  0  0  0  0  0  0  0  0  0  0  0
  139.9590   69.0470  220.4040 C   0  0  0  0  0  0  0  0  0  0  0  0
  140.9270   68.1130  219.7030 C   0  0  0  0  0  0  0  0  0  0  0  0
  140.1470   66.9360  219.2020 C   0  0  0  0  0  0  0  0  0  0  0  0
  139.6170   66.1680  220.3930 C   0  0  0  0  0  0  0  0  0  0  0  0
  138.7620   67.0500  221.2830 C   0  0  0  0  0  0  0  0  0  0  0  0
  142.3150   71.5810  221.2140 C   0  0  0  0  0  0  0  0  0  0  0  0
  143.5500   71.5120  220.6050 C   0  0  0  0  0  0  0  0  0  0  0  0
  146.1080   74.5490  220.1750 H   0  0  0  0  0  0  0  0  0  0  0  0
  147.3120   74.1210  219.1170 H   0  0  0  0  0  0  0  0  0  0  0  0
  143.9323   74.7385  219.7781 H   0  0  0  0  0  0  0  0  0  0  0  0
  141.7387   74.8628  220.8627 H   0  0  0  0  0  0  0  0  0  0  0  0
  139.9810   73.8679  222.2965 H   0  0  0  0  0  0  0  0  0  0  0  0
  138.7556   71.5735  221.4272 H   0  0  0  0  0  0  0  0  0  0  0  0
  141.3058   72.8123  226.6186 H   0  0  0  0  0  0  0  0  0  0  0  0
  141.5527   71.6634  228.8137 H   0  0  0  0  0  0  0  0  0  0  0  0
  140.7042   69.3363  229.0575 H   0  0  0  0  0  0  0  0  0  0  0  0
  139.6323   68.1815  227.1538 H   0  0  0  0  0  0  0  0  0  0  0  0
  137.6490   68.6571  222.6718 H   0  0  0  0  0  0  0  0  0  0  0  0
  138.2709   70.0476  221.6790 H   0  0  0  0  0  0  0  0  0  0  0  0
  140.3417   68.0527  222.2883 H   0  0  0  0  0  0  0  0  0  0  0  0
  139.1057   69.2725  219.7475 H   0  0  0  0  0  0  0  0  0  0  0  0
  140.4421   70.0016  220.6599 H   0  0  0  0  0  0  0  0  0  0  0  0
  141.4034   68.6329  218.8587 H   0  0  0  0  0  0  0  0  0  0  0  0
  141.7145   67.7845  220.3972 H   0  0  0  0  0  0  0  0  0  0  0  0
  139.3078   67.2840  218.5818 H   0  0  0  0  0  0  0  0  0  0  0  0
  140.7938   66.2872  218.5932 H   0  0  0  0  0  0  0  0  0  0  0  0
  139.0086   65.3250  220.0336 H   0  0  0  0  0  0  0  0  0  0  0  0
  140.4733   65.8075  220.9820 H   0  0  0  0  0  0  0  0  0  0  0  0
  137.8361   67.3080  220.7480 H   0  0  0  0  0  0  0  0  0  0  0  0
  138.5374   66.4962  222.2065 H   0  0  0  0  0  0  0  0  0  0  0  0
  141.8703   70.6597  221.6184 H   0  0  0  0  0  0  0  0  0  0  0  0
  144.0621   70.5408  220.5368 H   0  0  0  0  0  0  0  0  0  0  0  0
  1  2  1  0
  2  3  2  0
  2  4  2  0
  2  5  1  0
  5  6  2  0
  6  7  1  0
  7  8  2  0
  8  9  1  0
  9 10  2  0
 10 11  1  0
 11 12  2  0
 12 13  1  0
 13 14  2  0
 14 15  1  0
 15 16  2  0
 16 17  1  0
 17 18  2  0
 18 19  1  0
 19 20  2  0
 19 21  1  0
 21 22  1  0
 22 23  1  0
 23 24  1  0
 24 25  1  0
 25 26  1  0
 26 27  1  0
 27 28  1  0
  8 29  1  0
 29 30  2  0
 30  5  1  0
 21 11  1  0
 28 23  1  0
 18 13  1  0
  1 31  1  0
  1 32  1  0
  6 33  1  0
  7 34  1  0
  9 35  1  0
 10 36  1  0
 14 37  1  0
 15 38  1  0
 16 39  1  0
 17 40  1  0
 22 41  1  0
 22 42  1  0
 23 43  1  0
 24 44  1  0
 24 45  1  0
 25 46  1  0
 25 47  1  0
 26 48  1  0
 26 49  1  0
 27 50  1  0
 27 51  1  0
 28 52  1  0
 28 53  1  0
 29 54  1  0
 30 55  1  0
M  END
>  <smiles>  (38) 
NS(=O)(=O)c1ccc(/C=C/c2nc3ccccc3c(=O)n2CC2CCCCC2)cc1

>  <score_type>  (38) 
oracle

>  <origin>  (38) 
autodockgpu

>  <m_score__min__energy>  (38) 
-9.2400000000000002

>  <m_primary>  (38) 
energy

>  <rmsd>  (38) 
10.794749996253799

>  <m_score__min__rmsd>  (38) 
10.794749996253799

>  <meeko>  (38) 
{"free_energy": -8.92, "intermolecular_energy": -11.01, "internal_energy": -1.7, "cluster_size": 16, "cluster_id": 1, "rank_in_cluster": 5}

>  <energy>  (38) 
-8.26

>  <cluster_rmsd>  (38) 
0.0

>  <cluster>  (38) 
8

$$$$

     RDKit          3D

 55 58  0  0  0  0  0  0  0  0999 V2000
  146.2560   73.0710  221.3700 N   0  0  0  0  0  0  0  0  0  0  0  0
  145.2020   72.5210  220.1220 S   0  0  0  0  0  0  0  0  0  0  0  0
  145.9490   71.8440  219.0140 O   0  0  0  0  0  0  0  0  0  0  0  0
  144.1410   71.6020  220.6550 O   0  0  0  0  0  0  0  0  0  0  0  0
  144.3740   73.8960  219.4330 C   0  0  0  0  0  0  0  0  0  0  0  0
  143.8440   73.8770  218.1620 C   0  0  0  0  0  0  0  0  0  0  0  0
  143.1960   74.9780  217.6470 C   0  0  0  0  0  0  0  0  0  0  0  0
  143.0410   76.1600  218.3710 C   0  0  0  0  0  0  0  0  0  0  0  0
  142.3510   77.3050  217.7970 C   0  0  0  0  0  0  0  0  0  0  0  0
  141.2700   77.8600  218.3080 C   0  0  0  0  0  0  0  0  0  0  0  0
  141.1910   78.1000  219.7440 C   0  0  0  0  0  0  0  0  0  0  0  0
  141.8660   79.1730  220.2300 N   0  0  0  0  0  0  0  0  0  0  0  0
  141.8710   79.4920  221.5290 C   0  0  0  0  0  0  0  0  0  0  0  0
  142.5650   80.5890  222.0110 C   0  0  0  0  0  0  0  0  0  0  0  0
  142.5520   80.8960  223.3590 C   0  0  0  0  0  0  0  0  0  0  0  0
  141.8310   80.0800  224.2120 C   0  0  0  0  0  0  0  0  0  0  0  0
  141.1380   78.9850  223.7340 C   0  0  0  0  0  0  0  0  0  0  0  0
  141.1580   78.6880  222.3820 C   0  0  0  0  0  0  0  0  0  0  0  0
  140.4790   77.6020  221.8610 C   0  0  0  0  0  0  0  0  0  0  0  0
  139.8410   76.9020  222.6870 O   0  0  0  0  0  0  0  0  0  0  0  0
  140.4750   77.2860  220.5750 N   0  0  0  0  0  0  0  0  0  0  0  0
  139.8040   76.1570  219.9780 C   0  0  0  0  0  0  0  0  0  0  0  0
  140.6180   74.9010  220.0590 C   0  0  0  0  0  0  0  0  0  0  0  0
  140.0060   73.9020  219.0860 C   0  0  0  0  0  0  0  0  0  0  0  0
  140.8520   72.6460  219.1700 C   0  0  0  0  0  0  0  0  0  0  0  0
  140.6510   72.0490  220.5300 C   0  0  0  0  0  0  0  0  0  0  0  0
  141.2160   73.0000  221.5620 C   0  0  0  0  0  0  0  0  0  0  0  0
  140.5670   74.3670  221.4650 C   0  0  0  0  0  0  0  0  0  0  0  0
  143.5790   76.1520  219.6420 C   0  0  0  0  0  0  0  0  0  0  0  0
  144.2290   75.0520  220.1600 C   0  0  0  0  0  0  0  0  0  0  0  0
  146.5110   72.2200  221.9310 H   0  0  0  0  0  0  0  0  0  0  0  0
  145.6840   73.6540  222.0400 H   0  0  0  0  0  0  0  0  0  0  0  0
  143.9396   72.9688  217.5488 H   0  0  0  0  0  0  0  0  0  0  0  0
  142.7859   74.9230  216.6278 H   0  0  0  0  0  0  0  0  0  0  0  0
  142.7599   77.7378  216.8721 H   0  0  0  0  0  0  0  0  0  0  0  0
  140.4313   78.1408  217.6540 H   0  0  0  0  0  0  0  0  0  0  0  0
  143.1327   81.2229  221.3140 H   0  0  0  0  0  0  0  0  0  0  0  0
  143.1015   81.7678  223.7437 H   0  0  0  0  0  0  0  0  0  0  0  0
  141.8092   80.3068  225.2882 H   0  0  0  0  0  0  0  0  0  0  0  0
  140.5697   78.3484  224.4281 H   0  0  0  0  0  0  0  0  0  0  0  0
  138.8507   75.9947  220.5024 H   0  0  0  0  0  0  0  0  0  0  0  0
  139.6445   76.3856  218.9139 H   0  0  0  0  0  0  0  0  0  0  0  0
  141.6706   75.0869  219.7994 H   0  0  0  0  0  0  0  0  0  0  0  0
  138.9672   73.6804  219.3720 H   0  0  0  0  0  0  0  0  0  0  0  0
  139.9896   74.3030  218.0618 H   0  0  0  0  0  0  0  0  0  0  0  0
  140.5369   71.9300  218.3966 H   0  0  0  0  0  0  0  0  0  0  0  0
  141.9133   72.8858  219.0084 H   0  0  0  0  0  0  0  0  0  0  0  0
  139.5770   71.8981  220.7136 H   0  0  0  0  0  0  0  0  0  0  0  0
  141.1629   71.0774  220.5937 H   0  0  0  0  0  0  0  0  0  0  0  0
  141.0355   72.5880  222.5658 H   0  0  0  0  0  0  0  0  0  0  0  0
  142.2942   73.1135  221.3762 H   0  0  0  0  0  0  0  0  0  0  0  0
  139.5160   74.2872  221.7795 H   0  0  0  0  0  0  0  0  0  0  0  0
  141.1187   75.0591  222.1182 H   0  0  0  0  0  0  0  0  0  0  0  0
  143.4859   77.0549  220.2634 H   0  0  0  0  0  0  0  0  0  0  0  0
  144.6408   75.1015  221.1788 H   0  0  0  0  0  0  0  0  0  0  0  0
  1  2  1  0
  2  3  2  0
  2  4  2  0
  2  5  1  0
  5  6  2  0
  6  7  1  0
  7  8  2  0
  8  9  1  0
  9 10  2  0
 10 11  1  0
 11 12  2  0
 12 13  1  0
 13 14  2  0
 14 15  1  0
 15 16  2  0
 16 17  1  0
 17 18  2  0
 18 19  1  0
 19 20  2  0
 19 21  1  0
 21 22  1  0
 22 23  1  0
 23 24  1  0
 24 25  1  0
 25 26  1  0
 26 27  1  0
 27 28  1  0
  8 29  1  0
 29 30  2  0
 30  5  1  0
 21 11  1  0
 28 23  1  0
 18 13  1  0
  1 31  1  0
  1 32  1  0
  6 33  1  0
  7 34  1  0
  9 35  1  0
 10 36  1  0
 14 37  1  0
 15 38  1  0
 16 39  1  0
 17 40  1  0
 22 41  1  0
 22 42  1  0
 23 43  1  0
 24 44  1  0
 24 45  1  0
 25 46  1  0
 25 47  1  0
 26 48  1  0
 26 49  1  0
 27 50  1  0
 27 51  1  0
 28 52  1  0
 28 53  1  0
 29 54  1  0
 30 55  1  0
M  END
>  <smiles>  (39) 
NS(=O)(=O)c1ccc(/C=C/c2nc3ccccc3c(=O)n2CC2CCCCC2)cc1

>  <score_type>  (39) 
oracle

>  <origin>  (39) 
autodockgpu

>  <m_score__min__energy>  (39) 
-9.2400000000000002

>  <m_primary>  (39) 
energy

>  <rmsd>  (39) 
3.9807968562619642

>  <m_score__min__rmsd>  (39) 
3.9807968562619642

>  <meeko>  (39) 
{"free_energy": -7.28, "intermolecular_energy": -9.37, "internal_energy": -2.66, "cluster_size": 5, "cluster_id": 10, "rank_in_cluster": 4}

>  <energy>  (39) 
-8.25

>  <cluster_rmsd>  (39) 
0.84

>  <cluster>  (39) 
8

$$$$

     RDKit          3D

 55 58  0  0  0  0  0  0  0  0999 V2000
  144.2630   71.6580  220.9220 N   0  0  0  0  0  0  0  0  0  0  0  0
  145.3480   72.8750  220.3660 S   0  0  0  0  0  0  0  0  0  0  0  0
  146.1170   73.4980  221.4920 O   0  0  0  0  0  0  0  0  0  0  0  0
  146.3010   72.3430  219.3350 O   0  0  0  0  0  0  0  0  0  0  0  0
  144.4300   74.1430  219.5920 C   0  0  0  0  0  0  0  0  0  0  0  0
  143.8140   73.9690  218.3730 C   0  0  0  0  0  0  0  0  0  0  0  0
  143.0970   74.9900  217.7880 C   0  0  0  0  0  0  0  0  0  0  0  0
  142.9540   76.2410  218.3870 C   0  0  0  0  0  0  0  0  0  0  0  0
  142.1900   77.2970  217.7420 C   0  0  0  0  0  0  0  0  0  0  0  0
  141.1730   77.9280  218.2940 C   0  0  0  0  0  0  0  0  0  0  0  0
  141.1530   78.1420  219.7370 C   0  0  0  0  0  0  0  0  0  0  0  0
  141.8340   79.2150  220.2130 N   0  0  0  0  0  0  0  0  0  0  0  0
  141.8910   79.5100  221.5160 C   0  0  0  0  0  0  0  0  0  0  0  0
  142.5900   80.6090  221.9890 C   0  0  0  0  0  0  0  0  0  0  0  0
  142.6320   80.8910  223.3420 C   0  0  0  0  0  0  0  0  0  0  0  0
  141.9580   80.0490  224.2100 C   0  0  0  0  0  0  0  0  0  0  0  0
  141.2610   78.9540  223.7410 C   0  0  0  0  0  0  0  0  0  0  0  0
  141.2260   78.6810  222.3840 C   0  0  0  0  0  0  0  0  0  0  0  0
  140.5390   77.5960  221.8730 C   0  0  0  0  0  0  0  0  0  0  0  0
  139.9460   76.8720  222.7120 O   0  0  0  0  0  0  0  0  0  0  0  0
  140.4840   77.3030  220.5820 N   0  0  0  0  0  0  0  0  0  0  0  0
  139.8020   76.1760  219.9930 C   0  0  0  0  0  0  0  0  0  0  0  0
  140.6020   74.9110  220.0920 C   0  0  0  0  0  0  0  0  0  0  0  0
  139.9880   73.9120  219.1200 C   0  0  0  0  0  0  0  0  0  0  0  0
  140.8190   72.6470  219.2230 C   0  0  0  0  0  0  0  0  0  0  0  0
  140.5970   72.0620  220.5850 C   0  0  0  0  0  0  0  0  0  0  0  0
  141.1620   73.0150  221.6150 C   0  0  0  0  0  0  0  0  0  0  0  0
  140.5300   74.3890  221.5020 C   0  0  0  0  0  0  0  0  0  0  0  0
  143.5800   76.3880  219.6080 C   0  0  0  0  0  0  0  0  0  0  0  0
  144.2990   75.3690  220.1960 C   0  0  0  0  0  0  0  0  0  0  0  0
  144.4790   71.5170  221.9400 H   0  0  0  0  0  0  0  0  0  0  0  0
  144.5480   70.7440  220.4740 H   0  0  0  0  0  0  0  0  0  0  0  0
  143.8955   73.0003  217.8583 H   0  0  0  0  0  0  0  0  0  0  0  0
  142.6201   74.8116  216.8129 H   0  0  0  0  0  0  0  0  0  0  0  0
  142.4812   77.5895  216.7224 H   0  0  0  0  0  0  0  0  0  0  0  0
  140.3434   78.2915  217.6698 H   0  0  0  0  0  0  0  0  0  0  0  0
  143.1173   81.2644  221.2802 H   0  0  0  0  0  0  0  0  0  0  0  0
  143.1871   81.7625  223.7192 H   0  0  0  0  0  0  0  0  0  0  0  0
  141.9783   80.2559  225.2902 H   0  0  0  0  0  0  0  0  0  0  0  0
  140.7321   78.2967  224.4468 H   0  0  0  0  0  0  0  0  0  0  0  0
  138.8442   76.0305  220.5140 H   0  0  0  0  0  0  0  0  0  0  0  0
  139.6497   76.3951  218.9258 H   0  0  0  0  0  0  0  0  0  0  0  0
  141.6595   75.0822  219.8422 H   0  0  0  0  0  0  0  0  0  0  0  0
  138.9438   73.7047  219.3968 H   0  0  0  0  0  0  0  0  0  0  0  0
  139.9863   74.3051  218.0926 H   0  0  0  0  0  0  0  0  0  0  0  0
  140.5043   71.9288  218.4515 H   0  0  0  0  0  0  0  0  0  0  0  0
  141.8846   72.8742  219.0717 H   0  0  0  0  0  0  0  0  0  0  0  0
  139.5195   71.9244  220.7585 H   0  0  0  0  0  0  0  0  0  0  0  0
  141.0967   71.0851  220.6615 H   0  0  0  0  0  0  0  0  0  0  0  0
  140.9669   72.6127  222.6201 H   0  0  0  0  0  0  0  0  0  0  0  0
  142.2431   73.1152  221.4382 H   0  0  0  0  0  0  0  0  0  0  0  0
  139.4749   74.3240  221.8064 H   0  0  0  0  0  0  0  0  0  0  0  0
  141.0825   75.0796  222.1561 H   0  0  0  0  0  0  0  0  0  0  0  0
  143.5026   77.3527  220.1309 H   0  0  0  0  0  0  0  0  0  0  0  0
  144.7784   75.5422  221.1708 H   0  0  0  0  0  0  0  0  0  0  0  0
  1  2  1  0
  2  3  2  0
  2  4  2  0
  2  5  1  0
  5  6  2  0
  6  7  1  0
  7  8  2  0
  8  9  1  0
  9 10  2  0
 10 11  1  0
 11 12  2  0
 12 13  1  0
 13 14  2  0
 14 15  1  0
 15 16  2  0
 16 17  1  0
 17 18  2  0
 18 19  1  0
 19 20  2  0
 19 21  1  0
 21 22  1  0
 22 23  1  0
 23 24  1  0
 24 25  1  0
 25 26  1  0
 26 27  1  0
 27 28  1  0
  8 29  1  0
 29 30  2  0
 30  5  1  0
 21 11  1  0
 28 23  1  0
 18 13  1  0
  1 31  1  0
  1 32  1  0
  6 33  1  0
  7 34  1  0
  9 35  1  0
 10 36  1  0
 14 37  1  0
 15 38  1  0
 16 39  1  0
 17 40  1  0
 22 41  1  0
 22 42  1  0
 23 43  1  0
 24 44  1  0
 24 45  1  0
 25 46  1  0
 25 47  1  0
 26 48  1  0
 26 49  1  0
 27 50  1  0
 27 51  1  0
 28 52  1  0
 28 53  1  0
 29 54  1  0
 30 55  1  0
M  END
>  <smiles>  (40) 
NS(=O)(=O)c1ccc(/C=C/c2nc3ccccc3c(=O)n2CC2CCCCC2)cc1

>  <score_type>  (40) 
oracle

>  <origin>  (40) 
autodockgpu

>  <m_score__min__energy>  (40) 
-9.2400000000000002

>  <m_primary>  (40) 
energy

>  <rmsd>  (40) 
3.993038208584746

>  <m_score__min__rmsd>  (40) 
3.993038208584746

>  <meeko>  (40) 
{"free_energy": -7.42, "intermolecular_energy": -9.51, "internal_energy": -2.59, "cluster_size": 5, "cluster_id": 10, "rank_in_cluster": 2}

>  <energy>  (40) 
-7.83

>  <cluster_rmsd>  (40) 
0.0

>  <cluster>  (40) 
9

$$$$

     RDKit          3D

 55 58  0  0  0  0  0  0  0  0999 V2000
  146.6880   73.7420  219.6990 N   0  0  0  0  0  0  0  0  0  0  0  0
  145.4240   72.9790  218.8110 S   0  0  0  0  0  0  0  0  0  0  0  0
  145.0520   73.7550  217.5840 O   0  0  0  0  0  0  0  0  0  0  0  0
  145.7830   71.5710  218.4320 O   0  0  0  0  0  0  0  0  0  0  0  0
  144.0020   72.8790  219.8210 C   0  0  0  0  0  0  0  0  0  0  0  0
  143.5920   71.7000  220.4020 C   0  0  0  0  0  0  0  0  0  0  0  0
  142.4650   71.6540  221.1930 C   0  0  0  0  0  0  0  0  0  0  0  0
  141.6850   72.7810  221.4490 C   0  0  0  0  0  0  0  0  0  0  0  0
  140.5010   72.6980  222.2890 C   0  0  0  0  0  0  0  0  0  0  0  0
  139.7680   71.6130  222.4430 C   0  0  0  0  0  0  0  0  0  0  0  0
  139.8530   70.8530  223.6850 C   0  0  0  0  0  0  0  0  0  0  0  0
  140.3650   71.4930  224.7670 N   0  0  0  0  0  0  0  0  0  0  0  0
  140.4960   70.8990  225.9580 C   0  0  0  0  0  0  0  0  0  0  0  0
  141.0210   71.5630  227.0550 C   0  0  0  0  0  0  0  0  0  0  0  0
  141.1440   70.9240  228.2750 C   0  0  0  0  0  0  0  0  0  0  0  0
  140.7320   69.6080  228.3720 C   0  0  0  0  0  0  0  0  0  0  0  0
  140.2080   68.9430  227.2810 C   0  0  0  0  0  0  0  0  0  0  0  0
  140.0890   69.5930  226.0640 C   0  0  0  0  0  0  0  0  0  0  0  0
  139.5700   68.9650  224.9460 C   0  0  0  0  0  0  0  0  0  0  0  0
  139.2110   67.7710  225.1010 O   0  0  0  0  0  0  0  0  0  0  0  0
  139.4420   69.5530  223.7670 N   0  0  0  0  0  0  0  0  0  0  0  0
  138.9280   68.9450  222.5630 C   0  0  0  0  0  0  0  0  0  0  0  0
  137.4360   69.0500  222.4630 C   0  0  0  0  0  0  0  0  0  0  0  0
  137.1280   70.0320  221.3400 C   0  0  0  0  0  0  0  0  0  0  0  0
  135.6160   70.1130  221.2430 C   0  0  0  0  0  0  0  0  0  0  0  0
  135.1120   70.7690  222.4930 C   0  0  0  0  0  0  0  0  0  0  0  0
  135.4050   69.8600  223.6660 C   0  0  0  0  0  0  0  0  0  0  0  0
  136.8870   69.5540  223.7700 C   0  0  0  0  0  0  0  0  0  0  0  0
  142.1200   73.9500  220.8560 C   0  0  0  0  0  0  0  0  0  0  0  0
  143.2460   73.9990  220.0630 C   0  0  0  0  0  0  0  0  0  0  0  0
  146.2560   74.5830  220.1570 H   0  0  0  0  0  0  0  0  0  0  0  0
  147.3680   74.1540  219.0020 H   0  0  0  0  0  0  0  0  0  0  0  0
  144.1728   70.7814  220.2321 H   0  0  0  0  0  0  0  0  0  0  0  0
  142.1696   70.6928  221.6390 H   0  0  0  0  0  0  0  0  0  0  0  0
  140.1956   73.6035  222.8339 H   0  0  0  0  0  0  0  0  0  0  0  0
  139.0951   71.2823  221.6381 H   0  0  0  0  0  0  0  0  0  0  0  0
  141.3434   72.6098  226.9542 H   0  0  0  0  0  0  0  0  0  0  0  0
  141.5596   71.4500  229.1471 H   0  0  0  0  0  0  0  0  0  0  0  0
  140.8230   69.0820  229.3338 H   0  0  0  0  0  0  0  0  0  0  0  0
  139.8848   67.8961  227.3788 H   0  0  0  0  0  0  0  0  0  0  0  0
  139.3768   69.4479  221.6937 H   0  0  0  0  0  0  0  0  0  0  0  0
  139.1885   67.8766  222.5887 H   0  0  0  0  0  0  0  0  0  0  0  0
  136.9763   68.0736  222.2503 H   0  0  0  0  0  0  0  0  0  0  0  0
  137.5475   71.0215  221.5744 H   0  0  0  0  0  0  0  0  0  0  0  0
  137.5710   69.7013  220.3890 H   0  0  0  0  0  0  0  0  0  0  0  0
  135.3287   70.7100  220.3649 H   0  0  0  0  0  0  0  0  0  0  0  0
  135.1831   69.1075  221.1350 H   0  0  0  0  0  0  0  0  0  0  0  0
  135.6201   71.7341  222.6359 H   0  0  0  0  0  0  0  0  0  0  0  0
  134.0290   70.9450  222.4149 H   0  0  0  0  0  0  0  0  0  0  0  0
  135.0751   70.3530  224.5924 H   0  0  0  0  0  0  0  0  0  0  0  0
  134.8651   68.9136  223.5149 H   0  0  0  0  0  0  0  0  0  0  0  0
  137.4230   70.4718  224.0533 H   0  0  0  0  0  0  0  0  0  0  0  0
  137.0265   68.7706  224.5295 H   0  0  0  0  0  0  0  0  0  0  0  0
  141.5476   74.8744  221.0225 H   0  0  0  0  0  0  0  0  0  0  0  0
  143.5458   74.9573  219.6138 H   0  0  0  0  0  0  0  0  0  0  0  0
  1  2  1  0
  2  3  2  0
  2  4  2  0
  2  5  1  0
  5  6  2  0
  6  7  1  0
  7  8  2  0
  8  9  1  0
  9 10  2  0
 10 11  1  0
 11 12  2  0
 12 13  1  0
 13 14  2  0
 14 15  1  0
 15 16  2  0
 16 17  1  0
 17 18  2  0
 18 19  1  0
 19 20  2  0
 19 21  1  0
 21 22  1  0
 22 23  1  0
 23 24  1  0
 24 25  1  0
 25 26  1  0
 26 27  1  0
 27 28  1  0
  8 29  1  0
 29 30  2  0
 30  5  1  0
 21 11  1  0
 28 23  1  0
 18 13  1  0
  1 31  1  0
  1 32  1  0
  6 33  1  0
  7 34  1  0
  9 35  1  0
 10 36  1  0
 14 37  1  0
 15 38  1  0
 16 39  1  0
 17 40  1  0
 22 41  1  0
 22 42  1  0
 23 43  1  0
 24 44  1  0
 24 45  1  0
 25 46  1  0
 25 47  1  0
 26 48  1  0
 26 49  1  0
 27 50  1  0
 27 51  1  0
 28 52  1  0
 28 53  1  0
 29 54  1  0
 30 55  1  0
M  END
>  <smiles>  (41) 
NS(=O)(=O)c1ccc(/C=C/c2nc3ccccc3c(=O)n2CC2CCCCC2)cc1

>  <score_type>  (41) 
oracle

>  <origin>  (41) 
autodockgpu

>  <m_score__min__energy>  (41) 
-9.2400000000000002

>  <m_primary>  (41) 
energy

>  <rmsd>  (41) 
10.957338772435913

>  <m_score__min__rmsd>  (41) 
10.957338772435913

>  <meeko>  (41) 
{"free_energy": -8.66, "intermolecular_energy": -10.75, "internal_energy": -1.39, "cluster_size": 16, "cluster_id": 1, "rank_in_cluster": 8}

>  <energy>  (41) 
-7.83

>  <cluster_rmsd>  (41) 
0.08

>  <cluster>  (41) 
9

$$$$

     RDKit          3D

 55 58  0  0  0  0  0  0  0  0999 V2000
  144.4150   71.9210  221.0800 N   0  0  0  0  0  0  0  0  0  0  0  0
  145.3620   72.9670  220.0920 S   0  0  0  0  0  0  0  0  0  0  0  0
  146.4540   73.6370  220.8700 O   0  0  0  0  0  0  0  0  0  0  0  0
  145.9490   72.2420  218.9160 O   0  0  0  0  0  0  0  0  0  0  0  0
  144.3330   74.2210  219.4450 C   0  0  0  0  0  0  0  0  0  0  0  0
  144.1450   75.4260  220.0860 C   0  0  0  0  0  0  0  0  0  0  0  0
  143.3260   76.3950  219.5490 C   0  0  0  0  0  0  0  0  0  0  0  0
  142.6500   76.2170  218.3420 C   0  0  0  0  0  0  0  0  0  0  0  0
  141.7920   77.2610  217.8030 C   0  0  0  0  0  0  0  0  0  0  0  0
  140.7920   77.8180  218.4560 C   0  0  0  0  0  0  0  0  0  0  0  0
  140.9080   78.0530  219.8910 C   0  0  0  0  0  0  0  0  0  0  0  0
  141.6380   79.1280  220.2850 N   0  0  0  0  0  0  0  0  0  0  0  0
  141.8180   79.4420  221.5720 C   0  0  0  0  0  0  0  0  0  0  0  0
  142.5660   80.5420  221.9600 C   0  0  0  0  0  0  0  0  0  0  0  0
  142.7350   80.8440  223.2990 C   0  0  0  0  0  0  0  0  0  0  0  0
  142.1390   80.0210  224.2380 C   0  0  0  0  0  0  0  0  0  0  0  0
  141.3930   78.9250  223.8550 C   0  0  0  0  0  0  0  0  0  0  0  0
  141.2300   78.6320  222.5110 C   0  0  0  0  0  0  0  0  0  0  0  0
  140.4910   77.5450  222.0830 C   0  0  0  0  0  0  0  0  0  0  0  0
  139.9740   76.8390  222.9850 O   0  0  0  0  0  0  0  0  0  0  0  0
  140.3150   77.2330  220.8080 N   0  0  0  0  0  0  0  0  0  0  0  0
  139.5730   76.1030  220.3030 C   0  0  0  0  0  0  0  0  0  0  0  0
  140.4180   74.8690  220.1940 C   0  0  0  0  0  0  0  0  0  0  0  0
  139.6620   73.8790  219.3180 C   0  0  0  0  0  0  0  0  0  0  0  0
  140.5380   72.6460  219.2070 C   0  0  0  0  0  0  0  0  0  0  0  0
  140.6040   72.0070  220.5610 C   0  0  0  0  0  0  0  0  0  0  0  0
  141.3260   72.9470  221.5010 C   0  0  0  0  0  0  0  0  0  0  0  0
  140.6390   74.2970  221.5690 C   0  0  0  0  0  0  0  0  0  0  0  0
  142.8570   75.0020  217.7200 C   0  0  0  0  0  0  0  0  0  0  0  0
  143.6750   74.0300  218.2550 C   0  0  0  0  0  0  0  0  0  0  0  0
  144.8920   71.8910  222.0150 H   0  0  0  0  0  0  0  0  0  0  0  0
  144.5260   70.9380  220.7070 H   0  0  0  0  0  0  0  0  0  0  0  0
  144.6565   75.6173  221.0409 H   0  0  0  0  0  0  0  0  0  0  0  0
  143.2007   77.3435  220.0918 H   0  0  0  0  0  0  0  0  0  0  0  0
  141.9919   77.6097  216.7791 H   0  0  0  0  0  0  0  0  0  0  0  0
  139.8742   78.1044  217.9215 H   0  0  0  0  0  0  0  0  0  0  0  0
  143.0302   81.1817  221.1950 H   0  0  0  0  0  0  0  0  0  0  0  0
  143.3284   81.7166  223.6096 H   0  0  0  0  0  0  0  0  0  0  0  0
  142.2619   80.2441  225.3081 H   0  0  0  0  0  0  0  0  0  0  0  0
  140.9274   78.2835  224.6177 H   0  0  0  0  0  0  0  0  0  0  0  0
  138.7340   75.8980  220.9842 H   0  0  0  0  0  0  0  0  0  0  0  0
  139.2183   76.3578  219.2934 H   0  0  0  0  0  0  0  0  0  0  0  0
  141.4004   75.0918  219.7521 H   0  0  0  0  0  0  0  0  0  0  0  0
  138.6985   73.6202  219.7814 H   0  0  0  0  0  0  0  0  0  0  0  0
  139.4493   74.3064  218.3270 H   0  0  0  0  0  0  0  0  0  0  0  0
  140.1032   71.9422  218.4820 H   0  0  0  0  0  0  0  0  0  0  0  0
  141.5459   72.9207  218.8624 H   0  0  0  0  0  0  0  0  0  0  0  0
  139.5859   71.8200  220.9330 H   0  0  0  0  0  0  0  0  0  0  0  0
  141.1413   71.0491  220.4998 H   0  0  0  0  0  0  0  0  0  0  0  0
  141.3434   72.5032  222.5074 H   0  0  0  0  0  0  0  0  0  0  0  0
  142.3480   73.0973  221.1229 H   0  0  0  0  0  0  0  0  0  0  0  0
  139.6661   74.1790  222.0685 H   0  0  0  0  0  0  0  0  0  0  0  0
  141.2848   74.9869  222.1320 H   0  0  0  0  0  0  0  0  0  0  0  0
  142.3513   74.8025  216.7637 H   0  0  0  0  0  0  0  0  0  0  0  0
  143.8036   73.0796  217.7163 H   0  0  0  0  0  0  0  0  0  0  0  0
  1  2  1  0
  2  3  2  0
  2  4  2  0
  2  5  1  0
  5  6  2  0
  6  7  1  0
  7  8  2  0
  8  9  1  0
  9 10  2  0
 10 11  1  0
 11 12  2  0
 12 13  1  0
 13 14  2  0
 14 15  1  0
 15 16  2  0
 16 17  1  0
 17 18  2  0
 18 19  1  0
 19 20  2  0
 19 21  1  0
 21 22  1  0
 22 23  1  0
 23 24  1  0
 24 25  1  0
 25 26  1  0
 26 27  1  0
 27 28  1  0
  8 29  1  0
 29 30  2  0
 30  5  1  0
 21 11  1  0
 28 23  1  0
 18 13  1  0
  1 31  1  0
  1 32  1  0
  6 33  1  0
  7 34  1  0
  9 35  1  0
 10 36  1  0
 14 37  1  0
 15 38  1  0
 16 39  1  0
 17 40  1  0
 22 41  1  0
 22 42  1  0
 23 43  1  0
 24 44  1  0
 24 45  1  0
 25 46  1  0
 25 47  1  0
 26 48  1  0
 26 49  1  0
 27 50  1  0
 27 51  1  0
 28 52  1  0
 28 53  1  0
 29 54  1  0
 30 55  1  0
M  END
>  <smiles>  (42) 
NS(=O)(=O)c1ccc(/C=C/c2nc3ccccc3c(=O)n2CC2CCCCC2)cc1

>  <score_type>  (42) 
oracle

>  <origin>  (42) 
autodockgpu

>  <m_score__min__energy>  (42) 
-9.2400000000000002

>  <m_primary>  (42) 
energy

>  <rmsd>  (42) 
4.059521222151052

>  <m_score__min__rmsd>  (42) 
4.059521222151052

>  <meeko>  (42) 
{"free_energy": -7.36, "intermolecular_energy": -9.45, "internal_energy": -2.61, "cluster_size": 5, "cluster_id": 10, "rank_in_cluster": 3}

>  <energy>  (42) 
-7.39

>  <cluster_rmsd>  (42) 
0.53

>  <cluster>  (42) 
9

$$$$

     RDKit          3D

 55 58  0  0  0  0  0  0  0  0999 V2000
  141.3310   67.8320  226.8130 N   0  0  0  0  0  0  0  0  0  0  0  0
  139.7480   68.4630  226.5580 S   0  0  0  0  0  0  0  0  0  0  0  0
  138.7870   67.4040  226.1120 O   0  0  0  0  0  0  0  0  0  0  0  0
  139.2170   69.1450  227.7860 O   0  0  0  0  0  0  0  0  0  0  0  0
  139.8160   69.6740  225.3020 C   0  0  0  0  0  0  0  0  0  0  0  0
  140.7230   70.7100  225.3240 C   0  0  0  0  0  0  0  0  0  0  0  0
  140.7500   71.6500  224.3180 C   0  0  0  0  0  0  0  0  0  0  0  0
  139.8750   71.6100  223.2330 C   0  0  0  0  0  0  0  0  0  0  0  0
  139.9310   72.6190  222.1870 C   0  0  0  0  0  0  0  0  0  0  0  0
  141.0360   73.0140  221.5870 C   0  0  0  0  0  0  0  0  0  0  0  0
  141.1950   74.4160  221.2150 C   0  0  0  0  0  0  0  0  0  0  0  0
  140.6940   75.3430  222.0710 N   0  0  0  0  0  0  0  0  0  0  0  0
  140.7750   76.6570  221.8350 C   0  0  0  0  0  0  0  0  0  0  0  0
  140.2590   77.5930  222.7160 C   0  0  0  0  0  0  0  0  0  0  0  0
  140.3590   78.9450  222.4480 C   0  0  0  0  0  0  0  0  0  0  0  0
  140.9860   79.3390  221.2800 C   0  0  0  0  0  0  0  0  0  0  0  0
  141.5020   78.4090  220.4000 C   0  0  0  0  0  0  0  0  0  0  0  0
  141.3970   77.0570  220.6790 C   0  0  0  0  0  0  0  0  0  0  0  0
  141.9000   76.0910  219.8260 C   0  0  0  0  0  0  0  0  0  0  0  0
  142.4600   76.5140  218.7840 O   0  0  0  0  0  0  0  0  0  0  0  0
  141.8170   74.7900  220.0590 N   0  0  0  0  0  0  0  0  0  0  0  0
  142.3040   73.7390  219.1980 C   0  0  0  0  0  0  0  0  0  0  0  0
  143.7870   73.5530  219.3080 C   0  0  0  0  0  0  0  0  0  0  0  0
  144.0350   72.0930  219.6620 C   0  0  0  0  0  0  0  0  0  0  0  0
  145.5400   71.9220  219.7520 C   0  0  0  0  0  0  0  0  0  0  0  0
  146.0190   72.7030  220.9370 C   0  0  0  0  0  0  0  0  0  0  0  0
  145.7840   74.1740  220.6710 C   0  0  0  0  0  0  0  0  0  0  0  0
  144.3210   74.4560  220.3880 C   0  0  0  0  0  0  0  0  0  0  0  0
  138.9770   70.5610  223.2340 C   0  0  0  0  0  0  0  0  0  0  0  0
  138.9470   69.6190  224.2400 C   0  0  0  0  0  0  0  0  0  0  0  0
  141.6180   67.3900  225.9050 H   0  0  0  0  0  0  0  0  0  0  0  0
  141.2490   67.0150  227.4790 H   0  0  0  0  0  0  0  0  0  0  0  0
  141.4365   70.7878  226.1576 H   0  0  0  0  0  0  0  0  0  0  0  0
  141.4893   72.4627  224.3723 H   0  0  0  0  0  0  0  0  0  0  0  0
  138.9848   73.0851  221.8748 H   0  0  0  0  0  0  0  0  0  0  0  0
  141.8347   72.2901  221.3677 H   0  0  0  0  0  0  0  0  0  0  0  0
  139.7642   77.2565  223.6390 H   0  0  0  0  0  0  0  0  0  0  0  0
  139.9499   79.6896  223.1467 H   0  0  0  0  0  0  0  0  0  0  0  0
  141.0749   80.4107  221.0485 H   0  0  0  0  0  0  0  0  0  0  0  0
  141.9971   78.7425  219.4761 H   0  0  0  0  0  0  0  0  0  0  0  0
  141.8081   72.7970  219.4749 H   0  0  0  0  0  0  0  0  0  0  0  0
  142.0772   74.0232  218.1598 H   0  0  0  0  0  0  0  0  0  0  0  0
  144.2946   73.8058  218.3654 H   0  0  0  0  0  0  0  0  0  0  0  0
  143.5665   71.8510  220.6274 H   0  0  0  0  0  0  0  0  0  0  0  0
  143.6025   71.4211  218.9061 H   0  0  0  0  0  0  0  0  0  0  0  0
  145.7888   70.8581  219.8795 H   0  0  0  0  0  0  0  0  0  0  0  0
  146.0236   72.2833  218.8324 H   0  0  0  0  0  0  0  0  0  0  0  0
  145.4620   72.3948  221.8340 H   0  0  0  0  0  0  0  0  0  0  0  0
  147.0905   72.5169  221.1023 H   0  0  0  0  0  0  0  0  0  0  0  0
  146.0962   74.7520  221.5533 H   0  0  0  0  0  0  0  0  0  0  0  0
  146.3709   74.4651  219.7874 H   0  0  0  0  0  0  0  0  0  0  0  0
  143.7408   74.2950  221.3086 H   0  0  0  0  0  0  0  0  0  0  0  0
  144.2288   75.4974  220.0459 H   0  0  0  0  0  0  0  0  0  0  0  0
  138.2610   70.4740  222.4035 H   0  0  0  0  0  0  0  0  0  0  0  0
  138.2097   68.8041  224.1910 H   0  0  0  0  0  0  0  0  0  0  0  0
  1  2  1  0
  2  3  2  0
  2  4  2  0
  2  5  1  0
  5  6  2  0
  6  7  1  0
  7  8  2  0
  8  9  1  0
  9 10  2  0
 10 11  1  0
 11 12  2  0
 12 13  1  0
 13 14  2  0
 14 15  1  0
 15 16  2  0
 16 17  1  0
 17 18  2  0
 18 19  1  0
 19 20  2  0
 19 21  1  0
 21 22  1  0
 22 23  1  0
 23 24  1  0
 24 25  1  0
 25 26  1  0
 26 27  1  0
 27 28  1  0
  8 29  1  0
 29 30  2  0
 30  5  1  0
 21 11  1  0
 28 23  1  0
 18 13  1  0
  1 31  1  0
  1 32  1  0
  6 33  1  0
  7 34  1  0
  9 35  1  0
 10 36  1  0
 14 37  1  0
 15 38  1  0
 16 39  1  0
 17 40  1  0
 22 41  1  0
 22 42  1  0
 23 43  1  0
 24 44  1  0
 24 45  1  0
 25 46  1  0
 25 47  1  0
 26 48  1  0
 26 49  1  0
 27 50  1  0
 27 51  1  0
 28 52  1  0
 28 53  1  0
 29 54  1  0
 30 55  1  0
M  END
>  <smiles>  (43) 
NS(=O)(=O)c1ccc(/C=C/c2nc3ccccc3c(=O)n2CC2CCCCC2)cc1

>  <score_type>  (43) 
oracle

>  <origin>  (43) 
autodockgpu

>  <m_score__min__energy>  (43) 
-9.2400000000000002

>  <m_primary>  (43) 
energy

>  <rmsd>  (43) 
5.582895309634879

>  <m_score__min__rmsd>  (43) 
5.582895309634879

>  <meeko>  (43) 
{"free_energy": -8.76, "intermolecular_energy": -10.85, "internal_energy": -1.28, "cluster_size": 8, "cluster_id": 2, "rank_in_cluster": 6}

>  <energy>  (43) 
-7.24

>  <cluster_rmsd>  (43) 
0.81

>  <cluster>  (43) 
9

$$$$

     RDKit          3D

 55 58  0  0  0  0  0  0  0  0999 V2000
  144.4420   71.9790  221.1810 N   0  0  0  0  0  0  0  0  0  0  0  0
  145.4190   72.9430  220.1390 S   0  0  0  0  0  0  0  0  0  0  0  0
  146.5460   73.6020  220.8750 O   0  0  0  0  0  0  0  0  0  0  0  0
  145.9630   72.1430  218.9900 O   0  0  0  0  0  0  0  0  0  0  0  0
  144.4330   74.2080  219.4460 C   0  0  0  0  0  0  0  0  0  0  0  0
  144.1900   75.3950  220.1000 C   0  0  0  0  0  0  0  0  0  0  0  0
  143.4070   76.3730  219.5270 C   0  0  0  0  0  0  0  0  0  0  0  0
  142.8240   76.2210  218.2690 C   0  0  0  0  0  0  0  0  0  0  0  0
  142.0030   77.2740  217.6920 C   0  0  0  0  0  0  0  0  0  0  0  0
  141.0170   77.8820  218.3210 C   0  0  0  0  0  0  0  0  0  0  0  0
  141.0870   78.0670  219.7660 C   0  0  0  0  0  0  0  0  0  0  0  0
  141.7380   79.1690  220.2180 N   0  0  0  0  0  0  0  0  0  0  0  0
  141.8710   79.4430  221.5200 C   0  0  0  0  0  0  0  0  0  0  0  0
  142.5390   80.5710  221.9670 C   0  0  0  0  0  0  0  0  0  0  0  0
  142.6600   80.8300  223.3200 C   0  0  0  0  0  0  0  0  0  0  0  0
  142.0980   79.9360  224.2130 C   0  0  0  0  0  0  0  0  0  0  0  0
  141.4310   78.8110  223.7700 C   0  0  0  0  0  0  0  0  0  0  0  0
  141.3160   78.5620  222.4130 C   0  0  0  0  0  0  0  0  0  0  0  0
  140.6560   77.4480  221.9270 C   0  0  0  0  0  0  0  0  0  0  0  0
  140.1660   76.6770  222.7880 O   0  0  0  0  0  0  0  0  0  0  0  0
  140.5270   77.1760  220.6370 N   0  0  0  0  0  0  0  0  0  0  0  0
  139.8690   76.0220  220.0720 C   0  0  0  0  0  0  0  0  0  0  0  0
  140.6850   74.7730  220.2180 C   0  0  0  0  0  0  0  0  0  0  0  0
  140.2590   73.8230  219.1070 C   0  0  0  0  0  0  0  0  0  0  0  0
  141.1050   72.5730  219.2610 C   0  0  0  0  0  0  0  0  0  0  0  0
  140.6970   71.9000  220.5360 C   0  0  0  0  0  0  0  0  0  0  0  0
  141.0690   72.7980  221.6950 C   0  0  0  0  0  0  0  0  0  0  0  0
  140.4170   74.1610  221.5670 C   0  0  0  0  0  0  0  0  0  0  0  0
  143.0850   75.0230  217.6350 C   0  0  0  0  0  0  0  0  0  0  0  0
  143.8670   74.0420  218.2070 C   0  0  0  0  0  0  0  0  0  0  0  0
  144.9590   71.9220  222.0940 H   0  0  0  0  0  0  0  0  0  0  0  0
  144.4620   70.9880  220.8160 H   0  0  0  0  0  0  0  0  0  0  0  0
  144.6276   75.5649  221.0948 H   0  0  0  0  0  0  0  0  0  0  0  0
  143.2354   77.3074  220.0815 H   0  0  0  0  0  0  0  0  0  0  0  0
  142.2200   77.5844  216.6593 H   0  0  0  0  0  0  0  0  0  0  0  0
  140.1454   78.2482  217.7587 H   0  0  0  0  0  0  0  0  0  0  0  0
  142.9779   81.2682  221.2381 H   0  0  0  0  0  0  0  0  0  0  0  0
  143.1902   81.7251  223.6772 H   0  0  0  0  0  0  0  0  0  0  0  0
  142.1837   80.1241  225.2934 H   0  0  0  0  0  0  0  0  0  0  0  0
  140.9905   78.1119  224.4961 H   0  0  0  0  0  0  0  0  0  0  0  0
  138.9065   75.8775  220.5845 H   0  0  0  0  0  0  0  0  0  0  0  0
  139.7281   76.2079  218.9970 H   0  0  0  0  0  0  0  0  0  0  0  0
  141.7618   74.9850  220.1438 H   0  0  0  0  0  0  0  0  0  0  0  0
  139.1922   73.5746  219.2077 H   0  0  0  0  0  0  0  0  0  0  0  0
  140.4012   74.2800  218.1166 H   0  0  0  0  0  0  0  0  0  0  0  0
  140.9338   71.8977  218.4097 H   0  0  0  0  0  0  0  0  0  0  0  0
  142.1737   72.8323  219.2875 H   0  0  0  0  0  0  0  0  0  0  0  0
  139.6104   71.7287  220.5336 H   0  0  0  0  0  0  0  0  0  0  0  0
  141.2097   70.9314  220.6309 H   0  0  0  0  0  0  0  0  0  0  0  0
  140.7371   72.3287  222.6329 H   0  0  0  0  0  0  0  0  0  0  0  0
  142.1606   72.9336  221.6928 H   0  0  0  0  0  0  0  0  0  0  0  0
  139.3307   74.0522  221.7013 H   0  0  0  0  0  0  0  0  0  0  0  0
  140.8411   74.8216  222.3375 H   0  0  0  0  0  0  0  0  0  0  0  0
  142.6541   74.8447  216.6387 H   0  0  0  0  0  0  0  0  0  0  0  0
  144.0411   73.1050  217.6577 H   0  0  0  0  0  0  0  0  0  0  0  0
  1  2  1  0
  2  3  2  0
  2  4  2  0
  2  5  1  0
  5  6  2  0
  6  7  1  0
  7  8  2  0
  8  9  1  0
  9 10  2  0
 10 11  1  0
 11 12  2  0
 12 13  1  0
 13 14  2  0
 14 15  1  0
 15 16  2  0
 16 17  1  0
 17 18  2  0
 18 19  1  0
 19 20  2  0
 19 21  1  0
 21 22  1  0
 22 23  1  0
 23 24  1  0
 24 25  1  0
 25 26  1  0
 26 27  1  0
 27 28  1  0
  8 29  1  0
 29 30  2  0
 30  5  1  0
 21 11  1  0
 28 23  1  0
 18 13  1  0
  1 31  1  0
  1 32  1  0
  6 33  1  0
  7 34  1  0
  9 35  1  0
 10 36  1  0
 14 37  1  0
 15 38  1  0
 16 39  1  0
 17 40  1  0
 22 41  1  0
 22 42  1  0
 23 43  1  0
 24 44  1  0
 24 45  1  0
 25 46  1  0
 25 47  1  0
 26 48  1  0
 26 49  1  0
 27 50  1  0
 27 51  1  0
 28 52  1  0
 28 53  1  0
 29 54  1  0
 30 55  1  0
M  END
>  <smiles>  (44) 
NS(=O)(=O)c1ccc(/C=C/c2nc3ccccc3c(=O)n2CC2CCCCC2)cc1

>  <score_type>  (44) 
oracle

>  <origin>  (44) 
autodockgpu

>  <m_score__min__energy>  (44) 
-9.2400000000000002

>  <m_primary>  (44) 
energy

>  <rmsd>  (44) 
4.044521385848499

>  <m_score__min__rmsd>  (44) 
4.044521385848499

>  <meeko>  (44) 
{"free_energy": -7.67, "intermolecular_energy": -9.76, "internal_energy": -2.42, "cluster_size": 5, "cluster_id": 10, "rank_in_cluster": 1}

>  <energy>  (44) 
-7.09

>  <cluster_rmsd>  (44) 
0.71

>  <cluster>  (44) 
9

$$$$

     RDKit          3D

 55 58  0  0  0  0  0  0  0  0999 V2000
  146.3360   73.4860  218.2110 N   0  0  0  0  0  0  0  0  0  0  0  0
  145.8130   72.9030  219.7450 S   0  0  0  0  0  0  0  0  0  0  0  0
  145.7940   71.4050  219.8000 O   0  0  0  0  0  0  0  0  0  0  0  0
  146.6600   73.4400  220.8630 O   0  0  0  0  0  0  0  0  0  0  0  0
  144.1840   73.4600  220.0400 C   0  0  0  0  0  0  0  0  0  0  0  0
  143.8680   74.7970  220.1380 C   0  0  0  0  0  0  0  0  0  0  0  0
  142.5730   75.2050  220.3710 C   0  0  0  0  0  0  0  0  0  0  0  0
  141.5200   74.3010  220.5180 C   0  0  0  0  0  0  0  0  0  0  0  0
  140.1640   74.7660  220.7630 C   0  0  0  0  0  0  0  0  0  0  0  0
  139.6960   75.1150  221.9450 C   0  0  0  0  0  0  0  0  0  0  0  0
  139.6960   76.5210  222.3350 C   0  0  0  0  0  0  0  0  0  0  0  0
  140.9020   77.0960  222.5750 N   0  0  0  0  0  0  0  0  0  0  0  0
  141.0280   78.3750  222.9430 C   0  0  0  0  0  0  0  0  0  0  0  0
  142.2660   78.9490  223.1860 C   0  0  0  0  0  0  0  0  0  0  0  0
  142.3660   80.2750  223.5640 C   0  0  0  0  0  0  0  0  0  0  0  0
  141.2030   81.0130  223.6930 C   0  0  0  0  0  0  0  0  0  0  0  0
  139.9690   80.4440  223.4510 C   0  0  0  0  0  0  0  0  0  0  0  0
  139.8800   79.1150  223.0730 C   0  0  0  0  0  0  0  0  0  0  0  0
  138.6640   78.5050  222.8200 C   0  0  0  0  0  0  0  0  0  0  0  0
  137.6460   79.2290  222.9520 O   0  0  0  0  0  0  0  0  0  0  0  0
  138.5400   77.2370  222.4580 N   0  0  0  0  0  0  0  0  0  0  0  0
  137.3010   76.5430  222.2010 C   0  0  0  0  0  0  0  0  0  0  0  0
  136.4690   76.3850  223.4390 C   0  0  0  0  0  0  0  0  0  0  0  0
  135.9690   74.9470  223.4670 C   0  0  0  0  0  0  0  0  0  0  0  0
  135.1440   74.8030  224.7320 C   0  0  0  0  0  0  0  0  0  0  0  0
  133.9150   75.6470  224.5750 C   0  0  0  0  0  0  0  0  0  0  0  0
  134.3330   77.0990  224.5150 C   0  0  0  0  0  0  0  0  0  0  0  0
  135.3110   77.3460  223.3820 C   0  0  0  0  0  0  0  0  0  0  0  0
  141.8640   72.9690  220.4130 C   0  0  0  0  0  0  0  0  0  0  0  0
  143.1590   72.5580  220.1810 C   0  0  0  0  0  0  0  0  0  0  0  0
  147.1560   74.1140  218.4020 H   0  0  0  0  0  0  0  0  0  0  0  0
  145.5920   74.1430  217.8460 H   0  0  0  0  0  0  0  0  0  0  0  0
  144.6618   75.5506  220.0285 H   0  0  0  0  0  0  0  0  0  0  0  0
  142.3613   76.2820  220.4438 H   0  0  0  0  0  0  0  0  0  0  0  0
  139.4817   74.8310  219.9026 H   0  0  0  0  0  0  0  0  0  0  0  0
  139.3075   74.3502  222.6336 H   0  0  0  0  0  0  0  0  0  0  0  0
  143.1779   78.3435  223.0770 H   0  0  0  0  0  0  0  0  0  0  0  0
  143.3474   80.7326  223.7577 H   0  0  0  0  0  0  0  0  0  0  0  0
  141.2626   82.0696  223.9931 H   0  0  0  0  0  0  0  0  0  0  0  0
  139.0553   81.0470  223.5586 H   0  0  0  0  0  0  0  0  0  0  0  0
  136.7242   77.1127  221.4576 H   0  0  0  0  0  0  0  0  0  0  0  0
  137.5494   75.5369  221.8321 H   0  0  0  0  0  0  0  0  0  0  0  0
  137.0519   76.6008  224.3465 H   0  0  0  0  0  0  0  0  0  0  0  0
  135.3474   74.7434  222.5826 H   0  0  0  0  0  0  0  0  0  0  0  0
  136.8066   74.2340  223.4547 H   0  0  0  0  0  0  0  0  0  0  0  0
  134.8593   73.7502  224.8755 H   0  0  0  0  0  0  0  0  0  0  0  0
  135.7240   75.1275  225.6085 H   0  0  0  0  0  0  0  0  0  0  0  0
  133.3929   75.3727  223.6464 H   0  0  0  0  0  0  0  0  0  0  0  0
  133.2364   75.4855  225.4255 H   0  0  0  0  0  0  0  0  0  0  0  0
  133.4402   77.7225  224.3597 H   0  0  0  0  0  0  0  0  0  0  0  0
  134.8283   77.3566  225.4628 H   0  0  0  0  0  0  0  0  0  0  0  0
  134.7875   77.2196  222.4229 H   0  0  0  0  0  0  0  0  0  0  0  0
  135.7038   78.3689  223.4794 H   0  0  0  0  0  0  0  0  0  0  0  0
  141.0767   72.2080  220.5182 H   0  0  0  0  0  0  0  0  0  0  0  0
  143.3761   71.4822  220.1071 H   0  0  0  0  0  0  0  0  0  0  0  0
  1  2  1  0
  2  3  2  0
  2  4  2  0
  2  5  1  0
  5  6  2  0
  6  7  1  0
  7  8  2  0
  8  9  1  0
  9 10  2  0
 10 11  1  0
 11 12  2  0
 12 13  1  0
 13 14  2  0
 14 15  1  0
 15 16  2  0
 16 17  1  0
 17 18  2  0
 18 19  1  0
 19 20  2  0
 19 21  1  0
 21 22  1  0
 22 23  1  0
 23 24  1  0
 24 25  1  0
 25 26  1  0
 26 27  1  0
 27 28  1  0
  8 29  1  0
 29 30  2  0
 30  5  1  0
 21 11  1  0
 28 23  1  0
 18 13  1  0
  1 31  1  0
  1 32  1  0
  6 33  1  0
  7 34  1  0
  9 35  1  0
 10 36  1  0
 14 37  1  0
 15 38  1  0
 16 39  1  0
 17 40  1  0
 22 41  1  0
 22 42  1  0
 23 43  1  0
 24 44  1  0
 24 45  1  0
 25 46  1  0
 25 47  1  0
 26 48  1  0
 26 49  1  0
 27 50  1  0
 27 51  1  0
 28 52  1  0
 28 53  1  0
 29 54  1  0
 30 55  1  0
M  END
>  <smiles>  (45) 
NS(=O)(=O)c1ccc(/C=C/c2nc3ccccc3c(=O)n2CC2CCCCC2)cc1

>  <score_type>  (45) 
oracle

>  <origin>  (45) 
autodockgpu

>  <m_score__min__energy>  (45) 
-9.2400000000000002

>  <m_primary>  (45) 
energy

>  <rmsd>  (45) 
6.188989213843901

>  <m_score__min__rmsd>  (45) 
6.188989213843901

>  <meeko>  (45) 
{"free_energy": -8.62, "intermolecular_energy": -10.7, "internal_energy": -1.34, "cluster_size": 5, "cluster_id": 4, "rank_in_cluster": 4}

>  <energy>  (45) 
-7.03

>  <cluster_rmsd>  (45) 
1.21

>  <cluster>  (45) 
9

$$$$

     RDKit          3D

 55 58  0  0  0  0  0  0  0  0999 V2000
  146.6650   72.6720  221.6580 N   0  0  0  0  0  0  0  0  0  0  0  0
  145.9380   72.7790  220.0990 S   0  0  0  0  0  0  0  0  0  0  0  0
  146.7000   73.6900  219.1850 O   0  0  0  0  0  0  0  0  0  0  0  0
  145.7880   71.4280  219.4610 O   0  0  0  0  0  0  0  0  0  0  0  0
  144.3270   73.4340  220.2690 C   0  0  0  0  0  0  0  0  0  0  0  0
  144.0240   74.7400  219.9530 C   0  0  0  0  0  0  0  0  0  0  0  0
  142.7440   75.2260  220.0980 C   0  0  0  0  0  0  0  0  0  0  0  0
  141.6930   74.4360  220.5660 C   0  0  0  0  0  0  0  0  0  0  0  0
  140.3520   74.9810  220.7080 C   0  0  0  0  0  0  0  0  0  0  0  0
  139.8050   75.3330  221.8540 C   0  0  0  0  0  0  0  0  0  0  0  0
  139.8340   76.7320  222.2680 C   0  0  0  0  0  0  0  0  0  0  0  0
  141.0420   77.2540  222.6010 N   0  0  0  0  0  0  0  0  0  0  0  0
  141.1920   78.5210  223.0000 C   0  0  0  0  0  0  0  0  0  0  0  0
  142.4310   79.0410  223.3370 C   0  0  0  0  0  0  0  0  0  0  0  0
  142.5570   80.3560  223.7450 C   0  0  0  0  0  0  0  0  0  0  0  0
  141.4180   81.1380  223.8080 C   0  0  0  0  0  0  0  0  0  0  0  0
  140.1820   80.6220  223.4720 C   0  0  0  0  0  0  0  0  0  0  0  0
  140.0670   79.3040  223.0650 C   0  0  0  0  0  0  0  0  0  0  0  0
  138.8490   78.7480  222.7190 C   0  0  0  0  0  0  0  0  0  0  0  0
  137.8530   79.5090  222.7940 O   0  0  0  0  0  0  0  0  0  0  0  0
  138.7000   77.4920  222.3260 N   0  0  0  0  0  0  0  0  0  0  0  0
  137.4560   76.8520  221.9730 C   0  0  0  0  0  0  0  0  0  0  0  0
  136.6900   76.3920  223.1770 C   0  0  0  0  0  0  0  0  0  0  0  0
  136.2220   74.9700  222.8990 C   0  0  0  0  0  0  0  0  0  0  0  0
  135.4650   74.5170  224.1330 C   0  0  0  0  0  0  0  0  0  0  0  0
  134.2120   75.3340  224.2260 C   0  0  0  0  0  0  0  0  0  0  0  0
  134.5960   76.7750  224.4800 C   0  0  0  0  0  0  0  0  0  0  0  0
  135.5110   77.3030  223.3910 C   0  0  0  0  0  0  0  0  0  0  0  0
  142.0240   73.1320  220.8740 C   0  0  0  0  0  0  0  0  0  0  0  0
  143.3040   72.6430  220.7300 C   0  0  0  0  0  0  0  0  0  0  0  0
  147.3680   71.8940  221.5980 H   0  0  0  0  0  0  0  0  0  0  0  0
  145.9360   72.3030  222.3280 H   0  0  0  0  0  0  0  0  0  0  0  0
  144.8167   75.4047  219.5791 H   0  0  0  0  0  0  0  0  0  0  0  0
  142.5424   76.2750  219.8355 H   0  0  0  0  0  0  0  0  0  0  0  0
  139.7524   75.1083  219.7946 H   0  0  0  0  0  0  0  0  0  0  0  0
  139.3291   74.5764  222.4951 H   0  0  0  0  0  0  0  0  0  0  0  0
  143.3238   78.4010  223.2794 H   0  0  0  0  0  0  0  0  0  0  0  0
  143.5400   80.7705  224.0132 H   0  0  0  0  0  0  0  0  0  0  0  0
  141.4979   82.1866  224.1306 H   0  0  0  0  0  0  0  0  0  0  0  0
  139.2873   81.2595  223.5279 H   0  0  0  0  0  0  0  0  0  0  0  0
  136.8368   77.5677  221.4122 H   0  0  0  0  0  0  0  0  0  0  0  0
  137.6942   75.9653  221.3672 H   0  0  0  0  0  0  0  0  0  0  0  0
  137.3129   76.4155  224.0833 H   0  0  0  0  0  0  0  0  0  0  0  0
  135.5610   74.9524  222.0199 H   0  0  0  0  0  0  0  0  0  0  0  0
  137.0726   74.3053  222.6877 H   0  0  0  0  0  0  0  0  0  0  0  0
  135.2108   73.4503  224.0457 H   0  0  0  0  0  0  0  0  0  0  0  0
  136.0811   74.6536  225.0340 H   0  0  0  0  0  0  0  0  0  0  0  0
  133.6503   75.2604  223.2831 H   0  0  0  0  0  0  0  0  0  0  0  0
  133.5799   74.9624  225.0459 H   0  0  0  0  0  0  0  0  0  0  0  0
  133.6836   77.3888  224.5099 H   0  0  0  0  0  0  0  0  0  0  0  0
  135.1324   76.8270  225.4390 H   0  0  0  0  0  0  0  0  0  0  0  0
  134.9430   77.3803  222.4522 H   0  0  0  0  0  0  0  0  0  0  0  0
  135.8865   78.2892  223.7014 H   0  0  0  0  0  0  0  0  0  0  0  0
  141.2380   72.4593  221.2477 H   0  0  0  0  0  0  0  0  0  0  0  0
  143.5111   71.5945  220.9904 H   0  0  0  0  0  0  0  0  0  0  0  0
  1  2  1  0
  2  3  2  0
  2  4  2  0
  2  5  1  0
  5  6  2  0
  6  7  1  0
  7  8  2  0
  8  9  1  0
  9 10  2  0
 10 11  1  0
 11 12  2  0
 12 13  1  0
 13 14  2  0
 14 15  1  0
 15 16  2  0
 16 17  1  0
 17 18  2  0
 18 19  1  0
 19 20  2  0
 19 21  1  0
 21 22  1  0
 22 23  1  0
 23 24  1  0
 24 25  1  0
 25 26  1  0
 26 27  1  0
 27 28  1  0
  8 29  1  0
 29 30  2  0
 30  5  1  0
 21 11  1  0
 28 23  1  0
 18 13  1  0
  1 31  1  0
  1 32  1  0
  6 33  1  0
  7 34  1  0
  9 35  1  0
 10 36  1  0
 14 37  1  0
 15 38  1  0
 16 39  1  0
 17 40  1  0
 22 41  1  0
 22 42  1  0
 23 43  1  0
 24 44  1  0
 24 45  1  0
 25 46  1  0
 25 47  1  0
 26 48  1  0
 26 49  1  0
 27 50  1  0
 27 51  1  0
 28 52  1  0
 28 53  1  0
 29 54  1  0
 30 55  1  0
M  END
>  <smiles>  (46) 
NS(=O)(=O)c1ccc(/C=C/c2nc3ccccc3c(=O)n2CC2CCCCC2)cc1

>  <score_type>  (46) 
oracle

>  <origin>  (46) 
autodockgpu

>  <m_score__min__energy>  (46) 
-9.2400000000000002

>  <m_primary>  (46) 
energy

>  <rmsd>  (46) 
5.87460910382337

>  <m_score__min__rmsd>  (46) 
5.87460910382337

>  <meeko>  (46) 
{"free_energy": -8.63, "intermolecular_energy": -10.71, "internal_energy": -1.35, "cluster_size": 5, "cluster_id": 4, "rank_in_cluster": 3}

>  <energy>  (46) 
-7.67

>  <cluster_rmsd>  (46) 
0.0

>  <cluster>  (46) 
10

$$$$

     RDKit          3D

 55 58  0  0  0  0  0  0  0  0999 V2000
  145.7540   73.3880  217.9300 N   0  0  0  0  0  0  0  0  0  0  0  0
  145.8160   72.8560  219.5680 S   0  0  0  0  0  0  0  0  0  0  0  0
  146.3110   71.4460  219.6820 O   0  0  0  0  0  0  0  0  0  0  0  0
  146.6630   73.7610  220.4150 O   0  0  0  0  0  0  0  0  0  0  0  0
  144.2050   72.9030  220.2410 C   0  0  0  0  0  0  0  0  0  0  0  0
  143.4790   74.0690  220.3370 C   0  0  0  0  0  0  0  0  0  0  0  0
  142.2100   74.0730  220.8730 C   0  0  0  0  0  0  0  0  0  0  0  0
  141.5940   72.9130  221.3430 C   0  0  0  0  0  0  0  0  0  0  0  0
  140.2520   72.9520  221.9040 C   0  0  0  0  0  0  0  0  0  0  0  0
  139.4980   71.8910  222.1130 C   0  0  0  0  0  0  0  0  0  0  0  0
  139.6070   71.1650  223.3740 C   0  0  0  0  0  0  0  0  0  0  0  0
  140.1900   71.8150  224.4130 N   0  0  0  0  0  0  0  0  0  0  0  0
  140.3490   71.2510  225.6150 C   0  0  0  0  0  0  0  0  0  0  0  0
  140.9480   71.9250  226.6670 C   0  0  0  0  0  0  0  0  0  0  0  0
  141.0980   71.3170  227.9000 C   0  0  0  0  0  0  0  0  0  0  0  0
  140.6360   70.0230  228.0560 C   0  0  0  0  0  0  0  0  0  0  0  0
  140.0390   69.3490  227.0090 C   0  0  0  0  0  0  0  0  0  0  0  0
  139.8940   69.9670  225.7790 C   0  0  0  0  0  0  0  0  0  0  0  0
  139.3020   69.3290  224.7040 C   0  0  0  0  0  0  0  0  0  0  0  0
  138.9020   68.1560  224.9110 O   0  0  0  0  0  0  0  0  0  0  0  0
  139.1470   69.8870  223.5130 N   0  0  0  0  0  0  0  0  0  0  0  0
  138.5570   69.2650  222.3520 C   0  0  0  0  0  0  0  0  0  0  0  0
  139.5350   68.4090  221.6050 C   0  0  0  0  0  0  0  0  0  0  0  0
  139.6740   68.9970  220.2070 C   0  0  0  0  0  0  0  0  0  0  0  0
  140.6780   68.1290  219.4730 C   0  0  0  0  0  0  0  0  0  0  0  0
  140.0570   66.7790  219.2750 C   0  0  0  0  0  0  0  0  0  0  0  0
  139.8630   66.1350  220.6300 C   0  0  0  0  0  0  0  0  0  0  0  0
  139.0080   67.0010  221.5350 C   0  0  0  0  0  0  0  0  0  0  0  0
  142.3420   71.7580  221.2330 C   0  0  0  0  0  0  0  0  0  0  0  0
  143.6130   71.7520  220.6980 C   0  0  0  0  0  0  0  0  0  0  0  0
  145.6560   74.4330  217.9670 H   0  0  0  0  0  0  0  0  0  0  0  0
  144.8370   73.0610  217.5200 H   0  0  0  0  0  0  0  0  0  0  0  0
  143.9191   75.0119  219.9802 H   0  0  0  0  0  0  0  0  0  0  0  0
  141.6627   75.0253  220.9325 H   0  0  0  0  0  0  0  0  0  0  0  0
  139.8378   73.9351  222.1724 H   0  0  0  0  0  0  0  0  0  0  0  0
  138.7904   71.5548  221.3408 H   0  0  0  0  0  0  0  0  0  0  0  0
  141.3078   72.9540  226.5200 H   0  0  0  0  0  0  0  0  0  0  0  0
  141.5735   71.8500  228.7366 H   0  0  0  0  0  0  0  0  0  0  0  0
  140.7458   69.5227  229.0295 H   0  0  0  0  0  0  0  0  0  0  0  0
  139.6783   68.3198  227.1526 H   0  0  0  0  0  0  0  0  0  0  0  0
  137.7141   68.6374  222.6771 H   0  0  0  0  0  0  0  0  0  0  0  0
  138.2248   70.0653  221.6744 H   0  0  0  0  0  0  0  0  0  0  0  0
  140.5141   68.3858  222.1058 H   0  0  0  0  0  0  0  0  0  0  0  0
  138.7041   68.9778  219.6884 H   0  0  0  0  0  0  0  0  0  0  0  0
  140.0078   70.0444  220.2472 H   0  0  0  0  0  0  0  0  0  0  0  0
  140.9180   68.5773  218.4976 H   0  0  0  0  0  0  0  0  0  0  0  0
  141.6086   68.0429  220.0531 H   0  0  0  0  0  0  0  0  0  0  0  0
  139.0840   66.8883  218.7737 H   0  0  0  0  0  0  0  0  0  0  0  0
  140.7104   66.1521  218.6505 H   0  0  0  0  0  0  0  0  0  0  0  0
  139.3701   65.1607  220.4963 H   0  0  0  0  0  0  0  0  0  0  0  0
  140.8499   66.0110  221.0997 H   0  0  0  0  0  0  0  0  0  0  0  0
  137.9803   67.0225  221.1434 H   0  0  0  0  0  0  0  0  0  0  0  0
  139.0307   66.5719  222.5476 H   0  0  0  0  0  0  0  0  0  0  0  0
  141.9092   70.8097  221.5842 H   0  0  0  0  0  0  0  0  0  0  0  0
  144.1653   70.8027  220.6360 H   0  0  0  0  0  0  0  0  0  0  0  0
  1  2  1  0
  2  3  2  0
  2  4  2  0
  2  5  1  0
  5  6  2  0
  6  7  1  0
  7  8  2  0
  8  9  1  0
  9 10  2  0
 10 11  1  0
 11 12  2  0
 12 13  1  0
 13 14  2  0
 14 15  1  0
 15 16  2  0
 16 17  1  0
 17 18  2  0
 18 19  1  0
 19 20  2  0
 19 21  1  0
 21 22  1  0
 22 23  1  0
 23 24  1  0
 24 25  1  0
 25 26  1  0
 26 27  1  0
 27 28  1  0
  8 29  1  0
 29 30  2  0
 30  5  1  0
 21 11  1  0
 28 23  1  0
 18 13  1  0
  1 31  1  0
  1 32  1  0
  6 33  1  0
  7 34  1  0
  9 35  1  0
 10 36  1  0
 14 37  1  0
 15 38  1  0
 16 39  1  0
 17 40  1  0
 22 41  1  0
 22 42  1  0
 23 43  1  0
 24 44  1  0
 24 45  1  0
 25 46  1  0
 25 47  1  0
 26 48  1  0
 26 49  1  0
 27 50  1  0
 27 51  1  0
 28 52  1  0
 28 53  1  0
 29 54  1  0
 30 55  1  0
M  END
>  <smiles>  (47) 
NS(=O)(=O)c1ccc(/C=C/c2nc3ccccc3c(=O)n2CC2CCCCC2)cc1

>  <score_type>  (47) 
oracle

>  <origin>  (47) 
autodockgpu

>  <m_score__min__energy>  (47) 
-9.2400000000000002

>  <m_primary>  (47) 
energy

>  <rmsd>  (47) 
10.720407796895916

>  <m_score__min__rmsd>  (47) 
10.720407796895916

>  <meeko>  (47) 
{"free_energy": -8.93, "intermolecular_energy": -11.02, "internal_energy": -1.65, "cluster_size": 16, "cluster_id": 1, "rank_in_cluster": 4}

>  <energy>  (47) 
-7.42

>  <cluster_rmsd>  (47) 
0.29

>  <cluster>  (47) 
10

$$$$

     RDKit          3D

 55 58  0  0  0  0  0  0  0  0999 V2000
  145.9260   73.6850  217.5890 N   0  0  0  0  0  0  0  0  0  0  0  0
  145.6860   72.9200  219.1140 S   0  0  0  0  0  0  0  0  0  0  0  0
  145.6990   71.4260  219.0010 O   0  0  0  0  0  0  0  0  0  0  0  0
  146.7050   73.3610  220.1240 O   0  0  0  0  0  0  0  0  0  0  0  0
  144.1240   73.3860  219.7420 C   0  0  0  0  0  0  0  0  0  0  0  0
  143.8990   74.6130  220.3250 C   0  0  0  0  0  0  0  0  0  0  0  0
  142.6560   74.9500  220.8110 C   0  0  0  0  0  0  0  0  0  0  0  0
  141.5660   74.0820  220.7430 C   0  0  0  0  0  0  0  0  0  0  0  0
  140.2660   74.4700  221.2670 C   0  0  0  0  0  0  0  0  0  0  0  0
  139.6590   75.6080  220.9950 C   0  0  0  0  0  0  0  0  0  0  0  0
  140.3880   76.8650  221.1300 C   0  0  0  0  0  0  0  0  0  0  0  0
  140.6420   77.3000  222.3900 N   0  0  0  0  0  0  0  0  0  0  0  0
  141.2970   78.4390  222.6390 C   0  0  0  0  0  0  0  0  0  0  0  0
  141.5500   78.8720  223.9300 C   0  0  0  0  0  0  0  0  0  0  0  0
  142.2310   80.0530  224.1580 C   0  0  0  0  0  0  0  0  0  0  0  0
  142.6530   80.7900  223.0660 C   0  0  0  0  0  0  0  0  0  0  0  0
  142.4040   80.3610  221.7780 C   0  0  0  0  0  0  0  0  0  0  0  0
  141.7210   79.1760  221.5610 C   0  0  0  0  0  0  0  0  0  0  0  0
  141.4500   78.7090  220.2890 C   0  0  0  0  0  0  0  0  0  0  0  0
  141.8620   79.4220  219.3400 O   0  0  0  0  0  0  0  0  0  0  0  0
  140.7990   77.5820  220.0430 N   0  0  0  0  0  0  0  0  0  0  0  0
  140.4700   77.0550  218.7400 C   0  0  0  0  0  0  0  0  0  0  0  0
  141.5680   76.2040  218.1750 C   0  0  0  0  0  0  0  0  0  0  0  0
  142.5960   77.1430  217.5590 C   0  0  0  0  0  0  0  0  0  0  0  0
  143.7040   76.2660  217.0080 C   0  0  0  0  0  0  0  0  0  0  0  0
  143.1420   75.4860  215.8590 C   0  0  0  0  0  0  0  0  0  0  0  0
  142.0880   74.5390  216.3900 C   0  0  0  0  0  0  0  0  0  0  0  0
  140.9950   75.2880  217.1270 C   0  0  0  0  0  0  0  0  0  0  0  0
  141.8180   72.8600  220.1540 C   0  0  0  0  0  0  0  0  0  0  0  0
  143.0620   72.5190  219.6670 C   0  0  0  0  0  0  0  0  0  0  0  0
  146.8700   74.1420  217.6380 H   0  0  0  0  0  0  0  0  0  0  0  0
  145.2540   74.4970  217.5270 H   0  0  0  0  0  0  0  0  0  0  0  0
  144.7252   75.3349  220.4036 H   0  0  0  0  0  0  0  0  0  0  0  0
  142.5171   75.9400  221.2698 H   0  0  0  0  0  0  0  0  0  0  0  0
  139.7534   73.7644  221.9373 H   0  0  0  0  0  0  0  0  0  0  0  0
  138.6087   75.6102  220.6680 H   0  0  0  0  0  0  0  0  0  0  0  0
  141.2052   78.2694  224.7832 H   0  0  0  0  0  0  0  0  0  0  0  0
  142.4325   80.3984  225.1827 H   0  0  0  0  0  0  0  0  0  0  0  0
  143.1958   81.7332  223.2268 H   0  0  0  0  0  0  0  0  0  0  0  0
  142.7485   80.9610  220.9229 H   0  0  0  0  0  0  0  0  0  0  0  0
  139.5584   76.4453  218.8252 H   0  0  0  0  0  0  0  0  0  0  0  0
  140.3220   77.9073  218.0605 H   0  0  0  0  0  0  0  0  0  0  0  0
  142.0384   75.5852  218.9533 H   0  0  0  0  0  0  0  0  0  0  0  0
  142.1377   77.7299  216.7494 H   0  0  0  0  0  0  0  0  0  0  0  0
  142.9838   77.8528  218.3045 H   0  0  0  0  0  0  0  0  0  0  0  0
  144.5398   76.8920  216.6622 H   0  0  0  0  0  0  0  0  0  0  0  0
  144.0792   75.5861  217.7870 H   0  0  0  0  0  0  0  0  0  0  0  0
  142.6890   76.1740  215.1300 H   0  0  0  0  0  0  0  0  0  0  0  0
  143.9424   74.9181  215.3622 H   0  0  0  0  0  0  0  0  0  0  0  0
  141.6413   73.9912  215.5472 H   0  0  0  0  0  0  0  0  0  0  0  0
  142.5687   73.8446  217.0947 H   0  0  0  0  0  0  0  0  0  0  0  0
  140.4208   75.8861  216.4041 H   0  0  0  0  0  0  0  0  0  0  0  0
  140.3474   74.5525  217.6265 H   0  0  0  0  0  0  0  0  0  0  0  0
  140.9975   72.1322  220.0700 H   0  0  0  0  0  0  0  0  0  0  0  0
  143.2069   71.5299  219.2080 H   0  0  0  0  0  0  0  0  0  0  0  0
  1  2  1  0
  2  3  2  0
  2  4  2  0
  2  5  1  0
  5  6  2  0
  6  7  1  0
  7  8  2  0
  8  9  1  0
  9 10  2  0
 10 11  1  0
 11 12  2  0
 12 13  1  0
 13 14  2  0
 14 15  1  0
 15 16  2  0
 16 17  1  0
 17 18  2  0
 18 19  1  0
 19 20  2  0
 19 21  1  0
 21 22  1  0
 22 23  1  0
 23 24  1  0
 24 25  1  0
 25 26  1  0
 26 27  1  0
 27 28  1  0
  8 29  1  0
 29 30  2  0
 30  5  1  0
 21 11  1  0
 28 23  1  0
 18 13  1  0
  1 31  1  0
  1 32  1  0
  6 33  1  0
  7 34  1  0
  9 35  1  0
 10 36  1  0
 14 37  1  0
 15 38  1  0
 16 39  1  0
 17 40  1  0
 22 41  1  0
 22 42  1  0
 23 43  1  0
 24 44  1  0
 24 45  1  0
 25 46  1  0
 25 47  1  0
 26 48  1  0
 26 49  1  0
 27 50  1  0
 27 51  1  0
 28 52  1  0
 28 53  1  0
 29 54  1  0
 30 55  1  0
M  END
>  <smiles>  (48) 
NS(=O)(=O)c1ccc(/C=C/c2nc3ccccc3c(=O)n2CC2CCCCC2)cc1

>  <score_type>  (48) 
oracle

>  <origin>  (48) 
autodockgpu

>  <m_score__min__energy>  (48) 
-9.2400000000000002

>  <m_primary>  (48) 
energy

>  <rmsd>  (48) 
3.7813211103230913

>  <m_score__min__rmsd>  (48) 
3.7813211103230913

>  <meeko>  (48) 
{"free_energy": -7.39, "intermolecular_energy": -9.48, "internal_energy": -2.5, "cluster_size": 6, "cluster_id": 9, "rank_in_cluster": 3}

>  <energy>  (48) 
-7.36

>  <cluster_rmsd>  (48) 
0.24

>  <cluster>  (48) 
10

$$$$

     RDKit          3D

 55 58  0  0  0  0  0  0  0  0999 V2000
  146.2870   73.4110  218.5030 N   0  0  0  0  0  0  0  0  0  0  0  0
  145.7890   72.5490  219.9100 S   0  0  0  0  0  0  0  0  0  0  0  0
  145.7060   71.0740  219.6650 O   0  0  0  0  0  0  0  0  0  0  0  0
  146.6950   72.8200  221.0770 O   0  0  0  0  0  0  0  0  0  0  0  0
  144.1970   73.0950  220.3750 C   0  0  0  0  0  0  0  0  0  0  0  0
  143.1720   72.2210  220.6650 C   0  0  0  0  0  0  0  0  0  0  0  0
  141.9270   72.6840  221.0280 C   0  0  0  0  0  0  0  0  0  0  0  0
  141.6340   74.0440  221.1240 C   0  0  0  0  0  0  0  0  0  0  0  0
  140.3070   74.4990  221.5110 C   0  0  0  0  0  0  0  0  0  0  0  0
  139.7400   75.6060  221.0770 C   0  0  0  0  0  0  0  0  0  0  0  0
  140.4470   76.8770  221.2030 C   0  0  0  0  0  0  0  0  0  0  0  0
  140.6700   77.3380  222.4610 N   0  0  0  0  0  0  0  0  0  0  0  0
  141.3030   78.4910  222.7010 C   0  0  0  0  0  0  0  0  0  0  0  0
  141.5230   78.9510  223.9890 C   0  0  0  0  0  0  0  0  0  0  0  0
  142.1810   80.1470  224.2090 C   0  0  0  0  0  0  0  0  0  0  0  0
  142.6140   80.8700  223.1120 C   0  0  0  0  0  0  0  0  0  0  0  0
  142.3960   80.4140  221.8280 C   0  0  0  0  0  0  0  0  0  0  0  0
  141.7360   79.2150  221.6190 C   0  0  0  0  0  0  0  0  0  0  0  0
  141.4970   78.7220  220.3500 C   0  0  0  0  0  0  0  0  0  0  0  0
  141.9170   79.4240  219.3960 O   0  0  0  0  0  0  0  0  0  0  0  0
  140.8680   77.5800  220.1120 N   0  0  0  0  0  0  0  0  0  0  0  0
  140.5730   77.0260  218.8120 C   0  0  0  0  0  0  0  0  0  0  0  0
  141.7050   76.2040  218.2730 C   0  0  0  0  0  0  0  0  0  0  0  0
  142.5860   77.1340  217.4490 C   0  0  0  0  0  0  0  0  0  0  0  0
  143.7320   76.2890  216.9260 C   0  0  0  0  0  0  0  0  0  0  0  0
  143.1670   75.3080  215.9450 C   0  0  0  0  0  0  0  0  0  0  0  0
  142.2550   74.3560  216.6870 C   0  0  0  0  0  0  0  0  0  0  0  0
  141.1500   75.1030  217.4100 C   0  0  0  0  0  0  0  0  0  0  0  0
  142.6780   74.8980  220.8300 C   0  0  0  0  0  0  0  0  0  0  0  0
  143.9250   74.4380  220.4650 C   0  0  0  0  0  0  0  0  0  0  0  0
  147.0710   74.0400  218.8090 H   0  0  0  0  0  0  0  0  0  0  0  0
  145.5110   74.0800  218.2440 H   0  0  0  0  0  0  0  0  0  0  0  0
  143.3509   71.1373  220.6056 H   0  0  0  0  0  0  0  0  0  0  0  0
  141.1345   71.9543  221.2504 H   0  0  0  0  0  0  0  0  0  0  0  0
  139.7375   73.8748  222.2153 H   0  0  0  0  0  0  0  0  0  0  0  0
  138.7391   75.5729  220.6220 H   0  0  0  0  0  0  0  0  0  0  0  0
  141.1704   78.3584  224.8460 H   0  0  0  0  0  0  0  0  0  0  0  0
  142.3558   80.5145  225.2310 H   0  0  0  0  0  0  0  0  0  0  0  0
  143.1404   81.8235  223.2657 H   0  0  0  0  0  0  0  0  0  0  0  0
  142.7473   81.0043  220.9688 H   0  0  0  0  0  0  0  0  0  0  0  0
  139.6804   76.3883  218.8936 H   0  0  0  0  0  0  0  0  0  0  0  0
  140.4063   77.8641  218.1193 H   0  0  0  0  0  0  0  0  0  0  0  0
  142.2906   75.7453  219.0834 H   0  0  0  0  0  0  0  0  0  0  0  0
  142.0126   77.5574  216.6112 H   0  0  0  0  0  0  0  0  0  0  0  0
  142.9553   77.9739  218.0558 H   0  0  0  0  0  0  0  0  0  0  0  0
  144.4736   76.9311  216.4282 H   0  0  0  0  0  0  0  0  0  0  0  0
  144.2295   75.7618  217.7534 H   0  0  0  0  0  0  0  0  0  0  0  0
  142.5950   75.8434  215.1729 H   0  0  0  0  0  0  0  0  0  0  0  0
  143.9811   74.7487  215.4609 H   0  0  0  0  0  0  0  0  0  0  0  0
  141.8038   73.6575  215.9669 H   0  0  0  0  0  0  0  0  0  0  0  0
  142.8531   73.8127  217.4334 H   0  0  0  0  0  0  0  0  0  0  0  0
  140.4678   75.5406  216.6663 H   0  0  0  0  0  0  0  0  0  0  0  0
  140.6170   74.3911  218.0573 H   0  0  0  0  0  0  0  0  0  0  0  0
  142.5088   75.9833  220.8891 H   0  0  0  0  0  0  0  0  0  0  0  0
  144.7208   75.1635  220.2406 H   0  0  0  0  0  0  0  0  0  0  0  0
  1  2  1  0
  2  3  2  0
  2  4  2  0
  2  5  1  0
  5  6  2  0
  6  7  1  0
  7  8  2  0
  8  9  1  0
  9 10  2  0
 10 11  1  0
 11 12  2  0
 12 13  1  0
 13 14  2  0
 14 15  1  0
 15 16  2  0
 16 17  1  0
 17 18  2  0
 18 19  1  0
 19 20  2  0
 19 21  1  0
 21 22  1  0
 22 23  1  0
 23 24  1  0
 24 25  1  0
 25 26  1  0
 26 27  1  0
 27 28  1  0
  8 29  1  0
 29 30  2  0
 30  5  1  0
 21 11  1  0
 28 23  1  0
 18 13  1  0
  1 31  1  0
  1 32  1  0
  6 33  1  0
  7 34  1  0
  9 35  1  0
 10 36  1  0
 14 37  1  0
 15 38  1  0
 16 39  1  0
 17 40  1  0
 22 41  1  0
 22 42  1  0
 23 43  1  0
 24 44  1  0
 24 45  1  0
 25 46  1  0
 25 47  1  0
 26 48  1  0
 26 49  1  0
 27 50  1  0
 27 51  1  0
 28 52  1  0
 28 53  1  0
 29 54  1  0
 30 55  1  0
M  END
>  <smiles>  (49) 
NS(=O)(=O)c1ccc(/C=C/c2nc3ccccc3c(=O)n2CC2CCCCC2)cc1

>  <score_type>  (49) 
oracle

>  <origin>  (49) 
autodockgpu

>  <m_score__min__energy>  (49) 
-9.2400000000000002

>  <m_primary>  (49) 
energy

>  <rmsd>  (49) 
3.745804289098919

>  <m_score__min__rmsd>  (49) 
3.745804289098919

>  <meeko>  (49) 
{"free_energy": -7.83, "intermolecular_energy": -9.92, "internal_energy": -2.24, "cluster_size": 6, "cluster_id": 9, "rank_in_cluster": 1}

>  <energy>  (49) 
-7.28

>  <cluster_rmsd>  (49) 
0.77

>  <cluster>  (49) 
10

$$$$

     RDKit          3D

 55 58  0  0  0  0  0  0  0  0999 V2000
  145.6660   73.1640  218.1590 N   0  0  0  0  0  0  0  0  0  0  0  0
  145.6780   72.3890  219.6980 S   0  0  0  0  0  0  0  0  0  0  0  0
  146.4810   71.1240  219.6840 O   0  0  0  0  0  0  0  0  0  0  0  0
  146.1880   73.3020  220.7760 O   0  0  0  0  0  0  0  0  0  0  0  0
  144.0400   71.9670  220.1340 C   0  0  0  0  0  0  0  0  0  0  0  0
  143.2240   72.8160  220.8470 C   0  0  0  0  0  0  0  0  0  0  0  0
  141.9360   72.4530  221.1750 C   0  0  0  0  0  0  0  0  0  0  0  0
  141.3900   71.2220  220.8100 C   0  0  0  0  0  0  0  0  0  0  0  0
  140.0260   70.8710  221.1730 C   0  0  0  0  0  0  0  0  0  0  0  0
  139.3900   71.3360  222.2290 C   0  0  0  0  0  0  0  0  0  0  0  0
  139.6050   70.7170  223.5320 C   0  0  0  0  0  0  0  0  0  0  0  0
  140.1710   71.4870  224.4970 N   0  0  0  0  0  0  0  0  0  0  0  0
  140.4210   71.0290  225.7280 C   0  0  0  0  0  0  0  0  0  0  0  0
  141.0000   71.8250  226.7020 C   0  0  0  0  0  0  0  0  0  0  0  0
  141.2460   71.3250  227.9680 C   0  0  0  0  0  0  0  0  0  0  0  0
  140.9000   70.0130  228.2350 C   0  0  0  0  0  0  0  0  0  0  0  0
  140.3230   69.2170  227.2660 C   0  0  0  0  0  0  0  0  0  0  0  0
  140.0810   69.7280  226.0020 C   0  0  0  0  0  0  0  0  0  0  0  0
  139.5040   68.9660  225.0020 C   0  0  0  0  0  0  0  0  0  0  0  0
  139.2100   67.7840  225.3090 O   0  0  0  0  0  0  0  0  0  0  0  0
  139.2580   69.4200  223.7820 N   0  0  0  0  0  0  0  0  0  0  0  0
  138.6790   68.6680  222.6950 C   0  0  0  0  0  0  0  0  0  0  0  0
  137.2120   68.9330  222.5370 C   0  0  0  0  0  0  0  0  0  0  0  0
  136.6610   69.2610  223.9170 C   0  0  0  0  0  0  0  0  0  0  0  0
  135.1810   69.5410  223.7340 C   0  0  0  0  0  0  0  0  0  0  0  0
  134.5180   68.2570  223.3370 C   0  0  0  0  0  0  0  0  0  0  0  0
  135.0350   67.8490  221.9750 C   0  0  0  0  0  0  0  0  0  0  0  0
  136.5450   67.7040  221.9800 C   0  0  0  0  0  0  0  0  0  0  0  0
  142.2290   70.3910  220.0940 C   0  0  0  0  0  0  0  0  0  0  0  0
  143.5180   70.7520  219.7650 C   0  0  0  0  0  0  0  0  0  0  0  0
  146.0130   74.1410  218.3220 H   0  0  0  0  0  0  0  0  0  0  0  0
  144.6570   73.2970  217.8730 H   0  0  0  0  0  0  0  0  0  0  0  0
  143.6060   73.7990  221.1596 H   0  0  0  0  0  0  0  0  0  0  0  0
  141.3154   73.1596  221.7456 H   0  0  0  0  0  0  0  0  0  0  0  0
  139.4877   70.1681  220.5202 H   0  0  0  0  0  0  0  0  0  0  0  0
  138.7002   72.1869  222.1284 H   0  0  0  0  0  0  0  0  0  0  0  0
  141.2671   72.8658  226.4665 H   0  0  0  0  0  0  0  0  0  0  0  0
  141.7056   71.9555  228.7434 H   0  0  0  0  0  0  0  0  0  0  0  0
  141.0876   69.5969  229.2358 H   0  0  0  0  0  0  0  0  0  0  0  0
  140.0552   68.1757  227.4982 H   0  0  0  0  0  0  0  0  0  0  0  0
  139.1909   68.9447  221.7615 H   0  0  0  0  0  0  0  0  0  0  0  0
  138.8051   67.5989  222.9211 H   0  0  0  0  0  0  0  0  0  0  0  0
  137.0257   69.7689  221.8467 H   0  0  0  0  0  0  0  0  0  0  0  0
  136.8053   68.4081  224.5965 H   0  0  0  0  0  0  0  0  0  0  0  0
  137.1784   70.1264  224.3568 H   0  0  0  0  0  0  0  0  0  0  0  0
  134.7502   69.9087  224.6770 H   0  0  0  0  0  0  0  0  0  0  0  0
  135.0276   70.3080  222.9606 H   0  0  0  0  0  0  0  0  0  0  0  0
  134.7546   67.4745  224.0730 H   0  0  0  0  0  0  0  0  0  0  0  0
  133.4270   68.3926  223.3001 H   0  0  0  0  0  0  0  0  0  0  0  0
  134.5834   66.8862  221.6939 H   0  0  0  0  0  0  0  0  0  0  0  0
  134.7635   68.6319  221.2515 H   0  0  0  0  0  0  0  0  0  0  0  0
  136.8194   66.8364  222.5981 H   0  0  0  0  0  0  0  0  0  0  0  0
  136.8834   67.5661  220.9424 H   0  0  0  0  0  0  0  0  0  0  0  0
  141.8556   69.4067  219.7751 H   0  0  0  0  0  0  0  0  0  0  0  0
  144.1431   70.0501  219.1934 H   0  0  0  0  0  0  0  0  0  0  0  0
  1  2  1  0
  2  3  2  0
  2  4  2  0
  2  5  1  0
  5  6  2  0
  6  7  1  0
  7  8  2  0
  8  9  1  0
  9 10  2  0
 10 11  1  0
 11 12  2  0
 12 13  1  0
 13 14  2  0
 14 15  1  0
 15 16  2  0
 16 17  1  0
 17 18  2  0
 18 19  1  0
 19 20  2  0
 19 21  1  0
 21 22  1  0
 22 23  1  0
 23 24  1  0
 24 25  1  0
 25 26  1  0
 26 27  1  0
 27 28  1  0
  8 29  1  0
 29 30  2  0
 30  5  1  0
 21 11  1  0
 28 23  1  0
 18 13  1  0
  1 31  1  0
  1 32  1  0
  6 33  1  0
  7 34  1  0
  9 35  1  0
 10 36  1  0
 14 37  1  0
 15 38  1  0
 16 39  1  0
 17 40  1  0
 22 41  1  0
 22 42  1  0
 23 43  1  0
 24 44  1  0
 24 45  1  0
 25 46  1  0
 25 47  1  0
 26 48  1  0
 26 49  1  0
 27 50  1  0
 27 51  1  0
 28 52  1  0
 28 53  1  0
 29 54  1  0
 30 55  1  0
M  END
>  <smiles>  (50) 
NS(=O)(=O)c1ccc(/C=C/c2nc3ccccc3c(=O)n2CC2CCCCC2)cc1

>  <score_type>  (50) 
oracle

>  <origin>  (50) 
autodockgpu

>  <m_score__min__energy>  (50) 
-9.2400000000000002

>  <m_primary>  (50) 
energy

>  <rmsd>  (50) 
11.540988459372976

>  <m_score__min__rmsd>  (50) 
11.540988459372976

>  <meeko>  (50) 
{"free_energy": -8.59, "intermolecular_energy": -10.68, "internal_energy": -1.3, "cluster_size": 16, "cluster_id": 1, "rank_in_cluster": 10}

>  <energy>  (50) 
-7.17

>  <cluster_rmsd>  (50) 
0.92

>  <cluster>  (50) 
10

$$$$
