
     RDKit          3D

 55 58  0  0  0  0  0  0  0  0999 V2000
  146.3380   73.4640  219.1830 N   0  0  0  0  0  0  0  0  0  0  0  0
  145.2000   73.5070  220.4870 S   0  0  0  0  0  0  0  0  0  0  0  0
  145.9660   73.3180  221.7690 O   0  0  0  0  0  0  0  0  0  0  0  0
  144.5460   74.8550  220.5710 O   0  0  0  0  0  0  0  0  0  0  0  0
  144.0080   72.2340  220.3260 C   0  0  0  0  0  0  0  0  0  0  0  0
  144.3880   71.0390  219.7470 C   0  0  0  0  0  0  0  0  0  0  0  0
  143.4230   70.0660  219.6380 C   0  0  0  0  0  0  0  0  0  0  0  0
  142.1330   70.2650  220.0850 C   0  0  0  0  0  0  0  0  0  0  0  0
  141.7440   71.4520  220.6640 C   0  0  0  0  0  0  0  0  0  0  0  0
  140.3920   71.7040  221.1490 C   0  0  0  0  0  0  0  0  0  0  0  0
  140.1060   72.1670  222.3410 C   0  0  0  0  0  0  0  0  0  0  0  0
  140.0100   71.2550  223.4920 C   0  0  0  0  0  0  0  0  0  0  0  0
  140.5700   71.6670  224.6640 N   0  0  0  0  0  0  0  0  0  0  0  0
  140.5550   70.9330  225.7860 C   0  0  0  0  0  0  0  0  0  0  0  0
  141.1300   71.3780  226.9560 C   0  0  0  0  0  0  0  0  0  0  0  0
  141.0690   70.5550  228.0660 C   0  0  0  0  0  0  0  0  0  0  0  0
  140.4580   69.3160  228.0470 C   0  0  0  0  0  0  0  0  0  0  0  0
  140.3920   68.5030  229.1300 F   0  0  0  0  0  0  0  0  0  0  0  0
  139.8860   68.8930  226.8490 C   0  0  0  0  0  0  0  0  0  0  0  0
  139.9310   69.7010  225.7130 C   0  0  0  0  0  0  0  0  0  0  0  0
  139.3670   69.2870  224.5280 C   0  0  0  0  0  0  0  0  0  0  0  0
  138.8130   68.1530  224.5340 O   0  0  0  0  0  0  0  0  0  0  0  0
  139.3960   70.0530  223.4000 N   0  0  0  0  0  0  0  0  0  0  0  0
  138.8200   69.6180  222.1600 C   0  0  0  0  0  0  0  0  0  0  0  0
  137.3550   69.7950  222.0040 C   0  0  0  0  0  0  0  0  0  0  0  0
  137.1380   71.3130  221.8960 C   0  0  0  0  0  0  0  0  0  0  0  0
  135.7950   71.6980  222.4310 C   0  0  0  0  0  0  0  0  0  0  0  0
  135.7540   71.4350  223.9120 C   0  0  0  0  0  0  0  0  0  0  0  0
  136.3420   70.0850  224.2750 C   0  0  0  0  0  0  0  0  0  0  0  0
  136.4900   69.1990  223.0610 C   0  0  0  0  0  0  0  0  0  0  0  0
  142.7170   72.4320  220.7730 C   0  0  0  0  0  0  0  0  0  0  0  0
  147.1180   74.0990  219.4320 H   0  0  0  0  0  0  0  0  0  0  0  0
  145.8160   73.7300  218.3230 H   0  0  0  0  0  0  0  0  0  0  0  0
  145.4151   70.8735  219.3897 H   0  0  0  0  0  0  0  0  0  0  0  0
  143.6870   69.1008  219.1812 H   0  0  0  0  0  0  0  0  0  0  0  0
  141.3968   69.4550  219.9761 H   0  0  0  0  0  0  0  0  0  0  0  0
  139.5551   71.4909  220.4677 H   0  0  0  0  0  0  0  0  0  0  0  0
  139.9365   73.2446  222.4823 H   0  0  0  0  0  0  0  0  0  0  0  0
  141.6236   72.3598  227.0061 H   0  0  0  0  0  0  0  0  0  0  0  0
  141.5266   70.9019  229.0042 H   0  0  0  0  0  0  0  0  0  0  0  0
  139.3934   67.9108  226.7985 H   0  0  0  0  0  0  0  0  0  0  0  0
  139.3109   70.1781  221.3505 H   0  0  0  0  0  0  0  0  0  0  0  0
  138.9829   68.5305  222.1329 H   0  0  0  0  0  0  0  0  0  0  0  0
  137.0368   69.2342  221.1128 H   0  0  0  0  0  0  0  0  0  0  0  0
  137.9180   71.8306  222.4736 H   0  0  0  0  0  0  0  0  0  0  0  0
  137.1908   71.6018  220.8359 H   0  0  0  0  0  0  0  0  0  0  0  0
  135.6175   72.7672  222.2429 H   0  0  0  0  0  0  0  0  0  0  0  0
  135.0157   71.1047  221.9303 H   0  0  0  0  0  0  0  0  0  0  0  0
  136.3275   72.2202  224.4264 H   0  0  0  0  0  0  0  0  0  0  0  0
  134.6993   71.4368  224.2243 H   0  0  0  0  0  0  0  0  0  0  0  0
  137.3324   70.2373  224.7288 H   0  0  0  0  0  0  0  0  0  0  0  0
  135.6585   69.5904  224.9809 H   0  0  0  0  0  0  0  0  0  0  0  0
  136.9323   68.2428  223.3773 H   0  0  0  0  0  0  0  0  0  0  0  0
  135.4876   69.0660  222.6280 H   0  0  0  0  0  0  0  0  0  0  0  0
  142.4529   73.3973  221.2296 H   0  0  0  0  0  0  0  0  0  0  0  0
  1  2  1  0
  2  3  2  0
  2  4  2  0
  2  5  1  0
  5  6  2  0
  6  7  1  0
  7  8  2  0
  8  9  1  0
  9 10  1  0
 10 11  2  0
 11 12  1  0
 12 13  2  0
 13 14  1  0
 14 15  2  0
 15 16  1  0
 16 17  2  0
 17 18  1  0
 17 19  1  0
 19 20  2  0
 20 21  1  0
 21 22  2  0
 21 23  1  0
 23 24  1  0
 24 25  1  0
 25 26  1  0
 26 27  1  0
 27 28  1  0
 28 29  1  0
 29 30  1  0
  9 31  2  0
 31  5  1  0
 23 12  1  0
 30 25  1  0
 20 14  1  0
  1 32  1  0
  1 33  1  0
  6 34  1  0
  7 35  1  0
  8 36  1  0
 10 37  1  0
 11 38  1  0
 15 39  1  0
 16 40  1  0
 19 41  1  0
 24 42  1  0
 24 43  1  0
 25 44  1  0
 26 45  1  0
 26 46  1  0
 27 47  1  0
 27 48  1  0
 28 49  1  0
 28 50  1  0
 29 51  1  0
 29 52  1  0
 30 53  1  0
 30 54  1  0
 31 55  1  0
M  END
>  <smiles>  (1) 
NS(=O)(=O)c1cccc(/C=C/c2nc3ccc(F)cc3c(=O)n2CC2CCCCC2)c1

>  <score_type>  (1) 
oracle

>  <origin>  (1) 
autodockgpu

>  <m_score__min__energy>  (1) 
-9.2799999999999994

>  <m_primary>  (1) 
energy

>  <rmsd>  (1) 
10.373717295545061

>  <m_score__min__rmsd>  (1) 
10.373717295545061

>  <meeko>  (1) 
{"free_energy": -8.55, "intermolecular_energy": -10.63, "internal_energy": -1.31, "cluster_size": 31, "cluster_id": 1, "rank_in_cluster": 15}

>  <energy>  (1) 
-9.28

>  <cluster_rmsd>  (1) 
0.0

>  <cluster>  (1) 
1

$$$$

     RDKit          3D

 55 58  0  0  0  0  0  0  0  0999 V2000
  139.5780   68.7070  227.8170 N   0  0  0  0  0  0  0  0  0  0  0  0
  140.0290   68.3960  226.1740 S   0  0  0  0  0  0  0  0  0  0  0  0
  141.5320   68.4180  226.1000 O   0  0  0  0  0  0  0  0  0  0  0  0
  139.5990   67.0180  225.7620 O   0  0  0  0  0  0  0  0  0  0  0  0
  139.3720   69.6110  225.0980 C   0  0  0  0  0  0  0  0  0  0  0  0
  138.0010   69.7620  225.0270 C   0  0  0  0  0  0  0  0  0  0  0  0
  137.5250   70.7270  224.1700 C   0  0  0  0  0  0  0  0  0  0  0  0
  138.3700   71.5120  223.4150 C   0  0  0  0  0  0  0  0  0  0  0  0
  139.7390   71.3710  223.4790 C   0  0  0  0  0  0  0  0  0  0  0  0
  140.6670   72.1800  222.6980 C   0  0  0  0  0  0  0  0  0  0  0  0
  140.3480   72.8290  221.6060 C   0  0  0  0  0  0  0  0  0  0  0  0
  140.6260   74.2690  221.4840 C   0  0  0  0  0  0  0  0  0  0  0  0
  139.8010   75.1230  222.1520 N   0  0  0  0  0  0  0  0  0  0  0  0
  139.9430   76.4560  222.1250 C   0  0  0  0  0  0  0  0  0  0  0  0
  139.0920   77.2940  222.8120 C   0  0  0  0  0  0  0  0  0  0  0  0
  139.3110   78.6570  222.7270 C   0  0  0  0  0  0  0  0  0  0  0  0
  140.3410   79.2050  221.9870 C   0  0  0  0  0  0  0  0  0  0  0  0
  140.5640   80.5400  221.8990 F   0  0  0  0  0  0  0  0  0  0  0  0
  141.1850   78.3330  221.3040 C   0  0  0  0  0  0  0  0  0  0  0  0
  140.9890   76.9540  221.3700 C   0  0  0  0  0  0  0  0  0  0  0  0
  141.8210   76.0880  220.6960 C   0  0  0  0  0  0  0  0  0  0  0  0
  142.7560   76.6110  220.0290 O   0  0  0  0  0  0  0  0  0  0  0  0
  141.6550   74.7350  220.7410 N   0  0  0  0  0  0  0  0  0  0  0  0
  142.5130   73.8320  220.0280 C   0  0  0  0  0  0  0  0  0  0  0  0
  143.5540   73.1330  220.8200 C   0  0  0  0  0  0  0  0  0  0  0  0
  144.8730   73.8430  220.4750 C   0  0  0  0  0  0  0  0  0  0  0  0
  146.0300   72.9010  220.5860 C   0  0  0  0  0  0  0  0  0  0  0  0
  145.9110   71.8380  219.5290 C   0  0  0  0  0  0  0  0  0  0  0  0
  144.5040   71.2810  219.4260 C   0  0  0  0  0  0  0  0  0  0  0  0
  143.6680   71.6600  220.6270 C   0  0  0  0  0  0  0  0  0  0  0  0
  140.2170   70.3990  224.3430 C   0  0  0  0  0  0  0  0  0  0  0  0
  140.2290   69.4230  228.1850 H   0  0  0  0  0  0  0  0  0  0  0  0
  139.6080   67.7930  228.3120 H   0  0  0  0  0  0  0  0  0  0  0  0
  137.3214   69.1396  225.6277 H   0  0  0  0  0  0  0  0  0  0  0  0
  136.4386   70.8766  224.0847 H   0  0  0  0  0  0  0  0  0  0  0  0
  137.9402   72.2705  222.7442 H   0  0  0  0  0  0  0  0  0  0  0  0
  141.7068   72.2501  223.0501 H   0  0  0  0  0  0  0  0  0  0  0  0
  139.8685   72.2934  220.7734 H   0  0  0  0  0  0  0  0  0  0  0  0
  138.2622   76.8906  223.4109 H   0  0  0  0  0  0  0  0  0  0  0  0
  138.6363   79.3336  223.2719 H   0  0  0  0  0  0  0  0  0  0  0  0
  142.0154   78.7364  220.7059 H   0  0  0  0  0  0  0  0  0  0  0  0
  141.8762   73.0643  219.5642 H   0  0  0  0  0  0  0  0  0  0  0  0
  143.0671   74.4624  219.3170 H   0  0  0  0  0  0  0  0  0  0  0  0
  143.2757   73.1993  221.8822 H   0  0  0  0  0  0  0  0  0  0  0  0
  144.8175   74.2259  219.4453 H   0  0  0  0  0  0  0  0  0  0  0  0
  145.0234   74.6702  221.1843 H   0  0  0  0  0  0  0  0  0  0  0  0
  146.9696   73.4554  220.4450 H   0  0  0  0  0  0  0  0  0  0  0  0
  146.0281   72.4320  221.5810 H   0  0  0  0  0  0  0  0  0  0  0  0
  146.1911   72.2723  218.5580 H   0  0  0  0  0  0  0  0  0  0  0  0
  146.5800   71.0106  219.8082 H   0  0  0  0  0  0  0  0  0  0  0  0
  144.0273   71.6801  218.5185 H   0  0  0  0  0  0  0  0  0  0  0  0
  144.5698   70.1838  219.3841 H   0  0  0  0  0  0  0  0  0  0  0  0
  142.6578   71.2452  220.4950 H   0  0  0  0  0  0  0  0  0  0  0  0
  144.1689   71.2510  221.5168 H   0  0  0  0  0  0  0  0  0  0  0  0
  141.3035   70.2508  224.4299 H   0  0  0  0  0  0  0  0  0  0  0  0
  1  2  1  0
  2  3  2  0
  2  4  2  0
  2  5  1  0
  5  6  2  0
  6  7  1  0
  7  8  2  0
  8  9  1  0
  9 10  1  0
 10 11  2  0
 11 12  1  0
 12 13  2  0
 13 14  1  0
 14 15  2  0
 15 16  1  0
 16 17  2  0
 17 18  1  0
 17 19  1  0
 19 20  2  0
 20 21  1  0
 21 22  2  0
 21 23  1  0
 23 24  1  0
 24 25  1  0
 25 26  1  0
 26 27  1  0
 27 28  1  0
 28 29  1  0
 29 30  1  0
  9 31  2  0
 31  5  1  0
 23 12  1  0
 30 25  1  0
 20 14  1  0
  1 32  1  0
  1 33  1  0
  6 34  1  0
  7 35  1  0
  8 36  1  0
 10 37  1  0
 11 38  1  0
 15 39  1  0
 16 40  1  0
 19 41  1  0
 24 42  1  0
 24 43  1  0
 25 44  1  0
 26 45  1  0
 26 46  1  0
 27 47  1  0
 27 48  1  0
 28 49  1  0
 28 50  1  0
 29 51  1  0
 29 52  1  0
 30 53  1  0
 30 54  1  0
 31 55  1  0
M  END
>  <smiles>  (2) 
NS(=O)(=O)c1cccc(/C=C/c2nc3ccc(F)cc3c(=O)n2CC2CCCCC2)c1

>  <score_type>  (2) 
oracle

>  <origin>  (2) 
autodockgpu

>  <m_score__min__energy>  (2) 
-9.2799999999999994

>  <m_primary>  (2) 
energy

>  <rmsd>  (2) 
5.500950407752359

>  <m_score__min__rmsd>  (2) 
5.500950407752359

>  <meeko>  (2) 
{"free_energy": -8.09, "intermolecular_energy": -10.18, "internal_energy": -1.3, "cluster_size": 3, "cluster_id": 2, "rank_in_cluster": 2}

>  <energy>  (2) 
-9.2

>  <cluster_rmsd>  (2) 
0.19

>  <cluster>  (2) 
1

$$$$

     RDKit          3D

 55 58  0  0  0  0  0  0  0  0999 V2000
  145.9510   73.3900  218.6850 N   0  0  0  0  0  0  0  0  0  0  0  0
  145.1820   72.8280  220.1300 S   0  0  0  0  0  0  0  0  0  0  0  0
  144.9570   71.3470  219.9830 O   0  0  0  0  0  0  0  0  0  0  0  0
  146.0880   73.0090  221.3140 O   0  0  0  0  0  0  0  0  0  0  0  0
  143.6450   73.6290  220.3810 C   0  0  0  0  0  0  0  0  0  0  0  0
  143.4360   74.8610  219.7920 C   0  0  0  0  0  0  0  0  0  0  0  0
  142.2170   75.4580  220.0130 C   0  0  0  0  0  0  0  0  0  0  0  0
  141.2430   74.8610  220.7860 C   0  0  0  0  0  0  0  0  0  0  0  0
  141.4410   73.6330  221.3770 C   0  0  0  0  0  0  0  0  0  0  0  0
  140.4380   72.9670  222.2000 C   0  0  0  0  0  0  0  0  0  0  0  0
  140.1360   71.6950  222.1180 C   0  0  0  0  0  0  0  0  0  0  0  0
  140.0840   70.8610  223.3290 C   0  0  0  0  0  0  0  0  0  0  0  0
  140.5790   71.3980  224.4790 N   0  0  0  0  0  0  0  0  0  0  0  0
  140.5940   70.7460  225.6510 C   0  0  0  0  0  0  0  0  0  0  0  0
  141.1010   71.3170  226.7970 C   0  0  0  0  0  0  0  0  0  0  0  0
  141.0770   70.5710  227.9620 C   0  0  0  0  0  0  0  0  0  0  0  0
  140.5680   69.2870  228.0190 C   0  0  0  0  0  0  0  0  0  0  0  0
  140.5400   68.5490  229.1560 F   0  0  0  0  0  0  0  0  0  0  0  0
  140.0630   68.7370  226.8430 C   0  0  0  0  0  0  0  0  0  0  0  0
  140.0730   69.4640  225.6540 C   0  0  0  0  0  0  0  0  0  0  0  0
  139.5740   68.9240  224.4900 C   0  0  0  0  0  0  0  0  0  0  0  0
  139.1130   67.7520  224.5660 O   0  0  0  0  0  0  0  0  0  0  0  0
  139.5710   69.6100  223.3110 N   0  0  0  0  0  0  0  0  0  0  0  0
  139.0640   69.0430  222.0940 C   0  0  0  0  0  0  0  0  0  0  0  0
  137.5980   69.1190  221.8800 C   0  0  0  0  0  0  0  0  0  0  0  0
  137.3490   70.5020  221.2560 C   0  0  0  0  0  0  0  0  0  0  0  0
  135.9910   71.0140  221.6200 C   0  0  0  0  0  0  0  0  0  0  0  0
  135.9370   71.2750  223.1010 C   0  0  0  0  0  0  0  0  0  0  0  0
  136.5500   70.1470  223.9090 C   0  0  0  0  0  0  0  0  0  0  0  0
  136.7330   68.9020  223.0730 C   0  0  0  0  0  0  0  0  0  0  0  0
  142.6690   73.0330  221.1530 C   0  0  0  0  0  0  0  0  0  0  0  0
  146.8380   73.8460  218.9630 H   0  0  0  0  0  0  0  0  0  0  0  0
  145.2690   74.0150  218.2080 H   0  0  0  0  0  0  0  0  0  0  0  0
  144.2089   75.3422  219.1748 H   0  0  0  0  0  0  0  0  0  0  0  0
  142.0129   76.4396  219.5604 H   0  0  0  0  0  0  0  0  0  0  0  0
  140.2839   75.3789  220.9341 H   0  0  0  0  0  0  0  0  0  0  0  0
  139.8978   73.5748  222.9408 H   0  0  0  0  0  0  0  0  0  0  0  0
  139.9197   71.2472  221.1368 H   0  0  0  0  0  0  0  0  0  0  0  0
  141.5132   72.3368  226.7865 H   0  0  0  0  0  0  0  0  0  0  0  0
  141.4802   71.0188  228.8823 H   0  0  0  0  0  0  0  0  0  0  0  0
  139.6515   67.7169  226.8529 H   0  0  0  0  0  0  0  0  0  0  0  0
  139.5500   69.5645  221.2562 H   0  0  0  0  0  0  0  0  0  0  0  0
  139.2895   67.9685  222.1615 H   0  0  0  0  0  0  0  0  0  0  0  0
  137.3042   68.2782  221.2345 H   0  0  0  0  0  0  0  0  0  0  0  0
  138.1101   71.2058  221.6241 H   0  0  0  0  0  0  0  0  0  0  0  0
  137.4088   70.4102  220.1615 H   0  0  0  0  0  0  0  0  0  0  0  0
  135.7927   71.9487  221.0749 H   0  0  0  0  0  0  0  0  0  0  0  0
  135.2312   70.2657  221.3503 H   0  0  0  0  0  0  0  0  0  0  0  0
  136.4865   72.2032  223.3165 H   0  0  0  0  0  0  0  0  0  0  0  0
  134.8786   71.3575  223.3889 H   0  0  0  0  0  0  0  0  0  0  0  0
  137.5309   70.4706  224.2874 H   0  0  0  0  0  0  0  0  0  0  0  0
  135.8690   69.9079  224.7391 H   0  0  0  0  0  0  0  0  0  0  0  0
  137.1916   68.1236  223.7006 H   0  0  0  0  0  0  0  0  0  0  0  0
  135.7392   68.6048  222.7069 H   0  0  0  0  0  0  0  0  0  0  0  0
  142.8725   72.0508  221.6046 H   0  0  0  0  0  0  0  0  0  0  0  0
  1  2  1  0
  2  3  2  0
  2  4  2  0
  2  5  1  0
  5  6  2  0
  6  7  1  0
  7  8  2  0
  8  9  1  0
  9 10  1  0
 10 11  2  0
 11 12  1  0
 12 13  2  0
 13 14  1  0
 14 15  2  0
 15 16  1  0
 16 17  2  0
 17 18  1  0
 17 19  1  0
 19 20  2  0
 20 21  1  0
 21 22  2  0
 21 23  1  0
 23 24  1  0
 24 25  1  0
 25 26  1  0
 26 27  1  0
 27 28  1  0
 28 29  1  0
 29 30  1  0
  9 31  2  0
 31  5  1  0
 23 12  1  0
 30 25  1  0
 20 14  1  0
  1 32  1  0
  1 33  1  0
  6 34  1  0
  7 35  1  0
  8 36  1  0
 10 37  1  0
 11 38  1  0
 15 39  1  0
 16 40  1  0
 19 41  1  0
 24 42  1  0
 24 43  1  0
 25 44  1  0
 26 45  1  0
 26 46  1  0
 27 47  1  0
 27 48  1  0
 28 49  1  0
 28 50  1  0
 29 51  1  0
 29 52  1  0
 30 53  1  0
 30 54  1  0
 31 55  1  0
M  END
>  <smiles>  (3) 
NS(=O)(=O)c1cccc(/C=C/c2nc3ccc(F)cc3c(=O)n2CC2CCCCC2)c1

>  <score_type>  (3) 
oracle

>  <origin>  (3) 
autodockgpu

>  <m_score__min__energy>  (3) 
-9.2799999999999994

>  <m_primary>  (3) 
energy

>  <rmsd>  (3) 
10.43661034647423

>  <m_score__min__rmsd>  (3) 
10.43661034647423

>  <meeko>  (3) 
{"free_energy": -8.73, "intermolecular_energy": -10.82, "internal_energy": -1.62, "cluster_size": 31, "cluster_id": 1, "rank_in_cluster": 10}

>  <energy>  (3) 
-9.16

>  <cluster_rmsd>  (3) 
0.49

>  <cluster>  (3) 
1

$$$$

     RDKit          3D

 55 58  0  0  0  0  0  0  0  0999 V2000
  139.4770   67.0160  226.7930 N   0  0  0  0  0  0  0  0  0  0  0  0
  139.9440   68.6790  226.9070 S   0  0  0  0  0  0  0  0  0  0  0  0
  139.3570   69.2330  228.1780 O   0  0  0  0  0  0  0  0  0  0  0  0
  141.4350   68.8000  227.0340 O   0  0  0  0  0  0  0  0  0  0  0  0
  139.3480   69.5970  225.5410 C   0  0  0  0  0  0  0  0  0  0  0  0
  138.0020   69.5380  225.2390 C   0  0  0  0  0  0  0  0  0  0  0  0
  137.5740   70.2730  224.1580 C   0  0  0  0  0  0  0  0  0  0  0  0
  138.4420   71.0370  223.4060 C   0  0  0  0  0  0  0  0  0  0  0  0
  139.7860   71.1030  223.6990 C   0  0  0  0  0  0  0  0  0  0  0  0
  140.7370   71.8980  222.9300 C   0  0  0  0  0  0  0  0  0  0  0  0
  140.5300   72.3240  221.7080 C   0  0  0  0  0  0  0  0  0  0  0  0
  141.0070   73.6520  221.2910 C   0  0  0  0  0  0  0  0  0  0  0  0
  140.5080   74.7320  221.9540 N   0  0  0  0  0  0  0  0  0  0  0  0
  140.8570   75.9960  221.6740 C   0  0  0  0  0  0  0  0  0  0  0  0
  140.3330   77.0680  222.3630 C   0  0  0  0  0  0  0  0  0  0  0  0
  140.7490   78.3380  222.0060 C   0  0  0  0  0  0  0  0  0  0  0  0
  141.6610   78.5700  220.9940 C   0  0  0  0  0  0  0  0  0  0  0  0
  142.0750   79.8120  220.6380 F   0  0  0  0  0  0  0  0  0  0  0  0
  142.1720   77.4670  220.3150 C   0  0  0  0  0  0  0  0  0  0  0  0
  141.7720   76.1740  220.6530 C   0  0  0  0  0  0  0  0  0  0  0  0
  142.2760   75.0820  219.9840 C   0  0  0  0  0  0  0  0  0  0  0  0
  143.1080   75.3180  219.0660 O   0  0  0  0  0  0  0  0  0  0  0  0
  141.9030   73.8050  220.2900 N   0  0  0  0  0  0  0  0  0  0  0  0
  142.4170   72.6660  219.5850 C   0  0  0  0  0  0  0  0  0  0  0  0
  143.6800   72.0770  220.0940 C   0  0  0  0  0  0  0  0  0  0  0  0
  144.2020   73.0750  221.1400 C   0  0  0  0  0  0  0  0  0  0  0  0
  145.6960   73.0320  221.2180 C   0  0  0  0  0  0  0  0  0  0  0  0
  146.2770   73.5330  219.9230 C   0  0  0  0  0  0  0  0  0  0  0  0
  145.5770   72.9490  218.7110 C   0  0  0  0  0  0  0  0  0  0  0  0
  144.7260   71.7570  219.0830 C   0  0  0  0  0  0  0  0  0  0  0  0
  140.2160   70.3630  224.7880 C   0  0  0  0  0  0  0  0  0  0  0  0
  138.8100   66.8280  227.5640 H   0  0  0  0  0  0  0  0  0  0  0  0
  140.3530   66.4570  226.8270 H   0  0  0  0  0  0  0  0  0  0  0  0
  137.3044   68.9314  225.8352 H   0  0  0  0  0  0  0  0  0  0  0  0
  136.5086   70.2509  223.8853 H   0  0  0  0  0  0  0  0  0  0  0  0
  138.0509   71.6078  222.5509 H   0  0  0  0  0  0  0  0  0  0  0  0
  141.6929   72.1576  223.4083 H   0  0  0  0  0  0  0  0  0  0  0  0
  139.9962   71.6846  220.9895 H   0  0  0  0  0  0  0  0  0  0  0  0
  139.6048   76.9182  223.1737 H   0  0  0  0  0  0  0  0  0  0  0  0
  140.3363   79.1999  222.5508 H   0  0  0  0  0  0  0  0  0  0  0  0
  142.8990   77.6168  219.5032 H   0  0  0  0  0  0  0  0  0  0  0  0
  141.6475   71.8806  219.6161 H   0  0  0  0  0  0  0  0  0  0  0  0
  142.6581   73.0363  218.5777 H   0  0  0  0  0  0  0  0  0  0  0  0
  143.4518   71.0815  220.5026 H   0  0  0  0  0  0  0  0  0  0  0  0
  143.8848   74.0902  220.8593 H   0  0  0  0  0  0  0  0  0  0  0  0
  143.7901   72.8026  222.1229 H   0  0  0  0  0  0  0  0  0  0  0  0
  146.0391   73.6700  222.0457 H   0  0  0  0  0  0  0  0  0  0  0  0
  146.0259   71.9975  221.3938 H   0  0  0  0  0  0  0  0  0  0  0  0
  146.1806   74.6283  219.8929 H   0  0  0  0  0  0  0  0  0  0  0  0
  147.3308   73.2199  219.8849 H   0  0  0  0  0  0  0  0  0  0  0  0
  144.9342   73.7211  218.2631 H   0  0  0  0  0  0  0  0  0  0  0  0
  146.3444   72.6154  217.9970 H   0  0  0  0  0  0  0  0  0  0  0  0
  144.2315   71.3830  218.1744 H   0  0  0  0  0  0  0  0  0  0  0  0
  145.3932   71.0047  219.5290 H   0  0  0  0  0  0  0  0  0  0  0  0
  141.2812   70.3861  225.0614 H   0  0  0  0  0  0  0  0  0  0  0  0
  1  2  1  0
  2  3  2  0
  2  4  2  0
  2  5  1  0
  5  6  2  0
  6  7  1  0
  7  8  2  0
  8  9  1  0
  9 10  1  0
 10 11  2  0
 11 12  1  0
 12 13  2  0
 13 14  1  0
 14 15  2  0
 15 16  1  0
 16 17  2  0
 17 18  1  0
 17 19  1  0
 19 20  2  0
 20 21  1  0
 21 22  2  0
 21 23  1  0
 23 24  1  0
 24 25  1  0
 25 26  1  0
 26 27  1  0
 27 28  1  0
 28 29  1  0
 29 30  1  0
  9 31  2  0
 31  5  1  0
 23 12  1  0
 30 25  1  0
 20 14  1  0
  1 32  1  0
  1 33  1  0
  6 34  1  0
  7 35  1  0
  8 36  1  0
 10 37  1  0
 11 38  1  0
 15 39  1  0
 16 40  1  0
 19 41  1  0
 24 42  1  0
 24 43  1  0
 25 44  1  0
 26 45  1  0
 26 46  1  0
 27 47  1  0
 27 48  1  0
 28 49  1  0
 28 50  1  0
 29 51  1  0
 29 52  1  0
 30 53  1  0
 30 54  1  0
 31 55  1  0
M  END
>  <smiles>  (4) 
NS(=O)(=O)c1cccc(/C=C/c2nc3ccc(F)cc3c(=O)n2CC2CCCCC2)c1

>  <score_type>  (4) 
oracle

>  <origin>  (4) 
autodockgpu

>  <m_score__min__energy>  (4) 
-9.2799999999999994

>  <m_primary>  (4) 
energy

>  <rmsd>  (4) 
5.9601046784543446

>  <m_score__min__rmsd>  (4) 
5.9601046784543446

>  <meeko>  (4) 
{"free_energy": -8.61, "intermolecular_energy": -10.7, "internal_energy": -1.38, "cluster_size": 1, "cluster_id": 3, "rank_in_cluster": 1}

>  <energy>  (4) 
-9.15

>  <cluster_rmsd>  (4) 
0.59

>  <cluster>  (4) 
1

$$$$

     RDKit          3D

 55 58  0  0  0  0  0  0  0  0999 V2000
  145.9930   73.7480  218.0880 N   0  0  0  0  0  0  0  0  0  0  0  0
  145.7270   73.1940  219.7070 S   0  0  0  0  0  0  0  0  0  0  0  0
  145.9500   71.7050  219.7230 O   0  0  0  0  0  0  0  0  0  0  0  0
  146.7410   73.7900  220.6410 O   0  0  0  0  0  0  0  0  0  0  0  0
  144.0960   73.5460  220.2350 C   0  0  0  0  0  0  0  0  0  0  0  0
  143.3230   72.5150  220.7320 C   0  0  0  0  0  0  0  0  0  0  0  0
  142.0470   72.8320  221.1360 C   0  0  0  0  0  0  0  0  0  0  0  0
  141.5550   74.1180  221.0530 C   0  0  0  0  0  0  0  0  0  0  0  0
  142.3170   75.1540  220.5600 C   0  0  0  0  0  0  0  0  0  0  0  0
  141.8360   76.5270  220.4550 C   0  0  0  0  0  0  0  0  0  0  0  0
  140.6430   76.8630  220.0320 C   0  0  0  0  0  0  0  0  0  0  0  0
  139.4820   76.7860  220.9330 C   0  0  0  0  0  0  0  0  0  0  0  0
  138.9460   75.5530  221.1580 N   0  0  0  0  0  0  0  0  0  0  0  0
  137.8890   75.3430  221.9550 C   0  0  0  0  0  0  0  0  0  0  0  0
  137.3710   74.0840  222.1630 C   0  0  0  0  0  0  0  0  0  0  0  0
  136.2770   73.9590  223.0000 C   0  0  0  0  0  0  0  0  0  0  0  0
  135.6900   75.0400  223.6310 C   0  0  0  0  0  0  0  0  0  0  0  0
  134.6190   74.9270  224.4540 F   0  0  0  0  0  0  0  0  0  0  0  0
  136.2360   76.3000  223.4020 C   0  0  0  0  0  0  0  0  0  0  0  0
  137.3390   76.4570  222.5620 C   0  0  0  0  0  0  0  0  0  0  0  0
  137.8810   77.7010  222.3330 C   0  0  0  0  0  0  0  0  0  0  0  0
  137.3310   78.6730  222.9210 O   0  0  0  0  0  0  0  0  0  0  0  0
  138.9590   77.8880  221.5170 N   0  0  0  0  0  0  0  0  0  0  0  0
  139.5170   79.1850  221.2660 C   0  0  0  0  0  0  0  0  0  0  0  0
  140.0080   79.9420  222.4440 C   0  0  0  0  0  0  0  0  0  0  0  0
  141.1200   80.8570  221.9060 C   0  0  0  0  0  0  0  0  0  0  0  0
  142.1440   81.1270  222.9630 C   0  0  0  0  0  0  0  0  0  0  0  0
  142.8640   79.8490  223.2990 C   0  0  0  0  0  0  0  0  0  0  0  0
  141.9140   78.6780  223.4640 C   0  0  0  0  0  0  0  0  0  0  0  0
  140.4830   79.1400  223.6070 C   0  0  0  0  0  0  0  0  0  0  0  0
  143.6020   74.8330  220.1540 C   0  0  0  0  0  0  0  0  0  0  0  0
  146.9550   74.1280  218.0460 H   0  0  0  0  0  0  0  0  0  0  0  0
  145.2410   74.4360  217.8810 H   0  0  0  0  0  0  0  0  0  0  0  0
  143.7100   71.4877  220.8015 H   0  0  0  0  0  0  0  0  0  0  0  0
  141.4005   72.0374  221.5367 H   0  0  0  0  0  0  0  0  0  0  0  0
  140.5276   74.3213  221.3892 H   0  0  0  0  0  0  0  0  0  0  0  0
  142.5215   77.3347  220.7511 H   0  0  0  0  0  0  0  0  0  0  0  0
  140.5078   77.2054  218.9954 H   0  0  0  0  0  0  0  0  0  0  0  0
  137.8149   73.2026  221.6771 H   0  0  0  0  0  0  0  0  0  0  0  0
  135.8562   72.9571  223.1708 H   0  0  0  0  0  0  0  0  0  0  0  0
  135.7930   77.1815  223.8886 H   0  0  0  0  0  0  0  0  0  0  0  0
  140.3647   79.0548  220.5773 H   0  0  0  0  0  0  0  0  0  0  0  0
  138.6853   79.7834  220.8659 H   0  0  0  0  0  0  0  0  0  0  0  0
  139.1561   80.4847  222.8795 H   0  0  0  0  0  0  0  0  0  0  0  0
  141.6065   80.3679  221.0492 H   0  0  0  0  0  0  0  0  0  0  0  0
  140.6715   81.8128  221.5974 H   0  0  0  0  0  0  0  0  0  0  0  0
  142.8667   81.8691  222.5929 H   0  0  0  0  0  0  0  0  0  0  0  0
  141.6481   81.5173  223.8640 H   0  0  0  0  0  0  0  0  0  0  0  0
  143.5718   79.6186  222.4891 H   0  0  0  0  0  0  0  0  0  0  0  0
  143.3835   79.9979  224.2571 H   0  0  0  0  0  0  0  0  0  0  0  0
  141.9926   78.0271  222.5807 H   0  0  0  0  0  0  0  0  0  0  0  0
  142.1933   78.1340  224.3784 H   0  0  0  0  0  0  0  0  0  0  0  0
  139.8379   78.2548  223.7085 H   0  0  0  0  0  0  0  0  0  0  0  0
  140.4351   79.7888  224.4940 H   0  0  0  0  0  0  0  0  0  0  0  0
  144.2490   75.6280  219.7547 H   0  0  0  0  0  0  0  0  0  0  0  0
  1  2  1  0
  2  3  2  0
  2  4  2  0
  2  5  1  0
  5  6  2  0
  6  7  1  0
  7  8  2  0
  8  9  1  0
  9 10  1  0
 10 11  2  0
 11 12  1  0
 12 13  2  0
 13 14  1  0
 14 15  2  0
 15 16  1  0
 16 17  2  0
 17 18  1  0
 17 19  1  0
 19 20  2  0
 20 21  1  0
 21 22  2  0
 21 23  1  0
 23 24  1  0
 24 25  1  0
 25 26  1  0
 26 27  1  0
 27 28  1  0
 28 29  1  0
 29 30  1  0
  9 31  2  0
 31  5  1  0
 23 12  1  0
 30 25  1  0
 20 14  1  0
  1 32  1  0
  1 33  1  0
  6 34  1  0
  7 35  1  0
  8 36  1  0
 10 37  1  0
 11 38  1  0
 15 39  1  0
 16 40  1  0
 19 41  1  0
 24 42  1  0
 24 43  1  0
 25 44  1  0
 26 45  1  0
 26 46  1  0
 27 47  1  0
 27 48  1  0
 28 49  1  0
 28 50  1  0
 29 51  1  0
 29 52  1  0
 30 53  1  0
 30 54  1  0
 31 55  1  0
M  END
>  <smiles>  (5) 
NS(=O)(=O)c1cccc(/C=C/c2nc3ccc(F)cc3c(=O)n2CC2CCCCC2)c1

>  <score_type>  (5) 
oracle

>  <origin>  (5) 
autodockgpu

>  <m_score__min__energy>  (5) 
-9.2799999999999994

>  <m_primary>  (5) 
energy

>  <rmsd>  (5) 
6.9335274911262825

>  <m_score__min__rmsd>  (5) 
6.9335274911262825

>  <meeko>  (5) 
{"free_energy": -7.91, "intermolecular_energy": -10.0, "internal_energy": -1.71, "cluster_size": 3, "cluster_id": 5, "rank_in_cluster": 2}

>  <energy>  (5) 
-9.09

>  <cluster_rmsd>  (5) 
1.17

>  <cluster>  (5) 
1

$$$$

     RDKit          3D

 55 58  0  0  0  0  0  0  0  0999 V2000
  146.0050   73.3740  218.6560 N   0  0  0  0  0  0  0  0  0  0  0  0
  145.2450   73.5420  220.2030 S   0  0  0  0  0  0  0  0  0  0  0  0
  146.2350   73.1060  221.2490 O   0  0  0  0  0  0  0  0  0  0  0  0
  144.9310   74.9830  220.4820 O   0  0  0  0  0  0  0  0  0  0  0  0
  143.8070   72.5480  220.3100 C   0  0  0  0  0  0  0  0  0  0  0  0
  143.7710   71.3570  219.6120 C   0  0  0  0  0  0  0  0  0  0  0  0
  142.6240   70.6060  219.7210 C   0  0  0  0  0  0  0  0  0  0  0  0
  141.5560   71.0160  220.4910 C   0  0  0  0  0  0  0  0  0  0  0  0
  141.5810   72.2010  221.1920 C   0  0  0  0  0  0  0  0  0  0  0  0
  140.4740   72.6710  222.0170 C   0  0  0  0  0  0  0  0  0  0  0  0
  139.4790   71.9190  222.4200 C   0  0  0  0  0  0  0  0  0  0  0  0
  139.6480   71.0100  223.5650 C   0  0  0  0  0  0  0  0  0  0  0  0
  140.1810   71.5330  224.7050 N   0  0  0  0  0  0  0  0  0  0  0  0
  140.3890   70.8160  225.8180 C   0  0  0  0  0  0  0  0  0  0  0  0
  140.9290   71.3740  226.9560 C   0  0  0  0  0  0  0  0  0  0  0  0
  141.1100   70.5590  228.0590 C   0  0  0  0  0  0  0  0  0  0  0  0
  140.7720   69.2190  228.0630 C   0  0  0  0  0  0  0  0  0  0  0  0
  140.9450   68.4130  229.1390 F   0  0  0  0  0  0  0  0  0  0  0  0
  140.2280   68.6830  226.8980 C   0  0  0  0  0  0  0  0  0  0  0  0
  140.0340   69.4800  225.7700 C   0  0  0  0  0  0  0  0  0  0  0  0
  139.4970   68.9540  224.6170 C   0  0  0  0  0  0  0  0  0  0  0  0
  139.1940   67.7290  224.6450 O   0  0  0  0  0  0  0  0  0  0  0  0
  139.2950   69.7070  223.4970 N   0  0  0  0  0  0  0  0  0  0  0  0
  138.7470   69.1570  222.2910 C   0  0  0  0  0  0  0  0  0  0  0  0
  137.2680   69.1050  222.1890 C   0  0  0  0  0  0  0  0  0  0  0  0
  136.8630   70.4000  221.4680 C   0  0  0  0  0  0  0  0  0  0  0  0
  135.4990   70.8430  221.8940 C   0  0  0  0  0  0  0  0  0  0  0  0
  135.5330   71.2370  223.3460 C   0  0  0  0  0  0  0  0  0  0  0  0
  136.2930   70.2380  224.1980 C   0  0  0  0  0  0  0  0  0  0  0  0
  136.5140   68.9370  223.4630 C   0  0  0  0  0  0  0  0  0  0  0  0
  142.7380   72.9570  221.0810 C   0  0  0  0  0  0  0  0  0  0  0  0
  146.7420   74.1000  218.5940 H   0  0  0  0  0  0  0  0  0  0  0  0
  145.2520   73.4540  217.9430 H   0  0  0  0  0  0  0  0  0  0  0  0
  144.6204   71.0244  218.9973 H   0  0  0  0  0  0  0  0  0  0  0  0
  142.5566   69.6514  219.1787 H   0  0  0  0  0  0  0  0  0  0  0  0
  140.6605   70.3797  220.5467 H   0  0  0  0  0  0  0  0  0  0  0  0
  140.4741   73.7280  222.3216 H   0  0  0  0  0  0  0  0  0  0  0  0
  138.5114   71.9676  221.8990 H   0  0  0  0  0  0  0  0  0  0  0  0
  141.2083   72.4375  226.9867 H   0  0  0  0  0  0  0  0  0  0  0  0
  141.5413   70.9961  228.9717 H   0  0  0  0  0  0  0  0  0  0  0  0
  139.9484   67.6196  226.8673 H   0  0  0  0  0  0  0  0  0  0  0  0
  139.1170   69.7633  221.4511 H   0  0  0  0  0  0  0  0  0  0  0  0
  139.0724   68.1063  222.2811 H   0  0  0  0  0  0  0  0  0  0  0  0
  136.9957   68.1888  221.6446 H   0  0  0  0  0  0  0  0  0  0  0  0
  137.5900   71.1894  221.7096 H   0  0  0  0  0  0  0  0  0  0  0  0
  136.8488   70.2098  220.3847 H   0  0  0  0  0  0  0  0  0  0  0  0
  135.1868   71.7054  221.2868 H   0  0  0  0  0  0  0  0  0  0  0  0
  134.7840   70.0190  221.7532 H   0  0  0  0  0  0  0  0  0  0  0  0
  136.0200   72.2194  223.4343 H   0  0  0  0  0  0  0  0  0  0  0  0
  134.4954   71.2677  223.7099 H   0  0  0  0  0  0  0  0  0  0  0  0
  137.2697   70.6672  224.4661 H   0  0  0  0  0  0  0  0  0  0  0  0
  135.6964   70.0283  225.0980 H   0  0  0  0  0  0  0  0  0  0  0  0
  137.0796   68.2572  224.1172 H   0  0  0  0  0  0  0  0  0  0  0  0
  135.5234   68.5334  223.2065 H   0  0  0  0  0  0  0  0  0  0  0  0
  142.8059   73.9114  221.6237 H   0  0  0  0  0  0  0  0  0  0  0  0
  1  2  1  0
  2  3  2  0
  2  4  2  0
  2  5  1  0
  5  6  2  0
  6  7  1  0
  7  8  2  0
  8  9  1  0
  9 10  1  0
 10 11  2  0
 11 12  1  0
 12 13  2  0
 13 14  1  0
 14 15  2  0
 15 16  1  0
 16 17  2  0
 17 18  1  0
 17 19  1  0
 19 20  2  0
 20 21  1  0
 21 22  2  0
 21 23  1  0
 23 24  1  0
 24 25  1  0
 25 26  1  0
 26 27  1  0
 27 28  1  0
 28 29  1  0
 29 30  1  0
  9 31  2  0
 31  5  1  0
 23 12  1  0
 30 25  1  0
 20 14  1  0
  1 32  1  0
  1 33  1  0
  6 34  1  0
  7 35  1  0
  8 36  1  0
 10 37  1  0
 11 38  1  0
 15 39  1  0
 16 40  1  0
 19 41  1  0
 24 42  1  0
 24 43  1  0
 25 44  1  0
 26 45  1  0
 26 46  1  0
 27 47  1  0
 27 48  1  0
 28 49  1  0
 28 50  1  0
 29 51  1  0
 29 52  1  0
 30 53  1  0
 30 54  1  0
 31 55  1  0
M  END
>  <smiles>  (6) 
NS(=O)(=O)c1cccc(/C=C/c2nc3ccc(F)cc3c(=O)n2CC2CCCCC2)c1

>  <score_type>  (6) 
oracle

>  <origin>  (6) 
autodockgpu

>  <m_score__min__energy>  (6) 
-9.2799999999999994

>  <m_primary>  (6) 
energy

>  <rmsd>  (6) 
10.586215535342966

>  <m_score__min__rmsd>  (6) 
10.586215535342966

>  <meeko>  (6) 
{"free_energy": -8.52, "intermolecular_energy": -10.61, "internal_energy": -1.81, "cluster_size": 31, "cluster_id": 1, "rank_in_cluster": 16}

>  <energy>  (6) 
-9.01

>  <cluster_rmsd>  (6) 
0.33

>  <cluster>  (6) 
1

$$$$

     RDKit          3D

 55 58  0  0  0  0  0  0  0  0999 V2000
  146.1280   73.5020  218.2870 N   0  0  0  0  0  0  0  0  0  0  0  0
  145.7200   72.9320  219.8690 S   0  0  0  0  0  0  0  0  0  0  0  0
  145.8380   71.4310  219.8590 O   0  0  0  0  0  0  0  0  0  0  0  0
  146.7080   73.4340  220.8820 O   0  0  0  0  0  0  0  0  0  0  0  0
  144.0850   73.3860  220.3020 C   0  0  0  0  0  0  0  0  0  0  0  0
  143.7020   74.7040  220.1510 C   0  0  0  0  0  0  0  0  0  0  0  0
  142.4100   75.0210  220.5030 C   0  0  0  0  0  0  0  0  0  0  0  0
  141.5330   74.0720  220.9830 C   0  0  0  0  0  0  0  0  0  0  0  0
  141.9040   72.7550  221.1370 C   0  0  0  0  0  0  0  0  0  0  0  0
  141.0080   71.7210  221.6420 C   0  0  0  0  0  0  0  0  0  0  0  0
  140.1360   71.9010  222.6030 C   0  0  0  0  0  0  0  0  0  0  0  0
  140.0720   70.9640  223.7360 C   0  0  0  0  0  0  0  0  0  0  0  0
  140.5640   71.3940  224.9320 N   0  0  0  0  0  0  0  0  0  0  0  0
  140.5670   70.6410  226.0410 C   0  0  0  0  0  0  0  0  0  0  0  0
  141.0720   71.1050  227.2360 C   0  0  0  0  0  0  0  0  0  0  0  0
  141.0370   70.2600  228.3300 C   0  0  0  0  0  0  0  0  0  0  0  0
  140.5190   68.9800  228.2720 C   0  0  0  0  0  0  0  0  0  0  0  0
  140.4790   68.1450  229.3390 F   0  0  0  0  0  0  0  0  0  0  0  0
  140.0160   68.5390  227.0500 C   0  0  0  0  0  0  0  0  0  0  0  0
  140.0380   69.3680  225.9290 C   0  0  0  0  0  0  0  0  0  0  0  0
  139.5420   68.9360  224.7200 C   0  0  0  0  0  0  0  0  0  0  0  0
  139.0730   67.7650  224.6900 O   0  0  0  0  0  0  0  0  0  0  0  0
  139.5500   69.7230  223.6050 N   0  0  0  0  0  0  0  0  0  0  0  0
  139.0460   69.2690  222.3410 C   0  0  0  0  0  0  0  0  0  0  0  0
  137.5830   69.3800  222.1250 C   0  0  0  0  0  0  0  0  0  0  0  0
  137.3360   70.8510  221.7550 C   0  0  0  0  0  0  0  0  0  0  0  0
  135.9720   71.2870  222.1870 C   0  0  0  0  0  0  0  0  0  0  0  0
  135.8980   71.2800  223.6900 C   0  0  0  0  0  0  0  0  0  0  0  0
  136.5050   70.0270  224.2910 C   0  0  0  0  0  0  0  0  0  0  0  0
  136.7040   68.9510  223.2490 C   0  0  0  0  0  0  0  0  0  0  0  0
  143.2050   72.4380  220.7830 C   0  0  0  0  0  0  0  0  0  0  0  0
  147.0550   73.9590  218.3520 H   0  0  0  0  0  0  0  0  0  0  0  0
  145.3530   74.1270  217.9860 H   0  0  0  0  0  0  0  0  0  0  0  0
  144.3973   75.4651  219.7672 H   0  0  0  0  0  0  0  0  0  0  0  0
  142.0674   76.0610  220.3984 H   0  0  0  0  0  0  0  0  0  0  0  0
  140.5098   74.3748  221.2501 H   0  0  0  0  0  0  0  0  0  0  0  0
  141.0685   70.7223  221.1850 H   0  0  0  0  0  0  0  0  0  0  0  0
  139.4474   72.7578  222.5628 H   0  0  0  0  0  0  0  0  0  0  0  0
  141.4911   72.1188  227.3174 H   0  0  0  0  0  0  0  0  0  0  0  0
  141.4388   70.6222  229.2878 H   0  0  0  0  0  0  0  0  0  0  0  0
  139.5967   67.5253  226.9685 H   0  0  0  0  0  0  0  0  0  0  0  0
  139.5438   69.8551  221.5544 H   0  0  0  0  0  0  0  0  0  0  0  0
  139.2592   68.1901  222.3171 H   0  0  0  0  0  0  0  0  0  0  0  0
  137.3005   68.6681  221.3354 H   0  0  0  0  0  0  0  0  0  0  0  0
  138.0895   71.4792  222.2526 H   0  0  0  0  0  0  0  0  0  0  0  0
  137.4096   70.9563  220.6625 H   0  0  0  0  0  0  0  0  0  0  0  0
  135.7765   72.3034  221.8146 H   0  0  0  0  0  0  0  0  0  0  0  0
  135.2190   70.5968  221.7787 H   0  0  0  0  0  0  0  0  0  0  0  0
  136.4412   72.1557  224.0749 H   0  0  0  0  0  0  0  0  0  0  0  0
  134.8358   71.3087  223.9744 H   0  0  0  0  0  0  0  0  0  0  0  0
  137.4796   70.2795  224.7341 H   0  0  0  0  0  0  0  0  0  0  0  0
  135.8140   69.6423  225.0555 H   0  0  0  0  0  0  0  0  0  0  0  0
  137.1585   68.0743  223.7337 H   0  0  0  0  0  0  0  0  0  0  0  0
  135.7163   68.7208  222.8230 H   0  0  0  0  0  0  0  0  0  0  0  0
  143.5475   71.3980  220.8886 H   0  0  0  0  0  0  0  0  0  0  0  0
  1  2  1  0
  2  3  2  0
  2  4  2  0
  2  5  1  0
  5  6  2  0
  6  7  1  0
  7  8  2  0
  8  9  1  0
  9 10  1  0
 10 11  2  0
 11 12  1  0
 12 13  2  0
 13 14  1  0
 14 15  2  0
 15 16  1  0
 16 17  2  0
 17 18  1  0
 17 19  1  0
 19 20  2  0
 20 21  1  0
 21 22  2  0
 21 23  1  0
 23 24  1  0
 24 25  1  0
 25 26  1  0
 26 27  1  0
 27 28  1  0
 28 29  1  0
 29 30  1  0
  9 31  2  0
 31  5  1  0
 23 12  1  0
 30 25  1  0
 20 14  1  0
  1 32  1  0
  1 33  1  0
  6 34  1  0
  7 35  1  0
  8 36  1  0
 10 37  1  0
 11 38  1  0
 15 39  1  0
 16 40  1  0
 19 41  1  0
 24 42  1  0
 24 43  1  0
 25 44  1  0
 26 45  1  0
 26 46  1  0
 27 47  1  0
 27 48  1  0
 28 49  1  0
 28 50  1  0
 29 51  1  0
 29 52  1  0
 30 53  1  0
 30 54  1  0
 31 55  1  0
M  END
>  <smiles>  (7) 
NS(=O)(=O)c1cccc(/C=C/c2nc3ccc(F)cc3c(=O)n2CC2CCCCC2)c1

>  <score_type>  (7) 
oracle

>  <origin>  (7) 
autodockgpu

>  <m_score__min__energy>  (7) 
-9.2799999999999994

>  <m_primary>  (7) 
energy

>  <rmsd>  (7) 
10.61622562449117

>  <m_score__min__rmsd>  (7) 
10.61622562449117

>  <meeko>  (7) 
{"free_energy": -9.28, "intermolecular_energy": -11.37, "internal_energy": -1.51, "cluster_size": 31, "cluster_id": 1, "rank_in_cluster": 1}

>  <energy>  (7) 
-8.94

>  <cluster_rmsd>  (7) 
1.13

>  <cluster>  (7) 
1

$$$$

     RDKit          3D

 55 58  0  0  0  0  0  0  0  0999 V2000
  145.9880   73.2590  218.6050 N   0  0  0  0  0  0  0  0  0  0  0  0
  145.2520   73.4420  220.1610 S   0  0  0  0  0  0  0  0  0  0  0  0
  146.2520   72.9960  221.1950 O   0  0  0  0  0  0  0  0  0  0  0  0
  144.9620   74.8880  220.4400 O   0  0  0  0  0  0  0  0  0  0  0  0
  143.8030   72.4680  220.2930 C   0  0  0  0  0  0  0  0  0  0  0  0
  143.7380   71.2780  219.5960 C   0  0  0  0  0  0  0  0  0  0  0  0
  142.5830   70.5430  219.7250 C   0  0  0  0  0  0  0  0  0  0  0  0
  141.5330   70.9680  220.5120 C   0  0  0  0  0  0  0  0  0  0  0  0
  141.5870   72.1530  221.2120 C   0  0  0  0  0  0  0  0  0  0  0  0
  140.5000   72.6380  222.0540 C   0  0  0  0  0  0  0  0  0  0  0  0
  139.4960   71.9040  222.4640 C   0  0  0  0  0  0  0  0  0  0  0  0
  139.6580   70.9870  223.6040 C   0  0  0  0  0  0  0  0  0  0  0  0
  140.1970   71.5000  224.7460 N   0  0  0  0  0  0  0  0  0  0  0  0
  140.4000   70.7740  225.8550 C   0  0  0  0  0  0  0  0  0  0  0  0
  140.9470   71.3220  226.9950 C   0  0  0  0  0  0  0  0  0  0  0  0
  141.1230   70.4990  228.0930 C   0  0  0  0  0  0  0  0  0  0  0  0
  140.7730   69.1630  228.0910 C   0  0  0  0  0  0  0  0  0  0  0  0
  140.9410   68.3490  229.1630 F   0  0  0  0  0  0  0  0  0  0  0  0
  140.2230   68.6370  226.9240 C   0  0  0  0  0  0  0  0  0  0  0  0
  140.0340   69.4420  225.8000 C   0  0  0  0  0  0  0  0  0  0  0  0
  139.4910   68.9260  224.6450 C   0  0  0  0  0  0  0  0  0  0  0  0
  139.1780   67.7040  224.6670 O   0  0  0  0  0  0  0  0  0  0  0  0
  139.2940   69.6870  223.5300 N   0  0  0  0  0  0  0  0  0  0  0  0
  138.7400   69.1480  222.3210 C   0  0  0  0  0  0  0  0  0  0  0  0
  137.2610   69.1220  222.2160 C   0  0  0  0  0  0  0  0  0  0  0  0
  136.8820   70.4120  221.4700 C   0  0  0  0  0  0  0  0  0  0  0  0
  135.5260   70.8880  221.8840 C   0  0  0  0  0  0  0  0  0  0  0  0
  135.5630   71.3070  223.3290 C   0  0  0  0  0  0  0  0  0  0  0  0
  136.3000   70.3090  224.2010 C   0  0  0  0  0  0  0  0  0  0  0  0
  136.4990   68.9910  223.4890 C   0  0  0  0  0  0  0  0  0  0  0  0
  142.7520   72.8920  221.0810 C   0  0  0  0  0  0  0  0  0  0  0  0
  145.9560   74.1830  218.1370 H   0  0  0  0  0  0  0  0  0  0  0  0
  145.4670   72.5030  218.1150 H   0  0  0  0  0  0  0  0  0  0  0  0
  144.5718   70.9337  218.9665 H   0  0  0  0  0  0  0  0  0  0  0  0
  142.4939   69.5888  219.1851 H   0  0  0  0  0  0  0  0  0  0  0  0
  140.6294   70.3447  220.5824 H   0  0  0  0  0  0  0  0  0  0  0  0
  140.5250   73.6925  222.3662 H   0  0  0  0  0  0  0  0  0  0  0  0
  138.5245   71.9732  221.9528 H   0  0  0  0  0  0  0  0  0  0  0  0
  141.2353   72.3829  227.0309 H   0  0  0  0  0  0  0  0  0  0  0  0
  141.5605   70.9271  229.0069 H   0  0  0  0  0  0  0  0  0  0  0  0
  139.9348   67.5760  226.8883 H   0  0  0  0  0  0  0  0  0  0  0  0
  139.1225   69.7491  221.4829 H   0  0  0  0  0  0  0  0  0  0  0  0
  139.0477   68.0920  222.3095 H   0  0  0  0  0  0  0  0  0  0  0  0
  136.9742   68.2006  221.6881 H   0  0  0  0  0  0  0  0  0  0  0  0
  137.6232   71.1918  221.6993 H   0  0  0  0  0  0  0  0  0  0  0  0
  136.8669   70.2025  220.3902 H   0  0  0  0  0  0  0  0  0  0  0  0
  135.2319   71.7453  221.2607 H   0  0  0  0  0  0  0  0  0  0  0  0
  134.7962   70.0750  221.7557 H   0  0  0  0  0  0  0  0  0  0  0  0
  136.0690   72.2810  223.4016 H   0  0  0  0  0  0  0  0  0  0  0  0
  134.5250   71.3645  223.6885 H   0  0  0  0  0  0  0  0  0  0  0  0
  137.2836   70.7240  224.4659 H   0  0  0  0  0  0  0  0  0  0  0  0
  135.6960   70.1264  225.1020 H   0  0  0  0  0  0  0  0  0  0  0  0
  137.0486   68.3119  224.1574 H   0  0  0  0  0  0  0  0  0  0  0  0
  135.5018   68.6024  223.2350 H   0  0  0  0  0  0  0  0  0  0  0  0
  142.8419   73.8458  221.6216 H   0  0  0  0  0  0  0  0  0  0  0  0
  1  2  1  0
  2  3  2  0
  2  4  2  0
  2  5  1  0
  5  6  2  0
  6  7  1  0
  7  8  2  0
  8  9  1  0
  9 10  1  0
 10 11  2  0
 11 12  1  0
 12 13  2  0
 13 14  1  0
 14 15  2  0
 15 16  1  0
 16 17  2  0
 17 18  1  0
 17 19  1  0
 19 20  2  0
 20 21  1  0
 21 22  2  0
 21 23  1  0
 23 24  1  0
 24 25  1  0
 25 26  1  0
 26 27  1  0
 27 28  1  0
 28 29  1  0
 29 30  1  0
  9 31  2  0
 31  5  1  0
 23 12  1  0
 30 25  1  0
 20 14  1  0
  1 32  1  0
  1 33  1  0
  6 34  1  0
  7 35  1  0
  8 36  1  0
 10 37  1  0
 11 38  1  0
 15 39  1  0
 16 40  1  0
 19 41  1  0
 24 42  1  0
 24 43  1  0
 25 44  1  0
 26 45  1  0
 26 46  1  0
 27 47  1  0
 27 48  1  0
 28 49  1  0
 28 50  1  0
 29 51  1  0
 29 52  1  0
 30 53  1  0
 30 54  1  0
 31 55  1  0
M  END
>  <smiles>  (8) 
NS(=O)(=O)c1cccc(/C=C/c2nc3ccc(F)cc3c(=O)n2CC2CCCCC2)c1

>  <score_type>  (8) 
oracle

>  <origin>  (8) 
autodockgpu

>  <m_score__min__energy>  (8) 
-9.2799999999999994

>  <m_primary>  (8) 
energy

>  <rmsd>  (8) 
10.60590386280427

>  <m_score__min__rmsd>  (8) 
10.60590386280427

>  <meeko>  (8) 
{"free_energy": -8.41, "intermolecular_energy": -10.5, "internal_energy": -1.81, "cluster_size": 31, "cluster_id": 1, "rank_in_cluster": 19}

>  <energy>  (8) 
-8.79

>  <cluster_rmsd>  (8) 
0.92

>  <cluster>  (8) 
1

$$$$

     RDKit          3D

 55 58  0  0  0  0  0  0  0  0999 V2000
  145.1740   71.2960  220.0720 N   0  0  0  0  0  0  0  0  0  0  0  0
  145.3870   73.0100  219.9470 S   0  0  0  0  0  0  0  0  0  0  0  0
  146.4130   73.4190  220.9700 O   0  0  0  0  0  0  0  0  0  0  0  0
  145.9500   73.3740  218.6040 O   0  0  0  0  0  0  0  0  0  0  0  0
  143.8860   73.8570  220.2540 C   0  0  0  0  0  0  0  0  0  0  0  0
  143.7610   75.1630  219.8220 C   0  0  0  0  0  0  0  0  0  0  0  0
  142.5670   75.7930  220.0820 C   0  0  0  0  0  0  0  0  0  0  0  0
  141.5370   75.1580  220.7430 C   0  0  0  0  0  0  0  0  0  0  0  0
  141.6500   73.8560  221.1780 C   0  0  0  0  0  0  0  0  0  0  0  0
  140.5850   73.1490  221.8810 C   0  0  0  0  0  0  0  0  0  0  0  0
  140.4270   71.8480  221.8690 C   0  0  0  0  0  0  0  0  0  0  0  0
  140.2270   71.1100  223.1270 C   0  0  0  0  0  0  0  0  0  0  0  0
  140.7260   71.6680  224.2650 N   0  0  0  0  0  0  0  0  0  0  0  0
  140.6140   71.1010  225.4750 C   0  0  0  0  0  0  0  0  0  0  0  0
  141.1300   71.6910  226.6080 C   0  0  0  0  0  0  0  0  0  0  0  0
  140.9690   71.0350  227.8150 C   0  0  0  0  0  0  0  0  0  0  0  0
  140.3170   69.8220  227.9260 C   0  0  0  0  0  0  0  0  0  0  0  0
  140.1550   69.1720  229.1050 F   0  0  0  0  0  0  0  0  0  0  0  0
  139.8070   69.2500  226.7630 C   0  0  0  0  0  0  0  0  0  0  0  0
  139.9530   69.8880  225.5320 C   0  0  0  0  0  0  0  0  0  0  0  0
  139.4500   69.3260  224.3800 C   0  0  0  0  0  0  0  0  0  0  0  0
  138.8570   68.2190  224.5070 O   0  0  0  0  0  0  0  0  0  0  0  0
  139.5780   69.9250  223.1610 N   0  0  0  0  0  0  0  0  0  0  0  0
  139.0660   69.3340  221.9580 C   0  0  0  0  0  0  0  0  0  0  0  0
  137.6350   69.5760  221.6490 C   0  0  0  0  0  0  0  0  0  0  0  0
  137.6080   70.8870  220.8470 C   0  0  0  0  0  0  0  0  0  0  0  0
  136.3200   71.6170  221.0650 C   0  0  0  0  0  0  0  0  0  0  0  0
  136.2410   72.0720  222.4970 C   0  0  0  0  0  0  0  0  0  0  0  0
  136.6560   70.9870  223.4710 C   0  0  0  0  0  0  0  0  0  0  0  0
  136.6990   69.6310  222.8070 C   0  0  0  0  0  0  0  0  0  0  0  0
  142.8530   73.2220  220.9150 C   0  0  0  0  0  0  0  0  0  0  0  0
  144.5680   71.1190  220.8930 H   0  0  0  0  0  0  0  0  0  0  0  0
  146.1260   70.8810  220.1340 H   0  0  0  0  0  0  0  0  0  0  0  0
  144.5790   75.6753  219.2943 H   0  0  0  0  0  0  0  0  0  0  0  0
  142.4295   76.8337  219.7532 H   0  0  0  0  0  0  0  0  0  0  0  0
  140.6009   75.7053  220.9277 H   0  0  0  0  0  0  0  0  0  0  0  0
  139.8665   73.7479  222.4599 H   0  0  0  0  0  0  0  0  0  0  0  0
  140.4439   71.3041  220.9130 H   0  0  0  0  0  0  0  0  0  0  0  0
  141.6550   72.6561  226.5543 H   0  0  0  0  0  0  0  0  0  0  0  0
  141.3773   71.4987  228.7251 H   0  0  0  0  0  0  0  0  0  0  0  0
  139.2832   68.2842  226.8163 H   0  0  0  0  0  0  0  0  0  0  0  0
  139.6584   69.7245  221.1174 H   0  0  0  0  0  0  0  0  0  0  0  0
  139.1466   68.2482  222.1144 H   0  0  0  0  0  0  0  0  0  0  0  0
  137.2536   68.7062  221.0941 H   0  0  0  0  0  0  0  0  0  0  0  0
  138.4434   71.5251  221.1708 H   0  0  0  0  0  0  0  0  0  0  0  0
  137.7010   70.6479  219.7773 H   0  0  0  0  0  0  0  0  0  0  0  0
  136.2762   72.4913  220.3989 H   0  0  0  0  0  0  0  0  0  0  0  0
  135.4757   70.9473  220.8446 H   0  0  0  0  0  0  0  0  0  0  0  0
  136.9051   72.9388  222.6296 H   0  0  0  0  0  0  0  0  0  0  0  0
  135.1933   72.3312  222.7096 H   0  0  0  0  0  0  0  0  0  0  0  0
  137.6556   71.2237  223.8645 H   0  0  0  0  0  0  0  0  0  0  0  0
  135.9135   70.9499  224.2817 H   0  0  0  0  0  0  0  0  0  0  0  0
  137.0190   68.8869  223.5513 H   0  0  0  0  0  0  0  0  0  0  0  0
  135.6897   69.4221  222.4228 H   0  0  0  0  0  0  0  0  0  0  0  0
  142.9898   72.1809  221.2426 H   0  0  0  0  0  0  0  0  0  0  0  0
  1  2  1  0
  2  3  2  0
  2  4  2  0
  2  5  1  0
  5  6  2  0
  6  7  1  0
  7  8  2  0
  8  9  1  0
  9 10  1  0
 10 11  2  0
 11 12  1  0
 12 13  2  0
 13 14  1  0
 14 15  2  0
 15 16  1  0
 16 17  2  0
 17 18  1  0
 17 19  1  0
 19 20  2  0
 20 21  1  0
 21 22  2  0
 21 23  1  0
 23 24  1  0
 24 25  1  0
 25 26  1  0
 26 27  1  0
 27 28  1  0
 28 29  1  0
 29 30  1  0
  9 31  2  0
 31  5  1  0
 23 12  1  0
 30 25  1  0
 20 14  1  0
  1 32  1  0
  1 33  1  0
  6 34  1  0
  7 35  1  0
  8 36  1  0
 10 37  1  0
 11 38  1  0
 15 39  1  0
 16 40  1  0
 19 41  1  0
 24 42  1  0
 24 43  1  0
 25 44  1  0
 26 45  1  0
 26 46  1  0
 27 47  1  0
 27 48  1  0
 28 49  1  0
 28 50  1  0
 29 51  1  0
 29 52  1  0
 30 53  1  0
 30 54  1  0
 31 55  1  0
M  END
>  <smiles>  (9) 
NS(=O)(=O)c1cccc(/C=C/c2nc3ccc(F)cc3c(=O)n2CC2CCCCC2)c1

>  <score_type>  (9) 
oracle

>  <origin>  (9) 
autodockgpu

>  <m_score__min__energy>  (9) 
-9.2799999999999994

>  <m_primary>  (9) 
energy

>  <rmsd>  (9) 
9.940543335552896

>  <m_score__min__rmsd>  (9) 
9.940543335552896

>  <meeko>  (9) 
{"free_energy": -8.44, "intermolecular_energy": -10.53, "internal_energy": -1.63, "cluster_size": 31, "cluster_id": 1, "rank_in_cluster": 18}

>  <energy>  (9) 
-8.76

>  <cluster_rmsd>  (9) 
1.47

>  <cluster>  (9) 
1

$$$$

     RDKit          3D

 55 58  0  0  0  0  0  0  0  0999 V2000
  146.3010   73.4190  218.4700 N   0  0  0  0  0  0  0  0  0  0  0  0
  145.5320   72.8020  219.8930 S   0  0  0  0  0  0  0  0  0  0  0  0
  145.3390   71.3210  219.7040 O   0  0  0  0  0  0  0  0  0  0  0  0
  146.4260   72.9690  221.0890 O   0  0  0  0  0  0  0  0  0  0  0  0
  143.9780   73.5650  220.1530 C   0  0  0  0  0  0  0  0  0  0  0  0
  142.8980   72.7720  220.4900 C   0  0  0  0  0  0  0  0  0  0  0  0
  141.6950   73.4090  220.6850 C   0  0  0  0  0  0  0  0  0  0  0  0
  141.5650   74.7760  220.5530 C   0  0  0  0  0  0  0  0  0  0  0  0
  142.6350   75.5760  220.2190 C   0  0  0  0  0  0  0  0  0  0  0  0
  142.5400   77.0240  220.0700 C   0  0  0  0  0  0  0  0  0  0  0  0
  142.2700   77.6370  218.9440 C   0  0  0  0  0  0  0  0  0  0  0  0
  141.9960   79.0820  218.9290 C   0  0  0  0  0  0  0  0  0  0  0  0
  142.7370   79.8500  218.0810 N   0  0  0  0  0  0  0  0  0  0  0  0
  142.5900   81.1780  217.9700 C   0  0  0  0  0  0  0  0  0  0  0  0
  143.3550   81.9270  217.1030 C   0  0  0  0  0  0  0  0  0  0  0  0
  143.1370   83.2920  217.0540 C   0  0  0  0  0  0  0  0  0  0  0  0
  142.1900   83.9270  217.8340 C   0  0  0  0  0  0  0  0  0  0  0  0
  141.9680   85.2640  217.7920 F   0  0  0  0  0  0  0  0  0  0  0  0
  141.4320   83.1440  218.7020 C   0  0  0  0  0  0  0  0  0  0  0  0
  141.6290   81.7650  218.7730 C   0  0  0  0  0  0  0  0  0  0  0  0
  140.8830   80.9880  219.6290 C   0  0  0  0  0  0  0  0  0  0  0  0
  140.0230   81.5890  220.3310 O   0  0  0  0  0  0  0  0  0  0  0  0
  141.0520   79.6370  219.7220 N   0  0  0  0  0  0  0  0  0  0  0  0
  140.2840   78.8270  220.6240 C   0  0  0  0  0  0  0  0  0  0  0  0
  140.6860   78.8500  222.0520 C   0  0  0  0  0  0  0  0  0  0  0  0
  139.8480   79.9680  222.6930 C   0  0  0  0  0  0  0  0  0  0  0  0
  140.5760   80.5850  223.8450 C   0  0  0  0  0  0  0  0  0  0  0  0
  141.7980   81.3010  223.3360 C   0  0  0  0  0  0  0  0  0  0  0  0
  142.5690   80.4770  222.3230 C   0  0  0  0  0  0  0  0  0  0  0  0
  142.1370   79.0300  222.3380 C   0  0  0  0  0  0  0  0  0  0  0  0
  143.8460   74.9330  220.0230 C   0  0  0  0  0  0  0  0  0  0  0  0
  147.1140   73.9820  218.7770 H   0  0  0  0  0  0  0  0  0  0  0  0
  145.5750   73.9480  217.9450 H   0  0  0  0  0  0  0  0  0  0  0  0
  142.9959   71.6816  220.5974 H   0  0  0  0  0  0  0  0  0  0  0  0
  140.8114   72.8116  220.9538 H   0  0  0  0  0  0  0  0  0  0  0  0
  140.5811   75.2391  220.7188 H   0  0  0  0  0  0  0  0  0  0  0  0
  142.7063   77.6433  220.9638 H   0  0  0  0  0  0  0  0  0  0  0  0
  142.2481   77.0671  218.0034 H   0  0  0  0  0  0  0  0  0  0  0  0
  144.1176   81.4529  216.4677 H   0  0  0  0  0  0  0  0  0  0  0  0
  143.7435   83.8977  216.3646 H   0  0  0  0  0  0  0  0  0  0  0  0
  140.6701   83.6183  219.3380 H   0  0  0  0  0  0  0  0  0  0  0  0
  139.2388   79.1652  220.5671 H   0  0  0  0  0  0  0  0  0  0  0  0
  140.4522   77.7911  220.2945 H   0  0  0  0  0  0  0  0  0  0  0  0
  140.4969   77.8526  222.4755 H   0  0  0  0  0  0  0  0  0  0  0  0
  139.6437   80.7426  221.9392 H   0  0  0  0  0  0  0  0  0  0  0  0
  138.9068   79.5349  223.0625 H   0  0  0  0  0  0  0  0  0  0  0  0
  139.9159   81.3020  224.3551 H   0  0  0  0  0  0  0  0  0  0  0  0
  140.8779   79.7993  224.5532 H   0  0  0  0  0  0  0  0  0  0  0  0
  141.4841   82.2421  222.8608 H   0  0  0  0  0  0  0  0  0  0  0  0
  142.4613   81.4853  224.1940 H   0  0  0  0  0  0  0  0  0  0  0  0
  142.3944   80.8912  221.3190 H   0  0  0  0  0  0  0  0  0  0  0  0
  143.6363   80.5198  222.5859 H   0  0  0  0  0  0  0  0  0  0  0  0
  142.7141   78.4845  221.5768 H   0  0  0  0  0  0  0  0  0  0  0  0
  142.3220   78.6431  223.3510 H   0  0  0  0  0  0  0  0  0  0  0  0
  144.7298   75.5308  219.7555 H   0  0  0  0  0  0  0  0  0  0  0  0
  1  2  1  0
  2  3  2  0
  2  4  2  0
  2  5  1  0
  5  6  2  0
  6  7  1  0
  7  8  2  0
  8  9  1  0
  9 10  1  0
 10 11  2  0
 11 12  1  0
 12 13  2  0
 13 14  1  0
 14 15  2  0
 15 16  1  0
 16 17  2  0
 17 18  1  0
 17 19  1  0
 19 20  2  0
 20 21  1  0
 21 22  2  0
 21 23  1  0
 23 24  1  0
 24 25  1  0
 25 26  1  0
 26 27  1  0
 27 28  1  0
 28 29  1  0
 29 30  1  0
  9 31  2  0
 31  5  1  0
 23 12  1  0
 30 25  1  0
 20 14  1  0
  1 32  1  0
  1 33  1  0
  6 34  1  0
  7 35  1  0
  8 36  1  0
 10 37  1  0
 11 38  1  0
 15 39  1  0
 16 40  1  0
 19 41  1  0
 24 42  1  0
 24 43  1  0
 25 44  1  0
 26 45  1  0
 26 46  1  0
 27 47  1  0
 27 48  1  0
 28 49  1  0
 28 50  1  0
 29 51  1  0
 29 52  1  0
 30 53  1  0
 30 54  1  0
 31 55  1  0
M  END
>  <smiles>  (10) 
NS(=O)(=O)c1cccc(/C=C/c2nc3ccc(F)cc3c(=O)n2CC2CCCCC2)c1

>  <score_type>  (10) 
oracle

>  <origin>  (10) 
autodockgpu

>  <m_score__min__energy>  (10) 
-9.2799999999999994

>  <m_primary>  (10) 
energy

>  <rmsd>  (10) 
5.933824164161757

>  <m_score__min__rmsd>  (10) 
5.933824164161757

>  <meeko>  (10) 
{"free_energy": -8.28, "intermolecular_energy": -10.37, "internal_energy": -1.43, "cluster_size": 3, "cluster_id": 4, "rank_in_cluster": 2}

>  <energy>  (10) 
-8.73

>  <cluster_rmsd>  (10) 
0.56

>  <cluster>  (10) 
1

$$$$

     RDKit          3D

 55 58  0  0  0  0  0  0  0  0999 V2000
  141.0010   72.2390  228.0950 N   0  0  0  0  0  0  0  0  0  0  0  0
  140.3800   70.6590  227.7550 S   0  0  0  0  0  0  0  0  0  0  0  0
  141.4570   69.6620  228.0920 O   0  0  0  0  0  0  0  0  0  0  0  0
  139.2130   70.3490  228.6460 O   0  0  0  0  0  0  0  0  0  0  0  0
  139.9460   70.5010  226.0660 C   0  0  0  0  0  0  0  0  0  0  0  0
  139.0740   69.4960  225.6970 C   0  0  0  0  0  0  0  0  0  0  0  0
  138.7590   69.4040  224.3620 C   0  0  0  0  0  0  0  0  0  0  0  0
  139.2840   70.2730  223.4280 C   0  0  0  0  0  0  0  0  0  0  0  0
  140.1540   71.2790  223.7850 C   0  0  0  0  0  0  0  0  0  0  0  0
  140.7310   72.2180  222.8300 C   0  0  0  0  0  0  0  0  0  0  0  0
  140.0330   73.0080  222.0520 C   0  0  0  0  0  0  0  0  0  0  0  0
  140.5450   74.3380  221.6870 C   0  0  0  0  0  0  0  0  0  0  0  0
  139.9800   75.4150  222.3010 N   0  0  0  0  0  0  0  0  0  0  0  0
  140.3510   76.6810  222.0600 C   0  0  0  0  0  0  0  0  0  0  0  0
  139.7600   77.7490  222.6980 C   0  0  0  0  0  0  0  0  0  0  0  0
  140.2050   79.0210  222.3870 C   0  0  0  0  0  0  0  0  0  0  0  0
  141.2110   79.2590  221.4700 C   0  0  0  0  0  0  0  0  0  0  0  0
  141.6540   80.5020  221.1590 F   0  0  0  0  0  0  0  0  0  0  0  0
  141.7890   78.1590  220.8410 C   0  0  0  0  0  0  0  0  0  0  0  0
  141.3620   76.8640  221.1340 C   0  0  0  0  0  0  0  0  0  0  0  0
  141.9310   75.7750  220.5140 C   0  0  0  0  0  0  0  0  0  0  0  0
  142.8480   76.0160  219.6820 O   0  0  0  0  0  0  0  0  0  0  0  0
  141.5340   74.4960  220.7790 N   0  0  0  0  0  0  0  0  0  0  0  0
  142.1170   73.3610  220.1240 C   0  0  0  0  0  0  0  0  0  0  0  0
  143.2620   72.7100  220.8060 C   0  0  0  0  0  0  0  0  0  0  0  0
  144.3670   73.7770  220.8550 C   0  0  0  0  0  0  0  0  0  0  0  0
  145.7220   73.1430  220.8360 C   0  0  0  0  0  0  0  0  0  0  0  0
  145.9370   72.4660  219.5090 C   0  0  0  0  0  0  0  0  0  0  0  0
  144.7300   71.6600  219.0700 C   0  0  0  0  0  0  0  0  0  0  0  0
  143.7640   71.4400  220.2100 C   0  0  0  0  0  0  0  0  0  0  0  0
  140.4700   71.3700  225.1310 C   0  0  0  0  0  0  0  0  0  0  0  0
  140.3420   72.6960  228.7500 H   0  0  0  0  0  0  0  0  0  0  0  0
  141.1110   72.7200  227.1790 H   0  0  0  0  0  0  0  0  0  0  0  0
  138.6509   68.8010  226.4372 H   0  0  0  0  0  0  0  0  0  0  0  0
  138.0687   68.6150  224.0290 H   0  0  0  0  0  0  0  0  0  0  0  0
  139.0005   70.1595  222.3712 H   0  0  0  0  0  0  0  0  0  0  0  0
  141.8276   72.2663  222.7579 H   0  0  0  0  0  0  0  0  0  0  0  0
  139.0573   72.6744  221.6690 H   0  0  0  0  0  0  0  0  0  0  0  0
  138.9570   77.5947  223.4338 H   0  0  0  0  0  0  0  0  0  0  0  0
  139.7382   79.8800  222.8912 H   0  0  0  0  0  0  0  0  0  0  0  0
  142.5915   78.3133  220.1047 H   0  0  0  0  0  0  0  0  0  0  0  0
  141.3276   72.6045  220.0037 H   0  0  0  0  0  0  0  0  0  0  0  0
  142.5281   73.7524  219.1818 H   0  0  0  0  0  0  0  0  0  0  0  0
  142.9222   72.3739  221.7968 H   0  0  0  0  0  0  0  0  0  0  0  0
  144.2670   74.4395  219.9826 H   0  0  0  0  0  0  0  0  0  0  0  0
  144.2604   74.3510  221.7873 H   0  0  0  0  0  0  0  0  0  0  0  0
  146.4911   73.9156  220.9830 H   0  0  0  0  0  0  0  0  0  0  0  0
  145.7920   72.3998  221.6440 H   0  0  0  0  0  0  0  0  0  0  0  0
  146.1440   73.2344  218.7496 H   0  0  0  0  0  0  0  0  0  0  0  0
  146.7826   71.7712  219.6196 H   0  0  0  0  0  0  0  0  0  0  0  0
  144.2133   72.2012  218.2637 H   0  0  0  0  0  0  0  0  0  0  0  0
  145.0806   70.6773  218.7216 H   0  0  0  0  0  0  0  0  0  0  0  0
  142.9042   70.8661  219.8341 H   0  0  0  0  0  0  0  0  0  0  0  0
  144.3071   70.9000  220.9997 H   0  0  0  0  0  0  0  0  0  0  0  0
  141.1598   72.1593  225.4645 H   0  0  0  0  0  0  0  0  0  0  0  0
  1  2  1  0
  2  3  2  0
  2  4  2  0
  2  5  1  0
  5  6  2  0
  6  7  1  0
  7  8  2  0
  8  9  1  0
  9 10  1  0
 10 11  2  0
 11 12  1  0
 12 13  2  0
 13 14  1  0
 14 15  2  0
 15 16  1  0
 16 17  2  0
 17 18  1  0
 17 19  1  0
 19 20  2  0
 20 21  1  0
 21 22  2  0
 21 23  1  0
 23 24  1  0
 24 25  1  0
 25 26  1  0
 26 27  1  0
 27 28  1  0
 28 29  1  0
 29 30  1  0
  9 31  2  0
 31  5  1  0
 23 12  1  0
 30 25  1  0
 20 14  1  0
  1 32  1  0
  1 33  1  0
  6 34  1  0
  7 35  1  0
  8 36  1  0
 10 37  1  0
 11 38  1  0
 15 39  1  0
 16 40  1  0
 19 41  1  0
 24 42  1  0
 24 43  1  0
 25 44  1  0
 26 45  1  0
 26 46  1  0
 27 47  1  0
 27 48  1  0
 28 49  1  0
 28 50  1  0
 29 51  1  0
 29 52  1  0
 30 53  1  0
 30 54  1  0
 31 55  1  0
M  END
>  <smiles>  (11) 
NS(=O)(=O)c1cccc(/C=C/c2nc3ccc(F)cc3c(=O)n2CC2CCCCC2)c1

>  <score_type>  (11) 
oracle

>  <origin>  (11) 
autodockgpu

>  <m_score__min__energy>  (11) 
-9.2799999999999994

>  <m_primary>  (11) 
energy

>  <rmsd>  (11) 
5.417612908036085

>  <m_score__min__rmsd>  (11) 
5.417612908036085

>  <meeko>  (11) 
{"free_energy": -8.62, "intermolecular_energy": -10.71, "internal_energy": -1.23, "cluster_size": 3, "cluster_id": 2, "rank_in_cluster": 1}

>  <energy>  (11) 
-8.67

>  <cluster_rmsd>  (11) 
0.72

>  <cluster>  (11) 
1

$$$$

     RDKit          3D

 55 58  0  0  0  0  0  0  0  0999 V2000
  145.2820   71.5320  220.0860 N   0  0  0  0  0  0  0  0  0  0  0  0
  145.4420   73.2110  219.6960 S   0  0  0  0  0  0  0  0  0  0  0  0
  146.4920   73.7940  220.6050 O   0  0  0  0  0  0  0  0  0  0  0  0
  145.9480   73.3810  218.2930 O   0  0  0  0  0  0  0  0  0  0  0  0
  143.9300   74.0610  219.9310 C   0  0  0  0  0  0  0  0  0  0  0  0
  143.7070   75.2250  219.2220 C   0  0  0  0  0  0  0  0  0  0  0  0
  142.5070   75.8640  219.4350 C   0  0  0  0  0  0  0  0  0  0  0  0
  141.5650   75.3700  220.3120 C   0  0  0  0  0  0  0  0  0  0  0  0
  141.7760   74.2090  221.0230 C   0  0  0  0  0  0  0  0  0  0  0  0
  140.8070   73.6530  221.9600 C   0  0  0  0  0  0  0  0  0  0  0  0
  140.2580   72.4690  221.8440 C   0  0  0  0  0  0  0  0  0  0  0  0
  140.0830   71.6090  223.0250 C   0  0  0  0  0  0  0  0  0  0  0  0
  140.6730   72.0130  224.1850 N   0  0  0  0  0  0  0  0  0  0  0  0
  140.5930   71.3230  225.3320 C   0  0  0  0  0  0  0  0  0  0  0  0
  141.2010   71.7590  226.4890 C   0  0  0  0  0  0  0  0  0  0  0  0
  141.0670   70.9830  227.6270 C   0  0  0  0  0  0  0  0  0  0  0  0
  140.3540   69.8000  227.6470 C   0  0  0  0  0  0  0  0  0  0  0  0
  140.2170   69.0340  228.7570 F   0  0  0  0  0  0  0  0  0  0  0  0
  139.7510   69.3860  226.4620 C   0  0  0  0  0  0  0  0  0  0  0  0
  139.8680   70.1460  225.2990 C   0  0  0  0  0  0  0  0  0  0  0  0
  139.2730   69.7400  224.1260 C   0  0  0  0  0  0  0  0  0  0  0  0
  138.6260   68.6570  224.1680 O   0  0  0  0  0  0  0  0  0  0  0  0
  139.3700   70.4610  222.9710 N   0  0  0  0  0  0  0  0  0  0  0  0
  138.7630   70.0320  221.7440 C   0  0  0  0  0  0  0  0  0  0  0  0
  137.3440   70.4110  221.5320 C   0  0  0  0  0  0  0  0  0  0  0  0
  137.3880   71.7560  220.7890 C   0  0  0  0  0  0  0  0  0  0  0  0
  136.1850   72.5830  221.1130 C   0  0  0  0  0  0  0  0  0  0  0  0
  136.2250   72.9750  222.5650 C   0  0  0  0  0  0  0  0  0  0  0  0
  136.5960   71.8130  223.4670 C   0  0  0  0  0  0  0  0  0  0  0  0
  136.4820   70.4920  222.7440 C   0  0  0  0  0  0  0  0  0  0  0  0
  142.9850   73.5680  220.8080 C   0  0  0  0  0  0  0  0  0  0  0  0
  144.4670   71.1690  219.5600 H   0  0  0  0  0  0  0  0  0  0  0  0
  145.1960   71.4730  221.1210 H   0  0  0  0  0  0  0  0  0  0  0  0
  144.4541   75.6229  218.5195 H   0  0  0  0  0  0  0  0  0  0  0  0
  142.2934   76.7953  218.8901 H   0  0  0  0  0  0  0  0  0  0  0  0
  140.6204   75.9171  220.4476 H   0  0  0  0  0  0  0  0  0  0  0  0
  140.5171   74.2698  222.8234 H   0  0  0  0  0  0  0  0  0  0  0  0
  139.9256   72.1155  220.8568 H   0  0  0  0  0  0  0  0  0  0  0  0
  141.7761   72.6965  226.5076 H   0  0  0  0  0  0  0  0  0  0  0  0
  141.5490   71.3228  228.5556 H   0  0  0  0  0  0  0  0  0  0  0  0
  139.1758   68.4486  226.4433 H   0  0  0  0  0  0  0  0  0  0  0  0
  139.3487   70.4581  220.9161 H   0  0  0  0  0  0  0  0  0  0  0  0
  138.7638   68.9330  221.7909 H   0  0  0  0  0  0  0  0  0  0  0  0
  136.8575   69.6036  220.9651 H   0  0  0  0  0  0  0  0  0  0  0  0
  138.2934   72.3039  221.0890 H   0  0  0  0  0  0  0  0  0  0  0  0
  137.3991   71.5599  219.7067 H   0  0  0  0  0  0  0  0  0  0  0  0
  136.1828   73.4884  220.4883 H   0  0  0  0  0  0  0  0  0  0  0  0
  135.2737   71.9998  220.9146 H   0  0  0  0  0  0  0  0  0  0  0  0
  136.9691   73.7747  222.6948 H   0  0  0  0  0  0  0  0  0  0  0  0
  135.2174   73.3124  222.8495 H   0  0  0  0  0  0  0  0  0  0  0  0
  137.6328   71.9441  223.8104 H   0  0  0  0  0  0  0  0  0  0  0  0
  135.8996   71.8014  224.3184 H   0  0  0  0  0  0  0  0  0  0  0  0
  136.7747   69.6883  223.4357 H   0  0  0  0  0  0  0  0  0  0  0  0
  135.4386   70.3903  222.4109 H   0  0  0  0  0  0  0  0  0  0  0  0
  143.1987   72.6369  221.3533 H   0  0  0  0  0  0  0  0  0  0  0  0
  1  2  1  0
  2  3  2  0
  2  4  2  0
  2  5  1  0
  5  6  2  0
  6  7  1  0
  7  8  2  0
  8  9  1  0
  9 10  1  0
 10 11  2  0
 11 12  1  0
 12 13  2  0
 13 14  1  0
 14 15  2  0
 15 16  1  0
 16 17  2  0
 17 18  1  0
 17 19  1  0
 19 20  2  0
 20 21  1  0
 21 22  2  0
 21 23  1  0
 23 24  1  0
 24 25  1  0
 25 26  1  0
 26 27  1  0
 27 28  1  0
 28 29  1  0
 29 30  1  0
  9 31  2  0
 31  5  1  0
 23 12  1  0
 30 25  1  0
 20 14  1  0
  1 32  1  0
  1 33  1  0
  6 34  1  0
  7 35  1  0
  8 36  1  0
 10 37  1  0
 11 38  1  0
 15 39  1  0
 16 40  1  0
 19 41  1  0
 24 42  1  0
 24 43  1  0
 25 44  1  0
 26 45  1  0
 26 46  1  0
 27 47  1  0
 27 48  1  0
 28 49  1  0
 28 50  1  0
 29 51  1  0
 29 52  1  0
 30 53  1  0
 30 54  1  0
 31 55  1  0
M  END
>  <smiles>  (12) 
NS(=O)(=O)c1cccc(/C=C/c2nc3ccc(F)cc3c(=O)n2CC2CCCCC2)c1

>  <score_type>  (12) 
oracle

>  <origin>  (12) 
autodockgpu

>  <m_score__min__energy>  (12) 
-9.2799999999999994

>  <m_primary>  (12) 
energy

>  <rmsd>  (12) 
9.63105716859167

>  <m_score__min__rmsd>  (12) 
9.63105716859167

>  <meeko>  (12) 
{"free_energy": -7.81, "intermolecular_energy": -9.9, "internal_energy": -1.6, "cluster_size": 31, "cluster_id": 1, "rank_in_cluster": 30}

>  <energy>  (12) 
-8.61

>  <cluster_rmsd>  (12) 
1.18

>  <cluster>  (12) 
1

$$$$

     RDKit          3D

 55 58  0  0  0  0  0  0  0  0999 V2000
  145.5610   73.6970  217.3980 N   0  0  0  0  0  0  0  0  0  0  0  0
  145.5170   73.1190  219.0290 S   0  0  0  0  0  0  0  0  0  0  0  0
  145.6170   71.6180  218.9860 O   0  0  0  0  0  0  0  0  0  0  0  0
  146.7130   73.6080  219.7930 O   0  0  0  0  0  0  0  0  0  0  0  0
  144.0270   73.5830  219.8230 C   0  0  0  0  0  0  0  0  0  0  0  0
  143.3140   72.6190  220.5090 C   0  0  0  0  0  0  0  0  0  0  0  0
  142.1490   73.0230  221.1180 C   0  0  0  0  0  0  0  0  0  0  0  0
  141.7060   74.3270  221.0520 C   0  0  0  0  0  0  0  0  0  0  0  0
  142.4090   75.2960  220.3720 C   0  0  0  0  0  0  0  0  0  0  0  0
  141.9770   76.6860  220.2770 C   0  0  0  0  0  0  0  0  0  0  0  0
  140.7700   77.0640  219.9350 C   0  0  0  0  0  0  0  0  0  0  0  0
  139.6370   76.8650  220.8530 C   0  0  0  0  0  0  0  0  0  0  0  0
  139.1390   75.6020  220.9650 N   0  0  0  0  0  0  0  0  0  0  0  0
  138.1090   75.2830  221.7630 C   0  0  0  0  0  0  0  0  0  0  0  0
  137.6280   73.9960  221.8540 C   0  0  0  0  0  0  0  0  0  0  0  0
  136.5610   73.7580  222.7020 C   0  0  0  0  0  0  0  0  0  0  0  0
  135.9670   74.7520  223.4550 C   0  0  0  0  0  0  0  0  0  0  0  0
  134.9220   74.5280  224.2890 F   0  0  0  0  0  0  0  0  0  0  0  0
  136.4750   76.0440  223.3410 C   0  0  0  0  0  0  0  0  0  0  0  0
  137.5500   76.3150  222.4940 C   0  0  0  0  0  0  0  0  0  0  0  0
  138.0550   77.5900  222.3790 C   0  0  0  0  0  0  0  0  0  0  0  0
  137.4970   78.4820  223.0770 O   0  0  0  0  0  0  0  0  0  0  0  0
  139.1040   77.8870  221.5590 N   0  0  0  0  0  0  0  0  0  0  0  0
  139.6230   79.2180  221.4280 C   0  0  0  0  0  0  0  0  0  0  0  0
  140.0420   79.9000  222.6770 C   0  0  0  0  0  0  0  0  0  0  0  0
  140.9750   81.0360  222.2280 C   0  0  0  0  0  0  0  0  0  0  0  0
  141.9900   81.3400  223.2840 C   0  0  0  0  0  0  0  0  0  0  0  0
  142.9130   80.1620  223.4430 C   0  0  0  0  0  0  0  0  0  0  0  0
  142.1640   78.8440  223.4870 C   0  0  0  0  0  0  0  0  0  0  0  0
  140.6860   79.0530  223.7210 C   0  0  0  0  0  0  0  0  0  0  0  0
  143.5830   74.8880  219.7580 C   0  0  0  0  0  0  0  0  0  0  0  0
  145.6390   74.7290  217.4370 H   0  0  0  0  0  0  0  0  0  0  0  0
  144.7020   73.3400  216.9320 H   0  0  0  0  0  0  0  0  0  0  0  0
  143.6618   71.5770  220.5655 H   0  0  0  0  0  0  0  0  0  0  0  0
  141.5532   72.2842  221.6740 H   0  0  0  0  0  0  0  0  0  0  0  0
  140.7669   74.6001  221.5555 H   0  0  0  0  0  0  0  0  0  0  0  0
  142.7139   77.4693  220.5079 H   0  0  0  0  0  0  0  0  0  0  0  0
  140.6023   77.5336  218.9545 H   0  0  0  0  0  0  0  0  0  0  0  0
  138.0790   73.1806  221.2694 H   0  0  0  0  0  0  0  0  0  0  0  0
  136.1689   72.7332  222.7799 H   0  0  0  0  0  0  0  0  0  0  0  0
  136.0237   76.8595  223.9252 H   0  0  0  0  0  0  0  0  0  0  0  0
  140.4998   79.1693  220.7655 H   0  0  0  0  0  0  0  0  0  0  0  0
  138.7848   79.8163  221.0414 H   0  0  0  0  0  0  0  0  0  0  0  0
  139.1361   80.2459  223.1963 H   0  0  0  0  0  0  0  0  0  0  0  0
  141.4934   80.7335  221.3062 H   0  0  0  0  0  0  0  0  0  0  0  0
  140.3711   81.9380  222.0500 H   0  0  0  0  0  0  0  0  0  0  0  0
  142.5723   82.2255  222.9895 H   0  0  0  0  0  0  0  0  0  0  0  0
  141.4799   81.5389  224.2380 H   0  0  0  0  0  0  0  0  0  0  0  0
  143.6118   80.1433  222.5937 H   0  0  0  0  0  0  0  0  0  0  0  0
  143.4445   80.2784  224.3990 H   0  0  0  0  0  0  0  0  0  0  0  0
  142.3036   78.3217  222.5290 H   0  0  0  0  0  0  0  0  0  0  0  0
  142.5639   78.2481  224.3206 H   0  0  0  0  0  0  0  0  0  0  0  0
  140.1907   78.0709  223.7294 H   0  0  0  0  0  0  0  0  0  0  0  0
  140.5773   79.5777  224.6816 H   0  0  0  0  0  0  0  0  0  0  0  0
  144.1788   75.6269  219.2021 H   0  0  0  0  0  0  0  0  0  0  0  0
  1  2  1  0
  2  3  2  0
  2  4  2  0
  2  5  1  0
  5  6  2  0
  6  7  1  0
  7  8  2  0
  8  9  1  0
  9 10  1  0
 10 11  2  0
 11 12  1  0
 12 13  2  0
 13 14  1  0
 14 15  2  0
 15 16  1  0
 16 17  2  0
 17 18  1  0
 17 19  1  0
 19 20  2  0
 20 21  1  0
 21 22  2  0
 21 23  1  0
 23 24  1  0
 24 25  1  0
 25 26  1  0
 26 27  1  0
 27 28  1  0
 28 29  1  0
 29 30  1  0
  9 31  2  0
 31  5  1  0
 23 12  1  0
 30 25  1  0
 20 14  1  0
  1 32  1  0
  1 33  1  0
  6 34  1  0
  7 35  1  0
  8 36  1  0
 10 37  1  0
 11 38  1  0
 15 39  1  0
 16 40  1  0
 19 41  1  0
 24 42  1  0
 24 43  1  0
 25 44  1  0
 26 45  1  0
 26 46  1  0
 27 47  1  0
 27 48  1  0
 28 49  1  0
 28 50  1  0
 29 51  1  0
 29 52  1  0
 30 53  1  0
 30 54  1  0
 31 55  1  0
M  END
>  <smiles>  (13) 
NS(=O)(=O)c1cccc(/C=C/c2nc3ccc(F)cc3c(=O)n2CC2CCCCC2)c1

>  <score_type>  (13) 
oracle

>  <origin>  (13) 
autodockgpu

>  <m_score__min__energy>  (13) 
-9.2799999999999994

>  <m_primary>  (13) 
energy

>  <rmsd>  (13) 
7.0867970327884775

>  <m_score__min__rmsd>  (13) 
7.0867970327884775

>  <meeko>  (13) 
{"free_energy": -7.61, "intermolecular_energy": -9.7, "internal_energy": -1.64, "cluster_size": 3, "cluster_id": 5, "rank_in_cluster": 3}

>  <energy>  (13) 
-8.58

>  <cluster_rmsd>  (13) 
0.86

>  <cluster>  (13) 
1

$$$$

     RDKit          3D

 55 58  0  0  0  0  0  0  0  0999 V2000
  145.9140   73.3880  218.0610 N   0  0  0  0  0  0  0  0  0  0  0  0
  145.5140   73.1930  219.7340 S   0  0  0  0  0  0  0  0  0  0  0  0
  145.4430   71.7160  220.0180 O   0  0  0  0  0  0  0  0  0  0  0  0
  146.6050   73.7450  220.6050 O   0  0  0  0  0  0  0  0  0  0  0  0
  143.9720   73.9340  220.1060 C   0  0  0  0  0  0  0  0  0  0  0  0
  143.7240   75.2130  219.6490 C   0  0  0  0  0  0  0  0  0  0  0  0
  142.5020   75.7610  219.9620 C   0  0  0  0  0  0  0  0  0  0  0  0
  141.5620   75.0700  220.6970 C   0  0  0  0  0  0  0  0  0  0  0  0
  141.7970   73.7930  221.1570 C   0  0  0  0  0  0  0  0  0  0  0  0
  140.8310   73.0290  221.9370 C   0  0  0  0  0  0  0  0  0  0  0  0
  140.8350   71.7240  222.0490 C   0  0  0  0  0  0  0  0  0  0  0  0
  140.3760   71.0800  223.2900 C   0  0  0  0  0  0  0  0  0  0  0  0
  140.8120   71.6110  224.4670 N   0  0  0  0  0  0  0  0  0  0  0  0
  140.4710   71.1210  225.6680 C   0  0  0  0  0  0  0  0  0  0  0  0
  140.9280   71.6810  226.8400 C   0  0  0  0  0  0  0  0  0  0  0  0
  140.5270   71.1090  228.0350 C   0  0  0  0  0  0  0  0  0  0  0  0
  139.6920   70.0100  228.0960 C   0  0  0  0  0  0  0  0  0  0  0  0
  139.2930   69.4440  229.2610 F   0  0  0  0  0  0  0  0  0  0  0  0
  139.2470   69.4660  226.8930 C   0  0  0  0  0  0  0  0  0  0  0  0
  139.6340   70.0200  225.6730 C   0  0  0  0  0  0  0  0  0  0  0  0
  139.1960   69.4850  224.4830 C   0  0  0  0  0  0  0  0  0  0  0  0
  138.4340   68.4820  224.5630 O   0  0  0  0  0  0  0  0  0  0  0  0
  139.5580   70.0040  223.2740 N   0  0  0  0  0  0  0  0  0  0  0  0
  139.1130   69.4390  222.0320 C   0  0  0  0  0  0  0  0  0  0  0  0
  137.8040   69.9070  221.5150 C   0  0  0  0  0  0  0  0  0  0  0  0
  138.1340   71.0670  220.5610 C   0  0  0  0  0  0  0  0  0  0  0  0
  137.0140   72.0580  220.5200 C   0  0  0  0  0  0  0  0  0  0  0  0
  136.8880   72.7250  221.8630 C   0  0  0  0  0  0  0  0  0  0  0  0
  136.9650   71.7340  223.0090 C   0  0  0  0  0  0  0  0  0  0  0  0
  136.7890   70.3130  222.5270 C   0  0  0  0  0  0  0  0  0  0  0  0
  143.0290   73.2440  220.8410 C   0  0  0  0  0  0  0  0  0  0  0  0
  145.9810   74.4050  217.8760 H   0  0  0  0  0  0  0  0  0  0  0  0
  145.1770   72.8930  217.5190 H   0  0  0  0  0  0  0  0  0  0  0  0
  144.4698   75.7684  219.0613 H   0  0  0  0  0  0  0  0  0  0  0  0
  142.2680   76.7788  219.6164 H   0  0  0  0  0  0  0  0  0  0  0  0
  140.5988   75.5513  220.9220 H   0  0  0  0  0  0  0  0  0  0  0  0
  140.0451   73.5865  222.4677 H   0  0  0  0  0  0  0  0  0  0  0  0
  141.1840   71.1050  221.2094 H   0  0  0  0  0  0  0  0  0  0  0  0
  141.5925   72.5575  226.8270 H   0  0  0  0  0  0  0  0  0  0  0  0
  140.8886   71.5483  228.9764 H   0  0  0  0  0  0  0  0  0  0  0  0
  138.5827   68.5894  226.9056 H   0  0  0  0  0  0  0  0  0  0  0  0
  139.8729   69.6690  221.2706 H   0  0  0  0  0  0  0  0  0  0  0  0
  138.9749   68.3671  222.2367 H   0  0  0  0  0  0  0  0  0  0  0  0
  137.3064   69.0558  221.0274 H   0  0  0  0  0  0  0  0  0  0  0  0
  139.0482   71.5705  220.9086 H   0  0  0  0  0  0  0  0  0  0  0  0
  138.2811   70.6600  219.5497 H   0  0  0  0  0  0  0  0  0  0  0  0
  137.2232   72.8167  219.7515 H   0  0  0  0  0  0  0  0  0  0  0  0
  136.0742   71.5407  220.2768 H   0  0  0  0  0  0  0  0  0  0  0  0
  137.7027   73.4560  221.9725 H   0  0  0  0  0  0  0  0  0  0  0  0
  135.9024   73.2115  221.9053 H   0  0  0  0  0  0  0  0  0  0  0  0
  137.9469   71.8269  223.4961 H   0  0  0  0  0  0  0  0  0  0  0  0
  136.1533   71.9610  223.7158 H   0  0  0  0  0  0  0  0  0  0  0  0
  136.8682   69.6380  223.3919 H   0  0  0  0  0  0  0  0  0  0  0  0
  135.8027   70.2513  222.0439 H   0  0  0  0  0  0  0  0  0  0  0  0
  143.2632   72.2263  221.1866 H   0  0  0  0  0  0  0  0  0  0  0  0
  1  2  1  0
  2  3  2  0
  2  4  2  0
  2  5  1  0
  5  6  2  0
  6  7  1  0
  7  8  2  0
  8  9  1  0
  9 10  1  0
 10 11  2  0
 11 12  1  0
 12 13  2  0
 13 14  1  0
 14 15  2  0
 15 16  1  0
 16 17  2  0
 17 18  1  0
 17 19  1  0
 19 20  2  0
 20 21  1  0
 21 22  2  0
 21 23  1  0
 23 24  1  0
 24 25  1  0
 25 26  1  0
 26 27  1  0
 27 28  1  0
 28 29  1  0
 29 30  1  0
  9 31  2  0
 31  5  1  0
 23 12  1  0
 30 25  1  0
 20 14  1  0
  1 32  1  0
  1 33  1  0
  6 34  1  0
  7 35  1  0
  8 36  1  0
 10 37  1  0
 11 38  1  0
 15 39  1  0
 16 40  1  0
 19 41  1  0
 24 42  1  0
 24 43  1  0
 25 44  1  0
 26 45  1  0
 26 46  1  0
 27 47  1  0
 27 48  1  0
 28 49  1  0
 28 50  1  0
 29 51  1  0
 29 52  1  0
 30 53  1  0
 30 54  1  0
 31 55  1  0
M  END
>  <smiles>  (14) 
NS(=O)(=O)c1cccc(/C=C/c2nc3ccc(F)cc3c(=O)n2CC2CCCCC2)c1

>  <score_type>  (14) 
oracle

>  <origin>  (14) 
autodockgpu

>  <m_score__min__energy>  (14) 
-9.2799999999999994

>  <m_primary>  (14) 
energy

>  <rmsd>  (14) 
9.715946556711428

>  <m_score__min__rmsd>  (14) 
9.715946556711428

>  <meeko>  (14) 
{"free_energy": -8.2, "intermolecular_energy": -10.29, "internal_energy": -1.74, "cluster_size": 31, "cluster_id": 1, "rank_in_cluster": 22}

>  <energy>  (14) 
-8.56

>  <cluster_rmsd>  (14) 
1.2

>  <cluster>  (14) 
1

$$$$

     RDKit          3D

 55 58  0  0  0  0  0  0  0  0999 V2000
  146.1930   73.0300  221.7950 N   0  0  0  0  0  0  0  0  0  0  0  0
  145.2200   73.3260  220.3940 S   0  0  0  0  0  0  0  0  0  0  0  0
  144.8980   74.7960  220.3630 O   0  0  0  0  0  0  0  0  0  0  0  0
  145.9950   73.0300  219.1430 O   0  0  0  0  0  0  0  0  0  0  0  0
  143.7340   72.4030  220.4510 C   0  0  0  0  0  0  0  0  0  0  0  0
  143.6610   71.2200  219.7420 C   0  0  0  0  0  0  0  0  0  0  0  0
  142.4760   70.5250  219.8120 C   0  0  0  0  0  0  0  0  0  0  0  0
  141.4070   70.9800  220.5540 C   0  0  0  0  0  0  0  0  0  0  0  0
  141.4690   72.1570  221.2660 C   0  0  0  0  0  0  0  0  0  0  0  0
  140.3620   72.6740  222.0630 C   0  0  0  0  0  0  0  0  0  0  0  0
  139.3630   71.9490  222.5010 C   0  0  0  0  0  0  0  0  0  0  0  0
  139.5550   71.0140  223.6210 C   0  0  0  0  0  0  0  0  0  0  0  0
  140.0920   71.5150  224.7690 N   0  0  0  0  0  0  0  0  0  0  0  0
  140.3210   70.7730  225.8620 C   0  0  0  0  0  0  0  0  0  0  0  0
  140.8650   71.3100  227.0080 C   0  0  0  0  0  0  0  0  0  0  0  0
  141.0680   70.4700  228.0880 C   0  0  0  0  0  0  0  0  0  0  0  0
  140.7480   69.1260  228.0620 C   0  0  0  0  0  0  0  0  0  0  0  0
  140.9420   68.2960  229.1160 F   0  0  0  0  0  0  0  0  0  0  0  0
  140.1990   68.6120  226.8890 C   0  0  0  0  0  0  0  0  0  0  0  0
  139.9830   69.4340  225.7840 C   0  0  0  0  0  0  0  0  0  0  0  0
  139.4410   68.9300  224.6230 C   0  0  0  0  0  0  0  0  0  0  0  0
  139.1560   67.7010  224.6230 O   0  0  0  0  0  0  0  0  0  0  0  0
  139.2180   69.7080  223.5250 N   0  0  0  0  0  0  0  0  0  0  0  0
  138.6660   69.1810  222.3100 C   0  0  0  0  0  0  0  0  0  0  0  0
  137.1870   69.1460  222.2070 C   0  0  0  0  0  0  0  0  0  0  0  0
  136.7900   70.4910  221.5780 C   0  0  0  0  0  0  0  0  0  0  0  0
  135.4290   70.9120  222.0360 C   0  0  0  0  0  0  0  0  0  0  0  0
  135.4670   71.2040  223.5110 C   0  0  0  0  0  0  0  0  0  0  0  0
  136.2200   70.1420  224.2900 C   0  0  0  0  0  0  0  0  0  0  0  0
  136.4320   68.8940  223.4660 C   0  0  0  0  0  0  0  0  0  0  0  0
  142.6630   72.8570  221.1950 C   0  0  0  0  0  0  0  0  0  0  0  0
  147.1390   73.4050  221.6000 H   0  0  0  0  0  0  0  0  0  0  0  0
  146.1570   72.0060  221.9730 H   0  0  0  0  0  0  0  0  0  0  0  0
  144.5108   70.8508  219.1491 H   0  0  0  0  0  0  0  0  0  0  0  0
  142.3786   69.5786  219.2598 H   0  0  0  0  0  0  0  0  0  0  0  0
  140.4805   70.3875  220.5779 H   0  0  0  0  0  0  0  0  0  0  0  0
  140.3666   73.7452  222.3130 H   0  0  0  0  0  0  0  0  0  0  0  0
  138.3738   72.0396  222.0285 H   0  0  0  0  0  0  0  0  0  0  0  0
  141.1303   72.3761  227.0626 H   0  0  0  0  0  0  0  0  0  0  0  0
  141.5028   70.8899  229.0070 H   0  0  0  0  0  0  0  0  0  0  0  0
  139.9331   67.5460  226.8343 H   0  0  0  0  0  0  0  0  0  0  0  0
  139.0429   69.7957  221.4793 H   0  0  0  0  0  0  0  0  0  0  0  0
  138.9811   68.1274  222.2841 H   0  0  0  0  0  0  0  0  0  0  0  0
  136.9087   68.2713  221.6009 H   0  0  0  0  0  0  0  0  0  0  0  0
  137.5224   71.2569  221.8728 H   0  0  0  0  0  0  0  0  0  0  0  0
  136.7737   70.3769  220.4841 H   0  0  0  0  0  0  0  0  0  0  0  0
  135.1216   71.8164  221.4905 H   0  0  0  0  0  0  0  0  0  0  0  0
  134.7087   70.1041  221.8396 H   0  0  0  0  0  0  0  0  0  0  0  0
  135.9617   72.1741  223.6667 H   0  0  0  0  0  0  0  0  0  0  0  0
  134.4300   71.2178  223.8777 H   0  0  0  0  0  0  0  0  0  0  0  0
  137.1997   70.5445  224.5870 H   0  0  0  0  0  0  0  0  0  0  0  0
  135.6216   69.8738  225.1731 H   0  0  0  0  0  0  0  0  0  0  0  0
  136.9929   68.1663  224.0708 H   0  0  0  0  0  0  0  0  0  0  0  0
  135.4388   68.5156  223.1826 H   0  0  0  0  0  0  0  0  0  0  0  0
  142.7605   73.8029  221.7481 H   0  0  0  0  0  0  0  0  0  0  0  0
  1  2  1  0
  2  3  2  0
  2  4  2  0
  2  5  1  0
  5  6  2  0
  6  7  1  0
  7  8  2  0
  8  9  1  0
  9 10  1  0
 10 11  2  0
 11 12  1  0
 12 13  2  0
 13 14  1  0
 14 15  2  0
 15 16  1  0
 16 17  2  0
 17 18  1  0
 17 19  1  0
 19 20  2  0
 20 21  1  0
 21 22  2  0
 21 23  1  0
 23 24  1  0
 24 25  1  0
 25 26  1  0
 26 27  1  0
 27 28  1  0
 28 29  1  0
 29 30  1  0
  9 31  2  0
 31  5  1  0
 23 12  1  0
 30 25  1  0
 20 14  1  0
  1 32  1  0
  1 33  1  0
  6 34  1  0
  7 35  1  0
  8 36  1  0
 10 37  1  0
 11 38  1  0
 15 39  1  0
 16 40  1  0
 19 41  1  0
 24 42  1  0
 24 43  1  0
 25 44  1  0
 26 45  1  0
 26 46  1  0
 27 47  1  0
 27 48  1  0
 28 49  1  0
 28 50  1  0
 29 51  1  0
 29 52  1  0
 30 53  1  0
 30 54  1  0
 31 55  1  0
M  END
>  <smiles>  (15) 
NS(=O)(=O)c1cccc(/C=C/c2nc3ccc(F)cc3c(=O)n2CC2CCCCC2)c1

>  <score_type>  (15) 
oracle

>  <origin>  (15) 
autodockgpu

>  <m_score__min__energy>  (15) 
-9.2799999999999994

>  <m_primary>  (15) 
energy

>  <rmsd>  (15) 
10.640509011534723

>  <m_score__min__rmsd>  (15) 
10.640509011534723

>  <meeko>  (15) 
{"free_energy": -8.5, "intermolecular_energy": -10.59, "internal_energy": -1.81, "cluster_size": 31, "cluster_id": 1, "rank_in_cluster": 17}

>  <energy>  (15) 
-8.55

>  <cluster_rmsd>  (15) 
1.05

>  <cluster>  (15) 
1

$$$$

     RDKit          3D

 55 58  0  0  0  0  0  0  0  0999 V2000
  135.7170   74.3910  224.6180 N   0  0  0  0  0  0  0  0  0  0  0  0
  134.2950   73.5090  225.0650 S   0  0  0  0  0  0  0  0  0  0  0  0
  133.9450   73.8900  226.4780 O   0  0  0  0  0  0  0  0  0  0  0  0
  133.1310   73.9180  224.2090 O   0  0  0  0  0  0  0  0  0  0  0  0
  134.5700   71.7820  224.9760 C   0  0  0  0  0  0  0  0  0  0  0  0
  133.9100   70.9590  225.8690 C   0  0  0  0  0  0  0  0  0  0  0  0
  134.1530   69.6100  225.7670 C   0  0  0  0  0  0  0  0  0  0  0  0
  135.0130   69.0930  224.8200 C   0  0  0  0  0  0  0  0  0  0  0  0
  135.6750   69.9040  223.9250 C   0  0  0  0  0  0  0  0  0  0  0  0
  136.5910   69.3990  222.9100 C   0  0  0  0  0  0  0  0  0  0  0  0
  137.6960   68.7430  223.1680 C   0  0  0  0  0  0  0  0  0  0  0  0
  138.6090   69.2070  224.2250 C   0  0  0  0  0  0  0  0  0  0  0  0
  138.8610   68.3500  225.2540 N   0  0  0  0  0  0  0  0  0  0  0  0
  139.6710   68.6480  226.2800 C   0  0  0  0  0  0  0  0  0  0  0  0
  139.9060   67.7600  227.3060 C   0  0  0  0  0  0  0  0  0  0  0  0
  140.7550   68.1510  228.3250 C   0  0  0  0  0  0  0  0  0  0  0  0
  141.3710   69.3870  228.3530 C   0  0  0  0  0  0  0  0  0  0  0  0
  142.2060   69.7790  229.3470 F   0  0  0  0  0  0  0  0  0  0  0  0
  141.1140   70.2650  227.3020 C   0  0  0  0  0  0  0  0  0  0  0  0
  140.2620   69.8980  226.2600 C   0  0  0  0  0  0  0  0  0  0  0  0
  140.0060   70.7630  225.2200 C   0  0  0  0  0  0  0  0  0  0  0  0
  140.5800   71.8850  225.2660 O   0  0  0  0  0  0  0  0  0  0  0  0
  139.1770   70.4340  224.1870 N   0  0  0  0  0  0  0  0  0  0  0  0
  138.8970   71.3380  223.1090 C   0  0  0  0  0  0  0  0  0  0  0  0
  140.0620   71.9970  222.4690 C   0  0  0  0  0  0  0  0  0  0  0  0
  139.5550   73.3780  222.0220 C   0  0  0  0  0  0  0  0  0  0  0  0
  140.2980   73.8520  220.8130 C   0  0  0  0  0  0  0  0  0  0  0  0
  139.9750   72.9580  219.6470 C   0  0  0  0  0  0  0  0  0  0  0  0
  140.0160   71.4880  220.0170 C   0  0  0  0  0  0  0  0  0  0  0  0
  140.7100   71.2680  221.3420 C   0  0  0  0  0  0  0  0  0  0  0  0
  135.4290   71.2640  224.0290 C   0  0  0  0  0  0  0  0  0  0  0  0
  135.5420   74.8070  223.6860 H   0  0  0  0  0  0  0  0  0  0  0  0
  136.5090   73.7180  224.6560 H   0  0  0  0  0  0  0  0  0  0  0  0
  133.2225   71.3646  226.6259 H   0  0  0  0  0  0  0  0  0  0  0  0
  133.6470   68.9224  226.4607 H   0  0  0  0  0  0  0  0  0  0  0  0
  135.1740   68.0056  224.7788 H   0  0  0  0  0  0  0  0  0  0  0  0
  136.3376   69.5809  221.8552 H   0  0  0  0  0  0  0  0  0  0  0  0
  137.9426   67.8397  222.5907 H   0  0  0  0  0  0  0  0  0  0  0  0
  139.4317   66.7676  227.3147 H   0  0  0  0  0  0  0  0  0  0  0  0
  140.9481   67.4477  229.1485 H   0  0  0  0  0  0  0  0  0  0  0  0
  141.5878   71.2577  227.2938 H   0  0  0  0  0  0  0  0  0  0  0  0
  138.3652   70.7722  222.3298 H   0  0  0  0  0  0  0  0  0  0  0  0
  138.3169   72.1554  223.5621 H   0  0  0  0  0  0  0  0  0  0  0  0
  140.8771   72.0391  223.2065 H   0  0  0  0  0  0  0  0  0  0  0  0
  138.4837   73.3084  221.7824 H   0  0  0  0  0  0  0  0  0  0  0  0
  139.7191   74.0951  222.8398 H   0  0  0  0  0  0  0  0  0  0  0  0
  139.9978   74.8840  220.5787 H   0  0  0  0  0  0  0  0  0  0  0  0
  141.3797   73.8222  221.0108 H   0  0  0  0  0  0  0  0  0  0  0  0
  138.9662   73.2027  219.2831 H   0  0  0  0  0  0  0  0  0  0  0  0
  140.7360   73.1300  218.8715 H   0  0  0  0  0  0  0  0  0  0  0  0
  138.9860   71.1081  220.0859 H   0  0  0  0  0  0  0  0  0  0  0  0
  140.5804   70.9525  219.2393 H   0  0  0  0  0  0  0  0  0  0  0  0
  140.6988   70.1917  221.5687 H   0  0  0  0  0  0  0  0  0  0  0  0
  141.7341   71.6576  221.2448 H   0  0  0  0  0  0  0  0  0  0  0  0
  135.9344   71.9516  223.3349 H   0  0  0  0  0  0  0  0  0  0  0  0
  1  2  1  0
  2  3  2  0
  2  4  2  0
  2  5  1  0
  5  6  2  0
  6  7  1  0
  7  8  2  0
  8  9  1  0
  9 10  1  0
 10 11  2  0
 11 12  1  0
 12 13  2  0
 13 14  1  0
 14 15  2  0
 15 16  1  0
 16 17  2  0
 17 18  1  0
 17 19  1  0
 19 20  2  0
 20 21  1  0
 21 22  2  0
 21 23  1  0
 23 24  1  0
 24 25  1  0
 25 26  1  0
 26 27  1  0
 27 28  1  0
 28 29  1  0
 29 30  1  0
  9 31  2  0
 31  5  1  0
 23 12  1  0
 30 25  1  0
 20 14  1  0
  1 32  1  0
  1 33  1  0
  6 34  1  0
  7 35  1  0
  8 36  1  0
 10 37  1  0
 11 38  1  0
 15 39  1  0
 16 40  1  0
 19 41  1  0
 24 42  1  0
 24 43  1  0
 25 44  1  0
 26 45  1  0
 26 46  1  0
 27 47  1  0
 27 48  1  0
 28 49  1  0
 28 50  1  0
 29 51  1  0
 29 52  1  0
 30 53  1  0
 30 54  1  0
 31 55  1  0
M  END
>  <smiles>  (16) 
NS(=O)(=O)c1cccc(/C=C/c2nc3ccc(F)cc3c(=O)n2CC2CCCCC2)c1

>  <score_type>  (16) 
oracle

>  <origin>  (16) 
autodockgpu

>  <m_score__min__energy>  (16) 
-9.2799999999999994

>  <m_primary>  (16) 
energy

>  <rmsd>  (16) 
9.930827245682062

>  <m_score__min__rmsd>  (16) 
9.930827245682062

>  <meeko>  (16) 
{"free_energy": -7.52, "intermolecular_energy": -9.6, "internal_energy": -1.59, "cluster_size": 1, "cluster_id": 10, "rank_in_cluster": 1}

>  <energy>  (16) 
-8.52

>  <cluster_rmsd>  (16) 
0.88

>  <cluster>  (16) 
1

$$$$

     RDKit          3D

 55 58  0  0  0  0  0  0  0  0999 V2000
  141.6030   68.0400  226.4620 N   0  0  0  0  0  0  0  0  0  0  0  0
  139.9060   68.3490  226.3130 S   0  0  0  0  0  0  0  0  0  0  0  0
  139.1860   67.0400  226.4930 O   0  0  0  0  0  0  0  0  0  0  0  0
  139.4370   69.2530  227.4160 O   0  0  0  0  0  0  0  0  0  0  0  0
  139.5220   69.0170  224.7410 C   0  0  0  0  0  0  0  0  0  0  0  0
  138.8710   68.2170  223.8220 C   0  0  0  0  0  0  0  0  0  0  0  0
  138.5870   68.7770  222.5990 C   0  0  0  0  0  0  0  0  0  0  0  0
  138.9320   70.0780  222.2960 C   0  0  0  0  0  0  0  0  0  0  0  0
  139.5800   70.8850  223.2050 C   0  0  0  0  0  0  0  0  0  0  0  0
  139.9620   72.2640  222.9250 C   0  0  0  0  0  0  0  0  0  0  0  0
  139.9510   72.8090  221.7330 C   0  0  0  0  0  0  0  0  0  0  0  0
  140.4100   74.1940  221.5430 C   0  0  0  0  0  0  0  0  0  0  0  0
  139.7040   75.1780  222.1690 N   0  0  0  0  0  0  0  0  0  0  0  0
  140.0130   76.4790  222.0780 C   0  0  0  0  0  0  0  0  0  0  0  0
  139.2810   77.4500  222.7240 C   0  0  0  0  0  0  0  0  0  0  0  0
  139.6700   78.7690  222.5740 C   0  0  0  0  0  0  0  0  0  0  0  0
  140.7570   79.1450  221.8080 C   0  0  0  0  0  0  0  0  0  0  0  0
  141.1460   80.4350  221.6550 F   0  0  0  0  0  0  0  0  0  0  0  0
  141.4780   78.1420  221.1660 C   0  0  0  0  0  0  0  0  0  0  0  0
  141.1090   76.8030  221.2990 C   0  0  0  0  0  0  0  0  0  0  0  0
  141.8200   75.8080  220.6670 C   0  0  0  0  0  0  0  0  0  0  0  0
  142.8090   76.1760  219.9740 O   0  0  0  0  0  0  0  0  0  0  0  0
  141.4840   74.4900  220.7770 N   0  0  0  0  0  0  0  0  0  0  0  0
  142.2150   73.4530  220.1070 C   0  0  0  0  0  0  0  0  0  0  0  0
  143.3200   72.8170  220.8650 C   0  0  0  0  0  0  0  0  0  0  0  0
  144.5130   73.7770  220.7290 C   0  0  0  0  0  0  0  0  0  0  0  0
  145.8080   73.0300  220.7890 C   0  0  0  0  0  0  0  0  0  0  0  0
  145.9260   72.1390  219.5810 C   0  0  0  0  0  0  0  0  0  0  0  0
  144.6420   71.3840  219.2930 C   0  0  0  0  0  0  0  0  0  0  0  0
  143.6950   71.4300  220.4690 C   0  0  0  0  0  0  0  0  0  0  0  0
  139.8650   70.3190  224.4370 C   0  0  0  0  0  0  0  0  0  0  0  0
  141.8320   67.2570  225.8240 H   0  0  0  0  0  0  0  0  0  0  0  0
  141.7850   67.8510  227.4680 H   0  0  0  0  0  0  0  0  0  0  0  0
  138.5926   67.1793  224.0580 H   0  0  0  0  0  0  0  0  0  0  0  0
  138.0701   68.1707  221.8406 H   0  0  0  0  0  0  0  0  0  0  0  0
  138.6833   70.4811  221.3032 H   0  0  0  0  0  0  0  0  0  0  0  0
  140.2811   72.8895  223.7717 H   0  0  0  0  0  0  0  0  0  0  0  0
  139.5964   72.2273  220.8693 H   0  0  0  0  0  0  0  0  0  0  0  0
  138.4109   77.1842  223.3423 H   0  0  0  0  0  0  0  0  0  0  0  0
  139.0900   79.5511  223.0857 H   0  0  0  0  0  0  0  0  0  0  0  0
  142.3478   78.4079  220.5473 H   0  0  0  0  0  0  0  0  0  0  0  0
  141.4992   72.6629  219.8363 H   0  0  0  0  0  0  0  0  0  0  0  0
  142.6997   73.9483  219.2527 H   0  0  0  0  0  0  0  0  0  0  0  0
  142.9815   72.6702  221.9013 H   0  0  0  0  0  0  0  0  0  0  0  0
  144.4445   74.3025  219.7651 H   0  0  0  0  0  0  0  0  0  0  0  0
  144.4827   74.4959  221.5611 H   0  0  0  0  0  0  0  0  0  0  0  0
  146.6441   73.7447  220.8013 H   0  0  0  0  0  0  0  0  0  0  0  0
  145.8378   72.4177  221.7023 H   0  0  0  0  0  0  0  0  0  0  0  0
  146.1749   72.7592  218.7073 H   0  0  0  0  0  0  0  0  0  0  0  0
  146.7127   71.3979  219.7858 H   0  0  0  0  0  0  0  0  0  0  0  0
  144.1495   71.8370  218.4200 H   0  0  0  0  0  0  0  0  0  0  0  0
  144.8975   70.3321  219.0975 H   0  0  0  0  0  0  0  0  0  0  0  0
  142.7790   70.8825  220.2022 H   0  0  0  0  0  0  0  0  0  0  0  0
  144.2135   70.9738  221.3251 H   0  0  0  0  0  0  0  0  0  0  0  0
  140.3804   70.9257  225.1961 H   0  0  0  0  0  0  0  0  0  0  0  0
  1  2  1  0
  2  3  2  0
  2  4  2  0
  2  5  1  0
  5  6  2  0
  6  7  1  0
  7  8  2  0
  8  9  1  0
  9 10  1  0
 10 11  2  0
 11 12  1  0
 12 13  2  0
 13 14  1  0
 14 15  2  0
 15 16  1  0
 16 17  2  0
 17 18  1  0
 17 19  1  0
 19 20  2  0
 20 21  1  0
 21 22  2  0
 21 23  1  0
 23 24  1  0
 24 25  1  0
 25 26  1  0
 26 27  1  0
 27 28  1  0
 28 29  1  0
 29 30  1  0
  9 31  2  0
 31  5  1  0
 23 12  1  0
 30 25  1  0
 20 14  1  0
  1 32  1  0
  1 33  1  0
  6 34  1  0
  7 35  1  0
  8 36  1  0
 10 37  1  0
 11 38  1  0
 15 39  1  0
 16 40  1  0
 19 41  1  0
 24 42  1  0
 24 43  1  0
 25 44  1  0
 26 45  1  0
 26 46  1  0
 27 47  1  0
 27 48  1  0
 28 49  1  0
 28 50  1  0
 29 51  1  0
 29 52  1  0
 30 53  1  0
 30 54  1  0
 31 55  1  0
M  END
>  <smiles>  (17) 
NS(=O)(=O)c1cccc(/C=C/c2nc3ccc(F)cc3c(=O)n2CC2CCCCC2)c1

>  <score_type>  (17) 
oracle

>  <origin>  (17) 
autodockgpu

>  <m_score__min__energy>  (17) 
-9.2799999999999994

>  <m_primary>  (17) 
energy

>  <rmsd>  (17) 
5.474816609379895

>  <m_score__min__rmsd>  (17) 
5.474816609379895

>  <meeko>  (17) 
{"free_energy": -7.97, "intermolecular_energy": -10.06, "internal_energy": -1.28, "cluster_size": 3, "cluster_id": 2, "rank_in_cluster": 3}

>  <energy>  (17) 
-8.5

>  <cluster_rmsd>  (17) 
1.44

>  <cluster>  (17) 
1

$$$$

     RDKit          3D

 55 58  0  0  0  0  0  0  0  0999 V2000
  143.6930   76.4150  218.9630 N   0  0  0  0  0  0  0  0  0  0  0  0
  143.2720   74.9490  219.7830 S   0  0  0  0  0  0  0  0  0  0  0  0
  143.1050   73.8750  218.7410 O   0  0  0  0  0  0  0  0  0  0  0  0
  144.3930   74.5070  220.6790 O   0  0  0  0  0  0  0  0  0  0  0  0
  141.7790   75.1320  220.6790 C   0  0  0  0  0  0  0  0  0  0  0  0
  141.3010   76.4050  220.9160 C   0  0  0  0  0  0  0  0  0  0  0  0
  140.1260   76.5070  221.6230 C   0  0  0  0  0  0  0  0  0  0  0  0
  139.4500   75.3940  222.0780 C   0  0  0  0  0  0  0  0  0  0  0  0
  139.9180   74.1190  221.8460 C   0  0  0  0  0  0  0  0  0  0  0  0
  139.2350   72.9170  222.3090 C   0  0  0  0  0  0  0  0  0  0  0  0
  139.7250   71.7050  222.2170 C   0  0  0  0  0  0  0  0  0  0  0  0
  139.7990   70.8390  223.4050 C   0  0  0  0  0  0  0  0  0  0  0  0
  140.3200   71.3810  224.5410 N   0  0  0  0  0  0  0  0  0  0  0  0
  140.4460   70.7020  225.6910 C   0  0  0  0  0  0  0  0  0  0  0  0
  140.9770   71.2780  226.8240 C   0  0  0  0  0  0  0  0  0  0  0  0
  141.0710   70.5040  227.9660 C   0  0  0  0  0  0  0  0  0  0  0  0
  140.6550   69.1870  228.0140 C   0  0  0  0  0  0  0  0  0  0  0  0
  140.7420   68.4210  229.1290 F   0  0  0  0  0  0  0  0  0  0  0  0
  140.1220   68.6320  226.8530 C   0  0  0  0  0  0  0  0  0  0  0  0
  140.0150   69.3880  225.6860 C   0  0  0  0  0  0  0  0  0  0  0  0
  139.4900   68.8430  224.5360 C   0  0  0  0  0  0  0  0  0  0  0  0
  139.1160   67.6400  224.6040 O   0  0  0  0  0  0  0  0  0  0  0  0
  139.3720   69.5560  223.3790 N   0  0  0  0  0  0  0  0  0  0  0  0
  138.8370   68.9850  222.1760 C   0  0  0  0  0  0  0  0  0  0  0  0
  137.3620   69.0080  222.0230 C   0  0  0  0  0  0  0  0  0  0  0  0
  137.0540   70.2910  221.2340 C   0  0  0  0  0  0  0  0  0  0  0  0
  135.7020   70.8240  221.5900 C   0  0  0  0  0  0  0  0  0  0  0  0
  135.7090   71.2790  223.0240 C   0  0  0  0  0  0  0  0  0  0  0  0
  136.3820   70.2800  223.9450 C   0  0  0  0  0  0  0  0  0  0  0  0
  136.5560   68.9370  223.2740 C   0  0  0  0  0  0  0  0  0  0  0  0
  141.1020   74.0190  221.1330 C   0  0  0  0  0  0  0  0  0  0  0  0
  144.4280   76.1830  218.2720 H   0  0  0  0  0  0  0  0  0  0  0  0
  143.9800   77.0940  219.6970 H   0  0  0  0  0  0  0  0  0  0  0  0
  141.8352   77.2966  220.5560 H   0  0  0  0  0  0  0  0  0  0  0  0
  139.7132   77.5050  221.8318 H   0  0  0  0  0  0  0  0  0  0  0  0
  138.5139   75.5277  222.6401 H   0  0  0  0  0  0  0  0  0  0  0  0
  138.2416   73.0354  222.7663 H   0  0  0  0  0  0  0  0  0  0  0  0
  140.0832   71.3325  221.2459 H   0  0  0  0  0  0  0  0  0  0  0  0
  141.3167   72.3242  226.8204 H   0  0  0  0  0  0  0  0  0  0  0  0
  141.4949   70.9558  228.8749 H   0  0  0  0  0  0  0  0  0  0  0  0
  139.7817   67.5860  226.8566 H   0  0  0  0  0  0  0  0  0  0  0  0
  139.2683   69.5347  221.3264 H   0  0  0  0  0  0  0  0  0  0  0  0
  139.1052   67.9191  222.2195 H   0  0  0  0  0  0  0  0  0  0  0  0
  137.0588   68.0842  221.5085 H   0  0  0  0  0  0  0  0  0  0  0  0
  137.8142   71.0503  221.4698 H   0  0  0  0  0  0  0  0  0  0  0  0
  137.0676   70.0552  220.1597 H   0  0  0  0  0  0  0  0  0  0  0  0
  135.4582   71.6741  220.9359 H   0  0  0  0  0  0  0  0  0  0  0  0
  134.9478   70.0342  221.4576 H   0  0  0  0  0  0  0  0  0  0  0  0
  136.2469   72.2364  223.0881 H   0  0  0  0  0  0  0  0  0  0  0  0
  134.6628   71.3815  223.3481 H   0  0  0  0  0  0  0  0  0  0  0  0
  137.3710   70.6674  224.2308 H   0  0  0  0  0  0  0  0  0  0  0  0
  135.7439   70.1430  224.8305 H   0  0  0  0  0  0  0  0  0  0  0  0
  137.0599   68.2573  223.9769 H   0  0  0  0  0  0  0  0  0  0  0  0
  135.5541   68.5762  222.9983 H   0  0  0  0  0  0  0  0  0  0  0  0
  141.5148   73.0214  220.9225 H   0  0  0  0  0  0  0  0  0  0  0  0
  1  2  1  0
  2  3  2  0
  2  4  2  0
  2  5  1  0
  5  6  2  0
  6  7  1  0
  7  8  2  0
  8  9  1  0
  9 10  1  0
 10 11  2  0
 11 12  1  0
 12 13  2  0
 13 14  1  0
 14 15  2  0
 15 16  1  0
 16 17  2  0
 17 18  1  0
 17 19  1  0
 19 20  2  0
 20 21  1  0
 21 22  2  0
 21 23  1  0
 23 24  1  0
 24 25  1  0
 25 26  1  0
 26 27  1  0
 27 28  1  0
 28 29  1  0
 29 30  1  0
  9 31  2  0
 31  5  1  0
 23 12  1  0
 30 25  1  0
 20 14  1  0
  1 32  1  0
  1 33  1  0
  6 34  1  0
  7 35  1  0
  8 36  1  0
 10 37  1  0
 11 38  1  0
 15 39  1  0
 16 40  1  0
 19 41  1  0
 24 42  1  0
 24 43  1  0
 25 44  1  0
 26 45  1  0
 26 46  1  0
 27 47  1  0
 27 48  1  0
 28 49  1  0
 28 50  1  0
 29 51  1  0
 29 52  1  0
 30 53  1  0
 30 54  1  0
 31 55  1  0
M  END
>  <smiles>  (18) 
NS(=O)(=O)c1cccc(/C=C/c2nc3ccc(F)cc3c(=O)n2CC2CCCCC2)c1

>  <score_type>  (18) 
oracle

>  <origin>  (18) 
autodockgpu

>  <m_score__min__energy>  (18) 
-9.2799999999999994

>  <m_primary>  (18) 
energy

>  <rmsd>  (18) 
10.556152579025147

>  <m_score__min__rmsd>  (18) 
10.556152579025147

>  <meeko>  (18) 
{"free_energy": -8.09, "intermolecular_energy": -10.18, "internal_energy": -1.75, "cluster_size": 31, "cluster_id": 1, "rank_in_cluster": 28}

>  <energy>  (18) 
-8.44

>  <cluster_rmsd>  (18) 
1.39

>  <cluster>  (18) 
1

$$$$

     RDKit          3D

 55 58  0  0  0  0  0  0  0  0999 V2000
  143.3190   79.5430  222.7210 N   0  0  0  0  0  0  0  0  0  0  0  0
  141.9990   80.6220  223.0280 S   0  0  0  0  0  0  0  0  0  0  0  0
  142.2400   81.2690  224.3650 O   0  0  0  0  0  0  0  0  0  0  0  0
  141.9770   81.7280  222.0130 O   0  0  0  0  0  0  0  0  0  0  0  0
  140.4750   79.7610  223.0600 C   0  0  0  0  0  0  0  0  0  0  0  0
  139.3450   80.4300  223.4900 C   0  0  0  0  0  0  0  0  0  0  0  0
  138.1680   79.7200  223.5010 C   0  0  0  0  0  0  0  0  0  0  0  0
  138.1090   78.4010  223.1030 C   0  0  0  0  0  0  0  0  0  0  0  0
  139.2290   77.7250  222.6720 C   0  0  0  0  0  0  0  0  0  0  0  0
  139.2100   76.3310  222.2430 C   0  0  0  0  0  0  0  0  0  0  0  0
  139.5470   75.9190  221.0460 C   0  0  0  0  0  0  0  0  0  0  0  0
  140.9200   75.4660  220.7730 C   0  0  0  0  0  0  0  0  0  0  0  0
  141.2050   74.1550  221.0120 N   0  0  0  0  0  0  0  0  0  0  0  0
  142.4140   73.6140  220.8080 C   0  0  0  0  0  0  0  0  0  0  0  0
  142.6700   72.2840  221.0590 C   0  0  0  0  0  0  0  0  0  0  0  0
  143.9480   71.8100  220.8210 C   0  0  0  0  0  0  0  0  0  0  0  0
  144.9670   72.6120  220.3430 C   0  0  0  0  0  0  0  0  0  0  0  0
  146.2210   72.1570  220.1060 F   0  0  0  0  0  0  0  0  0  0  0  0
  144.6770   73.9530  220.0980 C   0  0  0  0  0  0  0  0  0  0  0  0
  143.3990   74.4590  220.3290 C   0  0  0  0  0  0  0  0  0  0  0  0
  143.1090   75.7830  220.0890 C   0  0  0  0  0  0  0  0  0  0  0  0
  144.0540   76.4960  219.6510 O   0  0  0  0  0  0  0  0  0  0  0  0
  141.8680   76.3090  220.3050 N   0  0  0  0  0  0  0  0  0  0  0  0
  141.5680   77.6920  220.0680 C   0  0  0  0  0  0  0  0  0  0  0  0
  142.2600   78.3400  218.9270 C   0  0  0  0  0  0  0  0  0  0  0  0
  142.1860   79.8500  219.2110 C   0  0  0  0  0  0  0  0  0  0  0  0
  142.1710   80.6310  217.9360 C   0  0  0  0  0  0  0  0  0  0  0  0
  140.8960   80.3450  217.1900 C   0  0  0  0  0  0  0  0  0  0  0  0
  140.5640   78.8650  217.1610 C   0  0  0  0  0  0  0  0  0  0  0  0
  141.7510   78.0220  217.5640 C   0  0  0  0  0  0  0  0  0  0  0  0
  140.4140   78.4420  222.6610 C   0  0  0  0  0  0  0  0  0  0  0  0
  143.6850   79.7630  221.7770 H   0  0  0  0  0  0  0  0  0  0  0  0
  142.9470   78.5780  222.8320 H   0  0  0  0  0  0  0  0  0  0  0  0
  139.3854   81.4820  223.8088 H   0  0  0  0  0  0  0  0  0  0  0  0
  137.2467   80.2183  223.8370 H   0  0  0  0  0  0  0  0  0  0  0  0
  137.1430   77.8755  223.1304 H   0  0  0  0  0  0  0  0  0  0  0  0
  138.8909   75.5740  222.9745 H   0  0  0  0  0  0  0  0  0  0  0  0
  138.7987   75.9117  220.2398 H   0  0  0  0  0  0  0  0  0  0  0  0
  141.8810   71.6177  221.4378 H   0  0  0  0  0  0  0  0  0  0  0  0
  144.1621   70.7497  221.0207 H   0  0  0  0  0  0  0  0  0  0  0  0
  145.4654   74.6194  219.7182 H   0  0  0  0  0  0  0  0  0  0  0  0
  140.4855   77.7720  219.8897 H   0  0  0  0  0  0  0  0  0  0  0  0
  141.9281   78.2222  220.9620 H   0  0  0  0  0  0  0  0  0  0  0  0
  143.2850   77.9435  218.8808 H   0  0  0  0  0  0  0  0  0  0  0  0
  141.2676   80.0658  219.7767 H   0  0  0  0  0  0  0  0  0  0  0  0
  143.0724   80.1427  219.7929 H   0  0  0  0  0  0  0  0  0  0  0  0
  142.2302   81.7057  218.1631 H   0  0  0  0  0  0  0  0  0  0  0  0
  143.0323   80.3402  217.3167 H   0  0  0  0  0  0  0  0  0  0  0  0
  140.0712   80.8828  217.6805 H   0  0  0  0  0  0  0  0  0  0  0  0
  141.0326   80.6791  216.1509 H   0  0  0  0  0  0  0  0  0  0  0  0
  139.7352   78.6711  217.8578 H   0  0  0  0  0  0  0  0  0  0  0  0
  140.2830   78.5950  216.1323 H   0  0  0  0  0  0  0  0  0  0  0  0
  141.4524   76.9636  217.5403 H   0  0  0  0  0  0  0  0  0  0  0  0
  142.5622   78.2382  216.8532 H   0  0  0  0  0  0  0  0  0  0  0  0
  141.3350   77.9441  222.3236 H   0  0  0  0  0  0  0  0  0  0  0  0
  1  2  1  0
  2  3  2  0
  2  4  2  0
  2  5  1  0
  5  6  2  0
  6  7  1  0
  7  8  2  0
  8  9  1  0
  9 10  1  0
 10 11  2  0
 11 12  1  0
 12 13  2  0
 13 14  1  0
 14 15  2  0
 15 16  1  0
 16 17  2  0
 17 18  1  0
 17 19  1  0
 19 20  2  0
 20 21  1  0
 21 22  2  0
 21 23  1  0
 23 24  1  0
 24 25  1  0
 25 26  1  0
 26 27  1  0
 27 28  1  0
 28 29  1  0
 29 30  1  0
  9 31  2  0
 31  5  1  0
 23 12  1  0
 30 25  1  0
 20 14  1  0
  1 32  1  0
  1 33  1  0
  6 34  1  0
  7 35  1  0
  8 36  1  0
 10 37  1  0
 11 38  1  0
 15 39  1  0
 16 40  1  0
 19 41  1  0
 24 42  1  0
 24 43  1  0
 25 44  1  0
 26 45  1  0
 26 46  1  0
 27 47  1  0
 27 48  1  0
 28 49  1  0
 28 50  1  0
 29 51  1  0
 29 52  1  0
 30 53  1  0
 30 54  1  0
 31 55  1  0
M  END
>  <smiles>  (19) 
NS(=O)(=O)c1cccc(/C=C/c2nc3ccc(F)cc3c(=O)n2CC2CCCCC2)c1

>  <score_type>  (19) 
oracle

>  <origin>  (19) 
autodockgpu

>  <m_score__min__energy>  (19) 
-9.2799999999999994

>  <m_primary>  (19) 
energy

>  <rmsd>  (19) 
6.985794882319992

>  <m_score__min__rmsd>  (19) 
6.985794882319992

>  <meeko>  (19) 
{"free_energy": -7.71, "intermolecular_energy": -9.8, "internal_energy": -1.74, "cluster_size": 1, "cluster_id": 8, "rank_in_cluster": 1}

>  <energy>  (19) 
-8.41

>  <cluster_rmsd>  (19) 
0.91

>  <cluster>  (19) 
1

$$$$

     RDKit          3D

 55 58  0  0  0  0  0  0  0  0999 V2000
  146.2740   72.6510  221.3310 N   0  0  0  0  0  0  0  0  0  0  0  0
  145.4140   72.6530  219.8280 S   0  0  0  0  0  0  0  0  0  0  0  0
  146.3040   73.2850  218.7920 O   0  0  0  0  0  0  0  0  0  0  0  0
  145.1510   71.2480  219.3690 O   0  0  0  0  0  0  0  0  0  0  0  0
  143.9250   73.5660  219.9550 C   0  0  0  0  0  0  0  0  0  0  0  0
  143.7620   74.6810  219.1570 C   0  0  0  0  0  0  0  0  0  0  0  0
  142.5790   75.3710  219.2860 C   0  0  0  0  0  0  0  0  0  0  0  0
  141.5970   74.9740  220.1690 C   0  0  0  0  0  0  0  0  0  0  0  0
  141.7490   73.8630  220.9680 C   0  0  0  0  0  0  0  0  0  0  0  0
  140.7350   73.4100  221.9140 C   0  0  0  0  0  0  0  0  0  0  0  0
  140.1380   72.2450  221.8580 C   0  0  0  0  0  0  0  0  0  0  0  0
  139.8470   71.4960  223.0910 C   0  0  0  0  0  0  0  0  0  0  0  0
  140.6610   71.7160  224.1620 N   0  0  0  0  0  0  0  0  0  0  0  0
  140.5080   71.0990  225.3430 C   0  0  0  0  0  0  0  0  0  0  0  0
  141.3470   71.3430  226.4080 C   0  0  0  0  0  0  0  0  0  0  0  0
  141.1170   70.6610  227.5890 C   0  0  0  0  0  0  0  0  0  0  0  0
  140.0860   69.7540  227.7400 C   0  0  0  0  0  0  0  0  0  0  0  0
  139.8510   69.0820  228.8950 F   0  0  0  0  0  0  0  0  0  0  0  0
  139.2540   69.5280  226.6460 C   0  0  0  0  0  0  0  0  0  0  0  0
  139.4610   70.2010  225.4420 C   0  0  0  0  0  0  0  0  0  0  0  0
  138.6410   69.9800  224.3590 C   0  0  0  0  0  0  0  0  0  0  0  0
  137.7060   69.1490  224.5210 O   0  0  0  0  0  0  0  0  0  0  0  0
  138.8190   70.6220  223.1680 N   0  0  0  0  0  0  0  0  0  0  0  0
  137.9740   70.3830  222.0330 C   0  0  0  0  0  0  0  0  0  0  0  0
  138.3590   69.2670  221.1350 C   0  0  0  0  0  0  0  0  0  0  0  0
  137.0480   68.5280  220.8180 C   0  0  0  0  0  0  0  0  0  0  0  0
  137.3040   67.0780  220.5570 C   0  0  0  0  0  0  0  0  0  0  0  0
  137.7870   66.4210  221.8220 C   0  0  0  0  0  0  0  0  0  0  0  0
  138.8400   67.2470  222.5350 C   0  0  0  0  0  0  0  0  0  0  0  0
  139.4000   68.3280  221.6390 C   0  0  0  0  0  0  0  0  0  0  0  0
  142.9410   73.1690  220.8370 C   0  0  0  0  0  0  0  0  0  0  0  0
  147.0680   71.9930  221.2310 H   0  0  0  0  0  0  0  0  0  0  0  0
  145.5860   72.3970  222.0680 H   0  0  0  0  0  0  0  0  0  0  0  0
  144.5418   75.0025  218.4510 H   0  0  0  0  0  0  0  0  0  0  0  0
  142.4116   76.2649  218.6672 H   0  0  0  0  0  0  0  0  0  0  0  0
  140.6685   75.5599  220.2368 H   0  0  0  0  0  0  0  0  0  0  0  0
  140.4526   74.0924  222.7292 H   0  0  0  0  0  0  0  0  0  0  0  0
  139.8524   71.8239  220.8828 H   0  0  0  0  0  0  0  0  0  0  0  0
  142.1766   72.0601  226.3215 H   0  0  0  0  0  0  0  0  0  0  0  0
  141.7831   70.8487  228.4441 H   0  0  0  0  0  0  0  0  0  0  0  0
  138.4245   68.8108  226.7325 H   0  0  0  0  0  0  0  0  0  0  0  0
  136.9622   70.1728  222.4100 H   0  0  0  0  0  0  0  0  0  0  0  0
  138.0574   71.2901  221.4164 H   0  0  0  0  0  0  0  0  0  0  0  0
  138.8540   69.6963  220.2514 H   0  0  0  0  0  0  0  0  0  0  0  0
  136.3637   68.6248  221.6738 H   0  0  0  0  0  0  0  0  0  0  0  0
  136.6013   68.9743  219.9173 H   0  0  0  0  0  0  0  0  0  0  0  0
  136.3734   66.5949  220.2246 H   0  0  0  0  0  0  0  0  0  0  0  0
  138.0693   66.9748  219.7736 H   0  0  0  0  0  0  0  0  0  0  0  0
  136.9300   66.2815  222.4974 H   0  0  0  0  0  0  0  0  0  0  0  0
  138.2438   65.4587  221.5476 H   0  0  0  0  0  0  0  0  0  0  0  0
  138.3863   67.7166  223.4202 H   0  0  0  0  0  0  0  0  0  0  0  0
  139.6643   66.5784  222.8240 H   0  0  0  0  0  0  0  0  0  0  0  0
  140.1446   68.9037  222.2084 H   0  0  0  0  0  0  0  0  0  0  0  0
  139.8446   67.8311  220.7641 H   0  0  0  0  0  0  0  0  0  0  0  0
  143.1079   72.2744  221.4549 H   0  0  0  0  0  0  0  0  0  0  0  0
  1  2  1  0
  2  3  2  0
  2  4  2  0
  2  5  1  0
  5  6  2  0
  6  7  1  0
  7  8  2  0
  8  9  1  0
  9 10  1  0
 10 11  2  0
 11 12  1  0
 12 13  2  0
 13 14  1  0
 14 15  2  0
 15 16  1  0
 16 17  2  0
 17 18  1  0
 17 19  1  0
 19 20  2  0
 20 21  1  0
 21 22  2  0
 21 23  1  0
 23 24  1  0
 24 25  1  0
 25 26  1  0
 26 27  1  0
 27 28  1  0
 28 29  1  0
 29 30  1  0
  9 31  2  0
 31  5  1  0
 23 12  1  0
 30 25  1  0
 20 14  1  0
  1 32  1  0
  1 33  1  0
  6 34  1  0
  7 35  1  0
  8 36  1  0
 10 37  1  0
 11 38  1  0
 15 39  1  0
 16 40  1  0
 19 41  1  0
 24 42  1  0
 24 43  1  0
 25 44  1  0
 26 45  1  0
 26 46  1  0
 27 47  1  0
 27 48  1  0
 28 49  1  0
 28 50  1  0
 29 51  1  0
 29 52  1  0
 30 53  1  0
 30 54  1  0
 31 55  1  0
M  END
>  <smiles>  (20) 
NS(=O)(=O)c1cccc(/C=C/c2nc3ccc(F)cc3c(=O)n2CC2CCCCC2)c1

>  <score_type>  (20) 
oracle

>  <origin>  (20) 
autodockgpu

>  <m_score__min__energy>  (20) 
-9.2799999999999994

>  <m_primary>  (20) 
energy

>  <rmsd>  (20) 
10.811977967585387

>  <m_score__min__rmsd>  (20) 
10.811977967585387

>  <meeko>  (20) 
{"free_energy": -8.11, "intermolecular_energy": -10.2, "internal_energy": -1.4, "cluster_size": 31, "cluster_id": 1, "rank_in_cluster": 27}

>  <energy>  (20) 
-8.34

>  <cluster_rmsd>  (20) 
0.85

>  <cluster>  (20) 
1

$$$$

     RDKit          3D

 55 58  0  0  0  0  0  0  0  0999 V2000
  146.3910   73.5330  218.6660 N   0  0  0  0  0  0  0  0  0  0  0  0
  145.5580   72.6410  219.8940 S   0  0  0  0  0  0  0  0  0  0  0  0
  145.8980   71.1860  219.7120 O   0  0  0  0  0  0  0  0  0  0  0  0
  146.0540   73.0310  221.2560 O   0  0  0  0  0  0  0  0  0  0  0  0
  143.8250   72.8560  219.7660 C   0  0  0  0  0  0  0  0  0  0  0  0
  143.2720   73.0520  218.5160 C   0  0  0  0  0  0  0  0  0  0  0  0
  141.9080   73.2170  218.4580 C   0  0  0  0  0  0  0  0  0  0  0  0
  141.1220   73.1900  219.5900 C   0  0  0  0  0  0  0  0  0  0  0  0
  141.6630   72.9950  220.8420 C   0  0  0  0  0  0  0  0  0  0  0  0
  140.8680   72.9590  222.0640 C   0  0  0  0  0  0  0  0  0  0  0  0
  139.8540   72.1540  222.2660 C   0  0  0  0  0  0  0  0  0  0  0  0
  139.8220   71.2780  223.4480 C   0  0  0  0  0  0  0  0  0  0  0  0
  140.4230   71.7370  224.5820 N   0  0  0  0  0  0  0  0  0  0  0  0
  140.4670   71.0400  225.7260 C   0  0  0  0  0  0  0  0  0  0  0  0
  141.0830   71.5310  226.8560 C   0  0  0  0  0  0  0  0  0  0  0  0
  141.0820   70.7440  227.9940 C   0  0  0  0  0  0  0  0  0  0  0  0
  140.4900   69.4960  228.0390 C   0  0  0  0  0  0  0  0  0  0  0  0
  140.4830   68.7180  229.1500 F   0  0  0  0  0  0  0  0  0  0  0  0
  139.8750   69.0260  226.8810 C   0  0  0  0  0  0  0  0  0  0  0  0
  139.8610   69.7970  225.7190 C   0  0  0  0  0  0  0  0  0  0  0  0
  139.2540   69.3360  224.5730 C   0  0  0  0  0  0  0  0  0  0  0  0
  138.7200   68.1950  224.6380 O   0  0  0  0  0  0  0  0  0  0  0  0
  139.2240   70.0660  223.4200 N   0  0  0  0  0  0  0  0  0  0  0  0
  138.6040   69.5820  222.2210 C   0  0  0  0  0  0  0  0  0  0  0  0
  137.1590   69.8730  222.0490 C   0  0  0  0  0  0  0  0  0  0  0  0
  136.9250   71.2110  222.7680 C   0  0  0  0  0  0  0  0  0  0  0  0
  135.5280   71.2950  223.2970 C   0  0  0  0  0  0  0  0  0  0  0  0
  135.3430   70.2690  224.3820 C   0  0  0  0  0  0  0  0  0  0  0  0
  135.9170   68.9170  224.0020 C   0  0  0  0  0  0  0  0  0  0  0  0
  136.2040   68.8320  222.5210 C   0  0  0  0  0  0  0  0  0  0  0  0
  143.0370   72.8280  220.8990 C   0  0  0  0  0  0  0  0  0  0  0  0
  147.0610   74.1630  219.1420 H   0  0  0  0  0  0  0  0  0  0  0  0
  145.6620   74.0150  218.1020 H   0  0  0  0  0  0  0  0  0  0  0  0
  143.8937   73.0751  217.6088 H   0  0  0  0  0  0  0  0  0  0  0  0
  141.4303   73.3751  217.4798 H   0  0  0  0  0  0  0  0  0  0  0  0
  140.0351   73.3276  219.4913 H   0  0  0  0  0  0  0  0  0  0  0  0
  141.1381   73.6554  222.8716 H   0  0  0  0  0  0  0  0  0  0  0  0
  139.0214   72.1329  221.5475 H   0  0  0  0  0  0  0  0  0  0  0  0
  141.5623   72.5211  226.8537 H   0  0  0  0  0  0  0  0  0  0  0  0
  141.5728   71.1276  228.9006 H   0  0  0  0  0  0  0  0  0  0  0  0
  139.3952   68.0361  226.8830 H   0  0  0  0  0  0  0  0  0  0  0  0
  139.1368   70.0276  221.3680 H   0  0  0  0  0  0  0  0  0  0  0  0
  138.6706   68.4859  222.2855 H   0  0  0  0  0  0  0  0  0  0  0  0
  136.9432   69.9022  220.9708 H   0  0  0  0  0  0  0  0  0  0  0  0
  137.6331   71.2988  223.6052 H   0  0  0  0  0  0  0  0  0  0  0  0
  137.0783   72.0286  222.0482 H   0  0  0  0  0  0  0  0  0  0  0  0
  135.3507   72.2999  223.7078 H   0  0  0  0  0  0  0  0  0  0  0  0
  134.8141   71.1021  222.4827 H   0  0  0  0  0  0  0  0  0  0  0  0
  135.8469   70.6234  225.2933 H   0  0  0  0  0  0  0  0  0  0  0  0
  134.2623   70.1418  224.5432 H   0  0  0  0  0  0  0  0  0  0  0  0
  136.8533   68.7578  224.5569 H   0  0  0  0  0  0  0  0  0  0  0  0
  135.1753   68.1447  224.2540 H   0  0  0  0  0  0  0  0  0  0  0  0
  136.6304   67.8416  222.3035 H   0  0  0  0  0  0  0  0  0  0  0  0
  135.2530   68.9966  221.9932 H   0  0  0  0  0  0  0  0  0  0  0  0
  143.5146   72.6682  221.8769 H   0  0  0  0  0  0  0  0  0  0  0  0
  1  2  1  0
  2  3  2  0
  2  4  2  0
  2  5  1  0
  5  6  2  0
  6  7  1  0
  7  8  2  0
  8  9  1  0
  9 10  1  0
 10 11  2  0
 11 12  1  0
 12 13  2  0
 13 14  1  0
 14 15  2  0
 15 16  1  0
 16 17  2  0
 17 18  1  0
 17 19  1  0
 19 20  2  0
 20 21  1  0
 21 22  2  0
 21 23  1  0
 23 24  1  0
 24 25  1  0
 25 26  1  0
 26 27  1  0
 27 28  1  0
 28 29  1  0
 29 30  1  0
  9 31  2  0
 31  5  1  0
 23 12  1  0
 30 25  1  0
 20 14  1  0
  1 32  1  0
  1 33  1  0
  6 34  1  0
  7 35  1  0
  8 36  1  0
 10 37  1  0
 11 38  1  0
 15 39  1  0
 16 40  1  0
 19 41  1  0
 24 42  1  0
 24 43  1  0
 25 44  1  0
 26 45  1  0
 26 46  1  0
 27 47  1  0
 27 48  1  0
 28 49  1  0
 28 50  1  0
 29 51  1  0
 29 52  1  0
 30 53  1  0
 30 54  1  0
 31 55  1  0
M  END
>  <smiles>  (21) 
NS(=O)(=O)c1cccc(/C=C/c2nc3ccc(F)cc3c(=O)n2CC2CCCCC2)c1

>  <score_type>  (21) 
oracle

>  <origin>  (21) 
autodockgpu

>  <m_score__min__energy>  (21) 
-9.2799999999999994

>  <m_primary>  (21) 
energy

>  <rmsd>  (21) 
10.589308158851393

>  <m_score__min__rmsd>  (21) 
10.589308158851393

>  <meeko>  (21) 
{"free_energy": -8.2, "intermolecular_energy": -10.29, "internal_energy": -1.43, "cluster_size": 31, "cluster_id": 1, "rank_in_cluster": 23}

>  <energy>  (21) 
-8.29

>  <cluster_rmsd>  (21) 
1.92

>  <cluster>  (21) 
1

$$$$

     RDKit          3D

 55 58  0  0  0  0  0  0  0  0999 V2000
  145.9970   73.3920  218.5940 N   0  0  0  0  0  0  0  0  0  0  0  0
  145.2930   73.4970  220.1720 S   0  0  0  0  0  0  0  0  0  0  0  0
  146.3200   73.0200  221.1630 O   0  0  0  0  0  0  0  0  0  0  0  0
  144.9910   74.9260  220.5200 O   0  0  0  0  0  0  0  0  0  0  0  0
  143.8590   72.5000  220.2910 C   0  0  0  0  0  0  0  0  0  0  0  0
  143.8210   71.3070  219.5970 C   0  0  0  0  0  0  0  0  0  0  0  0
  142.6770   70.5530  219.7160 C   0  0  0  0  0  0  0  0  0  0  0  0
  141.6130   70.9620  220.4910 C   0  0  0  0  0  0  0  0  0  0  0  0
  141.6400   72.1500  221.1890 C   0  0  0  0  0  0  0  0  0  0  0  0
  140.5360   72.6190  222.0190 C   0  0  0  0  0  0  0  0  0  0  0  0
  139.5320   71.8730  222.4080 C   0  0  0  0  0  0  0  0  0  0  0  0
  139.6790   70.9660  223.5580 C   0  0  0  0  0  0  0  0  0  0  0  0
  140.2060   71.4870  224.7010 N   0  0  0  0  0  0  0  0  0  0  0  0
  140.3940   70.7720  225.8190 C   0  0  0  0  0  0  0  0  0  0  0  0
  140.9290   71.3280  226.9600 C   0  0  0  0  0  0  0  0  0  0  0  0
  141.0900   70.5150  228.0680 C   0  0  0  0  0  0  0  0  0  0  0  0
  140.7370   69.1790  228.0730 C   0  0  0  0  0  0  0  0  0  0  0  0
  140.8900   68.3750  229.1550 F   0  0  0  0  0  0  0  0  0  0  0  0
  140.1990   68.6450  226.9050 C   0  0  0  0  0  0  0  0  0  0  0  0
  140.0250   69.4400  225.7720 C   0  0  0  0  0  0  0  0  0  0  0  0
  139.4940   68.9150  224.6160 C   0  0  0  0  0  0  0  0  0  0  0  0
  139.1770   67.6940  224.6450 O   0  0  0  0  0  0  0  0  0  0  0  0
  139.3120   69.6670  223.4910 N   0  0  0  0  0  0  0  0  0  0  0  0
  138.7710   69.1180  222.2810 C   0  0  0  0  0  0  0  0  0  0  0  0
  137.2920   69.0810  222.1650 C   0  0  0  0  0  0  0  0  0  0  0  0
  136.9060   70.3830  221.4450 C   0  0  0  0  0  0  0  0  0  0  0  0
  135.5430   70.8370  221.8590 C   0  0  0  0  0  0  0  0  0  0  0  0
  135.5670   71.2260  223.3130 C   0  0  0  0  0  0  0  0  0  0  0  0
  136.3080   70.2170  224.1680 C   0  0  0  0  0  0  0  0  0  0  0  0
  136.5240   68.9160  223.4310 C   0  0  0  0  0  0  0  0  0  0  0  0
  142.7930   72.9080  221.0680 C   0  0  0  0  0  0  0  0  0  0  0  0
  146.9630   73.7590  218.6610 H   0  0  0  0  0  0  0  0  0  0  0  0
  145.3720   73.9220  217.9530 H   0  0  0  0  0  0  0  0  0  0  0  0
  144.6670   70.9748  218.9773 H   0  0  0  0  0  0  0  0  0  0  0  0
  142.6092   69.5963  219.1774 H   0  0  0  0  0  0  0  0  0  0  0  0
  140.7193   70.3237  220.5540 H   0  0  0  0  0  0  0  0  0  0  0  0
  140.5473   73.6710  222.3402 H   0  0  0  0  0  0  0  0  0  0  0  0
  138.5729   71.9247  221.8719 H   0  0  0  0  0  0  0  0  0  0  0  0
  141.2200   72.3884  226.9895 H   0  0  0  0  0  0  0  0  0  0  0  0
  141.5170   70.9505  228.9834 H   0  0  0  0  0  0  0  0  0  0  0  0
  139.9080   67.5846  226.8754 H   0  0  0  0  0  0  0  0  0  0  0  0
  139.1555   69.7175  221.4427 H   0  0  0  0  0  0  0  0  0  0  0  0
  139.0862   68.0641  222.2774 H   0  0  0  0  0  0  0  0  0  0  0  0
  137.0165   68.1693  221.6147 H   0  0  0  0  0  0  0  0  0  0  0  0
  137.6380   71.1646  221.6968 H   0  0  0  0  0  0  0  0  0  0  0  0
  136.9006   70.1971  220.3609 H   0  0  0  0  0  0  0  0  0  0  0  0
  135.2447   71.7043  221.2517 H   0  0  0  0  0  0  0  0  0  0  0  0
  134.8217   70.0203  221.7085 H   0  0  0  0  0  0  0  0  0  0  0  0
  136.0631   72.2030  223.4093 H   0  0  0  0  0  0  0  0  0  0  0  0
  134.5263   71.2663  223.6671 H   0  0  0  0  0  0  0  0  0  0  0  0
  137.2861   70.6357  224.4475 H   0  0  0  0  0  0  0  0  0  0  0  0
  135.6999   70.0099  225.0609 H   0  0  0  0  0  0  0  0  0  0  0  0
  137.0767   68.2289  224.0886 H   0  0  0  0  0  0  0  0  0  0  0  0
  135.5323   68.5224  223.1636 H   0  0  0  0  0  0  0  0  0  0  0  0
  142.8615   73.8642  221.6074 H   0  0  0  0  0  0  0  0  0  0  0  0
  1  2  1  0
  2  3  2  0
  2  4  2  0
  2  5  1  0
  5  6  2  0
  6  7  1  0
  7  8  2  0
  8  9  1  0
  9 10  1  0
 10 11  2  0
 11 12  1  0
 12 13  2  0
 13 14  1  0
 14 15  2  0
 15 16  1  0
 16 17  2  0
 17 18  1  0
 17 19  1  0
 19 20  2  0
 20 21  1  0
 21 22  2  0
 21 23  1  0
 23 24  1  0
 24 25  1  0
 25 26  1  0
 26 27  1  0
 27 28  1  0
 28 29  1  0
 29 30  1  0
  9 31  2  0
 31  5  1  0
 23 12  1  0
 30 25  1  0
 20 14  1  0
  1 32  1  0
  1 33  1  0
  6 34  1  0
  7 35  1  0
  8 36  1  0
 10 37  1  0
 11 38  1  0
 15 39  1  0
 16 40  1  0
 19 41  1  0
 24 42  1  0
 24 43  1  0
 25 44  1  0
 26 45  1  0
 26 46  1  0
 27 47  1  0
 27 48  1  0
 28 49  1  0
 28 50  1  0
 29 51  1  0
 29 52  1  0
 30 53  1  0
 30 54  1  0
 31 55  1  0
M  END
>  <smiles>  (22) 
NS(=O)(=O)c1cccc(/C=C/c2nc3ccc(F)cc3c(=O)n2CC2CCCCC2)c1

>  <score_type>  (22) 
oracle

>  <origin>  (22) 
autodockgpu

>  <m_score__min__energy>  (22) 
-9.2799999999999994

>  <m_primary>  (22) 
energy

>  <rmsd>  (22) 
10.601571977028264

>  <m_score__min__rmsd>  (22) 
10.601571977028264

>  <meeko>  (22) 
{"free_energy": -8.58, "intermolecular_energy": -10.67, "internal_energy": -1.8, "cluster_size": 31, "cluster_id": 1, "rank_in_cluster": 13}

>  <energy>  (22) 
-8.2

>  <cluster_rmsd>  (22) 
0.98

>  <cluster>  (22) 
1

$$$$

     RDKit          3D

 55 58  0  0  0  0  0  0  0  0999 V2000
  146.8280   73.8530  220.5930 N   0  0  0  0  0  0  0  0  0  0  0  0
  145.6860   72.9770  219.6310 S   0  0  0  0  0  0  0  0  0  0  0  0
  145.9150   73.3560  218.1920 O   0  0  0  0  0  0  0  0  0  0  0  0
  145.9350   71.5000  219.7310 O   0  0  0  0  0  0  0  0  0  0  0  0
  144.0420   73.3740  220.0850 C   0  0  0  0  0  0  0  0  0  0  0  0
  143.5770   74.6510  219.8420 C   0  0  0  0  0  0  0  0  0  0  0  0
  142.2810   74.9230  220.2130 C   0  0  0  0  0  0  0  0  0  0  0  0
  141.4770   73.9700  220.8010 C   0  0  0  0  0  0  0  0  0  0  0  0
  141.9300   72.6930  221.0480 C   0  0  0  0  0  0  0  0  0  0  0  0
  141.1120   71.6560  221.6670 C   0  0  0  0  0  0  0  0  0  0  0  0
  140.2370   71.8720  222.6180 C   0  0  0  0  0  0  0  0  0  0  0  0
  140.1160   70.9360  223.7470 C   0  0  0  0  0  0  0  0  0  0  0  0
  140.5950   71.3480  224.9540 N   0  0  0  0  0  0  0  0  0  0  0  0
  140.5490   70.5940  226.0620 C   0  0  0  0  0  0  0  0  0  0  0  0
  141.0410   71.0390  227.2690 C   0  0  0  0  0  0  0  0  0  0  0  0
  140.9530   70.1940  228.3600 C   0  0  0  0  0  0  0  0  0  0  0  0
  140.3950   68.9320  228.2870 C   0  0  0  0  0  0  0  0  0  0  0  0
  140.3040   68.0970  229.3510 F   0  0  0  0  0  0  0  0  0  0  0  0
  139.9060   68.5090  227.0530 C   0  0  0  0  0  0  0  0  0  0  0  0
  139.9810   69.3390  225.9350 C   0  0  0  0  0  0  0  0  0  0  0  0
  139.4980   68.9250  224.7140 C   0  0  0  0  0  0  0  0  0  0  0  0
  138.9920   67.7700  224.6710 O   0  0  0  0  0  0  0  0  0  0  0  0
  139.5570   69.7130  223.6010 N   0  0  0  0  0  0  0  0  0  0  0  0
  139.0670   69.2780  222.3250 C   0  0  0  0  0  0  0  0  0  0  0  0
  137.6170   69.4560  222.0680 C   0  0  0  0  0  0  0  0  0  0  0  0
  137.4730   70.8870  221.5250 C   0  0  0  0  0  0  0  0  0  0  0  0
  136.1350   71.4570  221.8760 C   0  0  0  0  0  0  0  0  0  0  0  0
  136.0430   71.6300  223.3680 C   0  0  0  0  0  0  0  0  0  0  0  0
  136.5580   70.4200  224.1220 C   0  0  0  0  0  0  0  0  0  0  0  0
  136.6980   69.2190  223.2170 C   0  0  0  0  0  0  0  0  0  0  0  0
  143.2350   72.4210  220.6730 C   0  0  0  0  0  0  0  0  0  0  0  0
  146.4150   73.9660  221.5370 H   0  0  0  0  0  0  0  0  0  0  0  0
  147.0210   74.7430  220.0910 H   0  0  0  0  0  0  0  0  0  0  0  0
  144.2138   75.4157  219.3732 H   0  0  0  0  0  0  0  0  0  0  0  0
  141.8744   75.9296  220.0355 H   0  0  0  0  0  0  0  0  0  0  0  0
  140.4469   74.2364  221.0802 H   0  0  0  0  0  0  0  0  0  0  0  0
  141.2383   70.6228  221.3114 H   0  0  0  0  0  0  0  0  0  0  0  0
  139.5883   72.7592  222.5721 H   0  0  0  0  0  0  0  0  0  0  0  0
  141.4912   72.0383  227.3624 H   0  0  0  0  0  0  0  0  0  0  0  0
  141.3440   70.5414  229.3277 H   0  0  0  0  0  0  0  0  0  0  0  0
  139.4560   67.5096  226.9596 H   0  0  0  0  0  0  0  0  0  0  0  0
  139.6130   69.8371  221.5509 H   0  0  0  0  0  0  0  0  0  0  0  0
  139.2299   68.1902  222.3103 H   0  0  0  0  0  0  0  0  0  0  0  0
  137.2974   68.6763  221.3610 H   0  0  0  0  0  0  0  0  0  0  0  0
  138.2601   71.5192  221.9618 H   0  0  0  0  0  0  0  0  0  0  0  0
  137.5677   70.8593  220.4294 H   0  0  0  0  0  0  0  0  0  0  0  0
  136.0114   72.4334  221.3847 H   0  0  0  0  0  0  0  0  0  0  0  0
  135.3430   70.7740  221.5351 H   0  0  0  0  0  0  0  0  0  0  0  0
  136.6385   72.5078  223.6594 H   0  0  0  0  0  0  0  0  0  0  0  0
  134.9816   71.7598  223.6262 H   0  0  0  0  0  0  0  0  0  0  0  0
  137.5417   70.6595  224.5521 H   0  0  0  0  0  0  0  0  0  0  0  0
  135.8335   70.1729  224.9119 H   0  0  0  0  0  0  0  0  0  0  0  0
  137.0879   68.3780  223.8093 H   0  0  0  0  0  0  0  0  0  0  0  0
  135.7025   69.0040  222.8014 H   0  0  0  0  0  0  0  0  0  0  0  0
  143.6412   71.4140  220.8492 H   0  0  0  0  0  0  0  0  0  0  0  0
  1  2  1  0
  2  3  2  0
  2  4  2  0
  2  5  1  0
  5  6  2  0
  6  7  1  0
  7  8  2  0
  8  9  1  0
  9 10  1  0
 10 11  2  0
 11 12  1  0
 12 13  2  0
 13 14  1  0
 14 15  2  0
 15 16  1  0
 16 17  2  0
 17 18  1  0
 17 19  1  0
 19 20  2  0
 20 21  1  0
 21 22  2  0
 21 23  1  0
 23 24  1  0
 24 25  1  0
 25 26  1  0
 26 27  1  0
 27 28  1  0
 28 29  1  0
 29 30  1  0
  9 31  2  0
 31  5  1  0
 23 12  1  0
 30 25  1  0
 20 14  1  0
  1 32  1  0
  1 33  1  0
  6 34  1  0
  7 35  1  0
  8 36  1  0
 10 37  1  0
 11 38  1  0
 15 39  1  0
 16 40  1  0
 19 41  1  0
 24 42  1  0
 24 43  1  0
 25 44  1  0
 26 45  1  0
 26 46  1  0
 27 47  1  0
 27 48  1  0
 28 49  1  0
 28 50  1  0
 29 51  1  0
 29 52  1  0
 30 53  1  0
 30 54  1  0
 31 55  1  0
M  END
>  <smiles>  (23) 
NS(=O)(=O)c1cccc(/C=C/c2nc3ccc(F)cc3c(=O)n2CC2CCCCC2)c1

>  <score_type>  (23) 
oracle

>  <origin>  (23) 
autodockgpu

>  <m_score__min__energy>  (23) 
-9.2799999999999994

>  <m_primary>  (23) 
energy

>  <rmsd>  (23) 
10.544136669611806

>  <m_score__min__rmsd>  (23) 
10.544136669611806

>  <meeko>  (23) 
{"free_energy": -8.79, "intermolecular_energy": -10.88, "internal_energy": -1.53, "cluster_size": 31, "cluster_id": 1, "rank_in_cluster": 8}

>  <energy>  (23) 
-8.2

>  <cluster_rmsd>  (23) 
0.93

>  <cluster>  (23) 
1

$$$$

     RDKit          3D

 55 58  0  0  0  0  0  0  0  0999 V2000
  145.9820   73.4200  218.0280 N   0  0  0  0  0  0  0  0  0  0  0  0
  145.6380   72.8990  219.6430 S   0  0  0  0  0  0  0  0  0  0  0  0
  145.7790   71.4010  219.6800 O   0  0  0  0  0  0  0  0  0  0  0  0
  146.6550   73.4500  220.6010 O   0  0  0  0  0  0  0  0  0  0  0  0
  144.0140   73.3460  220.1190 C   0  0  0  0  0  0  0  0  0  0  0  0
  143.6030   74.6510  219.9300 C   0  0  0  0  0  0  0  0  0  0  0  0
  142.3200   74.9620  220.3170 C   0  0  0  0  0  0  0  0  0  0  0  0
  141.4770   74.0210  220.8680 C   0  0  0  0  0  0  0  0  0  0  0  0
  141.8760   72.7160  221.0600 C   0  0  0  0  0  0  0  0  0  0  0  0
  141.0160   71.6900  221.6390 C   0  0  0  0  0  0  0  0  0  0  0  0
  140.1700   71.8980  222.6170 C   0  0  0  0  0  0  0  0  0  0  0  0
  140.0940   70.9610  223.7500 C   0  0  0  0  0  0  0  0  0  0  0  0
  140.5860   71.3870  224.9470 N   0  0  0  0  0  0  0  0  0  0  0  0
  140.5810   70.6330  226.0560 C   0  0  0  0  0  0  0  0  0  0  0  0
  141.0860   71.0930  227.2520 C   0  0  0  0  0  0  0  0  0  0  0  0
  141.0400   70.2470  228.3460 C   0  0  0  0  0  0  0  0  0  0  0  0
  140.5120   68.9720  228.2860 C   0  0  0  0  0  0  0  0  0  0  0  0
  140.4620   68.1370  229.3530 F   0  0  0  0  0  0  0  0  0  0  0  0
  140.0090   68.5360  227.0620 C   0  0  0  0  0  0  0  0  0  0  0  0
  140.0410   69.3650  225.9420 C   0  0  0  0  0  0  0  0  0  0  0  0
  139.5450   68.9370  224.7310 C   0  0  0  0  0  0  0  0  0  0  0  0
  139.0670   67.7700  224.6990 O   0  0  0  0  0  0  0  0  0  0  0  0
  139.5630   69.7250  223.6170 N   0  0  0  0  0  0  0  0  0  0  0  0
  139.0590   69.2750  222.3510 C   0  0  0  0  0  0  0  0  0  0  0  0
  137.6010   69.4200  222.1220 C   0  0  0  0  0  0  0  0  0  0  0  0
  137.4200   70.8220  221.5160 C   0  0  0  0  0  0  0  0  0  0  0  0
  136.0820   71.3880  221.8730 C   0  0  0  0  0  0  0  0  0  0  0  0
  136.0220   71.6280  223.3570 C   0  0  0  0  0  0  0  0  0  0  0  0
  136.5750   70.4620  224.1540 C   0  0  0  0  0  0  0  0  0  0  0  0
  136.7130   69.2230  223.3020 C   0  0  0  0  0  0  0  0  0  0  0  0
  143.1680   72.4040  220.6700 C   0  0  0  0  0  0  0  0  0  0  0  0
  145.7920   74.4380  217.9840 H   0  0  0  0  0  0  0  0  0  0  0  0
  145.3950   72.8380  217.3960 H   0  0  0  0  0  0  0  0  0  0  0  0
  144.2706   75.4067  219.4904 H   0  0  0  0  0  0  0  0  0  0  0  0
  141.9564   75.9915  220.1828 H   0  0  0  0  0  0  0  0  0  0  0  0
  140.4598   74.3193  221.1620 H   0  0  0  0  0  0  0  0  0  0  0  0
  141.0825   70.6725  221.2263 H   0  0  0  0  0  0  0  0  0  0  0  0
  139.5117   72.7789  222.5917 H   0  0  0  0  0  0  0  0  0  0  0  0
  141.5133   72.1032  227.3350 H   0  0  0  0  0  0  0  0  0  0  0  0
  141.4414   70.6055  229.3053 H   0  0  0  0  0  0  0  0  0  0  0  0
  139.5817   67.5258  226.9786 H   0  0  0  0  0  0  0  0  0  0  0  0
  139.5775   69.8439  221.5652 H   0  0  0  0  0  0  0  0  0  0  0  0
  139.2465   68.1912  222.3353 H   0  0  0  0  0  0  0  0  0  0  0  0
  137.2780   68.6031  221.4599 H   0  0  0  0  0  0  0  0  0  0  0  0
  138.2070   71.4861  221.9028 H   0  0  0  0  0  0  0  0  0  0  0  0
  137.4881   70.7435  220.4209 H   0  0  0  0  0  0  0  0  0  0  0  0
  135.9317   72.3389  221.3409 H   0  0  0  0  0  0  0  0  0  0  0  0
  135.2931   70.6785  221.5829 H   0  0  0  0  0  0  0  0  0  0  0  0
  136.6092   72.5276  223.5934 H   0  0  0  0  0  0  0  0  0  0  0  0
  134.9648   71.7524  223.6342 H   0  0  0  0  0  0  0  0  0  0  0  0
  137.5646   70.7363  224.5483 H   0  0  0  0  0  0  0  0  0  0  0  0
  135.8740   70.2409  224.9723 H   0  0  0  0  0  0  0  0  0  0  0  0
  137.1297   68.4161  223.9227 H   0  0  0  0  0  0  0  0  0  0  0  0
  135.7116   68.9745  222.9206 H   0  0  0  0  0  0  0  0  0  0  0  0
  143.5312   71.3743  220.8033 H   0  0  0  0  0  0  0  0  0  0  0  0
  1  2  1  0
  2  3  2  0
  2  4  2  0
  2  5  1  0
  5  6  2  0
  6  7  1  0
  7  8  2  0
  8  9  1  0
  9 10  1  0
 10 11  2  0
 11 12  1  0
 12 13  2  0
 13 14  1  0
 14 15  2  0
 15 16  1  0
 16 17  2  0
 17 18  1  0
 17 19  1  0
 19 20  2  0
 20 21  1  0
 21 22  2  0
 21 23  1  0
 23 24  1  0
 24 25  1  0
 25 26  1  0
 26 27  1  0
 27 28  1  0
 28 29  1  0
 29 30  1  0
  9 31  2  0
 31  5  1  0
 23 12  1  0
 30 25  1  0
 20 14  1  0
  1 32  1  0
  1 33  1  0
  6 34  1  0
  7 35  1  0
  8 36  1  0
 10 37  1  0
 11 38  1  0
 15 39  1  0
 16 40  1  0
 19 41  1  0
 24 42  1  0
 24 43  1  0
 25 44  1  0
 26 45  1  0
 26 46  1  0
 27 47  1  0
 27 48  1  0
 28 49  1  0
 28 50  1  0
 29 51  1  0
 29 52  1  0
 30 53  1  0
 30 54  1  0
 31 55  1  0
M  END
>  <smiles>  (24) 
NS(=O)(=O)c1cccc(/C=C/c2nc3ccc(F)cc3c(=O)n2CC2CCCCC2)c1

>  <score_type>  (24) 
oracle

>  <origin>  (24) 
autodockgpu

>  <m_score__min__energy>  (24) 
-9.2799999999999994

>  <m_primary>  (24) 
energy

>  <rmsd>  (24) 
10.54283404069645

>  <m_score__min__rmsd>  (24) 
10.54283404069645

>  <meeko>  (24) 
{"free_energy": -9.01, "intermolecular_energy": -11.1, "internal_energy": -1.55, "cluster_size": 31, "cluster_id": 1, "rank_in_cluster": 6}

>  <energy>  (24) 
-8.13

>  <cluster_rmsd>  (24) 
1.71

>  <cluster>  (24) 
1

$$$$

     RDKit          3D

 55 58  0  0  0  0  0  0  0  0999 V2000
  146.3820   72.6480  221.5700 N   0  0  0  0  0  0  0  0  0  0  0  0
  145.3160   73.1280  220.2920 S   0  0  0  0  0  0  0  0  0  0  0  0
  145.0410   74.5980  220.4540 O   0  0  0  0  0  0  0  0  0  0  0  0
  145.9850   72.9600  218.9580 O   0  0  0  0  0  0  0  0  0  0  0  0
  143.8090   72.2400  220.3600 C   0  0  0  0  0  0  0  0  0  0  0  0
  143.6640   71.1180  219.5670 C   0  0  0  0  0  0  0  0  0  0  0  0
  142.4650   70.4490  219.6480 C   0  0  0  0  0  0  0  0  0  0  0  0
  141.4500   70.8710  220.4810 C   0  0  0  0  0  0  0  0  0  0  0  0
  141.5840   71.9870  221.2770 C   0  0  0  0  0  0  0  0  0  0  0  0
  140.5370   72.4680  222.1700 C   0  0  0  0  0  0  0  0  0  0  0  0
  139.5240   71.7450  222.5810 C   0  0  0  0  0  0  0  0  0  0  0  0
  139.6770   70.8250  223.7190 C   0  0  0  0  0  0  0  0  0  0  0  0
  140.2050   71.3340  224.8670 N   0  0  0  0  0  0  0  0  0  0  0  0
  140.4000   70.6060  225.9760 C   0  0  0  0  0  0  0  0  0  0  0  0
  140.9350   71.1510  227.1220 C   0  0  0  0  0  0  0  0  0  0  0  0
  141.1020   70.3250  228.2200 C   0  0  0  0  0  0  0  0  0  0  0  0
  140.7550   68.9880  228.2100 C   0  0  0  0  0  0  0  0  0  0  0  0
  140.9140   68.1720  229.2810 F   0  0  0  0  0  0  0  0  0  0  0  0
  140.2160   68.4650  227.0370 C   0  0  0  0  0  0  0  0  0  0  0  0
  140.0350   69.2730  225.9140 C   0  0  0  0  0  0  0  0  0  0  0  0
  139.5030   68.7600  224.7530 C   0  0  0  0  0  0  0  0  0  0  0  0
  139.1920   67.5380  224.7680 O   0  0  0  0  0  0  0  0  0  0  0  0
  139.3150   69.5250  223.6380 N   0  0  0  0  0  0  0  0  0  0  0  0
  138.7730   68.9890  222.4230 C   0  0  0  0  0  0  0  0  0  0  0  0
  137.2960   68.9890  222.2910 C   0  0  0  0  0  0  0  0  0  0  0  0
  136.9590   70.2560  221.4870 C   0  0  0  0  0  0  0  0  0  0  0  0
  135.6050   70.7760  221.8560 C   0  0  0  0  0  0  0  0  0  0  0  0
  135.6260   71.2530  223.2830 C   0  0  0  0  0  0  0  0  0  0  0  0
  136.3270   70.2770  224.2080 C   0  0  0  0  0  0  0  0  0  0  0  0
  136.5090   68.9270  223.5550 C   0  0  0  0  0  0  0  0  0  0  0  0
  142.7930   72.6600  221.1930 C   0  0  0  0  0  0  0  0  0  0  0  0
  146.9930   71.9000  221.1980 H   0  0  0  0  0  0  0  0  0  0  0  0
  145.7800   72.3640  222.3690 H   0  0  0  0  0  0  0  0  0  0  0  0
  144.4702   70.7755  218.9016 H   0  0  0  0  0  0  0  0  0  0  0  0
  142.3112   69.5516  219.0307 H   0  0  0  0  0  0  0  0  0  0  0  0
  140.5093   70.3016  220.5104 H   0  0  0  0  0  0  0  0  0  0  0  0
  140.6015   73.5079  222.5227 H   0  0  0  0  0  0  0  0  0  0  0  0
  138.5525   71.8266  222.0715 H   0  0  0  0  0  0  0  0  0  0  0  0
  141.2214   72.2123  227.1635 H   0  0  0  0  0  0  0  0  0  0  0  0
  141.5292   70.7514  229.1396 H   0  0  0  0  0  0  0  0  0  0  0  0
  139.9300   67.4036  226.9955 H   0  0  0  0  0  0  0  0  0  0  0  0
  139.1814   69.5779  221.5885 H   0  0  0  0  0  0  0  0  0  0  0  0
  139.0613   67.9274  222.4237 H   0  0  0  0  0  0  0  0  0  0  0  0
  136.9984   68.0532  221.7953 H   0  0  0  0  0  0  0  0  0  0  0  0
  137.7123   71.0289  221.6997 H   0  0  0  0  0  0  0  0  0  0  0  0
  136.9599   70.0043  220.4162 H   0  0  0  0  0  0  0  0  0  0  0  0
  135.3397   71.6127  221.1930 H   0  0  0  0  0  0  0  0  0  0  0  0
  134.8605   69.9736  221.7472 H   0  0  0  0  0  0  0  0  0  0  0  0
  136.1508   72.2188  223.3250 H   0  0  0  0  0  0  0  0  0  0  0  0
  134.5834   71.3461  223.6211 H   0  0  0  0  0  0  0  0  0  0  0  0
  137.3149   70.6821  224.4723 H   0  0  0  0  0  0  0  0  0  0  0  0
  135.7045   70.1448  225.1052 H   0  0  0  0  0  0  0  0  0  0  0  0
  137.0320   68.2647  224.2606 H   0  0  0  0  0  0  0  0  0  0  0  0
  135.5080   68.5493  223.2993 H   0  0  0  0  0  0  0  0  0  0  0  0
  142.9470   73.5574  221.8102 H   0  0  0  0  0  0  0  0  0  0  0  0
  1  2  1  0
  2  3  2  0
  2  4  2  0
  2  5  1  0
  5  6  2  0
  6  7  1  0
  7  8  2  0
  8  9  1  0
  9 10  1  0
 10 11  2  0
 11 12  1  0
 12 13  2  0
 13 14  1  0
 14 15  2  0
 15 16  1  0
 16 17  2  0
 17 18  1  0
 17 19  1  0
 19 20  2  0
 20 21  1  0
 21 22  2  0
 21 23  1  0
 23 24  1  0
 24 25  1  0
 25 26  1  0
 26 27  1  0
 27 28  1  0
 28 29  1  0
 29 30  1  0
  9 31  2  0
 31  5  1  0
 23 12  1  0
 30 25  1  0
 20 14  1  0
  1 32  1  0
  1 33  1  0
  6 34  1  0
  7 35  1  0
  8 36  1  0
 10 37  1  0
 11 38  1  0
 15 39  1  0
 16 40  1  0
 19 41  1  0
 24 42  1  0
 24 43  1  0
 25 44  1  0
 26 45  1  0
 26 46  1  0
 27 47  1  0
 27 48  1  0
 28 49  1  0
 28 50  1  0
 29 51  1  0
 29 52  1  0
 30 53  1  0
 30 54  1  0
 31 55  1  0
M  END
>  <smiles>  (25) 
NS(=O)(=O)c1cccc(/C=C/c2nc3ccc(F)cc3c(=O)n2CC2CCCCC2)c1

>  <score_type>  (25) 
oracle

>  <origin>  (25) 
autodockgpu

>  <m_score__min__energy>  (25) 
-9.2799999999999994

>  <m_primary>  (25) 
energy

>  <rmsd>  (25) 
10.74179580676804

>  <m_score__min__rmsd>  (25) 
10.74179580676804

>  <meeko>  (25) 
{"free_energy": -8.76, "intermolecular_energy": -10.85, "internal_energy": -1.8, "cluster_size": 31, "cluster_id": 1, "rank_in_cluster": 9}

>  <energy>  (25) 
-8.12

>  <cluster_rmsd>  (25) 
1.71

>  <cluster>  (25) 
1

$$$$

     RDKit          3D

 55 58  0  0  0  0  0  0  0  0999 V2000
  144.3820   72.1690  220.9450 N   0  0  0  0  0  0  0  0  0  0  0  0
  145.2230   73.4060  220.0740 S   0  0  0  0  0  0  0  0  0  0  0  0
  146.0780   74.1590  221.0590 O   0  0  0  0  0  0  0  0  0  0  0  0
  146.1590   72.7990  219.0690 O   0  0  0  0  0  0  0  0  0  0  0  0
  144.1020   74.5120  219.3080 C   0  0  0  0  0  0  0  0  0  0  0  0
  143.8180   74.3440  217.9670 C   0  0  0  0  0  0  0  0  0  0  0  0
  142.9340   75.2330  217.4020 C   0  0  0  0  0  0  0  0  0  0  0  0
  142.3530   76.2470  218.1340 C   0  0  0  0  0  0  0  0  0  0  0  0
  142.6280   76.4230  219.4720 C   0  0  0  0  0  0  0  0  0  0  0  0
  142.0360   77.4810  220.2820 C   0  0  0  0  0  0  0  0  0  0  0  0
  141.4380   77.2880  221.4320 C   0  0  0  0  0  0  0  0  0  0  0  0
  140.5560   76.1270  221.6280 C   0  0  0  0  0  0  0  0  0  0  0  0
  141.1380   74.8950  221.6380 N   0  0  0  0  0  0  0  0  0  0  0  0
  140.4510   73.7560  221.8060 C   0  0  0  0  0  0  0  0  0  0  0  0
  141.0690   72.5250  221.8120 C   0  0  0  0  0  0  0  0  0  0  0  0
  140.2820   71.4010  221.9900 C   0  0  0  0  0  0  0  0  0  0  0  0
  138.9120   71.4660  222.1610 C   0  0  0  0  0  0  0  0  0  0  0  0
  138.1330   70.3710  222.3380 F   0  0  0  0  0  0  0  0  0  0  0  0
  138.3160   72.7250  222.1500 C   0  0  0  0  0  0  0  0  0  0  0  0
  139.0830   73.8760  221.9730 C   0  0  0  0  0  0  0  0  0  0  0  0
  138.4970   75.1210  221.9610 C   0  0  0  0  0  0  0  0  0  0  0  0
  137.2460   75.1560  222.1210 O   0  0  0  0  0  0  0  0  0  0  0  0
  139.2210   76.2650  221.7890 N   0  0  0  0  0  0  0  0  0  0  0  0
  138.6100   77.5630  221.7630 C   0  0  0  0  0  0  0  0  0  0  0  0
  138.5520   78.3010  223.0490 C   0  0  0  0  0  0  0  0  0  0  0  0
  137.3610   79.2640  222.9120 C   0  0  0  0  0  0  0  0  0  0  0  0
  137.5760   80.4970  223.7330 C   0  0  0  0  0  0  0  0  0  0  0  0
  138.7330   81.2760  223.1680 C   0  0  0  0  0  0  0  0  0  0  0  0
  139.9160   80.3900  222.8310 C   0  0  0  0  0  0  0  0  0  0  0  0
  139.7860   79.0250  223.4650 C   0  0  0  0  0  0  0  0  0  0  0  0
  143.5190   75.5260  220.0400 C   0  0  0  0  0  0  0  0  0  0  0  0
  144.9830   71.8880  221.7410 H   0  0  0  0  0  0  0  0  0  0  0  0
  144.1780   71.4100  220.2640 H   0  0  0  0  0  0  0  0  0  0  0  0
  144.2776   73.5365  217.3781 H   0  0  0  0  0  0  0  0  0  0  0  0
  142.6832   75.1324  216.3357 H   0  0  0  0  0  0  0  0  0  0  0  0
  141.6517   76.9330  217.6364 H   0  0  0  0  0  0  0  0  0  0  0  0
  142.0954   78.5115  219.9018 H   0  0  0  0  0  0  0  0  0  0  0  0
  141.5966   77.9989  222.2563 H   0  0  0  0  0  0  0  0  0  0  0  0
  142.1575   72.4380  221.6790 H   0  0  0  0  0  0  0  0  0  0  0  0
  140.7672   70.4138  221.9957 H   0  0  0  0  0  0  0  0  0  0  0  0
  137.2275   72.8122  222.2825 H   0  0  0  0  0  0  0  0  0  0  0  0
  139.1736   78.1819  221.0493 H   0  0  0  0  0  0  0  0  0  0  0  0
  137.5606   77.3817  221.4876 H   0  0  0  0  0  0  0  0  0  0  0  0
  138.4409   77.5650  223.8589 H   0  0  0  0  0  0  0  0  0  0  0  0
  137.2479   79.5495  221.8557 H   0  0  0  0  0  0  0  0  0  0  0  0
  136.4540   78.7556  223.2710 H   0  0  0  0  0  0  0  0  0  0  0  0
  136.6682   81.1177  223.7083 H   0  0  0  0  0  0  0  0  0  0  0  0
  137.7958   80.2133  224.7728 H   0  0  0  0  0  0  0  0  0  0  0  0
  138.4015   81.7864  222.2517 H   0  0  0  0  0  0  0  0  0  0  0  0
  139.0595   81.9949  223.9339 H   0  0  0  0  0  0  0  0  0  0  0  0
  139.9744   80.2724  221.7389 H   0  0  0  0  0  0  0  0  0  0  0  0
  140.8262   80.8668  223.2236 H   0  0  0  0  0  0  0  0  0  0  0  0
  140.6595   78.4212  223.1777 H   0  0  0  0  0  0  0  0  0  0  0  0
  139.7271   79.1738  224.5533 H   0  0  0  0  0  0  0  0  0  0  0  0
  143.7689   75.6255  221.1066 H   0  0  0  0  0  0  0  0  0  0  0  0
  1  2  1  0
  2  3  2  0
  2  4  2  0
  2  5  1  0
  5  6  2  0
  6  7  1  0
  7  8  2  0
  8  9  1  0
  9 10  1  0
 10 11  2  0
 11 12  1  0
 12 13  2  0
 13 14  1  0
 14 15  2  0
 15 16  1  0
 16 17  2  0
 17 18  1  0
 17 19  1  0
 19 20  2  0
 20 21  1  0
 21 22  2  0
 21 23  1  0
 23 24  1  0
 24 25  1  0
 25 26  1  0
 26 27  1  0
 27 28  1  0
 28 29  1  0
 29 30  1  0
  9 31  2  0
 31  5  1  0
 23 12  1  0
 30 25  1  0
 20 14  1  0
  1 32  1  0
  1 33  1  0
  6 34  1  0
  7 35  1  0
  8 36  1  0
 10 37  1  0
 11 38  1  0
 15 39  1  0
 16 40  1  0
 19 41  1  0
 24 42  1  0
 24 43  1  0
 25 44  1  0
 26 45  1  0
 26 46  1  0
 27 47  1  0
 27 48  1  0
 28 49  1  0
 28 50  1  0
 29 51  1  0
 29 52  1  0
 30 53  1  0
 30 54  1  0
 31 55  1  0
M  END
>  <smiles>  (26) 
NS(=O)(=O)c1cccc(/C=C/c2nc3ccc(F)cc3c(=O)n2CC2CCCCC2)c1

>  <score_type>  (26) 
oracle

>  <origin>  (26) 
autodockgpu

>  <m_score__min__energy>  (26) 
-9.2799999999999994

>  <m_primary>  (26) 
energy

>  <rmsd>  (26) 
7.946176007790685

>  <m_score__min__rmsd>  (26) 
7.946176007790685

>  <meeko>  (26) 
{"free_energy": -7.21, "intermolecular_energy": -9.29, "internal_energy": -1.73, "cluster_size": 1, "cluster_id": 13, "rank_in_cluster": 1}

>  <energy>  (26) 
-8.12

>  <cluster_rmsd>  (26) 
1.07

>  <cluster>  (26) 
1

$$$$

     RDKit          3D

 55 58  0  0  0  0  0  0  0  0999 V2000
  133.0010   73.4800  227.3350 N   0  0  0  0  0  0  0  0  0  0  0  0
  133.5670   72.3070  226.1950 S   0  0  0  0  0  0  0  0  0  0  0  0
  134.3530   71.2730  226.9540 O   0  0  0  0  0  0  0  0  0  0  0  0
  132.4110   71.5880  225.5610 O   0  0  0  0  0  0  0  0  0  0  0  0
  134.5920   73.0480  224.9830 C   0  0  0  0  0  0  0  0  0  0  0  0
  134.5120   74.4130  224.7930 C   0  0  0  0  0  0  0  0  0  0  0  0
  135.3330   74.9560  223.8320 C   0  0  0  0  0  0  0  0  0  0  0  0
  136.1980   74.1800  223.0900 C   0  0  0  0  0  0  0  0  0  0  0  0
  136.2860   72.8180  223.2720 C   0  0  0  0  0  0  0  0  0  0  0  0
  137.1870   71.9620  222.5080 C   0  0  0  0  0  0  0  0  0  0  0  0
  138.4680   71.8320  222.7500 C   0  0  0  0  0  0  0  0  0  0  0  0
  138.9390   70.9350  223.8170 C   0  0  0  0  0  0  0  0  0  0  0  0
  139.5200   71.5120  224.9060 N   0  0  0  0  0  0  0  0  0  0  0  0
  139.9920   70.8110  225.9470 C   0  0  0  0  0  0  0  0  0  0  0  0
  140.5740   71.4240  227.0350 C   0  0  0  0  0  0  0  0  0  0  0  0
  141.0360   70.6230  228.0640 C   0  0  0  0  0  0  0  0  0  0  0  0
  140.9350   69.2450  228.0440 C   0  0  0  0  0  0  0  0  0  0  0  0
  141.3830   68.4520  229.0480 F   0  0  0  0  0  0  0  0  0  0  0  0
  140.3420   68.6540  226.9300 C   0  0  0  0  0  0  0  0  0  0  0  0
  139.8670   69.4360  225.8770 C   0  0  0  0  0  0  0  0  0  0  0  0
  139.2800   68.8560  224.7750 C   0  0  0  0  0  0  0  0  0  0  0  0
  139.1970   67.5970  224.7790 O   0  0  0  0  0  0  0  0  0  0  0  0
  138.8070   69.5930  223.7290 N   0  0  0  0  0  0  0  0  0  0  0  0
  138.2070   68.9890  222.5740 C   0  0  0  0  0  0  0  0  0  0  0  0
  136.9880   68.1750  222.8010 C   0  0  0  0  0  0  0  0  0  0  0  0
  136.6570   67.5480  221.4370 C   0  0  0  0  0  0  0  0  0  0  0  0
  135.1850   67.3170  221.3000 C   0  0  0  0  0  0  0  0  0  0  0  0
  134.4730   68.6420  221.2660 C   0  0  0  0  0  0  0  0  0  0  0  0
  134.9820   69.5980  222.3290 C   0  0  0  0  0  0  0  0  0  0  0  0
  135.8060   68.8810  223.3720 C   0  0  0  0  0  0  0  0  0  0  0  0
  135.4590   72.2730  224.2400 C   0  0  0  0  0  0  0  0  0  0  0  0
  132.5700   72.9630  228.1230 H   0  0  0  0  0  0  0  0  0  0  0  0
  132.3530   74.1100  226.8190 H   0  0  0  0  0  0  0  0  0  0  0  0
  133.8241   75.0371  225.3823 H   0  0  0  0  0  0  0  0  0  0  0  0
  135.2984   76.0403  223.6503 H   0  0  0  0  0  0  0  0  0  0  0  0
  136.8344   74.6615  222.3329 H   0  0  0  0  0  0  0  0  0  0  0  0
  136.7621   71.3868  221.6722 H   0  0  0  0  0  0  0  0  0  0  0  0
  139.1969   72.3977  222.1510 H   0  0  0  0  0  0  0  0  0  0  0  0
  140.6686   72.5188  227.0841 H   0  0  0  0  0  0  0  0  0  0  0  0
  141.5039   71.1038  228.9357 H   0  0  0  0  0  0  0  0  0  0  0  0
  140.2475   67.5592  226.8805 H   0  0  0  0  0  0  0  0  0  0  0  0
  137.9423   69.7968  221.8759 H   0  0  0  0  0  0  0  0  0  0  0  0
  138.9593   68.2808  222.1965 H   0  0  0  0  0  0  0  0  0  0  0  0
  137.2113   67.4393  223.5877 H   0  0  0  0  0  0  0  0  0  0  0  0
  136.9913   68.2261  220.6380 H   0  0  0  0  0  0  0  0  0  0  0  0
  137.1739   66.5801  221.3598 H   0  0  0  0  0  0  0  0  0  0  0  0
  134.9846   66.7685  220.3678 H   0  0  0  0  0  0  0  0  0  0  0  0
  134.8241   66.7274  222.1557 H   0  0  0  0  0  0  0  0  0  0  0  0
  134.6246   69.0995  220.2772 H   0  0  0  0  0  0  0  0  0  0  0  0
  133.4071   68.4559  221.4640 H   0  0  0  0  0  0  0  0  0  0  0  0
  135.6046   70.3673  221.8488 H   0  0  0  0  0  0  0  0  0  0  0  0
  134.1133   70.0517  222.8285 H   0  0  0  0  0  0  0  0  0  0  0  0
  136.1605   69.6194  224.1062 H   0  0  0  0  0  0  0  0  0  0  0  0
  135.1602   68.1188  223.8325 H   0  0  0  0  0  0  0  0  0  0  0  0
  135.4943   71.1888  224.4223 H   0  0  0  0  0  0  0  0  0  0  0  0
  1  2  1  0
  2  3  2  0
  2  4  2  0
  2  5  1  0
  5  6  2  0
  6  7  1  0
  7  8  2  0
  8  9  1  0
  9 10  1  0
 10 11  2  0
 11 12  1  0
 12 13  2  0
 13 14  1  0
 14 15  2  0
 15 16  1  0
 16 17  2  0
 17 18  1  0
 17 19  1  0
 19 20  2  0
 20 21  1  0
 21 22  2  0
 21 23  1  0
 23 24  1  0
 24 25  1  0
 25 26  1  0
 26 27  1  0
 27 28  1  0
 28 29  1  0
 29 30  1  0
  9 31  2  0
 31  5  1  0
 23 12  1  0
 30 25  1  0
 20 14  1  0
  1 32  1  0
  1 33  1  0
  6 34  1  0
  7 35  1  0
  8 36  1  0
 10 37  1  0
 11 38  1  0
 15 39  1  0
 16 40  1  0
 19 41  1  0
 24 42  1  0
 24 43  1  0
 25 44  1  0
 26 45  1  0
 26 46  1  0
 27 47  1  0
 27 48  1  0
 28 49  1  0
 28 50  1  0
 29 51  1  0
 29 52  1  0
 30 53  1  0
 30 54  1  0
 31 55  1  0
M  END
>  <smiles>  (27) 
NS(=O)(=O)c1cccc(/C=C/c2nc3ccc(F)cc3c(=O)n2CC2CCCCC2)c1

>  <score_type>  (27) 
oracle

>  <origin>  (27) 
autodockgpu

>  <m_score__min__energy>  (27) 
-9.2799999999999994

>  <m_primary>  (27) 
energy

>  <rmsd>  (27) 
11.389914518952555

>  <m_score__min__rmsd>  (27) 
11.389914518952555

>  <meeko>  (27) 
{"free_energy": -7.33, "intermolecular_energy": -9.41, "internal_energy": -1.95, "cluster_size": 1, "cluster_id": 12, "rank_in_cluster": 1}

>  <energy>  (27) 
-8.11

>  <cluster_rmsd>  (27) 
1.71

>  <cluster>  (27) 
1

$$$$

     RDKit          3D

 55 58  0  0  0  0  0  0  0  0999 V2000
  144.8210   74.5940  216.8150 N   0  0  0  0  0  0  0  0  0  0  0  0
  144.7190   73.3560  218.0210 S   0  0  0  0  0  0  0  0  0  0  0  0
  144.3480   72.0720  217.3280 O   0  0  0  0  0  0  0  0  0  0  0  0
  146.0590   73.1280  218.6580 O   0  0  0  0  0  0  0  0  0  0  0  0
  143.5040   73.7420  219.2220 C   0  0  0  0  0  0  0  0  0  0  0  0
  143.0810   75.0520  219.3380 C   0  0  0  0  0  0  0  0  0  0  0  0
  142.1270   75.3150  220.2930 C   0  0  0  0  0  0  0  0  0  0  0  0
  141.6110   74.3230  221.1000 C   0  0  0  0  0  0  0  0  0  0  0  0
  142.0250   73.0140  220.9920 C   0  0  0  0  0  0  0  0  0  0  0  0
  141.5050   71.9350  221.8240 C   0  0  0  0  0  0  0  0  0  0  0  0
  140.4050   72.0100  222.5320 C   0  0  0  0  0  0  0  0  0  0  0  0
  140.2050   71.1300  223.6950 C   0  0  0  0  0  0  0  0  0  0  0  0
  140.6930   71.5570  224.8920 N   0  0  0  0  0  0  0  0  0  0  0  0
  140.5810   70.8530  226.0280 C   0  0  0  0  0  0  0  0  0  0  0  0
  141.0850   71.3130  227.2240 C   0  0  0  0  0  0  0  0  0  0  0  0
  140.9250   70.5200  228.3470 C   0  0  0  0  0  0  0  0  0  0  0  0
  140.2840   69.2970  228.3140 C   0  0  0  0  0  0  0  0  0  0  0  0
  140.1210   68.5140  229.4090 F   0  0  0  0  0  0  0  0  0  0  0  0
  139.7840   68.8590  227.0900 C   0  0  0  0  0  0  0  0  0  0  0  0
  139.9300   69.6360  225.9410 C   0  0  0  0  0  0  0  0  0  0  0  0
  139.4380   69.2060  224.7300 C   0  0  0  0  0  0  0  0  0  0  0  0
  138.8550   68.0870  224.7240 O   0  0  0  0  0  0  0  0  0  0  0  0
  139.5660   69.9430  223.5880 N   0  0  0  0  0  0  0  0  0  0  0  0
  139.0660   69.4900  222.3220 C   0  0  0  0  0  0  0  0  0  0  0  0
  137.6450   69.7880  222.0190 C   0  0  0  0  0  0  0  0  0  0  0  0
  137.6640   71.1100  221.2330 C   0  0  0  0  0  0  0  0  0  0  0  0
  136.4050   71.8840  221.4610 C   0  0  0  0  0  0  0  0  0  0  0  0
  136.3440   72.3240  222.8990 C   0  0  0  0  0  0  0  0  0  0  0  0
  136.7200   71.2120  223.8590 C   0  0  0  0  0  0  0  0  0  0  0  0
  136.7120   69.8630  223.1780 C   0  0  0  0  0  0  0  0  0  0  0  0
  142.9860   72.7500  220.0290 C   0  0  0  0  0  0  0  0  0  0  0  0
  145.1800   75.4480  217.2790 H   0  0  0  0  0  0  0  0  0  0  0  0
  143.8710   74.6870  216.4020 H   0  0  0  0  0  0  0  0  0  0  0  0
  143.4882   75.8475  218.6965 H   0  0  0  0  0  0  0  0  0  0  0  0
  141.7651   76.3464  220.4167 H   0  0  0  0  0  0  0  0  0  0  0  0
  140.8491   74.5840  221.8493 H   0  0  0  0  0  0  0  0  0  0  0  0
  142.0747   70.9947  221.8596 H   0  0  0  0  0  0  0  0  0  0  0  0
  139.6257   72.7354  222.2554 H   0  0  0  0  0  0  0  0  0  0  0  0
  141.6001   72.2830  227.2852 H   0  0  0  0  0  0  0  0  0  0  0  0
  141.3254   70.8790  229.3066 H   0  0  0  0  0  0  0  0  0  0  0  0
  139.2682   67.8894  227.0289 H   0  0  0  0  0  0  0  0  0  0  0  0
  139.6787   69.9560  221.5362 H   0  0  0  0  0  0  0  0  0  0  0  0
  139.1273   68.3925  222.3642 H   0  0  0  0  0  0  0  0  0  0  0  0
  137.2327   68.9387  221.4544 H   0  0  0  0  0  0  0  0  0  0  0  0
  138.5225   71.7132  221.5634 H   0  0  0  0  0  0  0  0  0  0  0  0
  137.7462   70.8802  220.1604 H   0  0  0  0  0  0  0  0  0  0  0  0
  136.3933   72.7675  220.8058 H   0  0  0  0  0  0  0  0  0  0  0  0
  135.5362   71.2490  221.2332 H   0  0  0  0  0  0  0  0  0  0  0  0
  137.0396   73.1642  223.0414 H   0  0  0  0  0  0  0  0  0  0  0  0
  135.3068   72.6190  223.1163 H   0  0  0  0  0  0  0  0  0  0  0  0
  137.7281   71.4067  224.2536 H   0  0  0  0  0  0  0  0  0  0  0  0
  135.9776   71.1922  224.6705 H   0  0  0  0  0  0  0  0  0  0  0  0
  137.0041   69.0982  223.9127 H   0  0  0  0  0  0  0  0  0  0  0  0
  135.6955   69.6963  222.7921 H   0  0  0  0  0  0  0  0  0  0  0  0
  143.3467   71.7183  219.9043 H   0  0  0  0  0  0  0  0  0  0  0  0
  1  2  1  0
  2  3  2  0
  2  4  2  0
  2  5  1  0
  5  6  2  0
  6  7  1  0
  7  8  2  0
  8  9  1  0
  9 10  1  0
 10 11  2  0
 11 12  1  0
 12 13  2  0
 13 14  1  0
 14 15  2  0
 15 16  1  0
 16 17  2  0
 17 18  1  0
 17 19  1  0
 19 20  2  0
 20 21  1  0
 21 22  2  0
 21 23  1  0
 23 24  1  0
 24 25  1  0
 25 26  1  0
 26 27  1  0
 27 28  1  0
 28 29  1  0
 29 30  1  0
  9 31  2  0
 31  5  1  0
 23 12  1  0
 30 25  1  0
 20 14  1  0
  1 32  1  0
  1 33  1  0
  6 34  1  0
  7 35  1  0
  8 36  1  0
 10 37  1  0
 11 38  1  0
 15 39  1  0
 16 40  1  0
 19 41  1  0
 24 42  1  0
 24 43  1  0
 25 44  1  0
 26 45  1  0
 26 46  1  0
 27 47  1  0
 27 48  1  0
 28 49  1  0
 28 50  1  0
 29 51  1  0
 29 52  1  0
 30 53  1  0
 30 54  1  0
 31 55  1  0
M  END
>  <smiles>  (28) 
NS(=O)(=O)c1cccc(/C=C/c2nc3ccc(F)cc3c(=O)n2CC2CCCCC2)c1

>  <score_type>  (28) 
oracle

>  <origin>  (28) 
autodockgpu

>  <m_score__min__energy>  (28) 
-9.2799999999999994

>  <m_primary>  (28) 
energy

>  <rmsd>  (28) 
10.212496855743382

>  <m_score__min__rmsd>  (28) 
10.212496855743382

>  <meeko>  (28) 
{"free_energy": -7.75, "intermolecular_energy": -9.84, "internal_energy": -1.6, "cluster_size": 31, "cluster_id": 1, "rank_in_cluster": 31}

>  <energy>  (28) 
-8.09

>  <cluster_rmsd>  (28) 
1.69

>  <cluster>  (28) 
1

$$$$

     RDKit          3D

 55 58  0  0  0  0  0  0  0  0999 V2000
  146.5520   72.9730  221.3690 N   0  0  0  0  0  0  0  0  0  0  0  0
  145.4660   72.6630  220.0560 S   0  0  0  0  0  0  0  0  0  0  0  0
  146.0040   73.3710  218.8410 O   0  0  0  0  0  0  0  0  0  0  0  0
  145.4430   71.1990  219.7260 O   0  0  0  0  0  0  0  0  0  0  0  0
  143.8580   73.2570  220.4130 C   0  0  0  0  0  0  0  0  0  0  0  0
  143.5900   74.5990  220.2260 C   0  0  0  0  0  0  0  0  0  0  0  0
  142.3160   75.0260  220.5180 C   0  0  0  0  0  0  0  0  0  0  0  0
  141.3450   74.1610  220.9750 C   0  0  0  0  0  0  0  0  0  0  0  0
  141.6000   72.8210  221.1640 C   0  0  0  0  0  0  0  0  0  0  0  0
  140.6030   71.8730  221.6470 C   0  0  0  0  0  0  0  0  0  0  0  0
  139.8690   72.0500  222.7170 C   0  0  0  0  0  0  0  0  0  0  0  0
  139.9010   71.0690  223.8140 C   0  0  0  0  0  0  0  0  0  0  0  0
  140.4100   71.4850  225.0080 N   0  0  0  0  0  0  0  0  0  0  0  0
  140.4990   70.6930  226.0870 C   0  0  0  0  0  0  0  0  0  0  0  0
  141.0180   71.1430  227.2810 C   0  0  0  0  0  0  0  0  0  0  0  0
  141.0740   70.2580  228.3420 C   0  0  0  0  0  0  0  0  0  0  0  0
  140.6310   68.9520  228.2520 C   0  0  0  0  0  0  0  0  0  0  0  0
  140.6800   68.0780  229.2870 F   0  0  0  0  0  0  0  0  0  0  0  0
  140.1110   68.5260  227.0320 C   0  0  0  0  0  0  0  0  0  0  0  0
  140.0430   69.3960  225.9440 C   0  0  0  0  0  0  0  0  0  0  0  0
  139.5300   68.9780  224.7360 C   0  0  0  0  0  0  0  0  0  0  0  0
  139.1300   67.7830  224.6780 O   0  0  0  0  0  0  0  0  0  0  0  0
  139.4500   69.8050  223.6540 N   0  0  0  0  0  0  0  0  0  0  0  0
  138.9280   69.3680  222.3910 C   0  0  0  0  0  0  0  0  0  0  0  0
  137.4540   69.4000  222.2280 C   0  0  0  0  0  0  0  0  0  0  0  0
  137.1150   70.8570  221.8720 C   0  0  0  0  0  0  0  0  0  0  0  0
  135.7460   71.2180  222.3550 C   0  0  0  0  0  0  0  0  0  0  0  0
  135.7280   71.2040  223.8590 C   0  0  0  0  0  0  0  0  0  0  0  0
  136.4230   69.9850  224.4340 C   0  0  0  0  0  0  0  0  0  0  0  0
  136.6410   68.9230  223.3820 C   0  0  0  0  0  0  0  0  0  0  0  0
  142.8850   72.3920  220.8700 C   0  0  0  0  0  0  0  0  0  0  0  0
  146.4040   72.2290  222.0740 H   0  0  0  0  0  0  0  0  0  0  0  0
  146.3490   73.9370  221.7020 H   0  0  0  0  0  0  0  0  0  0  0  0
  144.3602   75.2941  219.8604 H   0  0  0  0  0  0  0  0  0  0  0  0
  142.0645   76.0883  220.3830 H   0  0  0  0  0  0  0  0  0  0  0  0
  140.3402   74.5512  221.1945 H   0  0  0  0  0  0  0  0  0  0  0  0
  140.4574   70.9457  221.0734 H   0  0  0  0  0  0  0  0  0  0  0  0
  139.2243   72.9377  222.7965 H   0  0  0  0  0  0  0  0  0  0  0  0
  141.3777   72.1771  227.3874 H   0  0  0  0  0  0  0  0  0  0  0  0
  141.4889   70.6085  229.2986 H   0  0  0  0  0  0  0  0  0  0  0  0
  139.7501   67.4924  226.9255 H   0  0  0  0  0  0  0  0  0  0  0  0
  139.3628   70.0105  221.6112 H   0  0  0  0  0  0  0  0  0  0  0  0
  139.2019   68.3051  222.3192 H   0  0  0  0  0  0  0  0  0  0  0  0
  137.1816   68.6751  221.4468 H   0  0  0  0  0  0  0  0  0  0  0  0
  137.8513   71.5241  222.3440 H   0  0  0  0  0  0  0  0  0  0  0  0
  137.1432   70.9680  220.7780 H   0  0  0  0  0  0  0  0  0  0  0  0
  135.4825   72.2231  221.9940 H   0  0  0  0  0  0  0  0  0  0  0  0
  135.0167   70.4892  221.9716 H   0  0  0  0  0  0  0  0  0  0  0  0
  136.2369   72.1072  224.2268 H   0  0  0  0  0  0  0  0  0  0  0  0
  134.6768   71.1741  224.1816 H   0  0  0  0  0  0  0  0  0  0  0  0
  137.3982   70.2891  224.8421 H   0  0  0  0  0  0  0  0  0  0  0  0
  135.7824   69.5629  225.2223 H   0  0  0  0  0  0  0  0  0  0  0  0
  137.1592   68.0713  223.8468 H   0  0  0  0  0  0  0  0  0  0  0  0
  135.6521   68.6409  222.9916 H   0  0  0  0  0  0  0  0  0  0  0  0
  143.1366   71.3297  221.0051 H   0  0  0  0  0  0  0  0  0  0  0  0
  1  2  1  0
  2  3  2  0
  2  4  2  0
  2  5  1  0
  5  6  2  0
  6  7  1  0
  7  8  2  0
  8  9  1  0
  9 10  1  0
 10 11  2  0
 11 12  1  0
 12 13  2  0
 13 14  1  0
 14 15  2  0
 15 16  1  0
 16 17  2  0
 17 18  1  0
 17 19  1  0
 19 20  2  0
 20 21  1  0
 21 22  2  0
 21 23  1  0
 23 24  1  0
 24 25  1  0
 25 26  1  0
 26 27  1  0
 27 28  1  0
 28 29  1  0
 29 30  1  0
  9 31  2  0
 31  5  1  0
 23 12  1  0
 30 25  1  0
 20 14  1  0
  1 32  1  0
  1 33  1  0
  6 34  1  0
  7 35  1  0
  8 36  1  0
 10 37  1  0
 11 38  1  0
 15 39  1  0
 16 40  1  0
 19 41  1  0
 24 42  1  0
 24 43  1  0
 25 44  1  0
 26 45  1  0
 26 46  1  0
 27 47  1  0
 27 48  1  0
 28 49  1  0
 28 50  1  0
 29 51  1  0
 29 52  1  0
 30 53  1  0
 30 54  1  0
 31 55  1  0
M  END
>  <smiles>  (29) 
NS(=O)(=O)c1cccc(/C=C/c2nc3ccc(F)cc3c(=O)n2CC2CCCCC2)c1

>  <score_type>  (29) 
oracle

>  <origin>  (29) 
autodockgpu

>  <m_score__min__energy>  (29) 
-9.2799999999999994

>  <m_primary>  (29) 
energy

>  <rmsd>  (29) 
10.668336782466097

>  <m_score__min__rmsd>  (29) 
10.668336782466097

>  <meeko>  (29) 
{"free_energy": -9.09, "intermolecular_energy": -11.18, "internal_energy": -1.49, "cluster_size": 31, "cluster_id": 1, "rank_in_cluster": 5}

>  <energy>  (29) 
-7.85

>  <cluster_rmsd>  (29) 
1.34

>  <cluster>  (29) 
1

$$$$

     RDKit          3D

 55 58  0  0  0  0  0  0  0  0999 V2000
  145.8990   71.2870  219.7070 N   0  0  0  0  0  0  0  0  0  0  0  0
  145.7120   72.9930  219.4780 S   0  0  0  0  0  0  0  0  0  0  0  0
  146.7810   73.6830  220.2830 O   0  0  0  0  0  0  0  0  0  0  0  0
  145.9500   73.3610  218.0420 O   0  0  0  0  0  0  0  0  0  0  0  0
  144.1360   73.5340  220.0170 C   0  0  0  0  0  0  0  0  0  0  0  0
  143.7970   74.8620  219.8490 C   0  0  0  0  0  0  0  0  0  0  0  0
  142.5510   75.2470  220.2850 C   0  0  0  0  0  0  0  0  0  0  0  0
  141.6740   74.3540  220.8630 C   0  0  0  0  0  0  0  0  0  0  0  0
  142.0000   73.0270  221.0350 C   0  0  0  0  0  0  0  0  0  0  0  0
  141.1030   72.0510  221.6410 C   0  0  0  0  0  0  0  0  0  0  0  0
  140.3260   72.2950  222.6680 C   0  0  0  0  0  0  0  0  0  0  0  0
  140.1790   71.3030  223.7450 C   0  0  0  0  0  0  0  0  0  0  0  0
  140.7110   71.6170  224.9600 N   0  0  0  0  0  0  0  0  0  0  0  0
  140.6480   70.8030  226.0240 C   0  0  0  0  0  0  0  0  0  0  0  0
  141.1950   71.1490  227.2400 C   0  0  0  0  0  0  0  0  0  0  0  0
  141.0860   70.2480  228.2840 C   0  0  0  0  0  0  0  0  0  0  0  0
  140.4540   69.0260  228.1540 C   0  0  0  0  0  0  0  0  0  0  0  0
  140.3410   68.1370  229.1720 F   0  0  0  0  0  0  0  0  0  0  0  0
  139.9110   68.7040  226.9130 C   0  0  0  0  0  0  0  0  0  0  0  0
  140.0060   69.5920  225.8420 C   0  0  0  0  0  0  0  0  0  0  0  0
  139.4700   69.2770  224.6130 C   0  0  0  0  0  0  0  0  0  0  0  0
  138.8970   68.1570  224.5190 O   0  0  0  0  0  0  0  0  0  0  0  0
  139.5470   70.1250  223.5460 N   0  0  0  0  0  0  0  0  0  0  0  0
  139.0020   69.7930  222.2610 C   0  0  0  0  0  0  0  0  0  0  0  0
  137.5960   70.1920  222.0080 C   0  0  0  0  0  0  0  0  0  0  0  0
  137.2100   71.0970  223.1890 C   0  0  0  0  0  0  0  0  0  0  0  0
  135.7440   71.0040  223.4740 C   0  0  0  0  0  0  0  0  0  0  0  0
  135.4180   69.6190  223.9630 C   0  0  0  0  0  0  0  0  0  0  0  0
  136.0850   68.5410  223.1310 C   0  0  0  0  0  0  0  0  0  0  0  0
  136.6080   69.0910  221.8250 C   0  0  0  0  0  0  0  0  0  0  0  0
  143.2560   72.6410  220.5950 C   0  0  0  0  0  0  0  0  0  0  0  0
  146.4770   71.1510  220.5550 H   0  0  0  0  0  0  0  0  0  0  0  0
  146.3130   70.9130  218.8300 H   0  0  0  0  0  0  0  0  0  0  0  0
  144.4919   75.5791  219.3875 H   0  0  0  0  0  0  0  0  0  0  0  0
  142.2453   76.2973  220.1693 H   0  0  0  0  0  0  0  0  0  0  0  0
  140.6880   74.7107  221.1955 H   0  0  0  0  0  0  0  0  0  0  0  0
  141.0763   71.0407  221.2068 H   0  0  0  0  0  0  0  0  0  0  0  0
  139.7799   73.2481  222.7253 H   0  0  0  0  0  0  0  0  0  0  0  0
  141.7041   72.1144  227.3770 H   0  0  0  0  0  0  0  0  0  0  0  0
  141.5206   70.5155  229.2585 H   0  0  0  0  0  0  0  0  0  0  0  0
  139.4016   67.7388  226.7759 H   0  0  0  0  0  0  0  0  0  0  0  0
  139.6283   70.2788  221.4982 H   0  0  0  0  0  0  0  0  0  0  0  0
  139.0005   68.6936  222.2241 H   0  0  0  0  0  0  0  0  0  0  0  0
  137.5553   70.6939  221.0300 H   0  0  0  0  0  0  0  0  0  0  0  0
  137.7713   70.7838  224.0816 H   0  0  0  0  0  0  0  0  0  0  0  0
  137.4529   72.1379  222.9291 H   0  0  0  0  0  0  0  0  0  0  0  0
  135.4726   71.7393  224.2458 H   0  0  0  0  0  0  0  0  0  0  0  0
  135.1766   71.2128  222.5551 H   0  0  0  0  0  0  0  0  0  0  0  0
  135.7584   69.5228  225.0046 H   0  0  0  0  0  0  0  0  0  0  0  0
  134.3298   69.4814  223.8806 H   0  0  0  0  0  0  0  0  0  0  0  0
  136.9246   68.1176  223.7019 H   0  0  0  0  0  0  0  0  0  0  0  0
  135.3356   67.7685  222.9037 H   0  0  0  0  0  0  0  0  0  0  0  0
  137.0928   68.2742  221.2703 H   0  0  0  0  0  0  0  0  0  0  0  0
  135.7498   69.5080  221.2776 H   0  0  0  0  0  0  0  0  0  0  0  0
  143.5613   71.5905  220.7098 H   0  0  0  0  0  0  0  0  0  0  0  0
  1  2  1  0
  2  3  2  0
  2  4  2  0
  2  5  1  0
  5  6  2  0
  6  7  1  0
  7  8  2  0
  8  9  1  0
  9 10  1  0
 10 11  2  0
 11 12  1  0
 12 13  2  0
 13 14  1  0
 14 15  2  0
 15 16  1  0
 16 17  2  0
 17 18  1  0
 17 19  1  0
 19 20  2  0
 20 21  1  0
 21 22  2  0
 21 23  1  0
 23 24  1  0
 24 25  1  0
 25 26  1  0
 26 27  1  0
 27 28  1  0
 28 29  1  0
 29 30  1  0
  9 31  2  0
 31  5  1  0
 23 12  1  0
 30 25  1  0
 20 14  1  0
  1 32  1  0
  1 33  1  0
  6 34  1  0
  7 35  1  0
  8 36  1  0
 10 37  1  0
 11 38  1  0
 15 39  1  0
 16 40  1  0
 19 41  1  0
 24 42  1  0
 24 43  1  0
 25 44  1  0
 26 45  1  0
 26 46  1  0
 27 47  1  0
 27 48  1  0
 28 49  1  0
 28 50  1  0
 29 51  1  0
 29 52  1  0
 30 53  1  0
 30 54  1  0
 31 55  1  0
M  END
>  <smiles>  (30) 
NS(=O)(=O)c1cccc(/C=C/c2nc3ccc(F)cc3c(=O)n2CC2CCCCC2)c1

>  <score_type>  (30) 
oracle

>  <origin>  (30) 
autodockgpu

>  <m_score__min__energy>  (30) 
-9.2799999999999994

>  <m_primary>  (30) 
energy

>  <rmsd>  (30) 
10.802202045895703

>  <m_score__min__rmsd>  (30) 
10.802202045895703

>  <meeko>  (30) 
{"free_energy": -8.61, "intermolecular_energy": -10.7, "internal_energy": -1.35, "cluster_size": 31, "cluster_id": 1, "rank_in_cluster": 12}

>  <energy>  (30) 
-7.81

>  <cluster_rmsd>  (30) 
1.52

>  <cluster>  (30) 
1

$$$$

     RDKit          3D

 55 58  0  0  0  0  0  0  0  0999 V2000
  146.0020   73.3900  217.8820 N   0  0  0  0  0  0  0  0  0  0  0  0
  145.7130   73.0400  219.5530 S   0  0  0  0  0  0  0  0  0  0  0  0
  145.9000   71.5600  219.7490 O   0  0  0  0  0  0  0  0  0  0  0  0
  146.7350   73.7210  220.4180 O   0  0  0  0  0  0  0  0  0  0  0  0
  144.0870   73.4910  220.0210 C   0  0  0  0  0  0  0  0  0  0  0  0
  143.6520   74.7740  219.7520 C   0  0  0  0  0  0  0  0  0  0  0  0
  142.3690   75.0890  220.1360 C   0  0  0  0  0  0  0  0  0  0  0  0
  141.5490   74.1720  220.7590 C   0  0  0  0  0  0  0  0  0  0  0  0
  141.9730   72.8890  221.0310 C   0  0  0  0  0  0  0  0  0  0  0  0
  141.1380   71.8900  221.6880 C   0  0  0  0  0  0  0  0  0  0  0  0
  140.3240   72.1420  222.6820 C   0  0  0  0  0  0  0  0  0  0  0  0
  140.1680   71.1770  223.7820 C   0  0  0  0  0  0  0  0  0  0  0  0
  140.7020   71.5140  224.9900 N   0  0  0  0  0  0  0  0  0  0  0  0
  140.6330   70.7260  226.0720 C   0  0  0  0  0  0  0  0  0  0  0  0
  141.1820   71.0960  227.2800 C   0  0  0  0  0  0  0  0  0  0  0  0
  141.0650   70.2200  228.3450 C   0  0  0  0  0  0  0  0  0  0  0  0
  140.4230   69.0010  228.2440 C   0  0  0  0  0  0  0  0  0  0  0  0
  140.3020   68.1370  229.2820 F   0  0  0  0  0  0  0  0  0  0  0  0
  139.8770   68.6550  227.0100 C   0  0  0  0  0  0  0  0  0  0  0  0
  139.9790   69.5170  225.9180 C   0  0  0  0  0  0  0  0  0  0  0  0
  139.4420   69.1780  224.6980 C   0  0  0  0  0  0  0  0  0  0  0  0
  138.8580   68.0610  224.6290 O   0  0  0  0  0  0  0  0  0  0  0  0
  139.5260   69.9990  223.6110 N   0  0  0  0  0  0  0  0  0  0  0  0
  138.9780   69.6420  222.3340 C   0  0  0  0  0  0  0  0  0  0  0  0
  137.5340   69.9140  222.1260 C   0  0  0  0  0  0  0  0  0  0  0  0
  137.3110   71.3450  222.6410 C   0  0  0  0  0  0  0  0  0  0  0  0
  135.9160   71.5140  223.1560 C   0  0  0  0  0  0  0  0  0  0  0  0
  135.7300   70.6600  224.3800 C   0  0  0  0  0  0  0  0  0  0  0  0
  136.2940   69.2640  224.2020 C   0  0  0  0  0  0  0  0  0  0  0  0
  136.5740   68.9600  222.7490 C   0  0  0  0  0  0  0  0  0  0  0  0
  143.2650   72.5740  220.6440 C   0  0  0  0  0  0  0  0  0  0  0  0
  145.9250   74.4160  217.7630 H   0  0  0  0  0  0  0  0  0  0  0  0
  145.3110   72.8340  217.3380 H   0  0  0  0  0  0  0  0  0  0  0  0
  144.3009   75.5095  219.2541 H   0  0  0  0  0  0  0  0  0  0  0  0
  141.9863   76.1016  219.9404 H   0  0  0  0  0  0  0  0  0  0  0  0
  140.5304   74.4721  221.0463 H   0  0  0  0  0  0  0  0  0  0  0  0
  141.1961   70.8538  221.3234 H   0  0  0  0  0  0  0  0  0  0  0  0
  139.7526   73.0818  222.6950 H   0  0  0  0  0  0  0  0  0  0  0  0
  141.6987   72.0603  227.3949 H   0  0  0  0  0  0  0  0  0  0  0  0
  141.5018   70.5066  229.3130 H   0  0  0  0  0  0  0  0  0  0  0  0
  139.3595   67.6911  226.8954 H   0  0  0  0  0  0  0  0  0  0  0  0
  139.5354   70.1977  221.5655 H   0  0  0  0  0  0  0  0  0  0  0  0
  139.0764   68.5480  222.2741 H   0  0  0  0  0  0  0  0  0  0  0  0
  137.3141   69.7854  221.0559 H   0  0  0  0  0  0  0  0  0  0  0  0
  138.0228   71.5505  223.4541 H   0  0  0  0  0  0  0  0  0  0  0  0
  137.4667   72.0472  221.8087 H   0  0  0  0  0  0  0  0  0  0  0  0
  135.7455   72.5694  223.4152 H   0  0  0  0  0  0  0  0  0  0  0  0
  135.1980   71.2078  222.3810 H   0  0  0  0  0  0  0  0  0  0  0  0
  136.2398   71.1415  225.2275 H   0  0  0  0  0  0  0  0  0  0  0  0
  134.6492   70.5645  224.5612 H   0  0  0  0  0  0  0  0  0  0  0  0
  137.2317   69.1823  224.7712 H   0  0  0  0  0  0  0  0  0  0  0  0
  135.5491   68.5421  224.5678 H   0  0  0  0  0  0  0  0  0  0  0  0
  136.9932   67.9455  222.6782 H   0  0  0  0  0  0  0  0  0  0  0  0
  135.6219   69.0515  222.2057 H   0  0  0  0  0  0  0  0  0  0  0  0
  143.6479   71.5614  220.8393 H   0  0  0  0  0  0  0  0  0  0  0  0
  1  2  1  0
  2  3  2  0
  2  4  2  0
  2  5  1  0
  5  6  2  0
  6  7  1  0
  7  8  2  0
  8  9  1  0
  9 10  1  0
 10 11  2  0
 11 12  1  0
 12 13  2  0
 13 14  1  0
 14 15  2  0
 15 16  1  0
 16 17  2  0
 17 18  1  0
 17 19  1  0
 19 20  2  0
 20 21  1  0
 21 22  2  0
 21 23  1  0
 23 24  1  0
 24 25  1  0
 25 26  1  0
 26 27  1  0
 27 28  1  0
 28 29  1  0
 29 30  1  0
  9 31  2  0
 31  5  1  0
 23 12  1  0
 30 25  1  0
 20 14  1  0
  1 32  1  0
  1 33  1  0
  6 34  1  0
  7 35  1  0
  8 36  1  0
 10 37  1  0
 11 38  1  0
 15 39  1  0
 16 40  1  0
 19 41  1  0
 24 42  1  0
 24 43  1  0
 25 44  1  0
 26 45  1  0
 26 46  1  0
 27 47  1  0
 27 48  1  0
 28 49  1  0
 28 50  1  0
 29 51  1  0
 29 52  1  0
 30 53  1  0
 30 54  1  0
 31 55  1  0
M  END
>  <smiles>  (31) 
NS(=O)(=O)c1cccc(/C=C/c2nc3ccc(F)cc3c(=O)n2CC2CCCCC2)c1

>  <score_type>  (31) 
oracle

>  <origin>  (31) 
autodockgpu

>  <m_score__min__energy>  (31) 
-9.2799999999999994

>  <m_primary>  (31) 
energy

>  <rmsd>  (31) 
10.69103535300285

>  <m_score__min__rmsd>  (31) 
10.69103535300285

>  <meeko>  (31) 
{"free_energy": -9.16, "intermolecular_energy": -11.25, "internal_energy": -1.38, "cluster_size": 31, "cluster_id": 1, "rank_in_cluster": 3}

>  <energy>  (31) 
-7.75

>  <cluster_rmsd>  (31) 
1.11

>  <cluster>  (31) 
1

$$$$

     RDKit          3D

 55 58  0  0  0  0  0  0  0  0999 V2000
  142.2330   78.7970  221.5350 N   0  0  0  0  0  0  0  0  0  0  0  0
  141.0480   78.5840  222.7790 S   0  0  0  0  0  0  0  0  0  0  0  0
  141.7800   78.4300  224.0850 O   0  0  0  0  0  0  0  0  0  0  0  0
  140.1920   79.8110  222.9080 O   0  0  0  0  0  0  0  0  0  0  0  0
  140.0730   77.1600  222.4850 C   0  0  0  0  0  0  0  0  0  0  0  0
  138.6990   77.2670  222.5780 C   0  0  0  0  0  0  0  0  0  0  0  0
  137.9680   76.1270  222.3400 C   0  0  0  0  0  0  0  0  0  0  0  0
  138.5710   74.9280  222.0230 C   0  0  0  0  0  0  0  0  0  0  0  0
  139.9400   74.8100  221.9260 C   0  0  0  0  0  0  0  0  0  0  0  0
  140.6180   73.5620  221.5930 C   0  0  0  0  0  0  0  0  0  0  0  0
  140.0410   72.3860  221.5830 C   0  0  0  0  0  0  0  0  0  0  0  0
  139.8430   71.6420  222.8370 C   0  0  0  0  0  0  0  0  0  0  0  0
  140.5620   72.0440  223.9220 N   0  0  0  0  0  0  0  0  0  0  0  0
  140.4770   71.4530  225.1230 C   0  0  0  0  0  0  0  0  0  0  0  0
  141.2170   71.8840  226.2020 C   0  0  0  0  0  0  0  0  0  0  0  0
  141.0690   71.2140  227.4030 C   0  0  0  0  0  0  0  0  0  0  0  0
  140.2130   70.1410  227.5610 C   0  0  0  0  0  0  0  0  0  0  0  0
  140.0600   69.4790  228.7340 F   0  0  0  0  0  0  0  0  0  0  0  0
  139.4780   69.7280  226.4520 C   0  0  0  0  0  0  0  0  0  0  0  0
  139.6070   70.3830  225.2270 C   0  0  0  0  0  0  0  0  0  0  0  0
  138.8830   69.9780  224.1290 C   0  0  0  0  0  0  0  0  0  0  0  0
  138.1070   68.9970  224.2970 O   0  0  0  0  0  0  0  0  0  0  0  0
  138.9870   70.5980  222.9180 N   0  0  0  0  0  0  0  0  0  0  0  0
  138.2430   70.1680  221.7690 C   0  0  0  0  0  0  0  0  0  0  0  0
  136.8400   70.6380  221.6670 C   0  0  0  0  0  0  0  0  0  0  0  0
  136.9270   72.0570  221.0800 C   0  0  0  0  0  0  0  0  0  0  0  0
  135.7840   72.8990  221.5510 C   0  0  0  0  0  0  0  0  0  0  0  0
  135.9040   73.1180  223.0350 C   0  0  0  0  0  0  0  0  0  0  0  0
  136.2470   71.8420  223.7810 C   0  0  0  0  0  0  0  0  0  0  0  0
  136.0330   70.6200  222.9190 C   0  0  0  0  0  0  0  0  0  0  0  0
  140.6750   75.9600  222.1660 C   0  0  0  0  0  0  0  0  0  0  0  0
  142.5690   77.8560  221.2630 H   0  0  0  0  0  0  0  0  0  0  0  0
  142.9640   79.4270  221.9230 H   0  0  0  0  0  0  0  0  0  0  0  0
  138.2120   78.2204  222.8308 H   0  0  0  0  0  0  0  0  0  0  0  0
  136.8708   76.1727  222.4043 H   0  0  0  0  0  0  0  0  0  0  0  0
  137.9427   74.0432  221.8430 H   0  0  0  0  0  0  0  0  0  0  0  0
  141.6856   73.6118  221.3328 H   0  0  0  0  0  0  0  0  0  0  0  0
  139.7022   71.9518  220.6308 H   0  0  0  0  0  0  0  0  0  0  0  0
  141.9060   72.7367  226.1111 H   0  0  0  0  0  0  0  0  0  0  0  0
  141.6579   71.5497  228.2693 H   0  0  0  0  0  0  0  0  0  0  0  0
  138.7883   68.8760  226.5432 H   0  0  0  0  0  0  0  0  0  0  0  0
  138.7780   70.5207  220.8749 H   0  0  0  0  0  0  0  0  0  0  0  0
  138.1742   69.0742  221.8632 H   0  0  0  0  0  0  0  0  0  0  0  0
  136.2879   69.9269  221.0349 H   0  0  0  0  0  0  0  0  0  0  0  0
  137.8719   72.5214  221.3984 H   0  0  0  0  0  0  0  0  0  0  0  0
  136.8844   71.9874  219.9830 H   0  0  0  0  0  0  0  0  0  0  0  0
  135.8053   73.8696  221.0337 H   0  0  0  0  0  0  0  0  0  0  0  0
  134.8352   72.3881  221.3301 H   0  0  0  0  0  0  0  0  0  0  0  0
  136.6954   73.8592  223.2201 H   0  0  0  0  0  0  0  0  0  0  0  0
  134.9288   73.4701  223.4025 H   0  0  0  0  0  0  0  0  0  0  0  0
  137.3022   71.8812  224.0893 H   0  0  0  0  0  0  0  0  0  0  0  0
  135.5849   71.7663  224.6562 H   0  0  0  0  0  0  0  0  0  0  0  0
  136.3099   69.7285  223.5009 H   0  0  0  0  0  0  0  0  0  0  0  0
  134.9730   70.6080  222.6252 H   0  0  0  0  0  0  0  0  0  0  0  0
  141.7721   75.9149  222.1002 H   0  0  0  0  0  0  0  0  0  0  0  0
  1  2  1  0
  2  3  2  0
  2  4  2  0
  2  5  1  0
  5  6  2  0
  6  7  1  0
  7  8  2  0
  8  9  1  0
  9 10  1  0
 10 11  2  0
 11 12  1  0
 12 13  2  0
 13 14  1  0
 14 15  2  0
 15 16  1  0
 16 17  2  0
 17 18  1  0
 17 19  1  0
 19 20  2  0
 20 21  1  0
 21 22  2  0
 21 23  1  0
 23 24  1  0
 24 25  1  0
 25 26  1  0
 26 27  1  0
 27 28  1  0
 28 29  1  0
 29 30  1  0
  9 31  2  0
 31  5  1  0
 23 12  1  0
 30 25  1  0
 20 14  1  0
  1 32  1  0
  1 33  1  0
  6 34  1  0
  7 35  1  0
  8 36  1  0
 10 37  1  0
 11 38  1  0
 15 39  1  0
 16 40  1  0
 19 41  1  0
 24 42  1  0
 24 43  1  0
 25 44  1  0
 26 45  1  0
 26 46  1  0
 27 47  1  0
 27 48  1  0
 28 49  1  0
 28 50  1  0
 29 51  1  0
 29 52  1  0
 30 53  1  0
 30 54  1  0
 31 55  1  0
M  END
>  <smiles>  (32) 
NS(=O)(=O)c1cccc(/C=C/c2nc3ccc(F)cc3c(=O)n2CC2CCCCC2)c1

>  <score_type>  (32) 
oracle

>  <origin>  (32) 
autodockgpu

>  <m_score__min__energy>  (32) 
-9.2799999999999994

>  <m_primary>  (32) 
energy

>  <rmsd>  (32) 
9.586231824423086

>  <m_score__min__rmsd>  (32) 
9.586231824423086

>  <meeko>  (32) 
{"free_energy": -7.64, "intermolecular_energy": -9.72, "internal_energy": -2.12, "cluster_size": 2, "cluster_id": 9, "rank_in_cluster": 2}

>  <energy>  (32) 
-8.62

>  <cluster_rmsd>  (32) 
0.0

>  <cluster>  (32) 
2

$$$$

     RDKit          3D

 55 58  0  0  0  0  0  0  0  0999 V2000
  146.7240   73.7550  219.1670 N   0  0  0  0  0  0  0  0  0  0  0  0
  145.7970   72.7770  220.2540 S   0  0  0  0  0  0  0  0  0  0  0  0
  145.8260   71.3640  219.7370 O   0  0  0  0  0  0  0  0  0  0  0  0
  146.4360   72.7500  221.6130 O   0  0  0  0  0  0  0  0  0  0  0  0
  144.1390   73.3330  220.3460 C   0  0  0  0  0  0  0  0  0  0  0  0
  143.8280   74.5770  219.8340 C   0  0  0  0  0  0  0  0  0  0  0  0
  142.5150   74.9770  219.9260 C   0  0  0  0  0  0  0  0  0  0  0  0
  141.5490   74.1790  220.5000 C   0  0  0  0  0  0  0  0  0  0  0  0
  141.8480   72.9360  221.0130 C   0  0  0  0  0  0  0  0  0  0  0  0
  140.8570   72.0610  221.6280 C   0  0  0  0  0  0  0  0  0  0  0  0
  140.2100   72.3360  222.7340 C   0  0  0  0  0  0  0  0  0  0  0  0
  140.1020   71.3310  223.8040 C   0  0  0  0  0  0  0  0  0  0  0  0
  140.6440   71.6470  225.0140 N   0  0  0  0  0  0  0  0  0  0  0  0
  140.6160   70.8230  226.0720 C   0  0  0  0  0  0  0  0  0  0  0  0
  141.1730   71.1720  227.2820 C   0  0  0  0  0  0  0  0  0  0  0  0
  141.1000   70.2590  228.3200 C   0  0  0  0  0  0  0  0  0  0  0  0
  140.4950   69.0240  228.1890 C   0  0  0  0  0  0  0  0  0  0  0  0
  140.4170   68.1240  229.2010 F   0  0  0  0  0  0  0  0  0  0  0  0
  139.9410   68.7000  226.9530 C   0  0  0  0  0  0  0  0  0  0  0  0
  139.9990   69.5990  225.8880 C   0  0  0  0  0  0  0  0  0  0  0  0
  139.4530   69.2830  224.6650 C   0  0  0  0  0  0  0  0  0  0  0  0
  138.9040   68.1500  224.5700 O   0  0  0  0  0  0  0  0  0  0  0  0
  139.4940   70.1400  223.6050 N   0  0  0  0  0  0  0  0  0  0  0  0
  138.9380   69.8060  222.3250 C   0  0  0  0  0  0  0  0  0  0  0  0
  137.4830   70.0350  222.1480 C   0  0  0  0  0  0  0  0  0  0  0  0
  137.2200   71.4410  222.7110 C   0  0  0  0  0  0  0  0  0  0  0  0
  135.8290   71.5470  223.2520 C   0  0  0  0  0  0  0  0  0  0  0  0
  135.6920   70.6500  224.4530 C   0  0  0  0  0  0  0  0  0  0  0  0
  136.3000   69.2800  224.2220 C   0  0  0  0  0  0  0  0  0  0  0  0
  136.5660   69.0300  222.7560 C   0  0  0  0  0  0  0  0  0  0  0  0
  143.1710   72.5340  220.9200 C   0  0  0  0  0  0  0  0  0  0  0  0
  147.1540   74.5150  219.7240 H   0  0  0  0  0  0  0  0  0  0  0  0
  146.0710   74.0740  218.4230 H   0  0  0  0  0  0  0  0  0  0  0  0
  144.5943   75.2183  219.3740 H   0  0  0  0  0  0  0  0  0  0  0  0
  142.2278   75.9622  219.5300 H   0  0  0  0  0  0  0  0  0  0  0  0
  140.5125   74.5441  220.5498 H   0  0  0  0  0  0  0  0  0  0  0  0
  140.6375   71.1052  221.1298 H   0  0  0  0  0  0  0  0  0  0  0  0
  139.7446   73.3243  222.8635 H   0  0  0  0  0  0  0  0  0  0  0  0
  141.6617   72.1478  227.4197 H   0  0  0  0  0  0  0  0  0  0  0  0
  141.5425   70.5284  229.2904 H   0  0  0  0  0  0  0  0  0  0  0  0
  139.4522   67.7243  226.8151 H   0  0  0  0  0  0  0  0  0  0  0  0
  139.4639   70.4051  221.5670 H   0  0  0  0  0  0  0  0  0  0  0  0
  139.0725   68.7186  222.2274 H   0  0  0  0  0  0  0  0  0  0  0  0
  137.2503   69.9322  221.0778 H   0  0  0  0  0  0  0  0  0  0  0  0
  137.9375   71.6455  223.5193 H   0  0  0  0  0  0  0  0  0  0  0  0
  137.3382   72.1731  221.8986 H   0  0  0  0  0  0  0  0  0  0  0  0
  135.6274   72.5877  223.5459 H   0  0  0  0  0  0  0  0  0  0  0  0
  135.1089   71.2401  222.4791 H   0  0  0  0  0  0  0  0  0  0  0  0
  136.1995   71.1226  225.3069 H   0  0  0  0  0  0  0  0  0  0  0  0
  134.6184   70.5124  224.6489 H   0  0  0  0  0  0  0  0  0  0  0  0
  137.2493   69.2131  224.7736 H   0  0  0  0  0  0  0  0  0  0  0  0
  135.5857   68.5222  224.5763 H   0  0  0  0  0  0  0  0  0  0  0  0
  137.0179   68.0330  222.6473 H   0  0  0  0  0  0  0  0  0  0  0  0
  135.6025   69.1053  222.2306 H   0  0  0  0  0  0  0  0  0  0  0  0
  143.4582   71.5486  221.3155 H   0  0  0  0  0  0  0  0  0  0  0  0
  1  2  1  0
  2  3  2  0
  2  4  2  0
  2  5  1  0
  5  6  2  0
  6  7  1  0
  7  8  2  0
  8  9  1  0
  9 10  1  0
 10 11  2  0
 11 12  1  0
 12 13  2  0
 13 14  1  0
 14 15  2  0
 15 16  1  0
 16 17  2  0
 17 18  1  0
 17 19  1  0
 19 20  2  0
 20 21  1  0
 21 22  2  0
 21 23  1  0
 23 24  1  0
 24 25  1  0
 25 26  1  0
 26 27  1  0
 27 28  1  0
 28 29  1  0
 29 30  1  0
  9 31  2  0
 31  5  1  0
 23 12  1  0
 30 25  1  0
 20 14  1  0
  1 32  1  0
  1 33  1  0
  6 34  1  0
  7 35  1  0
  8 36  1  0
 10 37  1  0
 11 38  1  0
 15 39  1  0
 16 40  1  0
 19 41  1  0
 24 42  1  0
 24 43  1  0
 25 44  1  0
 26 45  1  0
 26 46  1  0
 27 47  1  0
 27 48  1  0
 28 49  1  0
 28 50  1  0
 29 51  1  0
 29 52  1  0
 30 53  1  0
 30 54  1  0
 31 55  1  0
M  END
>  <smiles>  (33) 
NS(=O)(=O)c1cccc(/C=C/c2nc3ccc(F)cc3c(=O)n2CC2CCCCC2)c1

>  <score_type>  (33) 
oracle

>  <origin>  (33) 
autodockgpu

>  <m_score__min__energy>  (33) 
-9.2799999999999994

>  <m_primary>  (33) 
energy

>  <rmsd>  (33) 
10.6570574009261

>  <m_score__min__rmsd>  (33) 
10.6570574009261

>  <meeko>  (33) 
{"free_energy": -9.15, "intermolecular_energy": -11.24, "internal_energy": -1.34, "cluster_size": 31, "cluster_id": 1, "rank_in_cluster": 4}

>  <energy>  (33) 
-8.09

>  <cluster_rmsd>  (33) 
1.71

>  <cluster>  (33) 
2

$$$$

     RDKit          3D

 55 58  0  0  0  0  0  0  0  0999 V2000
  133.1930   73.1100  227.2170 N   0  0  0  0  0  0  0  0  0  0  0  0
  133.4850   74.4940  226.2200 S   0  0  0  0  0  0  0  0  0  0  0  0
  132.1690   74.9110  225.6200 O   0  0  0  0  0  0  0  0  0  0  0  0
  133.9640   75.6500  227.0500 O   0  0  0  0  0  0  0  0  0  0  0  0
  134.6190   74.1220  224.9390 C   0  0  0  0  0  0  0  0  0  0  0  0
  134.8210   72.8000  224.5960 C   0  0  0  0  0  0  0  0  0  0  0  0
  135.7190   72.5490  223.5850 C   0  0  0  0  0  0  0  0  0  0  0  0
  136.3910   73.5650  222.9390 C   0  0  0  0  0  0  0  0  0  0  0  0
  136.1960   74.8870  223.2710 C   0  0  0  0  0  0  0  0  0  0  0  0
  136.8850   75.9910  222.6130 C   0  0  0  0  0  0  0  0  0  0  0  0
  138.0280   76.4930  223.0100 C   0  0  0  0  0  0  0  0  0  0  0  0
  139.2800   76.1260  222.3290 C   0  0  0  0  0  0  0  0  0  0  0  0
  139.5990   74.8020  222.2780 N   0  0  0  0  0  0  0  0  0  0  0  0
  140.7090   74.3330  221.6910 C   0  0  0  0  0  0  0  0  0  0  0  0
  141.0020   72.9880  221.6560 C   0  0  0  0  0  0  0  0  0  0  0  0
  142.1710   72.5920  221.0290 C   0  0  0  0  0  0  0  0  0  0  0  0
  143.0450   73.4860  220.4420 C   0  0  0  0  0  0  0  0  0  0  0  0
  144.1920   73.1070  219.8250 F   0  0  0  0  0  0  0  0  0  0  0  0
  142.7210   74.8400  220.4940 C   0  0  0  0  0  0  0  0  0  0  0  0
  141.5510   75.2690  221.1190 C   0  0  0  0  0  0  0  0  0  0  0  0
  141.2270   76.6060  221.1720 C   0  0  0  0  0  0  0  0  0  0  0  0
  142.0390   77.4040  220.6280 O   0  0  0  0  0  0  0  0  0  0  0  0
  140.0900   77.0570  221.7760 N   0  0  0  0  0  0  0  0  0  0  0  0
  139.7580   78.4510  221.8440 C   0  0  0  0  0  0  0  0  0  0  0  0
  140.1950   79.1850  223.0570 C   0  0  0  0  0  0  0  0  0  0  0  0
  140.2280   80.6660  222.6480 C   0  0  0  0  0  0  0  0  0  0  0  0
  141.2590   81.4130  223.4340 C   0  0  0  0  0  0  0  0  0  0  0  0
  142.6280   80.9090  223.0650 C   0  0  0  0  0  0  0  0  0  0  0  0
  142.6900   79.3950  223.0050 C   0  0  0  0  0  0  0  0  0  0  0  0
  141.4870   78.7640  223.6670 C   0  0  0  0  0  0  0  0  0  0  0  0
  135.2900   75.1380  224.2900 C   0  0  0  0  0  0  0  0  0  0  0  0
  133.2010   73.4310  228.2020 H   0  0  0  0  0  0  0  0  0  0  0  0
  133.9260   72.4110  226.9790 H   0  0  0  0  0  0  0  0  0  0  0  0
  134.2882   71.9850  225.1078 H   0  0  0  0  0  0  0  0  0  0  0  0
  135.9065   71.5080  223.2832 H   0  0  0  0  0  0  0  0  0  0  0  0
  137.1012   73.3129  222.1377 H   0  0  0  0  0  0  0  0  0  0  0  0
  136.4129   76.4322  221.7228 H   0  0  0  0  0  0  0  0  0  0  0  0
  138.0522   77.1934  223.8579 H   0  0  0  0  0  0  0  0  0  0  0  0
  140.3268   72.2496  222.1130 H   0  0  0  0  0  0  0  0  0  0  0  0
  142.4142   71.5197  220.9969 H   0  0  0  0  0  0  0  0  0  0  0  0
  143.3958   75.5787  220.0369 H   0  0  0  0  0  0  0  0  0  0  0  0
  140.2151   78.9446  220.9737 H   0  0  0  0  0  0  0  0  0  0  0  0
  138.6588   78.4839  221.8684 H   0  0  0  0  0  0  0  0  0  0  0  0
  139.4828   78.9617  223.8650 H   0  0  0  0  0  0  0  0  0  0  0  0
  140.4687   80.7388  221.5771 H   0  0  0  0  0  0  0  0  0  0  0  0
  139.2418   81.1091  222.8506 H   0  0  0  0  0  0  0  0  0  0  0  0
  141.1888   82.4866  223.2051 H   0  0  0  0  0  0  0  0  0  0  0  0
  141.0867   81.2572  224.5092 H   0  0  0  0  0  0  0  0  0  0  0  0
  142.8991   81.3130  222.0784 H   0  0  0  0  0  0  0  0  0  0  0  0
  143.3294   81.2427  223.8439 H   0  0  0  0  0  0  0  0  0  0  0  0
  142.7242   79.0803  221.9515 H   0  0  0  0  0  0  0  0  0  0  0  0
  143.5916   79.0653  223.5421 H   0  0  0  0  0  0  0  0  0  0  0  0
  141.5742   77.6708  223.5820 H   0  0  0  0  0  0  0  0  0  0  0  0
  141.4780   79.0969  224.7154 H   0  0  0  0  0  0  0  0  0  0  0  0
  135.1003   76.1791  224.5903 H   0  0  0  0  0  0  0  0  0  0  0  0
  1  2  1  0
  2  3  2  0
  2  4  2  0
  2  5  1  0
  5  6  2  0
  6  7  1  0
  7  8  2  0
  8  9  1  0
  9 10  1  0
 10 11  2  0
 11 12  1  0
 12 13  2  0
 13 14  1  0
 14 15  2  0
 15 16  1  0
 16 17  2  0
 17 18  1  0
 17 19  1  0
 19 20  2  0
 20 21  1  0
 21 22  2  0
 21 23  1  0
 23 24  1  0
 24 25  1  0
 25 26  1  0
 26 27  1  0
 27 28  1  0
 28 29  1  0
 29 30  1  0
  9 31  2  0
 31  5  1  0
 23 12  1  0
 30 25  1  0
 20 14  1  0
  1 32  1  0
  1 33  1  0
  6 34  1  0
  7 35  1  0
  8 36  1  0
 10 37  1  0
 11 38  1  0
 15 39  1  0
 16 40  1  0
 19 41  1  0
 24 42  1  0
 24 43  1  0
 25 44  1  0
 26 45  1  0
 26 46  1  0
 27 47  1  0
 27 48  1  0
 28 49  1  0
 28 50  1  0
 29 51  1  0
 29 52  1  0
 30 53  1  0
 30 54  1  0
 31 55  1  0
M  END
>  <smiles>  (34) 
NS(=O)(=O)c1cccc(/C=C/c2nc3ccc(F)cc3c(=O)n2CC2CCCCC2)c1

>  <score_type>  (34) 
oracle

>  <origin>  (34) 
autodockgpu

>  <m_score__min__energy>  (34) 
-9.2799999999999994

>  <m_primary>  (34) 
energy

>  <rmsd>  (34) 
7.241791795174259

>  <m_score__min__rmsd>  (34) 
7.241791795174259

>  <meeko>  (34) 
{"free_energy": -8.1, "intermolecular_energy": -10.19, "internal_energy": -1.45, "cluster_size": 1, "cluster_id": 6, "rank_in_cluster": 1}

>  <energy>  (34) 
-7.97

>  <cluster_rmsd>  (34) 
1.87

>  <cluster>  (34) 
2

$$$$

     RDKit          3D

 55 58  0  0  0  0  0  0  0  0999 V2000
  145.4570   70.9720  219.6950 N   0  0  0  0  0  0  0  0  0  0  0  0
  145.4650   72.6860  219.9440 S   0  0  0  0  0  0  0  0  0  0  0  0
  146.4440   72.9830  221.0480 O   0  0  0  0  0  0  0  0  0  0  0  0
  145.9700   73.3930  218.7190 O   0  0  0  0  0  0  0  0  0  0  0  0
  143.8770   73.2650  220.3990 C   0  0  0  0  0  0  0  0  0  0  0  0
  143.6170   74.6190  220.3180 C   0  0  0  0  0  0  0  0  0  0  0  0
  142.3580   75.0340  220.6850 C   0  0  0  0  0  0  0  0  0  0  0  0
  141.3940   74.1460  221.1130 C   0  0  0  0  0  0  0  0  0  0  0  0
  141.6420   72.7940  221.1960 C   0  0  0  0  0  0  0  0  0  0  0  0
  140.6510   71.8220  221.6440 C   0  0  0  0  0  0  0  0  0  0  0  0
  139.8720   71.9830  222.6850 C   0  0  0  0  0  0  0  0  0  0  0  0
  139.9150   71.0290  223.8040 C   0  0  0  0  0  0  0  0  0  0  0  0
  140.4250   71.4740  224.9860 N   0  0  0  0  0  0  0  0  0  0  0  0
  140.5230   70.7090  226.0820 C   0  0  0  0  0  0  0  0  0  0  0  0
  141.0440   71.1890  227.2630 C   0  0  0  0  0  0  0  0  0  0  0  0
  141.1080   70.3290  228.3450 C   0  0  0  0  0  0  0  0  0  0  0  0
  140.6730   69.0190  228.2860 C   0  0  0  0  0  0  0  0  0  0  0  0
  140.7310   68.1680  229.3410 F   0  0  0  0  0  0  0  0  0  0  0  0
  140.1520   68.5610  227.0780 C   0  0  0  0  0  0  0  0  0  0  0  0
  140.0740   69.4050  225.9700 C   0  0  0  0  0  0  0  0  0  0  0  0
  139.5590   68.9570  224.7750 C   0  0  0  0  0  0  0  0  0  0  0  0
  139.1670   67.7580  224.7450 O   0  0  0  0  0  0  0  0  0  0  0  0
  139.4710   69.7580  223.6740 N   0  0  0  0  0  0  0  0  0  0  0  0
  138.9470   69.2890  222.4230 C   0  0  0  0  0  0  0  0  0  0  0  0
  137.4750   69.3450  222.2510 C   0  0  0  0  0  0  0  0  0  0  0  0
  137.1980   70.6780  221.5380 C   0  0  0  0  0  0  0  0  0  0  0  0
  135.8490   71.2100  221.9080 C   0  0  0  0  0  0  0  0  0  0  0  0
  135.8410   71.5760  223.3670 C   0  0  0  0  0  0  0  0  0  0  0  0
  136.4850   70.5110  224.2340 C   0  0  0  0  0  0  0  0  0  0  0  0
  136.6490   69.2100  223.4840 C   0  0  0  0  0  0  0  0  0  0  0  0
  142.9110   72.3770  220.8270 C   0  0  0  0  0  0  0  0  0  0  0  0
  144.9850   70.7930  218.7910 H   0  0  0  0  0  0  0  0  0  0  0  0
  144.9890   70.5530  220.5240 H   0  0  0  0  0  0  0  0  0  0  0  0
  144.3812   75.3324  219.9759 H   0  0  0  0  0  0  0  0  0  0  0  0
  142.1132   76.1053  220.6356 H   0  0  0  0  0  0  0  0  0  0  0  0
  140.4016   74.5272  221.3954 H   0  0  0  0  0  0  0  0  0  0  0  0
  140.5509   70.8900  221.0684 H   0  0  0  0  0  0  0  0  0  0  0  0
  139.1807   72.8378  222.7226 H   0  0  0  0  0  0  0  0  0  0  0  0
  141.3993   72.2269  227.3438 H   0  0  0  0  0  0  0  0  0  0  0  0
  141.5227   70.7042  229.2922 H   0  0  0  0  0  0  0  0  0  0  0  0
  139.7982   67.5226  226.9969 H   0  0  0  0  0  0  0  0  0  0  0  0
  139.3986   69.8961  221.6246 H   0  0  0  0  0  0  0  0  0  0  0  0
  139.2002   68.2191  222.3881 H   0  0  0  0  0  0  0  0  0  0  0  0
  137.1658   68.4594  221.6765 H   0  0  0  0  0  0  0  0  0  0  0  0
  137.9662   71.4092  221.8299 H   0  0  0  0  0  0  0  0  0  0  0  0
  137.2234   70.5079  220.4515 H   0  0  0  0  0  0  0  0  0  0  0  0
  135.6279   72.1025  221.3042 H   0  0  0  0  0  0  0  0  0  0  0  0
  135.0853   70.4417  221.7170 H   0  0  0  0  0  0  0  0  0  0  0  0
  136.3923   72.5188  223.4977 H   0  0  0  0  0  0  0  0  0  0  0  0
  134.7918   71.6755  223.6820 H   0  0  0  0  0  0  0  0  0  0  0  0
  137.4753   70.8642  224.5574 H   0  0  0  0  0  0  0  0  0  0  0  0
  135.8314   70.3297  225.1000 H   0  0  0  0  0  0  0  0  0  0  0  0
  137.1320   68.4803  224.1506 H   0  0  0  0  0  0  0  0  0  0  0  0
  135.6461   68.8830  223.1722 H   0  0  0  0  0  0  0  0  0  0  0  0
  143.1558   71.3057  220.8767 H   0  0  0  0  0  0  0  0  0  0  0  0
  1  2  1  0
  2  3  2  0
  2  4  2  0
  2  5  1  0
  5  6  2  0
  6  7  1  0
  7  8  2  0
  8  9  1  0
  9 10  1  0
 10 11  2  0
 11 12  1  0
 12 13  2  0
 13 14  1  0
 14 15  2  0
 15 16  1  0
 16 17  2  0
 17 18  1  0
 17 19  1  0
 19 20  2  0
 20 21  1  0
 21 22  2  0
 21 23  1  0
 23 24  1  0
 24 25  1  0
 25 26  1  0
 26 27  1  0
 27 28  1  0
 28 29  1  0
 29 30  1  0
  9 31  2  0
 31  5  1  0
 23 12  1  0
 30 25  1  0
 20 14  1  0
  1 32  1  0
  1 33  1  0
  6 34  1  0
  7 35  1  0
  8 36  1  0
 10 37  1  0
 11 38  1  0
 15 39  1  0
 16 40  1  0
 19 41  1  0
 24 42  1  0
 24 43  1  0
 25 44  1  0
 26 45  1  0
 26 46  1  0
 27 47  1  0
 27 48  1  0
 28 49  1  0
 28 50  1  0
 29 51  1  0
 29 52  1  0
 30 53  1  0
 30 54  1  0
 31 55  1  0
M  END
>  <smiles>  (35) 
NS(=O)(=O)c1cccc(/C=C/c2nc3ccc(F)cc3c(=O)n2CC2CCCCC2)c1

>  <score_type>  (35) 
oracle

>  <origin>  (35) 
autodockgpu

>  <m_score__min__energy>  (35) 
-9.2799999999999994

>  <m_primary>  (35) 
energy

>  <rmsd>  (35) 
10.581516318213657

>  <m_score__min__rmsd>  (35) 
10.581516318213657

>  <meeko>  (35) 
{"free_energy": -8.56, "intermolecular_energy": -10.65, "internal_energy": -1.55, "cluster_size": 31, "cluster_id": 1, "rank_in_cluster": 14}

>  <energy>  (35) 
-8.61

>  <cluster_rmsd>  (35) 
0.0

>  <cluster>  (35) 
3

$$$$

     RDKit          3D

 55 58  0  0  0  0  0  0  0  0999 V2000
  144.3370   74.4910  218.7390 N   0  0  0  0  0  0  0  0  0  0  0  0
  144.7410   73.1100  219.7020 S   0  0  0  0  0  0  0  0  0  0  0  0
  145.7020   72.2650  218.9090 O   0  0  0  0  0  0  0  0  0  0  0  0
  145.4660   73.5310  220.9480 O   0  0  0  0  0  0  0  0  0  0  0  0
  143.3160   72.1690  220.0860 C   0  0  0  0  0  0  0  0  0  0  0  0
  143.1020   70.9830  219.4110 C   0  0  0  0  0  0  0  0  0  0  0  0
  141.9710   70.2740  219.7410 C   0  0  0  0  0  0  0  0  0  0  0  0
  141.0870   70.7180  220.7010 C   0  0  0  0  0  0  0  0  0  0  0  0
  141.2910   71.8980  221.3820 C   0  0  0  0  0  0  0  0  0  0  0  0
  140.3810   72.4040  222.4040 C   0  0  0  0  0  0  0  0  0  0  0  0
  139.3730   71.7280  222.8980 C   0  0  0  0  0  0  0  0  0  0  0  0
  139.5900   70.7410  223.9680 C   0  0  0  0  0  0  0  0  0  0  0  0
  140.1650   71.1860  225.1210 N   0  0  0  0  0  0  0  0  0  0  0  0
  140.4200   70.3930  226.1710 C   0  0  0  0  0  0  0  0  0  0  0  0
  141.0020   70.8730  227.3240 C   0  0  0  0  0  0  0  0  0  0  0  0
  141.2300   69.9830  228.3580 C   0  0  0  0  0  0  0  0  0  0  0  0
  140.8970   68.6440  228.2810 C   0  0  0  0  0  0  0  0  0  0  0  0
  141.1160   67.7650  229.2900 F   0  0  0  0  0  0  0  0  0  0  0  0
  140.3100   68.1880  227.1030 C   0  0  0  0  0  0  0  0  0  0  0  0
  140.0680   69.0610  226.0430 C   0  0  0  0  0  0  0  0  0  0  0  0
  139.4880   68.6140  224.8770 C   0  0  0  0  0  0  0  0  0  0  0  0
  139.1920   67.3890  224.8290 O   0  0  0  0  0  0  0  0  0  0  0  0
  139.2400   69.4440  223.8220 N   0  0  0  0  0  0  0  0  0  0  0  0
  138.6470   68.9770  222.6020 C   0  0  0  0  0  0  0  0  0  0  0  0
  137.1680   69.0380  222.5090 C   0  0  0  0  0  0  0  0  0  0  0  0
  136.8680   70.1730  221.5170 C   0  0  0  0  0  0  0  0  0  0  0  0
  135.5560   70.8200  221.8290 C   0  0  0  0  0  0  0  0  0  0  0  0
  135.6490   71.5210  223.1570 C   0  0  0  0  0  0  0  0  0  0  0  0
  136.3310   70.6710  224.2120 C   0  0  0  0  0  0  0  0  0  0  0  0
  136.4230   69.2250  223.7860 C   0  0  0  0  0  0  0  0  0  0  0  0
  142.4300   72.6120  221.0480 C   0  0  0  0  0  0  0  0  0  0  0  0
  143.4420   74.2830  218.2600 H   0  0  0  0  0  0  0  0  0  0  0  0
  145.1440   74.6590  218.1050 H   0  0  0  0  0  0  0  0  0  0  0  0
  143.8040   70.6223  218.6448 H   0  0  0  0  0  0  0  0  0  0  0  0
  141.7657   69.3250  219.2240 H   0  0  0  0  0  0  0  0  0  0  0  0
  140.1960   70.1147  220.9291 H   0  0  0  0  0  0  0  0  0  0  0  0
  140.5526   73.4214  222.7855 H   0  0  0  0  0  0  0  0  0  0  0  0
  138.3579   71.8993  222.5104 H   0  0  0  0  0  0  0  0  0  0  0  0
  141.2774   71.9337  227.4195 H   0  0  0  0  0  0  0  0  0  0  0  0
  141.6964   70.3571  229.2813 H   0  0  0  0  0  0  0  0  0  0  0  0
  140.0343   67.1274  227.0079 H   0  0  0  0  0  0  0  0  0  0  0  0
  139.0570   69.5823  221.7801 H   0  0  0  0  0  0  0  0  0  0  0  0
  138.8936   67.9060  222.5547 H   0  0  0  0  0  0  0  0  0  0  0  0
  136.8062   68.0525  222.1806 H   0  0  0  0  0  0  0  0  0  0  0  0
  137.6660   70.9274  221.5805 H   0  0  0  0  0  0  0  0  0  0  0  0
  136.8196   69.7503  220.5026 H   0  0  0  0  0  0  0  0  0  0  0  0
  135.3112   71.5510  221.0443 H   0  0  0  0  0  0  0  0  0  0  0  0
  134.7686   70.0531  221.8722 H   0  0  0  0  0  0  0  0  0  0  0  0
  136.2229   72.4503  223.0267 H   0  0  0  0  0  0  0  0  0  0  0  0
  134.6245   71.7254  223.5013 H   0  0  0  0  0  0  0  0  0  0  0  0
  137.3464   71.0587  224.3813 H   0  0  0  0  0  0  0  0  0  0  0  0
  135.7329   70.7209  225.1339 H   0  0  0  0  0  0  0  0  0  0  0  0
  136.9367   68.6590  224.5771 H   0  0  0  0  0  0  0  0  0  0  0  0
  135.3964   68.8653  223.6225 H   0  0  0  0  0  0  0  0  0  0  0  0
  142.6350   73.5611  221.5650 H   0  0  0  0  0  0  0  0  0  0  0  0
  1  2  1  0
  2  3  2  0
  2  4  2  0
  2  5  1  0
  5  6  2  0
  6  7  1  0
  7  8  2  0
  8  9  1  0
  9 10  1  0
 10 11  2  0
 11 12  1  0
 12 13  2  0
 13 14  1  0
 14 15  2  0
 15 16  1  0
 16 17  2  0
 17 18  1  0
 17 19  1  0
 19 20  2  0
 20 21  1  0
 21 22  2  0
 21 23  1  0
 23 24  1  0
 24 25  1  0
 25 26  1  0
 26 27  1  0
 27 28  1  0
 28 29  1  0
 29 30  1  0
  9 31  2  0
 31  5  1  0
 23 12  1  0
 30 25  1  0
 20 14  1  0
  1 32  1  0
  1 33  1  0
  6 34  1  0
  7 35  1  0
  8 36  1  0
 10 37  1  0
 11 38  1  0
 15 39  1  0
 16 40  1  0
 19 41  1  0
 24 42  1  0
 24 43  1  0
 25 44  1  0
 26 45  1  0
 26 46  1  0
 27 47  1  0
 27 48  1  0
 28 49  1  0
 28 50  1  0
 29 51  1  0
 29 52  1  0
 30 53  1  0
 30 54  1  0
 31 55  1  0
M  END
>  <smiles>  (36) 
NS(=O)(=O)c1cccc(/C=C/c2nc3ccc(F)cc3c(=O)n2CC2CCCCC2)c1

>  <score_type>  (36) 
oracle

>  <origin>  (36) 
autodockgpu

>  <m_score__min__energy>  (36) 
-9.2799999999999994

>  <m_primary>  (36) 
energy

>  <rmsd>  (36) 
10.907407784410054

>  <m_score__min__rmsd>  (36) 
10.907407784410054

>  <meeko>  (36) 
{"free_energy": -8.12, "intermolecular_energy": -10.2, "internal_energy": -1.86, "cluster_size": 31, "cluster_id": 1, "rank_in_cluster": 26}

>  <energy>  (36) 
-8.49

>  <cluster_rmsd>  (36) 
0.0

>  <cluster>  (36) 
4

$$$$

     RDKit          3D

 55 58  0  0  0  0  0  0  0  0999 V2000
  146.3080   73.4220  218.9440 N   0  0  0  0  0  0  0  0  0  0  0  0
  145.3690   72.8480  220.2810 S   0  0  0  0  0  0  0  0  0  0  0  0
  145.1110   71.3810  220.0620 O   0  0  0  0  0  0  0  0  0  0  0  0
  146.1490   72.9610  221.5590 O   0  0  0  0  0  0  0  0  0  0  0  0
  143.8430   73.6990  220.3930 C   0  0  0  0  0  0  0  0  0  0  0  0
  143.7160   74.9180  219.7570 C   0  0  0  0  0  0  0  0  0  0  0  0
  142.5020   75.5550  219.8690 C   0  0  0  0  0  0  0  0  0  0  0  0
  141.4560   75.0080  220.5810 C   0  0  0  0  0  0  0  0  0  0  0  0
  141.5710   73.7930  221.2180 C   0  0  0  0  0  0  0  0  0  0  0  0
  140.4890   73.1790  221.9810 C   0  0  0  0  0  0  0  0  0  0  0  0
  140.1830   71.9060  221.9390 C   0  0  0  0  0  0  0  0  0  0  0  0
  140.0750   71.1250  223.1810 C   0  0  0  0  0  0  0  0  0  0  0  0
  140.6170   71.6650  224.3080 N   0  0  0  0  0  0  0  0  0  0  0  0
  140.5900   71.0580  225.5040 C   0  0  0  0  0  0  0  0  0  0  0  0
  141.1470   71.6300  226.6260 C   0  0  0  0  0  0  0  0  0  0  0  0
  141.0750   70.9330  227.8180 C   0  0  0  0  0  0  0  0  0  0  0  0
  140.4690   69.6960  227.9260 C   0  0  0  0  0  0  0  0  0  0  0  0
  140.3910   69.0050  229.0900 F   0  0  0  0  0  0  0  0  0  0  0  0
  139.9140   69.1420  226.7740 C   0  0  0  0  0  0  0  0  0  0  0  0
  139.9720   69.8220  225.5580 C   0  0  0  0  0  0  0  0  0  0  0  0
  139.4250   69.2780  224.4180 C   0  0  0  0  0  0  0  0  0  0  0  0
  138.8760   68.1480  224.5400 O   0  0  0  0  0  0  0  0  0  0  0  0
  139.4670   69.9170  223.2130 N   0  0  0  0  0  0  0  0  0  0  0  0
  138.9090   69.3460  222.0210 C   0  0  0  0  0  0  0  0  0  0  0  0
  137.4520   69.5270  221.8100 C   0  0  0  0  0  0  0  0  0  0  0  0
  137.3030   70.9170  221.1700 C   0  0  0  0  0  0  0  0  0  0  0  0
  135.9880   71.5320  221.5310 C   0  0  0  0  0  0  0  0  0  0  0  0
  135.9590   71.8130  223.0090 C   0  0  0  0  0  0  0  0  0  0  0  0
  136.4890   70.6530  223.8290 C   0  0  0  0  0  0  0  0  0  0  0  0
  136.5780   69.3880  223.0080 C   0  0  0  0  0  0  0  0  0  0  0  0
  142.7940   73.1520  221.1040 C   0  0  0  0  0  0  0  0  0  0  0  0
  146.9790   74.1190  219.3140 H   0  0  0  0  0  0  0  0  0  0  0  0
  145.6340   73.7940  218.2440 H   0  0  0  0  0  0  0  0  0  0  0  0
  144.5471   75.3592  219.1872 H   0  0  0  0  0  0  0  0  0  0  0  0
  142.3619   76.5285  219.3764 H   0  0  0  0  0  0  0  0  0  0  0  0
  140.5045   75.5567  220.6417 H   0  0  0  0  0  0  0  0  0  0  0  0
  139.8900   73.8291  222.6356 H   0  0  0  0  0  0  0  0  0  0  0  0
  140.0057   71.4181  220.9692 H   0  0  0  0  0  0  0  0  0  0  0  0
  141.6357   72.6142  226.5754 H   0  0  0  0  0  0  0  0  0  0  0  0
  141.5190   71.3824  228.7185 H   0  0  0  0  0  0  0  0  0  0  0  0
  139.4250   68.1579  226.8245 H   0  0  0  0  0  0  0  0  0  0  0  0
  139.4279   69.7965  221.1621 H   0  0  0  0  0  0  0  0  0  0  0  0
  139.0510   68.2605  222.1287 H   0  0  0  0  0  0  0  0  0  0  0  0
  137.0947   68.7027  221.1753 H   0  0  0  0  0  0  0  0  0  0  0  0
  138.1151   71.5672  221.5275 H   0  0  0  0  0  0  0  0  0  0  0  0
  137.3519   70.8078  220.0765 H   0  0  0  0  0  0  0  0  0  0  0  0
  135.8575   72.4725  220.9756 H   0  0  0  0  0  0  0  0  0  0  0  0
  135.1738   70.8392  221.2718 H   0  0  0  0  0  0  0  0  0  0  0  0
  136.5767   72.7003  223.2120 H   0  0  0  0  0  0  0  0  0  0  0  0
  134.9105   71.9766  223.2985 H   0  0  0  0  0  0  0  0  0  0  0  0
  137.4919   70.9080  224.2020 H   0  0  0  0  0  0  0  0  0  0  0  0
  135.7940   70.4745  224.6628 H   0  0  0  0  0  0  0  0  0  0  0  0
  136.9812   68.5860  223.6439 H   0  0  0  0  0  0  0  0  0  0  0  0
  135.5639   69.1594  222.6484 H   0  0  0  0  0  0  0  0  0  0  0  0
  142.9332   72.1776  221.5950 H   0  0  0  0  0  0  0  0  0  0  0  0
  1  2  1  0
  2  3  2  0
  2  4  2  0
  2  5  1  0
  5  6  2  0
  6  7  1  0
  7  8  2  0
  8  9  1  0
  9 10  1  0
 10 11  2  0
 11 12  1  0
 12 13  2  0
 13 14  1  0
 14 15  2  0
 15 16  1  0
 16 17  2  0
 17 18  1  0
 17 19  1  0
 19 20  2  0
 20 21  1  0
 21 22  2  0
 21 23  1  0
 23 24  1  0
 24 25  1  0
 25 26  1  0
 26 27  1  0
 27 28  1  0
 28 29  1  0
 29 30  1  0
  9 31  2  0
 31  5  1  0
 23 12  1  0
 30 25  1  0
 20 14  1  0
  1 32  1  0
  1 33  1  0
  6 34  1  0
  7 35  1  0
  8 36  1  0
 10 37  1  0
 11 38  1  0
 15 39  1  0
 16 40  1  0
 19 41  1  0
 24 42  1  0
 24 43  1  0
 25 44  1  0
 26 45  1  0
 26 46  1  0
 27 47  1  0
 27 48  1  0
 28 49  1  0
 28 50  1  0
 29 51  1  0
 29 52  1  0
 30 53  1  0
 30 54  1  0
 31 55  1  0
M  END
>  <smiles>  (37) 
NS(=O)(=O)c1cccc(/C=C/c2nc3ccc(F)cc3c(=O)n2CC2CCCCC2)c1

>  <score_type>  (37) 
oracle

>  <origin>  (37) 
autodockgpu

>  <m_score__min__energy>  (37) 
-9.2799999999999994

>  <m_primary>  (37) 
energy

>  <rmsd>  (37) 
10.107245160924379

>  <m_score__min__rmsd>  (37) 
10.107245160924379

>  <meeko>  (37) 
{"free_energy": -8.67, "intermolecular_energy": -10.76, "internal_energy": -1.63, "cluster_size": 31, "cluster_id": 1, "rank_in_cluster": 11}

>  <energy>  (37) 
-8.28

>  <cluster_rmsd>  (37) 
0.85

>  <cluster>  (37) 
4

$$$$

     RDKit          3D

 55 58  0  0  0  0  0  0  0  0999 V2000
  146.1210   73.5470  218.3220 N   0  0  0  0  0  0  0  0  0  0  0  0
  145.7060   72.9450  219.8920 S   0  0  0  0  0  0  0  0  0  0  0  0
  145.8320   71.4460  219.8550 O   0  0  0  0  0  0  0  0  0  0  0  0
  146.6870   73.4330  220.9180 O   0  0  0  0  0  0  0  0  0  0  0  0
  144.0670   73.3840  220.3230 C   0  0  0  0  0  0  0  0  0  0  0  0
  143.6660   74.6950  220.1570 C   0  0  0  0  0  0  0  0  0  0  0  0
  142.3720   75.0000  220.5080 C   0  0  0  0  0  0  0  0  0  0  0  0
  141.5080   74.0460  221.0030 C   0  0  0  0  0  0  0  0  0  0  0  0
  141.8970   72.7360  221.1730 C   0  0  0  0  0  0  0  0  0  0  0  0
  141.0150   71.6970  221.6930 C   0  0  0  0  0  0  0  0  0  0  0  0
  140.1440   71.8780  222.6550 C   0  0  0  0  0  0  0  0  0  0  0  0
  140.0810   70.9440  223.7900 C   0  0  0  0  0  0  0  0  0  0  0  0
  140.5710   71.3790  224.9850 N   0  0  0  0  0  0  0  0  0  0  0  0
  140.5760   70.6290  226.0960 C   0  0  0  0  0  0  0  0  0  0  0  0
  141.0770   71.0970  227.2900 C   0  0  0  0  0  0  0  0  0  0  0  0
  141.0440   70.2550  228.3870 C   0  0  0  0  0  0  0  0  0  0  0  0
  140.5300   68.9740  228.3310 C   0  0  0  0  0  0  0  0  0  0  0  0
  140.4920   68.1410  229.4010 F   0  0  0  0  0  0  0  0  0  0  0  0
  140.0300   68.5270  227.1100 C   0  0  0  0  0  0  0  0  0  0  0  0
  140.0500   69.3540  225.9870 C   0  0  0  0  0  0  0  0  0  0  0  0
  139.5570   68.9170  224.7780 C   0  0  0  0  0  0  0  0  0  0  0  0
  139.0910   67.7440  224.7510 O   0  0  0  0  0  0  0  0  0  0  0  0
  139.5640   69.7010  223.6620 N   0  0  0  0  0  0  0  0  0  0  0  0
  139.0620   69.2420  222.3980 C   0  0  0  0  0  0  0  0  0  0  0  0
  137.6020   69.3720  222.1700 C   0  0  0  0  0  0  0  0  0  0  0  0
  137.4190   70.7220  221.4590 C   0  0  0  0  0  0  0  0  0  0  0  0
  136.0850   71.3180  221.7810 C   0  0  0  0  0  0  0  0  0  0  0  0
  136.0380   71.6740  223.2430 C   0  0  0  0  0  0  0  0  0  0  0  0
  136.5950   70.5730  224.1240 C   0  0  0  0  0  0  0  0  0  0  0  0
  136.7240   69.2700  223.3700 C   0  0  0  0  0  0  0  0  0  0  0  0
  143.2010   72.4310  220.8180 C   0  0  0  0  0  0  0  0  0  0  0  0
  147.0310   74.0340  218.4070 H   0  0  0  0  0  0  0  0  0  0  0  0
  145.3300   74.1480  218.0150 H   0  0  0  0  0  0  0  0  0  0  0  0
  144.3504   75.4602  219.7621 H   0  0  0  0  0  0  0  0  0  0  0  0
  142.0160   76.0341  220.3906 H   0  0  0  0  0  0  0  0  0  0  0  0
  140.4816   74.3390  221.2689 H   0  0  0  0  0  0  0  0  0  0  0  0
  141.0859   70.6938  221.2474 H   0  0  0  0  0  0  0  0  0  0  0  0
  139.4549   72.7344  222.6137 H   0  0  0  0  0  0  0  0  0  0  0  0
  141.4921   72.1126  227.3694 H   0  0  0  0  0  0  0  0  0  0  0  0
  141.4439   70.6209  229.3442 H   0  0  0  0  0  0  0  0  0  0  0  0
  139.6151   67.5113  227.0307 H   0  0  0  0  0  0  0  0  0  0  0  0
  139.5739   69.8133  221.6096 H   0  0  0  0  0  0  0  0  0  0  0  0
  139.2595   68.1599  222.3862 H   0  0  0  0  0  0  0  0  0  0  0  0
  137.2716   68.5072  221.5760 H   0  0  0  0  0  0  0  0  0  0  0  0
  138.2104   71.4120  221.7869 H   0  0  0  0  0  0  0  0  0  0  0  0
  137.4780   70.5582  220.3729 H   0  0  0  0  0  0  0  0  0  0  0  0
  135.9324   72.2247  221.1771 H   0  0  0  0  0  0  0  0  0  0  0  0
  135.2921   70.5902  221.5537 H   0  0  0  0  0  0  0  0  0  0  0  0
  136.6291   72.5878  223.4033 H   0  0  0  0  0  0  0  0  0  0  0  0
  134.9834   71.8227  223.5183 H   0  0  0  0  0  0  0  0  0  0  0  0
  137.5882   70.8749  224.4879 H   0  0  0  0  0  0  0  0  0  0  0  0
  135.9001   70.4183  224.9626 H   0  0  0  0  0  0  0  0  0  0  0  0
  137.1452   68.5134  224.0484 H   0  0  0  0  0  0  0  0  0  0  0  0
  135.7189   68.9945  223.0179 H   0  0  0  0  0  0  0  0  0  0  0  0
  143.5569   71.3967  220.9344 H   0  0  0  0  0  0  0  0  0  0  0  0
  1  2  1  0
  2  3  2  0
  2  4  2  0
  2  5  1  0
  5  6  2  0
  6  7  1  0
  7  8  2  0
  8  9  1  0
  9 10  1  0
 10 11  2  0
 11 12  1  0
 12 13  2  0
 13 14  1  0
 14 15  2  0
 15 16  1  0
 16 17  2  0
 17 18  1  0
 17 19  1  0
 19 20  2  0
 20 21  1  0
 21 22  2  0
 21 23  1  0
 23 24  1  0
 24 25  1  0
 25 26  1  0
 26 27  1  0
 27 28  1  0
 28 29  1  0
 29 30  1  0
  9 31  2  0
 31  5  1  0
 23 12  1  0
 30 25  1  0
 20 14  1  0
  1 32  1  0
  1 33  1  0
  6 34  1  0
  7 35  1  0
  8 36  1  0
 10 37  1  0
 11 38  1  0
 15 39  1  0
 16 40  1  0
 19 41  1  0
 24 42  1  0
 24 43  1  0
 25 44  1  0
 26 45  1  0
 26 46  1  0
 27 47  1  0
 27 48  1  0
 28 49  1  0
 28 50  1  0
 29 51  1  0
 29 52  1  0
 30 53  1  0
 30 54  1  0
 31 55  1  0
M  END
>  <smiles>  (38) 
NS(=O)(=O)c1cccc(/C=C/c2nc3ccc(F)cc3c(=O)n2CC2CCCCC2)c1

>  <score_type>  (38) 
oracle

>  <origin>  (38) 
autodockgpu

>  <m_score__min__energy>  (38) 
-9.2799999999999994

>  <m_primary>  (38) 
energy

>  <rmsd>  (38) 
10.556351936389728

>  <m_score__min__rmsd>  (38) 
10.556351936389728

>  <meeko>  (38) 
{"free_energy": -9.2, "intermolecular_energy": -11.29, "internal_energy": -1.57, "cluster_size": 31, "cluster_id": 1, "rank_in_cluster": 2}

>  <energy>  (38) 
-7.21

>  <cluster_rmsd>  (38) 
1.97

>  <cluster>  (38) 
4

$$$$

     RDKit          3D

 55 58  0  0  0  0  0  0  0  0999 V2000
  146.0320   71.2910  219.7980 N   0  0  0  0  0  0  0  0  0  0  0  0
  145.7400   72.9860  219.6020 S   0  0  0  0  0  0  0  0  0  0  0  0
  146.7640   73.7240  220.4210 O   0  0  0  0  0  0  0  0  0  0  0  0
  145.9550   73.3960  218.1740 O   0  0  0  0  0  0  0  0  0  0  0  0
  144.1330   73.4180  220.1490 C   0  0  0  0  0  0  0  0  0  0  0  0
  143.7320   74.7360  220.0530 C   0  0  0  0  0  0  0  0  0  0  0  0
  142.4640   75.0340  220.4940 C   0  0  0  0  0  0  0  0  0  0  0  0
  141.6260   74.0680  221.0080 C   0  0  0  0  0  0  0  0  0  0  0  0
  142.0150   72.7500  221.1080 C   0  0  0  0  0  0  0  0  0  0  0  0
  141.1600   71.6980  221.6460 C   0  0  0  0  0  0  0  0  0  0  0  0
  140.2580   71.8810  222.5780 C   0  0  0  0  0  0  0  0  0  0  0  0
  140.1660   70.9560  223.7190 C   0  0  0  0  0  0  0  0  0  0  0  0
  140.6620   71.3860  224.9130 N   0  0  0  0  0  0  0  0  0  0  0  0
  140.6430   70.6440  226.0300 C   0  0  0  0  0  0  0  0  0  0  0  0
  141.1520   71.1070  227.2230 C   0  0  0  0  0  0  0  0  0  0  0  0
  141.0930   70.2730  228.3250 C   0  0  0  0  0  0  0  0  0  0  0  0
  140.5460   69.0050  228.2750 C   0  0  0  0  0  0  0  0  0  0  0  0
  140.4820   68.1810  229.3500 F   0  0  0  0  0  0  0  0  0  0  0  0
  140.0390   68.5640  227.0550 C   0  0  0  0  0  0  0  0  0  0  0  0
  140.0850   69.3820  225.9260 C   0  0  0  0  0  0  0  0  0  0  0  0
  139.5860   68.9500  224.7190 C   0  0  0  0  0  0  0  0  0  0  0  0
  139.0900   67.7900  224.6970 O   0  0  0  0  0  0  0  0  0  0  0  0
  139.6170   69.7260  223.5970 N   0  0  0  0  0  0  0  0  0  0  0  0
  139.1090   69.2720  222.3340 C   0  0  0  0  0  0  0  0  0  0  0  0
  137.6510   69.4230  222.1060 C   0  0  0  0  0  0  0  0  0  0  0  0
  137.4650   70.8610  221.5950 C   0  0  0  0  0  0  0  0  0  0  0  0
  136.1220   71.3940  221.9810 C   0  0  0  0  0  0  0  0  0  0  0  0
  136.0520   71.5340  223.4770 C   0  0  0  0  0  0  0  0  0  0  0  0
  136.6070   70.3210  224.1980 C   0  0  0  0  0  0  0  0  0  0  0  0
  136.7580   69.1420  223.2650 C   0  0  0  0  0  0  0  0  0  0  0  0
  143.2930   72.4510  220.6640 C   0  0  0  0  0  0  0  0  0  0  0  0
  145.1360   70.8530  220.0790 H   0  0  0  0  0  0  0  0  0  0  0  0
  146.8000   71.1990  220.4930 H   0  0  0  0  0  0  0  0  0  0  0  0
  144.3959   75.5113  219.6429 H   0  0  0  0  0  0  0  0  0  0  0  0
  142.1083   76.0732  220.4348 H   0  0  0  0  0  0  0  0  0  0  0  0
  140.6203   74.3568  221.3473 H   0  0  0  0  0  0  0  0  0  0  0  0
  141.2808   70.6821  221.2417 H   0  0  0  0  0  0  0  0  0  0  0  0
  139.5645   72.7319  222.5074 H   0  0  0  0  0  0  0  0  0  0  0  0
  141.5931   72.1119  227.2975 H   0  0  0  0  0  0  0  0  0  0  0  0
  141.4986   70.6344  229.2815 H   0  0  0  0  0  0  0  0  0  0  0  0
  139.5973   67.5593  226.9809 H   0  0  0  0  0  0  0  0  0  0  0  0
  139.6292   69.8343  221.5446 H   0  0  0  0  0  0  0  0  0  0  0  0
  139.2910   68.1872  222.3238 H   0  0  0  0  0  0  0  0  0  0  0  0
  137.3367   68.6507  221.3885 H   0  0  0  0  0  0  0  0  0  0  0  0
  138.2458   71.5019  222.0304 H   0  0  0  0  0  0  0  0  0  0  0  0
  137.5398   70.8569  220.4976 H   0  0  0  0  0  0  0  0  0  0  0  0
  135.9689   72.3775  221.5127 H   0  0  0  0  0  0  0  0  0  0  0  0
  135.3392   70.7007  221.6395 H   0  0  0  0  0  0  0  0  0  0  0  0
  136.6325   72.4191  223.7765 H   0  0  0  0  0  0  0  0  0  0  0  0
  134.9924   71.6336  223.7552 H   0  0  0  0  0  0  0  0  0  0  0  0
  137.5924   70.5740  224.6164 H   0  0  0  0  0  0  0  0  0  0  0  0
  135.9025   70.0416  224.9952 H   0  0  0  0  0  0  0  0  0  0  0  0
  137.1767   68.2980  223.8327 H   0  0  0  0  0  0  0  0  0  0  0  0
  135.7604   68.9135  222.8619 H   0  0  0  0  0  0  0  0  0  0  0  0
  143.6490   71.4119  220.7236 H   0  0  0  0  0  0  0  0  0  0  0  0
  1  2  1  0
  2  3  2  0
  2  4  2  0
  2  5  1  0
  5  6  2  0
  6  7  1  0
  7  8  2  0
  8  9  1  0
  9 10  1  0
 10 11  2  0
 11 12  1  0
 12 13  2  0
 13 14  1  0
 14 15  2  0
 15 16  1  0
 16 17  2  0
 17 18  1  0
 17 19  1  0
 19 20  2  0
 20 21  1  0
 21 22  2  0
 21 23  1  0
 23 24  1  0
 24 25  1  0
 25 26  1  0
 26 27  1  0
 27 28  1  0
 28 29  1  0
 29 30  1  0
  9 31  2  0
 31  5  1  0
 23 12  1  0
 30 25  1  0
 20 14  1  0
  1 32  1  0
  1 33  1  0
  6 34  1  0
  7 35  1  0
  8 36  1  0
 10 37  1  0
 11 38  1  0
 15 39  1  0
 16 40  1  0
 19 41  1  0
 24 42  1  0
 24 43  1  0
 25 44  1  0
 26 45  1  0
 26 46  1  0
 27 47  1  0
 27 48  1  0
 28 49  1  0
 28 50  1  0
 29 51  1  0
 29 52  1  0
 30 53  1  0
 30 54  1  0
 31 55  1  0
M  END
>  <smiles>  (39) 
NS(=O)(=O)c1cccc(/C=C/c2nc3ccc(F)cc3c(=O)n2CC2CCCCC2)c1

>  <score_type>  (39) 
oracle

>  <origin>  (39) 
autodockgpu

>  <m_score__min__energy>  (39) 
-9.2799999999999994

>  <m_primary>  (39) 
energy

>  <rmsd>  (39) 
10.539608304552837

>  <m_score__min__rmsd>  (39) 
10.539608304552837

>  <meeko>  (39) 
{"free_energy": -8.94, "intermolecular_energy": -11.03, "internal_energy": -1.51, "cluster_size": 31, "cluster_id": 1, "rank_in_cluster": 7}

>  <energy>  (39) 
-8.13

>  <cluster_rmsd>  (39) 
0.0

>  <cluster>  (39) 
5

$$$$

     RDKit          3D

 55 58  0  0  0  0  0  0  0  0999 V2000
  146.0060   73.6500  218.0630 N   0  0  0  0  0  0  0  0  0  0  0  0
  145.7290   73.1220  219.6890 S   0  0  0  0  0  0  0  0  0  0  0  0
  145.9640   71.6360  219.7330 O   0  0  0  0  0  0  0  0  0  0  0  0
  146.7290   73.7430  220.6210 O   0  0  0  0  0  0  0  0  0  0  0  0
  144.0900   73.4700  220.1950 C   0  0  0  0  0  0  0  0  0  0  0  0
  143.3020   72.4300  220.6500 C   0  0  0  0  0  0  0  0  0  0  0  0
  142.0210   72.7440  221.0380 C   0  0  0  0  0  0  0  0  0  0  0  0
  141.5370   74.0340  220.9800 C   0  0  0  0  0  0  0  0  0  0  0  0
  142.3140   75.0780  220.5300 C   0  0  0  0  0  0  0  0  0  0  0  0
  141.8420   76.4560  220.4530 C   0  0  0  0  0  0  0  0  0  0  0  0
  140.6460   76.8080  220.0490 C   0  0  0  0  0  0  0  0  0  0  0  0
  139.4960   76.7230  220.9620 C   0  0  0  0  0  0  0  0  0  0  0  0
  138.9150   75.5010  221.1240 N   0  0  0  0  0  0  0  0  0  0  0  0
  137.8610   75.2860  221.9240 C   0  0  0  0  0  0  0  0  0  0  0  0
  137.2970   74.0370  222.0670 C   0  0  0  0  0  0  0  0  0  0  0  0
  136.2100   73.9060  222.9130 C   0  0  0  0  0  0  0  0  0  0  0  0
  135.6750   74.9700  223.6140 C   0  0  0  0  0  0  0  0  0  0  0  0
  134.6110   74.8510  224.4460 F   0  0  0  0  0  0  0  0  0  0  0  0
  136.2670   76.2200  223.4500 C   0  0  0  0  0  0  0  0  0  0  0  0
  137.3640   76.3830  222.6040 C   0  0  0  0  0  0  0  0  0  0  0  0
  137.9510   77.6170  222.4380 C   0  0  0  0  0  0  0  0  0  0  0  0
  137.4470   78.5720  223.0900 O   0  0  0  0  0  0  0  0  0  0  0  0
  139.0250   77.8080  221.6170 N   0  0  0  0  0  0  0  0  0  0  0  0
  139.6300   79.0960  221.4330 C   0  0  0  0  0  0  0  0  0  0  0  0
  140.0470   79.8210  222.6580 C   0  0  0  0  0  0  0  0  0  0  0  0
  140.9640   80.9540  222.1690 C   0  0  0  0  0  0  0  0  0  0  0  0
  141.9810   81.3020  223.2100 C   0  0  0  0  0  0  0  0  0  0  0  0
  142.9180   80.1400  223.4000 C   0  0  0  0  0  0  0  0  0  0  0  0
  142.1850   78.8160  223.4890 C   0  0  0  0  0  0  0  0  0  0  0  0
  140.7060   79.0150  223.7240 C   0  0  0  0  0  0  0  0  0  0  0  0
  143.6050   74.7610  220.1390 C   0  0  0  0  0  0  0  0  0  0  0  0
  146.9480   74.0800  218.0330 H   0  0  0  0  0  0  0  0  0  0  0  0
  145.2240   74.2930  217.8210 H   0  0  0  0  0  0  0  0  0  0  0  0
  143.6820   71.3989  220.6994 H   0  0  0  0  0  0  0  0  0  0  0  0
  141.3629   71.9428  221.4054 H   0  0  0  0  0  0  0  0  0  0  0  0
  140.5042   74.2340  221.3013 H   0  0  0  0  0  0  0  0  0  0  0  0
  142.5369   77.2537  220.7544 H   0  0  0  0  0  0  0  0  0  0  0  0
  140.5012   77.1694  219.0202 H   0  0  0  0  0  0  0  0  0  0  0  0
  137.6994   73.1690  221.5242 H   0  0  0  0  0  0  0  0  0  0  0  0
  135.7523   72.9129  223.0326 H   0  0  0  0  0  0  0  0  0  0  0  0
  135.8652   77.0879  223.9934 H   0  0  0  0  0  0  0  0  0  0  0  0
  140.5245   78.9571  220.8080 H   0  0  0  0  0  0  0  0  0  0  0  0
  138.8447   79.7208  220.9825 H   0  0  0  0  0  0  0  0  0  0  0  0
  139.1395   80.1717  223.1713 H   0  0  0  0  0  0  0  0  0  0  0  0
  141.4812   80.6297  221.2539 H   0  0  0  0  0  0  0  0  0  0  0  0
  140.3485   81.8430  221.9667 H   0  0  0  0  0  0  0  0  0  0  0  0
  142.5517   82.1846  222.8853 H   0  0  0  0  0  0  0  0  0  0  0  0
  141.4735   81.5245  224.1602 H   0  0  0  0  0  0  0  0  0  0  0  0
  143.6123   80.1029  222.5476 H   0  0  0  0  0  0  0  0  0  0  0  0
  143.4531   80.2919  224.3490 H   0  0  0  0  0  0  0  0  0  0  0  0
  142.3261   78.2656  222.5471 H   0  0  0  0  0  0  0  0  0  0  0  0
  142.5959   78.2512  224.3388 H   0  0  0  0  0  0  0  0  0  0  0  0
  140.2224   78.0279  223.7657 H   0  0  0  0  0  0  0  0  0  0  0  0
  140.5959   79.5684  224.6683 H   0  0  0  0  0  0  0  0  0  0  0  0
  144.2633   75.5626  219.7729 H   0  0  0  0  0  0  0  0  0  0  0  0
  1  2  1  0
  2  3  2  0
  2  4  2  0
  2  5  1  0
  5  6  2  0
  6  7  1  0
  7  8  2  0
  8  9  1  0
  9 10  1  0
 10 11  2  0
 11 12  1  0
 12 13  2  0
 13 14  1  0
 14 15  2  0
 15 16  1  0
 16 17  2  0
 17 18  1  0
 17 19  1  0
 19 20  2  0
 20 21  1  0
 21 22  2  0
 21 23  1  0
 23 24  1  0
 24 25  1  0
 25 26  1  0
 26 27  1  0
 27 28  1  0
 28 29  1  0
 29 30  1  0
  9 31  2  0
 31  5  1  0
 23 12  1  0
 30 25  1  0
 20 14  1  0
  1 32  1  0
  1 33  1  0
  6 34  1  0
  7 35  1  0
  8 36  1  0
 10 37  1  0
 11 38  1  0
 15 39  1  0
 16 40  1  0
 19 41  1  0
 24 42  1  0
 24 43  1  0
 25 44  1  0
 26 45  1  0
 26 46  1  0
 27 47  1  0
 27 48  1  0
 28 49  1  0
 28 50  1  0
 29 51  1  0
 29 52  1  0
 30 53  1  0
 30 54  1  0
 31 55  1  0
M  END
>  <smiles>  (40) 
NS(=O)(=O)c1cccc(/C=C/c2nc3ccc(F)cc3c(=O)n2CC2CCCCC2)c1

>  <score_type>  (40) 
oracle

>  <origin>  (40) 
autodockgpu

>  <m_score__min__energy>  (40) 
-9.2799999999999994

>  <m_primary>  (40) 
energy

>  <rmsd>  (40) 
7.064496269598208

>  <m_score__min__rmsd>  (40) 
7.064496269598208

>  <meeko>  (40) 
{"free_energy": -8.13, "intermolecular_energy": -10.22, "internal_energy": -1.63, "cluster_size": 3, "cluster_id": 5, "rank_in_cluster": 1}

>  <energy>  (40) 
-7.91

>  <cluster_rmsd>  (40) 
0.16

>  <cluster>  (40) 
5

$$$$

     RDKit          3D

 55 58  0  0  0  0  0  0  0  0999 V2000
  143.6970   76.5470  219.2290 N   0  0  0  0  0  0  0  0  0  0  0  0
  143.3260   75.0090  219.9320 S   0  0  0  0  0  0  0  0  0  0  0  0
  143.1710   74.0180  218.8100 O   0  0  0  0  0  0  0  0  0  0  0  0
  144.4710   74.5270  220.7770 O   0  0  0  0  0  0  0  0  0  0  0  0
  141.8420   75.0800  220.8590 C   0  0  0  0  0  0  0  0  0  0  0  0
  141.3430   76.3160  221.2170 C   0  0  0  0  0  0  0  0  0  0  0  0
  140.1760   76.3300  221.9450 C   0  0  0  0  0  0  0  0  0  0  0  0
  139.5280   75.1660  222.3030 C   0  0  0  0  0  0  0  0  0  0  0  0
  140.0160   73.9280  221.9510 C   0  0  0  0  0  0  0  0  0  0  0  0
  139.3630   72.6740  222.3090 C   0  0  0  0  0  0  0  0  0  0  0  0
  139.9640   71.5110  222.3550 C   0  0  0  0  0  0  0  0  0  0  0  0
  139.9220   70.6970  223.5800 C   0  0  0  0  0  0  0  0  0  0  0  0
  140.4650   71.2370  224.7070 N   0  0  0  0  0  0  0  0  0  0  0  0
  140.4930   70.6020  225.8880 C   0  0  0  0  0  0  0  0  0  0  0  0
  141.0490   71.1740  227.0110 C   0  0  0  0  0  0  0  0  0  0  0  0
  141.0360   70.4470  228.1880 C   0  0  0  0  0  0  0  0  0  0  0  0
  140.4910   69.1810  228.2790 C   0  0  0  0  0  0  0  0  0  0  0  0
  140.4730   68.4620  229.4280 F   0  0  0  0  0  0  0  0  0  0  0  0
  139.9360   68.6290  227.1270 C   0  0  0  0  0  0  0  0  0  0  0  0
  139.9340   69.3370  225.9260 C   0  0  0  0  0  0  0  0  0  0  0  0
  139.3870   68.7950  224.7860 C   0  0  0  0  0  0  0  0  0  0  0  0
  138.8930   67.6380  224.8940 O   0  0  0  0  0  0  0  0  0  0  0  0
  139.3710   69.4630  223.5960 N   0  0  0  0  0  0  0  0  0  0  0  0
  138.8130   68.8930  222.4030 C   0  0  0  0  0  0  0  0  0  0  0  0
  137.3520   69.0590  222.2020 C   0  0  0  0  0  0  0  0  0  0  0  0
  137.2060   70.2390  221.2270 C   0  0  0  0  0  0  0  0  0  0  0  0
  135.9210   70.9670  221.4610 C   0  0  0  0  0  0  0  0  0  0  0  0
  135.9580   71.6240  222.8140 C   0  0  0  0  0  0  0  0  0  0  0  0
  136.4980   70.7010  223.8890 C   0  0  0  0  0  0  0  0  0  0  0  0
  136.5250   69.2630  223.4250 C   0  0  0  0  0  0  0  0  0  0  0  0
  141.1920   73.9160  221.2170 C   0  0  0  0  0  0  0  0  0  0  0  0
  144.4360   76.3930  218.5200 H   0  0  0  0  0  0  0  0  0  0  0  0
  143.9670   77.1760  220.0120 H   0  0  0  0  0  0  0  0  0  0  0  0
  141.8551   77.2472  220.9331 H   0  0  0  0  0  0  0  0  0  0  0  0
  139.7476   77.2961  222.2502 H   0  0  0  0  0  0  0  0  0  0  0  0
  138.5968   75.2288  222.8851 H   0  0  0  0  0  0  0  0  0  0  0  0
  138.2920   72.7071  222.5575 H   0  0  0  0  0  0  0  0  0  0  0  0
  140.5041   71.1402  221.4713 H   0  0  0  0  0  0  0  0  0  0  0  0
  141.4909   72.1806  226.9730 H   0  0  0  0  0  0  0  0  0  0  0  0
  141.4784   70.8961  229.0895 H   0  0  0  0  0  0  0  0  0  0  0  0
  139.4940   67.6224  227.1652 H   0  0  0  0  0  0  0  0  0  0  0  0
  139.3217   69.3550  221.5440 H   0  0  0  0  0  0  0  0  0  0  0  0
  138.9685   67.8086  222.5022 H   0  0  0  0  0  0  0  0  0  0  0  0
  136.9513   68.1099  221.8164 H   0  0  0  0  0  0  0  0  0  0  0  0
  138.0459   70.9340  221.3740 H   0  0  0  0  0  0  0  0  0  0  0  0
  137.2070   69.8482  220.1988 H   0  0  0  0  0  0  0  0  0  0  0  0
  135.7871   71.7341  220.6841 H   0  0  0  0  0  0  0  0  0  0  0  0
  135.0831   70.2555  221.4209 H   0  0  0  0  0  0  0  0  0  0  0  0
  136.6011   72.5146  222.7570 H   0  0  0  0  0  0  0  0  0  0  0  0
  134.9260   71.8896  223.0867 H   0  0  0  0  0  0  0  0  0  0  0  0
  137.5212   71.0125  224.1461 H   0  0  0  0  0  0  0  0  0  0  0  0
  135.8355   70.7678  224.7646 H   0  0  0  0  0  0  0  0  0  0  0  0
  136.9370   68.6418  224.2339 H   0  0  0  0  0  0  0  0  0  0  0  0
  135.4922   68.9799  223.1737 H   0  0  0  0  0  0  0  0  0  0  0  0
  141.6200   72.9501  220.9107 H   0  0  0  0  0  0  0  0  0  0  0  0
  1  2  1  0
  2  3  2  0
  2  4  2  0
  2  5  1  0
  5  6  2  0
  6  7  1  0
  7  8  2  0
  8  9  1  0
  9 10  1  0
 10 11  2  0
 11 12  1  0
 12 13  2  0
 13 14  1  0
 14 15  2  0
 15 16  1  0
 16 17  2  0
 17 18  1  0
 17 19  1  0
 19 20  2  0
 20 21  1  0
 21 22  2  0
 21 23  1  0
 23 24  1  0
 24 25  1  0
 25 26  1  0
 26 27  1  0
 27 28  1  0
 28 29  1  0
 29 30  1  0
  9 31  2  0
 31  5  1  0
 23 12  1  0
 30 25  1  0
 20 14  1  0
  1 32  1  0
  1 33  1  0
  6 34  1  0
  7 35  1  0
  8 36  1  0
 10 37  1  0
 11 38  1  0
 15 39  1  0
 16 40  1  0
 19 41  1  0
 24 42  1  0
 24 43  1  0
 25 44  1  0
 26 45  1  0
 26 46  1  0
 27 47  1  0
 27 48  1  0
 28 49  1  0
 28 50  1  0
 29 51  1  0
 29 52  1  0
 30 53  1  0
 30 54  1  0
 31 55  1  0
M  END
>  <smiles>  (41) 
NS(=O)(=O)c1cccc(/C=C/c2nc3ccc(F)cc3c(=O)n2CC2CCCCC2)c1

>  <score_type>  (41) 
oracle

>  <origin>  (41) 
autodockgpu

>  <m_score__min__energy>  (41) 
-9.2799999999999994

>  <m_primary>  (41) 
energy

>  <rmsd>  (41) 
10.590893637432636

>  <m_score__min__rmsd>  (41) 
10.590893637432636

>  <meeko>  (41) 
{"free_energy": -8.13, "intermolecular_energy": -10.22, "internal_energy": -1.81, "cluster_size": 31, "cluster_id": 1, "rank_in_cluster": 24}

>  <energy>  (41) 
-7.61

>  <cluster_rmsd>  (41) 
0.46

>  <cluster>  (41) 
5

$$$$

     RDKit          3D

 55 58  0  0  0  0  0  0  0  0999 V2000
  143.7000   76.7450  219.0450 N   0  0  0  0  0  0  0  0  0  0  0  0
  143.7020   75.1390  219.6930 S   0  0  0  0  0  0  0  0  0  0  0  0
  143.8120   74.1800  218.5380 O   0  0  0  0  0  0  0  0  0  0  0  0
  144.9150   74.9190  220.5510 O   0  0  0  0  0  0  0  0  0  0  0  0
  142.2300   74.8160  220.5840 C   0  0  0  0  0  0  0  0  0  0  0  0
  141.9320   73.5090  220.9190 C   0  0  0  0  0  0  0  0  0  0  0  0
  140.7670   73.2970  221.6180 C   0  0  0  0  0  0  0  0  0  0  0  0
  139.9300   74.3340  221.9720 C   0  0  0  0  0  0  0  0  0  0  0  0
  140.2180   75.6400  221.6440 C   0  0  0  0  0  0  0  0  0  0  0  0
  139.3600   76.7650  221.9980 C   0  0  0  0  0  0  0  0  0  0  0  0
  138.8470   77.6060  221.1350 C   0  0  0  0  0  0  0  0  0  0  0  0
  139.6860   78.6430  220.5140 C   0  0  0  0  0  0  0  0  0  0  0  0
  140.1600   78.3950  219.2610 N   0  0  0  0  0  0  0  0  0  0  0  0
  140.9360   79.2530  218.5830 C   0  0  0  0  0  0  0  0  0  0  0  0
  141.4000   78.9740  217.3170 C   0  0  0  0  0  0  0  0  0  0  0  0
  142.1960   79.9160  216.6910 C   0  0  0  0  0  0  0  0  0  0  0  0
  142.5390   81.1170  217.2820 C   0  0  0  0  0  0  0  0  0  0  0  0
  143.3180   82.0470  216.6770 F   0  0  0  0  0  0  0  0  0  0  0  0
  142.0560   81.3710  218.5630 C   0  0  0  0  0  0  0  0  0  0  0  0
  141.2510   80.4400  219.2190 C   0  0  0  0  0  0  0  0  0  0  0  0
  140.7710   80.6880  220.4850 C   0  0  0  0  0  0  0  0  0  0  0  0
  141.0960   81.7910  221.0050 O   0  0  0  0  0  0  0  0  0  0  0  0
  139.9830   79.7970  221.1530 N   0  0  0  0  0  0  0  0  0  0  0  0
  139.4930   80.0480  222.4780 C   0  0  0  0  0  0  0  0  0  0  0  0
  140.4640   79.9040  223.5900 C   0  0  0  0  0  0  0  0  0  0  0  0
  141.1690   81.2670  223.6940 C   0  0  0  0  0  0  0  0  0  0  0  0
  142.5640   81.1070  224.2090 C   0  0  0  0  0  0  0  0  0  0  0  0
  143.3860   80.3560  223.1960 C   0  0  0  0  0  0  0  0  0  0  0  0
  142.6550   79.1500  222.6390 C   0  0  0  0  0  0  0  0  0  0  0  0
  141.4510   78.7940  223.4790 C   0  0  0  0  0  0  0  0  0  0  0  0
  141.3920   75.8530  220.9400 C   0  0  0  0  0  0  0  0  0  0  0  0
  144.3960   76.7700  218.2780 H   0  0  0  0  0  0  0  0  0  0  0  0
  143.9010   77.3870  219.8390 H   0  0  0  0  0  0  0  0  0  0  0  0
  142.5955   72.6773  220.6397 H   0  0  0  0  0  0  0  0  0  0  0  0
  140.4948   72.2701  221.9031 H   0  0  0  0  0  0  0  0  0  0  0  0
  139.0087   74.1124  222.5307 H   0  0  0  0  0  0  0  0  0  0  0  0
  139.1279   76.9175  223.0624 H   0  0  0  0  0  0  0  0  0  0  0  0
  137.7810   77.5366  220.8725 H   0  0  0  0  0  0  0  0  0  0  0  0
  141.1446   78.0279  216.8172 H   0  0  0  0  0  0  0  0  0  0  0  0
  142.5719   79.7000  215.6800 H   0  0  0  0  0  0  0  0  0  0  0  0
  142.3122   82.3166  219.0632 H   0  0  0  0  0  0  0  0  0  0  0  0
  139.1111   81.0793  222.5015 H   0  0  0  0  0  0  0  0  0  0  0  0
  138.7352   79.2708  222.6560 H   0  0  0  0  0  0  0  0  0  0  0  0
  139.9064   79.6194  224.4945 H   0  0  0  0  0  0  0  0  0  0  0  0
  141.2038   81.7317  222.6976 H   0  0  0  0  0  0  0  0  0  0  0  0
  140.6061   81.9020  224.3939 H   0  0  0  0  0  0  0  0  0  0  0  0
  143.0083   82.0986  224.3802 H   0  0  0  0  0  0  0  0  0  0  0  0
  142.5450   80.5472  225.1557 H   0  0  0  0  0  0  0  0  0  0  0  0
  143.6309   81.0352  222.3661 H   0  0  0  0  0  0  0  0  0  0  0  0
  144.2935   79.9944  223.7016 H   0  0  0  0  0  0  0  0  0  0  0  0
  142.3221   79.3756  221.6152 H   0  0  0  0  0  0  0  0  0  0  0  0
  143.3460   78.2942  222.6473 H   0  0  0  0  0  0  0  0  0  0  0  0
  140.9514   77.9261  223.0238 H   0  0  0  0  0  0  0  0  0  0  0  0
  141.8137   78.5763  224.4944 H   0  0  0  0  0  0  0  0  0  0  0  0
  141.6645   76.8802  220.6561 H   0  0  0  0  0  0  0  0  0  0  0  0
  1  2  1  0
  2  3  2  0
  2  4  2  0
  2  5  1  0
  5  6  2  0
  6  7  1  0
  7  8  2  0
  8  9  1  0
  9 10  1  0
 10 11  2  0
 11 12  1  0
 12 13  2  0
 13 14  1  0
 14 15  2  0
 15 16  1  0
 16 17  2  0
 17 18  1  0
 17 19  1  0
 19 20  2  0
 20 21  1  0
 21 22  2  0
 21 23  1  0
 23 24  1  0
 24 25  1  0
 25 26  1  0
 26 27  1  0
 27 28  1  0
 28 29  1  0
 29 30  1  0
  9 31  2  0
 31  5  1  0
 23 12  1  0
 30 25  1  0
 20 14  1  0
  1 32  1  0
  1 33  1  0
  6 34  1  0
  7 35  1  0
  8 36  1  0
 10 37  1  0
 11 38  1  0
 15 39  1  0
 16 40  1  0
 19 41  1  0
 24 42  1  0
 24 43  1  0
 25 44  1  0
 26 45  1  0
 26 46  1  0
 27 47  1  0
 27 48  1  0
 28 49  1  0
 28 50  1  0
 29 51  1  0
 29 52  1  0
 30 53  1  0
 30 54  1  0
 31 55  1  0
M  END
>  <smiles>  (42) 
NS(=O)(=O)c1cccc(/C=C/c2nc3ccc(F)cc3c(=O)n2CC2CCCCC2)c1

>  <score_type>  (42) 
oracle

>  <origin>  (42) 
autodockgpu

>  <m_score__min__energy>  (42) 
-9.2799999999999994

>  <m_primary>  (42) 
energy

>  <rmsd>  (42) 
6.257593825907114

>  <m_score__min__rmsd>  (42) 
6.257593825907114

>  <meeko>  (42) 
{"free_energy": -7.21, "intermolecular_energy": -9.3, "internal_energy": -2.32, "cluster_size": 3, "cluster_id": 4, "rank_in_cluster": 3}

>  <energy>  (42) 
-8.1

>  <cluster_rmsd>  (42) 
0.0

>  <cluster>  (42) 
6

$$$$

     RDKit          3D

 55 58  0  0  0  0  0  0  0  0999 V2000
  143.7020   76.6730  219.0140 N   0  0  0  0  0  0  0  0  0  0  0  0
  143.3610   75.1320  219.7270 S   0  0  0  0  0  0  0  0  0  0  0  0
  143.2090   74.1350  218.6100 O   0  0  0  0  0  0  0  0  0  0  0  0
  144.5200   74.6700  220.5620 O   0  0  0  0  0  0  0  0  0  0  0  0
  141.8850   75.1850  220.6670 C   0  0  0  0  0  0  0  0  0  0  0  0
  141.2810   76.4080  220.8860 C   0  0  0  0  0  0  0  0  0  0  0  0
  140.1240   76.4070  221.6290 C   0  0  0  0  0  0  0  0  0  0  0  0
  139.5850   75.2440  222.1360 C   0  0  0  0  0  0  0  0  0  0  0  0
  140.1770   74.0190  221.9230 C   0  0  0  0  0  0  0  0  0  0  0  0
  139.6390   72.7660  222.4400 C   0  0  0  0  0  0  0  0  0  0  0  0
  140.3170   71.6480  222.5260 C   0  0  0  0  0  0  0  0  0  0  0  0
  140.1740   70.7780  223.7040 C   0  0  0  0  0  0  0  0  0  0  0  0
  140.6940   71.2280  224.8800 N   0  0  0  0  0  0  0  0  0  0  0  0
  140.6330   70.5350  226.0270 C   0  0  0  0  0  0  0  0  0  0  0  0
  141.1690   71.0180  227.2000 C   0  0  0  0  0  0  0  0  0  0  0  0
  141.0620   70.2350  228.3360 C   0  0  0  0  0  0  0  0  0  0  0  0
  140.4440   69.0000  228.3380 C   0  0  0  0  0  0  0  0  0  0  0  0
  140.3340   68.2260  229.4460 F   0  0  0  0  0  0  0  0  0  0  0  0
  139.9130   68.5370  227.1360 C   0  0  0  0  0  0  0  0  0  0  0  0
  140.0050   69.3040  225.9750 C   0  0  0  0  0  0  0  0  0  0  0  0
  139.4810   68.8510  224.7850 C   0  0  0  0  0  0  0  0  0  0  0  0
  138.9210   67.7210  224.8110 O   0  0  0  0  0  0  0  0  0  0  0  0
  139.5560   69.5770  223.6320 N   0  0  0  0  0  0  0  0  0  0  0  0
  139.0230   69.1000  222.3880 C   0  0  0  0  0  0  0  0  0  0  0  0
  137.5780   69.3350  222.1460 C   0  0  0  0  0  0  0  0  0  0  0  0
  137.5150   70.5520  221.2090 C   0  0  0  0  0  0  0  0  0  0  0  0
  136.2530   71.3260  221.4260 C   0  0  0  0  0  0  0  0  0  0  0  0
  136.2720   71.9350  222.8020 C   0  0  0  0  0  0  0  0  0  0  0  0
  136.7360   70.9530  223.8610 C   0  0  0  0  0  0  0  0  0  0  0  0
  136.7190   69.5330  223.3470 C   0  0  0  0  0  0  0  0  0  0  0  0
  141.3430   74.0210  221.1740 C   0  0  0  0  0  0  0  0  0  0  0  0
  144.4280   76.5240  218.2900 H   0  0  0  0  0  0  0  0  0  0  0  0
  143.9830   77.3050  219.7910 H   0  0  0  0  0  0  0  0  0  0  0  0
  141.7061   77.3397  220.4845 H   0  0  0  0  0  0  0  0  0  0  0  0
  139.6138   77.3617  221.8244 H   0  0  0  0  0  0  0  0  0  0  0  0
  138.6581   75.2958  222.7260 H   0  0  0  0  0  0  0  0  0  0  0  0
  138.5932   72.7589  222.7809 H   0  0  0  0  0  0  0  0  0  0  0  0
  140.9977   71.3579  221.7120 H   0  0  0  0  0  0  0  0  0  0  0  0
  141.6678   71.9979  227.2330 H   0  0  0  0  0  0  0  0  0  0  0  0
  141.4873   70.6124  229.2776 H   0  0  0  0  0  0  0  0  0  0  0  0
  139.4160   67.5562  227.1024 H   0  0  0  0  0  0  0  0  0  0  0  0
  139.5806   69.5910  221.5768 H   0  0  0  0  0  0  0  0  0  0  0  0
  139.1344   68.0064  222.4272 H   0  0  0  0  0  0  0  0  0  0  0  0
  137.1513   68.4172  221.7152 H   0  0  0  0  0  0  0  0  0  0  0  0
  138.3773   71.2053  221.4082 H   0  0  0  0  0  0  0  0  0  0  0  0
  137.5356   70.1966  220.1682 H   0  0  0  0  0  0  0  0  0  0  0  0
  136.1773   72.1237  220.6724 H   0  0  0  0  0  0  0  0  0  0  0  0
  135.3880   70.6528  221.3334 H   0  0  0  0  0  0  0  0  0  0  0  0
  136.9539   72.7981  222.7972 H   0  0  0  0  0  0  0  0  0  0  0  0
  135.2436   72.2361  223.0504 H   0  0  0  0  0  0  0  0  0  0  0  0
  137.7618   71.2113  224.1626 H   0  0  0  0  0  0  0  0  0  0  0  0
  136.0473   71.0179  224.7162 H   0  0  0  0  0  0  0  0  0  0  0  0
  137.0763   68.8672  224.1464 H   0  0  0  0  0  0  0  0  0  0  0  0
  135.6845   69.3040  223.0513 H   0  0  0  0  0  0  0  0  0  0  0  0
  141.8522   73.0659  220.9775 H   0  0  0  0  0  0  0  0  0  0  0  0
  1  2  1  0
  2  3  2  0
  2  4  2  0
  2  5  1  0
  5  6  2  0
  6  7  1  0
  7  8  2  0
  8  9  1  0
  9 10  1  0
 10 11  2  0
 11 12  1  0
 12 13  2  0
 13 14  1  0
 14 15  2  0
 15 16  1  0
 16 17  2  0
 17 18  1  0
 17 19  1  0
 19 20  2  0
 20 21  1  0
 21 22  2  0
 21 23  1  0
 23 24  1  0
 24 25  1  0
 25 26  1  0
 26 27  1  0
 27 28  1  0
 28 29  1  0
 29 30  1  0
  9 31  2  0
 31  5  1  0
 23 12  1  0
 30 25  1  0
 20 14  1  0
  1 32  1  0
  1 33  1  0
  6 34  1  0
  7 35  1  0
  8 36  1  0
 10 37  1  0
 11 38  1  0
 15 39  1  0
 16 40  1  0
 19 41  1  0
 24 42  1  0
 24 43  1  0
 25 44  1  0
 26 45  1  0
 26 46  1  0
 27 47  1  0
 27 48  1  0
 28 49  1  0
 28 50  1  0
 29 51  1  0
 29 52  1  0
 30 53  1  0
 30 54  1  0
 31 55  1  0
M  END
>  <smiles>  (43) 
NS(=O)(=O)c1cccc(/C=C/c2nc3ccc(F)cc3c(=O)n2CC2CCCCC2)c1

>  <score_type>  (43) 
oracle

>  <origin>  (43) 
autodockgpu

>  <m_score__min__energy>  (43) 
-9.2799999999999994

>  <m_primary>  (43) 
energy

>  <rmsd>  (43) 
10.525118222258664

>  <m_score__min__rmsd>  (43) 
10.525118222258664

>  <meeko>  (43) 
{"free_energy": -8.12, "intermolecular_energy": -10.21, "internal_energy": -1.83, "cluster_size": 31, "cluster_id": 1, "rank_in_cluster": 25}

>  <energy>  (43) 
-7.91

>  <cluster_rmsd>  (43) 
0.0

>  <cluster>  (43) 
7

$$$$

     RDKit          3D

 55 58  0  0  0  0  0  0  0  0999 V2000
  135.8020   74.6370  224.3960 N   0  0  0  0  0  0  0  0  0  0  0  0
  134.3630   74.1140  225.2030 S   0  0  0  0  0  0  0  0  0  0  0  0
  134.2540   74.8860  226.4910 O   0  0  0  0  0  0  0  0  0  0  0  0
  133.1480   74.4590  224.3910 O   0  0  0  0  0  0  0  0  0  0  0  0
  134.4240   72.3990  225.5530 C   0  0  0  0  0  0  0  0  0  0  0  0
  133.8430   71.9400  226.7190 C   0  0  0  0  0  0  0  0  0  0  0  0
  133.9120   70.5870  226.9580 C   0  0  0  0  0  0  0  0  0  0  0  0
  134.5310   69.7230  226.0790 C   0  0  0  0  0  0  0  0  0  0  0  0
  135.1130   70.1700  224.9140 C   0  0  0  0  0  0  0  0  0  0  0  0
  135.7760   69.2900  223.9580 C   0  0  0  0  0  0  0  0  0  0  0  0
  137.0670   69.2790  223.7340 C   0  0  0  0  0  0  0  0  0  0  0  0
  137.7550   70.4970  223.2770 C   0  0  0  0  0  0  0  0  0  0  0  0
  137.0510   71.3530  222.4850 N   0  0  0  0  0  0  0  0  0  0  0  0
  137.5580   72.4950  222.0000 C   0  0  0  0  0  0  0  0  0  0  0  0
  136.8200   73.3400  221.2020 C   0  0  0  0  0  0  0  0  0  0  0  0
  137.4240   74.4980  220.7440 C   0  0  0  0  0  0  0  0  0  0  0  0
  138.7270   74.8350  221.0550 C   0  0  0  0  0  0  0  0  0  0  0  0
  139.3270   75.9670  220.6120 F   0  0  0  0  0  0  0  0  0  0  0  0
  139.4490   73.9610  221.8640 C   0  0  0  0  0  0  0  0  0  0  0  0
  138.8670   72.7860  222.3410 C   0  0  0  0  0  0  0  0  0  0  0  0
  139.5770   71.9190  223.1400 C   0  0  0  0  0  0  0  0  0  0  0  0
  140.7640   72.2490  223.4130 O   0  0  0  0  0  0  0  0  0  0  0  0
  139.0360   70.7630  223.6220 N   0  0  0  0  0  0  0  0  0  0  0  0
  139.7780   69.8520  224.4440 C   0  0  0  0  0  0  0  0  0  0  0  0
  139.3040   69.6690  225.8380 C   0  0  0  0  0  0  0  0  0  0  0  0
  140.2570   70.5070  226.7060 C   0  0  0  0  0  0  0  0  0  0  0  0
  140.3890   69.9160  228.0740 C   0  0  0  0  0  0  0  0  0  0  0  0
  141.0760   68.5810  227.9760 C   0  0  0  0  0  0  0  0  0  0  0  0
  140.5260   67.7300  226.8470 C   0  0  0  0  0  0  0  0  0  0  0  0
  139.2100   68.2680  226.3370 C   0  0  0  0  0  0  0  0  0  0  0  0
  135.0420   71.5330  224.6740 C   0  0  0  0  0  0  0  0  0  0  0  0
  135.5660   74.7660  223.3950 H   0  0  0  0  0  0  0  0  0  0  0  0
  136.5290   73.9180  224.5850 H   0  0  0  0  0  0  0  0  0  0  0  0
  133.3482   72.6245  227.4237 H   0  0  0  0  0  0  0  0  0  0  0  0
  133.4607   70.1828  227.8761 H   0  0  0  0  0  0  0  0  0  0  0  0
  134.5605   68.6490  226.3148 H   0  0  0  0  0  0  0  0  0  0  0  0
  135.1502   68.5886  223.3868 H   0  0  0  0  0  0  0  0  0  0  0  0
  137.6404   68.3531  223.8886 H   0  0  0  0  0  0  0  0  0  0  0  0
  135.7797   73.1015  220.9359 H   0  0  0  0  0  0  0  0  0  0  0  0
  136.8419   75.1787  220.1054 H   0  0  0  0  0  0  0  0  0  0  0  0
  140.4894   74.1996  222.1298 H   0  0  0  0  0  0  0  0  0  0  0  0
  139.7558   68.8678  223.9533 H   0  0  0  0  0  0  0  0  0  0  0  0
  140.7788   70.2990  224.5372 H   0  0  0  0  0  0  0  0  0  0  0  0
  138.2544   69.9945  225.8861 H   0  0  0  0  0  0  0  0  0  0  0  0
  141.2477   70.5361  226.2288 H   0  0  0  0  0  0  0  0  0  0  0  0
  139.8466   71.5233  226.7994 H   0  0  0  0  0  0  0  0  0  0  0  0
  140.9835   70.5892  228.7091 H   0  0  0  0  0  0  0  0  0  0  0  0
  139.3903   69.7844  228.5160 H   0  0  0  0  0  0  0  0  0  0  0  0
  142.1493   68.7478  227.8023 H   0  0  0  0  0  0  0  0  0  0  0  0
  140.8996   68.0426  228.9189 H   0  0  0  0  0  0  0  0  0  0  0  0
  141.2521   67.7201  226.0208 H   0  0  0  0  0  0  0  0  0  0  0  0
  140.3566   66.7138  227.2325 H   0  0  0  0  0  0  0  0  0  0  0  0
  138.8650   67.6256  225.5134 H   0  0  0  0  0  0  0  0  0  0  0  0
  138.5064   68.2680  227.1826 H   0  0  0  0  0  0  0  0  0  0  0  0
  135.4919   71.9369  223.7550 H   0  0  0  0  0  0  0  0  0  0  0  0
  1  2  1  0
  2  3  2  0
  2  4  2  0
  2  5  1  0
  5  6  2  0
  6  7  1  0
  7  8  2  0
  8  9  1  0
  9 10  1  0
 10 11  2  0
 11 12  1  0
 12 13  2  0
 13 14  1  0
 14 15  2  0
 15 16  1  0
 16 17  2  0
 17 18  1  0
 17 19  1  0
 19 20  2  0
 20 21  1  0
 21 22  2  0
 21 23  1  0
 23 24  1  0
 24 25  1  0
 25 26  1  0
 26 27  1  0
 27 28  1  0
 28 29  1  0
 29 30  1  0
  9 31  2  0
 31  5  1  0
 23 12  1  0
 30 25  1  0
 20 14  1  0
  1 32  1  0
  1 33  1  0
  6 34  1  0
  7 35  1  0
  8 36  1  0
 10 37  1  0
 11 38  1  0
 15 39  1  0
 16 40  1  0
 19 41  1  0
 24 42  1  0
 24 43  1  0
 25 44  1  0
 26 45  1  0
 26 46  1  0
 27 47  1  0
 27 48  1  0
 28 49  1  0
 28 50  1  0
 29 51  1  0
 29 52  1  0
 30 53  1  0
 30 54  1  0
 31 55  1  0
M  END
>  <smiles>  (44) 
NS(=O)(=O)c1cccc(/C=C/c2nc3ccc(F)cc3c(=O)n2CC2CCCCC2)c1

>  <score_type>  (44) 
oracle

>  <origin>  (44) 
autodockgpu

>  <m_score__min__energy>  (44) 
-9.2799999999999994

>  <m_primary>  (44) 
energy

>  <rmsd>  (44) 
9.789074543910349

>  <m_score__min__rmsd>  (44) 
9.789074543910349

>  <meeko>  (44) 
{"free_energy": -7.49, "intermolecular_energy": -9.58, "internal_energy": -1.93, "cluster_size": 1, "cluster_id": 11, "rank_in_cluster": 1}

>  <energy>  (44) 
-7.71

>  <cluster_rmsd>  (44) 
0.0

>  <cluster>  (44) 
8

$$$$

     RDKit          3D

 55 58  0  0  0  0  0  0  0  0999 V2000
  146.0030   73.3910  218.5800 N   0  0  0  0  0  0  0  0  0  0  0  0
  145.1540   73.0820  220.0570 S   0  0  0  0  0  0  0  0  0  0  0  0
  144.7570   71.6300  220.0610 O   0  0  0  0  0  0  0  0  0  0  0  0
  146.0590   73.2830  221.2380 O   0  0  0  0  0  0  0  0  0  0  0  0
  143.7200   74.0790  220.1820 C   0  0  0  0  0  0  0  0  0  0  0  0
  143.7190   75.3180  219.5710 C   0  0  0  0  0  0  0  0  0  0  0  0
  142.5750   76.0710  219.6930 C   0  0  0  0  0  0  0  0  0  0  0  0
  141.4750   75.6180  220.3900 C   0  0  0  0  0  0  0  0  0  0  0  0
  141.4650   74.3840  221.0030 C   0  0  0  0  0  0  0  0  0  0  0  0
  140.3240   73.8680  221.7500 C   0  0  0  0  0  0  0  0  0  0  0  0
  139.8260   72.6640  221.6050 C   0  0  0  0  0  0  0  0  0  0  0  0
  139.5590   71.8210  222.7810 C   0  0  0  0  0  0  0  0  0  0  0  0
  140.4610   71.8680  223.8010 N   0  0  0  0  0  0  0  0  0  0  0  0
  140.3380   71.1500  224.9270 C   0  0  0  0  0  0  0  0  0  0  0  0
  141.2670   71.2190  225.9410 C   0  0  0  0  0  0  0  0  0  0  0  0
  141.0620   70.4420  227.0670 C   0  0  0  0  0  0  0  0  0  0  0  0
  139.9700   69.6090  227.2120 C   0  0  0  0  0  0  0  0  0  0  0  0
  139.7600   68.8450  228.3130 F   0  0  0  0  0  0  0  0  0  0  0  0
  139.0470   69.5590  226.1700 C   0  0  0  0  0  0  0  0  0  0  0  0
  139.2280   70.3310  225.0220 C   0  0  0  0  0  0  0  0  0  0  0  0
  138.3180   70.2850  223.9900 C   0  0  0  0  0  0  0  0  0  0  0  0
  137.3290   69.5180  224.1450 O   0  0  0  0  0  0  0  0  0  0  0  0
  138.4670   71.0270  222.8540 N   0  0  0  0  0  0  0  0  0  0  0  0
  137.5270   70.9700  221.7710 C   0  0  0  0  0  0  0  0  0  0  0  0
  137.6740   69.8440  220.8160 C   0  0  0  0  0  0  0  0  0  0  0  0
  136.7900   68.7180  221.3760 C   0  0  0  0  0  0  0  0  0  0  0  0
  137.3330   67.3760  220.9970 C   0  0  0  0  0  0  0  0  0  0  0  0
  138.6580   67.1640  221.6790 C   0  0  0  0  0  0  0  0  0  0  0  0
  139.5550   68.3840  221.5900 C   0  0  0  0  0  0  0  0  0  0  0  0
  139.0590   69.3630  220.5520 C   0  0  0  0  0  0  0  0  0  0  0  0
  142.6190   73.6260  220.8790 C   0  0  0  0  0  0  0  0  0  0  0  0
  146.9180   73.8080  218.8310 H   0  0  0  0  0  0  0  0  0  0  0  0
  145.3880   74.0010  218.0050 H   0  0  0  0  0  0  0  0  0  0  0  0
  144.5928   75.6851  219.0128 H   0  0  0  0  0  0  0  0  0  0  0  0
  142.5363   77.0637  219.2208 H   0  0  0  0  0  0  0  0  0  0  0  0
  140.5829   76.2579  220.4584 H   0  0  0  0  0  0  0  0  0  0  0  0
  139.8488   74.5342  222.4851 H   0  0  0  0  0  0  0  0  0  0  0  0
  139.6063   72.2814  220.5974 H   0  0  0  0  0  0  0  0  0  0  0  0
  142.1472   71.8734  225.8580 H   0  0  0  0  0  0  0  0  0  0  0  0
  141.8000   70.4896  227.8813 H   0  0  0  0  0  0  0  0  0  0  0  0
  138.1668   68.9045  226.2530 H   0  0  0  0  0  0  0  0  0  0  0  0
  136.5195   70.9064  222.2079 H   0  0  0  0  0  0  0  0  0  0  0  0
  137.7160   71.8769  221.1779 H   0  0  0  0  0  0  0  0  0  0  0  0
  137.3679   70.1991  219.8209 H   0  0  0  0  0  0  0  0  0  0  0  0
  136.7574   68.7970  222.4727 H   0  0  0  0  0  0  0  0  0  0  0  0
  135.7794   68.8209  220.9539 H   0  0  0  0  0  0  0  0  0  0  0  0
  136.6282   66.5923  221.3119 H   0  0  0  0  0  0  0  0  0  0  0  0
  137.4684   67.3282  219.9064 H   0  0  0  0  0  0  0  0  0  0  0  0
  138.4770   66.9351  222.7396 H   0  0  0  0  0  0  0  0  0  0  0  0
  139.1689   66.3338  221.1694 H   0  0  0  0  0  0  0  0  0  0  0  0
  139.5773   68.8832  222.5700 H   0  0  0  0  0  0  0  0  0  0  0  0
  140.5614   68.0510  221.2964 H   0  0  0  0  0  0  0  0  0  0  0  0
  139.7344   70.2311  220.5388 H   0  0  0  0  0  0  0  0  0  0  0  0
  139.0447   68.8371  219.5860 H   0  0  0  0  0  0  0  0  0  0  0  0
  142.6580   72.6330  221.3507 H   0  0  0  0  0  0  0  0  0  0  0  0
  1  2  1  0
  2  3  2  0
  2  4  2  0
  2  5  1  0
  5  6  2  0
  6  7  1  0
  7  8  2  0
  8  9  1  0
  9 10  1  0
 10 11  2  0
 11 12  1  0
 12 13  2  0
 13 14  1  0
 14 15  2  0
 15 16  1  0
 16 17  2  0
 17 18  1  0
 17 19  1  0
 19 20  2  0
 20 21  1  0
 21 22  2  0
 21 23  1  0
 23 24  1  0
 24 25  1  0
 25 26  1  0
 26 27  1  0
 27 28  1  0
 28 29  1  0
 29 30  1  0
  9 31  2  0
 31  5  1  0
 23 12  1  0
 30 25  1  0
 20 14  1  0
  1 32  1  0
  1 33  1  0
  6 34  1  0
  7 35  1  0
  8 36  1  0
 10 37  1  0
 11 38  1  0
 15 39  1  0
 16 40  1  0
 19 41  1  0
 24 42  1  0
 24 43  1  0
 25 44  1  0
 26 45  1  0
 26 46  1  0
 27 47  1  0
 27 48  1  0
 28 49  1  0
 28 50  1  0
 29 51  1  0
 29 52  1  0
 30 53  1  0
 30 54  1  0
 31 55  1  0
M  END
>  <smiles>  (45) 
NS(=O)(=O)c1cccc(/C=C/c2nc3ccc(F)cc3c(=O)n2CC2CCCCC2)c1

>  <score_type>  (45) 
oracle

>  <origin>  (45) 
autodockgpu

>  <m_score__min__energy>  (45) 
-9.2799999999999994

>  <m_primary>  (45) 
energy

>  <rmsd>  (45) 
10.658419670881015

>  <m_score__min__rmsd>  (45) 
10.658419670881015

>  <meeko>  (45) 
{"free_energy": -7.85, "intermolecular_energy": -9.94, "internal_energy": -1.66, "cluster_size": 31, "cluster_id": 1, "rank_in_cluster": 29}

>  <energy>  (45) 
-7.64

>  <cluster_rmsd>  (45) 
0.0

>  <cluster>  (45) 
9

$$$$

     RDKit          3D

 55 58  0  0  0  0  0  0  0  0999 V2000
  139.1310   74.6710  222.3400 N   0  0  0  0  0  0  0  0  0  0  0  0
  140.2250   73.5010  221.6810 S   0  0  0  0  0  0  0  0  0  0  0  0
  140.7110   72.6400  222.8160 O   0  0  0  0  0  0  0  0  0  0  0  0
  139.5090   72.5900  220.7270 O   0  0  0  0  0  0  0  0  0  0  0  0
  141.5910   74.2780  220.9100 C   0  0  0  0  0  0  0  0  0  0  0  0
  142.7330   73.5350  220.6800 C   0  0  0  0  0  0  0  0  0  0  0  0
  143.7840   74.1810  220.0730 C   0  0  0  0  0  0  0  0  0  0  0  0
  143.7100   75.5080  219.7070 C   0  0  0  0  0  0  0  0  0  0  0  0
  142.5760   76.2580  219.9300 C   0  0  0  0  0  0  0  0  0  0  0  0
  142.4570   77.6630  219.5600 C   0  0  0  0  0  0  0  0  0  0  0  0
  141.6980   78.5320  220.1820 C   0  0  0  0  0  0  0  0  0  0  0  0
  141.5580   79.9030  219.6660 C   0  0  0  0  0  0  0  0  0  0  0  0
  142.4450   80.3070  218.7140 N   0  0  0  0  0  0  0  0  0  0  0  0
  142.4290   81.5290  218.1620 C   0  0  0  0  0  0  0  0  0  0  0  0
  143.3400   81.9060  217.2000 C   0  0  0  0  0  0  0  0  0  0  0  0
  143.2520   83.1880  216.6860 C   0  0  0  0  0  0  0  0  0  0  0  0
  142.2920   84.0930  217.0950 C   0  0  0  0  0  0  0  0  0  0  0  0
  142.1970   85.3510  216.5960 F   0  0  0  0  0  0  0  0  0  0  0  0
  141.3850   83.6830  218.0690 C   0  0  0  0  0  0  0  0  0  0  0  0
  141.4500   82.3980  218.6070 C   0  0  0  0  0  0  0  0  0  0  0  0
  140.5550   81.9880  219.5690 C   0  0  0  0  0  0  0  0  0  0  0  0
  139.6870   82.8310  219.9260 O   0  0  0  0  0  0  0  0  0  0  0  0
  140.5930   80.7380  220.1140 N   0  0  0  0  0  0  0  0  0  0  0  0
  139.6700   80.3140  221.1270 C   0  0  0  0  0  0  0  0  0  0  0  0
  140.0220   80.6360  222.5320 C   0  0  0  0  0  0  0  0  0  0  0  0
  141.3400   81.4240  222.4500 C   0  0  0  0  0  0  0  0  0  0  0  0
  142.1630   81.2130  223.6820 C   0  0  0  0  0  0  0  0  0  0  0  0
  142.6080   79.7770  223.7450 C   0  0  0  0  0  0  0  0  0  0  0  0
  141.4840   78.8100  223.4250 C   0  0  0  0  0  0  0  0  0  0  0  0
  140.1350   79.4900  223.4760 C   0  0  0  0  0  0  0  0  0  0  0  0
  141.5180   75.6060  220.5420 C   0  0  0  0  0  0  0  0  0  0  0  0
  139.6280   75.1630  223.1040 H   0  0  0  0  0  0  0  0  0  0  0  0
  138.2810   74.1510  222.6350 H   0  0  0  0  0  0  0  0  0  0  0  0
  142.7983   72.4757  220.9691 H   0  0  0  0  0  0  0  0  0  0  0  0
  144.7107   73.6228  219.8737 H   0  0  0  0  0  0  0  0  0  0  0  0
  144.5786   75.9801  219.2246 H   0  0  0  0  0  0  0  0  0  0  0  0
  143.0441   78.0181  218.7003 H   0  0  0  0  0  0  0  0  0  0  0  0
  141.1623   78.2345  221.0955 H   0  0  0  0  0  0  0  0  0  0  0  0
  144.1151   81.2082  216.8504 H   0  0  0  0  0  0  0  0  0  0  0  0
  143.9770   83.4993  215.9196 H   0  0  0  0  0  0  0  0  0  0  0  0
  140.6089   84.3802  218.4177 H   0  0  0  0  0  0  0  0  0  0  0  0
  138.6998   80.7852  220.9110 H   0  0  0  0  0  0  0  0  0  0  0  0
  139.6716   79.2152  221.0752 H   0  0  0  0  0  0  0  0  0  0  0  0
  139.1885   81.2041  222.9708 H   0  0  0  0  0  0  0  0  0  0  0  0
  141.9098   81.0833  221.5729 H   0  0  0  0  0  0  0  0  0  0  0  0
  141.1055   82.4951  222.3619 H   0  0  0  0  0  0  0  0  0  0  0  0
  143.0450   81.8697  223.6513 H   0  0  0  0  0  0  0  0  0  0  0  0
  141.5611   81.4508  224.5715 H   0  0  0  0  0  0  0  0  0  0  0  0
  143.4209   79.6267  223.0193 H   0  0  0  0  0  0  0  0  0  0  0  0
  142.9434   79.5740  224.7728 H   0  0  0  0  0  0  0  0  0  0  0  0
  141.6404   78.4020  222.4155 H   0  0  0  0  0  0  0  0  0  0  0  0
  141.4944   78.0083  224.1781 H   0  0  0  0  0  0  0  0  0  0  0  0
  139.3606   78.7507  223.2233 H   0  0  0  0  0  0  0  0  0  0  0  0
  140.0074   79.8892  224.4930 H   0  0  0  0  0  0  0  0  0  0  0  0
  140.5911   76.1640  220.7408 H   0  0  0  0  0  0  0  0  0  0  0  0
  1  2  1  0
  2  3  2  0
  2  4  2  0
  2  5  1  0
  5  6  2  0
  6  7  1  0
  7  8  2  0
  8  9  1  0
  9 10  1  0
 10 11  2  0
 11 12  1  0
 12 13  2  0
 13 14  1  0
 14 15  2  0
 15 16  1  0
 16 17  2  0
 17 18  1  0
 17 19  1  0
 19 20  2  0
 20 21  1  0
 21 22  2  0
 21 23  1  0
 23 24  1  0
 24 25  1  0
 25 26  1  0
 26 27  1  0
 27 28  1  0
 28 29  1  0
 29 30  1  0
  9 31  2  0
 31  5  1  0
 23 12  1  0
 30 25  1  0
 20 14  1  0
  1 32  1  0
  1 33  1  0
  6 34  1  0
  7 35  1  0
  8 36  1  0
 10 37  1  0
 11 38  1  0
 15 39  1  0
 16 40  1  0
 19 41  1  0
 24 42  1  0
 24 43  1  0
 25 44  1  0
 26 45  1  0
 26 46  1  0
 27 47  1  0
 27 48  1  0
 28 49  1  0
 28 50  1  0
 29 51  1  0
 29 52  1  0
 30 53  1  0
 30 54  1  0
 31 55  1  0
M  END
>  <smiles>  (46) 
NS(=O)(=O)c1cccc(/C=C/c2nc3ccc(F)cc3c(=O)n2CC2CCCCC2)c1

>  <score_type>  (46) 
oracle

>  <origin>  (46) 
autodockgpu

>  <m_score__min__energy>  (46) 
-9.2799999999999994

>  <m_primary>  (46) 
energy

>  <rmsd>  (46) 
6.195774079934203

>  <m_score__min__rmsd>  (46) 
6.195774079934203

>  <meeko>  (46) 
{"free_energy": -7.91, "intermolecular_energy": -10.0, "internal_energy": -1.6, "cluster_size": 1, "cluster_id": 7, "rank_in_cluster": 1}

>  <energy>  (46) 
-7.64

>  <cluster_rmsd>  (46) 
1.04

>  <cluster>  (46) 
9

$$$$

     RDKit          3D

 55 58  0  0  0  0  0  0  0  0999 V2000
  142.1300   79.5640  221.7530 N   0  0  0  0  0  0  0  0  0  0  0  0
  141.1770   78.4000  222.6090 S   0  0  0  0  0  0  0  0  0  0  0  0
  141.8390   78.1560  223.9390 O   0  0  0  0  0  0  0  0  0  0  0  0
  139.8110   78.9500  222.9030 O   0  0  0  0  0  0  0  0  0  0  0  0
  141.0750   76.8930  221.7230 C   0  0  0  0  0  0  0  0  0  0  0  0
  141.5960   76.8390  220.4450 C   0  0  0  0  0  0  0  0  0  0  0  0
  141.4960   75.6380  219.7820 C   0  0  0  0  0  0  0  0  0  0  0  0
  140.9050   74.5350  220.3600 C   0  0  0  0  0  0  0  0  0  0  0  0
  140.3830   74.5770  221.6340 C   0  0  0  0  0  0  0  0  0  0  0  0
  139.7500   73.4330  222.2810 C   0  0  0  0  0  0  0  0  0  0  0  0
  140.2080   72.2070  222.2320 C   0  0  0  0  0  0  0  0  0  0  0  0
  140.0840   71.3170  223.3980 C   0  0  0  0  0  0  0  0  0  0  0  0
  140.6230   71.7480  224.5730 N   0  0  0  0  0  0  0  0  0  0  0  0
  140.5800   71.0360  225.7080 C   0  0  0  0  0  0  0  0  0  0  0  0
  141.1350   71.5000  226.8810 C   0  0  0  0  0  0  0  0  0  0  0  0
  141.0460   70.6980  228.0050 C   0  0  0  0  0  0  0  0  0  0  0  0
  140.4280   69.4630  227.9970 C   0  0  0  0  0  0  0  0  0  0  0  0
  140.3350   68.6710  229.0930 F   0  0  0  0  0  0  0  0  0  0  0  0
  139.8770   69.0210  226.7960 C   0  0  0  0  0  0  0  0  0  0  0  0
  139.9510   69.8070  225.6460 C   0  0  0  0  0  0  0  0  0  0  0  0
  139.4070   69.3730  224.4580 C   0  0  0  0  0  0  0  0  0  0  0  0
  138.8470   68.2430  224.4740 O   0  0  0  0  0  0  0  0  0  0  0  0
  139.4640   70.1180  223.3160 N   0  0  0  0  0  0  0  0  0  0  0  0
  138.9100   69.6620  222.0740 C   0  0  0  0  0  0  0  0  0  0  0  0
  137.4750   69.9510  221.8350 C   0  0  0  0  0  0  0  0  0  0  0  0
  137.4530   71.2260  220.9750 C   0  0  0  0  0  0  0  0  0  0  0  0
  136.2100   72.0180  221.2310 C   0  0  0  0  0  0  0  0  0  0  0  0
  136.2320   72.5390  222.6420 C   0  0  0  0  0  0  0  0  0  0  0  0
  136.6590   71.4810  223.6410 C   0  0  0  0  0  0  0  0  0  0  0  0
  136.6100   70.0960  223.0390 C   0  0  0  0  0  0  0  0  0  0  0  0
  140.4850   75.7870  222.3000 C   0  0  0  0  0  0  0  0  0  0  0  0
  143.0630   79.1430  221.5930 H   0  0  0  0  0  0  0  0  0  0  0  0
  142.1340   80.4290  222.3310 H   0  0  0  0  0  0  0  0  0  0  0  0
  142.0690   77.7159  219.9789 H   0  0  0  0  0  0  0  0  0  0  0  0
  141.8990   75.5554  218.7618 H   0  0  0  0  0  0  0  0  0  0  0  0
  140.8487   73.5966  219.7889 H   0  0  0  0  0  0  0  0  0  0  0  0
  138.8250   73.6123  222.8487 H   0  0  0  0  0  0  0  0  0  0  0  0
  140.6886   71.8398  221.3132 H   0  0  0  0  0  0  0  0  0  0  0  0
  141.6342   72.4793  226.9225 H   0  0  0  0  0  0  0  0  0  0  0  0
  141.4866   71.0598  228.9457 H   0  0  0  0  0  0  0  0  0  0  0  0
  139.3782   68.0415  226.7543 H   0  0  0  0  0  0  0  0  0  0  0  0
  139.4837   70.1317  221.2615 H   0  0  0  0  0  0  0  0  0  0  0  0
  138.9797   68.5649  222.1136 H   0  0  0  0  0  0  0  0  0  0  0  0
  137.0285   69.0742  221.3432 H   0  0  0  0  0  0  0  0  0  0  0  0
  138.3303   71.8422  221.2211 H   0  0  0  0  0  0  0  0  0  0  0  0
  137.4742   70.9361  219.9141 H   0  0  0  0  0  0  0  0  0  0  0  0
  136.1619   72.8630  220.5284 H   0  0  0  0  0  0  0  0  0  0  0  0
  135.3287   71.3749  221.0902 H   0  0  0  0  0  0  0  0  0  0  0  0
  136.9368   73.3818  222.6967 H   0  0  0  0  0  0  0  0  0  0  0  0
  135.2096   72.8520  222.9005 H   0  0  0  0  0  0  0  0  0  0  0  0
  137.6881   71.6924  223.9670 H   0  0  0  0  0  0  0  0  0  0  0  0
  135.9633   71.5110  224.4926 H   0  0  0  0  0  0  0  0  0  0  0  0
  136.9423   69.3725  223.7980 H   0  0  0  0  0  0  0  0  0  0  0  0
  135.5728   69.9130  222.7216 H   0  0  0  0  0  0  0  0  0  0  0  0
  140.0832   75.8690  223.3207 H   0  0  0  0  0  0  0  0  0  0  0  0
  1  2  1  0
  2  3  2  0
  2  4  2  0
  2  5  1  0
  5  6  2  0
  6  7  1  0
  7  8  2  0
  8  9  1  0
  9 10  1  0
 10 11  2  0
 11 12  1  0
 12 13  2  0
 13 14  1  0
 14 15  2  0
 15 16  1  0
 16 17  2  0
 17 18  1  0
 17 19  1  0
 19 20  2  0
 20 21  1  0
 21 22  2  0
 21 23  1  0
 23 24  1  0
 24 25  1  0
 25 26  1  0
 26 27  1  0
 27 28  1  0
 28 29  1  0
 29 30  1  0
  9 31  2  0
 31  5  1  0
 23 12  1  0
 30 25  1  0
 20 14  1  0
  1 32  1  0
  1 33  1  0
  6 34  1  0
  7 35  1  0
  8 36  1  0
 10 37  1  0
 11 38  1  0
 15 39  1  0
 16 40  1  0
 19 41  1  0
 24 42  1  0
 24 43  1  0
 25 44  1  0
 26 45  1  0
 26 46  1  0
 27 47  1  0
 27 48  1  0
 28 49  1  0
 28 50  1  0
 29 51  1  0
 29 52  1  0
 30 53  1  0
 30 54  1  0
 31 55  1  0
M  END
>  <smiles>  (47) 
NS(=O)(=O)c1cccc(/C=C/c2nc3ccc(F)cc3c(=O)n2CC2CCCCC2)c1

>  <score_type>  (47) 
oracle

>  <origin>  (47) 
autodockgpu

>  <m_score__min__energy>  (47) 
-9.2799999999999994

>  <m_primary>  (47) 
energy

>  <rmsd>  (47) 
10.002557289189578

>  <m_score__min__rmsd>  (47) 
10.002557289189578

>  <meeko>  (47) 
{"free_energy": -7.64, "intermolecular_energy": -9.73, "internal_energy": -1.77, "cluster_size": 2, "cluster_id": 9, "rank_in_cluster": 1}

>  <energy>  (47) 
-7.52

>  <cluster_rmsd>  (47) 
0.0

>  <cluster>  (47) 
10

$$$$

     RDKit          3D

 55 58  0  0  0  0  0  0  0  0999 V2000
  146.0070   73.3960  218.0030 N   0  0  0  0  0  0  0  0  0  0  0  0
  145.6410   73.1750  219.6800 S   0  0  0  0  0  0  0  0  0  0  0  0
  145.6600   71.6960  219.9620 O   0  0  0  0  0  0  0  0  0  0  0  0
  146.7080   73.7900  220.5380 O   0  0  0  0  0  0  0  0  0  0  0  0
  144.0620   73.8240  220.0720 C   0  0  0  0  0  0  0  0  0  0  0  0
  143.1440   73.0020  220.6970 C   0  0  0  0  0  0  0  0  0  0  0  0
  141.9160   73.5490  220.9870 C   0  0  0  0  0  0  0  0  0  0  0  0
  141.6080   74.8560  220.6740 C   0  0  0  0  0  0  0  0  0  0  0  0
  142.5160   75.6840  220.0530 C   0  0  0  0  0  0  0  0  0  0  0  0
  142.2310   77.0710  219.7040 C   0  0  0  0  0  0  0  0  0  0  0  0
  141.6540   77.9330  220.5050 C   0  0  0  0  0  0  0  0  0  0  0  0
  141.4870   79.3370  220.0950 C   0  0  0  0  0  0  0  0  0  0  0  0
  142.2310   79.7720  219.0400 N   0  0  0  0  0  0  0  0  0  0  0  0
  142.1770   81.0250  218.5660 C   0  0  0  0  0  0  0  0  0  0  0  0
  142.9420   81.4350  217.4970 C   0  0  0  0  0  0  0  0  0  0  0  0
  142.8230   82.7470  217.0750 C   0  0  0  0  0  0  0  0  0  0  0  0
  141.9730   83.6530  217.6790 C   0  0  0  0  0  0  0  0  0  0  0  0
  141.8490   84.9400  217.2710 F   0  0  0  0  0  0  0  0  0  0  0  0
  141.2120   83.2090  218.7580 C   0  0  0  0  0  0  0  0  0  0  0  0
  141.3100   81.8930  219.2060 C   0  0  0  0  0  0  0  0  0  0  0  0
  140.5600   81.4510  220.2720 C   0  0  0  0  0  0  0  0  0  0  0  0
  139.7890   82.2950  220.8060 O   0  0  0  0  0  0  0  0  0  0  0  0
  140.6340   80.1690  220.7340 N   0  0  0  0  0  0  0  0  0  0  0  0
  139.8630   79.7100  221.8530 C   0  0  0  0  0  0  0  0  0  0  0  0
  140.4780   79.8570  223.1950 C   0  0  0  0  0  0  0  0  0  0  0  0
  140.9240   81.3250  223.2810 C   0  0  0  0  0  0  0  0  0  0  0  0
  142.1160   81.4690  224.1730 C   0  0  0  0  0  0  0  0  0  0  0  0
  143.2940   80.7730  223.5460 C   0  0  0  0  0  0  0  0  0  0  0  0
  142.9330   79.4050  222.9990 C   0  0  0  0  0  0  0  0  0  0  0  0
  141.5980   78.9320  223.5250 C   0  0  0  0  0  0  0  0  0  0  0  0
  143.7530   75.1320  219.7600 C   0  0  0  0  0  0  0  0  0  0  0  0
  146.0280   74.4160  217.8220 H   0  0  0  0  0  0  0  0  0  0  0  0
  145.2850   72.8720  217.4680 H   0  0  0  0  0  0  0  0  0  0  0  0
  143.3841   71.9589  220.9507 H   0  0  0  0  0  0  0  0  0  0  0  0
  141.1575   72.9257  221.4831 H   0  0  0  0  0  0  0  0  0  0  0  0
  140.6115   75.2472  220.9269 H   0  0  0  0  0  0  0  0  0  0  0  0
  142.5199   77.4171  218.7006 H   0  0  0  0  0  0  0  0  0  0  0  0
  141.2920   77.6051  221.4906 H   0  0  0  0  0  0  0  0  0  0  0  0
  143.6284   80.7388  216.9928 H   0  0  0  0  0  0  0  0  0  0  0  0
  143.4311   83.0831  216.2222 H   0  0  0  0  0  0  0  0  0  0  0  0
  140.5257   83.9052  219.2623 H   0  0  0  0  0  0  0  0  0  0  0  0
  138.9167   80.2708  221.8575 H   0  0  0  0  0  0  0  0  0  0  0  0
  139.7558   78.6256  221.7030 H   0  0  0  0  0  0  0  0  0  0  0  0
  139.7259   79.5751  223.9466 H   0  0  0  0  0  0  0  0  0  0  0  0
  141.1828   81.6824  222.2734 H   0  0  0  0  0  0  0  0  0  0  0  0
  140.0982   81.9194  223.6990 H   0  0  0  0  0  0  0  0  0  0  0  0
  142.3481   82.5359  224.3066 H   0  0  0  0  0  0  0  0  0  0  0  0
  141.8998   81.0173  225.1524 H   0  0  0  0  0  0  0  0  0  0  0  0
  143.6736   81.3943  222.7215 H   0  0  0  0  0  0  0  0  0  0  0  0
  144.0552   80.6317  224.3275 H   0  0  0  0  0  0  0  0  0  0  0  0
  142.8853   79.4603  221.9014 H   0  0  0  0  0  0  0  0  0  0  0  0
  143.7039   78.6900  223.3224 H   0  0  0  0  0  0  0  0  0  0  0  0
  141.3787   77.9469  223.0875 H   0  0  0  0  0  0  0  0  0  0  0  0
  141.6747   78.8884  224.6215 H   0  0  0  0  0  0  0  0  0  0  0  0
  144.5113   75.7555  219.2637 H   0  0  0  0  0  0  0  0  0  0  0  0
  1  2  1  0
  2  3  2  0
  2  4  2  0
  2  5  1  0
  5  6  2  0
  6  7  1  0
  7  8  2  0
  8  9  1  0
  9 10  1  0
 10 11  2  0
 11 12  1  0
 12 13  2  0
 13 14  1  0
 14 15  2  0
 15 16  1  0
 16 17  2  0
 17 18  1  0
 17 19  1  0
 19 20  2  0
 20 21  1  0
 21 22  2  0
 21 23  1  0
 23 24  1  0
 24 25  1  0
 25 26  1  0
 26 27  1  0
 27 28  1  0
 28 29  1  0
 29 30  1  0
  9 31  2  0
 31  5  1  0
 23 12  1  0
 30 25  1  0
 20 14  1  0
  1 32  1  0
  1 33  1  0
  6 34  1  0
  7 35  1  0
  8 36  1  0
 10 37  1  0
 11 38  1  0
 15 39  1  0
 16 40  1  0
 19 41  1  0
 24 42  1  0
 24 43  1  0
 25 44  1  0
 26 45  1  0
 26 46  1  0
 27 47  1  0
 27 48  1  0
 28 49  1  0
 28 50  1  0
 29 51  1  0
 29 52  1  0
 30 53  1  0
 30 54  1  0
 31 55  1  0
M  END
>  <smiles>  (48) 
NS(=O)(=O)c1cccc(/C=C/c2nc3ccc(F)cc3c(=O)n2CC2CCCCC2)c1

>  <score_type>  (48) 
oracle

>  <origin>  (48) 
autodockgpu

>  <m_score__min__energy>  (48) 
-9.2799999999999994

>  <m_primary>  (48) 
energy

>  <rmsd>  (48) 
6.309450307374896

>  <m_score__min__rmsd>  (48) 
6.309450307374896

>  <meeko>  (48) 
{"free_energy": -8.49, "intermolecular_energy": -10.57, "internal_energy": -1.46, "cluster_size": 3, "cluster_id": 4, "rank_in_cluster": 1}

>  <energy>  (48) 
-7.49

>  <cluster_rmsd>  (48) 
0.0

>  <cluster>  (48) 
11

$$$$

     RDKit          3D

 55 58  0  0  0  0  0  0  0  0999 V2000
  145.2530   71.3730  220.0470 N   0  0  0  0  0  0  0  0  0  0  0  0
  145.4040   73.0840  219.8280 S   0  0  0  0  0  0  0  0  0  0  0  0
  146.4140   73.5850  220.8250 O   0  0  0  0  0  0  0  0  0  0  0  0
  145.9530   73.3940  218.4660 O   0  0  0  0  0  0  0  0  0  0  0  0
  143.8730   73.8910  220.0920 C   0  0  0  0  0  0  0  0  0  0  0  0
  143.6550   75.1140  219.4870 C   0  0  0  0  0  0  0  0  0  0  0  0
  142.4410   75.7160  219.7190 C   0  0  0  0  0  0  0  0  0  0  0  0
  141.4790   75.1320  220.5170 C   0  0  0  0  0  0  0  0  0  0  0  0
  141.6850   73.9130  221.1240 C   0  0  0  0  0  0  0  0  0  0  0  0
  140.6950   73.2620  221.9750 C   0  0  0  0  0  0  0  0  0  0  0  0
  140.3770   71.9930  221.9040 C   0  0  0  0  0  0  0  0  0  0  0  0
  140.1730   71.2060  223.1300 C   0  0  0  0  0  0  0  0  0  0  0  0
  140.6560   71.7260  224.2940 N   0  0  0  0  0  0  0  0  0  0  0  0
  140.5390   71.1120  225.4800 C   0  0  0  0  0  0  0  0  0  0  0  0
  141.0370   71.6640  226.6390 C   0  0  0  0  0  0  0  0  0  0  0  0
  140.8730   70.9600  227.8190 C   0  0  0  0  0  0  0  0  0  0  0  0
  140.2330   69.7370  227.8780 C   0  0  0  0  0  0  0  0  0  0  0  0
  140.0670   69.0410  229.0300 F   0  0  0  0  0  0  0  0  0  0  0  0
  139.7400   69.2040  226.6900 C   0  0  0  0  0  0  0  0  0  0  0  0
  139.8900   69.8900  225.4850 C   0  0  0  0  0  0  0  0  0  0  0  0
  139.4040   69.3670  224.3080 C   0  0  0  0  0  0  0  0  0  0  0  0
  138.8230   68.2500  224.3870 O   0  0  0  0  0  0  0  0  0  0  0  0
  139.5370   70.0130  223.1140 N   0  0  0  0  0  0  0  0  0  0  0  0
  139.0420   69.4630  221.8840 C   0  0  0  0  0  0  0  0  0  0  0  0
  139.9020   68.4630  221.2050 C   0  0  0  0  0  0  0  0  0  0  0  0
  140.3540   69.1350  219.8980 C   0  0  0  0  0  0  0  0  0  0  0  0
  140.5930   68.1140  218.8300 C   0  0  0  0  0  0  0  0  0  0  0  0
  139.2890   67.4590  218.4640 C   0  0  0  0  0  0  0  0  0  0  0  0
  138.4700   67.0830  219.6840 C   0  0  0  0  0  0  0  0  0  0  0  0
  139.3000   67.1250  220.9450 C   0  0  0  0  0  0  0  0  0  0  0  0
  142.9090   73.3080  220.8890 C   0  0  0  0  0  0  0  0  0  0  0  0
  144.6510   71.2190  220.8750 H   0  0  0  0  0  0  0  0  0  0  0  0
  146.2190   70.9970  220.1330 H   0  0  0  0  0  0  0  0  0  0  0  0
  144.4178   75.5843  218.8491 H   0  0  0  0  0  0  0  0  0  0  0  0
  142.2307   76.6910  219.2552 H   0  0  0  0  0  0  0  0  0  0  0  0
  140.5229   75.6533  220.6725 H   0  0  0  0  0  0  0  0  0  0  0  0
  140.1807   73.8782  222.7272 H   0  0  0  0  0  0  0  0  0  0  0  0
  140.2618   71.5128  220.9211 H   0  0  0  0  0  0  0  0  0  0  0  0
  141.5505   72.6367  226.6272 H   0  0  0  0  0  0  0  0  0  0  0  0
  141.2690   71.3925  228.7496 H   0  0  0  0  0  0  0  0  0  0  0  0
  139.2266   68.2312  226.7019 H   0  0  0  0  0  0  0  0  0  0  0  0
  138.0772   68.9807  222.0995 H   0  0  0  0  0  0  0  0  0  0  0  0
  138.9867   70.3142  221.1895 H   0  0  0  0  0  0  0  0  0  0  0  0
  140.7286   68.2075  221.8843 H   0  0  0  0  0  0  0  0  0  0  0  0
  139.5723   69.8321  219.5619 H   0  0  0  0  0  0  0  0  0  0  0  0
  141.2937   69.6749  220.0860 H   0  0  0  0  0  0  0  0  0  0  0  0
  141.0193   68.6043  217.9424 H   0  0  0  0  0  0  0  0  0  0  0  0
  141.2954   67.3527  219.2001 H   0  0  0  0  0  0  0  0  0  0  0  0
  138.7040   68.1566  217.8468 H   0  0  0  0  0  0  0  0  0  0  0  0
  139.5200   66.5336  217.9161 H   0  0  0  0  0  0  0  0  0  0  0  0
  137.6330   67.7897  219.7838 H   0  0  0  0  0  0  0  0  0  0  0  0
  138.1021   66.0553  219.5482 H   0  0  0  0  0  0  0  0  0  0  0  0
  138.6564   66.8594  221.7966 H   0  0  0  0  0  0  0  0  0  0  0  0
  140.1281   66.4125  220.8162 H   0  0  0  0  0  0  0  0  0  0  0  0
  143.1189   72.3326  221.3521 H   0  0  0  0  0  0  0  0  0  0  0  0
  1  2  1  0
  2  3  2  0
  2  4  2  0
  2  5  1  0
  5  6  2  0
  6  7  1  0
  7  8  2  0
  8  9  1  0
  9 10  1  0
 10 11  2  0
 11 12  1  0
 12 13  2  0
 13 14  1  0
 14 15  2  0
 15 16  1  0
 16 17  2  0
 17 18  1  0
 17 19  1  0
 19 20  2  0
 20 21  1  0
 21 22  2  0
 21 23  1  0
 23 24  1  0
 24 25  1  0
 25 26  1  0
 26 27  1  0
 27 28  1  0
 28 29  1  0
 29 30  1  0
  9 31  2  0
 31  5  1  0
 23 12  1  0
 30 25  1  0
 20 14  1  0
  1 32  1  0
  1 33  1  0
  6 34  1  0
  7 35  1  0
  8 36  1  0
 10 37  1  0
 11 38  1  0
 15 39  1  0
 16 40  1  0
 19 41  1  0
 24 42  1  0
 24 43  1  0
 25 44  1  0
 26 45  1  0
 26 46  1  0
 27 47  1  0
 27 48  1  0
 28 49  1  0
 28 50  1  0
 29 51  1  0
 29 52  1  0
 30 53  1  0
 30 54  1  0
 31 55  1  0
M  END
>  <smiles>  (49) 
NS(=O)(=O)c1cccc(/C=C/c2nc3ccc(F)cc3c(=O)n2CC2CCCCC2)c1

>  <score_type>  (49) 
oracle

>  <origin>  (49) 
autodockgpu

>  <m_score__min__energy>  (49) 
-9.2799999999999994

>  <m_primary>  (49) 
energy

>  <rmsd>  (49) 
10.24445957848359

>  <m_score__min__rmsd>  (49) 
10.24445957848359

>  <meeko>  (49) 
{"free_energy": -8.29, "intermolecular_energy": -10.37, "internal_energy": -1.26, "cluster_size": 31, "cluster_id": 1, "rank_in_cluster": 21}

>  <energy>  (49) 
-7.33

>  <cluster_rmsd>  (49) 
0.0

>  <cluster>  (49) 
12

$$$$

     RDKit          3D

 55 58  0  0  0  0  0  0  0  0999 V2000
  145.9660   73.0170  218.9700 N   0  0  0  0  0  0  0  0  0  0  0  0
  145.1520   73.5650  220.3970 S   0  0  0  0  0  0  0  0  0  0  0  0
  145.5150   72.6290  221.5190 O   0  0  0  0  0  0  0  0  0  0  0  0
  145.6470   74.9260  220.7950 O   0  0  0  0  0  0  0  0  0  0  0  0
  143.4160   73.5630  220.1740 C   0  0  0  0  0  0  0  0  0  0  0  0
  142.8670   74.4220  219.2420 C   0  0  0  0  0  0  0  0  0  0  0  0
  141.4990   74.3910  219.0960 C   0  0  0  0  0  0  0  0  0  0  0  0
  140.7070   73.5450  219.8420 C   0  0  0  0  0  0  0  0  0  0  0  0
  141.2440   72.6830  220.7730 C   0  0  0  0  0  0  0  0  0  0  0  0
  140.4410   71.7730  221.5820 C   0  0  0  0  0  0  0  0  0  0  0  0
  139.8980   72.0860  222.7320 C   0  0  0  0  0  0  0  0  0  0  0  0
  139.8740   71.1120  223.8350 C   0  0  0  0  0  0  0  0  0  0  0  0
  140.4460   71.4880  225.0130 N   0  0  0  0  0  0  0  0  0  0  0  0
  140.4930   70.6970  226.0950 C   0  0  0  0  0  0  0  0  0  0  0  0
  141.0780   71.1060  227.2730 C   0  0  0  0  0  0  0  0  0  0  0  0
  141.0840   70.2250  228.3390 C   0  0  0  0  0  0  0  0  0  0  0  0
  140.5290   68.9610  228.2680 C   0  0  0  0  0  0  0  0  0  0  0  0
  140.5280   68.0910  229.3080 F   0  0  0  0  0  0  0  0  0  0  0  0
  139.9450   68.5750  227.0640 C   0  0  0  0  0  0  0  0  0  0  0  0
  139.9240   69.4420  225.9720 C   0  0  0  0  0  0  0  0  0  0  0  0
  139.3480   69.0650  224.7800 C   0  0  0  0  0  0  0  0  0  0  0  0
  138.8460   67.9080  224.7390 O   0  0  0  0  0  0  0  0  0  0  0  0
  139.3130   69.8900  223.6940 N   0  0  0  0  0  0  0  0  0  0  0  0
  138.7240   69.4930  222.4470 C   0  0  0  0  0  0  0  0  0  0  0  0
  137.2570   69.6660  222.3140 C   0  0  0  0  0  0  0  0  0  0  0  0
  136.9930   71.1490  222.6180 C   0  0  0  0  0  0  0  0  0  0  0  0
  135.6310   71.3370  223.2090 C   0  0  0  0  0  0  0  0  0  0  0  0
  135.5800   70.6800  224.5620 C   0  0  0  0  0  0  0  0  0  0  0  0
  136.2060   69.2990  224.5570 C   0  0  0  0  0  0  0  0  0  0  0  0
  136.3980   68.7810  223.1510 C   0  0  0  0  0  0  0  0  0  0  0  0
  142.6210   72.7160  220.9180 C   0  0  0  0  0  0  0  0  0  0  0  0
  146.3940   73.8460  218.5200 H   0  0  0  0  0  0  0  0  0  0  0  0
  145.2550   72.5240  218.3930 H   0  0  0  0  0  0  0  0  0  0  0  0
  143.4943   75.0995  218.6441 H   0  0  0  0  0  0  0  0  0  0  0  0
  141.0243   75.0602  218.3633 H   0  0  0  0  0  0  0  0  0  0  0  0
  139.6176   73.5584  219.6901 H   0  0  0  0  0  0  0  0  0  0  0  0
  140.2804   70.7540  221.2001 H   0  0  0  0  0  0  0  0  0  0  0  0
  139.4569   73.0836  222.8744 H   0  0  0  0  0  0  0  0  0  0  0  0
  141.5280   72.1057  227.3634 H   0  0  0  0  0  0  0  0  0  0  0  0
  141.5500   70.5435  229.2831 H   0  0  0  0  0  0  0  0  0  0  0  0
  139.4954   67.5752  226.9734 H   0  0  0  0  0  0  0  0  0  0  0  0
  139.2019   70.0826  221.6508 H   0  0  0  0  0  0  0  0  0  0  0  0
  138.8924   68.4079  222.3823 H   0  0  0  0  0  0  0  0  0  0  0  0
  136.9684   69.3610  221.2973 H   0  0  0  0  0  0  0  0  0  0  0  0
  137.7484   71.5108  223.3310 H   0  0  0  0  0  0  0  0  0  0  0  0
  137.0503   71.7169  221.6777 H   0  0  0  0  0  0  0  0  0  0  0  0
  135.4215   72.4117  223.3144 H   0  0  0  0  0  0  0  0  0  0  0  0
  134.8775   70.8812  222.5498 H   0  0  0  0  0  0  0  0  0  0  0  0
  136.1218   71.3110  225.2819 H   0  0  0  0  0  0  0  0  0  0  0  0
  134.5219   70.5680  224.8412 H   0  0  0  0  0  0  0  0  0  0  0  0
  137.1851   69.3490  225.0559 H   0  0  0  0  0  0  0  0  0  0  0  0
  135.5296   68.6126  225.0874 H   0  0  0  0  0  0  0  0  0  0  0  0
  136.8668   67.7874  223.2050 H   0  0  0  0  0  0  0  0  0  0  0  0
  135.4060   68.7432  222.6771 H   0  0  0  0  0  0  0  0  0  0  0  0
  143.0957   72.0456  221.6496 H   0  0  0  0  0  0  0  0  0  0  0  0
  1  2  1  0
  2  3  2  0
  2  4  2  0
  2  5  1  0
  5  6  2  0
  6  7  1  0
  7  8  2  0
  8  9  1  0
  9 10  1  0
 10 11  2  0
 11 12  1  0
 12 13  2  0
 13 14  1  0
 14 15  2  0
 15 16  1  0
 16 17  2  0
 17 18  1  0
 17 19  1  0
 19 20  2  0
 20 21  1  0
 21 22  2  0
 21 23  1  0
 23 24  1  0
 24 25  1  0
 25 26  1  0
 26 27  1  0
 27 28  1  0
 28 29  1  0
 29 30  1  0
  9 31  2  0
 31  5  1  0
 23 12  1  0
 30 25  1  0
 20 14  1  0
  1 32  1  0
  1 33  1  0
  6 34  1  0
  7 35  1  0
  8 36  1  0
 10 37  1  0
 11 38  1  0
 15 39  1  0
 16 40  1  0
 19 41  1  0
 24 42  1  0
 24 43  1  0
 25 44  1  0
 26 45  1  0
 26 46  1  0
 27 47  1  0
 27 48  1  0
 28 49  1  0
 28 50  1  0
 29 51  1  0
 29 52  1  0
 30 53  1  0
 30 54  1  0
 31 55  1  0
M  END
>  <smiles>  (50) 
NS(=O)(=O)c1cccc(/C=C/c2nc3ccc(F)cc3c(=O)n2CC2CCCCC2)c1

>  <score_type>  (50) 
oracle

>  <origin>  (50) 
autodockgpu

>  <m_score__min__energy>  (50) 
-9.2799999999999994

>  <m_primary>  (50) 
energy

>  <rmsd>  (50) 
10.819906832177894

>  <m_score__min__rmsd>  (50) 
10.819906832177894

>  <meeko>  (50) 
{"free_energy": -8.34, "intermolecular_energy": -10.43, "internal_energy": -1.33, "cluster_size": 31, "cluster_id": 1, "rank_in_cluster": 20}

>  <energy>  (50) 
-7.21

>  <cluster_rmsd>  (50) 
0.0

>  <cluster>  (50) 
13

$$$$
