
     RDKit          3D

 65 69  0  0  0  0  0  0  0  0999 V2000
  146.3270   71.3340  219.2770 O   0  0  0  0  0  0  0  0  0  0  0  0
  145.1740   72.0980  219.4410 C   0  0  0  0  0  0  0  0  0  0  0  0
  145.3700   73.1810  220.4840 C   0  0  0  0  0  0  0  0  0  0  0  0
  144.1170   74.0690  220.3840 C   0  0  0  0  0  0  0  0  0  0  0  0
  143.0190   73.2190  220.8530 N   0  0  0  0  0  0  0  0  0  0  0  0
  141.8230   73.8140  221.3280 C   0  0  0  0  0  0  0  0  0  0  0  0
  140.7050   73.1080  221.6350 N   0  0  0  0  0  0  0  0  0  0  0  0
  139.5840   73.6970  222.0600 C   0  0  0  0  0  0  0  0  0  0  0  0
  138.4060   73.0210  222.4520 N   0  0  0  0  0  0  0  0  0  0  0  0
  138.2340   71.5920  222.5500 C   0  0  0  0  0  0  0  0  0  0  0  0
  139.4410   71.0710  223.3050 C   0  0  0  0  0  0  0  0  0  0  0  0
  139.1300   70.1290  224.4110 C   0  0  0  0  0  0  0  0  0  0  0  0
  139.8270   70.5760  225.6500 C   0  0  0  0  0  0  0  0  0  0  0  0
  140.6940   71.6420  225.6960 C   0  0  0  0  0  0  0  0  0  0  0  0
  141.2960   71.9520  226.9150 C   0  0  0  0  0  0  0  0  0  0  0  0
  141.0500   71.2310  228.0600 C   0  0  0  0  0  0  0  0  0  0  0  0
  140.1840   70.1630  228.0160 C   0  0  0  0  0  0  0  0  0  0  0  0
  139.5880   69.8580  226.8040 C   0  0  0  0  0  0  0  0  0  0  0  0
  139.5450   75.0560  222.1940 N   0  0  0  0  0  0  0  0  0  0  0  0
  140.6310   75.7840  221.9000 C   0  0  0  0  0  0  0  0  0  0  0  0
  140.5790   77.1940  222.0330 N   0  0  0  0  0  0  0  0  0  0  0  0
  139.4480   77.7930  222.7250 C   0  0  0  0  0  0  0  0  0  0  0  0
  139.3330   79.2270  222.1780 C   0  0  0  0  0  0  0  0  0  0  0  0
  140.5830   79.8900  222.7090 C   0  0  0  0  0  0  0  0  0  0  0  0
  140.5320   81.0300  223.4750 C   0  0  0  0  0  0  0  0  0  0  0  0
  141.7280   81.5390  223.9290 C   0  0  0  0  0  0  0  0  0  0  0  0
  142.9080   80.9030  223.6050 C   0  0  0  0  0  0  0  0  0  0  0  0
  142.9410   79.7460  222.8240 C   0  0  0  0  0  0  0  0  0  0  0  0
  141.7620   79.2450  222.3780 C   0  0  0  0  0  0  0  0  0  0  0  0
  141.6330   78.0190  221.5220 C   0  0  0  0  0  0  0  0  0  0  0  0
  141.7600   75.1640  221.4720 N   0  0  0  0  0  0  0  0  0  0  0  0
  143.1140   71.7850  220.8400 C   0  0  0  0  0  0  0  0  0  0  0  0
  143.9670   71.2430  219.7400 C   0  0  0  0  0  0  0  0  0  0  0  0
  146.6170   71.0310  220.1730 H   0  0  0  0  0  0  0  0  0  0  0  0
  144.9776   72.5987  218.4814 H   0  0  0  0  0  0  0  0  0  0  0  0
  145.4506   72.7393  221.4882 H   0  0  0  0  0  0  0  0  0  0  0  0
  146.2940   73.7531  220.3140 H   0  0  0  0  0  0  0  0  0  0  0  0
  144.2197   74.9579  221.0238 H   0  0  0  0  0  0  0  0  0  0  0  0
  143.9495   74.4381  219.3614 H   0  0  0  0  0  0  0  0  0  0  0  0
  137.5910   73.6760  222.6920 H   0  0  0  0  0  0  0  0  0  0  0  0
  137.3102   71.3559  223.0985 H   0  0  0  0  0  0  0  0  0  0  0  0
  138.1531   71.1291  221.5554 H   0  0  0  0  0  0  0  0  0  0  0  0
  140.0943   70.5521  222.5881 H   0  0  0  0  0  0  0  0  0  0  0  0
  139.9144   71.9476  223.7712 H   0  0  0  0  0  0  0  0  0  0  0  0
  138.0441   70.1133  224.5857 H   0  0  0  0  0  0  0  0  0  0  0  0
  139.4708   69.1186  224.1409 H   0  0  0  0  0  0  0  0  0  0  0  0
  140.9073   72.2351  224.7945 H   0  0  0  0  0  0  0  0  0  0  0  0
  141.9918   72.8027  226.9624 H   0  0  0  0  0  0  0  0  0  0  0  0
  141.5423   71.5064  229.0044 H   0  0  0  0  0  0  0  0  0  0  0  0
  139.9713   69.5689  228.9170 H   0  0  0  0  0  0  0  0  0  0  0  0
  138.8936   69.0061  226.7590 H   0  0  0  0  0  0  0  0  0  0  0  0
  138.5277   77.2281  222.5152 H   0  0  0  0  0  0  0  0  0  0  0  0
  139.5910   77.7861  223.8157 H   0  0  0  0  0  0  0  0  0  0  0  0
  139.3190   79.2314  221.0781 H   0  0  0  0  0  0  0  0  0  0  0  0
  138.4070   79.7363  222.4833 H   0  0  0  0  0  0  0  0  0  0  0  0
  139.5749   81.5158  223.7155 H   0  0  0  0  0  0  0  0  0  0  0  0
  141.7423   82.4487  224.5473 H   0  0  0  0  0  0  0  0  0  0  0  0
  143.8558   81.3216  223.9745 H   0  0  0  0  0  0  0  0  0  0  0  0
  143.8944   79.2556  222.5778 H   0  0  0  0  0  0  0  0  0  0  0  0
  141.3998   78.3151  220.4886 H   0  0  0  0  0  0  0  0  0  0  0  0
  142.5794   77.4586  221.5357 H   0  0  0  0  0  0  0  0  0  0  0  0
  143.5387   71.4577  221.8005 H   0  0  0  0  0  0  0  0  0  0  0  0
  142.0971   71.4000  220.6736 H   0  0  0  0  0  0  0  0  0  0  0  0
  144.3133   70.2398  220.0293 H   0  0  0  0  0  0  0  0  0  0  0  0
  143.3495   71.2232  218.8299 H   0  0  0  0  0  0  0  0  0  0  0  0
  1  2  1  0
  2  3  1  0
  3  4  1  0
  4  5  1  0
  5  6  1  0
  6  7  2  0
  7  8  1  0
  8  9  1  0
  9 10  1  0
 10 11  1  0
 11 12  1  0
 12 13  1  0
 13 14  2  0
 14 15  1  0
 15 16  2  0
 16 17  1  0
 17 18  2  0
  8 19  2  0
 19 20  1  0
 20 21  1  0
 21 22  1  0
 22 23  1  0
 23 24  1  0
 24 25  2  0
 25 26  1  0
 26 27  2  0
 27 28  1  0
 28 29  2  0
 29 30  1  0
 20 31  2  0
  5 32  1  0
 32 33  1  0
 33  2  1  0
 31  6  1  0
 18 13  1  0
 30 21  1  0
 29 24  1  0
  1 34  1  0
  2 35  1  0
  3 36  1  0
  3 37  1  0
  4 38  1  0
  4 39  1  0
  9 40  1  0
 10 41  1  0
 10 42  1  0
 11 43  1  0
 11 44  1  0
 12 45  1  0
 12 46  1  0
 14 47  1  0
 15 48  1  0
 16 49  1  0
 17 50  1  0
 18 51  1  0
 22 52  1  0
 22 53  1  0
 23 54  1  0
 23 55  1  0
 25 56  1  0
 26 57  1  0
 27 58  1  0
 28 59  1  0
 30 60  1  0
 30 61  1  0
 32 62  1  0
 32 63  1  0
 33 64  1  0
 33 65  1  0
M  END
>  <smiles>  (1) 
OC1CCN(c2nc(NCCCc3ccccc3)nc(N3CCc4ccccc4C3)n2)CC1

>  <score_type>  (1) 
oracle

>  <origin>  (1) 
autodockgpu

>  <m_score__min__energy>  (1) 
-10.68

>  <m_primary>  (1) 
energy

>  <rmsd>  (1) 
5.570873511430905

>  <m_score__min__rmsd>  (1) 
5.570873511430905

>  <meeko>  (1) 
{"free_energy": -10.52, "intermolecular_energy": -12.91, "internal_energy": -1.15, "cluster_size": 50, "cluster_id": 1, "rank_in_cluster": 5}

>  <energy>  (1) 
-10.68

>  <cluster_rmsd>  (1) 
0.0

>  <cluster>  (1) 
1

$$$$

     RDKit          3D

 65 69  0  0  0  0  0  0  0  0999 V2000
  146.3190   73.1060  218.6030 O   0  0  0  0  0  0  0  0  0  0  0  0
  145.0020   73.3850  218.9630 C   0  0  0  0  0  0  0  0  0  0  0  0
  144.9360   74.1210  220.2880 C   0  0  0  0  0  0  0  0  0  0  0  0
  143.4670   74.5590  220.4320 C   0  0  0  0  0  0  0  0  0  0  0  0
  142.7200   73.3080  220.6000 N   0  0  0  0  0  0  0  0  0  0  0  0
  141.4390   73.3310  221.2070 C   0  0  0  0  0  0  0  0  0  0  0  0
  140.5030   74.2780  220.9430 N   0  0  0  0  0  0  0  0  0  0  0  0
  139.3110   74.2890  221.5460 C   0  0  0  0  0  0  0  0  0  0  0  0
  138.2690   75.2060  221.2780 N   0  0  0  0  0  0  0  0  0  0  0  0
  138.2170   76.5850  221.7000 C   0  0  0  0  0  0  0  0  0  0  0  0
  139.3470   76.7670  222.6940 C   0  0  0  0  0  0  0  0  0  0  0  0
  140.6440   77.1780  222.1000 C   0  0  0  0  0  0  0  0  0  0  0  0
  141.0320   78.5130  222.6400 C   0  0  0  0  0  0  0  0  0  0  0  0
  142.3080   79.0200  222.5770 C   0  0  0  0  0  0  0  0  0  0  0  0
  142.5470   80.2770  223.1320 C   0  0  0  0  0  0  0  0  0  0  0  0
  141.5550   81.0150  223.7330 C   0  0  0  0  0  0  0  0  0  0  0  0
  140.2780   80.5100  223.7970 C   0  0  0  0  0  0  0  0  0  0  0  0
  140.0440   79.2620  223.2450 C   0  0  0  0  0  0  0  0  0  0  0  0
  139.0090   73.3210  222.4630 N   0  0  0  0  0  0  0  0  0  0  0  0
  139.9110   72.3710  222.7470 C   0  0  0  0  0  0  0  0  0  0  0  0
  139.5940   71.3760  223.7050 N   0  0  0  0  0  0  0  0  0  0  0  0
  138.7050   70.2890  223.3220 C   0  0  0  0  0  0  0  0  0  0  0  0
  138.0670   69.7880  224.6290 C   0  0  0  0  0  0  0  0  0  0  0  0
  139.2380   69.1720  225.3590 C   0  0  0  0  0  0  0  0  0  0  0  0
  139.2240   67.8650  225.7850 C   0  0  0  0  0  0  0  0  0  0  0  0
  140.3520   67.3940  226.4180 C   0  0  0  0  0  0  0  0  0  0  0  0
  141.4320   68.2320  226.6010 C   0  0  0  0  0  0  0  0  0  0  0  0
  141.4290   69.5580  226.1620 C   0  0  0  0  0  0  0  0  0  0  0  0
  140.3170   70.0200  225.5390 C   0  0  0  0  0  0  0  0  0  0  0  0
  140.1560   71.4200  225.0220 C   0  0  0  0  0  0  0  0  0  0  0  0
  141.1150   72.3790  222.1200 N   0  0  0  0  0  0  0  0  0  0  0  0
  143.2480   72.0470  220.1600 C   0  0  0  0  0  0  0  0  0  0  0  0
  144.1410   72.1460  218.9650 C   0  0  0  0  0  0  0  0  0  0  0  0
  146.7960   73.9680  218.5140 H   0  0  0  0  0  0  0  0  0  0  0  0
  144.5890   74.0542  218.1938 H   0  0  0  0  0  0  0  0  0  0  0  0
  145.2228   73.4543  221.1146 H   0  0  0  0  0  0  0  0  0  0  0  0
  145.6258   74.9773  220.3181 H   0  0  0  0  0  0  0  0  0  0  0  0
  143.3401   75.2076  221.3113 H   0  0  0  0  0  0  0  0  0  0  0  0
  143.1186   75.1384  219.5643 H   0  0  0  0  0  0  0  0  0  0  0  0
  137.4650   74.7920  220.7010 H   0  0  0  0  0  0  0  0  0  0  0  0
  138.3568   77.2531  220.8374 H   0  0  0  0  0  0  0  0  0  0  0  0
  137.2438   76.8294  222.1508 H   0  0  0  0  0  0  0  0  0  0  0  0
  139.0438   77.5374  223.4183 H   0  0  0  0  0  0  0  0  0  0  0  0
  139.5166   75.7810  223.1511 H   0  0  0  0  0  0  0  0  0  0  0  0
  141.4168   76.4387  222.3574 H   0  0  0  0  0  0  0  0  0  0  0  0
  140.5462   77.2371  221.0060 H   0  0  0  0  0  0  0  0  0  0  0  0
  143.1193   78.4494  222.1014 H   0  0  0  0  0  0  0  0  0  0  0  0
  143.5646   80.6923  223.0873 H   0  0  0  0  0  0  0  0  0  0  0  0
  141.7816   82.0031  224.1599 H   0  0  0  0  0  0  0  0  0  0  0  0
  139.4664   81.0803  224.2725 H   0  0  0  0  0  0  0  0  0  0  0  0
  139.0253   78.8495  223.2909 H   0  0  0  0  0  0  0  0  0  0  0  0
  137.9294   70.6536  222.6325 H   0  0  0  0  0  0  0  0  0  0  0  0
  139.2485   69.4856  222.8032 H   0  0  0  0  0  0  0  0  0  0  0  0
  137.6355   70.6207  225.2038 H   0  0  0  0  0  0  0  0  0  0  0  0
  137.2367   69.0850  224.4666 H   0  0  0  0  0  0  0  0  0  0  0  0
  138.3463   67.2212  225.6264 H   0  0  0  0  0  0  0  0  0  0  0  0
  140.3918   66.3546  226.7760 H   0  0  0  0  0  0  0  0  0  0  0  0
  142.3262   67.8429  227.1100 H   0  0  0  0  0  0  0  0  0  0  0  0
  142.3028   70.2080  226.3171 H   0  0  0  0  0  0  0  0  0  0  0  0
  139.4865   71.9833  225.6887 H   0  0  0  0  0  0  0  0  0  0  0  0
  141.1374   71.9156  224.9878 H   0  0  0  0  0  0  0  0  0  0  0  0
  143.8239   71.6056  220.9867 H   0  0  0  0  0  0  0  0  0  0  0  0
  142.3884   71.4273  219.8648 H   0  0  0  0  0  0  0  0  0  0  0  0
  144.7984   71.2642  218.9466 H   0  0  0  0  0  0  0  0  0  0  0  0
  143.4927   72.1989  218.0779 H   0  0  0  0  0  0  0  0  0  0  0  0
  1  2  1  0
  2  3  1  0
  3  4  1  0
  4  5  1  0
  5  6  1  0
  6  7  2  0
  7  8  1  0
  8  9  1  0
  9 10  1  0
 10 11  1  0
 11 12  1  0
 12 13  1  0
 13 14  2  0
 14 15  1  0
 15 16  2  0
 16 17  1  0
 17 18  2  0
  8 19  2  0
 19 20  1  0
 20 21  1  0
 21 22  1  0
 22 23  1  0
 23 24  1  0
 24 25  2  0
 25 26  1  0
 26 27  2  0
 27 28  1  0
 28 29  2  0
 29 30  1  0
 20 31  2  0
  5 32  1  0
 32 33  1  0
 33  2  1  0
 31  6  1  0
 18 13  1  0
 30 21  1  0
 29 24  1  0
  1 34  1  0
  2 35  1  0
  3 36  1  0
  3 37  1  0
  4 38  1  0
  4 39  1  0
  9 40  1  0
 10 41  1  0
 10 42  1  0
 11 43  1  0
 11 44  1  0
 12 45  1  0
 12 46  1  0
 14 47  1  0
 15 48  1  0
 16 49  1  0
 17 50  1  0
 18 51  1  0
 22 52  1  0
 22 53  1  0
 23 54  1  0
 23 55  1  0
 25 56  1  0
 26 57  1  0
 27 58  1  0
 28 59  1  0
 30 60  1  0
 30 61  1  0
 32 62  1  0
 32 63  1  0
 33 64  1  0
 33 65  1  0
M  END
>  <smiles>  (2) 
OC1CCN(c2nc(NCCCc3ccccc3)nc(N3CCc4ccccc4C3)n2)CC1

>  <score_type>  (2) 
oracle

>  <origin>  (2) 
autodockgpu

>  <m_score__min__energy>  (2) 
-10.68

>  <m_primary>  (2) 
energy

>  <rmsd>  (2) 
11.275132536264515

>  <m_score__min__rmsd>  (2) 
11.275132536264515

>  <meeko>  (2) 
{"free_energy": -9.82, "intermolecular_energy": -12.21, "internal_energy": -1.19, "cluster_size": 50, "cluster_id": 1, "rank_in_cluster": 41}

>  <energy>  (2) 
-10.6

>  <cluster_rmsd>  (2) 
0.45

>  <cluster>  (2) 
1

$$$$

     RDKit          3D

 65 69  0  0  0  0  0  0  0  0999 V2000
  146.7120   73.2740  219.3860 O   0  0  0  0  0  0  0  0  0  0  0  0
  145.5780   73.1640  220.1880 C   0  0  0  0  0  0  0  0  0  0  0  0
  144.5770   72.1880  219.6000 C   0  0  0  0  0  0  0  0  0  0  0  0
  143.5090   71.9980  220.6920 C   0  0  0  0  0  0  0  0  0  0  0  0
  142.8360   73.2980  220.7840 N   0  0  0  0  0  0  0  0  0  0  0  0
  141.5320   73.3760  221.3350 C   0  0  0  0  0  0  0  0  0  0  0  0
  140.8160   72.2890  221.7220 N   0  0  0  0  0  0  0  0  0  0  0  0
  139.5800   72.3890  222.2170 C   0  0  0  0  0  0  0  0  0  0  0  0
  138.8020   71.3090  222.6930 N   0  0  0  0  0  0  0  0  0  0  0  0
  137.7160   71.3910  223.6400 C   0  0  0  0  0  0  0  0  0  0  0  0
  137.9030   70.2320  224.5990 C   0  0  0  0  0  0  0  0  0  0  0  0
  139.3040   69.7650  224.7530 C   0  0  0  0  0  0  0  0  0  0  0  0
  139.9050   70.3960  225.9620 C   0  0  0  0  0  0  0  0  0  0  0  0
  139.6900   69.9490  227.2440 C   0  0  0  0  0  0  0  0  0  0  0  0
  140.2980   70.6370  228.2940 C   0  0  0  0  0  0  0  0  0  0  0  0
  141.0980   71.7360  228.0870 C   0  0  0  0  0  0  0  0  0  0  0  0
  141.3140   72.1850  226.8050 C   0  0  0  0  0  0  0  0  0  0  0  0
  140.7090   71.5010  225.7650 C   0  0  0  0  0  0  0  0  0  0  0  0
  139.0010   73.6210  222.3440 N   0  0  0  0  0  0  0  0  0  0  0  0
  139.6800   74.7150  221.9720 C   0  0  0  0  0  0  0  0  0  0  0  0
  139.0700   75.9880  222.0990 N   0  0  0  0  0  0  0  0  0  0  0  0
  137.7510   76.0770  222.7080 C   0  0  0  0  0  0  0  0  0  0  0  0
  137.1180   77.3640  222.1510 C   0  0  0  0  0  0  0  0  0  0  0  0
  137.9690   78.4500  222.7680 C   0  0  0  0  0  0  0  0  0  0  0  0
  137.4240   79.4590  223.5260 C   0  0  0  0  0  0  0  0  0  0  0  0
  138.2910   80.3840  224.0630 C   0  0  0  0  0  0  0  0  0  0  0  0
  139.6440   80.2710  223.8250 C   0  0  0  0  0  0  0  0  0  0  0  0
  140.1810   79.2390  223.0510 C   0  0  0  0  0  0  0  0  0  0  0  0
  139.3260   78.3290  222.5230 C   0  0  0  0  0  0  0  0  0  0  0  0
  139.7460   77.1730  221.6620 C   0  0  0  0  0  0  0  0  0  0  0  0
  140.9360   74.5890  221.4730 N   0  0  0  0  0  0  0  0  0  0  0  0
  143.4650   74.5090  220.3350 C   0  0  0  0  0  0  0  0  0  0  0  0
  144.9530   74.5070  220.4710 C   0  0  0  0  0  0  0  0  0  0  0  0
  146.7190   74.1840  218.9980 H   0  0  0  0  0  0  0  0  0  0  0  0
  145.9034   72.7569  221.1567 H   0  0  0  0  0  0  0  0  0  0  0  0
  144.1252   72.6023  218.6866 H   0  0  0  0  0  0  0  0  0  0  0  0
  145.0491   71.2357  219.3167 H   0  0  0  0  0  0  0  0  0  0  0  0
  142.7959   71.2114  220.4046 H   0  0  0  0  0  0  0  0  0  0  0  0
  143.9460   71.6865  221.6522 H   0  0  0  0  0  0  0  0  0  0  0  0
  139.0820   70.3590  222.2800 H   0  0  0  0  0  0  0  0  0  0  0  0
  137.7557   72.3463  224.1839 H   0  0  0  0  0  0  0  0  0  0  0  0
  136.7397   71.3406  223.1358 H   0  0  0  0  0  0  0  0  0  0  0  0
  137.5369   70.5449  225.5880 H   0  0  0  0  0  0  0  0  0  0  0  0
  137.3422   69.3869  224.1731 H   0  0  0  0  0  0  0  0  0  0  0  0
  139.3160   68.6708  224.8655 H   0  0  0  0  0  0  0  0  0  0  0  0
  139.8857   70.0472  223.8631 H   0  0  0  0  0  0  0  0  0  0  0  0
  139.0551   69.0717  227.4368 H   0  0  0  0  0  0  0  0  0  0  0  0
  140.1316   70.2881  229.3239 H   0  0  0  0  0  0  0  0  0  0  0  0
  141.5618   72.2523  228.9404 H   0  0  0  0  0  0  0  0  0  0  0  0
  141.9491   73.0622  226.6119 H   0  0  0  0  0  0  0  0  0  0  0  0
  140.8760   71.8532  224.7364 H   0  0  0  0  0  0  0  0  0  0  0  0
  137.1431   75.2019  222.4348 H   0  0  0  0  0  0  0  0  0  0  0  0
  137.8127   76.0986  223.8060 H   0  0  0  0  0  0  0  0  0  0  0  0
  137.1761   77.3910  221.0529 H   0  0  0  0  0  0  0  0  0  0  0  0
  136.0483   77.4612  222.3885 H   0  0  0  0  0  0  0  0  0  0  0  0
  136.3393   79.5247  223.6966 H   0  0  0  0  0  0  0  0  0  0  0  0
  137.9056   81.2096  224.6793 H   0  0  0  0  0  0  0  0  0  0  0  0
  140.3241   81.0187  224.2591 H   0  0  0  0  0  0  0  0  0  0  0  0
  141.2645   79.1671  222.8754 H   0  0  0  0  0  0  0  0  0  0  0  0
  139.4835   77.3807  220.6142 H   0  0  0  0  0  0  0  0  0  0  0  0
  140.8334   77.0285  221.7433 H   0  0  0  0  0  0  0  0  0  0  0  0
  143.2147   74.6560  219.2740 H   0  0  0  0  0  0  0  0  0  0  0  0
  143.0878   75.3200  220.9753 H   0  0  0  0  0  0  0  0  0  0  0  0
  145.3687   75.2409  219.7649 H   0  0  0  0  0  0  0  0  0  0  0  0
  145.1841   74.7591  221.5165 H   0  0  0  0  0  0  0  0  0  0  0  0
  1  2  1  0
  2  3  1  0
  3  4  1  0
  4  5  1  0
  5  6  1  0
  6  7  2  0
  7  8  1  0
  8  9  1  0
  9 10  1  0
 10 11  1  0
 11 12  1  0
 12 13  1  0
 13 14  2  0
 14 15  1  0
 15 16  2  0
 16 17  1  0
 17 18  2  0
  8 19  2  0
 19 20  1  0
 20 21  1  0
 21 22  1  0
 22 23  1  0
 23 24  1  0
 24 25  2  0
 25 26  1  0
 26 27  2  0
 27 28  1  0
 28 29  2  0
 29 30  1  0
 20 31  2  0
  5 32  1  0
 32 33  1  0
 33  2  1  0
 31  6  1  0
 18 13  1  0
 30 21  1  0
 29 24  1  0
  1 34  1  0
  2 35  1  0
  3 36  1  0
  3 37  1  0
  4 38  1  0
  4 39  1  0
  9 40  1  0
 10 41  1  0
 10 42  1  0
 11 43  1  0
 11 44  1  0
 12 45  1  0
 12 46  1  0
 14 47  1  0
 15 48  1  0
 16 49  1  0
 17 50  1  0
 18 51  1  0
 22 52  1  0
 22 53  1  0
 23 54  1  0
 23 55  1  0
 25 56  1  0
 26 57  1  0
 27 58  1  0
 28 59  1  0
 30 60  1  0
 30 61  1  0
 32 62  1  0
 32 63  1  0
 33 64  1  0
 33 65  1  0
M  END
>  <smiles>  (3) 
OC1CCN(c2nc(NCCCc3ccccc3)nc(N3CCc4ccccc4C3)n2)CC1

>  <score_type>  (3) 
oracle

>  <origin>  (3) 
autodockgpu

>  <m_score__min__energy>  (3) 
-10.68

>  <m_primary>  (3) 
energy

>  <rmsd>  (3) 
5.45810731313343

>  <m_score__min__rmsd>  (3) 
5.45810731313343

>  <meeko>  (3) 
{"free_energy": -9.72, "intermolecular_energy": -12.11, "internal_energy": -1.28, "cluster_size": 50, "cluster_id": 1, "rank_in_cluster": 45}

>  <energy>  (3) 
-10.58

>  <cluster_rmsd>  (3) 
0.26

>  <cluster>  (3) 
1

$$$$

     RDKit          3D

 65 69  0  0  0  0  0  0  0  0999 V2000
  146.7100   73.4250  219.1190 O   0  0  0  0  0  0  0  0  0  0  0  0
  145.6300   73.2080  219.9720 C   0  0  0  0  0  0  0  0  0  0  0  0
  144.5870   72.3150  219.3280 C   0  0  0  0  0  0  0  0  0  0  0  0
  143.5920   71.9810  220.4540 C   0  0  0  0  0  0  0  0  0  0  0  0
  142.9330   73.2560  220.7580 N   0  0  0  0  0  0  0  0  0  0  0  0
  141.6680   73.2580  221.3990 C   0  0  0  0  0  0  0  0  0  0  0  0
  140.7870   74.2860  221.3130 N   0  0  0  0  0  0  0  0  0  0  0  0
  139.6100   74.2710  221.9450 C   0  0  0  0  0  0  0  0  0  0  0  0
  138.6220   75.2780  221.8530 N   0  0  0  0  0  0  0  0  0  0  0  0
  138.3530   76.1070  220.7040 C   0  0  0  0  0  0  0  0  0  0  0  0
  139.0730   77.4180  220.9500 C   0  0  0  0  0  0  0  0  0  0  0  0
  140.5550   77.3390  220.8960 C   0  0  0  0  0  0  0  0  0  0  0  0
  141.1370   78.3870  221.7820 C   0  0  0  0  0  0  0  0  0  0  0  0
  141.5590   79.6170  221.3350 C   0  0  0  0  0  0  0  0  0  0  0  0
  142.1010   80.5060  222.2630 C   0  0  0  0  0  0  0  0  0  0  0  0
  142.2240   80.1930  223.5960 C   0  0  0  0  0  0  0  0  0  0  0  0
  141.8030   78.9630  224.0450 C   0  0  0  0  0  0  0  0  0  0  0  0
  141.2660   78.0820  223.1220 C   0  0  0  0  0  0  0  0  0  0  0  0
  139.2680   73.1900  222.7090 N   0  0  0  0  0  0  0  0  0  0  0  0
  140.1150   72.1580  222.8150 C   0  0  0  0  0  0  0  0  0  0  0  0
  139.7570   71.0450  223.6160 N   0  0  0  0  0  0  0  0  0  0  0  0
  139.5790   69.7490  222.9790 C   0  0  0  0  0  0  0  0  0  0  0  0
  138.6270   68.9580  223.8950 C   0  0  0  0  0  0  0  0  0  0  0  0
  139.4630   68.7360  225.1340 C   0  0  0  0  0  0  0  0  0  0  0  0
  139.7040   67.4780  225.6330 C   0  0  0  0  0  0  0  0  0  0  0  0
  140.4990   67.3840  226.7530 C   0  0  0  0  0  0  0  0  0  0  0  0
  141.0110   68.5290  227.3240 C   0  0  0  0  0  0  0  0  0  0  0  0
  140.7550   69.8000  226.8050 C   0  0  0  0  0  0  0  0  0  0  0  0
  139.9730   69.8910  225.7020 C   0  0  0  0  0  0  0  0  0  0  0  0
  139.5970   71.1820  225.0330 C   0  0  0  0  0  0  0  0  0  0  0  0
  141.3050   72.1940  222.1620 N   0  0  0  0  0  0  0  0  0  0  0  0
  143.5380   74.5170  220.4310 C   0  0  0  0  0  0  0  0  0  0  0  0
  145.0320   74.5020  220.4680 C   0  0  0  0  0  0  0  0  0  0  0  0
  146.9260   74.3900  219.1470 H   0  0  0  0  0  0  0  0  0  0  0  0
  146.0153   72.6785  220.8559 H   0  0  0  0  0  0  0  0  0  0  0  0
  144.0788   72.8442  218.5084 H   0  0  0  0  0  0  0  0  0  0  0  0
  145.0336   71.4094  218.8916 H   0  0  0  0  0  0  0  0  0  0  0  0
  142.8575   71.2359  220.1144 H   0  0  0  0  0  0  0  0  0  0  0  0
  144.0895   71.5489  221.3348 H   0  0  0  0  0  0  0  0  0  0  0  0
  138.0420   75.3980  222.7480 H   0  0  0  0  0  0  0  0  0  0  0  0
  138.7349   75.6279  219.7904 H   0  0  0  0  0  0  0  0  0  0  0  0
  137.2728   76.2628  220.5664 H   0  0  0  0  0  0  0  0  0  0  0  0
  138.7415   78.1379  220.1872 H   0  0  0  0  0  0  0  0  0  0  0  0
  138.8181   77.7213  221.9762 H   0  0  0  0  0  0  0  0  0  0  0  0
  140.8827   76.3459  221.2372 H   0  0  0  0  0  0  0  0  0  0  0  0
  140.8951   77.5000  219.8624 H   0  0  0  0  0  0  0  0  0  0  0  0
  141.4715   79.8925  220.2737 H   0  0  0  0  0  0  0  0  0  0  0  0
  142.4421   81.4925  221.9160 H   0  0  0  0  0  0  0  0  0  0  0  0
  142.6560   80.9210  224.2984 H   0  0  0  0  0  0  0  0  0  0  0  0
  141.8904   78.6874  225.1063 H   0  0  0  0  0  0  0  0  0  0  0  0
  140.9273   77.0956  223.4718 H   0  0  0  0  0  0  0  0  0  0  0  0
  139.1355   69.8711  221.9798 H   0  0  0  0  0  0  0  0  0  0  0  0
  140.5387   69.2281  222.8463 H   0  0  0  0  0  0  0  0  0  0  0  0
  137.7234   69.5413  224.1259 H   0  0  0  0  0  0  0  0  0  0  0  0
  138.2626   68.0241  223.4422 H   0  0  0  0  0  0  0  0  0  0  0  0
  139.2787   66.5824  225.1565 H   0  0  0  0  0  0  0  0  0  0  0  0
  140.7244   66.4000  227.1899 H   0  0  0  0  0  0  0  0  0  0  0  0
  141.6432   68.4387  228.2196 H   0  0  0  0  0  0  0  0  0  0  0  0
  141.1755   70.7001  227.2773 H   0  0  0  0  0  0  0  0  0  0  0  0
  138.5487   71.4232  225.2628 H   0  0  0  0  0  0  0  0  0  0  0  0
  140.2461   71.9903  225.4007 H   0  0  0  0  0  0  0  0  0  0  0  0
  143.2199   74.8007  219.4169 H   0  0  0  0  0  0  0  0  0  0  0  0
  143.2078   75.2361  221.1951 H   0  0  0  0  0  0  0  0  0  0  0  0
  145.4048   75.3228  219.8377 H   0  0  0  0  0  0  0  0  0  0  0  0
  145.3323   74.6168  221.5200 H   0  0  0  0  0  0  0  0  0  0  0  0
  1  2  1  0
  2  3  1  0
  3  4  1  0
  4  5  1  0
  5  6  1  0
  6  7  2  0
  7  8  1  0
  8  9  1  0
  9 10  1  0
 10 11  1  0
 11 12  1  0
 12 13  1  0
 13 14  2  0
 14 15  1  0
 15 16  2  0
 16 17  1  0
 17 18  2  0
  8 19  2  0
 19 20  1  0
 20 21  1  0
 21 22  1  0
 22 23  1  0
 23 24  1  0
 24 25  2  0
 25 26  1  0
 26 27  2  0
 27 28  1  0
 28 29  2  0
 29 30  1  0
 20 31  2  0
  5 32  1  0
 32 33  1  0
 33  2  1  0
 31  6  1  0
 18 13  1  0
 30 21  1  0
 29 24  1  0
  1 34  1  0
  2 35  1  0
  3 36  1  0
  3 37  1  0
  4 38  1  0
  4 39  1  0
  9 40  1  0
 10 41  1  0
 10 42  1  0
 11 43  1  0
 11 44  1  0
 12 45  1  0
 12 46  1  0
 14 47  1  0
 15 48  1  0
 16 49  1  0
 17 50  1  0
 18 51  1  0
 22 52  1  0
 22 53  1  0
 23 54  1  0
 23 55  1  0
 25 56  1  0
 26 57  1  0
 27 58  1  0
 28 59  1  0
 30 60  1  0
 30 61  1  0
 32 62  1  0
 32 63  1  0
 33 64  1  0
 33 65  1  0
M  END
>  <smiles>  (4) 
OC1CCN(c2nc(NCCCc3ccccc3)nc(N3CCc4ccccc4C3)n2)CC1

>  <score_type>  (4) 
oracle

>  <origin>  (4) 
autodockgpu

>  <m_score__min__energy>  (4) 
-10.68

>  <m_primary>  (4) 
energy

>  <rmsd>  (4) 
11.436385177698627

>  <m_score__min__rmsd>  (4) 
11.436385177698627

>  <meeko>  (4) 
{"free_energy": -10.01, "intermolecular_energy": -12.4, "internal_energy": -1.26, "cluster_size": 50, "cluster_id": 1, "rank_in_cluster": 33}

>  <energy>  (4) 
-10.57

>  <cluster_rmsd>  (4) 
0.44

>  <cluster>  (4) 
1

$$$$

     RDKit          3D

 65 69  0  0  0  0  0  0  0  0999 V2000
  146.3090   72.5640  217.3130 O   0  0  0  0  0  0  0  0  0  0  0  0
  145.4400   73.2700  218.1410 C   0  0  0  0  0  0  0  0  0  0  0  0
  145.3550   72.6420  219.5190 C   0  0  0  0  0  0  0  0  0  0  0  0
  144.5590   73.6460  220.3710 C   0  0  0  0  0  0  0  0  0  0  0  0
  143.2050   73.6230  219.8070 N   0  0  0  0  0  0  0  0  0  0  0  0
  142.1090   74.0570  220.5950 C   0  0  0  0  0  0  0  0  0  0  0  0
  141.1540   73.2200  221.0740 N   0  0  0  0  0  0  0  0  0  0  0  0
  140.1190   73.6590  221.7950 C   0  0  0  0  0  0  0  0  0  0  0  0
  139.1220   72.8390  222.3740 N   0  0  0  0  0  0  0  0  0  0  0  0
  139.1450   71.3990  222.4600 C   0  0  0  0  0  0  0  0  0  0  0  0
  138.8730   71.0570  223.9120 C   0  0  0  0  0  0  0  0  0  0  0  0
  139.8540   70.1320  224.5330 C   0  0  0  0  0  0  0  0  0  0  0  0
  140.3190   70.7040  225.8280 C   0  0  0  0  0  0  0  0  0  0  0  0
  141.0680   71.8520  225.9310 C   0  0  0  0  0  0  0  0  0  0  0  0
  141.4550   72.2770  227.2010 C   0  0  0  0  0  0  0  0  0  0  0  0
  141.1130   71.5900  228.3420 C   0  0  0  0  0  0  0  0  0  0  0  0
  140.3640   70.4410  228.2420 C   0  0  0  0  0  0  0  0  0  0  0  0
  139.9810   70.0210  226.9790 C   0  0  0  0  0  0  0  0  0  0  0  0
  140.0020   74.9930  222.0670 N   0  0  0  0  0  0  0  0  0  0  0  0
  140.9270   75.8470  221.6090 C   0  0  0  0  0  0  0  0  0  0  0  0
  140.7950   77.2300  221.8880 N   0  0  0  0  0  0  0  0  0  0  0  0
  139.6740   77.6790  222.7010 C   0  0  0  0  0  0  0  0  0  0  0  0
  139.4330   79.1470  222.3090 C   0  0  0  0  0  0  0  0  0  0  0  0
  140.6700   79.8410  222.8320 C   0  0  0  0  0  0  0  0  0  0  0  0
  140.5960   80.8950  223.7110 C   0  0  0  0  0  0  0  0  0  0  0  0
  141.7830   81.4400  224.1450 C   0  0  0  0  0  0  0  0  0  0  0  0
  142.9780   80.9230  223.6900 C   0  0  0  0  0  0  0  0  0  0  0  0
  143.0350   79.8510  222.7960 C   0  0  0  0  0  0  0  0  0  0  0  0
  141.8640   79.3160  222.3700 C   0  0  0  0  0  0  0  0  0  0  0  0
  141.7590   78.1720  221.4030 C   0  0  0  0  0  0  0  0  0  0  0  0
  141.9720   75.3790  220.8800 N   0  0  0  0  0  0  0  0  0  0  0  0
  142.9530   73.1770  218.4660 C   0  0  0  0  0  0  0  0  0  0  0  0
  144.0760   73.4390  217.5160 C   0  0  0  0  0  0  0  0  0  0  0  0
  145.8490   72.4140  216.4510 H   0  0  0  0  0  0  0  0  0  0  0  0
  145.8585   74.2796  218.2658 H   0  0  0  0  0  0  0  0  0  0  0  0
  144.8310   71.6760  219.4711 H   0  0  0  0  0  0  0  0  0  0  0  0
  146.3505   72.4420  219.9420 H   0  0  0  0  0  0  0  0  0  0  0  0
  144.5451   73.3341  221.4258 H   0  0  0  0  0  0  0  0  0  0  0  0
  145.0016   74.6528  220.3491 H   0  0  0  0  0  0  0  0  0  0  0  0
  138.2910   73.3870  222.7760 H   0  0  0  0  0  0  0  0  0  0  0  0
  138.3669   70.9660  221.8142 H   0  0  0  0  0  0  0  0  0  0  0  0
  140.1117   70.9932  222.1271 H   0  0  0  0  0  0  0  0  0  0  0  0
  138.8742   71.9934  224.4892 H   0  0  0  0  0  0  0  0  0  0  0  0
  137.9049   70.5349  223.9287 H   0  0  0  0  0  0  0  0  0  0  0  0
  139.3773   69.1570  224.7121 H   0  0  0  0  0  0  0  0  0  0  0  0
  140.7132   69.9995  223.8591 H   0  0  0  0  0  0  0  0  0  0  0  0
  141.3547   72.4208  225.0342 H   0  0  0  0  0  0  0  0  0  0  0  0
  142.0551   73.1942  227.2936 H   0  0  0  0  0  0  0  0  0  0  0  0
  141.4361   71.9568  229.3274 H   0  0  0  0  0  0  0  0  0  0  0  0
  140.0775   69.8722  229.1389 H   0  0  0  0  0  0  0  0  0  0  0  0
  139.3814   69.1032  226.8892 H   0  0  0  0  0  0  0  0  0  0  0  0
  138.7802   77.0741  222.4884 H   0  0  0  0  0  0  0  0  0  0  0  0
  139.8866   77.5766  223.7754 H   0  0  0  0  0  0  0  0  0  0  0  0
  139.3485   79.2569  221.2178 H   0  0  0  0  0  0  0  0  0  0  0  0
  138.4978   79.5585  222.7164 H   0  0  0  0  0  0  0  0  0  0  0  0
  139.6271   81.2872  224.0538 H   0  0  0  0  0  0  0  0  0  0  0  0
  141.7786   82.2835  224.8511 H   0  0  0  0  0  0  0  0  0  0  0  0
  143.9188   81.3703  224.0433 H   0  0  0  0  0  0  0  0  0  0  0  0
  143.9999   79.4532  222.4484 H   0  0  0  0  0  0  0  0  0  0  0  0
  141.4415   78.5497  220.4199 H   0  0  0  0  0  0  0  0  0  0  0  0
  142.7382   77.6805  221.3055 H   0  0  0  0  0  0  0  0  0  0  0  0
  142.7675   72.0931  218.4914 H   0  0  0  0  0  0  0  0  0  0  0  0
  142.0869   73.7472  218.0990 H   0  0  0  0  0  0  0  0  0  0  0  0
  143.9897   72.7388  216.6721 H   0  0  0  0  0  0  0  0  0  0  0  0
  143.9928   74.4879  217.1952 H   0  0  0  0  0  0  0  0  0  0  0  0
  1  2  1  0
  2  3  1  0
  3  4  1  0
  4  5  1  0
  5  6  1  0
  6  7  2  0
  7  8  1  0
  8  9  1  0
  9 10  1  0
 10 11  1  0
 11 12  1  0
 12 13  1  0
 13 14  2  0
 14 15  1  0
 15 16  2  0
 16 17  1  0
 17 18  2  0
  8 19  2  0
 19 20  1  0
 20 21  1  0
 21 22  1  0
 22 23  1  0
 23 24  1  0
 24 25  2  0
 25 26  1  0
 26 27  2  0
 27 28  1  0
 28 29  2  0
 29 30  1  0
 20 31  2  0
  5 32  1  0
 32 33  1  0
 33  2  1  0
 31  6  1  0
 18 13  1  0
 30 21  1  0
 29 24  1  0
  1 34  1  0
  2 35  1  0
  3 36  1  0
  3 37  1  0
  4 38  1  0
  4 39  1  0
  9 40  1  0
 10 41  1  0
 10 42  1  0
 11 43  1  0
 11 44  1  0
 12 45  1  0
 12 46  1  0
 14 47  1  0
 15 48  1  0
 16 49  1  0
 17 50  1  0
 18 51  1  0
 22 52  1  0
 22 53  1  0
 23 54  1  0
 23 55  1  0
 25 56  1  0
 26 57  1  0
 27 58  1  0
 28 59  1  0
 30 60  1  0
 30 61  1  0
 32 62  1  0
 32 63  1  0
 33 64  1  0
 33 65  1  0
M  END
>  <smiles>  (5) 
OC1CCN(c2nc(NCCCc3ccccc3)nc(N3CCc4ccccc4C3)n2)CC1

>  <score_type>  (5) 
oracle

>  <origin>  (5) 
autodockgpu

>  <m_score__min__energy>  (5) 
-10.68

>  <m_primary>  (5) 
energy

>  <rmsd>  (5) 
5.61377100324009

>  <m_score__min__rmsd>  (5) 
5.61377100324009

>  <meeko>  (5) 
{"free_energy": -10.36, "intermolecular_energy": -12.74, "internal_energy": -0.99, "cluster_size": 50, "cluster_id": 1, "rank_in_cluster": 9}

>  <energy>  (5) 
-10.52

>  <cluster_rmsd>  (5) 
0.44

>  <cluster>  (5) 
1

$$$$

     RDKit          3D

 65 69  0  0  0  0  0  0  0  0999 V2000
  146.2980   71.5320  219.3370 O   0  0  0  0  0  0  0  0  0  0  0  0
  145.1790   71.8070  220.1210 C   0  0  0  0  0  0  0  0  0  0  0  0
  143.8980   71.4020  219.4180 C   0  0  0  0  0  0  0  0  0  0  0  0
  142.7930   71.5450  220.4790 C   0  0  0  0  0  0  0  0  0  0  0  0
  142.7040   72.9870  220.7340 N   0  0  0  0  0  0  0  0  0  0  0  0
  141.5190   73.5300  221.2920 C   0  0  0  0  0  0  0  0  0  0  0  0
  140.4710   72.7740  221.7050 N   0  0  0  0  0  0  0  0  0  0  0  0
  139.3570   73.3130  222.2070 C   0  0  0  0  0  0  0  0  0  0  0  0
  138.2530   72.5860  222.7090 N   0  0  0  0  0  0  0  0  0  0  0  0
  137.8490   71.2610  222.3060 C   0  0  0  0  0  0  0  0  0  0  0  0
  138.1340   70.3540  223.4870 C   0  0  0  0  0  0  0  0  0  0  0  0
  139.5680   70.0330  223.6990 C   0  0  0  0  0  0  0  0  0  0  0  0
  139.9470   70.3730  225.1000 C   0  0  0  0  0  0  0  0  0  0  0  0
  139.5630   69.6360  226.1950 C   0  0  0  0  0  0  0  0  0  0  0  0
  139.9700   70.0660  227.4580 C   0  0  0  0  0  0  0  0  0  0  0  0
  140.7370   71.1940  227.6370 C   0  0  0  0  0  0  0  0  0  0  0  0
  141.1220   71.9330  226.5430 C   0  0  0  0  0  0  0  0  0  0  0  0
  140.7160   71.5030  225.2920 C   0  0  0  0  0  0  0  0  0  0  0  0
  139.2540   74.6720  222.3140 N   0  0  0  0  0  0  0  0  0  0  0  0
  140.2710   75.4490  221.9160 C   0  0  0  0  0  0  0  0  0  0  0  0
  140.1530   76.8570  222.0230 N   0  0  0  0  0  0  0  0  0  0  0  0
  139.0120   77.4140  222.7340 C   0  0  0  0  0  0  0  0  0  0  0  0
  138.8110   78.8280  222.1610 C   0  0  0  0  0  0  0  0  0  0  0  0
  140.0400   79.5630  222.6440 C   0  0  0  0  0  0  0  0  0  0  0  0
  139.9530   80.7160  223.3880 C   0  0  0  0  0  0  0  0  0  0  0  0
  141.1340   81.2920  223.7990 C   0  0  0  0  0  0  0  0  0  0  0  0
  142.3340   80.7090  223.4550 C   0  0  0  0  0  0  0  0  0  0  0  0
  142.4050   79.5380  222.6970 C   0  0  0  0  0  0  0  0  0  0  0  0
  141.2410   78.9710  222.2940 C   0  0  0  0  0  0  0  0  0  0  0  0
  141.1500   77.7210  221.4660 C   0  0  0  0  0  0  0  0  0  0  0  0
  141.3940   74.8780  221.4110 N   0  0  0  0  0  0  0  0  0  0  0  0
  143.7930   73.8750  220.4370 C   0  0  0  0  0  0  0  0  0  0  0  0
  145.1430   73.2470  220.5700 C   0  0  0  0  0  0  0  0  0  0  0  0
  146.9800   71.1190  219.9210 H   0  0  0  0  0  0  0  0  0  0  0  0
  145.2612   71.1948  221.0312 H   0  0  0  0  0  0  0  0  0  0  0  0
  143.7005   72.0659  218.5635 H   0  0  0  0  0  0  0  0  0  0  0  0
  143.9542   70.3787  219.0183 H   0  0  0  0  0  0  0  0  0  0  0  0
  141.8364   71.1591  220.0969 H   0  0  0  0  0  0  0  0  0  0  0  0
  143.0174   70.9745  221.3923 H   0  0  0  0  0  0  0  0  0  0  0  0
  137.6940   73.1110  223.4590 H   0  0  0  0  0  0  0  0  0  0  0  0
  136.7760   71.2466  222.0644 H   0  0  0  0  0  0  0  0  0  0  0  0
  138.3924   70.9322  221.4079 H   0  0  0  0  0  0  0  0  0  0  0  0
  137.7567   70.8471  224.3950 H   0  0  0  0  0  0  0  0  0  0  0  0
  137.6338   69.3988  223.2692 H   0  0  0  0  0  0  0  0  0  0  0  0
  139.7342   68.9599  223.5235 H   0  0  0  0  0  0  0  0  0  0  0  0
  140.1837   70.6166  222.9987 H   0  0  0  0  0  0  0  0  0  0  0  0
  138.9502   68.7300  226.0782 H   0  0  0  0  0  0  0  0  0  0  0  0
  139.6675   69.4835  228.3407 H   0  0  0  0  0  0  0  0  0  0  0  0
  141.0402   71.5027  228.6483 H   0  0  0  0  0  0  0  0  0  0  0  0
  141.7346   72.8392  226.6590 H   0  0  0  0  0  0  0  0  0  0  0  0
  141.0197   72.0878  224.4112 H   0  0  0  0  0  0  0  0  0  0  0  0
  138.1160   76.7997  222.5614 H   0  0  0  0  0  0  0  0  0  0  0  0
  139.1839   77.4378  223.8202 H   0  0  0  0  0  0  0  0  0  0  0  0
  138.7679   78.8077  221.0620 H   0  0  0  0  0  0  0  0  0  0  0  0
  137.8691   79.2976  222.4808 H   0  0  0  0  0  0  0  0  0  0  0  0
  138.9798   81.1600  223.6443 H   0  0  0  0  0  0  0  0  0  0  0  0
  141.1196   82.2136  224.3994 H   0  0  0  0  0  0  0  0  0  0  0  0
  143.2690   81.1824  223.7891 H   0  0  0  0  0  0  0  0  0  0  0  0
  143.3748   79.0898  222.4351 H   0  0  0  0  0  0  0  0  0  0  0  0
  140.8743   77.9830  220.4338 H   0  0  0  0  0  0  0  0  0  0  0  0
  142.1231   77.2082  221.4640 H   0  0  0  0  0  0  0  0  0  0  0  0
  143.6772   74.2304  219.4025 H   0  0  0  0  0  0  0  0  0  0  0  0
  143.7478   74.6914  221.1728 H   0  0  0  0  0  0  0  0  0  0  0  0
  145.8564   73.8207  219.9601 H   0  0  0  0  0  0  0  0  0  0  0  0
  145.4049   73.2615  221.6383 H   0  0  0  0  0  0  0  0  0  0  0  0
  1  2  1  0
  2  3  1  0
  3  4  1  0
  4  5  1  0
  5  6  1  0
  6  7  2  0
  7  8  1  0
  8  9  1  0
  9 10  1  0
 10 11  1  0
 11 12  1  0
 12 13  1  0
 13 14  2  0
 14 15  1  0
 15 16  2  0
 16 17  1  0
 17 18  2  0
  8 19  2  0
 19 20  1  0
 20 21  1  0
 21 22  1  0
 22 23  1  0
 23 24  1  0
 24 25  2  0
 25 26  1  0
 26 27  2  0
 27 28  1  0
 28 29  2  0
 29 30  1  0
 20 31  2  0
  5 32  1  0
 32 33  1  0
 33  2  1  0
 31  6  1  0
 18 13  1  0
 30 21  1  0
 29 24  1  0
  1 34  1  0
  2 35  1  0
  3 36  1  0
  3 37  1  0
  4 38  1  0
  4 39  1  0
  9 40  1  0
 10 41  1  0
 10 42  1  0
 11 43  1  0
 11 44  1  0
 12 45  1  0
 12 46  1  0
 14 47  1  0
 15 48  1  0
 16 49  1  0
 17 50  1  0
 18 51  1  0
 22 52  1  0
 22 53  1  0
 23 54  1  0
 23 55  1  0
 25 56  1  0
 26 57  1  0
 27 58  1  0
 28 59  1  0
 30 60  1  0
 30 61  1  0
 32 62  1  0
 32 63  1  0
 33 64  1  0
 33 65  1  0
M  END
>  <smiles>  (6) 
OC1CCN(c2nc(NCCCc3ccccc3)nc(N3CCc4ccccc4C3)n2)CC1

>  <score_type>  (6) 
oracle

>  <origin>  (6) 
autodockgpu

>  <m_score__min__energy>  (6) 
-10.68

>  <m_primary>  (6) 
energy

>  <rmsd>  (6) 
5.380663063534234

>  <m_score__min__rmsd>  (6) 
5.380663063534234

>  <meeko>  (6) 
{"free_energy": -9.84, "intermolecular_energy": -12.22, "internal_energy": -1.35, "cluster_size": 50, "cluster_id": 1, "rank_in_cluster": 39}

>  <energy>  (6) 
-10.49

>  <cluster_rmsd>  (6) 
0.45

>  <cluster>  (6) 
1

$$$$

     RDKit          3D

 65 69  0  0  0  0  0  0  0  0999 V2000
  146.3170   71.3370  219.2130 O   0  0  0  0  0  0  0  0  0  0  0  0
  145.1750   72.1160  219.3810 C   0  0  0  0  0  0  0  0  0  0  0  0
  145.3670   73.1540  220.4700 C   0  0  0  0  0  0  0  0  0  0  0  0
  144.1330   74.0700  220.3770 C   0  0  0  0  0  0  0  0  0  0  0  0
  143.0090   73.2230  220.7870 N   0  0  0  0  0  0  0  0  0  0  0  0
  141.8130   73.8220  221.2590 C   0  0  0  0  0  0  0  0  0  0  0  0
  140.6900   73.1200  221.5560 N   0  0  0  0  0  0  0  0  0  0  0  0
  139.5700   73.7130  221.9770 C   0  0  0  0  0  0  0  0  0  0  0  0
  138.3860   73.0420  222.3590 N   0  0  0  0  0  0  0  0  0  0  0  0
  138.1290   71.6280  222.2350 C   0  0  0  0  0  0  0  0  0  0  0  0
  138.4020   71.0260  223.6000 C   0  0  0  0  0  0  0  0  0  0  0  0
  139.7990   70.5740  223.8170 C   0  0  0  0  0  0  0  0  0  0  0  0
  140.1640   70.7700  225.2490 C   0  0  0  0  0  0  0  0  0  0  0  0
  140.8660   71.8560  225.7160 C   0  0  0  0  0  0  0  0  0  0  0  0
  141.1590   71.9170  227.0780 C   0  0  0  0  0  0  0  0  0  0  0  0
  140.7700   70.9350  227.9580 C   0  0  0  0  0  0  0  0  0  0  0  0
  140.0680   69.8480  227.4930 C   0  0  0  0  0  0  0  0  0  0  0  0
  139.7790   69.7890  226.1410 C   0  0  0  0  0  0  0  0  0  0  0  0
  139.5380   75.0720  222.1190 N   0  0  0  0  0  0  0  0  0  0  0  0
  140.6290   75.7960  221.8350 C   0  0  0  0  0  0  0  0  0  0  0  0
  140.5850   77.2050  221.9760 N   0  0  0  0  0  0  0  0  0  0  0  0
  139.4600   77.8060  222.6770 C   0  0  0  0  0  0  0  0  0  0  0  0
  139.3480   79.2430  222.1380 C   0  0  0  0  0  0  0  0  0  0  0  0
  140.6040   79.8970  222.6650 C   0  0  0  0  0  0  0  0  0  0  0  0
  140.5630   81.0340  223.4370 C   0  0  0  0  0  0  0  0  0  0  0  0
  141.7630   81.5350  223.8880 C   0  0  0  0  0  0  0  0  0  0  0  0
  142.9380   80.8960  223.5540 C   0  0  0  0  0  0  0  0  0  0  0  0
  142.9620   79.7420  222.7680 C   0  0  0  0  0  0  0  0  0  0  0  0
  141.7790   79.2490  222.3250 C   0  0  0  0  0  0  0  0  0  0  0  0
  141.6390   78.0280  221.4630 C   0  0  0  0  0  0  0  0  0  0  0  0
  141.7580   75.1720  221.4100 N   0  0  0  0  0  0  0  0  0  0  0  0
  143.0780   71.7890  220.7200 C   0  0  0  0  0  0  0  0  0  0  0  0
  143.9450   71.2740  219.6190 C   0  0  0  0  0  0  0  0  0  0  0  0
  146.6770   71.1330  220.1110 H   0  0  0  0  0  0  0  0  0  0  0  0
  145.0103   72.6569  218.4374 H   0  0  0  0  0  0  0  0  0  0  0  0
  145.4162   72.6723  221.4577 H   0  0  0  0  0  0  0  0  0  0  0  0
  146.3052   73.7141  220.3431 H   0  0  0  0  0  0  0  0  0  0  0  0
  144.2370   74.9309  221.0538 H   0  0  0  0  0  0  0  0  0  0  0  0
  143.9962   74.4826  219.3665 H   0  0  0  0  0  0  0  0  0  0  0  0
  137.6380   73.6880  222.7760 H   0  0  0  0  0  0  0  0  0  0  0  0
  137.0823   71.4549  221.9445 H   0  0  0  0  0  0  0  0  0  0  0  0
  138.7646   71.1718  221.4618 H   0  0  0  0  0  0  0  0  0  0  0  0
  138.1664   71.7845  224.3610 H   0  0  0  0  0  0  0  0  0  0  0  0
  137.7728   70.1266  223.6713 H   0  0  0  0  0  0  0  0  0  0  0  0
  139.8846   69.5082  223.5587 H   0  0  0  0  0  0  0  0  0  0  0  0
  140.4786   71.1595  223.1803 H   0  0  0  0  0  0  0  0  0  0  0  0
  141.1881   72.6559  225.0331 H   0  0  0  0  0  0  0  0  0  0  0  0
  141.7211   72.7812  227.4617 H   0  0  0  0  0  0  0  0  0  0  0  0
  141.0186   71.0183  229.0263 H   0  0  0  0  0  0  0  0  0  0  0  0
  139.7454   69.0484  228.1760 H   0  0  0  0  0  0  0  0  0  0  0  0
  139.2181   68.9227  225.7603 H   0  0  0  0  0  0  0  0  0  0  0  0
  138.5362   77.2461  222.4693 H   0  0  0  0  0  0  0  0  0  0  0  0
  139.6091   77.7933  223.7668 H   0  0  0  0  0  0  0  0  0  0  0  0
  139.3275   79.2532  221.0382 H   0  0  0  0  0  0  0  0  0  0  0  0
  138.4261   79.7550  222.4511 H   0  0  0  0  0  0  0  0  0  0  0  0
  139.6095   81.5236  223.6843 H   0  0  0  0  0  0  0  0  0  0  0  0
  141.7844   82.4408  224.5118 H   0  0  0  0  0  0  0  0  0  0  0  0
  143.8896   81.3095  223.9193 H   0  0  0  0  0  0  0  0  0  0  0  0
  143.9119   79.2478  222.5159 H   0  0  0  0  0  0  0  0  0  0  0  0
  141.4005   78.3309  220.4328 H   0  0  0  0  0  0  0  0  0  0  0  0
  142.5830   77.4634  221.4676 H   0  0  0  0  0  0  0  0  0  0  0  0
  143.4750   71.4167  221.6759 H   0  0  0  0  0  0  0  0  0  0  0  0
  142.0582   71.4303  220.5166 H   0  0  0  0  0  0  0  0  0  0  0  0
  144.2654   70.2535  219.8758 H   0  0  0  0  0  0  0  0  0  0  0  0
  143.3483   71.3024  218.6954 H   0  0  0  0  0  0  0  0  0  0  0  0
  1  2  1  0
  2  3  1  0
  3  4  1  0
  4  5  1  0
  5  6  1  0
  6  7  2  0
  7  8  1  0
  8  9  1  0
  9 10  1  0
 10 11  1  0
 11 12  1  0
 12 13  1  0
 13 14  2  0
 14 15  1  0
 15 16  2  0
 16 17  1  0
 17 18  2  0
  8 19  2  0
 19 20  1  0
 20 21  1  0
 21 22  1  0
 22 23  1  0
 23 24  1  0
 24 25  2  0
 25 26  1  0
 26 27  2  0
 27 28  1  0
 28 29  2  0
 29 30  1  0
 20 31  2  0
  5 32  1  0
 32 33  1  0
 33  2  1  0
 31  6  1  0
 18 13  1  0
 30 21  1  0
 29 24  1  0
  1 34  1  0
  2 35  1  0
  3 36  1  0
  3 37  1  0
  4 38  1  0
  4 39  1  0
  9 40  1  0
 10 41  1  0
 10 42  1  0
 11 43  1  0
 11 44  1  0
 12 45  1  0
 12 46  1  0
 14 47  1  0
 15 48  1  0
 16 49  1  0
 17 50  1  0
 18 51  1  0
 22 52  1  0
 22 53  1  0
 23 54  1  0
 23 55  1  0
 25 56  1  0
 26 57  1  0
 27 58  1  0
 28 59  1  0
 30 60  1  0
 30 61  1  0
 32 62  1  0
 32 63  1  0
 33 64  1  0
 33 65  1  0
M  END
>  <smiles>  (7) 
OC1CCN(c2nc(NCCCc3ccccc3)nc(N3CCc4ccccc4C3)n2)CC1

>  <score_type>  (7) 
oracle

>  <origin>  (7) 
autodockgpu

>  <m_score__min__energy>  (7) 
-10.68

>  <m_primary>  (7) 
energy

>  <rmsd>  (7) 
5.5555745536252

>  <m_score__min__rmsd>  (7) 
5.5555745536252

>  <meeko>  (7) 
{"free_energy": -10.57, "intermolecular_energy": -12.96, "internal_energy": -1.25, "cluster_size": 50, "cluster_id": 1, "rank_in_cluster": 4}

>  <energy>  (7) 
-10.4

>  <cluster_rmsd>  (7) 
0.25

>  <cluster>  (7) 
1

$$$$

     RDKit          3D

 65 69  0  0  0  0  0  0  0  0999 V2000
  146.7050   73.3750  219.1190 O   0  0  0  0  0  0  0  0  0  0  0  0
  145.6350   73.2210  219.9970 C   0  0  0  0  0  0  0  0  0  0  0  0
  144.6570   72.1740  219.4990 C   0  0  0  0  0  0  0  0  0  0  0  0
  143.6760   71.9520  220.6640 C   0  0  0  0  0  0  0  0  0  0  0  0
  142.9340   73.2130  220.7720 N   0  0  0  0  0  0  0  0  0  0  0  0
  141.6660   73.2310  221.4070 C   0  0  0  0  0  0  0  0  0  0  0  0
  140.8050   74.2760  221.3290 N   0  0  0  0  0  0  0  0  0  0  0  0
  139.6250   74.2750  221.9560 C   0  0  0  0  0  0  0  0  0  0  0  0
  138.6560   75.3020  221.8730 N   0  0  0  0  0  0  0  0  0  0  0  0
  138.8840   76.6570  221.4330 C   0  0  0  0  0  0  0  0  0  0  0  0
  139.2340   77.4520  222.6760 C   0  0  0  0  0  0  0  0  0  0  0  0
  139.1280   78.9260  222.5270 C   0  0  0  0  0  0  0  0  0  0  0  0
  140.4300   79.5530  222.8950 C   0  0  0  0  0  0  0  0  0  0  0  0
  140.5390   80.7610  223.5420 C   0  0  0  0  0  0  0  0  0  0  0  0
  141.8160   81.2490  223.8170 C   0  0  0  0  0  0  0  0  0  0  0  0
  142.9560   80.5650  223.4660 C   0  0  0  0  0  0  0  0  0  0  0  0
  142.8490   79.3570  222.8190 C   0  0  0  0  0  0  0  0  0  0  0  0
  141.5800   78.8740  222.5460 C   0  0  0  0  0  0  0  0  0  0  0  0
  139.2600   73.1920  222.7060 N   0  0  0  0  0  0  0  0  0  0  0  0
  140.0870   72.1420  222.8030 C   0  0  0  0  0  0  0  0  0  0  0  0
  139.7040   71.0270  223.5890 N   0  0  0  0  0  0  0  0  0  0  0  0
  139.5910   69.7240  222.9510 C   0  0  0  0  0  0  0  0  0  0  0  0
  138.6030   68.9190  223.8140 C   0  0  0  0  0  0  0  0  0  0  0  0
  139.3680   68.7200  225.1020 C   0  0  0  0  0  0  0  0  0  0  0  0
  139.6050   67.4700  225.6220 C   0  0  0  0  0  0  0  0  0  0  0  0
  140.3330   67.3990  226.7880 C   0  0  0  0  0  0  0  0  0  0  0  0
  140.7870   68.5580  227.3810 C   0  0  0  0  0  0  0  0  0  0  0  0
  140.5370   69.8210  226.8390 C   0  0  0  0  0  0  0  0  0  0  0  0
  139.8200   69.8890  225.6910 C   0  0  0  0  0  0  0  0  0  0  0  0
  139.4580   71.1680  224.9930 C   0  0  0  0  0  0  0  0  0  0  0  0
  141.2800   72.1640  222.1550 N   0  0  0  0  0  0  0  0  0  0  0  0
  143.4600   74.4460  220.2550 C   0  0  0  0  0  0  0  0  0  0  0  0
  144.9510   74.5330  220.2910 C   0  0  0  0  0  0  0  0  0  0  0  0
  146.4760   74.1020  218.4890 H   0  0  0  0  0  0  0  0  0  0  0  0
  146.0468   72.8589  220.9506 H   0  0  0  0  0  0  0  0  0  0  0  0
  144.1228   72.5375  218.6088 H   0  0  0  0  0  0  0  0  0  0  0  0
  145.1648   71.2433  219.2060 H   0  0  0  0  0  0  0  0  0  0  0  0
  142.9935   71.1181  220.4428 H   0  0  0  0  0  0  0  0  0  0  0  0
  144.1930   71.6921  221.5995 H   0  0  0  0  0  0  0  0  0  0  0  0
  137.6740   74.9940  222.1740 H   0  0  0  0  0  0  0  0  0  0  0  0
  139.7150   76.6894  220.7130 H   0  0  0  0  0  0  0  0  0  0  0  0
  137.9972   77.0696  220.9296 H   0  0  0  0  0  0  0  0  0  0  0  0
  138.5546   77.1406  223.4831 H   0  0  0  0  0  0  0  0  0  0  0  0
  140.2918   77.2392  222.8902 H   0  0  0  0  0  0  0  0  0  0  0  0
  138.8829   79.1732  221.4835 H   0  0  0  0  0  0  0  0  0  0  0  0
  138.3354   79.3073  223.1876 H   0  0  0  0  0  0  0  0  0  0  0  0
  139.6428   81.3275  223.8350 H   0  0  0  0  0  0  0  0  0  0  0  0
  141.9149   82.2154  224.3330 H   0  0  0  0  0  0  0  0  0  0  0  0
  143.9465   80.9816  223.7013 H   0  0  0  0  0  0  0  0  0  0  0  0
  143.7453   78.7903  222.5265 H   0  0  0  0  0  0  0  0  0  0  0  0
  141.4845   77.9078  222.0289 H   0  0  0  0  0  0  0  0  0  0  0  0
  139.2054   69.8313  221.9264 H   0  0  0  0  0  0  0  0  0  0  0  0
  140.5674   69.2225  222.8788 H   0  0  0  0  0  0  0  0  0  0  0  0
  137.6759   69.4852  223.9873 H   0  0  0  0  0  0  0  0  0  0  0  0
  138.2850   67.9755  223.3463 H   0  0  0  0  0  0  0  0  0  0  0  0
  139.2282   66.5631  225.1264 H   0  0  0  0  0  0  0  0  0  0  0  0
  140.5515   66.4224  227.2445 H   0  0  0  0  0  0  0  0  0  0  0  0
  141.3662   68.4856  228.3133 H   0  0  0  0  0  0  0  0  0  0  0  0
  140.9106   70.7323  227.3289 H   0  0  0  0  0  0  0  0  0  0  0  0
  138.3932   71.3887  225.1592 H   0  0  0  0  0  0  0  0  0  0  0  0
  140.0677   71.9915  225.3931 H   0  0  0  0  0  0  0  0  0  0  0  0
  143.1325   74.5506  219.2101 H   0  0  0  0  0  0  0  0  0  0  0  0
  143.0786   75.2505  220.9010 H   0  0  0  0  0  0  0  0  0  0  0  0
  145.2754   75.2708  219.5424 H   0  0  0  0  0  0  0  0  0  0  0  0
  145.2346   74.8252  221.3128 H   0  0  0  0  0  0  0  0  0  0  0  0
  1  2  1  0
  2  3  1  0
  3  4  1  0
  4  5  1  0
  5  6  1  0
  6  7  2  0
  7  8  1  0
  8  9  1  0
  9 10  1  0
 10 11  1  0
 11 12  1  0
 12 13  1  0
 13 14  2  0
 14 15  1  0
 15 16  2  0
 16 17  1  0
 17 18  2  0
  8 19  2  0
 19 20  1  0
 20 21  1  0
 21 22  1  0
 22 23  1  0
 23 24  1  0
 24 25  2  0
 25 26  1  0
 26 27  2  0
 27 28  1  0
 28 29  2  0
 29 30  1  0
 20 31  2  0
  5 32  1  0
 32 33  1  0
 33  2  1  0
 31  6  1  0
 18 13  1  0
 30 21  1  0
 29 24  1  0
  1 34  1  0
  2 35  1  0
  3 36  1  0
  3 37  1  0
  4 38  1  0
  4 39  1  0
  9 40  1  0
 10 41  1  0
 10 42  1  0
 11 43  1  0
 11 44  1  0
 12 45  1  0
 12 46  1  0
 14 47  1  0
 15 48  1  0
 16 49  1  0
 17 50  1  0
 18 51  1  0
 22 52  1  0
 22 53  1  0
 23 54  1  0
 23 55  1  0
 25 56  1  0
 26 57  1  0
 27 58  1  0
 28 59  1  0
 30 60  1  0
 30 61  1  0
 32 62  1  0
 32 63  1  0
 33 64  1  0
 33 65  1  0
M  END
>  <smiles>  (8) 
OC1CCN(c2nc(NCCCc3ccccc3)nc(N3CCc4ccccc4C3)n2)CC1

>  <score_type>  (8) 
oracle

>  <origin>  (8) 
autodockgpu

>  <m_score__min__energy>  (8) 
-10.68

>  <m_primary>  (8) 
energy

>  <rmsd>  (8) 
11.443163293870585

>  <m_score__min__rmsd>  (8) 
11.443163293870585

>  <meeko>  (8) 
{"free_energy": -10.11, "intermolecular_energy": -12.5, "internal_energy": -1.0, "cluster_size": 50, "cluster_id": 1, "rank_in_cluster": 26}

>  <energy>  (8) 
-10.36

>  <cluster_rmsd>  (8) 
1.59

>  <cluster>  (8) 
1

$$$$

     RDKit          3D

 65 69  0  0  0  0  0  0  0  0999 V2000
  146.3080   71.4740  218.9710 O   0  0  0  0  0  0  0  0  0  0  0  0
  145.2170   71.7420  219.7950 C   0  0  0  0  0  0  0  0  0  0  0  0
  143.9060   71.4380  219.0950 C   0  0  0  0  0  0  0  0  0  0  0  0
  142.8290   71.5570  220.1870 C   0  0  0  0  0  0  0  0  0  0  0  0
  142.8070   72.9810  220.5360 N   0  0  0  0  0  0  0  0  0  0  0  0
  141.6570   73.5350  221.1530 C   0  0  0  0  0  0  0  0  0  0  0  0
  140.6140   72.7900  221.6000 N   0  0  0  0  0  0  0  0  0  0  0  0
  139.5330   73.3400  222.1580 C   0  0  0  0  0  0  0  0  0  0  0  0
  138.4390   72.6240  222.6970 N   0  0  0  0  0  0  0  0  0  0  0  0
  138.2230   71.2010  222.6060 C   0  0  0  0  0  0  0  0  0  0  0  0
  139.3750   70.5500  223.3470 C   0  0  0  0  0  0  0  0  0  0  0  0
  138.9950   69.8290  224.5880 C   0  0  0  0  0  0  0  0  0  0  0  0
  139.7410   70.4070  225.7420 C   0  0  0  0  0  0  0  0  0  0  0  0
  140.5320   71.5290  225.6550 C   0  0  0  0  0  0  0  0  0  0  0  0
  141.1910   71.9620  226.8050 C   0  0  0  0  0  0  0  0  0  0  0  0
  141.0750   71.3090  228.0090 C   0  0  0  0  0  0  0  0  0  0  0  0
  140.2850   70.1870  228.0980 C   0  0  0  0  0  0  0  0  0  0  0  0
  139.6320   69.7580  226.9550 C   0  0  0  0  0  0  0  0  0  0  0  0
  139.4580   74.6990  222.2910 N   0  0  0  0  0  0  0  0  0  0  0  0
  140.4700   75.4640  221.8600 C   0  0  0  0  0  0  0  0  0  0  0  0
  140.3810   76.8730  221.9940 N   0  0  0  0  0  0  0  0  0  0  0  0
  139.2430   77.4410  222.7000 C   0  0  0  0  0  0  0  0  0  0  0  0
  139.0810   78.8700  222.1530 C   0  0  0  0  0  0  0  0  0  0  0  0
  140.3190   79.5680  222.6670 C   0  0  0  0  0  0  0  0  0  0  0  0
  140.2480   80.7070  223.4320 C   0  0  0  0  0  0  0  0  0  0  0  0
  141.4350   81.2500  223.8700 C   0  0  0  0  0  0  0  0  0  0  0  0
  142.6270   80.6470  223.5300 C   0  0  0  0  0  0  0  0  0  0  0  0
  142.6820   79.4890  222.7500 C   0  0  0  0  0  0  0  0  0  0  0  0
  141.5120   78.9560  222.3210 C   0  0  0  0  0  0  0  0  0  0  0  0
  141.4050   77.7250  221.4670 C   0  0  0  0  0  0  0  0  0  0  0  0
  141.5610   74.8830  221.2980 N   0  0  0  0  0  0  0  0  0  0  0  0
  143.9270   73.8410  220.2740 C   0  0  0  0  0  0  0  0  0  0  0  0
  145.2500   73.1510  220.3360 C   0  0  0  0  0  0  0  0  0  0  0  0
  146.2180   70.5430  218.6470 H   0  0  0  0  0  0  0  0  0  0  0  0
  145.2909   71.0679  220.6611 H   0  0  0  0  0  0  0  0  0  0  0  0
  143.7210   72.1644  218.2899 H   0  0  0  0  0  0  0  0  0  0  0  0
  143.9103   70.4419  218.6284 H   0  0  0  0  0  0  0  0  0  0  0  0
  141.8495   71.2370  219.8020 H   0  0  0  0  0  0  0  0  0  0  0  0
  143.0462   70.9192  221.0565 H   0  0  0  0  0  0  0  0  0  0  0  0
  137.7300   73.2420  223.2130 H   0  0  0  0  0  0  0  0  0  0  0  0
  137.2658   70.9298  223.0754 H   0  0  0  0  0  0  0  0  0  0  0  0
  138.1810   70.8681  221.5584 H   0  0  0  0  0  0  0  0  0  0  0  0
  139.8547   69.8302  222.6674 H   0  0  0  0  0  0  0  0  0  0  0  0
  140.0417   71.3677  223.6583 H   0  0  0  0  0  0  0  0  0  0  0  0
  137.9136   69.9362  224.7587 H   0  0  0  0  0  0  0  0  0  0  0  0
  139.2440   68.7625  224.4853 H   0  0  0  0  0  0  0  0  0  0  0  0
  140.6417   72.0702  224.7036 H   0  0  0  0  0  0  0  0  0  0  0  0
  141.8263   72.8581  226.7466 H   0  0  0  0  0  0  0  0  0  0  0  0
  141.6103   71.6813  228.8949 H   0  0  0  0  0  0  0  0  0  0  0  0
  140.1751   69.6461  229.0495 H   0  0  0  0  0  0  0  0  0  0  0  0
  138.9987   68.8607  227.0164 H   0  0  0  0  0  0  0  0  0  0  0  0
  138.3362   76.8503  222.5029 H   0  0  0  0  0  0  0  0  0  0  0  0
  139.4002   77.4396  223.7887 H   0  0  0  0  0  0  0  0  0  0  0  0
  139.0526   78.8724  221.0534 H   0  0  0  0  0  0  0  0  0  0  0  0
  138.1453   79.3539  222.4696 H   0  0  0  0  0  0  0  0  0  0  0  0
  139.2812   81.1669  223.6846 H   0  0  0  0  0  0  0  0  0  0  0  0
  141.4321   82.1601  224.4879 H   0  0  0  0  0  0  0  0  0  0  0  0
  143.5677   81.0930  223.8851 H   0  0  0  0  0  0  0  0  0  0  0  0
  143.6451   79.0243  222.4921 H   0  0  0  0  0  0  0  0  0  0  0  0
  141.1495   78.0132  220.4366 H   0  0  0  0  0  0  0  0  0  0  0  0
  142.3665   77.1906  221.4673 H   0  0  0  0  0  0  0  0  0  0  0  0
  143.8068   74.2687  219.2677 H   0  0  0  0  0  0  0  0  0  0  0  0
  143.9307   74.6080  221.0625 H   0  0  0  0  0  0  0  0  0  0  0  0
  145.9749   73.7333  219.7483 H   0  0  0  0  0  0  0  0  0  0  0  0
  145.5325   73.0850  221.3970 H   0  0  0  0  0  0  0  0  0  0  0  0
  1  2  1  0
  2  3  1  0
  3  4  1  0
  4  5  1  0
  5  6  1  0
  6  7  2  0
  7  8  1  0
  8  9  1  0
  9 10  1  0
 10 11  1  0
 11 12  1  0
 12 13  1  0
 13 14  2  0
 14 15  1  0
 15 16  2  0
 16 17  1  0
 17 18  2  0
  8 19  2  0
 19 20  1  0
 20 21  1  0
 21 22  1  0
 22 23  1  0
 23 24  1  0
 24 25  2  0
 25 26  1  0
 26 27  2  0
 27 28  1  0
 28 29  2  0
 29 30  1  0
 20 31  2  0
  5 32  1  0
 32 33  1  0
 33  2  1  0
 31  6  1  0
 18 13  1  0
 30 21  1  0
 29 24  1  0
  1 34  1  0
  2 35  1  0
  3 36  1  0
  3 37  1  0
  4 38  1  0
  4 39  1  0
  9 40  1  0
 10 41  1  0
 10 42  1  0
 11 43  1  0
 11 44  1  0
 12 45  1  0
 12 46  1  0
 14 47  1  0
 15 48  1  0
 16 49  1  0
 17 50  1  0
 18 51  1  0
 22 52  1  0
 22 53  1  0
 23 54  1  0
 23 55  1  0
 25 56  1  0
 26 57  1  0
 27 58  1  0
 28 59  1  0
 30 60  1  0
 30 61  1  0
 32 62  1  0
 32 63  1  0
 33 64  1  0
 33 65  1  0
M  END
>  <smiles>  (9) 
OC1CCN(c2nc(NCCCc3ccccc3)nc(N3CCc4ccccc4C3)n2)CC1

>  <score_type>  (9) 
oracle

>  <origin>  (9) 
autodockgpu

>  <m_score__min__energy>  (9) 
-10.68

>  <m_primary>  (9) 
energy

>  <rmsd>  (9) 
5.427818994240144

>  <m_score__min__rmsd>  (9) 
5.427818994240144

>  <meeko>  (9) 
{"free_energy": -10.2, "intermolecular_energy": -12.59, "internal_energy": -1.18, "cluster_size": 50, "cluster_id": 1, "rank_in_cluster": 19}

>  <energy>  (9) 
-10.36

>  <cluster_rmsd>  (9) 
1.19

>  <cluster>  (9) 
1

$$$$

     RDKit          3D

 65 69  0  0  0  0  0  0  0  0999 V2000
  146.3130   71.2460  219.2920 O   0  0  0  0  0  0  0  0  0  0  0  0
  145.1390   71.9730  219.4770 C   0  0  0  0  0  0  0  0  0  0  0  0
  145.2980   73.0090  220.5730 C   0  0  0  0  0  0  0  0  0  0  0  0
  144.0250   73.8710  220.5010 C   0  0  0  0  0  0  0  0  0  0  0  0
  142.9420   72.9730  220.9150 N   0  0  0  0  0  0  0  0  0  0  0  0
  141.7270   73.5160  221.4040 C   0  0  0  0  0  0  0  0  0  0  0  0
  140.6560   72.7590  221.7560 N   0  0  0  0  0  0  0  0  0  0  0  0
  139.5150   73.2980  222.1920 C   0  0  0  0  0  0  0  0  0  0  0  0
  138.3840   72.5710  222.6300 N   0  0  0  0  0  0  0  0  0  0  0  0
  137.9080   71.3240  222.0840 C   0  0  0  0  0  0  0  0  0  0  0  0
  138.1690   70.2710  223.1430 C   0  0  0  0  0  0  0  0  0  0  0  0
  139.6020   69.9580  223.3770 C   0  0  0  0  0  0  0  0  0  0  0  0
  139.9790   70.3800  224.7560 C   0  0  0  0  0  0  0  0  0  0  0  0
  140.7000   71.5160  225.0370 C   0  0  0  0  0  0  0  0  0  0  0  0
  141.0030   71.7930  226.3690 C   0  0  0  0  0  0  0  0  0  0  0  0
  140.6060   70.9730  227.3990 C   0  0  0  0  0  0  0  0  0  0  0  0
  139.8850   69.8360  227.1210 C   0  0  0  0  0  0  0  0  0  0  0  0
  139.5860   69.5630  225.7970 C   0  0  0  0  0  0  0  0  0  0  0  0
  139.4060   74.6570  222.2930 N   0  0  0  0  0  0  0  0  0  0  0  0
  140.4440   75.4340  221.9540 C   0  0  0  0  0  0  0  0  0  0  0  0
  140.3190   76.8420  222.0540 N   0  0  0  0  0  0  0  0  0  0  0  0
  139.1570   77.3990  222.7290 C   0  0  0  0  0  0  0  0  0  0  0  0
  138.9690   78.8110  222.1470 C   0  0  0  0  0  0  0  0  0  0  0  0
  140.1820   79.5500  222.6630 C   0  0  0  0  0  0  0  0  0  0  0  0
  140.0710   80.7040  223.4010 C   0  0  0  0  0  0  0  0  0  0  0  0
  141.2370   81.2850  223.8450 C   0  0  0  0  0  0  0  0  0  0  0  0
  142.4490   80.7040  223.5380 C   0  0  0  0  0  0  0  0  0  0  0  0
  142.5440   79.5300  222.7860 C   0  0  0  0  0  0  0  0  0  0  0  0
  141.3940   78.9590  222.3500 C   0  0  0  0  0  0  0  0  0  0  0  0
  141.3300   77.7070  221.5240 C   0  0  0  0  0  0  0  0  0  0  0  0
  141.5950   74.8640  221.5150 N   0  0  0  0  0  0  0  0  0  0  0  0
  143.0720   71.5440  220.8350 C   0  0  0  0  0  0  0  0  0  0  0  0
  143.9500   71.0760  219.7200 C   0  0  0  0  0  0  0  0  0  0  0  0
  146.7000   71.0670  220.1840 H   0  0  0  0  0  0  0  0  0  0  0  0
  144.9398   72.5134  218.5399 H   0  0  0  0  0  0  0  0  0  0  0  0
  145.3788   72.5216  221.5558 H   0  0  0  0  0  0  0  0  0  0  0  0
  146.2097   73.6102  220.4414 H   0  0  0  0  0  0  0  0  0  0  0  0
  144.0991   74.7298  221.1844 H   0  0  0  0  0  0  0  0  0  0  0  0
  143.8599   74.2854  219.4955 H   0  0  0  0  0  0  0  0  0  0  0  0
  137.8650   73.0300  223.4490 H   0  0  0  0  0  0  0  0  0  0  0  0
  136.8314   71.3887  221.8679 H   0  0  0  0  0  0  0  0  0  0  0  0
  138.4183   71.0788  221.1409 H   0  0  0  0  0  0  0  0  0  0  0  0
  137.7381   70.6260  224.0908 H   0  0  0  0  0  0  0  0  0  0  0  0
  137.7078   69.3430  222.7741 H   0  0  0  0  0  0  0  0  0  0  0  0
  139.7646   68.8757  223.2664 H   0  0  0  0  0  0  0  0  0  0  0  0
  140.2214   70.4962  222.6444 H   0  0  0  0  0  0  0  0  0  0  0  0
  141.0293   72.1890  224.2316 H   0  0  0  0  0  0  0  0  0  0  0  0
  141.5800   72.6994  226.6045 H   0  0  0  0  0  0  0  0  0  0  0  0
  140.8636   71.2251  228.4383 H   0  0  0  0  0  0  0  0  0  0  0  0
  139.5555   69.1632  227.9264 H   0  0  0  0  0  0  0  0  0  0  0  0
  139.0100   68.6552  225.5644 H   0  0  0  0  0  0  0  0  0  0  0  0
  138.2677   76.7822  222.5320 H   0  0  0  0  0  0  0  0  0  0  0  0
  139.2977   77.4267  223.8196 H   0  0  0  0  0  0  0  0  0  0  0  0
  138.9572   78.7879  221.0473 H   0  0  0  0  0  0  0  0  0  0  0  0
  138.0172   79.2791  222.4386 H   0  0  0  0  0  0  0  0  0  0  0  0
  139.0894   81.1457  223.6278 H   0  0  0  0  0  0  0  0  0  0  0  0
  141.2021   82.2083  224.4419 H   0  0  0  0  0  0  0  0  0  0  0  0
  143.3729   81.1809  223.8973 H   0  0  0  0  0  0  0  0  0  0  0  0
  143.5220   79.0827  222.5548 H   0  0  0  0  0  0  0  0  0  0  0  0
  141.0841   77.9654  220.4834 H   0  0  0  0  0  0  0  0  0  0  0  0
  142.3039   77.1965  221.5523 H   0  0  0  0  0  0  0  0  0  0  0  0
  143.4944   71.1813  221.7837 H   0  0  0  0  0  0  0  0  0  0  0  0
  142.0667   71.1430  220.6388 H   0  0  0  0  0  0  0  0  0  0  0  0
  144.3175   70.0685  219.9648 H   0  0  0  0  0  0  0  0  0  0  0  0
  143.3430   71.0855  218.8027 H   0  0  0  0  0  0  0  0  0  0  0  0
  1  2  1  0
  2  3  1  0
  3  4  1  0
  4  5  1  0
  5  6  1  0
  6  7  2  0
  7  8  1  0
  8  9  1  0
  9 10  1  0
 10 11  1  0
 11 12  1  0
 12 13  1  0
 13 14  2  0
 14 15  1  0
 15 16  2  0
 16 17  1  0
 17 18  2  0
  8 19  2  0
 19 20  1  0
 20 21  1  0
 21 22  1  0
 22 23  1  0
 23 24  1  0
 24 25  2  0
 25 26  1  0
 26 27  2  0
 27 28  1  0
 28 29  2  0
 29 30  1  0
 20 31  2  0
  5 32  1  0
 32 33  1  0
 33  2  1  0
 31  6  1  0
 18 13  1  0
 30 21  1  0
 29 24  1  0
  1 34  1  0
  2 35  1  0
  3 36  1  0
  3 37  1  0
  4 38  1  0
  4 39  1  0
  9 40  1  0
 10 41  1  0
 10 42  1  0
 11 43  1  0
 11 44  1  0
 12 45  1  0
 12 46  1  0
 14 47  1  0
 15 48  1  0
 16 49  1  0
 17 50  1  0
 18 51  1  0
 22 52  1  0
 22 53  1  0
 23 54  1  0
 23 55  1  0
 25 56  1  0
 26 57  1  0
 27 58  1  0
 28 59  1  0
 30 60  1  0
 30 61  1  0
 32 62  1  0
 32 63  1  0
 33 64  1  0
 33 65  1  0
M  END
>  <smiles>  (10) 
OC1CCN(c2nc(NCCCc3ccccc3)nc(N3CCc4ccccc4C3)n2)CC1

>  <score_type>  (10) 
oracle

>  <origin>  (10) 
autodockgpu

>  <m_score__min__energy>  (10) 
-10.68

>  <m_primary>  (10) 
energy

>  <rmsd>  (10) 
5.398657066662052

>  <m_score__min__rmsd>  (10) 
5.398657066662052

>  <meeko>  (10) 
{"free_energy": -9.98, "intermolecular_energy": -12.36, "internal_energy": -1.43, "cluster_size": 50, "cluster_id": 1, "rank_in_cluster": 35}

>  <energy>  (10) 
-10.32

>  <cluster_rmsd>  (10) 
1.15

>  <cluster>  (10) 
1

$$$$

     RDKit          3D

 65 69  0  0  0  0  0  0  0  0999 V2000
  146.7030   73.2040  219.2840 O   0  0  0  0  0  0  0  0  0  0  0  0
  145.6050   73.0780  220.1320 C   0  0  0  0  0  0  0  0  0  0  0  0
  144.5900   72.0960  219.5800 C   0  0  0  0  0  0  0  0  0  0  0  0
  143.5700   71.8890  220.7140 C   0  0  0  0  0  0  0  0  0  0  0  0
  142.8890   73.1820  220.8430 N   0  0  0  0  0  0  0  0  0  0  0  0
  141.6080   73.2430  221.4490 C   0  0  0  0  0  0  0  0  0  0  0  0
  140.7310   74.2590  221.2440 N   0  0  0  0  0  0  0  0  0  0  0  0
  139.5400   74.3030  221.8450 C   0  0  0  0  0  0  0  0  0  0  0  0
  138.5560   75.2960  221.6340 N   0  0  0  0  0  0  0  0  0  0  0  0
  138.6860   76.7020  221.9300 C   0  0  0  0  0  0  0  0  0  0  0  0
  139.4980   77.3000  220.7970 C   0  0  0  0  0  0  0  0  0  0  0  0
  140.9690   77.2670  220.9950 C   0  0  0  0  0  0  0  0  0  0  0  0
  141.3550   78.3030  221.9950 C   0  0  0  0  0  0  0  0  0  0  0  0
  141.4630   78.0600  223.3440 C   0  0  0  0  0  0  0  0  0  0  0  0
  141.8180   79.1190  224.1790 C   0  0  0  0  0  0  0  0  0  0  0  0
  142.0620   80.3840  223.6990 C   0  0  0  0  0  0  0  0  0  0  0  0
  141.9550   80.6290  222.3500 C   0  0  0  0  0  0  0  0  0  0  0  0
  141.6020   79.5770  221.5230 C   0  0  0  0  0  0  0  0  0  0  0  0
  139.1760   73.2990  222.6990 N   0  0  0  0  0  0  0  0  0  0  0  0
  140.0190   72.2810  222.9240 C   0  0  0  0  0  0  0  0  0  0  0  0
  139.6380   71.2490  223.8170 N   0  0  0  0  0  0  0  0  0  0  0  0
  138.9860   70.0630  223.2840 C   0  0  0  0  0  0  0  0  0  0  0  0
  138.1620   69.4790  224.4450 C   0  0  0  0  0  0  0  0  0  0  0  0
  139.2280   69.0070  225.4080 C   0  0  0  0  0  0  0  0  0  0  0  0
  139.2870   67.7060  225.8470 C   0  0  0  0  0  0  0  0  0  0  0  0
  140.3130   67.3750  226.7030 C   0  0  0  0  0  0  0  0  0  0  0  0
  141.2220   68.3390  227.0840 C   0  0  0  0  0  0  0  0  0  0  0  0
  141.1470   69.6570  226.6290 C   0  0  0  0  0  0  0  0  0  0  0  0
  140.1360   69.9820  225.7850 C   0  0  0  0  0  0  0  0  0  0  0  0
  139.9130   71.3540  225.2190 C   0  0  0  0  0  0  0  0  0  0  0  0
  141.2240   72.2560  222.3000 N   0  0  0  0  0  0  0  0  0  0  0  0
  143.4870   74.4010  220.3770 C   0  0  0  0  0  0  0  0  0  0  0  0
  144.9790   74.4140  220.4500 C   0  0  0  0  0  0  0  0  0  0  0  0
  146.7700   74.1540  219.0170 H   0  0  0  0  0  0  0  0  0  0  0  0
  145.9746   72.6684  221.0837 H   0  0  0  0  0  0  0  0  0  0  0  0
  144.0968   72.5112  218.6887 H   0  0  0  0  0  0  0  0  0  0  0  0
  145.0591   71.1501  219.2714 H   0  0  0  0  0  0  0  0  0  0  0  0
  142.8529   71.0974  220.4510 H   0  0  0  0  0  0  0  0  0  0  0  0
  144.0496   71.5757  221.6531 H   0  0  0  0  0  0  0  0  0  0  0  0
  137.6450   74.9200  221.2110 H   0  0  0  0  0  0  0  0  0  0  0  0
  137.6939   77.1747  221.9789 H   0  0  0  0  0  0  0  0  0  0  0  0
  139.1750   76.8633  222.9020 H   0  0  0  0  0  0  0  0  0  0  0  0
  139.2646   76.7421  219.8782 H   0  0  0  0  0  0  0  0  0  0  0  0
  139.2182   78.3625  220.7452 H   0  0  0  0  0  0  0  0  0  0  0  0
  141.2683   76.2737  221.3608 H   0  0  0  0  0  0  0  0  0  0  0  0
  141.4741   77.4711  220.0394 H   0  0  0  0  0  0  0  0  0  0  0  0
  141.2744   77.0567  223.7538 H   0  0  0  0  0  0  0  0  0  0  0  0
  141.9059   78.9357  225.2601 H   0  0  0  0  0  0  0  0  0  0  0  0
  142.3407   81.1942  224.3889 H   0  0  0  0  0  0  0  0  0  0  0  0
  142.1445   81.6321  221.9402 H   0  0  0  0  0  0  0  0  0  0  0  0
  141.5144   79.7638  220.4425 H   0  0  0  0  0  0  0  0  0  0  0  0
  138.3278   70.3324  222.4448 H   0  0  0  0  0  0  0  0  0  0  0  0
  139.7179   69.3363  222.9018 H   0  0  0  0  0  0  0  0  0  0  0  0
  137.5250   70.2487  224.9052 H   0  0  0  0  0  0  0  0  0  0  0  0
  137.4735   68.6803  224.1319 H   0  0  0  0  0  0  0  0  0  0  0  0
  138.5447   66.9597  225.5274 H   0  0  0  0  0  0  0  0  0  0  0  0
  140.4071   66.3464  227.0812 H   0  0  0  0  0  0  0  0  0  0  0  0
  142.0349   68.0601  227.7706 H   0  0  0  0  0  0  0  0  0  0  0  0
  141.8852   70.4087  226.9453 H   0  0  0  0  0  0  0  0  0  0  0  0
  139.0591   71.8265  225.7265 H   0  0  0  0  0  0  0  0  0  0  0  0
  140.8134   71.9669  225.3729 H   0  0  0  0  0  0  0  0  0  0  0  0
  143.1909   74.5525  219.3285 H   0  0  0  0  0  0  0  0  0  0  0  0
  143.1296   75.2035  221.0390 H   0  0  0  0  0  0  0  0  0  0  0  0
  145.3570   75.1563  219.7316 H   0  0  0  0  0  0  0  0  0  0  0  0
  145.2519   74.6627  221.4862 H   0  0  0  0  0  0  0  0  0  0  0  0
  1  2  1  0
  2  3  1  0
  3  4  1  0
  4  5  1  0
  5  6  1  0
  6  7  2  0
  7  8  1  0
  8  9  1  0
  9 10  1  0
 10 11  1  0
 11 12  1  0
 12 13  1  0
 13 14  2  0
 14 15  1  0
 15 16  2  0
 16 17  1  0
 17 18  2  0
  8 19  2  0
 19 20  1  0
 20 21  1  0
 21 22  1  0
 22 23  1  0
 23 24  1  0
 24 25  2  0
 25 26  1  0
 26 27  2  0
 27 28  1  0
 28 29  2  0
 29 30  1  0
 20 31  2  0
  5 32  1  0
 32 33  1  0
 33  2  1  0
 31  6  1  0
 18 13  1  0
 30 21  1  0
 29 24  1  0
  1 34  1  0
  2 35  1  0
  3 36  1  0
  3 37  1  0
  4 38  1  0
  4 39  1  0
  9 40  1  0
 10 41  1  0
 10 42  1  0
 11 43  1  0
 11 44  1  0
 12 45  1  0
 12 46  1  0
 14 47  1  0
 15 48  1  0
 16 49  1  0
 17 50  1  0
 18 51  1  0
 22 52  1  0
 22 53  1  0
 23 54  1  0
 23 55  1  0
 25 56  1  0
 26 57  1  0
 27 58  1  0
 28 59  1  0
 30 60  1  0
 30 61  1  0
 32 62  1  0
 32 63  1  0
 33 64  1  0
 33 65  1  0
M  END
>  <smiles>  (11) 
OC1CCN(c2nc(NCCCc3ccccc3)nc(N3CCc4ccccc4C3)n2)CC1

>  <score_type>  (11) 
oracle

>  <origin>  (11) 
autodockgpu

>  <m_score__min__energy>  (11) 
-10.68

>  <m_primary>  (11) 
energy

>  <rmsd>  (11) 
11.414725030765721

>  <m_score__min__rmsd>  (11) 
11.414725030765721

>  <meeko>  (11) 
{"free_energy": -9.89, "intermolecular_energy": -12.28, "internal_energy": -1.29, "cluster_size": 50, "cluster_id": 1, "rank_in_cluster": 38}

>  <energy>  (11) 
-10.31

>  <cluster_rmsd>  (11) 
1.05

>  <cluster>  (11) 
1

$$$$

     RDKit          3D

 65 69  0  0  0  0  0  0  0  0999 V2000
  146.3620   71.3630  219.3600 O   0  0  0  0  0  0  0  0  0  0  0  0
  145.2050   72.1260  219.4960 C   0  0  0  0  0  0  0  0  0  0  0  0
  145.3710   73.2000  220.5540 C   0  0  0  0  0  0  0  0  0  0  0  0
  144.1220   74.0900  220.4250 C   0  0  0  0  0  0  0  0  0  0  0  0
  143.0100   73.2360  220.8550 N   0  0  0  0  0  0  0  0  0  0  0  0
  141.8010   73.8280  221.3010 C   0  0  0  0  0  0  0  0  0  0  0  0
  140.6750   73.1200  221.5700 N   0  0  0  0  0  0  0  0  0  0  0  0
  139.5430   73.7060  221.9670 C   0  0  0  0  0  0  0  0  0  0  0  0
  138.3540   73.0270  222.3210 N   0  0  0  0  0  0  0  0  0  0  0  0
  138.2560   71.6720  222.8040 C   0  0  0  0  0  0  0  0  0  0  0  0
  139.5290   71.4070  223.5840 C   0  0  0  0  0  0  0  0  0  0  0  0
  139.4370   70.3080  224.5790 C   0  0  0  0  0  0  0  0  0  0  0  0
  140.0560   70.7510  225.8610 C   0  0  0  0  0  0  0  0  0  0  0  0
  140.8320   71.8800  225.9840 C   0  0  0  0  0  0  0  0  0  0  0  0
  141.3670   72.1790  227.2360 C   0  0  0  0  0  0  0  0  0  0  0  0
  141.1450   71.3880  228.3390 C   0  0  0  0  0  0  0  0  0  0  0  0
  140.3700   70.2590  228.2180 C   0  0  0  0  0  0  0  0  0  0  0  0
  139.8400   69.9640  226.9740 C   0  0  0  0  0  0  0  0  0  0  0  0
  139.5000   75.0640  222.1110 N   0  0  0  0  0  0  0  0  0  0  0  0
  140.5940   75.7940  221.8530 C   0  0  0  0  0  0  0  0  0  0  0  0
  140.5390   77.2030  221.9970 N   0  0  0  0  0  0  0  0  0  0  0  0
  139.4230   77.7920  222.7210 C   0  0  0  0  0  0  0  0  0  0  0  0
  139.2860   79.2280  222.1850 C   0  0  0  0  0  0  0  0  0  0  0  0
  140.5460   79.8950  222.6870 C   0  0  0  0  0  0  0  0  0  0  0  0
  140.5100   81.0300  223.4610 C   0  0  0  0  0  0  0  0  0  0  0  0
  141.7140   81.5430  223.8870 C   0  0  0  0  0  0  0  0  0  0  0  0
  142.8890   80.9150  223.5290 C   0  0  0  0  0  0  0  0  0  0  0  0
  142.9070   79.7620  222.7410 C   0  0  0  0  0  0  0  0  0  0  0  0
  141.7200   79.2580  222.3230 C   0  0  0  0  0  0  0  0  0  0  0  0
  141.5750   78.0360  221.4630 C   0  0  0  0  0  0  0  0  0  0  0  0
  141.7350   75.1770  221.4530 N   0  0  0  0  0  0  0  0  0  0  0  0
  143.1050   71.8030  220.8330 C   0  0  0  0  0  0  0  0  0  0  0  0
  143.9890   71.2690  219.7530 C   0  0  0  0  0  0  0  0  0  0  0  0
  146.6700   71.1180  220.2670 H   0  0  0  0  0  0  0  0  0  0  0  0
  145.0368   72.6344  218.5351 H   0  0  0  0  0  0  0  0  0  0  0  0
  145.4218   72.7496  221.5563 H   0  0  0  0  0  0  0  0  0  0  0  0
  146.3000   73.7728  220.4162 H   0  0  0  0  0  0  0  0  0  0  0  0
  144.2064   74.9734  221.0750 H   0  0  0  0  0  0  0  0  0  0  0  0
  143.9845   74.4681  219.4012 H   0  0  0  0  0  0  0  0  0  0  0  0
  137.4660   73.6190  222.2030 H   0  0  0  0  0  0  0  0  0  0  0  0
  137.3784   71.5631  223.4582 H   0  0  0  0  0  0  0  0  0  0  0  0
  138.1385   70.9587  221.9749 H   0  0  0  0  0  0  0  0  0  0  0  0
  140.3225   71.1521  222.8661 H   0  0  0  0  0  0  0  0  0  0  0  0
  139.7362   72.3235  224.1558 H   0  0  0  0  0  0  0  0  0  0  0  0
  138.3803   70.0542  224.7495 H   0  0  0  0  0  0  0  0  0  0  0  0
  139.9680   69.4224  224.2000 H   0  0  0  0  0  0  0  0  0  0  0  0
  141.0252   72.5296  225.1176 H   0  0  0  0  0  0  0  0  0  0  0  0
  141.9889   73.0797  227.3457 H   0  0  0  0  0  0  0  0  0  0  0  0
  141.5844   71.6568  229.3110 H   0  0  0  0  0  0  0  0  0  0  0  0
  140.1768   69.6093  229.0843 H   0  0  0  0  0  0  0  0  0  0  0  0
  139.2190   69.0623  226.8676 H   0  0  0  0  0  0  0  0  0  0  0  0
  138.5008   77.2230  222.5319 H   0  0  0  0  0  0  0  0  0  0  0  0
  139.5941   77.7802  223.8075 H   0  0  0  0  0  0  0  0  0  0  0  0
  139.2433   79.2382  221.0859 H   0  0  0  0  0  0  0  0  0  0  0  0
  138.3655   79.7306  222.5170 H   0  0  0  0  0  0  0  0  0  0  0  0
  139.5570   81.5093  223.7293 H   0  0  0  0  0  0  0  0  0  0  0  0
  141.7393   82.4493  224.5099 H   0  0  0  0  0  0  0  0  0  0  0  0
  143.8440   81.3366  223.8759 H   0  0  0  0  0  0  0  0  0  0  0  0
  143.8559   79.2774  222.4677 H   0  0  0  0  0  0  0  0  0  0  0  0
  141.3132   78.3368  220.4378 H   0  0  0  0  0  0  0  0  0  0  0  0
  142.5243   77.4805  221.4480 H   0  0  0  0  0  0  0  0  0  0  0  0
  143.5022   71.4678  221.8025 H   0  0  0  0  0  0  0  0  0  0  0  0
  142.0931   71.4200  220.6345 H   0  0  0  0  0  0  0  0  0  0  0  0
  144.3263   70.2632  220.0438 H   0  0  0  0  0  0  0  0  0  0  0  0
  143.3979   71.2569  218.8254 H   0  0  0  0  0  0  0  0  0  0  0  0
  1  2  1  0
  2  3  1  0
  3  4  1  0
  4  5  1  0
  5  6  1  0
  6  7  2  0
  7  8  1  0
  8  9  1  0
  9 10  1  0
 10 11  1  0
 11 12  1  0
 12 13  1  0
 13 14  2  0
 14 15  1  0
 15 16  2  0
 16 17  1  0
 17 18  2  0
  8 19  2  0
 19 20  1  0
 20 21  1  0
 21 22  1  0
 22 23  1  0
 23 24  1  0
 24 25  2  0
 25 26  1  0
 26 27  2  0
 27 28  1  0
 28 29  2  0
 29 30  1  0
 20 31  2  0
  5 32  1  0
 32 33  1  0
 33  2  1  0
 31  6  1  0
 18 13  1  0
 30 21  1  0
 29 24  1  0
  1 34  1  0
  2 35  1  0
  3 36  1  0
  3 37  1  0
  4 38  1  0
  4 39  1  0
  9 40  1  0
 10 41  1  0
 10 42  1  0
 11 43  1  0
 11 44  1  0
 12 45  1  0
 12 46  1  0
 14 47  1  0
 15 48  1  0
 16 49  1  0
 17 50  1  0
 18 51  1  0
 22 52  1  0
 22 53  1  0
 23 54  1  0
 23 55  1  0
 25 56  1  0
 26 57  1  0
 27 58  1  0
 28 59  1  0
 30 60  1  0
 30 61  1  0
 32 62  1  0
 32 63  1  0
 33 64  1  0
 33 65  1  0
M  END
>  <smiles>  (12) 
OC1CCN(c2nc(NCCCc3ccccc3)nc(N3CCc4ccccc4C3)n2)CC1

>  <score_type>  (12) 
oracle

>  <origin>  (12) 
autodockgpu

>  <m_score__min__energy>  (12) 
-10.68

>  <m_primary>  (12) 
energy

>  <rmsd>  (12) 
5.550320355004784

>  <m_score__min__rmsd>  (12) 
5.550320355004784

>  <meeko>  (12) 
{"free_energy": -10.49, "intermolecular_energy": -12.87, "internal_energy": -1.1, "cluster_size": 50, "cluster_id": 1, "rank_in_cluster": 6}

>  <energy>  (12) 
-10.3

>  <cluster_rmsd>  (12) 
0.24

>  <cluster>  (12) 
1

$$$$

     RDKit          3D

 65 69  0  0  0  0  0  0  0  0999 V2000
  146.2570   71.4440  219.0000 O   0  0  0  0  0  0  0  0  0  0  0  0
  145.2060   71.7670  219.8550 C   0  0  0  0  0  0  0  0  0  0  0  0
  143.8840   71.2410  219.3300 C   0  0  0  0  0  0  0  0  0  0  0  0
  142.8780   71.4650  220.4730 C   0  0  0  0  0  0  0  0  0  0  0  0
  142.7480   72.9220  220.5760 N   0  0  0  0  0  0  0  0  0  0  0  0
  141.5980   73.4840  221.1850 C   0  0  0  0  0  0  0  0  0  0  0  0
  140.5480   72.7450  221.6260 N   0  0  0  0  0  0  0  0  0  0  0  0
  139.4660   73.3030  222.1760 C   0  0  0  0  0  0  0  0  0  0  0  0
  138.3650   72.5940  222.7090 N   0  0  0  0  0  0  0  0  0  0  0  0
  138.1530   71.1680  222.6390 C   0  0  0  0  0  0  0  0  0  0  0  0
  138.5610   70.6120  223.9890 C   0  0  0  0  0  0  0  0  0  0  0  0
  140.0260   70.5250  224.2130 C   0  0  0  0  0  0  0  0  0  0  0  0
  140.3260   70.8400  225.6390 C   0  0  0  0  0  0  0  0  0  0  0  0
  141.1070   71.8980  226.0390 C   0  0  0  0  0  0  0  0  0  0  0  0
  141.3260   72.0790  227.4050 C   0  0  0  0  0  0  0  0  0  0  0  0
  140.7890   71.2390  228.3520 C   0  0  0  0  0  0  0  0  0  0  0  0
  140.0080   70.1800  227.9540 C   0  0  0  0  0  0  0  0  0  0  0  0
  139.7920   70.0030  226.5980 C   0  0  0  0  0  0  0  0  0  0  0  0
  139.3980   74.6620  222.3060 N   0  0  0  0  0  0  0  0  0  0  0  0
  140.4180   75.4210  221.8810 C   0  0  0  0  0  0  0  0  0  0  0  0
  140.3360   76.8300  222.0120 N   0  0  0  0  0  0  0  0  0  0  0  0
  139.2050   77.4050  222.7250 C   0  0  0  0  0  0  0  0  0  0  0  0
  139.0460   78.8330  222.1750 C   0  0  0  0  0  0  0  0  0  0  0  0
  140.2910   79.5270  222.6790 C   0  0  0  0  0  0  0  0  0  0  0  0
  140.2290   80.6680  223.4420 C   0  0  0  0  0  0  0  0  0  0  0  0
  141.4210   81.2060  223.8710 C   0  0  0  0  0  0  0  0  0  0  0  0
  142.6090   80.5970  223.5250 C   0  0  0  0  0  0  0  0  0  0  0  0
  142.6530   79.4380  222.7480 C   0  0  0  0  0  0  0  0  0  0  0  0
  141.4780   78.9090  222.3270 C   0  0  0  0  0  0  0  0  0  0  0  0
  141.3600   77.6770  221.4770 C   0  0  0  0  0  0  0  0  0  0  0  0
  141.5080   74.8330  221.3270 N   0  0  0  0  0  0  0  0  0  0  0  0
  143.7640   73.8090  220.0790 C   0  0  0  0  0  0  0  0  0  0  0  0
  145.1470   73.2460  220.1460 C   0  0  0  0  0  0  0  0  0  0  0  0
  145.9220   70.7800  218.3480 H   0  0  0  0  0  0  0  0  0  0  0  0
  145.4013   71.2648  220.8140 H   0  0  0  0  0  0  0  0  0  0  0  0
  143.5772   71.7967  218.4316 H   0  0  0  0  0  0  0  0  0  0  0  0
  143.9487   70.1816  219.0410 H   0  0  0  0  0  0  0  0  0  0  0  0
  141.9082   71.0053  220.2316 H   0  0  0  0  0  0  0  0  0  0  0  0
  143.2130   71.0098  221.4167 H   0  0  0  0  0  0  0  0  0  0  0  0
  137.6460   73.2180  223.2040 H   0  0  0  0  0  0  0  0  0  0  0  0
  137.0932   70.9495  222.4413 H   0  0  0  0  0  0  0  0  0  0  0  0
  138.7393   70.7154  221.8257 H   0  0  0  0  0  0  0  0  0  0  0  0
  138.1342   71.2602  224.7685 H   0  0  0  0  0  0  0  0  0  0  0  0
  138.1819   69.5800  224.0246 H   0  0  0  0  0  0  0  0  0  0  0  0
  140.3735   69.5076  223.9805 H   0  0  0  0  0  0  0  0  0  0  0  0
  140.5419   71.2446  223.5603 H   0  0  0  0  0  0  0  0  0  0  0  0
  141.5480   72.5843  225.3011 H   0  0  0  0  0  0  0  0  0  0  0  0
  141.9496   72.9226  227.7357 H   0  0  0  0  0  0  0  0  0  0  0  0
  140.9830   71.4132  229.4207 H   0  0  0  0  0  0  0  0  0  0  0  0
  139.5674   69.4931  228.6916 H   0  0  0  0  0  0  0  0  0  0  0  0
  139.1677   69.1586  226.2706 H   0  0  0  0  0  0  0  0  0  0  0  0
  138.2942   76.8179  222.5359 H   0  0  0  0  0  0  0  0  0  0  0  0
  139.3696   77.4057  223.8126 H   0  0  0  0  0  0  0  0  0  0  0  0
  139.0103   78.8324  221.0756 H   0  0  0  0  0  0  0  0  0  0  0  0
  138.1146   79.3221  222.4964 H   0  0  0  0  0  0  0  0  0  0  0  0
  139.2658   81.1326  223.6995 H   0  0  0  0  0  0  0  0  0  0  0  0
  141.4261   82.1174  224.4869 H   0  0  0  0  0  0  0  0  0  0  0  0
  143.5540   81.0395  223.8731 H   0  0  0  0  0  0  0  0  0  0  0  0
  143.6123   78.9682  222.4853 H   0  0  0  0  0  0  0  0  0  0  0  0
  141.0990   77.9641  220.4477 H   0  0  0  0  0  0  0  0  0  0  0  0
  142.3192   77.1385  221.4728 H   0  0  0  0  0  0  0  0  0  0  0  0
  143.5359   74.0425  219.0285 H   0  0  0  0  0  0  0  0  0  0  0  0
  143.7514   74.7007  220.7230 H   0  0  0  0  0  0  0  0  0  0  0  0
  145.7735   73.7715  219.4102 H   0  0  0  0  0  0  0  0  0  0  0  0
  145.5066   73.3892  221.1757 H   0  0  0  0  0  0  0  0  0  0  0  0
  1  2  1  0
  2  3  1  0
  3  4  1  0
  4  5  1  0
  5  6  1  0
  6  7  2  0
  7  8  1  0
  8  9  1  0
  9 10  1  0
 10 11  1  0
 11 12  1  0
 12 13  1  0
 13 14  2  0
 14 15  1  0
 15 16  2  0
 16 17  1  0
 17 18  2  0
  8 19  2  0
 19 20  1  0
 20 21  1  0
 21 22  1  0
 22 23  1  0
 23 24  1  0
 24 25  2  0
 25 26  1  0
 26 27  2  0
 27 28  1  0
 28 29  2  0
 29 30  1  0
 20 31  2  0
  5 32  1  0
 32 33  1  0
 33  2  1  0
 31  6  1  0
 18 13  1  0
 30 21  1  0
 29 24  1  0
  1 34  1  0
  2 35  1  0
  3 36  1  0
  3 37  1  0
  4 38  1  0
  4 39  1  0
  9 40  1  0
 10 41  1  0
 10 42  1  0
 11 43  1  0
 11 44  1  0
 12 45  1  0
 12 46  1  0
 14 47  1  0
 15 48  1  0
 16 49  1  0
 17 50  1  0
 18 51  1  0
 22 52  1  0
 22 53  1  0
 23 54  1  0
 23 55  1  0
 25 56  1  0
 26 57  1  0
 27 58  1  0
 28 59  1  0
 30 60  1  0
 30 61  1  0
 32 62  1  0
 32 63  1  0
 33 64  1  0
 33 65  1  0
M  END
>  <smiles>  (13) 
OC1CCN(c2nc(NCCCc3ccccc3)nc(N3CCc4ccccc4C3)n2)CC1

>  <score_type>  (13) 
oracle

>  <origin>  (13) 
autodockgpu

>  <m_score__min__energy>  (13) 
-10.68

>  <m_primary>  (13) 
energy

>  <rmsd>  (13) 
5.422754890859573

>  <m_score__min__rmsd>  (13) 
5.422754890859573

>  <meeko>  (13) 
{"free_energy": -10.29, "intermolecular_energy": -12.68, "internal_energy": -1.24, "cluster_size": 50, "cluster_id": 1, "rank_in_cluster": 13}

>  <energy>  (13) 
-10.29

>  <cluster_rmsd>  (13) 
0.41

>  <cluster>  (13) 
1

$$$$

     RDKit          3D

 65 69  0  0  0  0  0  0  0  0999 V2000
  146.2070   72.1370  217.2530 O   0  0  0  0  0  0  0  0  0  0  0  0
  145.1650   72.1640  218.1770 C   0  0  0  0  0  0  0  0  0  0  0  0
  143.8730   72.6400  217.5420 C   0  0  0  0  0  0  0  0  0  0  0  0
  142.7870   72.3950  218.6050 C   0  0  0  0  0  0  0  0  0  0  0  0
  143.1040   73.3360  219.6840 N   0  0  0  0  0  0  0  0  0  0  0  0
  142.0920   73.7180  220.6020 C   0  0  0  0  0  0  0  0  0  0  0  0
  141.3280   72.8300  221.2870 N   0  0  0  0  0  0  0  0  0  0  0  0
  140.3660   73.2190  222.1280 C   0  0  0  0  0  0  0  0  0  0  0  0
  139.5730   72.3530  222.9160 N   0  0  0  0  0  0  0  0  0  0  0  0
  138.7790   71.2490  222.4350 C   0  0  0  0  0  0  0  0  0  0  0  0
  138.4720   70.3890  223.6460 C   0  0  0  0  0  0  0  0  0  0  0  0
  139.6350   69.6530  224.2030 C   0  0  0  0  0  0  0  0  0  0  0  0
  140.0440   70.2820  225.4910 C   0  0  0  0  0  0  0  0  0  0  0  0
  140.8030   71.4260  225.5750 C   0  0  0  0  0  0  0  0  0  0  0  0
  141.1330   71.9080  226.8410 C   0  0  0  0  0  0  0  0  0  0  0  0
  140.7270   71.2810  227.9950 C   0  0  0  0  0  0  0  0  0  0  0  0
  139.9690   70.1360  227.9140 C   0  0  0  0  0  0  0  0  0  0  0  0
  139.6420   69.6600  226.6560 C   0  0  0  0  0  0  0  0  0  0  0  0
  140.1310   74.5520  222.3170 N   0  0  0  0  0  0  0  0  0  0  0  0
  140.8680   75.4550  221.6560 C   0  0  0  0  0  0  0  0  0  0  0  0
  140.6120   76.8360  221.8500 N   0  0  0  0  0  0  0  0  0  0  0  0
  139.4560   77.2320  222.6400 C   0  0  0  0  0  0  0  0  0  0  0  0
  139.0850   78.6460  222.1610 C   0  0  0  0  0  0  0  0  0  0  0  0
  140.2550   79.4780  222.6330 C   0  0  0  0  0  0  0  0  0  0  0  0
  140.0870   80.5730  223.4470 C   0  0  0  0  0  0  0  0  0  0  0  0
  141.2210   81.2470  223.8400 C   0  0  0  0  0  0  0  0  0  0  0  0
  142.4570   80.8120  223.4120 C   0  0  0  0  0  0  0  0  0  0  0  0
  142.6100   79.6970  222.5850 C   0  0  0  0  0  0  0  0  0  0  0  0
  141.4920   79.0340  222.1980 C   0  0  0  0  0  0  0  0  0  0  0  0
  141.4890   77.8280  221.3040 C   0  0  0  0  0  0  0  0  0  0  0  0
  141.8420   75.0380  220.8070 N   0  0  0  0  0  0  0  0  0  0  0  0
  144.4220   73.8830  219.8480 C   0  0  0  0  0  0  0  0  0  0  0  0
  145.5180   72.9700  219.4030 C   0  0  0  0  0  0  0  0  0  0  0  0
  145.8080   72.1750  216.3490 H   0  0  0  0  0  0  0  0  0  0  0  0
  145.0028   71.1294  218.5137 H   0  0  0  0  0  0  0  0  0  0  0  0
  143.9361   73.7099  217.2944 H   0  0  0  0  0  0  0  0  0  0  0  0
  143.6565   72.1095  216.6030 H   0  0  0  0  0  0  0  0  0  0  0  0
  141.7877   72.5994  218.1931 H   0  0  0  0  0  0  0  0  0  0  0  0
  142.7730   71.3516  218.9531 H   0  0  0  0  0  0  0  0  0  0  0  0
  139.5990   72.5770  223.9650 H   0  0  0  0  0  0  0  0  0  0  0  0
  137.8465   71.6183  221.9833 H   0  0  0  0  0  0  0  0  0  0  0  0
  139.3141   70.6771  221.6626 H   0  0  0  0  0  0  0  0  0  0  0  0
  138.0711   71.0417  224.4355 H   0  0  0  0  0  0  0  0  0  0  0  0
  137.7574   69.6244  223.3073 H   0  0  0  0  0  0  0  0  0  0  0  0
  139.3560   68.6036  224.3787 H   0  0  0  0  0  0  0  0  0  0  0  0
  140.4723   69.6929  223.4907 H   0  0  0  0  0  0  0  0  0  0  0  0
  141.1408   71.9471  224.6670 H   0  0  0  0  0  0  0  0  0  0  0  0
  141.7396   72.8223  226.9191 H   0  0  0  0  0  0  0  0  0  0  0  0
  141.0063   71.6920  228.9763 H   0  0  0  0  0  0  0  0  0  0  0  0
  139.6327   69.6141  228.8220 H   0  0  0  0  0  0  0  0  0  0  0  0
  139.0350   68.7457  226.5813 H   0  0  0  0  0  0  0  0  0  0  0  0
  138.6197   76.5381  222.4694 H   0  0  0  0  0  0  0  0  0  0  0  0
  139.6770   77.2147  223.7174 H   0  0  0  0  0  0  0  0  0  0  0  0
  138.9904   78.6810  221.0656 H   0  0  0  0  0  0  0  0  0  0  0  0
  138.1171   78.9968  222.5485 H   0  0  0  0  0  0  0  0  0  0  0  0
  139.0871   80.8973  223.7711 H   0  0  0  0  0  0  0  0  0  0  0  0
  141.1412   82.1288  224.4927 H   0  0  0  0  0  0  0  0  0  0  0  0
  143.3539   81.3621  223.7329 H   0  0  0  0  0  0  0  0  0  0  0  0
  143.6068   79.3667  222.2576 H   0  0  0  0  0  0  0  0  0  0  0  0
  141.1400   78.1150  220.3011 H   0  0  0  0  0  0  0  0  0  0  0  0
  142.5080   77.4198  221.2326 H   0  0  0  0  0  0  0  0  0  0  0  0
  144.4864   74.8120  219.2625 H   0  0  0  0  0  0  0  0  0  0  0  0
  144.5653   74.0511  220.9256 H   0  0  0  0  0  0  0  0  0  0  0  0
  146.4074   73.5767  219.1774 H   0  0  0  0  0  0  0  0  0  0  0  0
  145.6984   72.2563  220.2203 H   0  0  0  0  0  0  0  0  0  0  0  0
  1  2  1  0
  2  3  1  0
  3  4  1  0
  4  5  1  0
  5  6  1  0
  6  7  2  0
  7  8  1  0
  8  9  1  0
  9 10  1  0
 10 11  1  0
 11 12  1  0
 12 13  1  0
 13 14  2  0
 14 15  1  0
 15 16  2  0
 16 17  1  0
 17 18  2  0
  8 19  2  0
 19 20  1  0
 20 21  1  0
 21 22  1  0
 22 23  1  0
 23 24  1  0
 24 25  2  0
 25 26  1  0
 26 27  2  0
 27 28  1  0
 28 29  2  0
 29 30  1  0
 20 31  2  0
  5 32  1  0
 32 33  1  0
 33  2  1  0
 31  6  1  0
 18 13  1  0
 30 21  1  0
 29 24  1  0
  1 34  1  0
  2 35  1  0
  3 36  1  0
  3 37  1  0
  4 38  1  0
  4 39  1  0
  9 40  1  0
 10 41  1  0
 10 42  1  0
 11 43  1  0
 11 44  1  0
 12 45  1  0
 12 46  1  0
 14 47  1  0
 15 48  1  0
 16 49  1  0
 17 50  1  0
 18 51  1  0
 22 52  1  0
 22 53  1  0
 23 54  1  0
 23 55  1  0
 25 56  1  0
 26 57  1  0
 27 58  1  0
 28 59  1  0
 30 60  1  0
 30 61  1  0
 32 62  1  0
 32 63  1  0
 33 64  1  0
 33 65  1  0
M  END
>  <smiles>  (14) 
OC1CCN(c2nc(NCCCc3ccccc3)nc(N3CCc4ccccc4C3)n2)CC1

>  <score_type>  (14) 
oracle

>  <origin>  (14) 
autodockgpu

>  <m_score__min__energy>  (14) 
-10.68

>  <m_primary>  (14) 
energy

>  <rmsd>  (14) 
5.3250748044375396

>  <m_score__min__rmsd>  (14) 
5.3250748044375396

>  <meeko>  (14) 
{"free_energy": -9.49, "intermolecular_energy": -11.88, "internal_energy": -1.05, "cluster_size": 50, "cluster_id": 1, "rank_in_cluster": 50}

>  <energy>  (14) 
-10.24

>  <cluster_rmsd>  (14) 
0.44

>  <cluster>  (14) 
1

$$$$

     RDKit          3D

 65 69  0  0  0  0  0  0  0  0999 V2000
  146.3250   71.2630  218.9480 O   0  0  0  0  0  0  0  0  0  0  0  0
  145.1810   72.0100  219.2190 C   0  0  0  0  0  0  0  0  0  0  0  0
  145.3730   72.8940  220.4360 C   0  0  0  0  0  0  0  0  0  0  0  0
  144.1380   73.8120  220.4670 C   0  0  0  0  0  0  0  0  0  0  0  0
  143.0150   72.9160  220.7620 N   0  0  0  0  0  0  0  0  0  0  0  0
  141.8190   73.4460  221.3100 C   0  0  0  0  0  0  0  0  0  0  0  0
  140.7780   72.6770  221.7190 N   0  0  0  0  0  0  0  0  0  0  0  0
  139.6540   73.2030  222.2110 C   0  0  0  0  0  0  0  0  0  0  0  0
  138.5560   72.4630  222.7080 N   0  0  0  0  0  0  0  0  0  0  0  0
  138.1730   71.1320  222.3070 C   0  0  0  0  0  0  0  0  0  0  0  0
  139.1350   70.1870  223.0000 C   0  0  0  0  0  0  0  0  0  0  0  0
  138.6900   69.7030  224.3320 C   0  0  0  0  0  0  0  0  0  0  0  0
  139.5400   70.3190  225.3900 C   0  0  0  0  0  0  0  0  0  0  0  0
  140.3360   71.4210  225.1840 C   0  0  0  0  0  0  0  0  0  0  0  0
  141.0980   71.8940  226.2520 C   0  0  0  0  0  0  0  0  0  0  0  0
  141.0750   71.2990  227.4910 C   0  0  0  0  0  0  0  0  0  0  0  0
  140.2800   70.1960  227.6990 C   0  0  0  0  0  0  0  0  0  0  0  0
  139.5250   69.7280  226.6370 C   0  0  0  0  0  0  0  0  0  0  0  0
  139.5310   74.5610  222.3130 N   0  0  0  0  0  0  0  0  0  0  0  0
  140.5410   75.3490  221.9180 C   0  0  0  0  0  0  0  0  0  0  0  0
  140.4030   76.7560  222.0190 N   0  0  0  0  0  0  0  0  0  0  0  0
  139.2380   77.3010  222.7000 C   0  0  0  0  0  0  0  0  0  0  0  0
  139.0340   78.7120  222.1190 C   0  0  0  0  0  0  0  0  0  0  0  0
  140.2420   79.4620  222.6300 C   0  0  0  0  0  0  0  0  0  0  0  0
  140.1220   80.6150  223.3690 C   0  0  0  0  0  0  0  0  0  0  0  0
  141.2850   81.2070  223.8080 C   0  0  0  0  0  0  0  0  0  0  0  0
  142.5010   80.6380  223.4960 C   0  0  0  0  0  0  0  0  0  0  0  0
  142.6050   79.4660  222.7430 C   0  0  0  0  0  0  0  0  0  0  0  0
  141.4580   78.8840  222.3120 C   0  0  0  0  0  0  0  0  0  0  0  0
  141.4030   77.6310  221.4850 C   0  0  0  0  0  0  0  0  0  0  0  0
  141.6750   74.7920  221.4230 N   0  0  0  0  0  0  0  0  0  0  0  0
  143.0860   71.5050  220.5050 C   0  0  0  0  0  0  0  0  0  0  0  0
  143.9530   71.1420  219.3430 C   0  0  0  0  0  0  0  0  0  0  0  0
  146.0380   70.3380  218.7460 H   0  0  0  0  0  0  0  0  0  0  0  0
  145.0133   72.6710  218.3559 H   0  0  0  0  0  0  0  0  0  0  0  0
  145.4241   72.2852  221.3507 H   0  0  0  0  0  0  0  0  0  0  0  0
  146.3103   73.4674  220.3838 H   0  0  0  0  0  0  0  0  0  0  0  0
  144.2417   74.5753  221.2522 H   0  0  0  0  0  0  0  0  0  0  0  0
  143.9994   74.3551  219.5205 H   0  0  0  0  0  0  0  0  0  0  0  0
  137.9860   72.9830  223.4540 H   0  0  0  0  0  0  0  0  0  0  0  0
  137.1399   70.9219  222.6208 H   0  0  0  0  0  0  0  0  0  0  0  0
  138.2149   71.0155  221.2140 H   0  0  0  0  0  0  0  0  0  0  0  0
  139.2808   69.3115  222.3502 H   0  0  0  0  0  0  0  0  0  0  0  0
  140.0574   70.7606  223.1739 H   0  0  0  0  0  0  0  0  0  0  0  0
  137.6395   69.9863  224.4936 H   0  0  0  0  0  0  0  0  0  0  0  0
  138.7836   68.6079  224.3759 H   0  0  0  0  0  0  0  0  0  0  0  0
  140.3709   71.9166  224.2026 H   0  0  0  0  0  0  0  0  0  0  0  0
  141.7398   72.7739  226.0975 H   0  0  0  0  0  0  0  0  0  0  0  0
  141.6881   71.7022  228.3104 H   0  0  0  0  0  0  0  0  0  0  0  0
  140.2451   69.7003  228.6803 H   0  0  0  0  0  0  0  0  0  0  0  0
  138.8855   68.8469  226.7940 H   0  0  0  0  0  0  0  0  0  0  0  0
  138.3540   76.6757  222.5065 H   0  0  0  0  0  0  0  0  0  0  0  0
  139.3829   77.3292  223.7901 H   0  0  0  0  0  0  0  0  0  0  0  0
  139.0177   78.6892  221.0194 H   0  0  0  0  0  0  0  0  0  0  0  0
  138.0791   79.1710  222.4148 H   0  0  0  0  0  0  0  0  0  0  0  0
  139.1371   81.0469  223.6001 H   0  0  0  0  0  0  0  0  0  0  0  0
  141.2439   82.1299  224.4051 H   0  0  0  0  0  0  0  0  0  0  0  0
  143.4215   81.1236  223.8523 H   0  0  0  0  0  0  0  0  0  0  0  0
  143.5864   79.0287  222.5069 H   0  0  0  0  0  0  0  0  0  0  0  0
  141.1501   77.8873  220.4456 H   0  0  0  0  0  0  0  0  0  0  0  0
  142.3821   77.1302  221.5086 H   0  0  0  0  0  0  0  0  0  0  0  0
  143.4849   71.0095  221.4024 H   0  0  0  0  0  0  0  0  0  0  0  0
  142.0665   71.1748  220.2570 H   0  0  0  0  0  0  0  0  0  0  0  0
  144.2750   70.0968  219.4609 H   0  0  0  0  0  0  0  0  0  0  0  0
  143.3553   71.2919  218.4318 H   0  0  0  0  0  0  0  0  0  0  0  0
  1  2  1  0
  2  3  1  0
  3  4  1  0
  4  5  1  0
  5  6  1  0
  6  7  2  0
  7  8  1  0
  8  9  1  0
  9 10  1  0
 10 11  1  0
 11 12  1  0
 12 13  1  0
 13 14  2  0
 14 15  1  0
 15 16  2  0
 16 17  1  0
 17 18  2  0
  8 19  2  0
 19 20  1  0
 20 21  1  0
 21 22  1  0
 22 23  1  0
 23 24  1  0
 24 25  2  0
 25 26  1  0
 26 27  2  0
 27 28  1  0
 28 29  2  0
 29 30  1  0
 20 31  2  0
  5 32  1  0
 32 33  1  0
 33  2  1  0
 31  6  1  0
 18 13  1  0
 30 21  1  0
 29 24  1  0
  1 34  1  0
  2 35  1  0
  3 36  1  0
  3 37  1  0
  4 38  1  0
  4 39  1  0
  9 40  1  0
 10 41  1  0
 10 42  1  0
 11 43  1  0
 11 44  1  0
 12 45  1  0
 12 46  1  0
 14 47  1  0
 15 48  1  0
 16 49  1  0
 17 50  1  0
 18 51  1  0
 22 52  1  0
 22 53  1  0
 23 54  1  0
 23 55  1  0
 25 56  1  0
 26 57  1  0
 27 58  1  0
 28 59  1  0
 30 60  1  0
 30 61  1  0
 32 62  1  0
 32 63  1  0
 33 64  1  0
 33 65  1  0
M  END
>  <smiles>  (15) 
OC1CCN(c2nc(NCCCc3ccccc3)nc(N3CCc4ccccc4C3)n2)CC1

>  <score_type>  (15) 
oracle

>  <origin>  (15) 
autodockgpu

>  <m_score__min__energy>  (15) 
-10.68

>  <m_primary>  (15) 
energy

>  <rmsd>  (15) 
5.361664951696331

>  <m_score__min__rmsd>  (15) 
5.361664951696331

>  <meeko>  (15) 
{"free_energy": -9.93, "intermolecular_energy": -12.31, "internal_energy": -1.31, "cluster_size": 50, "cluster_id": 1, "rank_in_cluster": 37}

>  <energy>  (15) 
-10.22

>  <cluster_rmsd>  (15) 
1.6

>  <cluster>  (15) 
1

$$$$

     RDKit          3D

 65 69  0  0  0  0  0  0  0  0999 V2000
  146.3220   71.3710  218.8990 O   0  0  0  0  0  0  0  0  0  0  0  0
  145.2390   71.6180  219.7390 C   0  0  0  0  0  0  0  0  0  0  0  0
  143.9230   71.3220  219.0460 C   0  0  0  0  0  0  0  0  0  0  0  0
  142.8550   71.4140  220.1510 C   0  0  0  0  0  0  0  0  0  0  0  0
  142.8310   72.8310  220.5280 N   0  0  0  0  0  0  0  0  0  0  0  0
  141.6850   73.3680  221.1680 C   0  0  0  0  0  0  0  0  0  0  0  0
  140.6700   72.6060  221.6490 N   0  0  0  0  0  0  0  0  0  0  0  0
  139.5910   73.1390  222.2280 C   0  0  0  0  0  0  0  0  0  0  0  0
  138.5270   72.4060  222.8020 N   0  0  0  0  0  0  0  0  0  0  0  0
  138.3120   70.9840  222.6890 C   0  0  0  0  0  0  0  0  0  0  0  0
  139.5060   70.3210  223.3480 C   0  0  0  0  0  0  0  0  0  0  0  0
  139.2110   69.6260  224.6270 C   0  0  0  0  0  0  0  0  0  0  0  0
  139.8790   70.3490  225.7460 C   0  0  0  0  0  0  0  0  0  0  0  0
  140.7020   71.4360  225.5700 C   0  0  0  0  0  0  0  0  0  0  0  0
  141.2810   72.0170  226.6980 C   0  0  0  0  0  0  0  0  0  0  0  0
  141.0540   71.5400  227.9670 C   0  0  0  0  0  0  0  0  0  0  0  0
  140.2320   70.4520  228.1460 C   0  0  0  0  0  0  0  0  0  0  0  0
  139.6590   69.8780  227.0250 C   0  0  0  0  0  0  0  0  0  0  0  0
  139.4900   74.4970  222.3470 N   0  0  0  0  0  0  0  0  0  0  0  0
  140.4740   75.2790  221.8830 C   0  0  0  0  0  0  0  0  0  0  0  0
  140.3580   76.6860  222.0020 N   0  0  0  0  0  0  0  0  0  0  0  0
  139.2010   77.2400  222.6890 C   0  0  0  0  0  0  0  0  0  0  0  0
  139.0190   78.6610  222.1270 C   0  0  0  0  0  0  0  0  0  0  0  0
  140.2380   79.3860  222.6490 C   0  0  0  0  0  0  0  0  0  0  0  0
  140.1350   80.5310  223.4030 C   0  0  0  0  0  0  0  0  0  0  0  0
  141.3070   81.0990  223.8510 C   0  0  0  0  0  0  0  0  0  0  0  0
  142.5140   80.5150  223.5320 C   0  0  0  0  0  0  0  0  0  0  0  0
  142.6000   79.3520  222.7630 C   0  0  0  0  0  0  0  0  0  0  0  0
  141.4450   78.7930  222.3240 C   0  0  0  0  0  0  0  0  0  0  0  0
  141.3720   77.5530  221.4810 C   0  0  0  0  0  0  0  0  0  0  0  0
  141.5630   74.7150  221.3000 N   0  0  0  0  0  0  0  0  0  0  0  0
  143.9450   73.7010  220.2730 C   0  0  0  0  0  0  0  0  0  0  0  0
  145.2720   73.0150  220.3080 C   0  0  0  0  0  0  0  0  0  0  0  0
  145.9820   70.8980  218.1000 H   0  0  0  0  0  0  0  0  0  0  0  0
  145.3242   70.9276  220.5911 H   0  0  0  0  0  0  0  0  0  0  0  0
  143.7270   72.0635  218.2575 H   0  0  0  0  0  0  0  0  0  0  0  0
  143.9274   70.3353  218.5597 H   0  0  0  0  0  0  0  0  0  0  0  0
  141.8732   71.0975  219.7690 H   0  0  0  0  0  0  0  0  0  0  0  0
  143.0825   70.7597  221.0054 H   0  0  0  0  0  0  0  0  0  0  0  0
  137.8410   73.0080  223.3670 H   0  0  0  0  0  0  0  0  0  0  0  0
  137.3838   70.6967  223.2046 H   0  0  0  0  0  0  0  0  0  0  0  0
  138.2128   70.6763  221.6376 H   0  0  0  0  0  0  0  0  0  0  0  0
  139.9171   69.5817  222.6448 H   0  0  0  0  0  0  0  0  0  0  0  0
  140.2105   71.1296  223.5928 H   0  0  0  0  0  0  0  0  0  0  0  0
  138.1241   69.6121  224.7954 H   0  0  0  0  0  0  0  0  0  0  0  0
  139.5859   68.5929  224.5800 H   0  0  0  0  0  0  0  0  0  0  0  0
  140.8989   71.8374  224.5650 H   0  0  0  0  0  0  0  0  0  0  0  0
  141.9419   72.8866  226.5677 H   0  0  0  0  0  0  0  0  0  0  0  0
  141.5267   72.0253  228.8336 H   0  0  0  0  0  0  0  0  0  0  0  0
  140.0358   70.0499  229.1509 H   0  0  0  0  0  0  0  0  0  0  0  0
  138.9991   69.0081  227.1587 H   0  0  0  0  0  0  0  0  0  0  0  0
  138.3077   76.6309  222.4866 H   0  0  0  0  0  0  0  0  0  0  0  0
  139.3455   77.2518  223.7794 H   0  0  0  0  0  0  0  0  0  0  0  0
  139.0034   78.6531  221.0271 H   0  0  0  0  0  0  0  0  0  0  0  0
  138.0709   79.1304  222.4282 H   0  0  0  0  0  0  0  0  0  0  0  0
  139.1567   80.9752  223.6388 H   0  0  0  0  0  0  0  0  0  0  0  0
  141.2799   82.0143  224.4605 H   0  0  0  0  0  0  0  0  0  0  0  0
  143.4418   80.9809  223.8956 H   0  0  0  0  0  0  0  0  0  0  0  0
  143.5747   78.9033  222.5209 H   0  0  0  0  0  0  0  0  0  0  0  0
  141.1244   77.8270  220.4449 H   0  0  0  0  0  0  0  0  0  0  0  0
  142.3433   77.0370  221.4993 H   0  0  0  0  0  0  0  0  0  0  0  0
  143.8133   74.1489  219.2770 H   0  0  0  0  0  0  0  0  0  0  0  0
  143.9533   74.4516  221.0771 H   0  0  0  0  0  0  0  0  0  0  0  0
  145.9888   73.6121  219.7252 H   0  0  0  0  0  0  0  0  0  0  0  0
  145.5654   72.9287  221.3646 H   0  0  0  0  0  0  0  0  0  0  0  0
  1  2  1  0
  2  3  1  0
  3  4  1  0
  4  5  1  0
  5  6  1  0
  6  7  2  0
  7  8  1  0
  8  9  1  0
  9 10  1  0
 10 11  1  0
 11 12  1  0
 12 13  1  0
 13 14  2  0
 14 15  1  0
 15 16  2  0
 16 17  1  0
 17 18  2  0
  8 19  2  0
 19 20  1  0
 20 21  1  0
 21 22  1  0
 22 23  1  0
 23 24  1  0
 24 25  2  0
 25 26  1  0
 26 27  2  0
 27 28  1  0
 28 29  2  0
 29 30  1  0
 20 31  2  0
  5 32  1  0
 32 33  1  0
 33  2  1  0
 31  6  1  0
 18 13  1  0
 30 21  1  0
 29 24  1  0
  1 34  1  0
  2 35  1  0
  3 36  1  0
  3 37  1  0
  4 38  1  0
  4 39  1  0
  9 40  1  0
 10 41  1  0
 10 42  1  0
 11 43  1  0
 11 44  1  0
 12 45  1  0
 12 46  1  0
 14 47  1  0
 15 48  1  0
 16 49  1  0
 17 50  1  0
 18 51  1  0
 22 52  1  0
 22 53  1  0
 23 54  1  0
 23 55  1  0
 25 56  1  0
 26 57  1  0
 27 58  1  0
 28 59  1  0
 30 60  1  0
 30 61  1  0
 32 62  1  0
 32 63  1  0
 33 64  1  0
 33 65  1  0
M  END
>  <smiles>  (16) 
OC1CCN(c2nc(NCCCc3ccccc3)nc(N3CCc4ccccc4C3)n2)CC1

>  <score_type>  (16) 
oracle

>  <origin>  (16) 
autodockgpu

>  <m_score__min__energy>  (16) 
-10.68

>  <m_primary>  (16) 
energy

>  <rmsd>  (16) 
5.367125237993144

>  <m_score__min__rmsd>  (16) 
5.367125237993144

>  <meeko>  (16) 
{"free_energy": -10.12, "intermolecular_energy": -12.5, "internal_energy": -1.23, "cluster_size": 50, "cluster_id": 1, "rank_in_cluster": 25}

>  <energy>  (16) 
-10.22

>  <cluster_rmsd>  (16) 
0.48

>  <cluster>  (16) 
1

$$$$

     RDKit          3D

 65 69  0  0  0  0  0  0  0  0999 V2000
  146.7260   73.3900  219.3050 O   0  0  0  0  0  0  0  0  0  0  0  0
  145.5990   73.2000  220.1020 C   0  0  0  0  0  0  0  0  0  0  0  0
  144.6280   72.2260  219.4640 C   0  0  0  0  0  0  0  0  0  0  0  0
  143.5710   71.9430  220.5460 C   0  0  0  0  0  0  0  0  0  0  0  0
  142.8570   73.2130  220.7110 N   0  0  0  0  0  0  0  0  0  0  0  0
  141.5530   73.2190  221.2690 C   0  0  0  0  0  0  0  0  0  0  0  0
  140.6240   74.1690  220.9920 N   0  0  0  0  0  0  0  0  0  0  0  0
  139.4100   74.1620  221.5490 C   0  0  0  0  0  0  0  0  0  0  0  0
  138.3760   75.0840  221.2620 N   0  0  0  0  0  0  0  0  0  0  0  0
  138.5080   76.5180  221.1890 C   0  0  0  0  0  0  0  0  0  0  0  0
  139.2200   76.9440  222.4580 C   0  0  0  0  0  0  0  0  0  0  0  0
  140.6810   77.1680  222.3120 C   0  0  0  0  0  0  0  0  0  0  0  0
  141.0160   78.5460  222.7720 C   0  0  0  0  0  0  0  0  0  0  0  0
  140.1410   79.3580  223.4540 C   0  0  0  0  0  0  0  0  0  0  0  0
  140.5700   80.6340  223.8170 C   0  0  0  0  0  0  0  0  0  0  0  0
  141.8290   81.0980  223.5170 C   0  0  0  0  0  0  0  0  0  0  0  0
  142.7060   80.2880  222.8350 C   0  0  0  0  0  0  0  0  0  0  0  0
  142.2780   79.0220  222.4760 C   0  0  0  0  0  0  0  0  0  0  0  0
  139.0770   73.1730  222.4300 N   0  0  0  0  0  0  0  0  0  0  0  0
  139.9710   72.2190  222.7260 C   0  0  0  0  0  0  0  0  0  0  0  0
  139.6200   71.2010  223.6480 N   0  0  0  0  0  0  0  0  0  0  0  0
  139.2700   69.8830  223.1400 C   0  0  0  0  0  0  0  0  0  0  0  0
  138.3710   69.2450  224.2140 C   0  0  0  0  0  0  0  0  0  0  0  0
  139.3230   69.0400  225.3700 C   0  0  0  0  0  0  0  0  0  0  0  0
  139.5210   67.8040  225.9380 C   0  0  0  0  0  0  0  0  0  0  0  0
  140.4290   67.7220  226.9700 C   0  0  0  0  0  0  0  0  0  0  0  0
  141.0910   68.8560  227.3890 C   0  0  0  0  0  0  0  0  0  0  0  0
  140.8770   70.1050  226.8000 C   0  0  0  0  0  0  0  0  0  0  0  0
  139.9830   70.1840  225.7840 C   0  0  0  0  0  0  0  0  0  0  0  0
  139.6350   71.4520  225.0580 C   0  0  0  0  0  0  0  0  0  0  0  0
  141.1980   72.2440  222.1470 N   0  0  0  0  0  0  0  0  0  0  0  0
  143.4450   74.4660  220.3280 C   0  0  0  0  0  0  0  0  0  0  0  0
  144.9320   74.5050  220.4600 C   0  0  0  0  0  0  0  0  0  0  0  0
  146.8440   74.3640  219.1790 H   0  0  0  0  0  0  0  0  0  0  0  0
  145.9411   72.7514  221.0463 H   0  0  0  0  0  0  0  0  0  0  0  0
  144.1598   72.6744  218.5753 H   0  0  0  0  0  0  0  0  0  0  0  0
  145.1293   71.3062  219.1284 H   0  0  0  0  0  0  0  0  0  0  0  0
  142.8822   71.1507  220.2175 H   0  0  0  0  0  0  0  0  0  0  0  0
  144.0219   71.5941  221.4867 H   0  0  0  0  0  0  0  0  0  0  0  0
  137.4230   74.6240  221.0890 H   0  0  0  0  0  0  0  0  0  0  0  0
  139.1000   76.8017  220.3063 H   0  0  0  0  0  0  0  0  0  0  0  0
  137.5264   77.0061  221.0977 H   0  0  0  0  0  0  0  0  0  0  0  0
  138.7639   77.8823  222.8068 H   0  0  0  0  0  0  0  0  0  0  0  0
  139.1056   76.1126  223.1691 H   0  0  0  0  0  0  0  0  0  0  0  0
  141.2281   76.4338  222.9216 H   0  0  0  0  0  0  0  0  0  0  0  0
  140.9682   77.0515  221.2566 H   0  0  0  0  0  0  0  0  0  0  0  0
  139.1286   79.0100  223.7068 H   0  0  0  0  0  0  0  0  0  0  0  0
  139.8774   81.2921  224.3622 H   0  0  0  0  0  0  0  0  0  0  0  0
  142.1326   82.1107  223.8206 H   0  0  0  0  0  0  0  0  0  0  0  0
  143.7183   80.6362  222.5821 H   0  0  0  0  0  0  0  0  0  0  0  0
  142.9732   78.3664  221.9312 H   0  0  0  0  0  0  0  0  0  0  0  0
  138.7259   69.9714  222.1881 H   0  0  0  0  0  0  0  0  0  0  0  0
  140.1646   69.2730  222.9462 H   0  0  0  0  0  0  0  0  0  0  0  0
  137.5481   69.9194  224.4934 H   0  0  0  0  0  0  0  0  0  0  0  0
  137.8858   68.3161  223.8798 H   0  0  0  0  0  0  0  0  0  0  0  0
  138.9764   66.9168  225.5827 H   0  0  0  0  0  0  0  0  0  0  0  0
  140.6251   66.7558  227.4578 H   0  0  0  0  0  0  0  0  0  0  0  0
  141.8125   68.7751  228.2154 H   0  0  0  0  0  0  0  0  0  0  0  0
  141.4174   70.9968  227.1501 H   0  0  0  0  0  0  0  0  0  0  0  0
  138.6422   71.7992  225.3800 H   0  0  0  0  0  0  0  0  0  0  0  0
  140.3834   72.2250  225.2868 H   0  0  0  0  0  0  0  0  0  0  0  0
  143.1858   74.6629  219.2773 H   0  0  0  0  0  0  0  0  0  0  0  0
  143.0447   75.2279  221.0131 H   0  0  0  0  0  0  0  0  0  0  0  0
  145.3208   75.2896  219.7943 H   0  0  0  0  0  0  0  0  0  0  0  0
  145.1593   74.7069  221.5172 H   0  0  0  0  0  0  0  0  0  0  0  0
  1  2  1  0
  2  3  1  0
  3  4  1  0
  4  5  1  0
  5  6  1  0
  6  7  2  0
  7  8  1  0
  8  9  1  0
  9 10  1  0
 10 11  1  0
 11 12  1  0
 12 13  1  0
 13 14  2  0
 14 15  1  0
 15 16  2  0
 16 17  1  0
 17 18  2  0
  8 19  2  0
 19 20  1  0
 20 21  1  0
 21 22  1  0
 22 23  1  0
 23 24  1  0
 24 25  2  0
 25 26  1  0
 26 27  2  0
 27 28  1  0
 28 29  2  0
 29 30  1  0
 20 31  2  0
  5 32  1  0
 32 33  1  0
 33  2  1  0
 31  6  1  0
 18 13  1  0
 30 21  1  0
 29 24  1  0
  1 34  1  0
  2 35  1  0
  3 36  1  0
  3 37  1  0
  4 38  1  0
  4 39  1  0
  9 40  1  0
 10 41  1  0
 10 42  1  0
 11 43  1  0
 11 44  1  0
 12 45  1  0
 12 46  1  0
 14 47  1  0
 15 48  1  0
 16 49  1  0
 17 50  1  0
 18 51  1  0
 22 52  1  0
 22 53  1  0
 23 54  1  0
 23 55  1  0
 25 56  1  0
 26 57  1  0
 27 58  1  0
 28 59  1  0
 30 60  1  0
 30 61  1  0
 32 62  1  0
 32 63  1  0
 33 64  1  0
 33 65  1  0
M  END
>  <smiles>  (17) 
OC1CCN(c2nc(NCCCc3ccccc3)nc(N3CCc4ccccc4C3)n2)CC1

>  <score_type>  (17) 
oracle

>  <origin>  (17) 
autodockgpu

>  <m_score__min__energy>  (17) 
-10.68

>  <m_primary>  (17) 
energy

>  <rmsd>  (17) 
11.291426308432438

>  <m_score__min__rmsd>  (17) 
11.291426308432438

>  <meeko>  (17) 
{"free_energy": -10.18, "intermolecular_energy": -12.57, "internal_energy": -1.18, "cluster_size": 50, "cluster_id": 1, "rank_in_cluster": 21}

>  <energy>  (17) 
-10.22

>  <cluster_rmsd>  (17) 
1.55

>  <cluster>  (17) 
1

$$$$

     RDKit          3D

 65 69  0  0  0  0  0  0  0  0999 V2000
  146.5920   71.2620  219.5420 O   0  0  0  0  0  0  0  0  0  0  0  0
  145.4100   71.9940  219.6320 C   0  0  0  0  0  0  0  0  0  0  0  0
  145.4790   73.0220  220.7450 C   0  0  0  0  0  0  0  0  0  0  0  0
  144.2210   73.8920  220.5690 C   0  0  0  0  0  0  0  0  0  0  0  0
  143.1030   72.9970  220.8830 N   0  0  0  0  0  0  0  0  0  0  0  0
  141.8530   73.5430  221.2690 C   0  0  0  0  0  0  0  0  0  0  0  0
  140.7360   72.7960  221.4620 N   0  0  0  0  0  0  0  0  0  0  0  0
  139.5650   73.3400  221.8040 C   0  0  0  0  0  0  0  0  0  0  0  0
  138.3790   72.6190  222.0760 N   0  0  0  0  0  0  0  0  0  0  0  0
  138.1790   71.6840  223.1560 C   0  0  0  0  0  0  0  0  0  0  0  0
  139.5350   71.0690  223.4410 C   0  0  0  0  0  0  0  0  0  0  0  0
  139.5230   69.9460  224.4130 C   0  0  0  0  0  0  0  0  0  0  0  0
  140.0370   70.4250  225.7270 C   0  0  0  0  0  0  0  0  0  0  0  0
  139.7620   69.8090  226.9250 C   0  0  0  0  0  0  0  0  0  0  0  0
  140.2910   70.3650  228.0900 C   0  0  0  0  0  0  0  0  0  0  0  0
  141.0710   71.4970  228.0760 C   0  0  0  0  0  0  0  0  0  0  0  0
  141.3460   72.1160  226.8790 C   0  0  0  0  0  0  0  0  0  0  0  0
  140.8200   71.5620  225.7240 C   0  0  0  0  0  0  0  0  0  0  0  0
  139.4720   74.6940  221.9690 N   0  0  0  0  0  0  0  0  0  0  0  0
  140.5550   75.4610  221.7880 C   0  0  0  0  0  0  0  0  0  0  0  0
  140.4480   76.8650  221.9530 N   0  0  0  0  0  0  0  0  0  0  0  0
  139.3210   77.4000  222.7010 C   0  0  0  0  0  0  0  0  0  0  0  0
  139.1220   78.8370  222.1880 C   0  0  0  0  0  0  0  0  0  0  0  0
  140.3630   79.5440  222.6830 C   0  0  0  0  0  0  0  0  0  0  0  0
  140.2940   80.6660  223.4740 C   0  0  0  0  0  0  0  0  0  0  0  0
  141.4840   81.2190  223.8920 C   0  0  0  0  0  0  0  0  0  0  0  0
  142.6760   80.6420  223.5080 C   0  0  0  0  0  0  0  0  0  0  0  0
  142.7280   79.5020  222.7030 C   0  0  0  0  0  0  0  0  0  0  0  0
  141.5550   78.9590  222.2930 C   0  0  0  0  0  0  0  0  0  0  0  0
  141.4440   77.7440  221.4180 C   0  0  0  0  0  0  0  0  0  0  0  0
  141.7360   74.8860  221.4420 N   0  0  0  0  0  0  0  0  0  0  0  0
  143.2320   71.5680  220.8040 C   0  0  0  0  0  0  0  0  0  0  0  0
  144.2000   71.1030  219.7650 C   0  0  0  0  0  0  0  0  0  0  0  0
  146.9320   71.1260  220.4610 H   0  0  0  0  0  0  0  0  0  0  0  0
  145.2953   72.5419  218.6851 H   0  0  0  0  0  0  0  0  0  0  0  0
  145.4719   72.5277  221.7277 H   0  0  0  0  0  0  0  0  0  0  0  0
  146.4018   73.6188  220.6970 H   0  0  0  0  0  0  0  0  0  0  0  0
  144.2402   74.7465  221.2615 H   0  0  0  0  0  0  0  0  0  0  0  0
  144.1448   74.3137  219.5559 H   0  0  0  0  0  0  0  0  0  0  0  0
  137.5810   72.8230  221.3890 H   0  0  0  0  0  0  0  0  0  0  0  0
  137.8025   72.2066  224.0477 H   0  0  0  0  0  0  0  0  0  0  0  0
  137.4390   70.9154  222.8883 H   0  0  0  0  0  0  0  0  0  0  0  0
  139.9461   70.6945  222.4919 H   0  0  0  0  0  0  0  0  0  0  0  0
  140.1434   71.8639  223.8970 H   0  0  0  0  0  0  0  0  0  0  0  0
  138.4942   69.5759  224.5339 H   0  0  0  0  0  0  0  0  0  0  0  0
  140.1628   69.1316  224.0423 H   0  0  0  0  0  0  0  0  0  0  0  0
  139.1412   68.9017  226.9639 H   0  0  0  0  0  0  0  0  0  0  0  0
  140.0764   69.8805  229.0539 H   0  0  0  0  0  0  0  0  0  0  0  0
  141.4723   71.9048  229.0155 H   0  0  0  0  0  0  0  0  0  0  0  0
  141.9654   73.0242  226.8403 H   0  0  0  0  0  0  0  0  0  0  0  0
  141.0356   72.0494  224.7617 H   0  0  0  0  0  0  0  0  0  0  0  0
  138.4185   76.7988  222.5162 H   0  0  0  0  0  0  0  0  0  0  0  0
  139.5077   77.3791  223.7848 H   0  0  0  0  0  0  0  0  0  0  0  0
  139.0636   78.8612  221.0898 H   0  0  0  0  0  0  0  0  0  0  0  0
  138.1878   79.2995  222.5394 H   0  0  0  0  0  0  0  0  0  0  0  0
  139.3271   81.1046  223.7616 H   0  0  0  0  0  0  0  0  0  0  0  0
  141.4836   82.1160  224.5287 H   0  0  0  0  0  0  0  0  0  0  0  0
  143.6189   81.0955  223.8476 H   0  0  0  0  0  0  0  0  0  0  0  0
  143.6910   79.0581  222.4105 H   0  0  0  0  0  0  0  0  0  0  0  0
  141.1570   78.0487  220.4007 H   0  0  0  0  0  0  0  0  0  0  0  0
  142.4133   77.2250  221.3833 H   0  0  0  0  0  0  0  0  0  0  0  0
  143.5696   71.1963  221.7827 H   0  0  0  0  0  0  0  0  0  0  0  0
  142.2452   71.1740  220.5195 H   0  0  0  0  0  0  0  0  0  0  0  0
  144.5395   70.0915  220.0326 H   0  0  0  0  0  0  0  0  0  0  0  0
  143.6741   71.1231  218.7990 H   0  0  0  0  0  0  0  0  0  0  0  0
  1  2  1  0
  2  3  1  0
  3  4  1  0
  4  5  1  0
  5  6  1  0
  6  7  2  0
  7  8  1  0
  8  9  1  0
  9 10  1  0
 10 11  1  0
 11 12  1  0
 12 13  1  0
 13 14  2  0
 14 15  1  0
 15 16  2  0
 16 17  1  0
 17 18  2  0
  8 19  2  0
 19 20  1  0
 20 21  1  0
 21 22  1  0
 22 23  1  0
 23 24  1  0
 24 25  2  0
 25 26  1  0
 26 27  2  0
 27 28  1  0
 28 29  2  0
 29 30  1  0
 20 31  2  0
  5 32  1  0
 32 33  1  0
 33  2  1  0
 31  6  1  0
 18 13  1  0
 30 21  1  0
 29 24  1  0
  1 34  1  0
  2 35  1  0
  3 36  1  0
  3 37  1  0
  4 38  1  0
  4 39  1  0
  9 40  1  0
 10 41  1  0
 10 42  1  0
 11 43  1  0
 11 44  1  0
 12 45  1  0
 12 46  1  0
 14 47  1  0
 15 48  1  0
 16 49  1  0
 17 50  1  0
 18 51  1  0
 22 52  1  0
 22 53  1  0
 23 54  1  0
 23 55  1  0
 25 56  1  0
 26 57  1  0
 27 58  1  0
 28 59  1  0
 30 60  1  0
 30 61  1  0
 32 62  1  0
 32 63  1  0
 33 64  1  0
 33 65  1  0
M  END
>  <smiles>  (18) 
OC1CCN(c2nc(NCCCc3ccccc3)nc(N3CCc4ccccc4C3)n2)CC1

>  <score_type>  (18) 
oracle

>  <origin>  (18) 
autodockgpu

>  <m_score__min__energy>  (18) 
-10.68

>  <m_primary>  (18) 
energy

>  <rmsd>  (18) 
5.427085353574138

>  <m_score__min__rmsd>  (18) 
5.427085353574138

>  <meeko>  (18) 
{"free_energy": -10.22, "intermolecular_energy": -12.61, "internal_energy": -1.16, "cluster_size": 50, "cluster_id": 1, "rank_in_cluster": 16}

>  <energy>  (18) 
-10.21

>  <cluster_rmsd>  (18) 
0.4

>  <cluster>  (18) 
1

$$$$

     RDKit          3D

 65 69  0  0  0  0  0  0  0  0999 V2000
  146.3230   73.0160  218.3340 O   0  0  0  0  0  0  0  0  0  0  0  0
  145.2470   72.7700  219.1840 C   0  0  0  0  0  0  0  0  0  0  0  0
  143.9530   72.6150  218.4080 C   0  0  0  0  0  0  0  0  0  0  0  0
  142.9210   72.1240  219.4380 C   0  0  0  0  0  0  0  0  0  0  0  0
  142.7390   73.2570  220.3520 N   0  0  0  0  0  0  0  0  0  0  0  0
  141.5590   73.3460  221.1340 C   0  0  0  0  0  0  0  0  0  0  0  0
  140.7490   74.4350  221.1460 N   0  0  0  0  0  0  0  0  0  0  0  0
  139.6560   74.5010  221.9100 C   0  0  0  0  0  0  0  0  0  0  0  0
  138.7380   75.5770  221.9290 N   0  0  0  0  0  0  0  0  0  0  0  0
  138.9250   76.8460  222.5900 C   0  0  0  0  0  0  0  0  0  0  0  0
  140.4230   77.0570  222.6870 C   0  0  0  0  0  0  0  0  0  0  0  0
  140.9910   77.9910  221.6820 C   0  0  0  0  0  0  0  0  0  0  0  0
  141.3860   79.2600  222.3570 C   0  0  0  0  0  0  0  0  0  0  0  0
  140.9800   80.5050  221.9390 C   0  0  0  0  0  0  0  0  0  0  0  0
  141.4310   81.6190  222.6470 C   0  0  0  0  0  0  0  0  0  0  0  0
  142.2600   81.5090  223.7390 C   0  0  0  0  0  0  0  0  0  0  0  0
  142.6680   80.2650  224.1580 C   0  0  0  0  0  0  0  0  0  0  0  0
  142.2190   79.1610  223.4530 C   0  0  0  0  0  0  0  0  0  0  0  0
  139.3270   73.4440  222.7110 N   0  0  0  0  0  0  0  0  0  0  0  0
  140.1040   72.3530  222.7230 C   0  0  0  0  0  0  0  0  0  0  0  0
  139.7610   71.2650  223.5640 N   0  0  0  0  0  0  0  0  0  0  0  0
  139.5760   69.9490  222.9700 C   0  0  0  0  0  0  0  0  0  0  0  0
  138.6410   69.1860  223.9250 C   0  0  0  0  0  0  0  0  0  0  0  0
  139.4980   69.0030  225.1570 C   0  0  0  0  0  0  0  0  0  0  0  0
  139.7500   67.7610  225.6890 C   0  0  0  0  0  0  0  0  0  0  0  0
  140.5630   67.7030  226.7980 C   0  0  0  0  0  0  0  0  0  0  0  0
  141.0820   68.8660  227.3260 C   0  0  0  0  0  0  0  0  0  0  0  0
  140.8150   70.1200  226.7720 C   0  0  0  0  0  0  0  0  0  0  0  0
  140.0140   70.1750  225.6790 C   0  0  0  0  0  0  0  0  0  0  0  0
  139.6250   71.4450  224.9780 C   0  0  0  0  0  0  0  0  0  0  0  0
  141.2100   72.3070  221.9370 N   0  0  0  0  0  0  0  0  0  0  0  0
  143.7300   74.2870  220.4860 C   0  0  0  0  0  0  0  0  0  0  0  0
  145.1310   73.8150  220.2670 C   0  0  0  0  0  0  0  0  0  0  0  0
  146.4330   73.9960  218.2640 H   0  0  0  0  0  0  0  0  0  0  0  0
  145.4438   71.8127  219.6888 H   0  0  0  0  0  0  0  0  0  0  0  0
  143.6420   73.5794  217.9801 H   0  0  0  0  0  0  0  0  0  0  0  0
  144.0596   71.9142  217.5668 H   0  0  0  0  0  0  0  0  0  0  0  0
  141.9720   71.8675  218.9444 H   0  0  0  0  0  0  0  0  0  0  0  0
  143.2552   71.2163  219.9618 H   0  0  0  0  0  0  0  0  0  0  0  0
  137.8330   75.3840  221.3860 H   0  0  0  0  0  0  0  0  0  0  0  0
  138.4637   77.6534  222.0024 H   0  0  0  0  0  0  0  0  0  0  0  0
  138.4545   76.8527  223.5843 H   0  0  0  0  0  0  0  0  0  0  0  0
  140.6476   77.4545  223.6878 H   0  0  0  0  0  0  0  0  0  0  0  0
  140.8849   76.0778  222.4926 H   0  0  0  0  0  0  0  0  0  0  0  0
  141.8748   77.5335  221.2134 H   0  0  0  0  0  0  0  0  0  0  0  0
  140.2376   78.2036  220.9092 H   0  0  0  0  0  0  0  0  0  0  0  0
  140.3168   80.6198  221.0689 H   0  0  0  0  0  0  0  0  0  0  0  0
  141.1127   82.6201  222.3207 H   0  0  0  0  0  0  0  0  0  0  0  0
  142.5943   82.4105  224.2734 H   0  0  0  0  0  0  0  0  0  0  0  0
  143.3316   80.1499  225.0277 H   0  0  0  0  0  0  0  0  0  0  0  0
  142.5403   78.1613  223.7808 H   0  0  0  0  0  0  0  0  0  0  0  0
  139.1164   70.0391  221.9747 H   0  0  0  0  0  0  0  0  0  0  0  0
  140.5346   69.4259  222.8379 H   0  0  0  0  0  0  0  0  0  0  0  0
  137.7404   69.7752  224.1527 H   0  0  0  0  0  0  0  0  0  0  0  0
  138.2707   68.2382  223.5072 H   0  0  0  0  0  0  0  0  0  0  0  0
  139.3195   66.8506  225.2465 H   0  0  0  0  0  0  0  0  0  0  0  0
  140.7976   66.7331  227.2610 H   0  0  0  0  0  0  0  0  0  0  0  0
  141.7284   68.8042  228.2139 H   0  0  0  0  0  0  0  0  0  0  0  0
  141.2414   71.0351  227.2089 H   0  0  0  0  0  0  0  0  0  0  0  0
  138.5805   71.6924  225.2183 H   0  0  0  0  0  0  0  0  0  0  0  0
  140.2791   72.2647  225.3100 H   0  0  0  0  0  0  0  0  0  0  0  0
  143.5115   75.0750  219.7502 H   0  0  0  0  0  0  0  0  0  0  0  0
  143.6746   74.6488  221.5233 H   0  0  0  0  0  0  0  0  0  0  0  0
  145.7506   74.6793  219.9859 H   0  0  0  0  0  0  0  0  0  0  0  0
  145.4685   73.3504  221.2052 H   0  0  0  0  0  0  0  0  0  0  0  0
  1  2  1  0
  2  3  1  0
  3  4  1  0
  4  5  1  0
  5  6  1  0
  6  7  2  0
  7  8  1  0
  8  9  1  0
  9 10  1  0
 10 11  1  0
 11 12  1  0
 12 13  1  0
 13 14  2  0
 14 15  1  0
 15 16  2  0
 16 17  1  0
 17 18  2  0
  8 19  2  0
 19 20  1  0
 20 21  1  0
 21 22  1  0
 22 23  1  0
 23 24  1  0
 24 25  2  0
 25 26  1  0
 26 27  2  0
 27 28  1  0
 28 29  2  0
 29 30  1  0
 20 31  2  0
  5 32  1  0
 32 33  1  0
 33  2  1  0
 31  6  1  0
 18 13  1  0
 30 21  1  0
 29 24  1  0
  1 34  1  0
  2 35  1  0
  3 36  1  0
  3 37  1  0
  4 38  1  0
  4 39  1  0
  9 40  1  0
 10 41  1  0
 10 42  1  0
 11 43  1  0
 11 44  1  0
 12 45  1  0
 12 46  1  0
 14 47  1  0
 15 48  1  0
 16 49  1  0
 17 50  1  0
 18 51  1  0
 22 52  1  0
 22 53  1  0
 23 54  1  0
 23 55  1  0
 25 56  1  0
 26 57  1  0
 27 58  1  0
 28 59  1  0
 30 60  1  0
 30 61  1  0
 32 62  1  0
 32 63  1  0
 33 64  1  0
 33 65  1  0
M  END
>  <smiles>  (19) 
OC1CCN(c2nc(NCCCc3ccccc3)nc(N3CCc4ccccc4C3)n2)CC1

>  <score_type>  (19) 
oracle

>  <origin>  (19) 
autodockgpu

>  <m_score__min__energy>  (19) 
-10.68

>  <m_primary>  (19) 
energy

>  <rmsd>  (19) 
11.211576957445082

>  <m_score__min__rmsd>  (19) 
11.211576957445082

>  <meeko>  (19) 
{"free_energy": -9.99, "intermolecular_energy": -12.38, "internal_energy": -1.08, "cluster_size": 50, "cluster_id": 1, "rank_in_cluster": 34}

>  <energy>  (19) 
-10.2

>  <cluster_rmsd>  (19) 
0.48

>  <cluster>  (19) 
1

$$$$

     RDKit          3D

 65 69  0  0  0  0  0  0  0  0999 V2000
  146.2800   72.3360  217.4310 O   0  0  0  0  0  0  0  0  0  0  0  0
  145.1580   72.4070  218.2540 C   0  0  0  0  0  0  0  0  0  0  0  0
  144.0040   73.1030  217.5580 C   0  0  0  0  0  0  0  0  0  0  0  0
  142.7920   72.8970  218.4840 C   0  0  0  0  0  0  0  0  0  0  0  0
  143.1020   73.6810  219.6840 N   0  0  0  0  0  0  0  0  0  0  0  0
  142.0530   74.0990  220.5410 C   0  0  0  0  0  0  0  0  0  0  0  0
  141.1450   73.2490  221.0840 N   0  0  0  0  0  0  0  0  0  0  0  0
  140.1530   73.6730  221.8700 C   0  0  0  0  0  0  0  0  0  0  0  0
  139.2100   72.8390  222.5150 N   0  0  0  0  0  0  0  0  0  0  0  0
  139.1730   71.3980  222.4700 C   0  0  0  0  0  0  0  0  0  0  0  0
  140.1490   70.9160  223.5250 C   0  0  0  0  0  0  0  0  0  0  0  0
  139.5540   70.0680  224.5890 C   0  0  0  0  0  0  0  0  0  0  0  0
  140.0610   70.5170  225.9170 C   0  0  0  0  0  0  0  0  0  0  0  0
  139.8180   69.8480  227.0930 C   0  0  0  0  0  0  0  0  0  0  0  0
  140.3360   70.3780  228.2750 C   0  0  0  0  0  0  0  0  0  0  0  0
  141.0740   71.5380  228.2970 C   0  0  0  0  0  0  0  0  0  0  0  0
  141.3180   72.2090  227.1230 C   0  0  0  0  0  0  0  0  0  0  0  0
  140.8030   71.6810  225.9510 C   0  0  0  0  0  0  0  0  0  0  0  0
  140.0320   75.0060  222.1470 N   0  0  0  0  0  0  0  0  0  0  0  0
  140.9120   75.8730  221.6270 C   0  0  0  0  0  0  0  0  0  0  0  0
  140.7750   77.2550  221.9110 N   0  0  0  0  0  0  0  0  0  0  0  0
  139.6530   77.6970  222.7250 C   0  0  0  0  0  0  0  0  0  0  0  0
  139.4080   79.1670  222.3390 C   0  0  0  0  0  0  0  0  0  0  0  0
  140.6430   79.8620  222.8660 C   0  0  0  0  0  0  0  0  0  0  0  0
  140.5660   80.9120  223.7490 C   0  0  0  0  0  0  0  0  0  0  0  0
  141.7520   81.4580  224.1860 C   0  0  0  0  0  0  0  0  0  0  0  0
  142.9480   80.9460  223.7300 C   0  0  0  0  0  0  0  0  0  0  0  0
  143.0080   79.8780  222.8310 C   0  0  0  0  0  0  0  0  0  0  0  0
  141.8390   79.3420  222.4030 C   0  0  0  0  0  0  0  0  0  0  0  0
  141.7370   78.2020  221.4310 C   0  0  0  0  0  0  0  0  0  0  0  0
  141.9140   75.4200  220.8320 N   0  0  0  0  0  0  0  0  0  0  0  0
  144.4510   74.0370  220.0270 C   0  0  0  0  0  0  0  0  0  0  0  0
  145.4730   73.0390  219.5880 C   0  0  0  0  0  0  0  0  0  0  0  0
  145.9680   72.3790  216.4940 H   0  0  0  0  0  0  0  0  0  0  0  0
  144.8417   71.3740  218.4611 H   0  0  0  0  0  0  0  0  0  0  0  0
  144.2177   74.1750  217.4348 H   0  0  0  0  0  0  0  0  0  0  0  0
  143.8260   72.6976  216.5510 H   0  0  0  0  0  0  0  0  0  0  0  0
  141.8722   73.2659  218.0067 H   0  0  0  0  0  0  0  0  0  0  0  0
  142.6200   71.8351  218.7139 H   0  0  0  0  0  0  0  0  0  0  0  0
  138.4730   73.3760  223.0810 H   0  0  0  0  0  0  0  0  0  0  0  0
  138.1590   71.0355  222.6947 H   0  0  0  0  0  0  0  0  0  0  0  0
  139.4432   71.0213  221.4724 H   0  0  0  0  0  0  0  0  0  0  0  0
  140.9342   70.3322  223.0223 H   0  0  0  0  0  0  0  0  0  0  0  0
  140.5295   71.8178  224.0271 H   0  0  0  0  0  0  0  0  0  0  0  0
  138.4582   70.1609  224.5633 H   0  0  0  0  0  0  0  0  0  0  0  0
  139.8344   69.0174  224.4232 H   0  0  0  0  0  0  0  0  0  0  0  0
  139.2300   68.9184  227.1019 H   0  0  0  0  0  0  0  0  0  0  0  0
  140.1477   69.8500  229.2214 H   0  0  0  0  0  0  0  0  0  0  0  0
  141.4666   71.9263  229.2484 H   0  0  0  0  0  0  0  0  0  0  0  0
  141.9055   73.1389  227.1144 H   0  0  0  0  0  0  0  0  0  0  0  0
  140.9932   72.2117  225.0065 H   0  0  0  0  0  0  0  0  0  0  0  0
  138.7610   77.0906  222.5093 H   0  0  0  0  0  0  0  0  0  0  0  0
  139.8653   77.5905  223.7991 H   0  0  0  0  0  0  0  0  0  0  0  0
  139.3240   79.2815  221.2482 H   0  0  0  0  0  0  0  0  0  0  0  0
  138.4714   79.5742  222.7475 H   0  0  0  0  0  0  0  0  0  0  0  0
  139.5961   81.3006  224.0928 H   0  0  0  0  0  0  0  0  0  0  0  0
  141.7453   82.2986  224.8955 H   0  0  0  0  0  0  0  0  0  0  0  0
  143.8875   81.3937  224.0862 H   0  0  0  0  0  0  0  0  0  0  0  0
  143.9739   79.4845  222.4815 H   0  0  0  0  0  0  0  0  0  0  0  0
  141.4190   78.5834  220.4494 H   0  0  0  0  0  0  0  0  0  0  0  0
  142.7175   77.7133  221.3321 H   0  0  0  0  0  0  0  0  0  0  0  0
  144.6849   75.0024  219.5544 H   0  0  0  0  0  0  0  0  0  0  0  0
  144.4995   74.0804  221.1251 H   0  0  0  0  0  0  0  0  0  0  0  0
  146.4461   73.5463  219.5126 H   0  0  0  0  0  0  0  0  0  0  0  0
  145.4820   72.2324  220.3359 H   0  0  0  0  0  0  0  0  0  0  0  0
  1  2  1  0
  2  3  1  0
  3  4  1  0
  4  5  1  0
  5  6  1  0
  6  7  2  0
  7  8  1  0
  8  9  1  0
  9 10  1  0
 10 11  1  0
 11 12  1  0
 12 13  1  0
 13 14  2  0
 14 15  1  0
 15 16  2  0
 16 17  1  0
 17 18  2  0
  8 19  2  0
 19 20  1  0
 20 21  1  0
 21 22  1  0
 22 23  1  0
 23 24  1  0
 24 25  2  0
 25 26  1  0
 26 27  2  0
 27 28  1  0
 28 29  2  0
 29 30  1  0
 20 31  2  0
  5 32  1  0
 32 33  1  0
 33  2  1  0
 31  6  1  0
 18 13  1  0
 30 21  1  0
 29 24  1  0
  1 34  1  0
  2 35  1  0
  3 36  1  0
  3 37  1  0
  4 38  1  0
  4 39  1  0
  9 40  1  0
 10 41  1  0
 10 42  1  0
 11 43  1  0
 11 44  1  0
 12 45  1  0
 12 46  1  0
 14 47  1  0
 15 48  1  0
 16 49  1  0
 17 50  1  0
 18 51  1  0
 22 52  1  0
 22 53  1  0
 23 54  1  0
 23 55  1  0
 25 56  1  0
 26 57  1  0
 27 58  1  0
 28 59  1  0
 30 60  1  0
 30 61  1  0
 32 62  1  0
 32 63  1  0
 33 64  1  0
 33 65  1  0
M  END
>  <smiles>  (20) 
OC1CCN(c2nc(NCCCc3ccccc3)nc(N3CCc4ccccc4C3)n2)CC1

>  <score_type>  (20) 
oracle

>  <origin>  (20) 
autodockgpu

>  <m_score__min__energy>  (20) 
-10.68

>  <m_primary>  (20) 
energy

>  <rmsd>  (20) 
5.632878495085065

>  <m_score__min__rmsd>  (20) 
5.632878495085065

>  <meeko>  (20) 
{"free_energy": -10.16, "intermolecular_energy": -12.55, "internal_energy": -1.02, "cluster_size": 50, "cluster_id": 1, "rank_in_cluster": 24}

>  <energy>  (20) 
-10.19

>  <cluster_rmsd>  (20) 
1.55

>  <cluster>  (20) 
1

$$$$

     RDKit          3D

 65 69  0  0  0  0  0  0  0  0999 V2000
  146.7110   73.3880  219.3000 O   0  0  0  0  0  0  0  0  0  0  0  0
  145.5930   73.2100  220.1110 C   0  0  0  0  0  0  0  0  0  0  0  0
  144.6030   72.2460  219.4850 C   0  0  0  0  0  0  0  0  0  0  0  0
  143.5560   71.9760  220.5800 C   0  0  0  0  0  0  0  0  0  0  0  0
  142.8570   73.2540  220.7520 N   0  0  0  0  0  0  0  0  0  0  0  0
  141.5600   73.2740  221.3250 C   0  0  0  0  0  0  0  0  0  0  0  0
  140.6330   74.2250  221.0460 N   0  0  0  0  0  0  0  0  0  0  0  0
  139.4260   74.2330  221.6180 C   0  0  0  0  0  0  0  0  0  0  0  0
  138.3940   75.1560  221.3310 N   0  0  0  0  0  0  0  0  0  0  0  0
  138.3790   76.5550  221.6820 C   0  0  0  0  0  0  0  0  0  0  0  0
  139.7820   77.0710  221.4260 C   0  0  0  0  0  0  0  0  0  0  0  0
  140.6800   77.0590  222.6080 C   0  0  0  0  0  0  0  0  0  0  0  0
  141.3570   78.3820  222.7250 C   0  0  0  0  0  0  0  0  0  0  0  0
  141.8100   78.9060  223.9130 C   0  0  0  0  0  0  0  0  0  0  0  0
  142.4150   80.1620  223.8930 C   0  0  0  0  0  0  0  0  0  0  0  0
  142.5710   80.8840  222.7340 C   0  0  0  0  0  0  0  0  0  0  0  0
  142.1190   80.3630  221.5440 C   0  0  0  0  0  0  0  0  0  0  0  0
  141.5180   79.1150  221.5670 C   0  0  0  0  0  0  0  0  0  0  0  0
  139.0980   73.2560  222.5160 N   0  0  0  0  0  0  0  0  0  0  0  0
  139.9900   72.3010  222.8140 C   0  0  0  0  0  0  0  0  0  0  0  0
  139.6450   71.2970  223.7530 N   0  0  0  0  0  0  0  0  0  0  0  0
  138.7910   70.2000  223.3260 C   0  0  0  0  0  0  0  0  0  0  0  0
  138.1030   69.6830  224.6020 C   0  0  0  0  0  0  0  0  0  0  0  0
  139.2490   69.0800  225.3800 C   0  0  0  0  0  0  0  0  0  0  0  0
  139.2350   67.7710  225.7990 C   0  0  0  0  0  0  0  0  0  0  0  0
  140.3410   67.3140  226.4800 C   0  0  0  0  0  0  0  0  0  0  0  0
  141.3990   68.1660  226.7140 C   0  0  0  0  0  0  0  0  0  0  0  0
  141.3970   69.4940  226.2810 C   0  0  0  0  0  0  0  0  0  0  0  0
  140.3070   69.9430  225.6110 C   0  0  0  0  0  0  0  0  0  0  0  0
  140.1480   71.3430  225.0930 C   0  0  0  0  0  0  0  0  0  0  0  0
  141.2100   72.3120  222.2200 N   0  0  0  0  0  0  0  0  0  0  0  0
  143.4540   74.5000  220.3610 C   0  0  0  0  0  0  0  0  0  0  0  0
  144.9440   74.5230  220.4760 C   0  0  0  0  0  0  0  0  0  0  0  0
  146.8940   74.3580  219.2490 H   0  0  0  0  0  0  0  0  0  0  0  0
  145.9422   72.7579  221.0511 H   0  0  0  0  0  0  0  0  0  0  0  0
  144.1293   72.6990  218.6016 H   0  0  0  0  0  0  0  0  0  0  0  0
  145.0897   71.3203  219.1441 H   0  0  0  0  0  0  0  0  0  0  0  0
  142.8550   71.1906  220.2609 H   0  0  0  0  0  0  0  0  0  0  0  0
  144.0146   71.6239  221.5158 H   0  0  0  0  0  0  0  0  0  0  0  0
  137.5660   74.7280  220.8010 H   0  0  0  0  0  0  0  0  0  0  0  0
  137.6536   77.0970  221.0575 H   0  0  0  0  0  0  0  0  0  0  0  0
  138.0834   76.7016  222.7314 H   0  0  0  0  0  0  0  0  0  0  0  0
  140.2383   76.4458  220.6444 H   0  0  0  0  0  0  0  0  0  0  0  0
  139.6731   78.1257  221.1332 H   0  0  0  0  0  0  0  0  0  0  0  0
  140.0898   76.8665  223.5161 H   0  0  0  0  0  0  0  0  0  0  0  0
  141.4348   76.2677  222.4897 H   0  0  0  0  0  0  0  0  0  0  0  0
  141.6979   78.3486  224.8547 H   0  0  0  0  0  0  0  0  0  0  0  0
  142.7803   80.5901  224.8381 H   0  0  0  0  0  0  0  0  0  0  0  0
  143.0541   81.8719  222.7579 H   0  0  0  0  0  0  0  0  0  0  0  0
  142.2313   80.9205  220.6024 H   0  0  0  0  0  0  0  0  0  0  0  0
  141.1531   78.6896  220.6205 H   0  0  0  0  0  0  0  0  0  0  0  0
  138.0414   70.5567  222.6043 H   0  0  0  0  0  0  0  0  0  0  0  0
  139.3687   69.4074  222.8280 H   0  0  0  0  0  0  0  0  0  0  0  0
  137.6347   70.5066  225.1610 H   0  0  0  0  0  0  0  0  0  0  0  0
  137.2908   68.9692  224.3999 H   0  0  0  0  0  0  0  0  0  0  0  0
  138.3750   67.1151  225.5984 H   0  0  0  0  0  0  0  0  0  0  0  0
  140.3801   66.2738  226.8357 H   0  0  0  0  0  0  0  0  0  0  0  0
  142.2751   67.7870  227.2606 H   0  0  0  0  0  0  0  0  0  0  0  0
  142.2536   70.1555  226.4776 H   0  0  0  0  0  0  0  0  0  0  0  0
  139.4417   71.8933  225.7320 H   0  0  0  0  0  0  0  0  0  0  0  0
  141.1225   71.8530  225.1037 H   0  0  0  0  0  0  0  0  0  0  0  0
  143.1849   74.6987  219.3131 H   0  0  0  0  0  0  0  0  0  0  0  0
  143.0699   75.2668  221.0498 H   0  0  0  0  0  0  0  0  0  0  0  0
  145.3336   75.3030  219.8054 H   0  0  0  0  0  0  0  0  0  0  0  0
  145.1856   74.7230  221.5303 H   0  0  0  0  0  0  0  0  0  0  0  0
  1  2  1  0
  2  3  1  0
  3  4  1  0
  4  5  1  0
  5  6  1  0
  6  7  2  0
  7  8  1  0
  8  9  1  0
  9 10  1  0
 10 11  1  0
 11 12  1  0
 12 13  1  0
 13 14  2  0
 14 15  1  0
 15 16  2  0
 16 17  1  0
 17 18  2  0
  8 19  2  0
 19 20  1  0
 20 21  1  0
 21 22  1  0
 22 23  1  0
 23 24  1  0
 24 25  2  0
 25 26  1  0
 26 27  2  0
 27 28  1  0
 28 29  2  0
 29 30  1  0
 20 31  2  0
  5 32  1  0
 32 33  1  0
 33  2  1  0
 31  6  1  0
 18 13  1  0
 30 21  1  0
 29 24  1  0
  1 34  1  0
  2 35  1  0
  3 36  1  0
  3 37  1  0
  4 38  1  0
  4 39  1  0
  9 40  1  0
 10 41  1  0
 10 42  1  0
 11 43  1  0
 11 44  1  0
 12 45  1  0
 12 46  1  0
 14 47  1  0
 15 48  1  0
 16 49  1  0
 17 50  1  0
 18 51  1  0
 22 52  1  0
 22 53  1  0
 23 54  1  0
 23 55  1  0
 25 56  1  0
 26 57  1  0
 27 58  1  0
 28 59  1  0
 30 60  1  0
 30 61  1  0
 32 62  1  0
 32 63  1  0
 33 64  1  0
 33 65  1  0
M  END
>  <smiles>  (21) 
OC1CCN(c2nc(NCCCc3ccccc3)nc(N3CCc4ccccc4C3)n2)CC1

>  <score_type>  (21) 
oracle

>  <origin>  (21) 
autodockgpu

>  <m_score__min__energy>  (21) 
-10.68

>  <m_primary>  (21) 
energy

>  <rmsd>  (21) 
11.362804939188546

>  <m_score__min__rmsd>  (21) 
11.362804939188546

>  <meeko>  (21) 
{"free_energy": -10.22, "intermolecular_energy": -12.61, "internal_energy": -1.19, "cluster_size": 50, "cluster_id": 1, "rank_in_cluster": 15}

>  <energy>  (21) 
-10.18

>  <cluster_rmsd>  (21) 
1.5

>  <cluster>  (21) 
1

$$$$

     RDKit          3D

 65 69  0  0  0  0  0  0  0  0999 V2000
  146.2810   71.5240  218.9910 O   0  0  0  0  0  0  0  0  0  0  0  0
  145.2280   71.8420  219.8470 C   0  0  0  0  0  0  0  0  0  0  0  0
  143.9080   71.3160  219.3190 C   0  0  0  0  0  0  0  0  0  0  0  0
  142.9000   71.5340  220.4620 C   0  0  0  0  0  0  0  0  0  0  0  0
  142.7680   72.9900  220.5690 N   0  0  0  0  0  0  0  0  0  0  0  0
  141.6160   73.5480  221.1800 C   0  0  0  0  0  0  0  0  0  0  0  0
  140.5710   72.8050  221.6260 N   0  0  0  0  0  0  0  0  0  0  0  0
  139.4880   73.3580  222.1770 C   0  0  0  0  0  0  0  0  0  0  0  0
  138.3920   72.6440  222.7150 N   0  0  0  0  0  0  0  0  0  0  0  0
  138.1120   71.2420  222.5280 C   0  0  0  0  0  0  0  0  0  0  0  0
  138.4260   70.5670  223.8490 C   0  0  0  0  0  0  0  0  0  0  0  0
  139.8680   70.3150  224.0980 C   0  0  0  0  0  0  0  0  0  0  0  0
  140.2140   70.7550  225.4790 C   0  0  0  0  0  0  0  0  0  0  0  0
  140.9570   71.8780  225.7590 C   0  0  0  0  0  0  0  0  0  0  0  0
  141.2270   72.1750  227.0940 C   0  0  0  0  0  0  0  0  0  0  0  0
  140.7760   71.3880  228.1280 C   0  0  0  0  0  0  0  0  0  0  0  0
  140.0340   70.2640  227.8500 C   0  0  0  0  0  0  0  0  0  0  0  0
  139.7680   69.9710  226.5240 C   0  0  0  0  0  0  0  0  0  0  0  0
  139.4120   74.7170  222.3020 N   0  0  0  0  0  0  0  0  0  0  0  0
  140.4260   75.4800  221.8720 C   0  0  0  0  0  0  0  0  0  0  0  0
  140.3370   76.8890  221.9970 N   0  0  0  0  0  0  0  0  0  0  0  0
  139.1950   77.4610  222.6950 C   0  0  0  0  0  0  0  0  0  0  0  0
  139.0360   78.8870  222.1400 C   0  0  0  0  0  0  0  0  0  0  0  0
  140.2720   79.5880  222.6560 C   0  0  0  0  0  0  0  0  0  0  0  0
  140.1960   80.7310  223.4150 C   0  0  0  0  0  0  0  0  0  0  0  0
  141.3810   81.2760  223.8560 C   0  0  0  0  0  0  0  0  0  0  0  0
  142.5750   80.6710  223.5250 C   0  0  0  0  0  0  0  0  0  0  0  0
  142.6340   79.5100  222.7520 C   0  0  0  0  0  0  0  0  0  0  0  0
  141.4660   78.9740  222.3190 C   0  0  0  0  0  0  0  0  0  0  0  0
  141.3630   77.7390  221.4720 C   0  0  0  0  0  0  0  0  0  0  0  0
  141.5190   74.8960  221.3170 N   0  0  0  0  0  0  0  0  0  0  0  0
  143.7820   73.8800  220.0760 C   0  0  0  0  0  0  0  0  0  0  0  0
  145.1660   73.3210  220.1420 C   0  0  0  0  0  0  0  0  0  0  0  0
  145.9580   70.8330  218.3620 H   0  0  0  0  0  0  0  0  0  0  0  0
  145.4232   71.3368  220.8044 H   0  0  0  0  0  0  0  0  0  0  0  0
  143.6012   71.8745  218.4224 H   0  0  0  0  0  0  0  0  0  0  0  0
  143.9748   70.2578  219.0262 H   0  0  0  0  0  0  0  0  0  0  0  0
  141.9313   71.0736  220.2180 H   0  0  0  0  0  0  0  0  0  0  0  0
  143.2341   71.0760  221.4046 H   0  0  0  0  0  0  0  0  0  0  0  0
  137.7350   73.2460  223.3140 H   0  0  0  0  0  0  0  0  0  0  0  0
  137.0532   71.0962  222.2677 H   0  0  0  0  0  0  0  0  0  0  0  0
  138.7131   70.8193  221.7095 H   0  0  0  0  0  0  0  0  0  0  0  0
  138.0469   71.2082  224.6584 H   0  0  0  0  0  0  0  0  0  0  0  0
  137.9433   69.5793  223.8118 H   0  0  0  0  0  0  0  0  0  0  0  0
  140.0768   69.2402  223.9917 H   0  0  0  0  0  0  0  0  0  0  0  0
  140.4712   70.8776  223.3702 H   0  0  0  0  0  0  0  0  0  0  0  0
  141.3285   72.5249  224.9506 H   0  0  0  0  0  0  0  0  0  0  0  0
  141.8216   73.0702  227.3287 H   0  0  0  0  0  0  0  0  0  0  0  0
  141.0071   71.6557  229.1696 H   0  0  0  0  0  0  0  0  0  0  0  0
  139.6627   69.6167  228.6582 H   0  0  0  0  0  0  0  0  0  0  0  0
  139.1751   69.0739  226.2925 H   0  0  0  0  0  0  0  0  0  0  0  0
  138.2891   76.8694  222.4965 H   0  0  0  0  0  0  0  0  0  0  0  0
  139.3469   77.4651  223.7845 H   0  0  0  0  0  0  0  0  0  0  0  0
  139.0126   78.8837  221.0403 H   0  0  0  0  0  0  0  0  0  0  0  0
  138.0989   79.3726  222.4500 H   0  0  0  0  0  0  0  0  0  0  0  0
  139.2278   81.1918  223.6603 H   0  0  0  0  0  0  0  0  0  0  0  0
  141.3752   82.1892  224.4692 H   0  0  0  0  0  0  0  0  0  0  0  0
  143.5139   81.1188  223.8825 H   0  0  0  0  0  0  0  0  0  0  0  0
  143.5986   79.0442  222.5018 H   0  0  0  0  0  0  0  0  0  0  0  0
  141.1128   78.0219  220.4388 H   0  0  0  0  0  0  0  0  0  0  0  0
  142.3245   77.2047  221.4812 H   0  0  0  0  0  0  0  0  0  0  0  0
  143.5541   74.1162  219.0261 H   0  0  0  0  0  0  0  0  0  0  0  0
  143.7669   74.7692  220.7233 H   0  0  0  0  0  0  0  0  0  0  0  0
  145.7914   73.8499  219.4077 H   0  0  0  0  0  0  0  0  0  0  0  0
  145.5256   73.4628  221.1719 H   0  0  0  0  0  0  0  0  0  0  0  0
  1  2  1  0
  2  3  1  0
  3  4  1  0
  4  5  1  0
  5  6  1  0
  6  7  2  0
  7  8  1  0
  8  9  1  0
  9 10  1  0
 10 11  1  0
 11 12  1  0
 12 13  1  0
 13 14  2  0
 14 15  1  0
 15 16  2  0
 16 17  1  0
 17 18  2  0
  8 19  2  0
 19 20  1  0
 20 21  1  0
 21 22  1  0
 22 23  1  0
 23 24  1  0
 24 25  2  0
 25 26  1  0
 26 27  2  0
 27 28  1  0
 28 29  2  0
 29 30  1  0
 20 31  2  0
  5 32  1  0
 32 33  1  0
 33  2  1  0
 31  6  1  0
 18 13  1  0
 30 21  1  0
 29 24  1  0
  1 34  1  0
  2 35  1  0
  3 36  1  0
  3 37  1  0
  4 38  1  0
  4 39  1  0
  9 40  1  0
 10 41  1  0
 10 42  1  0
 11 43  1  0
 11 44  1  0
 12 45  1  0
 12 46  1  0
 14 47  1  0
 15 48  1  0
 16 49  1  0
 17 50  1  0
 18 51  1  0
 22 52  1  0
 22 53  1  0
 23 54  1  0
 23 55  1  0
 25 56  1  0
 26 57  1  0
 27 58  1  0
 28 59  1  0
 30 60  1  0
 30 61  1  0
 32 62  1  0
 32 63  1  0
 33 64  1  0
 33 65  1  0
M  END
>  <smiles>  (22) 
OC1CCN(c2nc(NCCCc3ccccc3)nc(N3CCc4ccccc4C3)n2)CC1

>  <score_type>  (22) 
oracle

>  <origin>  (22) 
autodockgpu

>  <m_score__min__energy>  (22) 
-10.68

>  <m_primary>  (22) 
energy

>  <rmsd>  (22) 
5.422636119694559

>  <m_score__min__rmsd>  (22) 
5.422636119694559

>  <meeko>  (22) 
{"free_energy": -10.21, "intermolecular_energy": -12.6, "internal_energy": -1.27, "cluster_size": 50, "cluster_id": 1, "rank_in_cluster": 18}

>  <energy>  (22) 
-10.16

>  <cluster_rmsd>  (22) 
1.5

>  <cluster>  (22) 
1

$$$$

     RDKit          3D

 65 69  0  0  0  0  0  0  0  0999 V2000
  146.6920   73.0130  219.3710 O   0  0  0  0  0  0  0  0  0  0  0  0
  145.5540   73.0400  220.1740 C   0  0  0  0  0  0  0  0  0  0  0  0
  144.4420   72.1940  219.5860 C   0  0  0  0  0  0  0  0  0  0  0  0
  143.3590   72.1350  220.6790 C   0  0  0  0  0  0  0  0  0  0  0  0
  142.8490   73.5070  220.7720 N   0  0  0  0  0  0  0  0  0  0  0  0
  141.5640   73.7420  221.3250 C   0  0  0  0  0  0  0  0  0  0  0  0
  140.7500   72.7530  221.7740 N   0  0  0  0  0  0  0  0  0  0  0  0
  139.5340   73.0020  222.2690 C   0  0  0  0  0  0  0  0  0  0  0  0
  138.6590   72.0300  222.8070 N   0  0  0  0  0  0  0  0  0  0  0  0
  138.5770   70.6450  222.4150 C   0  0  0  0  0  0  0  0  0  0  0  0
  139.2120   69.8480  223.5380 C   0  0  0  0  0  0  0  0  0  0  0  0
  140.3360   70.5270  224.2310 C   0  0  0  0  0  0  0  0  0  0  0  0
  140.3240   70.1530  225.6730 C   0  0  0  0  0  0  0  0  0  0  0  0
  140.5120   71.0510  226.6970 C   0  0  0  0  0  0  0  0  0  0  0  0
  140.4940   70.5730  228.0070 C   0  0  0  0  0  0  0  0  0  0  0  0
  140.2950   69.2440  228.3010 C   0  0  0  0  0  0  0  0  0  0  0  0
  140.1070   68.3440  227.2790 C   0  0  0  0  0  0  0  0  0  0  0  0
  140.1260   68.8210  225.9800 C   0  0  0  0  0  0  0  0  0  0  0  0
  139.0810   74.2890  222.3310 N   0  0  0  0  0  0  0  0  0  0  0  0
  139.8590   75.2890  221.8960 C   0  0  0  0  0  0  0  0  0  0  0  0
  139.3780   76.6210  221.9560 N   0  0  0  0  0  0  0  0  0  0  0  0
  138.0170   76.8560  222.4130 C   0  0  0  0  0  0  0  0  0  0  0  0
  137.5910   78.1980  221.7910 C   0  0  0  0  0  0  0  0  0  0  0  0
  138.4790   79.1930  222.5020 C   0  0  0  0  0  0  0  0  0  0  0  0
  137.9630   80.2620  223.1960 C   0  0  0  0  0  0  0  0  0  0  0  0
  138.8580   81.0950  223.8280 C   0  0  0  0  0  0  0  0  0  0  0  0
  140.2090   80.8360  223.7430 C   0  0  0  0  0  0  0  0  0  0  0  0
  140.7160   79.7460  223.0320 C   0  0  0  0  0  0  0  0  0  0  0  0
  139.8340   78.9260  222.4100 C   0  0  0  0  0  0  0  0  0  0  0  0
  140.2210   77.7230  221.6000 C   0  0  0  0  0  0  0  0  0  0  0  0
  141.0920   75.0140  221.3990 N   0  0  0  0  0  0  0  0  0  0  0  0
  143.6200   74.6320  220.3240 C   0  0  0  0  0  0  0  0  0  0  0  0
  145.0970   74.4500  220.4580 C   0  0  0  0  0  0  0  0  0  0  0  0
  146.7520   73.8820  218.9030 H   0  0  0  0  0  0  0  0  0  0  0  0
  145.8277   72.5950  221.1420 H   0  0  0  0  0  0  0  0  0  0  0  0
  144.0437   72.6608  218.6730 H   0  0  0  0  0  0  0  0  0  0  0  0
  144.7944   71.1915  219.3017 H   0  0  0  0  0  0  0  0  0  0  0  0
  142.5553   71.4410  220.3917 H   0  0  0  0  0  0  0  0  0  0  0  0
  143.7556   71.7724  221.6388 H   0  0  0  0  0  0  0  0  0  0  0  0
  138.0150   72.4080  223.5780 H   0  0  0  0  0  0  0  0  0  0  0  0
  137.5261   70.3477  222.2836 H   0  0  0  0  0  0  0  0  0  0  0  0
  139.0908   70.4685  221.4585 H   0  0  0  0  0  0  0  0  0  0  0  0
  138.4336   69.6291  224.2837 H   0  0  0  0  0  0  0  0  0  0  0  0
  139.6370   68.9462  223.0731 H   0  0  0  0  0  0  0  0  0  0  0  0
  141.2888   70.2149  223.7785 H   0  0  0  0  0  0  0  0  0  0  0  0
  140.2249   71.6169  224.1323 H   0  0  0  0  0  0  0  0  0  0  0  0
  140.6725   72.1190  226.4884 H   0  0  0  0  0  0  0  0  0  0  0  0
  140.6441   71.2831  228.8336 H   0  0  0  0  0  0  0  0  0  0  0  0
  140.2864   68.9037  229.3470 H   0  0  0  0  0  0  0  0  0  0  0  0
  139.9462   67.2760  227.4876 H   0  0  0  0  0  0  0  0  0  0  0  0
  139.9769   68.1080  225.1558 H   0  0  0  0  0  0  0  0  0  0  0  0
  137.3535   76.0479  222.0715 H   0  0  0  0  0  0  0  0  0  0  0  0
  137.9577   76.8820  223.5111 H   0  0  0  0  0  0  0  0  0  0  0  0
  137.7739   78.2079  220.7064 H   0  0  0  0  0  0  0  0  0  0  0  0
  136.5181   78.4109  221.9071 H   0  0  0  0  0  0  0  0  0  0  0  0
  136.8792   80.4440  223.2441 H   0  0  0  0  0  0  0  0  0  0  0  0
  138.4967   81.9634  224.3983 H   0  0  0  0  0  0  0  0  0  0  0  0
  140.9122   81.5110  224.2527 H   0  0  0  0  0  0  0  0  0  0  0  0
  141.7986   79.5586  222.9784 H   0  0  0  0  0  0  0  0  0  0  0  0
  140.1009   77.9466  220.5297 H   0  0  0  0  0  0  0  0  0  0  0  0
  141.2707   77.4644  221.8031 H   0  0  0  0  0  0  0  0  0  0  0  0
  143.3884   74.8095  219.2634 H   0  0  0  0  0  0  0  0  0  0  0  0
  143.3450   75.4817  220.9662 H   0  0  0  0  0  0  0  0  0  0  0  0
  145.5977   75.1281  219.7512 H   0  0  0  0  0  0  0  0  0  0  0  0
  145.3587   74.6726  221.5030 H   0  0  0  0  0  0  0  0  0  0  0  0
  1  2  1  0
  2  3  1  0
  3  4  1  0
  4  5  1  0
  5  6  1  0
  6  7  2  0
  7  8  1  0
  8  9  1  0
  9 10  1  0
 10 11  1  0
 11 12  1  0
 12 13  1  0
 13 14  2  0
 14 15  1  0
 15 16  2  0
 16 17  1  0
 17 18  2  0
  8 19  2  0
 19 20  1  0
 20 21  1  0
 21 22  1  0
 22 23  1  0
 23 24  1  0
 24 25  2  0
 25 26  1  0
 26 27  2  0
 27 28  1  0
 28 29  2  0
 29 30  1  0
 20 31  2  0
  5 32  1  0
 32 33  1  0
 33  2  1  0
 31  6  1  0
 18 13  1  0
 30 21  1  0
 29 24  1  0
  1 34  1  0
  2 35  1  0
  3 36  1  0
  3 37  1  0
  4 38  1  0
  4 39  1  0
  9 40  1  0
 10 41  1  0
 10 42  1  0
 11 43  1  0
 11 44  1  0
 12 45  1  0
 12 46  1  0
 14 47  1  0
 15 48  1  0
 16 49  1  0
 17 50  1  0
 18 51  1  0
 22 52  1  0
 22 53  1  0
 23 54  1  0
 23 55  1  0
 25 56  1  0
 26 57  1  0
 27 58  1  0
 28 59  1  0
 30 60  1  0
 30 61  1  0
 32 62  1  0
 32 63  1  0
 33 64  1  0
 33 65  1  0
M  END
>  <smiles>  (23) 
OC1CCN(c2nc(NCCCc3ccccc3)nc(N3CCc4ccccc4C3)n2)CC1

>  <score_type>  (23) 
oracle

>  <origin>  (23) 
autodockgpu

>  <m_score__min__energy>  (23) 
-10.68

>  <m_primary>  (23) 
energy

>  <rmsd>  (23) 
5.3203188938702635

>  <m_score__min__rmsd>  (23) 
5.3203188938702635

>  <meeko>  (23) 
{"free_energy": -10.03, "intermolecular_energy": -12.41, "internal_energy": -1.09, "cluster_size": 50, "cluster_id": 1, "rank_in_cluster": 32}

>  <energy>  (23) 
-10.16

>  <cluster_rmsd>  (23) 
1.54

>  <cluster>  (23) 
1

$$$$

     RDKit          3D

 65 69  0  0  0  0  0  0  0  0999 V2000
  146.3090   71.3180  219.2820 O   0  0  0  0  0  0  0  0  0  0  0  0
  145.1490   72.0720  219.4440 C   0  0  0  0  0  0  0  0  0  0  0  0
  145.3190   73.1250  220.5220 C   0  0  0  0  0  0  0  0  0  0  0  0
  144.0640   74.0110  220.4230 C   0  0  0  0  0  0  0  0  0  0  0  0
  142.9600   73.1420  220.8440 N   0  0  0  0  0  0  0  0  0  0  0  0
  141.7520   73.7180  221.3120 C   0  0  0  0  0  0  0  0  0  0  0  0
  140.6490   72.9930  221.6270 N   0  0  0  0  0  0  0  0  0  0  0  0
  139.5160   73.5640  222.0450 C   0  0  0  0  0  0  0  0  0  0  0  0
  138.3510   72.8690  222.4450 N   0  0  0  0  0  0  0  0  0  0  0  0
  138.1970   71.4370  222.5220 C   0  0  0  0  0  0  0  0  0  0  0  0
  138.5210   71.0520  223.9530 C   0  0  0  0  0  0  0  0  0  0  0  0
  139.8980   70.5400  224.1680 C   0  0  0  0  0  0  0  0  0  0  0  0
  140.3030   70.7940  225.5800 C   0  0  0  0  0  0  0  0  0  0  0  0
  141.0240   71.8930  225.9820 C   0  0  0  0  0  0  0  0  0  0  0  0
  141.3550   72.0090  227.3310 C   0  0  0  0  0  0  0  0  0  0  0  0
  140.9840   71.0670  228.2620 C   0  0  0  0  0  0  0  0  0  0  0  0
  140.2630   69.9670  227.8630 C   0  0  0  0  0  0  0  0  0  0  0  0
  139.9360   69.8540  226.5220 C   0  0  0  0  0  0  0  0  0  0  0  0
  139.4490   74.9240  222.1630 N   0  0  0  0  0  0  0  0  0  0  0  0
  140.5200   75.6700  221.8600 C   0  0  0  0  0  0  0  0  0  0  0  0
  140.4400   77.0810  221.9770 N   0  0  0  0  0  0  0  0  0  0  0  0
  139.3100   77.6630  222.6860 C   0  0  0  0  0  0  0  0  0  0  0  0
  139.1510   79.0870  222.1230 C   0  0  0  0  0  0  0  0  0  0  0  0
  140.3970   79.7840  222.6190 C   0  0  0  0  0  0  0  0  0  0  0  0
  140.3360   80.9330  223.3710 C   0  0  0  0  0  0  0  0  0  0  0  0
  141.5300   81.4740  223.7940 C   0  0  0  0  0  0  0  0  0  0  0  0
  142.7160   80.8600  223.4530 C   0  0  0  0  0  0  0  0  0  0  0  0
  142.7590   79.6940  222.6870 C   0  0  0  0  0  0  0  0  0  0  0  0
  141.5830   79.1620  222.2720 C   0  0  0  0  0  0  0  0  0  0  0  0
  141.4640   77.9210  221.4340 C   0  0  0  0  0  0  0  0  0  0  0  0
  141.6620   75.0680  221.4400 N   0  0  0  0  0  0  0  0  0  0  0  0
  143.0620   71.7100  220.7920 C   0  0  0  0  0  0  0  0  0  0  0  0
  143.9400   71.2030  219.6940 C   0  0  0  0  0  0  0  0  0  0  0  0
  146.6800   71.1400  220.1820 H   0  0  0  0  0  0  0  0  0  0  0  0
  144.9692   72.5992  218.4955 H   0  0  0  0  0  0  0  0  0  0  0  0
  145.3816   72.6544  221.5143 H   0  0  0  0  0  0  0  0  0  0  0  0
  146.2435   73.7056  220.3872 H   0  0  0  0  0  0  0  0  0  0  0  0
  144.1495   74.8806  221.0912 H   0  0  0  0  0  0  0  0  0  0  0  0
  143.9156   74.4103  219.4088 H   0  0  0  0  0  0  0  0  0  0  0  0
  137.5330   73.5110  222.7070 H   0  0  0  0  0  0  0  0  0  0  0  0
  137.1640   71.1509  222.2748 H   0  0  0  0  0  0  0  0  0  0  0  0
  138.8597   70.9240  221.8094 H   0  0  0  0  0  0  0  0  0  0  0  0
  138.3852   71.9420  224.5850 H   0  0  0  0  0  0  0  0  0  0  0  0
  137.8418   70.2260  224.2107 H   0  0  0  0  0  0  0  0  0  0  0  0
  139.9236   69.4588  223.9672 H   0  0  0  0  0  0  0  0  0  0  0  0
  140.5927   71.0537  223.4872 H   0  0  0  0  0  0  0  0  0  0  0  0
  141.3319   72.6614  225.2576 H   0  0  0  0  0  0  0  0  0  0  0  0
  141.9329   72.8843  227.6625 H   0  0  0  0  0  0  0  0  0  0  0  0
  141.2624   71.1931  229.3187 H   0  0  0  0  0  0  0  0  0  0  0  0
  139.9547   69.1989  228.5876 H   0  0  0  0  0  0  0  0  0  0  0  0
  139.3588   68.9772  226.1933 H   0  0  0  0  0  0  0  0  0  0  0  0
  138.3987   77.0747  222.5031 H   0  0  0  0  0  0  0  0  0  0  0  0
  139.4757   77.6734  223.7734 H   0  0  0  0  0  0  0  0  0  0  0  0
  139.1138   79.0766  221.0237 H   0  0  0  0  0  0  0  0  0  0  0  0
  138.2204   79.5797  222.4411 H   0  0  0  0  0  0  0  0  0  0  0  0
  139.3734   81.4011  223.6245 H   0  0  0  0  0  0  0  0  0  0  0  0
  141.5370   82.3914  224.4009 H   0  0  0  0  0  0  0  0  0  0  0  0
  143.6617   81.3045  223.7966 H   0  0  0  0  0  0  0  0  0  0  0  0
  143.7178   79.2211  222.4279 H   0  0  0  0  0  0  0  0  0  0  0  0
  141.2034   78.1980  220.4018 H   0  0  0  0  0  0  0  0  0  0  0  0
  142.4227   77.3817  221.4352 H   0  0  0  0  0  0  0  0  0  0  0  0
  143.4688   71.3571  221.7512 H   0  0  0  0  0  0  0  0  0  0  0  0
  142.0505   71.3257  220.5941 H   0  0  0  0  0  0  0  0  0  0  0  0
  144.2854   70.1935  219.9616 H   0  0  0  0  0  0  0  0  0  0  0  0
  143.3411   71.2063  218.7713 H   0  0  0  0  0  0  0  0  0  0  0  0
  1  2  1  0
  2  3  1  0
  3  4  1  0
  4  5  1  0
  5  6  1  0
  6  7  2  0
  7  8  1  0
  8  9  1  0
  9 10  1  0
 10 11  1  0
 11 12  1  0
 12 13  1  0
 13 14  2  0
 14 15  1  0
 15 16  2  0
 16 17  1  0
 17 18  2  0
  8 19  2  0
 19 20  1  0
 20 21  1  0
 21 22  1  0
 22 23  1  0
 23 24  1  0
 24 25  2  0
 25 26  1  0
 26 27  2  0
 27 28  1  0
 28 29  2  0
 29 30  1  0
 20 31  2  0
  5 32  1  0
 32 33  1  0
 33  2  1  0
 31  6  1  0
 18 13  1  0
 30 21  1  0
 29 24  1  0
  1 34  1  0
  2 35  1  0
  3 36  1  0
  3 37  1  0
  4 38  1  0
  4 39  1  0
  9 40  1  0
 10 41  1  0
 10 42  1  0
 11 43  1  0
 11 44  1  0
 12 45  1  0
 12 46  1  0
 14 47  1  0
 15 48  1  0
 16 49  1  0
 17 50  1  0
 18 51  1  0
 22 52  1  0
 22 53  1  0
 23 54  1  0
 23 55  1  0
 25 56  1  0
 26 57  1  0
 27 58  1  0
 28 59  1  0
 30 60  1  0
 30 61  1  0
 32 62  1  0
 32 63  1  0
 33 64  1  0
 33 65  1  0
M  END
>  <smiles>  (24) 
OC1CCN(c2nc(NCCCc3ccccc3)nc(N3CCc4ccccc4C3)n2)CC1

>  <score_type>  (24) 
oracle

>  <origin>  (24) 
autodockgpu

>  <m_score__min__energy>  (24) 
-10.68

>  <m_primary>  (24) 
energy

>  <rmsd>  (24) 
5.460294139067648

>  <m_score__min__rmsd>  (24) 
5.460294139067648

>  <meeko>  (24) 
{"free_energy": -10.58, "intermolecular_energy": -12.97, "internal_energy": -1.22, "cluster_size": 50, "cluster_id": 1, "rank_in_cluster": 3}

>  <energy>  (24) 
-10.16

>  <cluster_rmsd>  (24) 
1.17

>  <cluster>  (24) 
1

$$$$

     RDKit          3D

 65 69  0  0  0  0  0  0  0  0999 V2000
  146.3180   73.0850  218.3820 O   0  0  0  0  0  0  0  0  0  0  0  0
  145.2470   72.8180  219.2310 C   0  0  0  0  0  0  0  0  0  0  0  0
  143.9630   72.6080  218.4530 C   0  0  0  0  0  0  0  0  0  0  0  0
  142.9420   72.1010  219.4870 C   0  0  0  0  0  0  0  0  0  0  0  0
  142.7190   73.2410  220.3810 N   0  0  0  0  0  0  0  0  0  0  0  0
  141.5330   73.3050  221.1570 C   0  0  0  0  0  0  0  0  0  0  0  0
  140.7340   74.4000  221.2150 N   0  0  0  0  0  0  0  0  0  0  0  0
  139.6350   74.4400  221.9720 C   0  0  0  0  0  0  0  0  0  0  0  0
  138.7270   75.5230  222.0360 N   0  0  0  0  0  0  0  0  0  0  0  0
  139.0360   76.8730  222.4400 C   0  0  0  0  0  0  0  0  0  0  0  0
  139.9100   77.4530  221.3450 C   0  0  0  0  0  0  0  0  0  0  0  0
  139.8120   78.9260  221.1800 C   0  0  0  0  0  0  0  0  0  0  0  0
  140.7980   79.5890  222.0790 C   0  0  0  0  0  0  0  0  0  0  0  0
  140.5350   80.7400  222.7840 C   0  0  0  0  0  0  0  0  0  0  0  0
  141.5470   81.2720  223.5810 C   0  0  0  0  0  0  0  0  0  0  0  0
  142.7870   80.6860  223.6830 C   0  0  0  0  0  0  0  0  0  0  0  0
  143.0530   79.5360  222.9790 C   0  0  0  0  0  0  0  0  0  0  0  0
  142.0460   79.0090  222.1880 C   0  0  0  0  0  0  0  0  0  0  0  0
  139.2890   73.3490  222.7200 N   0  0  0  0  0  0  0  0  0  0  0  0
  140.0560   72.2510  222.6850 C   0  0  0  0  0  0  0  0  0  0  0  0
  139.6950   71.1270  223.4700 N   0  0  0  0  0  0  0  0  0  0  0  0
  139.4720   69.8510  222.8080 C   0  0  0  0  0  0  0  0  0  0  0  0
  138.5290   69.0590  223.7310 C   0  0  0  0  0  0  0  0  0  0  0  0
  139.3930   68.7890  224.9410 C   0  0  0  0  0  0  0  0  0  0  0  0
  139.6210   67.5140  225.4030 C   0  0  0  0  0  0  0  0  0  0  0  0
  140.4440   67.3770  226.4980 C   0  0  0  0  0  0  0  0  0  0  0  0
  140.9960   68.4980  227.0810 C   0  0  0  0  0  0  0  0  0  0  0  0
  140.7540   69.7860  226.5990 C   0  0  0  0  0  0  0  0  0  0  0  0
  139.9430   69.9190  225.5200 C   0  0  0  0  0  0  0  0  0  0  0  0
  139.5780   71.2330  224.8930 C   0  0  0  0  0  0  0  0  0  0  0  0
  141.1680   72.2320  221.9070 N   0  0  0  0  0  0  0  0  0  0  0  0
  143.6760   74.3050  220.5030 C   0  0  0  0  0  0  0  0  0  0  0  0
  145.0920   73.8750  220.2970 C   0  0  0  0  0  0  0  0  0  0  0  0
  146.3870   74.0660  218.2840 H   0  0  0  0  0  0  0  0  0  0  0  0
  145.4728   71.8758  219.7518 H   0  0  0  0  0  0  0  0  0  0  0  0
  143.6230   73.5545  218.0074 H   0  0  0  0  0  0  0  0  0  0  0  0
  144.0963   71.8968  217.6245 H   0  0  0  0  0  0  0  0  0  0  0  0
  142.0042   71.8060  218.9935 H   0  0  0  0  0  0  0  0  0  0  0  0
  143.3031   71.2134  220.0272 H   0  0  0  0  0  0  0  0  0  0  0  0
  137.7270   75.2670  221.7450 H   0  0  0  0  0  0  0  0  0  0  0  0
  138.1122   77.4613  222.5422 H   0  0  0  0  0  0  0  0  0  0  0  0
  139.5475   76.8928  223.4137 H   0  0  0  0  0  0  0  0  0  0  0  0
  140.9564   77.2040  221.5753 H   0  0  0  0  0  0  0  0  0  0  0  0
  139.5548   77.0129  220.4015 H   0  0  0  0  0  0  0  0  0  0  0  0
  140.0290   79.1940  220.1354 H   0  0  0  0  0  0  0  0  0  0  0  0
  138.7959   79.2589  221.4383 H   0  0  0  0  0  0  0  0  0  0  0  0
  139.5513   81.2282  222.7205 H   0  0  0  0  0  0  0  0  0  0  0  0
  141.3469   82.1929  224.1484 H   0  0  0  0  0  0  0  0  0  0  0  0
  143.5605   81.1346  224.3236 H   0  0  0  0  0  0  0  0  0  0  0  0
  144.0370   79.0485  223.0421 H   0  0  0  0  0  0  0  0  0  0  0  0
  142.2494   78.0881  221.6218 H   0  0  0  0  0  0  0  0  0  0  0  0
  139.0042   70.0062  221.8246 H   0  0  0  0  0  0  0  0  0  0  0  0
  140.4162   69.3134  222.6363 H   0  0  0  0  0  0  0  0  0  0  0  0
  137.6451   69.6558  224.0006 H   0  0  0  0  0  0  0  0  0  0  0  0
  138.1323   68.1442  223.2665 H   0  0  0  0  0  0  0  0  0  0  0  0
  139.1643   66.6391  224.9173 H   0  0  0  0  0  0  0  0  0  0  0  0
  140.6601   66.3785  226.9057 H   0  0  0  0  0  0  0  0  0  0  0  0
  141.6500   68.3733  227.9566 H   0  0  0  0  0  0  0  0  0  0  0  0
  141.2071   70.6656  227.0796 H   0  0  0  0  0  0  0  0  0  0  0  0
  138.5423   71.4916  225.1583 H   0  0  0  0  0  0  0  0  0  0  0  0
  140.2554   72.0177  225.2610 H   0  0  0  0  0  0  0  0  0  0  0  0
  143.4356   75.0741  219.7542 H   0  0  0  0  0  0  0  0  0  0  0  0
  143.6043   74.6810  221.5343 H   0  0  0  0  0  0  0  0  0  0  0  0
  145.6848   74.7545  220.0051 H   0  0  0  0  0  0  0  0  0  0  0  0
  145.4396   73.4357  221.2437 H   0  0  0  0  0  0  0  0  0  0  0  0
  1  2  1  0
  2  3  1  0
  3  4  1  0
  4  5  1  0
  5  6  1  0
  6  7  2  0
  7  8  1  0
  8  9  1  0
  9 10  1  0
 10 11  1  0
 11 12  1  0
 12 13  1  0
 13 14  2  0
 14 15  1  0
 15 16  2  0
 16 17  1  0
 17 18  2  0
  8 19  2  0
 19 20  1  0
 20 21  1  0
 21 22  1  0
 22 23  1  0
 23 24  1  0
 24 25  2  0
 25 26  1  0
 26 27  2  0
 27 28  1  0
 28 29  2  0
 29 30  1  0
 20 31  2  0
  5 32  1  0
 32 33  1  0
 33  2  1  0
 31  6  1  0
 18 13  1  0
 30 21  1  0
 29 24  1  0
  1 34  1  0
  2 35  1  0
  3 36  1  0
  3 37  1  0
  4 38  1  0
  4 39  1  0
  9 40  1  0
 10 41  1  0
 10 42  1  0
 11 43  1  0
 11 44  1  0
 12 45  1  0
 12 46  1  0
 14 47  1  0
 15 48  1  0
 16 49  1  0
 17 50  1  0
 18 51  1  0
 22 52  1  0
 22 53  1  0
 23 54  1  0
 23 55  1  0
 25 56  1  0
 26 57  1  0
 27 58  1  0
 28 59  1  0
 30 60  1  0
 30 61  1  0
 32 62  1  0
 32 63  1  0
 33 64  1  0
 33 65  1  0
M  END
>  <smiles>  (25) 
OC1CCN(c2nc(NCCCc3ccccc3)nc(N3CCc4ccccc4C3)n2)CC1

>  <score_type>  (25) 
oracle

>  <origin>  (25) 
autodockgpu

>  <m_score__min__energy>  (25) 
-10.68

>  <m_primary>  (25) 
energy

>  <rmsd>  (25) 
11.315616058388946

>  <m_score__min__rmsd>  (25) 
11.315616058388946

>  <meeko>  (25) 
{"free_energy": -9.69, "intermolecular_energy": -12.08, "internal_energy": -1.04, "cluster_size": 50, "cluster_id": 1, "rank_in_cluster": 46}

>  <energy>  (25) 
-10.12

>  <cluster_rmsd>  (25) 
0.55

>  <cluster>  (25) 
1

$$$$

     RDKit          3D

 65 69  0  0  0  0  0  0  0  0999 V2000
  146.3260   73.0240  218.5860 O   0  0  0  0  0  0  0  0  0  0  0  0
  145.2160   72.9100  219.4200 C   0  0  0  0  0  0  0  0  0  0  0  0
  143.9690   72.5490  218.6360 C   0  0  0  0  0  0  0  0  0  0  0  0
  142.9020   72.2320  219.6990 C   0  0  0  0  0  0  0  0  0  0  0  0
  142.6370   73.5170  220.3550 N   0  0  0  0  0  0  0  0  0  0  0  0
  141.4170   73.7120  221.0510 C   0  0  0  0  0  0  0  0  0  0  0  0
  140.6730   72.6960  221.5570 N   0  0  0  0  0  0  0  0  0  0  0  0
  139.5150   72.9070  222.1880 C   0  0  0  0  0  0  0  0  0  0  0  0
  138.7190   71.9050  222.7900 N   0  0  0  0  0  0  0  0  0  0  0  0
  138.4870   70.5770  222.2760 C   0  0  0  0  0  0  0  0  0  0  0  0
  138.6940   69.6290  223.4400 C   0  0  0  0  0  0  0  0  0  0  0  0
  138.7100   70.2740  224.7780 C   0  0  0  0  0  0  0  0  0  0  0  0
  139.5170   69.4420  225.7160 C   0  0  0  0  0  0  0  0  0  0  0  0
  139.6610   68.0800  225.5980 C   0  0  0  0  0  0  0  0  0  0  0  0
  140.4320   67.4130  226.5500 C   0  0  0  0  0  0  0  0  0  0  0  0
  141.0460   68.0690  227.5900 C   0  0  0  0  0  0  0  0  0  0  0  0
  140.9030   69.4320  227.7100 C   0  0  0  0  0  0  0  0  0  0  0  0
  140.1370   70.0920  226.7640 C   0  0  0  0  0  0  0  0  0  0  0  0
  139.0500   74.1830  222.3380 N   0  0  0  0  0  0  0  0  0  0  0  0
  139.7600   75.2100  221.8510 C   0  0  0  0  0  0  0  0  0  0  0  0
  139.2670   76.5300  222.0020 N   0  0  0  0  0  0  0  0  0  0  0  0
  137.9700   76.7270  222.6320 C   0  0  0  0  0  0  0  0  0  0  0  0
  137.4460   78.0730  222.1000 C   0  0  0  0  0  0  0  0  0  0  0  0
  138.3990   79.0710  222.7170 C   0  0  0  0  0  0  0  0  0  0  0  0
  137.9560   80.1140  223.4960 C   0  0  0  0  0  0  0  0  0  0  0  0
  138.9090   80.9520  224.0300 C   0  0  0  0  0  0  0  0  0  0  0  0
  140.2430   80.7220  223.7700 C   0  0  0  0  0  0  0  0  0  0  0  0
  140.6760   79.6580  222.9750 C   0  0  0  0  0  0  0  0  0  0  0  0
  139.7360   78.8330  222.4500 C   0  0  0  0  0  0  0  0  0  0  0  0
  140.0390   77.6560  221.5690 C   0  0  0  0  0  0  0  0  0  0  0  0
  140.9350   74.9720  221.2140 N   0  0  0  0  0  0  0  0  0  0  0  0
  143.5880   74.5930  220.3210 C   0  0  0  0  0  0  0  0  0  0  0  0
  145.0120   74.1450  220.2620 C   0  0  0  0  0  0  0  0  0  0  0  0
  146.5320   73.9870  218.4900 H   0  0  0  0  0  0  0  0  0  0  0  0
  145.4167   72.0825  220.1164 H   0  0  0  0  0  0  0  0  0  0  0  0
  143.6495   73.3943  218.0088 H   0  0  0  0  0  0  0  0  0  0  0  0
  144.1405   71.6990  217.9592 H   0  0  0  0  0  0  0  0  0  0  0  0
  141.9883   71.8416  219.2271 H   0  0  0  0  0  0  0  0  0  0  0  0
  143.2384   71.4631  220.4101 H   0  0  0  0  0  0  0  0  0  0  0  0
  138.2690   72.2070  223.7150 H   0  0  0  0  0  0  0  0  0  0  0  0
  137.4596   70.4910  221.8926 H   0  0  0  0  0  0  0  0  0  0  0  0
  139.1691   70.3449  221.4448 H   0  0  0  0  0  0  0  0  0  0  0  0
  137.8798   68.8895  223.4271 H   0  0  0  0  0  0  0  0  0  0  0  0
  139.6900   69.1833  223.3009 H   0  0  0  0  0  0  0  0  0  0  0  0
  139.1571   71.2758  224.6977 H   0  0  0  0  0  0  0  0  0  0  0  0
  137.6811   70.3635  225.1565 H   0  0  0  0  0  0  0  0  0  0  0  0
  139.1809   67.5307  224.7747 H   0  0  0  0  0  0  0  0  0  0  0  0
  140.5529   66.3230  226.4654 H   0  0  0  0  0  0  0  0  0  0  0  0
  141.6473   67.5084  228.3209 H   0  0  0  0  0  0  0  0  0  0  0  0
  141.3831   69.9813  228.5333 H   0  0  0  0  0  0  0  0  0  0  0  0
  140.0173   71.1820  226.8515 H   0  0  0  0  0  0  0  0  0  0  0  0
  137.2831   75.9129  222.3574 H   0  0  0  0  0  0  0  0  0  0  0  0
  138.0486   76.7281  223.7292 H   0  0  0  0  0  0  0  0  0  0  0  0
  137.4907   78.1093  221.0015 H   0  0  0  0  0  0  0  0  0  0  0  0
  136.3927   78.2617  222.3549 H   0  0  0  0  0  0  0  0  0  0  0  0
  136.8840   80.2723  223.6848 H   0  0  0  0  0  0  0  0  0  0  0  0
  138.6073   81.8010  224.6611 H   0  0  0  0  0  0  0  0  0  0  0  0
  140.9928   81.4000  224.2037 H   0  0  0  0  0  0  0  0  0  0  0  0
  141.7463   79.4943  222.7808 H   0  0  0  0  0  0  0  0  0  0  0  0
  139.7809   77.9001  220.5279 H   0  0  0  0  0  0  0  0  0  0  0  0
  141.1103   77.4146  221.6318 H   0  0  0  0  0  0  0  0  0  0  0  0
  143.3821   75.2084  219.4328 H   0  0  0  0  0  0  0  0  0  0  0  0
  143.4693   75.1519  221.2610 H   0  0  0  0  0  0  0  0  0  0  0  0
  145.6169   74.9601  219.8381 H   0  0  0  0  0  0  0  0  0  0  0  0
  145.3163   73.8927  221.2885 H   0  0  0  0  0  0  0  0  0  0  0  0
  1  2  1  0
  2  3  1  0
  3  4  1  0
  4  5  1  0
  5  6  1  0
  6  7  2  0
  7  8  1  0
  8  9  1  0
  9 10  1  0
 10 11  1  0
 11 12  1  0
 12 13  1  0
 13 14  2  0
 14 15  1  0
 15 16  2  0
 16 17  1  0
 17 18  2  0
  8 19  2  0
 19 20  1  0
 20 21  1  0
 21 22  1  0
 22 23  1  0
 23 24  1  0
 24 25  2  0
 25 26  1  0
 26 27  2  0
 27 28  1  0
 28 29  2  0
 29 30  1  0
 20 31  2  0
  5 32  1  0
 32 33  1  0
 33  2  1  0
 31  6  1  0
 18 13  1  0
 30 21  1  0
 29 24  1  0
  1 34  1  0
  2 35  1  0
  3 36  1  0
  3 37  1  0
  4 38  1  0
  4 39  1  0
  9 40  1  0
 10 41  1  0
 10 42  1  0
 11 43  1  0
 11 44  1  0
 12 45  1  0
 12 46  1  0
 14 47  1  0
 15 48  1  0
 16 49  1  0
 17 50  1  0
 18 51  1  0
 22 52  1  0
 22 53  1  0
 23 54  1  0
 23 55  1  0
 25 56  1  0
 26 57  1  0
 27 58  1  0
 28 59  1  0
 30 60  1  0
 30 61  1  0
 32 62  1  0
 32 63  1  0
 33 64  1  0
 33 65  1  0
M  END
>  <smiles>  (26) 
OC1CCN(c2nc(NCCCc3ccccc3)nc(N3CCc4ccccc4C3)n2)CC1

>  <score_type>  (26) 
oracle

>  <origin>  (26) 
autodockgpu

>  <m_score__min__energy>  (26) 
-10.68

>  <m_primary>  (26) 
energy

>  <rmsd>  (26) 
5.416444496973858

>  <m_score__min__rmsd>  (26) 
5.416444496973858

>  <meeko>  (26) 
{"free_energy": -9.68, "intermolecular_energy": -12.07, "internal_energy": -0.92, "cluster_size": 50, "cluster_id": 1, "rank_in_cluster": 47}

>  <energy>  (26) 
-10.11

>  <cluster_rmsd>  (26) 
1.46

>  <cluster>  (26) 
1

$$$$

     RDKit          3D

 65 69  0  0  0  0  0  0  0  0999 V2000
  146.7060   73.1080  219.3740 O   0  0  0  0  0  0  0  0  0  0  0  0
  145.5560   73.0570  220.1600 C   0  0  0  0  0  0  0  0  0  0  0  0
  144.4980   72.1680  219.5350 C   0  0  0  0  0  0  0  0  0  0  0  0
  143.4050   72.0270  220.6090 C   0  0  0  0  0  0  0  0  0  0  0  0
  142.8220   73.3680  220.7270 N   0  0  0  0  0  0  0  0  0  0  0  0
  141.5190   73.5230  221.2640 C   0  0  0  0  0  0  0  0  0  0  0  0
  140.7090   72.4800  221.5760 N   0  0  0  0  0  0  0  0  0  0  0  0
  139.4760   72.6550  222.0600 C   0  0  0  0  0  0  0  0  0  0  0  0
  138.6020   71.6180  222.4600 N   0  0  0  0  0  0  0  0  0  0  0  0
  138.7880   70.7300  223.5820 C   0  0  0  0  0  0  0  0  0  0  0  0
  139.6510   71.4810  224.5770 C   0  0  0  0  0  0  0  0  0  0  0  0
  140.9890   70.8850  224.8210 C   0  0  0  0  0  0  0  0  0  0  0  0
  140.9310   70.0230  226.0360 C   0  0  0  0  0  0  0  0  0  0  0  0
  141.0780   70.4990  227.3170 C   0  0  0  0  0  0  0  0  0  0  0  0
  141.0190   69.5880  228.3710 C   0  0  0  0  0  0  0  0  0  0  0  0
  140.8180   68.2430  228.1690 C   0  0  0  0  0  0  0  0  0  0  0  0
  140.6710   67.7640  226.8890 C   0  0  0  0  0  0  0  0  0  0  0  0
  140.7310   68.6710  225.8440 C   0  0  0  0  0  0  0  0  0  0  0  0
  139.0000   73.9210  222.2520 N   0  0  0  0  0  0  0  0  0  0  0  0
  139.7740   74.9740  221.9550 C   0  0  0  0  0  0  0  0  0  0  0  0
  139.2700   76.2840  222.1500 N   0  0  0  0  0  0  0  0  0  0  0  0
  138.0310   76.4570  222.8940 C   0  0  0  0  0  0  0  0  0  0  0  0
  137.4340   77.7900  222.4110 C   0  0  0  0  0  0  0  0  0  0  0  0
  138.4180   78.8090  222.9380 C   0  0  0  0  0  0  0  0  0  0  0  0
  138.0260   79.8440  223.7530 C   0  0  0  0  0  0  0  0  0  0  0  0
  139.0060   80.7030  224.1980 C   0  0  0  0  0  0  0  0  0  0  0  0
  140.3160   80.5000  223.8190 C   0  0  0  0  0  0  0  0  0  0  0  0
  140.6960   79.4420  222.9890 C   0  0  0  0  0  0  0  0  0  0  0  0
  139.7300   78.5980  222.5520 C   0  0  0  0  0  0  0  0  0  0  0  0
  139.9760   77.4240  221.6480 C   0  0  0  0  0  0  0  0  0  0  0  0
  141.0240   74.7720  221.4660 N   0  0  0  0  0  0  0  0  0  0  0  0
  143.5400   74.5430  220.3160 C   0  0  0  0  0  0  0  0  0  0  0  0
  145.0220   74.4340  220.4700 C   0  0  0  0  0  0  0  0  0  0  0  0
  146.6620   73.9320  218.8300 H   0  0  0  0  0  0  0  0  0  0  0  0
  145.8386   72.6040  221.1218 H   0  0  0  0  0  0  0  0  0  0  0  0
  144.0888   72.6350  218.6270 H   0  0  0  0  0  0  0  0  0  0  0  0
  144.9064   71.1923  219.2329 H   0  0  0  0  0  0  0  0  0  0  0  0
  142.6429   71.2993  220.2933 H   0  0  0  0  0  0  0  0  0  0  0  0
  143.8070   71.6628  221.5659 H   0  0  0  0  0  0  0  0  0  0  0  0
  137.7310   71.5230  221.8400 H   0  0  0  0  0  0  0  0  0  0  0  0
  137.8172   70.4775  224.0335 H   0  0  0  0  0  0  0  0  0  0  0  0
  139.2615   69.7866  223.2725 H   0  0  0  0  0  0  0  0  0  0  0  0
  139.7966   72.5037  224.1991 H   0  0  0  0  0  0  0  0  0  0  0  0
  139.1171   71.4430  225.5380 H   0  0  0  0  0  0  0  0  0  0  0  0
  141.2841   70.2771  223.9531 H   0  0  0  0  0  0  0  0  0  0  0  0
  141.7269   71.6865  224.9730 H   0  0  0  0  0  0  0  0  0  0  0  0
  141.2380   71.5708  227.5058 H   0  0  0  0  0  0  0  0  0  0  0  0
  141.1374   69.9584  229.4000 H   0  0  0  0  0  0  0  0  0  0  0  0
  140.7751   67.5548  229.0260 H   0  0  0  0  0  0  0  0  0  0  0  0
  140.5105   66.6923  226.7003 H   0  0  0  0  0  0  0  0  0  0  0  0
  140.6141   68.2974  224.8160 H   0  0  0  0  0  0  0  0  0  0  0  0
  137.3388   75.6286  222.6830 H   0  0  0  0  0  0  0  0  0  0  0  0
  138.2084   76.4628  223.9796 H   0  0  0  0  0  0  0  0  0  0  0  0
  137.3782   77.8243  221.3129 H   0  0  0  0  0  0  0  0  0  0  0  0
  136.4046   77.9578  222.7605 H   0  0  0  0  0  0  0  0  0  0  0  0
  136.9724   79.9806  224.0382 H   0  0  0  0  0  0  0  0  0  0  0  0
  138.7448   81.5473  224.8529 H   0  0  0  0  0  0  0  0  0  0  0  0
  141.0880   81.1943  224.1822 H   0  0  0  0  0  0  0  0  0  0  0  0
  141.7474   79.2986  222.6991 H   0  0  0  0  0  0  0  0  0  0  0  0
  139.6197   77.6598  220.6344 H   0  0  0  0  0  0  0  0  0  0  0  0
  141.0534   77.2046  221.6140 H   0  0  0  0  0  0  0  0  0  0  0  0
  143.3153   74.7326  219.2560 H   0  0  0  0  0  0  0  0  0  0  0  0
  143.2112   75.3627  220.9717 H   0  0  0  0  0  0  0  0  0  0  0  0
  145.4976   75.1543  219.7881 H   0  0  0  0  0  0  0  0  0  0  0  0
  145.2557   74.6437  221.5242 H   0  0  0  0  0  0  0  0  0  0  0  0
  1  2  1  0
  2  3  1  0
  3  4  1  0
  4  5  1  0
  5  6  1  0
  6  7  2  0
  7  8  1  0
  8  9  1  0
  9 10  1  0
 10 11  1  0
 11 12  1  0
 12 13  1  0
 13 14  2  0
 14 15  1  0
 15 16  2  0
 16 17  1  0
 17 18  2  0
  8 19  2  0
 19 20  1  0
 20 21  1  0
 21 22  1  0
 22 23  1  0
 23 24  1  0
 24 25  2  0
 25 26  1  0
 26 27  2  0
 27 28  1  0
 28 29  2  0
 29 30  1  0
 20 31  2  0
  5 32  1  0
 32 33  1  0
 33  2  1  0
 31  6  1  0
 18 13  1  0
 30 21  1  0
 29 24  1  0
  1 34  1  0
  2 35  1  0
  3 36  1  0
  3 37  1  0
  4 38  1  0
  4 39  1  0
  9 40  1  0
 10 41  1  0
 10 42  1  0
 11 43  1  0
 11 44  1  0
 12 45  1  0
 12 46  1  0
 14 47  1  0
 15 48  1  0
 16 49  1  0
 17 50  1  0
 18 51  1  0
 22 52  1  0
 22 53  1  0
 23 54  1  0
 23 55  1  0
 25 56  1  0
 26 57  1  0
 27 58  1  0
 28 59  1  0
 30 60  1  0
 30 61  1  0
 32 62  1  0
 32 63  1  0
 33 64  1  0
 33 65  1  0
M  END
>  <smiles>  (27) 
OC1CCN(c2nc(NCCCc3ccccc3)nc(N3CCc4ccccc4C3)n2)CC1

>  <score_type>  (27) 
oracle

>  <origin>  (27) 
autodockgpu

>  <m_score__min__energy>  (27) 
-10.68

>  <m_primary>  (27) 
energy

>  <rmsd>  (27) 
5.470400455118424

>  <m_score__min__rmsd>  (27) 
5.470400455118424

>  <meeko>  (27) 
{"free_energy": -9.75, "intermolecular_energy": -12.14, "internal_energy": -1.17, "cluster_size": 50, "cluster_id": 1, "rank_in_cluster": 44}

>  <energy>  (27) 
-10.09

>  <cluster_rmsd>  (27) 
1.58

>  <cluster>  (27) 
1

$$$$

     RDKit          3D

 65 69  0  0  0  0  0  0  0  0999 V2000
  146.6140   73.3460  219.2160 O   0  0  0  0  0  0  0  0  0  0  0  0
  145.2370   73.4590  219.3950 C   0  0  0  0  0  0  0  0  0  0  0  0
  144.9000   74.4930  220.4520 C   0  0  0  0  0  0  0  0  0  0  0  0
  143.3730   74.6700  220.3700 C   0  0  0  0  0  0  0  0  0  0  0  0
  142.8240   73.3910  220.8330 N   0  0  0  0  0  0  0  0  0  0  0  0
  141.4940   73.3330  221.3220 C   0  0  0  0  0  0  0  0  0  0  0  0
  140.5190   74.1980  220.9430 N   0  0  0  0  0  0  0  0  0  0  0  0
  139.2800   74.1340  221.4370 C   0  0  0  0  0  0  0  0  0  0  0  0
  138.2020   74.9620  221.0460 N   0  0  0  0  0  0  0  0  0  0  0  0
  137.7930   76.1880  221.6860 C   0  0  0  0  0  0  0  0  0  0  0  0
  138.9840   76.6620  222.4970 C   0  0  0  0  0  0  0  0  0  0  0  0
  140.0410   77.3500  221.7140 C   0  0  0  0  0  0  0  0  0  0  0  0
  140.5310   78.5310  222.4800 C   0  0  0  0  0  0  0  0  0  0  0  0
  139.7060   79.4060  223.1460 C   0  0  0  0  0  0  0  0  0  0  0  0
  140.2860   80.4830  223.8150 C   0  0  0  0  0  0  0  0  0  0  0  0
  141.6450   80.6930  223.8290 C   0  0  0  0  0  0  0  0  0  0  0  0
  142.4730   79.8200  223.1630 C   0  0  0  0  0  0  0  0  0  0  0  0
  141.8940   78.7520  222.4990 C   0  0  0  0  0  0  0  0  0  0  0  0
  138.9670   73.1710  222.3560 N   0  0  0  0  0  0  0  0  0  0  0  0
  139.9070   72.3010  222.7510 C   0  0  0  0  0  0  0  0  0  0  0  0
  139.5770   71.3120  223.7110 N   0  0  0  0  0  0  0  0  0  0  0  0
  138.7150   70.2080  223.3150 C   0  0  0  0  0  0  0  0  0  0  0  0
  138.0480   69.7110  224.6090 C   0  0  0  0  0  0  0  0  0  0  0  0
  139.2080   69.1190  225.3770 C   0  0  0  0  0  0  0  0  0  0  0  0
  139.1990   67.8160  225.8160 C   0  0  0  0  0  0  0  0  0  0  0  0
  140.3160   67.3680  226.4840 C   0  0  0  0  0  0  0  0  0  0  0  0
  141.3790   68.2220  226.6880 C   0  0  0  0  0  0  0  0  0  0  0  0
  141.3700   69.5440  226.2360 C   0  0  0  0  0  0  0  0  0  0  0  0
  140.2690   69.9840  225.5770 C   0  0  0  0  0  0  0  0  0  0  0  0
  140.1030   71.3760  225.0420 C   0  0  0  0  0  0  0  0  0  0  0  0
  141.1590   72.3830  222.2340 N   0  0  0  0  0  0  0  0  0  0  0  0
  143.5970   72.1800  220.8000 C   0  0  0  0  0  0  0  0  0  0  0  0
  144.5940   72.1260  219.6890 C   0  0  0  0  0  0  0  0  0  0  0  0
  146.9710   74.2520  219.0450 H   0  0  0  0  0  0  0  0  0  0  0  0
  144.8130   73.8115  218.4432 H   0  0  0  0  0  0  0  0  0  0  0  0
  145.1939   74.1349  221.4497 H   0  0  0  0  0  0  0  0  0  0  0  0
  145.4335   75.4404  220.2856 H   0  0  0  0  0  0  0  0  0  0  0  0
  143.0424   75.4925  221.0213 H   0  0  0  0  0  0  0  0  0  0  0  0
  143.0376   74.9231  219.3534 H   0  0  0  0  0  0  0  0  0  0  0  0
  137.6710   74.6030  220.1860 H   0  0  0  0  0  0  0  0  0  0  0  0
  137.5228   76.9404  220.9305 H   0  0  0  0  0  0  0  0  0  0  0  0
  136.9111   76.0311  222.3245 H   0  0  0  0  0  0  0  0  0  0  0  0
  138.6184   77.3602  223.2644 H   0  0  0  0  0  0  0  0  0  0  0  0
  139.4504   75.7583  222.9162 H   0  0  0  0  0  0  0  0  0  0  0  0
  140.8756   76.6563  221.5344 H   0  0  0  0  0  0  0  0  0  0  0  0
  139.6286   77.6814  220.7496 H   0  0  0  0  0  0  0  0  0  0  0  0
  138.6157   79.2601  223.1510 H   0  0  0  0  0  0  0  0  0  0  0  0
  139.6340   81.1891  224.3501 H   0  0  0  0  0  0  0  0  0  0  0  0
  142.0669   81.5534  224.3692 H   0  0  0  0  0  0  0  0  0  0  0  0
  143.5633   79.9660  223.1580 H   0  0  0  0  0  0  0  0  0  0  0  0
  142.5483   78.0487  221.9631 H   0  0  0  0  0  0  0  0  0  0  0  0
  137.9537   70.5539  222.6003 H   0  0  0  0  0  0  0  0  0  0  0  0
  139.2845   69.4075  222.8202 H   0  0  0  0  0  0  0  0  0  0  0  0
  137.5892   70.5431  225.1632 H   0  0  0  0  0  0  0  0  0  0  0  0
  137.2322   68.9948  224.4314 H   0  0  0  0  0  0  0  0  0  0  0  0
  138.3347   67.1586  225.6406 H   0  0  0  0  0  0  0  0  0  0  0  0
  140.3604   66.3329  226.8535 H   0  0  0  0  0  0  0  0  0  0  0  0
  142.2641   67.8499  227.2248 H   0  0  0  0  0  0  0  0  0  0  0  0
  142.2297   70.2079  226.4093 H   0  0  0  0  0  0  0  0  0  0  0  0
  139.4084   71.9364  225.6851 H   0  0  0  0  0  0  0  0  0  0  0  0
  141.0783   71.8845  225.0288 H   0  0  0  0  0  0  0  0  0  0  0  0
  144.1368   72.0881  221.7540 H   0  0  0  0  0  0  0  0  0  0  0  0
  142.8890   71.3549  220.6328 H   0  0  0  0  0  0  0  0  0  0  0  0
  145.3836   71.4111  219.9636 H   0  0  0  0  0  0  0  0  0  0  0  0
  144.0527   71.8197  218.7817 H   0  0  0  0  0  0  0  0  0  0  0  0
  1  2  1  0
  2  3  1  0
  3  4  1  0
  4  5  1  0
  5  6  1  0
  6  7  2  0
  7  8  1  0
  8  9  1  0
  9 10  1  0
 10 11  1  0
 11 12  1  0
 12 13  1  0
 13 14  2  0
 14 15  1  0
 15 16  2  0
 16 17  1  0
 17 18  2  0
  8 19  2  0
 19 20  1  0
 20 21  1  0
 21 22  1  0
 22 23  1  0
 23 24  1  0
 24 25  2  0
 25 26  1  0
 26 27  2  0
 27 28  1  0
 28 29  2  0
 29 30  1  0
 20 31  2  0
  5 32  1  0
 32 33  1  0
 33  2  1  0
 31  6  1  0
 18 13  1  0
 30 21  1  0
 29 24  1  0
  1 34  1  0
  2 35  1  0
  3 36  1  0
  3 37  1  0
  4 38  1  0
  4 39  1  0
  9 40  1  0
 10 41  1  0
 10 42  1  0
 11 43  1  0
 11 44  1  0
 12 45  1  0
 12 46  1  0
 14 47  1  0
 15 48  1  0
 16 49  1  0
 17 50  1  0
 18 51  1  0
 22 52  1  0
 22 53  1  0
 23 54  1  0
 23 55  1  0
 25 56  1  0
 26 57  1  0
 27 58  1  0
 28 59  1  0
 30 60  1  0
 30 61  1  0
 32 62  1  0
 32 63  1  0
 33 64  1  0
 33 65  1  0
M  END
>  <smiles>  (28) 
OC1CCN(c2nc(NCCCc3ccccc3)nc(N3CCc4ccccc4C3)n2)CC1

>  <score_type>  (28) 
oracle

>  <origin>  (28) 
autodockgpu

>  <m_score__min__energy>  (28) 
-10.68

>  <m_primary>  (28) 
energy

>  <rmsd>  (28) 
11.326419699090561

>  <m_score__min__rmsd>  (28) 
11.326419699090561

>  <meeko>  (28) 
{"free_energy": -9.78, "intermolecular_energy": -12.16, "internal_energy": -1.22, "cluster_size": 50, "cluster_id": 1, "rank_in_cluster": 42}

>  <energy>  (28) 
-10.08

>  <cluster_rmsd>  (28) 
0.53

>  <cluster>  (28) 
1

$$$$

     RDKit          3D

 65 69  0  0  0  0  0  0  0  0999 V2000
  146.3220   71.3790  218.9510 O   0  0  0  0  0  0  0  0  0  0  0  0
  145.2060   71.6240  219.7480 C   0  0  0  0  0  0  0  0  0  0  0  0
  143.9190   71.3170  219.0090 C   0  0  0  0  0  0  0  0  0  0  0  0
  142.8100   71.4080  220.0730 C   0  0  0  0  0  0  0  0  0  0  0  0
  142.7630   72.8270  220.4410 N   0  0  0  0  0  0  0  0  0  0  0  0
  141.5910   73.3600  221.0350 C   0  0  0  0  0  0  0  0  0  0  0  0
  140.5370   72.5990  221.4260 N   0  0  0  0  0  0  0  0  0  0  0  0
  139.4360   73.1300  221.9630 C   0  0  0  0  0  0  0  0  0  0  0  0
  138.3280   72.3960  222.4450 N   0  0  0  0  0  0  0  0  0  0  0  0
  138.3090   71.5470  223.6110 C   0  0  0  0  0  0  0  0  0  0  0  0
  139.6910   70.9320  223.7110 C   0  0  0  0  0  0  0  0  0  0  0  0
  139.8100   69.8100  224.6770 C   0  0  0  0  0  0  0  0  0  0  0  0
  140.2840   70.3370  225.9880 C   0  0  0  0  0  0  0  0  0  0  0  0
  140.2770   69.6060  227.1520 C   0  0  0  0  0  0  0  0  0  0  0  0
  140.7330   70.2180  228.3190 C   0  0  0  0  0  0  0  0  0  0  0  0
  141.1850   71.5170  228.3390 C   0  0  0  0  0  0  0  0  0  0  0  0
  141.1920   72.2500  227.1760 C   0  0  0  0  0  0  0  0  0  0  0  0
  140.7390   71.6400  226.0190 C   0  0  0  0  0  0  0  0  0  0  0  0
  139.3510   74.4840  222.1300 N   0  0  0  0  0  0  0  0  0  0  0  0
  140.3730   75.2650  221.7550 C   0  0  0  0  0  0  0  0  0  0  0  0
  140.2740   76.6680  221.9230 N   0  0  0  0  0  0  0  0  0  0  0  0
  139.1580   77.2070  222.6860 C   0  0  0  0  0  0  0  0  0  0  0  0
  138.9590   78.6460  222.1790 C   0  0  0  0  0  0  0  0  0  0  0  0
  140.2080   79.3470  222.6590 C   0  0  0  0  0  0  0  0  0  0  0  0
  140.1540   80.4680  223.4530 C   0  0  0  0  0  0  0  0  0  0  0  0
  141.3510   81.0150  223.8560 C   0  0  0  0  0  0  0  0  0  0  0  0
  142.5360   80.4340  223.4570 C   0  0  0  0  0  0  0  0  0  0  0  0
  142.5730   79.2950  222.6500 C   0  0  0  0  0  0  0  0  0  0  0  0
  141.3930   78.7580  222.2540 C   0  0  0  0  0  0  0  0  0  0  0  0
  141.2670   77.5450  221.3770 C   0  0  0  0  0  0  0  0  0  0  0  0
  141.4840   74.7030  221.2130 N   0  0  0  0  0  0  0  0  0  0  0  0
  143.8810   73.7020  220.2220 C   0  0  0  0  0  0  0  0  0  0  0  0
  145.2100   73.0250  220.3110 C   0  0  0  0  0  0  0  0  0  0  0  0
  146.0280   70.8290  218.1830 H   0  0  0  0  0  0  0  0  0  0  0  0
  145.2628   70.9378  220.6058 H   0  0  0  0  0  0  0  0  0  0  0  0
  143.7481   72.0534  218.2100 H   0  0  0  0  0  0  0  0  0  0  0  0
  143.9471   70.3279  218.5285 H   0  0  0  0  0  0  0  0  0  0  0  0
  141.8451   71.0831  219.6565 H   0  0  0  0  0  0  0  0  0  0  0  0
  143.0097   70.7597  220.9390 H   0  0  0  0  0  0  0  0  0  0  0  0
  137.4400   72.5140  221.8540 H   0  0  0  0  0  0  0  0  0  0  0  0
  138.0900   72.1404  224.5109 H   0  0  0  0  0  0  0  0  0  0  0  0
  137.5315   70.7731  223.5298 H   0  0  0  0  0  0  0  0  0  0  0  0
  139.9703   70.5564  222.7155 H   0  0  0  0  0  0  0  0  0  0  0  0
  140.3556   71.7272  224.0798 H   0  0  0  0  0  0  0  0  0  0  0  0
  138.8282   69.3311  224.8067 H   0  0  0  0  0  0  0  0  0  0  0  0
  140.5290   69.0700  224.2956 H   0  0  0  0  0  0  0  0  0  0  0  0
  139.9209   68.5653  227.1626 H   0  0  0  0  0  0  0  0  0  0  0  0
  140.7312   69.6420  229.2561 H   0  0  0  0  0  0  0  0  0  0  0  0
  141.5383   71.9661  229.2789 H   0  0  0  0  0  0  0  0  0  0  0  0
  141.5473   73.2910  227.1652 H   0  0  0  0  0  0  0  0  0  0  0  0
  140.7417   72.2187  225.0835 H   0  0  0  0  0  0  0  0  0  0  0  0
  138.2506   76.6103  222.5108 H   0  0  0  0  0  0  0  0  0  0  0  0
  139.3581   77.1830  223.7674 H   0  0  0  0  0  0  0  0  0  0  0  0
  138.8867   78.6728  221.0817 H   0  0  0  0  0  0  0  0  0  0  0  0
  138.0315   79.1114  222.5438 H   0  0  0  0  0  0  0  0  0  0  0  0
  139.1928   80.9100  223.7541 H   0  0  0  0  0  0  0  0  0  0  0  0
  141.3622   81.9114  224.4934 H   0  0  0  0  0  0  0  0  0  0  0  0
  143.4848   80.8831  223.7857 H   0  0  0  0  0  0  0  0  0  0  0  0
  143.5303   78.8472  222.3450 H   0  0  0  0  0  0  0  0  0  0  0  0
  140.9684   77.8531  220.3641 H   0  0  0  0  0  0  0  0  0  0  0  0
  142.2339   77.0228  221.3286 H   0  0  0  0  0  0  0  0  0  0  0  0
  143.7839   74.1426  219.2188 H   0  0  0  0  0  0  0  0  0  0  0  0
  143.8548   74.4574  221.0212 H   0  0  0  0  0  0  0  0  0  0  0  0
  145.9447   73.6235  219.7525 H   0  0  0  0  0  0  0  0  0  0  0  0
  145.4645   72.9463  221.3783 H   0  0  0  0  0  0  0  0  0  0  0  0
  1  2  1  0
  2  3  1  0
  3  4  1  0
  4  5  1  0
  5  6  1  0
  6  7  2  0
  7  8  1  0
  8  9  1  0
  9 10  1  0
 10 11  1  0
 11 12  1  0
 12 13  1  0
 13 14  2  0
 14 15  1  0
 15 16  2  0
 16 17  1  0
 17 18  2  0
  8 19  2  0
 19 20  1  0
 20 21  1  0
 21 22  1  0
 22 23  1  0
 23 24  1  0
 24 25  2  0
 25 26  1  0
 26 27  2  0
 27 28  1  0
 28 29  2  0
 29 30  1  0
 20 31  2  0
  5 32  1  0
 32 33  1  0
 33  2  1  0
 31  6  1  0
 18 13  1  0
 30 21  1  0
 29 24  1  0
  1 34  1  0
  2 35  1  0
  3 36  1  0
  3 37  1  0
  4 38  1  0
  4 39  1  0
  9 40  1  0
 10 41  1  0
 10 42  1  0
 11 43  1  0
 11 44  1  0
 12 45  1  0
 12 46  1  0
 14 47  1  0
 15 48  1  0
 16 49  1  0
 17 50  1  0
 18 51  1  0
 22 52  1  0
 22 53  1  0
 23 54  1  0
 23 55  1  0
 25 56  1  0
 26 57  1  0
 27 58  1  0
 28 59  1  0
 30 60  1  0
 30 61  1  0
 32 62  1  0
 32 63  1  0
 33 64  1  0
 33 65  1  0
M  END
>  <smiles>  (29) 
OC1CCN(c2nc(NCCCc3ccccc3)nc(N3CCc4ccccc4C3)n2)CC1

>  <score_type>  (29) 
oracle

>  <origin>  (29) 
autodockgpu

>  <m_score__min__energy>  (29) 
-10.68

>  <m_primary>  (29) 
energy

>  <rmsd>  (29) 
5.363026639138179

>  <m_score__min__rmsd>  (29) 
5.363026639138179

>  <meeko>  (29) 
{"free_energy": -9.62, "intermolecular_energy": -12.0, "internal_energy": -1.13, "cluster_size": 50, "cluster_id": 1, "rank_in_cluster": 48}

>  <energy>  (29) 
-10.06

>  <cluster_rmsd>  (29) 
1.59

>  <cluster>  (29) 
1

$$$$

     RDKit          3D

 65 69  0  0  0  0  0  0  0  0999 V2000
  146.3250   73.0830  218.5430 O   0  0  0  0  0  0  0  0  0  0  0  0
  145.2430   72.8550  219.3910 C   0  0  0  0  0  0  0  0  0  0  0  0
  144.0020   72.4640  218.6130 C   0  0  0  0  0  0  0  0  0  0  0  0
  142.9800   72.0230  219.6760 C   0  0  0  0  0  0  0  0  0  0  0  0
  142.6550   73.2500  220.4110 N   0  0  0  0  0  0  0  0  0  0  0  0
  141.4420   73.3310  221.1410 C   0  0  0  0  0  0  0  0  0  0  0  0
  140.5770   74.3730  221.0420 N   0  0  0  0  0  0  0  0  0  0  0  0
  139.4520   74.4340  221.7580 C   0  0  0  0  0  0  0  0  0  0  0  0
  138.4790   75.4560  221.6630 N   0  0  0  0  0  0  0  0  0  0  0  0
  137.7230   76.0190  222.7550 C   0  0  0  0  0  0  0  0  0  0  0  0
  138.0040   77.5090  222.7420 C   0  0  0  0  0  0  0  0  0  0  0  0
  139.0300   77.9440  221.7610 C   0  0  0  0  0  0  0  0  0  0  0  0
  140.0940   78.7120  222.4690 C   0  0  0  0  0  0  0  0  0  0  0  0
  141.3100   78.1800  222.8280 C   0  0  0  0  0  0  0  0  0  0  0  0
  142.2160   78.9990  223.5010 C   0  0  0  0  0  0  0  0  0  0  0  0
  141.9330   80.3080  223.8120 C   0  0  0  0  0  0  0  0  0  0  0  0
  140.7180   80.8420  223.4550 C   0  0  0  0  0  0  0  0  0  0  0  0
  139.8200   80.0280  222.7860 C   0  0  0  0  0  0  0  0  0  0  0  0
  139.1470   73.4230  222.6250 N   0  0  0  0  0  0  0  0  0  0  0  0
  139.9790   72.3790  222.7470 C   0  0  0  0  0  0  0  0  0  0  0  0
  139.6600   71.3390  223.6550 N   0  0  0  0  0  0  0  0  0  0  0  0
  139.0060   70.1420  223.1500 C   0  0  0  0  0  0  0  0  0  0  0  0
  138.2490   69.5400  224.3470 C   0  0  0  0  0  0  0  0  0  0  0  0
  139.3670   69.0870  225.2570 C   0  0  0  0  0  0  0  0  0  0  0  0
  139.4710   67.7870  225.6900 C   0  0  0  0  0  0  0  0  0  0  0  0
  140.5420   67.4730  226.4960 C   0  0  0  0  0  0  0  0  0  0  0  0
  141.4500   68.4530  226.8370 C   0  0  0  0  0  0  0  0  0  0  0  0
  141.3280   69.7710  226.3890 C   0  0  0  0  0  0  0  0  0  0  0  0
  140.2730   70.0770  225.5940 C   0  0  0  0  0  0  0  0  0  0  0  0
  139.9980   71.4470  225.0430 C   0  0  0  0  0  0  0  0  0  0  0  0
  141.1170   72.3370  222.0080 N   0  0  0  0  0  0  0  0  0  0  0  0
  143.5390   74.3830  220.4210 C   0  0  0  0  0  0  0  0  0  0  0  0
  144.9860   74.0250  220.3080 C   0  0  0  0  0  0  0  0  0  0  0  0
  146.3710   74.0560  218.3710 H   0  0  0  0  0  0  0  0  0  0  0  0
  145.5088   72.0029  220.0338 H   0  0  0  0  0  0  0  0  0  0  0  0
  143.6184   73.3225  218.0422 H   0  0  0  0  0  0  0  0  0  0  0  0
  144.2082   71.6652  217.8854 H   0  0  0  0  0  0  0  0  0  0  0  0
  142.0803   71.6061  219.1998 H   0  0  0  0  0  0  0  0  0  0  0  0
  143.3770   71.2362  220.3342 H   0  0  0  0  0  0  0  0  0  0  0  0
  138.3260   75.8160  220.6640 H   0  0  0  0  0  0  0  0  0  0  0  0
  136.6486   75.8325  222.6107 H   0  0  0  0  0  0  0  0  0  0  0  0
  138.0094   75.5660  223.7156 H   0  0  0  0  0  0  0  0  0  0  0  0
  137.0647   78.0316  222.5083 H   0  0  0  0  0  0  0  0  0  0  0  0
  138.4044   77.7557  223.7364 H   0  0  0  0  0  0  0  0  0  0  0  0
  139.4739   77.0612  221.2776 H   0  0  0  0  0  0  0  0  0  0  0  0
  138.5620   78.5815  220.9964 H   0  0  0  0  0  0  0  0  0  0  0  0
  141.5615   77.1358  222.5906 H   0  0  0  0  0  0  0  0  0  0  0  0
  143.1915   78.5831  223.7934 H   0  0  0  0  0  0  0  0  0  0  0  0
  142.6740   80.9237  224.3429 H   0  0  0  0  0  0  0  0  0  0  0  0
  140.4664   81.8858  223.6939 H   0  0  0  0  0  0  0  0  0  0  0  0
  138.8459   80.4476  222.4942 H   0  0  0  0  0  0  0  0  0  0  0  0
  138.3038   70.4006  222.3437 H   0  0  0  0  0  0  0  0  0  0  0  0
  139.7326   69.4301  222.7314 H   0  0  0  0  0  0  0  0  0  0  0  0
  137.6197   70.2964  224.8388 H   0  0  0  0  0  0  0  0  0  0  0  0
  137.5620   68.7288  224.0643 H   0  0  0  0  0  0  0  0  0  0  0  0
  138.7282   67.0277  225.4041 H   0  0  0  0  0  0  0  0  0  0  0  0
  140.6727   66.4454  226.8661 H   0  0  0  0  0  0  0  0  0  0  0  0
  142.2994   68.1883  227.4838 H   0  0  0  0  0  0  0  0  0  0  0  0
  142.0651   70.5367  226.6725 H   0  0  0  0  0  0  0  0  0  0  0  0
  139.1600   71.9023  225.5911 H   0  0  0  0  0  0  0  0  0  0  0  0
  140.8926   72.0768  225.1569 H   0  0  0  0  0  0  0  0  0  0  0  0
  143.2765   75.0343  219.5743 H   0  0  0  0  0  0  0  0  0  0  0  0
  143.4087   74.8803  221.3935 H   0  0  0  0  0  0  0  0  0  0  0  0
  145.5321   74.8980  219.9211 H   0  0  0  0  0  0  0  0  0  0  0  0
  145.3279   73.7326  221.3118 H   0  0  0  0  0  0  0  0  0  0  0  0
  1  2  1  0
  2  3  1  0
  3  4  1  0
  4  5  1  0
  5  6  1  0
  6  7  2  0
  7  8  1  0
  8  9  1  0
  9 10  1  0
 10 11  1  0
 11 12  1  0
 12 13  1  0
 13 14  2  0
 14 15  1  0
 15 16  2  0
 16 17  1  0
 17 18  2  0
  8 19  2  0
 19 20  1  0
 20 21  1  0
 21 22  1  0
 22 23  1  0
 23 24  1  0
 24 25  2  0
 25 26  1  0
 26 27  2  0
 27 28  1  0
 28 29  2  0
 29 30  1  0
 20 31  2  0
  5 32  1  0
 32 33  1  0
 33  2  1  0
 31  6  1  0
 18 13  1  0
 30 21  1  0
 29 24  1  0
  1 34  1  0
  2 35  1  0
  3 36  1  0
  3 37  1  0
  4 38  1  0
  4 39  1  0
  9 40  1  0
 10 41  1  0
 10 42  1  0
 11 43  1  0
 11 44  1  0
 12 45  1  0
 12 46  1  0
 14 47  1  0
 15 48  1  0
 16 49  1  0
 17 50  1  0
 18 51  1  0
 22 52  1  0
 22 53  1  0
 23 54  1  0
 23 55  1  0
 25 56  1  0
 26 57  1  0
 27 58  1  0
 28 59  1  0
 30 60  1  0
 30 61  1  0
 32 62  1  0
 32 63  1  0
 33 64  1  0
 33 65  1  0
M  END
>  <smiles>  (30) 
OC1CCN(c2nc(NCCCc3ccccc3)nc(N3CCc4ccccc4C3)n2)CC1

>  <score_type>  (30) 
oracle

>  <origin>  (30) 
autodockgpu

>  <m_score__min__energy>  (30) 
-10.68

>  <m_primary>  (30) 
energy

>  <rmsd>  (30) 
11.241398335475328

>  <m_score__min__rmsd>  (30) 
11.241398335475328

>  <meeko>  (30) 
{"free_energy": -9.6, "intermolecular_energy": -11.99, "internal_energy": -1.15, "cluster_size": 50, "cluster_id": 1, "rank_in_cluster": 49}

>  <energy>  (30) 
-10.06

>  <cluster_rmsd>  (30) 
0.57

>  <cluster>  (30) 
1

$$$$

     RDKit          3D

 65 69  0  0  0  0  0  0  0  0999 V2000
  145.9510   71.8840  217.7030 O   0  0  0  0  0  0  0  0  0  0  0  0
  145.1550   72.4050  218.7210 C   0  0  0  0  0  0  0  0  0  0  0  0
  144.2710   71.3360  219.3340 C   0  0  0  0  0  0  0  0  0  0  0  0
  143.6390   71.9980  220.5720 C   0  0  0  0  0  0  0  0  0  0  0  0
  142.7490   73.0290  220.0290 N   0  0  0  0  0  0  0  0  0  0  0  0
  141.6790   73.5200  220.8200 C   0  0  0  0  0  0  0  0  0  0  0  0
  140.7350   72.7230  221.3810 N   0  0  0  0  0  0  0  0  0  0  0  0
  139.7240   73.2150  222.1030 C   0  0  0  0  0  0  0  0  0  0  0  0
  138.7420   72.4420  222.7630 N   0  0  0  0  0  0  0  0  0  0  0  0
  138.6510   71.0020  222.7700 C   0  0  0  0  0  0  0  0  0  0  0  0
  139.7820   70.5100  223.6510 C   0  0  0  0  0  0  0  0  0  0  0  0
  140.3620   71.5340  224.5570 C   0  0  0  0  0  0  0  0  0  0  0  0
  140.5630   70.9400  225.9090 C   0  0  0  0  0  0  0  0  0  0  0  0
  140.8690   71.6760  227.0290 C   0  0  0  0  0  0  0  0  0  0  0  0
  141.0470   71.0000  228.2350 C   0  0  0  0  0  0  0  0  0  0  0  0
  140.9270   69.6340  228.3360 C   0  0  0  0  0  0  0  0  0  0  0  0
  140.6220   68.8950  227.2170 C   0  0  0  0  0  0  0  0  0  0  0  0
  140.4460   69.5690  226.0210 C   0  0  0  0  0  0  0  0  0  0  0  0
  139.6230   74.5650  222.2910 N   0  0  0  0  0  0  0  0  0  0  0  0
  140.5390   75.3810  221.7510 C   0  0  0  0  0  0  0  0  0  0  0  0
  140.4220   76.7800  221.9440 N   0  0  0  0  0  0  0  0  0  0  0  0
  139.3030   77.2910  222.7210 C   0  0  0  0  0  0  0  0  0  0  0  0
  139.0830   78.7360  222.2390 C   0  0  0  0  0  0  0  0  0  0  0  0
  140.3250   79.4450  222.7260 C   0  0  0  0  0  0  0  0  0  0  0  0
  140.2590   80.5510  223.5390 C   0  0  0  0  0  0  0  0  0  0  0  0
  141.4510   81.1070  223.9470 C   0  0  0  0  0  0  0  0  0  0  0  0
  142.6420   80.5480  223.5330 C   0  0  0  0  0  0  0  0  0  0  0  0
  142.6900   79.4240  222.7060 C   0  0  0  0  0  0  0  0  0  0  0  0
  141.5150   78.8780  222.3060 C   0  0  0  0  0  0  0  0  0  0  0  0
  141.4010   77.6790  221.4090 C   0  0  0  0  0  0  0  0  0  0  0  0
  141.5590   74.8590  221.0230 N   0  0  0  0  0  0  0  0  0  0  0  0
  142.9320   73.5680  218.7110 C   0  0  0  0  0  0  0  0  0  0  0  0
  144.3560   73.5980  218.2590 C   0  0  0  0  0  0  0  0  0  0  0  0
  145.3510   71.4840  217.0260 H   0  0  0  0  0  0  0  0  0  0  0  0
  145.8309   72.7644  219.5110 H   0  0  0  0  0  0  0  0  0  0  0  0
  143.4918   71.0248  218.6226 H   0  0  0  0  0  0  0  0  0  0  0  0
  144.8399   70.4317  219.5960 H   0  0  0  0  0  0  0  0  0  0  0  0
  143.0683   71.2616  221.1569 H   0  0  0  0  0  0  0  0  0  0  0  0
  144.3955   72.4171  221.2518 H   0  0  0  0  0  0  0  0  0  0  0  0
  138.0180   73.0260  223.2970 H   0  0  0  0  0  0  0  0  0  0  0  0
  137.6816   70.6834  223.1808 H   0  0  0  0  0  0  0  0  0  0  0  0
  138.7281   70.5910  221.7526 H   0  0  0  0  0  0  0  0  0  0  0  0
  139.3989   69.6848  224.2693 H   0  0  0  0  0  0  0  0  0  0  0  0
  140.5918   70.2064  222.9713 H   0  0  0  0  0  0  0  0  0  0  0  0
  141.3292   71.8726  224.1572 H   0  0  0  0  0  0  0  0  0  0  0  0
  139.6767   72.3914  224.6299 H   0  0  0  0  0  0  0  0  0  0  0  0
  140.9708   72.7700  226.9749 H   0  0  0  0  0  0  0  0  0  0  0  0
  141.2920   71.5795  229.1373 H   0  0  0  0  0  0  0  0  0  0  0  0
  141.0740   69.1355  229.3055 H   0  0  0  0  0  0  0  0  0  0  0  0
  140.5209   67.8010  227.2709 H   0  0  0  0  0  0  0  0  0  0  0  0
  140.2022   68.9867  225.1202 H   0  0  0  0  0  0  0  0  0  0  0  0
  138.4027   76.6855  222.5399 H   0  0  0  0  0  0  0  0  0  0  0  0
  139.5083   77.2513  223.8009 H   0  0  0  0  0  0  0  0  0  0  0  0
  139.0058   78.7804  221.1426 H   0  0  0  0  0  0  0  0  0  0  0  0
  138.1510   79.1830  222.6152 H   0  0  0  0  0  0  0  0  0  0  0  0
  139.2932   80.9750  223.8512 H   0  0  0  0  0  0  0  0  0  0  0  0
  141.4533   81.9924  224.5997 H   0  0  0  0  0  0  0  0  0  0  0  0
  143.5864   81.0033  223.8658 H   0  0  0  0  0  0  0  0  0  0  0  0
  143.6517   78.9945  222.3886 H   0  0  0  0  0  0  0  0  0  0  0  0
  141.0940   78.0005  220.4028 H   0  0  0  0  0  0  0  0  0  0  0  0
  142.3744   77.1704  221.3475 H   0  0  0  0  0  0  0  0  0  0  0  0
  142.3572   72.9530  218.0029 H   0  0  0  0  0  0  0  0  0  0  0  0
  142.5862   74.6117  218.7431 H   0  0  0  0  0  0  0  0  0  0  0  0
  144.3726   73.6245  217.1594 H   0  0  0  0  0  0  0  0  0  0  0  0
  144.8194   74.4915  218.7027 H   0  0  0  0  0  0  0  0  0  0  0  0
  1  2  1  0
  2  3  1  0
  3  4  1  0
  4  5  1  0
  5  6  1  0
  6  7  2  0
  7  8  1  0
  8  9  1  0
  9 10  1  0
 10 11  1  0
 11 12  1  0
 12 13  1  0
 13 14  2  0
 14 15  1  0
 15 16  2  0
 16 17  1  0
 17 18  2  0
  8 19  2  0
 19 20  1  0
 20 21  1  0
 21 22  1  0
 22 23  1  0
 23 24  1  0
 24 25  2  0
 25 26  1  0
 26 27  2  0
 27 28  1  0
 28 29  2  0
 29 30  1  0
 20 31  2  0
  5 32  1  0
 32 33  1  0
 33  2  1  0
 31  6  1  0
 18 13  1  0
 30 21  1  0
 29 24  1  0
  1 34  1  0
  2 35  1  0
  3 36  1  0
  3 37  1  0
  4 38  1  0
  4 39  1  0
  9 40  1  0
 10 41  1  0
 10 42  1  0
 11 43  1  0
 11 44  1  0
 12 45  1  0
 12 46  1  0
 14 47  1  0
 15 48  1  0
 16 49  1  0
 17 50  1  0
 18 51  1  0
 22 52  1  0
 22 53  1  0
 23 54  1  0
 23 55  1  0
 25 56  1  0
 26 57  1  0
 27 58  1  0
 28 59  1  0
 30 60  1  0
 30 61  1  0
 32 62  1  0
 32 63  1  0
 33 64  1  0
 33 65  1  0
M  END
>  <smiles>  (31) 
OC1CCN(c2nc(NCCCc3ccccc3)nc(N3CCc4ccccc4C3)n2)CC1

>  <score_type>  (31) 
oracle

>  <origin>  (31) 
autodockgpu

>  <m_score__min__energy>  (31) 
-10.68

>  <m_primary>  (31) 
energy

>  <rmsd>  (31) 
5.421377965298506

>  <m_score__min__rmsd>  (31) 
5.421377965298506

>  <meeko>  (31) 
{"free_energy": -10.04, "intermolecular_energy": -12.42, "internal_energy": -1.04, "cluster_size": 50, "cluster_id": 1, "rank_in_cluster": 31}

>  <energy>  (31) 
-10.04

>  <cluster_rmsd>  (31) 
0.99

>  <cluster>  (31) 
1

$$$$

     RDKit          3D

 65 69  0  0  0  0  0  0  0  0999 V2000
  146.6240   71.3150  219.5710 O   0  0  0  0  0  0  0  0  0  0  0  0
  145.4500   72.0640  219.6330 C   0  0  0  0  0  0  0  0  0  0  0  0
  145.5200   73.1130  220.7250 C   0  0  0  0  0  0  0  0  0  0  0  0
  144.2750   73.9940  220.5180 C   0  0  0  0  0  0  0  0  0  0  0  0
  143.1420   73.1200  220.8380 N   0  0  0  0  0  0  0  0  0  0  0  0
  141.8950   73.6890  221.1990 C   0  0  0  0  0  0  0  0  0  0  0  0
  140.7570   72.9650  221.3520 N   0  0  0  0  0  0  0  0  0  0  0  0
  139.5900   73.5310  221.6710 C   0  0  0  0  0  0  0  0  0  0  0  0
  138.3820   72.8340  221.9030 N   0  0  0  0  0  0  0  0  0  0  0  0
  138.2510   71.5320  222.5110 C   0  0  0  0  0  0  0  0  0  0  0  0
  139.2580   71.4900  223.6430 C   0  0  0  0  0  0  0  0  0  0  0  0
  139.1760   70.2880  224.5110 C   0  0  0  0  0  0  0  0  0  0  0  0
  139.8800   70.5590  225.7960 C   0  0  0  0  0  0  0  0  0  0  0  0
  140.6950   71.6460  226.0060 C   0  0  0  0  0  0  0  0  0  0  0  0
  141.3110   71.7800  227.2500 C   0  0  0  0  0  0  0  0  0  0  0  0
  141.1290   70.8680  228.2620 C   0  0  0  0  0  0  0  0  0  0  0  0
  140.3140   69.7790  228.0550 C   0  0  0  0  0  0  0  0  0  0  0  0
  139.7040   69.6480  226.8190 C   0  0  0  0  0  0  0  0  0  0  0  0
  139.5230   74.8840  221.8530 N   0  0  0  0  0  0  0  0  0  0  0  0
  140.6280   75.6290  221.7100 C   0  0  0  0  0  0  0  0  0  0  0  0
  140.5480   77.0320  221.8920 N   0  0  0  0  0  0  0  0  0  0  0  0
  139.4370   77.5790  222.6550 C   0  0  0  0  0  0  0  0  0  0  0  0
  139.2600   79.0260  222.1610 C   0  0  0  0  0  0  0  0  0  0  0  0
  140.5180   79.7040  222.6530 C   0  0  0  0  0  0  0  0  0  0  0  0
  140.4750   80.8180  223.4570 C   0  0  0  0  0  0  0  0  0  0  0  0
  141.6790   81.3440  223.8710 C   0  0  0  0  0  0  0  0  0  0  0  0
  142.8570   80.7500  223.4710 C   0  0  0  0  0  0  0  0  0  0  0  0
  142.8810   79.6190  222.6530 C   0  0  0  0  0  0  0  0  0  0  0  0
  141.6950   79.1020  222.2470 C   0  0  0  0  0  0  0  0  0  0  0  0
  141.5550   77.8990  221.3580 C   0  0  0  0  0  0  0  0  0  0  0  0
  141.8040   75.0320  221.3870 N   0  0  0  0  0  0  0  0  0  0  0  0
  143.2550   71.6880  220.7900 C   0  0  0  0  0  0  0  0  0  0  0  0
  144.2280   71.1890  219.7710 C   0  0  0  0  0  0  0  0  0  0  0  0
  146.9160   71.1370  220.4990 H   0  0  0  0  0  0  0  0  0  0  0  0
  145.3517   72.5949  218.6746 H   0  0  0  0  0  0  0  0  0  0  0  0
  145.4966   72.6390  221.7174 H   0  0  0  0  0  0  0  0  0  0  0  0
  146.4505   73.6975  220.6748 H   0  0  0  0  0  0  0  0  0  0  0  0
  144.2977   74.8622  221.1931 H   0  0  0  0  0  0  0  0  0  0  0  0
  144.2148   74.3952  219.4955 H   0  0  0  0  0  0  0  0  0  0  0  0
  137.5070   73.3650  221.5800 H   0  0  0  0  0  0  0  0  0  0  0  0
  137.2320   71.3946  222.9019 H   0  0  0  0  0  0  0  0  0  0  0  0
  138.4343   70.7291  221.7818 H   0  0  0  0  0  0  0  0  0  0  0  0
  140.2662   71.5262  223.2045 H   0  0  0  0  0  0  0  0  0  0  0  0
  139.0315   72.3515  224.2884 H   0  0  0  0  0  0  0  0  0  0  0  0
  138.1208   70.0520  224.7129 H   0  0  0  0  0  0  0  0  0  0  0  0
  139.6502   69.4346  224.0041 H   0  0  0  0  0  0  0  0  0  0  0  0
  140.8571   72.3910  225.2131 H   0  0  0  0  0  0  0  0  0  0  0  0
  141.9656   72.6461  227.4275 H   0  0  0  0  0  0  0  0  0  0  0  0
  141.6314   71.0077  229.2306 H   0  0  0  0  0  0  0  0  0  0  0  0
  140.1518   69.0343  228.8482 H   0  0  0  0  0  0  0  0  0  0  0  0
  139.0507   68.7805  226.6442 H   0  0  0  0  0  0  0  0  0  0  0  0
  138.5222   76.9967  222.4703 H   0  0  0  0  0  0  0  0  0  0  0  0
  139.6322   77.5420  223.7369 H   0  0  0  0  0  0  0  0  0  0  0  0
  139.1923   79.0646  221.0638 H   0  0  0  0  0  0  0  0  0  0  0  0
  138.3377   79.5012  222.5265 H   0  0  0  0  0  0  0  0  0  0  0  0
  139.5186   81.2708  223.7575 H   0  0  0  0  0  0  0  0  0  0  0  0
  141.7004   82.2336  224.5176 H   0  0  0  0  0  0  0  0  0  0  0  0
  143.8108   81.1821  223.8080 H   0  0  0  0  0  0  0  0  0  0  0  0
  143.8332   79.1611  222.3471 H   0  0  0  0  0  0  0  0  0  0  0  0
  141.2647   78.2208  220.3470 H   0  0  0  0  0  0  0  0  0  0  0  0
  142.5145   77.3634  221.3081 H   0  0  0  0  0  0  0  0  0  0  0  0
  143.5781   71.3331  221.7798 H   0  0  0  0  0  0  0  0  0  0  0  0
  142.2665   71.3001  220.5030 H   0  0  0  0  0  0  0  0  0  0  0  0
  144.5527   70.1795  220.0634 H   0  0  0  0  0  0  0  0  0  0  0  0
  143.7128   71.1937  218.7991 H   0  0  0  0  0  0  0  0  0  0  0  0
  1  2  1  0
  2  3  1  0
  3  4  1  0
  4  5  1  0
  5  6  1  0
  6  7  2  0
  7  8  1  0
  8  9  1  0
  9 10  1  0
 10 11  1  0
 11 12  1  0
 12 13  1  0
 13 14  2  0
 14 15  1  0
 15 16  2  0
 16 17  1  0
 17 18  2  0
  8 19  2  0
 19 20  1  0
 20 21  1  0
 21 22  1  0
 22 23  1  0
 23 24  1  0
 24 25  2  0
 25 26  1  0
 26 27  2  0
 27 28  1  0
 28 29  2  0
 29 30  1  0
 20 31  2  0
  5 32  1  0
 32 33  1  0
 33  2  1  0
 31  6  1  0
 18 13  1  0
 30 21  1  0
 29 24  1  0
  1 34  1  0
  2 35  1  0
  3 36  1  0
  3 37  1  0
  4 38  1  0
  4 39  1  0
  9 40  1  0
 10 41  1  0
 10 42  1  0
 11 43  1  0
 11 44  1  0
 12 45  1  0
 12 46  1  0
 14 47  1  0
 15 48  1  0
 16 49  1  0
 17 50  1  0
 18 51  1  0
 22 52  1  0
 22 53  1  0
 23 54  1  0
 23 55  1  0
 25 56  1  0
 26 57  1  0
 27 58  1  0
 28 59  1  0
 30 60  1  0
 30 61  1  0
 32 62  1  0
 32 63  1  0
 33 64  1  0
 33 65  1  0
M  END
>  <smiles>  (32) 
OC1CCN(c2nc(NCCCc3ccccc3)nc(N3CCc4ccccc4C3)n2)CC1

>  <score_type>  (32) 
oracle

>  <origin>  (32) 
autodockgpu

>  <m_score__min__energy>  (32) 
-10.68

>  <m_primary>  (32) 
energy

>  <rmsd>  (32) 
5.473959273873646

>  <m_score__min__rmsd>  (32) 
5.473959273873646

>  <meeko>  (32) 
{"free_energy": -10.08, "intermolecular_energy": -12.46, "internal_energy": -1.1, "cluster_size": 50, "cluster_id": 1, "rank_in_cluster": 28}

>  <energy>  (32) 
-10.03

>  <cluster_rmsd>  (32) 
1.16

>  <cluster>  (32) 
1

$$$$

     RDKit          3D

 65 69  0  0  0  0  0  0  0  0999 V2000
  146.3660   71.3520  219.3000 O   0  0  0  0  0  0  0  0  0  0  0  0
  145.2160   72.1240  219.4490 C   0  0  0  0  0  0  0  0  0  0  0  0
  145.3930   73.1790  220.5230 C   0  0  0  0  0  0  0  0  0  0  0  0
  144.1520   74.0830  220.4090 C   0  0  0  0  0  0  0  0  0  0  0  0
  143.0320   73.2330  220.8250 N   0  0  0  0  0  0  0  0  0  0  0  0
  141.8280   73.8300  221.2790 C   0  0  0  0  0  0  0  0  0  0  0  0
  140.7040   73.1240  221.5640 N   0  0  0  0  0  0  0  0  0  0  0  0
  139.5770   73.7150  221.9700 C   0  0  0  0  0  0  0  0  0  0  0  0
  138.3900   73.0400  222.3390 N   0  0  0  0  0  0  0  0  0  0  0  0
  138.1200   71.6330  222.1680 C   0  0  0  0  0  0  0  0  0  0  0  0
  138.4930   70.9680  223.4780 C   0  0  0  0  0  0  0  0  0  0  0  0
  139.9510   70.8990  223.7530 C   0  0  0  0  0  0  0  0  0  0  0  0
  140.1730   70.8560  225.2260 C   0  0  0  0  0  0  0  0  0  0  0  0
  139.6750   69.8700  226.0460 C   0  0  0  0  0  0  0  0  0  0  0  0
  139.9400   69.9510  227.4120 C   0  0  0  0  0  0  0  0  0  0  0  0
  140.6770   70.9750  227.9590 C   0  0  0  0  0  0  0  0  0  0  0  0
  141.1760   71.9620  227.1420 C   0  0  0  0  0  0  0  0  0  0  0  0
  140.9110   71.8790  225.7850 C   0  0  0  0  0  0  0  0  0  0  0  0
  139.5370   75.0740  222.1070 N   0  0  0  0  0  0  0  0  0  0  0  0
  140.6300   75.8000  221.8340 C   0  0  0  0  0  0  0  0  0  0  0  0
  140.5780   77.2100  221.9700 N   0  0  0  0  0  0  0  0  0  0  0  0
  139.4590   77.8070  222.6830 C   0  0  0  0  0  0  0  0  0  0  0  0
  139.3320   79.2410  222.1390 C   0  0  0  0  0  0  0  0  0  0  0  0
  140.5900   79.9050  222.6480 C   0  0  0  0  0  0  0  0  0  0  0  0
  140.5510   81.0450  223.4160 C   0  0  0  0  0  0  0  0  0  0  0  0
  141.7540   81.5550  223.8490 C   0  0  0  0  0  0  0  0  0  0  0  0
  142.9290   80.9220  223.5030 C   0  0  0  0  0  0  0  0  0  0  0  0
  142.9500   79.7650  222.7210 C   0  0  0  0  0  0  0  0  0  0  0  0
  141.7640   79.2630  222.2960 C   0  0  0  0  0  0  0  0  0  0  0  0
  141.6210   78.0370  221.4410 C   0  0  0  0  0  0  0  0  0  0  0  0
  141.7660   75.1790  221.4250 N   0  0  0  0  0  0  0  0  0  0  0  0
  143.1130   71.8000  220.7790 C   0  0  0  0  0  0  0  0  0  0  0  0
  143.9920   71.2750  219.6910 C   0  0  0  0  0  0  0  0  0  0  0  0
  146.6990   71.1320  220.2050 H   0  0  0  0  0  0  0  0  0  0  0  0
  145.0520   72.6498  218.4968 H   0  0  0  0  0  0  0  0  0  0  0  0
  145.4403   72.7124  221.5180 H   0  0  0  0  0  0  0  0  0  0  0  0
  146.3273   73.7450  220.3934 H   0  0  0  0  0  0  0  0  0  0  0  0
  144.2449   74.9547  221.0734 H   0  0  0  0  0  0  0  0  0  0  0  0
  144.0180   74.4791  219.3916 H   0  0  0  0  0  0  0  0  0  0  0  0
  137.6520   73.6770  222.7860 H   0  0  0  0  0  0  0  0  0  0  0  0
  137.0538   71.4732  221.9494 H   0  0  0  0  0  0  0  0  0  0  0  0
  138.6940   71.2141  221.3284 H   0  0  0  0  0  0  0  0  0  0  0  0
  138.0178   71.5316  224.2944 H   0  0  0  0  0  0  0  0  0  0  0  0
  138.1438   69.9274  223.4054 H   0  0  0  0  0  0  0  0  0  0  0  0
  140.3694   69.9923  223.2917 H   0  0  0  0  0  0  0  0  0  0  0  0
  140.4478   71.7852  223.3312 H   0  0  0  0  0  0  0  0  0  0  0  0
  139.0831   69.0393  225.6343 H   0  0  0  0  0  0  0  0  0  0  0  0
  139.5455   69.1679  228.0762 H   0  0  0  0  0  0  0  0  0  0  0  0
  140.8660   71.0043  229.0422 H   0  0  0  0  0  0  0  0  0  0  0  0
  141.7679   72.7927  227.5538 H   0  0  0  0  0  0  0  0  0  0  0  0
  141.3066   72.6638  225.1234 H   0  0  0  0  0  0  0  0  0  0  0  0
  138.5359   77.2409  222.4898 H   0  0  0  0  0  0  0  0  0  0  0  0
  139.6219   77.7997  223.7708 H   0  0  0  0  0  0  0  0  0  0  0  0
  139.2984   79.2461  221.0395 H   0  0  0  0  0  0  0  0  0  0  0  0
  138.4108   79.7488  222.4609 H   0  0  0  0  0  0  0  0  0  0  0  0
  139.5976   81.5295  223.6737 H   0  0  0  0  0  0  0  0  0  0  0  0
  141.7778   82.4637  224.4684 H   0  0  0  0  0  0  0  0  0  0  0  0
  143.8825   81.3426  223.8549 H   0  0  0  0  0  0  0  0  0  0  0  0
  143.8995   79.2759  222.4578 H   0  0  0  0  0  0  0  0  0  0  0  0
  141.3685   78.3338  220.4123 H   0  0  0  0  0  0  0  0  0  0  0  0
  142.5683   77.4779  221.4370 H   0  0  0  0  0  0  0  0  0  0  0  0
  143.5063   71.4448  221.7429 H   0  0  0  0  0  0  0  0  0  0  0  0
  142.0975   71.4306  220.5734 H   0  0  0  0  0  0  0  0  0  0  0  0
  144.3192   70.2613  219.9654 H   0  0  0  0  0  0  0  0  0  0  0  0
  143.4014   71.2836  218.7630 H   0  0  0  0  0  0  0  0  0  0  0  0
  1  2  1  0
  2  3  1  0
  3  4  1  0
  4  5  1  0
  5  6  1  0
  6  7  2  0
  7  8  1  0
  8  9  1  0
  9 10  1  0
 10 11  1  0
 11 12  1  0
 12 13  1  0
 13 14  2  0
 14 15  1  0
 15 16  2  0
 16 17  1  0
 17 18  2  0
  8 19  2  0
 19 20  1  0
 20 21  1  0
 21 22  1  0
 22 23  1  0
 23 24  1  0
 24 25  2  0
 25 26  1  0
 26 27  2  0
 27 28  1  0
 28 29  2  0
 29 30  1  0
 20 31  2  0
  5 32  1  0
 32 33  1  0
 33  2  1  0
 31  6  1  0
 18 13  1  0
 30 21  1  0
 29 24  1  0
  1 34  1  0
  2 35  1  0
  3 36  1  0
  3 37  1  0
  4 38  1  0
  4 39  1  0
  9 40  1  0
 10 41  1  0
 10 42  1  0
 11 43  1  0
 11 44  1  0
 12 45  1  0
 12 46  1  0
 14 47  1  0
 15 48  1  0
 16 49  1  0
 17 50  1  0
 18 51  1  0
 22 52  1  0
 22 53  1  0
 23 54  1  0
 23 55  1  0
 25 56  1  0
 26 57  1  0
 27 58  1  0
 28 59  1  0
 30 60  1  0
 30 61  1  0
 32 62  1  0
 32 63  1  0
 33 64  1  0
 33 65  1  0
M  END
>  <smiles>  (33) 
OC1CCN(c2nc(NCCCc3ccccc3)nc(N3CCc4ccccc4C3)n2)CC1

>  <score_type>  (33) 
oracle

>  <origin>  (33) 
autodockgpu

>  <m_score__min__energy>  (33) 
-10.68

>  <m_primary>  (33) 
energy

>  <rmsd>  (33) 
5.541147046405823

>  <m_score__min__rmsd>  (33) 
5.541147046405823

>  <meeko>  (33) 
{"free_energy": -10.6, "intermolecular_energy": -12.99, "internal_energy": -1.26, "cluster_size": 50, "cluster_id": 1, "rank_in_cluster": 2}

>  <energy>  (33) 
-10.01

>  <cluster_rmsd>  (33) 
1.63

>  <cluster>  (33) 
1

$$$$

     RDKit          3D

 65 69  0  0  0  0  0  0  0  0999 V2000
  146.2710   71.3310  219.3280 O   0  0  0  0  0  0  0  0  0  0  0  0
  145.1220   72.1070  219.4750 C   0  0  0  0  0  0  0  0  0  0  0  0
  145.3030   73.1670  220.5440 C   0  0  0  0  0  0  0  0  0  0  0  0
  144.0650   74.0730  220.4270 C   0  0  0  0  0  0  0  0  0  0  0  0
  142.9430   73.2280  220.8480 N   0  0  0  0  0  0  0  0  0  0  0  0
  141.7410   73.8290  221.3020 C   0  0  0  0  0  0  0  0  0  0  0  0
  140.6120   73.1300  221.5800 N   0  0  0  0  0  0  0  0  0  0  0  0
  139.4870   73.7250  221.9840 C   0  0  0  0  0  0  0  0  0  0  0  0
  138.2950   73.0560  222.3460 N   0  0  0  0  0  0  0  0  0  0  0  0
  137.8330   71.7930  221.8240 C   0  0  0  0  0  0  0  0  0  0  0  0
  138.1100   70.7620  222.9010 C   0  0  0  0  0  0  0  0  0  0  0  0
  139.5460   70.4510  223.1170 C   0  0  0  0  0  0  0  0  0  0  0  0
  139.8590   70.5560  224.5700 C   0  0  0  0  0  0  0  0  0  0  0  0
  139.3970   69.6730  225.5180 C   0  0  0  0  0  0  0  0  0  0  0  0
  139.7490   69.8890  226.8490 C   0  0  0  0  0  0  0  0  0  0  0  0
  140.5370   70.9460  227.2390 C   0  0  0  0  0  0  0  0  0  0  0  0
  141.0010   71.8300  226.2940 C   0  0  0  0  0  0  0  0  0  0  0  0
  140.6500   71.6140  224.9720 C   0  0  0  0  0  0  0  0  0  0  0  0
  139.4550   75.0840  222.1270 N   0  0  0  0  0  0  0  0  0  0  0  0
  140.5530   75.8050  221.8610 C   0  0  0  0  0  0  0  0  0  0  0  0
  140.5090   77.2140  222.0030 N   0  0  0  0  0  0  0  0  0  0  0  0
  139.3880   77.8150  222.7100 C   0  0  0  0  0  0  0  0  0  0  0  0
  139.2740   79.2520  222.1720 C   0  0  0  0  0  0  0  0  0  0  0  0
  140.5320   79.9060  222.6940 C   0  0  0  0  0  0  0  0  0  0  0  0
  140.4950   81.0420  223.4670 C   0  0  0  0  0  0  0  0  0  0  0  0
  141.6970   81.5430  223.9130 C   0  0  0  0  0  0  0  0  0  0  0  0
  142.8710   80.9030  223.5740 C   0  0  0  0  0  0  0  0  0  0  0  0
  142.8910   79.7500  222.7860 C   0  0  0  0  0  0  0  0  0  0  0  0
  141.7060   79.2580  222.3490 C   0  0  0  0  0  0  0  0  0  0  0  0
  141.5620   78.0370  221.4870 C   0  0  0  0  0  0  0  0  0  0  0  0
  141.6860   75.1790  221.4530 N   0  0  0  0  0  0  0  0  0  0  0  0
  143.0200   71.7940  220.8100 C   0  0  0  0  0  0  0  0  0  0  0  0
  143.8970   71.2620  219.7230 C   0  0  0  0  0  0  0  0  0  0  0  0
  146.6100   71.1230  220.2330 H   0  0  0  0  0  0  0  0  0  0  0  0
  144.9577   72.6287  218.5206 H   0  0  0  0  0  0  0  0  0  0  0  0
  145.3502   72.7051  221.5412 H   0  0  0  0  0  0  0  0  0  0  0  0
  146.2386   73.7299  220.4107 H   0  0  0  0  0  0  0  0  0  0  0  0
  144.1608   74.9476  221.0872 H   0  0  0  0  0  0  0  0  0  0  0  0
  143.9311   74.4645  219.4078 H   0  0  0  0  0  0  0  0  0  0  0  0
  137.7140   73.5750  223.0840 H   0  0  0  0  0  0  0  0  0  0  0  0
  136.7550   71.8404  221.6100 H   0  0  0  0  0  0  0  0  0  0  0  0
  138.3440   71.5373  220.8840 H   0  0  0  0  0  0  0  0  0  0  0  0
  137.6960   71.1382  223.8482 H   0  0  0  0  0  0  0  0  0  0  0  0
  137.6407   69.8274  222.5601 H   0  0  0  0  0  0  0  0  0  0  0  0
  139.7573   69.4293  222.7684 H   0  0  0  0  0  0  0  0  0  0  0  0
  140.1664   71.1637  222.5538 H   0  0  0  0  0  0  0  0  0  0  0  0
  138.7659   68.8183  225.2329 H   0  0  0  0  0  0  0  0  0  0  0  0
  139.3834   69.1890  227.6147 H   0  0  0  0  0  0  0  0  0  0  0  0
  140.7943   71.0833  228.2996 H   0  0  0  0  0  0  0  0  0  0  0  0
  141.6327   72.6840  226.5797 H   0  0  0  0  0  0  0  0  0  0  0  0
  141.0173   72.3159  224.2088 H   0  0  0  0  0  0  0  0  0  0  0  0
  138.4629   77.2556  222.5069 H   0  0  0  0  0  0  0  0  0  0  0  0
  139.5425   77.8018  223.7990 H   0  0  0  0  0  0  0  0  0  0  0  0
  139.2491   79.2625  221.0723 H   0  0  0  0  0  0  0  0  0  0  0  0
  138.3534   79.7639  222.4891 H   0  0  0  0  0  0  0  0  0  0  0  0
  139.5426   81.5313  223.7192 H   0  0  0  0  0  0  0  0  0  0  0  0
  141.7212   82.4489  224.5364 H   0  0  0  0  0  0  0  0  0  0  0  0
  143.8243   81.3149  223.9368 H   0  0  0  0  0  0  0  0  0  0  0  0
  143.8395   79.2563  222.5279 H   0  0  0  0  0  0  0  0  0  0  0  0
  141.3202   78.3404  220.4577 H   0  0  0  0  0  0  0  0  0  0  0  0
  142.5056   77.4717  221.4886 H   0  0  0  0  0  0  0  0  0  0  0  0
  143.4136   71.4428  221.7753 H   0  0  0  0  0  0  0  0  0  0  0  0
  142.0034   71.4254  220.6084 H   0  0  0  0  0  0  0  0  0  0  0  0
  144.2226   70.2490  220.0019 H   0  0  0  0  0  0  0  0  0  0  0  0
  143.3051   71.2675  218.7958 H   0  0  0  0  0  0  0  0  0  0  0  0
  1  2  1  0
  2  3  1  0
  3  4  1  0
  4  5  1  0
  5  6  1  0
  6  7  2  0
  7  8  1  0
  8  9  1  0
  9 10  1  0
 10 11  1  0
 11 12  1  0
 12 13  1  0
 13 14  2  0
 14 15  1  0
 15 16  2  0
 16 17  1  0
 17 18  2  0
  8 19  2  0
 19 20  1  0
 20 21  1  0
 21 22  1  0
 22 23  1  0
 23 24  1  0
 24 25  2  0
 25 26  1  0
 26 27  2  0
 27 28  1  0
 28 29  2  0
 29 30  1  0
 20 31  2  0
  5 32  1  0
 32 33  1  0
 33  2  1  0
 31  6  1  0
 18 13  1  0
 30 21  1  0
 29 24  1  0
  1 34  1  0
  2 35  1  0
  3 36  1  0
  3 37  1  0
  4 38  1  0
  4 39  1  0
  9 40  1  0
 10 41  1  0
 10 42  1  0
 11 43  1  0
 11 44  1  0
 12 45  1  0
 12 46  1  0
 14 47  1  0
 15 48  1  0
 16 49  1  0
 17 50  1  0
 18 51  1  0
 22 52  1  0
 22 53  1  0
 23 54  1  0
 23 55  1  0
 25 56  1  0
 26 57  1  0
 27 58  1  0
 28 59  1  0
 30 60  1  0
 30 61  1  0
 32 62  1  0
 32 63  1  0
 33 64  1  0
 33 65  1  0
M  END
>  <smiles>  (34) 
OC1CCN(c2nc(NCCCc3ccccc3)nc(N3CCc4ccccc4C3)n2)CC1

>  <score_type>  (34) 
oracle

>  <origin>  (34) 
autodockgpu

>  <m_score__min__energy>  (34) 
-10.68

>  <m_primary>  (34) 
energy

>  <rmsd>  (34) 
5.562712001149185

>  <m_score__min__rmsd>  (34) 
5.562712001149185

>  <meeko>  (34) 
{"free_energy": -10.06, "intermolecular_energy": -12.45, "internal_energy": -1.4, "cluster_size": 50, "cluster_id": 1, "rank_in_cluster": 30}

>  <energy>  (34) 
-9.99

>  <cluster_rmsd>  (34) 
1.5

>  <cluster>  (34) 
1

$$$$

     RDKit          3D

 65 69  0  0  0  0  0  0  0  0999 V2000
  146.7050   73.3370  219.2960 O   0  0  0  0  0  0  0  0  0  0  0  0
  145.5880   73.1680  220.1100 C   0  0  0  0  0  0  0  0  0  0  0  0
  144.5970   72.1980  219.4950 C   0  0  0  0  0  0  0  0  0  0  0  0
  143.5510   71.9390  220.5950 C   0  0  0  0  0  0  0  0  0  0  0  0
  142.8540   73.2190  220.7560 N   0  0  0  0  0  0  0  0  0  0  0  0
  141.5570   73.2450  221.3300 C   0  0  0  0  0  0  0  0  0  0  0  0
  140.6300   74.1930  221.0410 N   0  0  0  0  0  0  0  0  0  0  0  0
  139.4230   74.2060  221.6150 C   0  0  0  0  0  0  0  0  0  0  0  0
  138.3900   75.1250  221.3190 N   0  0  0  0  0  0  0  0  0  0  0  0
  138.4680   76.5620  221.4290 C   0  0  0  0  0  0  0  0  0  0  0  0
  139.6470   76.8540  222.3360 C   0  0  0  0  0  0  0  0  0  0  0  0
  140.9080   77.2020  221.6330 C   0  0  0  0  0  0  0  0  0  0  0  0
  141.4450   78.4770  222.1870 C   0  0  0  0  0  0  0  0  0  0  0  0
  141.7710   79.5680  221.4150 C   0  0  0  0  0  0  0  0  0  0  0  0
  142.2790   80.6990  222.0510 C   0  0  0  0  0  0  0  0  0  0  0  0
  142.4610   80.7570  223.4130 C   0  0  0  0  0  0  0  0  0  0  0  0
  142.1360   79.6680  224.1870 C   0  0  0  0  0  0  0  0  0  0  0  0
  141.6320   78.5460  223.5530 C   0  0  0  0  0  0  0  0  0  0  0  0
  139.0970   73.2410  222.5260 N   0  0  0  0  0  0  0  0  0  0  0  0
  139.9900   72.2900  222.8340 C   0  0  0  0  0  0  0  0  0  0  0  0
  139.6480   71.2980  223.7860 N   0  0  0  0  0  0  0  0  0  0  0  0
  138.7970   70.1920  223.3730 C   0  0  0  0  0  0  0  0  0  0  0  0
  138.1090   69.6910  224.6550 C   0  0  0  0  0  0  0  0  0  0  0  0
  139.2570   69.1010  225.4420 C   0  0  0  0  0  0  0  0  0  0  0  0
  139.2460   67.7980  225.8780 C   0  0  0  0  0  0  0  0  0  0  0  0
  140.3530   67.3520  226.5650 C   0  0  0  0  0  0  0  0  0  0  0  0
  141.4090   68.2100  226.7880 C   0  0  0  0  0  0  0  0  0  0  0  0
  141.4030   69.5330  226.3380 C   0  0  0  0  0  0  0  0  0  0  0  0
  140.3120   69.9690  225.6620 C   0  0  0  0  0  0  0  0  0  0  0  0
  140.1500   71.3620  225.1260 C   0  0  0  0  0  0  0  0  0  0  0  0
  141.2100   72.2950  222.2370 N   0  0  0  0  0  0  0  0  0  0  0  0
  143.4500   74.4610  220.3510 C   0  0  0  0  0  0  0  0  0  0  0  0
  144.9400   74.4850  220.4630 C   0  0  0  0  0  0  0  0  0  0  0  0
  146.8540   74.3080  219.1870 H   0  0  0  0  0  0  0  0  0  0  0  0
  145.9380   72.7255  221.0543 H   0  0  0  0  0  0  0  0  0  0  0  0
  144.1221   72.6422  218.6078 H   0  0  0  0  0  0  0  0  0  0  0  0
  145.0830   71.2689  219.1624 H   0  0  0  0  0  0  0  0  0  0  0  0
  142.8486   71.1514  220.2845 H   0  0  0  0  0  0  0  0  0  0  0  0
  144.0107   71.5950  221.5332 H   0  0  0  0  0  0  0  0  0  0  0  0
  137.4820   74.6620  220.9830 H   0  0  0  0  0  0  0  0  0  0  0  0
  138.6286   77.0120  220.4382 H   0  0  0  0  0  0  0  0  0  0  0  0
  137.5365   76.9839  221.8345 H   0  0  0  0  0  0  0  0  0  0  0  0
  139.3756   77.6975  222.9877 H   0  0  0  0  0  0  0  0  0  0  0  0
  139.8488   75.9238  222.8873 H   0  0  0  0  0  0  0  0  0  0  0  0
  141.6446   76.3984  221.7801 H   0  0  0  0  0  0  0  0  0  0  0  0
  140.7094   77.3221  220.5578 H   0  0  0  0  0  0  0  0  0  0  0  0
  141.6342   79.5481  220.3237 H   0  0  0  0  0  0  0  0  0  0  0  0
  142.5438   81.5762  221.4424 H   0  0  0  0  0  0  0  0  0  0  0  0
  142.8637   81.6680  223.8798 H   0  0  0  0  0  0  0  0  0  0  0  0
  142.2727   79.6881  225.2783 H   0  0  0  0  0  0  0  0  0  0  0  0
  141.3687   77.6704  224.1645 H   0  0  0  0  0  0  0  0  0  0  0  0
  138.0473   70.5365  222.6455 H   0  0  0  0  0  0  0  0  0  0  0  0
  139.3775   69.3941  222.8868 H   0  0  0  0  0  0  0  0  0  0  0  0
  137.6384   70.5210  225.2025 H   0  0  0  0  0  0  0  0  0  0  0  0
  137.2984   68.9729  224.4622 H   0  0  0  0  0  0  0  0  0  0  0  0
  138.3874   67.1377  225.6860 H   0  0  0  0  0  0  0  0  0  0  0  0
  140.3946   66.3166  226.9340 H   0  0  0  0  0  0  0  0  0  0  0  0
  142.2864   67.8404  227.3391 H   0  0  0  0  0  0  0  0  0  0  0  0
  142.2572   70.1999  226.5265 H   0  0  0  0  0  0  0  0  0  0  0  0
  139.4420   71.9187  225.7575 H   0  0  0  0  0  0  0  0  0  0  0  0
  141.1234   71.8743  225.1309 H   0  0  0  0  0  0  0  0  0  0  0  0
  143.1789   74.6488  219.3016 H   0  0  0  0  0  0  0  0  0  0  0  0
  143.0670   75.2350  221.0324 H   0  0  0  0  0  0  0  0  0  0  0  0
  145.3285   75.2581  219.7838 H   0  0  0  0  0  0  0  0  0  0  0  0
  145.1837   74.6958  221.5147 H   0  0  0  0  0  0  0  0  0  0  0  0
  1  2  1  0
  2  3  1  0
  3  4  1  0
  4  5  1  0
  5  6  1  0
  6  7  2  0
  7  8  1  0
  8  9  1  0
  9 10  1  0
 10 11  1  0
 11 12  1  0
 12 13  1  0
 13 14  2  0
 14 15  1  0
 15 16  2  0
 16 17  1  0
 17 18  2  0
  8 19  2  0
 19 20  1  0
 20 21  1  0
 21 22  1  0
 22 23  1  0
 23 24  1  0
 24 25  2  0
 25 26  1  0
 26 27  2  0
 27 28  1  0
 28 29  2  0
 29 30  1  0
 20 31  2  0
  5 32  1  0
 32 33  1  0
 33  2  1  0
 31  6  1  0
 18 13  1  0
 30 21  1  0
 29 24  1  0
  1 34  1  0
  2 35  1  0
  3 36  1  0
  3 37  1  0
  4 38  1  0
  4 39  1  0
  9 40  1  0
 10 41  1  0
 10 42  1  0
 11 43  1  0
 11 44  1  0
 12 45  1  0
 12 46  1  0
 14 47  1  0
 15 48  1  0
 16 49  1  0
 17 50  1  0
 18 51  1  0
 22 52  1  0
 22 53  1  0
 23 54  1  0
 23 55  1  0
 25 56  1  0
 26 57  1  0
 27 58  1  0
 28 59  1  0
 30 60  1  0
 30 61  1  0
 32 62  1  0
 32 63  1  0
 33 64  1  0
 33 65  1  0
M  END
>  <smiles>  (35) 
OC1CCN(c2nc(NCCCc3ccccc3)nc(N3CCc4ccccc4C3)n2)CC1

>  <score_type>  (35) 
oracle

>  <origin>  (35) 
autodockgpu

>  <m_score__min__energy>  (35) 
-10.68

>  <m_primary>  (35) 
energy

>  <rmsd>  (35) 
11.373249235437559

>  <m_score__min__rmsd>  (35) 
11.373249235437559

>  <meeko>  (35) 
{"free_energy": -10.19, "intermolecular_energy": -12.58, "internal_energy": -1.22, "cluster_size": 50, "cluster_id": 1, "rank_in_cluster": 20}

>  <energy>  (35) 
-9.98

>  <cluster_rmsd>  (35) 
0.45

>  <cluster>  (35) 
1

$$$$

     RDKit          3D

 65 69  0  0  0  0  0  0  0  0999 V2000
  146.3100   73.0830  218.5770 O   0  0  0  0  0  0  0  0  0  0  0  0
  144.9870   73.2890  218.9650 C   0  0  0  0  0  0  0  0  0  0  0  0
  144.9020   74.1830  220.1870 C   0  0  0  0  0  0  0  0  0  0  0  0
  143.4050   74.5030  220.3480 C   0  0  0  0  0  0  0  0  0  0  0  0
  142.7870   73.2230  220.7100 N   0  0  0  0  0  0  0  0  0  0  0  0
  141.5330   73.2110  221.3730 C   0  0  0  0  0  0  0  0  0  0  0  0
  140.6340   74.2240  221.2910 N   0  0  0  0  0  0  0  0  0  0  0  0
  139.4690   74.1970  221.9440 C   0  0  0  0  0  0  0  0  0  0  0  0
  138.4620   75.1870  221.8590 N   0  0  0  0  0  0  0  0  0  0  0  0
  138.6090   76.5830  222.1900 C   0  0  0  0  0  0  0  0  0  0  0  0
  139.9670   77.0030  221.6620 C   0  0  0  0  0  0  0  0  0  0  0  0
  141.0290   77.1280  222.6920 C   0  0  0  0  0  0  0  0  0  0  0  0
  141.2440   78.5690  223.0070 C   0  0  0  0  0  0  0  0  0  0  0  0
  140.2470   79.4150  223.4310 C   0  0  0  0  0  0  0  0  0  0  0  0
  140.5730   80.7480  223.6790 C   0  0  0  0  0  0  0  0  0  0  0  0
  141.8470   81.2360  223.5140 C   0  0  0  0  0  0  0  0  0  0  0  0
  142.8460   80.3920  223.0890 C   0  0  0  0  0  0  0  0  0  0  0  0
  142.5200   79.0690  222.8440 C   0  0  0  0  0  0  0  0  0  0  0  0
  139.1570   73.1190  222.7250 N   0  0  0  0  0  0  0  0  0  0  0  0
  140.0230   72.1010  222.8270 C   0  0  0  0  0  0  0  0  0  0  0  0
  139.6960   70.9910  223.6460 N   0  0  0  0  0  0  0  0  0  0  0  0
  139.5650   69.6790  223.0310 C   0  0  0  0  0  0  0  0  0  0  0  0
  138.6340   68.8740  223.9550 C   0  0  0  0  0  0  0  0  0  0  0  0
  139.4700   68.7000  225.2020 C   0  0  0  0  0  0  0  0  0  0  0  0
  139.7490   67.4600  225.7240 C   0  0  0  0  0  0  0  0  0  0  0  0
  140.5400   67.4120  226.8500 C   0  0  0  0  0  0  0  0  0  0  0  0
  141.0110   68.5830  227.4040 C   0  0  0  0  0  0  0  0  0  0  0  0
  140.7170   69.8360  226.8610 C   0  0  0  0  0  0  0  0  0  0  0  0
  139.9380   69.8810  225.7520 C   0  0  0  0  0  0  0  0  0  0  0  0
  139.5240   71.1480  225.0590 C   0  0  0  0  0  0  0  0  0  0  0  0
  141.2000   72.1500  222.1530 N   0  0  0  0  0  0  0  0  0  0  0  0
  143.4150   71.9680  220.4070 C   0  0  0  0  0  0  0  0  0  0  0  0
  144.2480   71.9890  219.1670 C   0  0  0  0  0  0  0  0  0  0  0  0
  146.7460   73.9690  218.5130 H   0  0  0  0  0  0  0  0  0  0  0  0
  144.4835   73.8131  218.1393 H   0  0  0  0  0  0  0  0  0  0  0  0
  145.2824   73.6587  221.0760 H   0  0  0  0  0  0  0  0  0  0  0  0
  145.5078   75.0941  220.0734 H   0  0  0  0  0  0  0  0  0  0  0  0
  143.2508   75.2469  221.1436 H   0  0  0  0  0  0  0  0  0  0  0  0
  142.9702   74.9307  219.4326 H   0  0  0  0  0  0  0  0  0  0  0  0
  137.5190   74.8160  221.5090 H   0  0  0  0  0  0  0  0  0  0  0  0
  137.8144   77.1740  221.7112 H   0  0  0  0  0  0  0  0  0  0  0  0
  138.5327   76.7476  223.2749 H   0  0  0  0  0  0  0  0  0  0  0  0
  140.2930   76.2545  220.9248 H   0  0  0  0  0  0  0  0  0  0  0  0
  139.8335   78.0076  221.2344 H   0  0  0  0  0  0  0  0  0  0  0  0
  140.7212   76.5948  223.6035 H   0  0  0  0  0  0  0  0  0  0  0  0
  141.9640   76.6909  222.3115 H   0  0  0  0  0  0  0  0  0  0  0  0
  139.2188   79.0500  223.5710 H   0  0  0  0  0  0  0  0  0  0  0  0
  139.7823   81.4331  224.0187 H   0  0  0  0  0  0  0  0  0  0  0  0
  142.0661   82.2940  223.7204 H   0  0  0  0  0  0  0  0  0  0  0  0
  143.8739   80.7573  222.9479 H   0  0  0  0  0  0  0  0  0  0  0  0
  143.3129   78.3863  222.5045 H   0  0  0  0  0  0  0  0  0  0  0  0
  139.1243   69.7688  222.0271 H   0  0  0  0  0  0  0  0  0  0  0  0
  140.5421   69.1877  222.9131 H   0  0  0  0  0  0  0  0  0  0  0  0
  137.7110   69.4319  224.1713 H   0  0  0  0  0  0  0  0  0  0  0  0
  138.3020   67.9214  223.5165 H   0  0  0  0  0  0  0  0  0  0  0  0
  139.3563   66.5427  225.2610 H   0  0  0  0  0  0  0  0  0  0  0  0
  140.7949   66.4437  227.3054 H   0  0  0  0  0  0  0  0  0  0  0  0
  141.6401   68.5289  228.3048 H   0  0  0  0  0  0  0  0  0  0  0  0
  141.1054   70.7577  227.3189 H   0  0  0  0  0  0  0  0  0  0  0  0
  138.4673   71.3593  225.2796 H   0  0  0  0  0  0  0  0  0  0  0  0
  140.1443   71.9834  225.4157 H   0  0  0  0  0  0  0  0  0  0  0  0
  144.0612   71.6914  221.2531 H   0  0  0  0  0  0  0  0  0  0  0  0
  142.6073   71.2412  220.2355 H   0  0  0  0  0  0  0  0  0  0  0  0
  144.9849   71.1746  219.2279 H   0  0  0  0  0  0  0  0  0  0  0  0
  143.5644   71.8674  218.3138 H   0  0  0  0  0  0  0  0  0  0  0  0
  1  2  1  0
  2  3  1  0
  3  4  1  0
  4  5  1  0
  5  6  1  0
  6  7  2  0
  7  8  1  0
  8  9  1  0
  9 10  1  0
 10 11  1  0
 11 12  1  0
 12 13  1  0
 13 14  2  0
 14 15  1  0
 15 16  2  0
 16 17  1  0
 17 18  2  0
  8 19  2  0
 19 20  1  0
 20 21  1  0
 21 22  1  0
 22 23  1  0
 23 24  1  0
 24 25  2  0
 25 26  1  0
 26 27  2  0
 27 28  1  0
 28 29  2  0
 29 30  1  0
 20 31  2  0
  5 32  1  0
 32 33  1  0
 33  2  1  0
 31  6  1  0
 18 13  1  0
 30 21  1  0
 29 24  1  0
  1 34  1  0
  2 35  1  0
  3 36  1  0
  3 37  1  0
  4 38  1  0
  4 39  1  0
  9 40  1  0
 10 41  1  0
 10 42  1  0
 11 43  1  0
 11 44  1  0
 12 45  1  0
 12 46  1  0
 14 47  1  0
 15 48  1  0
 16 49  1  0
 17 50  1  0
 18 51  1  0
 22 52  1  0
 22 53  1  0
 23 54  1  0
 23 55  1  0
 25 56  1  0
 26 57  1  0
 27 58  1  0
 28 59  1  0
 30 60  1  0
 30 61  1  0
 32 62  1  0
 32 63  1  0
 33 64  1  0
 33 65  1  0
M  END
>  <smiles>  (36) 
OC1CCN(c2nc(NCCCc3ccccc3)nc(N3CCc4ccccc4C3)n2)CC1

>  <score_type>  (36) 
oracle

>  <origin>  (36) 
autodockgpu

>  <m_score__min__energy>  (36) 
-10.68

>  <m_primary>  (36) 
energy

>  <rmsd>  (36) 
11.479247810897954

>  <m_score__min__rmsd>  (36) 
11.479247810897954

>  <meeko>  (36) 
{"free_energy": -10.16, "intermolecular_energy": -12.55, "internal_energy": -1.1, "cluster_size": 50, "cluster_id": 1, "rank_in_cluster": 23}

>  <energy>  (36) 
-9.96

>  <cluster_rmsd>  (36) 
1.17

>  <cluster>  (36) 
1

$$$$

     RDKit          3D

 65 69  0  0  0  0  0  0  0  0999 V2000
  146.3230   73.0270  218.3910 O   0  0  0  0  0  0  0  0  0  0  0  0
  145.2540   72.7770  219.2480 C   0  0  0  0  0  0  0  0  0  0  0  0
  143.9750   72.5170  218.4770 C   0  0  0  0  0  0  0  0  0  0  0  0
  142.9600   72.0350  219.5300 C   0  0  0  0  0  0  0  0  0  0  0  0
  142.7180   73.2070  220.3770 N   0  0  0  0  0  0  0  0  0  0  0  0
  141.5300   73.2830  221.1480 C   0  0  0  0  0  0  0  0  0  0  0  0
  140.7040   74.3600  221.1470 N   0  0  0  0  0  0  0  0  0  0  0  0
  139.6020   74.4140  221.9000 C   0  0  0  0  0  0  0  0  0  0  0  0
  138.6680   75.4750  221.9050 N   0  0  0  0  0  0  0  0  0  0  0  0
  138.9780   76.8840  221.9080 C   0  0  0  0  0  0  0  0  0  0  0  0
  140.4400   76.9960  222.2960 C   0  0  0  0  0  0  0  0  0  0  0  0
  141.2450   77.9100  221.4470 C   0  0  0  0  0  0  0  0  0  0  0  0
  141.5460   79.1540  222.2100 C   0  0  0  0  0  0  0  0  0  0  0  0
  141.2010   80.4150  221.7830 C   0  0  0  0  0  0  0  0  0  0  0  0
  141.5530   81.5020  222.5820 C   0  0  0  0  0  0  0  0  0  0  0  0
  142.2260   81.3530  223.7720 C   0  0  0  0  0  0  0  0  0  0  0  0
  142.5730   80.0930  224.2010 C   0  0  0  0  0  0  0  0  0  0  0  0
  142.2220   79.0150  223.4060 C   0  0  0  0  0  0  0  0  0  0  0  0
  139.2830   73.3570  222.7060 N   0  0  0  0  0  0  0  0  0  0  0  0
  140.0770   72.2770  222.7310 C   0  0  0  0  0  0  0  0  0  0  0  0
  139.7430   71.1890  223.5750 N   0  0  0  0  0  0  0  0  0  0  0  0
  139.5630   69.8710  222.9850 C   0  0  0  0  0  0  0  0  0  0  0  0
  138.6360   69.1040  223.9450 C   0  0  0  0  0  0  0  0  0  0  0  0
  139.4980   68.9290  225.1740 C   0  0  0  0  0  0  0  0  0  0  0  0
  139.7590   67.6900  225.7090 C   0  0  0  0  0  0  0  0  0  0  0  0
  140.5760   67.6400  226.8150 C   0  0  0  0  0  0  0  0  0  0  0  0
  141.0900   68.8070  227.3380 C   0  0  0  0  0  0  0  0  0  0  0  0
  140.8140   70.0580  226.7830 C   0  0  0  0  0  0  0  0  0  0  0  0
  140.0090   70.1060  225.6920 C   0  0  0  0  0  0  0  0  0  0  0  0
  139.6100   71.3720  224.9890 C   0  0  0  0  0  0  0  0  0  0  0  0
  141.1900   72.2440  221.9550 N   0  0  0  0  0  0  0  0  0  0  0  0
  143.6580   74.2900  220.4570 C   0  0  0  0  0  0  0  0  0  0  0  0
  145.0810   73.8740  220.2700 C   0  0  0  0  0  0  0  0  0  0  0  0
  146.4300   74.0070  218.3200 H   0  0  0  0  0  0  0  0  0  0  0  0
  145.4923   71.8594  219.8059 H   0  0  0  0  0  0  0  0  0  0  0  0
  143.6212   73.4399  217.9942 H   0  0  0  0  0  0  0  0  0  0  0  0
  144.1205   71.7763  217.6769 H   0  0  0  0  0  0  0  0  0  0  0  0
  142.0278   71.7055  219.0480 H   0  0  0  0  0  0  0  0  0  0  0  0
  143.3338   71.1754  220.1056 H   0  0  0  0  0  0  0  0  0  0  0  0
  137.6450   75.1520  221.9050 H   0  0  0  0  0  0  0  0  0  0  0  0
  138.8152   77.3122  220.9079 H   0  0  0  0  0  0  0  0  0  0  0  0
  138.3342   77.4341  222.6101 H   0  0  0  0  0  0  0  0  0  0  0  0
  140.4912   77.3594  223.3330 H   0  0  0  0  0  0  0  0  0  0  0  0
  140.8715   75.9928  222.1637 H   0  0  0  0  0  0  0  0  0  0  0  0
  142.1861   77.4155  221.1645 H   0  0  0  0  0  0  0  0  0  0  0  0
  140.6789   78.1630  220.5384 H   0  0  0  0  0  0  0  0  0  0  0  0
  140.6614   80.5621  220.8358 H   0  0  0  0  0  0  0  0  0  0  0  0
  141.2828   82.5149  222.2487 H   0  0  0  0  0  0  0  0  0  0  0  0
  142.4849   82.2349  224.3763 H   0  0  0  0  0  0  0  0  0  0  0  0
  143.1134   79.9461  225.1478 H   0  0  0  0  0  0  0  0  0  0  0  0
  142.4936   78.0034  223.7420 H   0  0  0  0  0  0  0  0  0  0  0  0
  139.0991   69.9564  221.9913 H   0  0  0  0  0  0  0  0  0  0  0  0
  140.5242   69.3532  222.8507 H   0  0  0  0  0  0  0  0  0  0  0  0
  137.7325   69.6880  224.1746 H   0  0  0  0  0  0  0  0  0  0  0  0
  138.2703   68.1530  223.5305 H   0  0  0  0  0  0  0  0  0  0  0  0
  139.3321   66.7758  225.2708 H   0  0  0  0  0  0  0  0  0  0  0  0
  140.8179   66.6728  227.2798 H   0  0  0  0  0  0  0  0  0  0  0  0
  141.7403   68.7508  228.2234 H   0  0  0  0  0  0  0  0  0  0  0  0
  141.2362   70.9764  227.2169 H   0  0  0  0  0  0  0  0  0  0  0  0
  138.5647   71.6135  225.2317 H   0  0  0  0  0  0  0  0  0  0  0  0
  140.2598   72.1967  225.3170 H   0  0  0  0  0  0  0  0  0  0  0  0
  143.4069   75.0244  219.6775 H   0  0  0  0  0  0  0  0  0  0  0  0
  143.5786   74.7063  221.4721 H   0  0  0  0  0  0  0  0  0  0  0  0
  145.6605   74.7500  219.9432 H   0  0  0  0  0  0  0  0  0  0  0  0
  145.4339   73.4790  221.2341 H   0  0  0  0  0  0  0  0  0  0  0  0
  1  2  1  0
  2  3  1  0
  3  4  1  0
  4  5  1  0
  5  6  1  0
  6  7  2  0
  7  8  1  0
  8  9  1  0
  9 10  1  0
 10 11  1  0
 11 12  1  0
 12 13  1  0
 13 14  2  0
 14 15  1  0
 15 16  2  0
 16 17  1  0
 17 18  2  0
  8 19  2  0
 19 20  1  0
 20 21  1  0
 21 22  1  0
 22 23  1  0
 23 24  1  0
 24 25  2  0
 25 26  1  0
 26 27  2  0
 27 28  1  0
 28 29  2  0
 29 30  1  0
 20 31  2  0
  5 32  1  0
 32 33  1  0
 33  2  1  0
 31  6  1  0
 18 13  1  0
 30 21  1  0
 29 24  1  0
  1 34  1  0
  2 35  1  0
  3 36  1  0
  3 37  1  0
  4 38  1  0
  4 39  1  0
  9 40  1  0
 10 41  1  0
 10 42  1  0
 11 43  1  0
 11 44  1  0
 12 45  1  0
 12 46  1  0
 14 47  1  0
 15 48  1  0
 16 49  1  0
 17 50  1  0
 18 51  1  0
 22 52  1  0
 22 53  1  0
 23 54  1  0
 23 55  1  0
 25 56  1  0
 26 57  1  0
 27 58  1  0
 28 59  1  0
 30 60  1  0
 30 61  1  0
 32 62  1  0
 32 63  1  0
 33 64  1  0
 33 65  1  0
M  END
>  <smiles>  (37) 
OC1CCN(c2nc(NCCCc3ccccc3)nc(N3CCc4ccccc4C3)n2)CC1

>  <score_type>  (37) 
oracle

>  <origin>  (37) 
autodockgpu

>  <m_score__min__energy>  (37) 
-10.68

>  <m_primary>  (37) 
energy

>  <rmsd>  (37) 
11.274939934283346

>  <m_score__min__rmsd>  (37) 
11.274939934283346

>  <meeko>  (37) 
{"free_energy": -10.16, "intermolecular_energy": -12.55, "internal_energy": -1.05, "cluster_size": 50, "cluster_id": 1, "rank_in_cluster": 22}

>  <energy>  (37) 
-9.93

>  <cluster_rmsd>  (37) 
0.51

>  <cluster>  (37) 
1

$$$$

     RDKit          3D

 65 69  0  0  0  0  0  0  0  0999 V2000
  146.7170   73.3870  219.2540 O   0  0  0  0  0  0  0  0  0  0  0  0
  145.6290   73.1900  220.1010 C   0  0  0  0  0  0  0  0  0  0  0  0
  144.6420   72.2000  219.5130 C   0  0  0  0  0  0  0  0  0  0  0  0
  143.6360   71.9140  220.6420 C   0  0  0  0  0  0  0  0  0  0  0  0
  142.9150   73.1770  220.8280 N   0  0  0  0  0  0  0  0  0  0  0  0
  141.6360   73.1730  221.4410 C   0  0  0  0  0  0  0  0  0  0  0  0
  140.7260   74.1680  221.2830 N   0  0  0  0  0  0  0  0  0  0  0  0
  139.5370   74.1490  221.8900 C   0  0  0  0  0  0  0  0  0  0  0  0
  138.5210   75.1190  221.7260 N   0  0  0  0  0  0  0  0  0  0  0  0
  138.4870   76.1570  220.7250 C   0  0  0  0  0  0  0  0  0  0  0  0
  139.1910   77.3550  221.3330 C   0  0  0  0  0  0  0  0  0  0  0  0
  140.6480   77.4340  221.0540 C   0  0  0  0  0  0  0  0  0  0  0  0
  141.2790   78.3960  222.0020 C   0  0  0  0  0  0  0  0  0  0  0  0
  141.2870   78.2290  223.3660 C   0  0  0  0  0  0  0  0  0  0  0  0
  141.8980   79.2090  224.1480 C   0  0  0  0  0  0  0  0  0  0  0  0
  142.4880   80.3240  223.6000 C   0  0  0  0  0  0  0  0  0  0  0  0
  142.4810   80.4930  222.2350 C   0  0  0  0  0  0  0  0  0  0  0  0
  141.8730   79.5190  221.4620 C   0  0  0  0  0  0  0  0  0  0  0  0
  139.2100   73.0990  222.7030 N   0  0  0  0  0  0  0  0  0  0  0  0
  140.0850   72.1000  222.8800 C   0  0  0  0  0  0  0  0  0  0  0  0
  139.7420   71.0190  223.7310 N   0  0  0  0  0  0  0  0  0  0  0  0
  139.5070   69.7100  223.1430 C   0  0  0  0  0  0  0  0  0  0  0  0
  138.5840   68.9680  224.1260 C   0  0  0  0  0  0  0  0  0  0  0  0
  139.4740   68.7630  225.3310 C   0  0  0  0  0  0  0  0  0  0  0  0
  139.7120   67.5150  225.8550 C   0  0  0  0  0  0  0  0  0  0  0  0
  140.5580   67.4360  226.9380 C   0  0  0  0  0  0  0  0  0  0  0  0
  141.1210   68.5860  227.4500 C   0  0  0  0  0  0  0  0  0  0  0  0
  140.8670   69.8470  226.9050 C   0  0  0  0  0  0  0  0  0  0  0  0
  140.0340   69.9230  225.8380 C   0  0  0  0  0  0  0  0  0  0  0  0
  139.6540   71.2010  225.1490 C   0  0  0  0  0  0  0  0  0  0  0  0
  141.2880   72.1390  222.2510 N   0  0  0  0  0  0  0  0  0  0  0  0
  143.4710   74.4340  220.4090 C   0  0  0  0  0  0  0  0  0  0  0  0
  144.9620   74.4910  220.4770 C   0  0  0  0  0  0  0  0  0  0  0  0
  146.5040   74.1490  218.6620 H   0  0  0  0  0  0  0  0  0  0  0  0
  146.0176   72.7528  221.0326 H   0  0  0  0  0  0  0  0  0  0  0  0
  144.1307   72.6361  218.6421 H   0  0  0  0  0  0  0  0  0  0  0  0
  145.1387   71.2831  219.1629 H   0  0  0  0  0  0  0  0  0  0  0  0
  142.9430   71.1113  220.3497 H   0  0  0  0  0  0  0  0  0  0  0  0
  144.1312   71.5781  221.5650 H   0  0  0  0  0  0  0  0  0  0  0  0
  137.7210   75.0320  222.4350 H   0  0  0  0  0  0  0  0  0  0  0  0
  139.0115   75.8274  219.8160 H   0  0  0  0  0  0  0  0  0  0  0  0
  137.4541   76.4027  220.4375 H   0  0  0  0  0  0  0  0  0  0  0  0
  138.7178   78.2660  220.9377 H   0  0  0  0  0  0  0  0  0  0  0  0
  139.0916   77.2498  222.4234 H   0  0  0  0  0  0  0  0  0  0  0  0
  141.1013   76.4401  221.1828 H   0  0  0  0  0  0  0  0  0  0  0  0
  140.8076   77.7760  220.0208 H   0  0  0  0  0  0  0  0  0  0  0  0
  140.8236   77.3454  223.8290 H   0  0  0  0  0  0  0  0  0  0  0  0
  141.9084   79.0859  225.2410 H   0  0  0  0  0  0  0  0  0  0  0  0
  142.9621   81.0752  224.2487 H   0  0  0  0  0  0  0  0  0  0  0  0
  142.9449   81.3761  221.7714 H   0  0  0  0  0  0  0  0  0  0  0  0
  141.8627   79.6454  220.3693 H   0  0  0  0  0  0  0  0  0  0  0  0
  139.0190   69.8126  222.1625 H   0  0  0  0  0  0  0  0  0  0  0  0
  140.4482   69.1642  222.9810 H   0  0  0  0  0  0  0  0  0  0  0  0
  137.7051   69.5781  224.3817 H   0  0  0  0  0  0  0  0  0  0  0  0
  138.1786   68.0298  223.7192 H   0  0  0  0  0  0  0  0  0  0  0  0
  139.2454   66.6158  225.4264 H   0  0  0  0  0  0  0  0  0  0  0  0
  140.7838   66.4602  227.3928 H   0  0  0  0  0  0  0  0  0  0  0  0
  141.7931   68.5078  228.3172 H   0  0  0  0  0  0  0  0  0  0  0  0
  141.3289   70.7509  227.3288 H   0  0  0  0  0  0  0  0  0  0  0  0
  138.6235   71.4728  225.4213 H   0  0  0  0  0  0  0  0  0  0  0  0
  140.3376   72.0046  225.4603 H   0  0  0  0  0  0  0  0  0  0  0  0
  143.1648   74.6182  219.3687 H   0  0  0  0  0  0  0  0  0  0  0  0
  143.0911   75.1977  221.1036 H   0  0  0  0  0  0  0  0  0  0  0  0
  145.3128   75.2744  219.7891 H   0  0  0  0  0  0  0  0  0  0  0  0
  145.2317   74.7043  221.5219 H   0  0  0  0  0  0  0  0  0  0  0  0
  1  2  1  0
  2  3  1  0
  3  4  1  0
  4  5  1  0
  5  6  1  0
  6  7  2  0
  7  8  1  0
  8  9  1  0
  9 10  1  0
 10 11  1  0
 11 12  1  0
 12 13  1  0
 13 14  2  0
 14 15  1  0
 15 16  2  0
 16 17  1  0
 17 18  2  0
  8 19  2  0
 19 20  1  0
 20 21  1  0
 21 22  1  0
 22 23  1  0
 23 24  1  0
 24 25  2  0
 25 26  1  0
 26 27  2  0
 27 28  1  0
 28 29  2  0
 29 30  1  0
 20 31  2  0
  5 32  1  0
 32 33  1  0
 33  2  1  0
 31  6  1  0
 18 13  1  0
 30 21  1  0
 29 24  1  0
  1 34  1  0
  2 35  1  0
  3 36  1  0
  3 37  1  0
  4 38  1  0
  4 39  1  0
  9 40  1  0
 10 41  1  0
 10 42  1  0
 11 43  1  0
 11 44  1  0
 12 45  1  0
 12 46  1  0
 14 47  1  0
 15 48  1  0
 16 49  1  0
 17 50  1  0
 18 51  1  0
 22 52  1  0
 22 53  1  0
 23 54  1  0
 23 55  1  0
 25 56  1  0
 26 57  1  0
 27 58  1  0
 28 59  1  0
 30 60  1  0
 30 61  1  0
 32 62  1  0
 32 63  1  0
 33 64  1  0
 33 65  1  0
M  END
>  <smiles>  (38) 
OC1CCN(c2nc(NCCCc3ccccc3)nc(N3CCc4ccccc4C3)n2)CC1

>  <score_type>  (38) 
oracle

>  <origin>  (38) 
autodockgpu

>  <m_score__min__energy>  (38) 
-10.68

>  <m_primary>  (38) 
energy

>  <rmsd>  (38) 
11.49408505769528

>  <m_score__min__rmsd>  (38) 
11.49408505769528

>  <meeko>  (38) 
{"free_energy": -10.06, "intermolecular_energy": -12.45, "internal_energy": -1.23, "cluster_size": 50, "cluster_id": 1, "rank_in_cluster": 29}

>  <energy>  (38) 
-9.89

>  <cluster_rmsd>  (38) 
1.55

>  <cluster>  (38) 
1

$$$$

     RDKit          3D

 65 69  0  0  0  0  0  0  0  0999 V2000
  146.6970   73.0820  219.4290 O   0  0  0  0  0  0  0  0  0  0  0  0
  145.5560   73.1130  220.2280 C   0  0  0  0  0  0  0  0  0  0  0  0
  144.4590   72.2330  219.6620 C   0  0  0  0  0  0  0  0  0  0  0  0
  143.3750   72.1860  220.7540 C   0  0  0  0  0  0  0  0  0  0  0  0
  142.8420   73.5510  220.8090 N   0  0  0  0  0  0  0  0  0  0  0  0
  141.5530   73.7810  221.3520 C   0  0  0  0  0  0  0  0  0  0  0  0
  140.7240   72.7860  221.7600 N   0  0  0  0  0  0  0  0  0  0  0  0
  139.5050   73.0290  222.2470 C   0  0  0  0  0  0  0  0  0  0  0  0
  138.6150   72.0490  222.7430 N   0  0  0  0  0  0  0  0  0  0  0  0
  138.8100   70.6200  222.7040 C   0  0  0  0  0  0  0  0  0  0  0  0
  138.7420   70.1430  224.1410 C   0  0  0  0  0  0  0  0  0  0  0  0
  140.0280   69.6600  224.7030 C   0  0  0  0  0  0  0  0  0  0  0  0
  140.3090   70.3760  225.9800 C   0  0  0  0  0  0  0  0  0  0  0  0
  139.8210   69.9770  227.2020 C   0  0  0  0  0  0  0  0  0  0  0  0
  140.1440   70.7420  228.3230 C   0  0  0  0  0  0  0  0  0  0  0  0
  140.9270   71.8690  228.2430 C   0  0  0  0  0  0  0  0  0  0  0  0
  141.4160   72.2700  227.0210 C   0  0  0  0  0  0  0  0  0  0  0  0
  141.0940   71.5090  225.9100 C   0  0  0  0  0  0  0  0  0  0  0  0
  139.0610   74.3180  222.3430 N   0  0  0  0  0  0  0  0  0  0  0  0
  139.8530   75.3240  221.9490 C   0  0  0  0  0  0  0  0  0  0  0  0
  139.3820   76.6580  222.0440 N   0  0  0  0  0  0  0  0  0  0  0  0
  138.0700   76.8990  222.6250 C   0  0  0  0  0  0  0  0  0  0  0  0
  137.5910   78.2380  222.0360 C   0  0  0  0  0  0  0  0  0  0  0  0
  138.5430   79.2360  222.6530 C   0  0  0  0  0  0  0  0  0  0  0  0
  138.0960   80.3100  223.3850 C   0  0  0  0  0  0  0  0  0  0  0  0
  139.0480   81.1460  223.9250 C   0  0  0  0  0  0  0  0  0  0  0  0
  140.3850   80.8830  223.7160 C   0  0  0  0  0  0  0  0  0  0  0  0
  140.8210   79.7860  222.9690 C   0  0  0  0  0  0  0  0  0  0  0  0
  139.8830   78.9640  222.4380 C   0  0  0  0  0  0  0  0  0  0  0  0
  140.1910   77.7550  221.6040 C   0  0  0  0  0  0  0  0  0  0  0  0
  141.0900   75.0540  221.4590 N   0  0  0  0  0  0  0  0  0  0  0  0
  143.5960   74.6770  220.3310 C   0  0  0  0  0  0  0  0  0  0  0  0
  145.0750   74.5230  220.4730 C   0  0  0  0  0  0  0  0  0  0  0  0
  146.7780   73.9630  218.9860 H   0  0  0  0  0  0  0  0  0  0  0  0
  145.8350   72.6992  221.2083 H   0  0  0  0  0  0  0  0  0  0  0  0
  144.0549   72.6679  218.7359 H   0  0  0  0  0  0  0  0  0  0  0  0
  144.8285   71.2290  219.4062 H   0  0  0  0  0  0  0  0  0  0  0  0
  142.5836   71.4712  220.4843 H   0  0  0  0  0  0  0  0  0  0  0  0
  143.7757   71.8564  221.7240 H   0  0  0  0  0  0  0  0  0  0  0  0
  137.7250   72.4560  223.1840 H   0  0  0  0  0  0  0  0  0  0  0  0
  138.0187   70.1436  222.1065 H   0  0  0  0  0  0  0  0  0  0  0  0
  139.7734   70.3600  222.2412 H   0  0  0  0  0  0  0  0  0  0  0  0
  138.3911   70.9802  224.7622 H   0  0  0  0  0  0  0  0  0  0  0  0
  138.0605   69.2796  224.1464 H   0  0  0  0  0  0  0  0  0  0  0  0
  139.9618   68.5789  224.8950 H   0  0  0  0  0  0  0  0  0  0  0  0
  140.8391   69.8546  223.9859 H   0  0  0  0  0  0  0  0  0  0  0  0
  139.1928   69.0787  227.2932 H   0  0  0  0  0  0  0  0  0  0  0  0
  139.7585   70.4324  229.3056 H   0  0  0  0  0  0  0  0  0  0  0  0
  141.1610   72.4463  229.1496 H   0  0  0  0  0  0  0  0  0  0  0  0
  142.0441   73.1684  226.9294 H   0  0  0  0  0  0  0  0  0  0  0  0
  141.4807   71.8211  224.9287 H   0  0  0  0  0  0  0  0  0  0  0  0
  137.3759   76.0903  222.3525 H   0  0  0  0  0  0  0  0  0  0  0  0
  138.1132   76.9320  223.7237 H   0  0  0  0  0  0  0  0  0  0  0  0
  137.6718   78.2396  220.9390 H   0  0  0  0  0  0  0  0  0  0  0  0
  136.5342   78.4546  222.2509 H   0  0  0  0  0  0  0  0  0  0  0  0
  137.0218   80.4943  223.5335 H   0  0  0  0  0  0  0  0  0  0  0  0
  138.7430   82.0193  224.5202 H   0  0  0  0  0  0  0  0  0  0  0  0
  141.1341   81.5601  224.1524 H   0  0  0  0  0  0  0  0  0  0  0  0
  141.8935   79.5950  222.8162 H   0  0  0  0  0  0  0  0  0  0  0  0
  139.9731   77.9719  220.5479 H   0  0  0  0  0  0  0  0  0  0  0  0
  141.2544   77.4948  221.7108 H   0  0  0  0  0  0  0  0  0  0  0  0
  143.3641   74.8212  219.2654 H   0  0  0  0  0  0  0  0  0  0  0  0
  143.3053   75.5396  220.9486 H   0  0  0  0  0  0  0  0  0  0  0  0
  145.5663   75.1900  219.7493 H   0  0  0  0  0  0  0  0  0  0  0  0
  145.3303   74.7778  221.5122 H   0  0  0  0  0  0  0  0  0  0  0  0
  1  2  1  0
  2  3  1  0
  3  4  1  0
  4  5  1  0
  5  6  1  0
  6  7  2  0
  7  8  1  0
  8  9  1  0
  9 10  1  0
 10 11  1  0
 11 12  1  0
 12 13  1  0
 13 14  2  0
 14 15  1  0
 15 16  2  0
 16 17  1  0
 17 18  2  0
  8 19  2  0
 19 20  1  0
 20 21  1  0
 21 22  1  0
 22 23  1  0
 23 24  1  0
 24 25  2  0
 25 26  1  0
 26 27  2  0
 27 28  1  0
 28 29  2  0
 29 30  1  0
 20 31  2  0
  5 32  1  0
 32 33  1  0
 33  2  1  0
 31  6  1  0
 18 13  1  0
 30 21  1  0
 29 24  1  0
  1 34  1  0
  2 35  1  0
  3 36  1  0
  3 37  1  0
  4 38  1  0
  4 39  1  0
  9 40  1  0
 10 41  1  0
 10 42  1  0
 11 43  1  0
 11 44  1  0
 12 45  1  0
 12 46  1  0
 14 47  1  0
 15 48  1  0
 16 49  1  0
 17 50  1  0
 18 51  1  0
 22 52  1  0
 22 53  1  0
 23 54  1  0
 23 55  1  0
 25 56  1  0
 26 57  1  0
 27 58  1  0
 28 59  1  0
 30 60  1  0
 30 61  1  0
 32 62  1  0
 32 63  1  0
 33 64  1  0
 33 65  1  0
M  END
>  <smiles>  (39) 
OC1CCN(c2nc(NCCCc3ccccc3)nc(N3CCc4ccccc4C3)n2)CC1

>  <score_type>  (39) 
oracle

>  <origin>  (39) 
autodockgpu

>  <m_score__min__energy>  (39) 
-10.68

>  <m_primary>  (39) 
energy

>  <rmsd>  (39) 
5.378247563282918

>  <m_score__min__rmsd>  (39) 
5.378247563282918

>  <meeko>  (39) 
{"free_energy": -10.31, "intermolecular_energy": -12.7, "internal_energy": -1.16, "cluster_size": 50, "cluster_id": 1, "rank_in_cluster": 11}

>  <energy>  (39) 
-9.84

>  <cluster_rmsd>  (39) 
0.43

>  <cluster>  (39) 
1

$$$$

     RDKit          3D

 65 69  0  0  0  0  0  0  0  0999 V2000
  146.7490   73.3950  219.1910 O   0  0  0  0  0  0  0  0  0  0  0  0
  145.6350   73.2110  220.0060 C   0  0  0  0  0  0  0  0  0  0  0  0
  144.5990   72.3280  219.3380 C   0  0  0  0  0  0  0  0  0  0  0  0
  143.5570   72.0310  220.4310 C   0  0  0  0  0  0  0  0  0  0  0  0
  142.9130   73.3220  220.6930 N   0  0  0  0  0  0  0  0  0  0  0  0
  141.6260   73.3570  221.2860 C   0  0  0  0  0  0  0  0  0  0  0  0
  140.7120   74.3280  221.0350 N   0  0  0  0  0  0  0  0  0  0  0  0
  139.5140   74.3490  221.6260 C   0  0  0  0  0  0  0  0  0  0  0  0
  138.4940   75.2940  221.3690 N   0  0  0  0  0  0  0  0  0  0  0  0
  138.3670   76.5980  221.9720 C   0  0  0  0  0  0  0  0  0  0  0  0
  139.6400   77.3490  221.6310 C   0  0  0  0  0  0  0  0  0  0  0  0
  140.6930   77.3070  222.6770 C   0  0  0  0  0  0  0  0  0  0  0  0
  141.2090   78.6850  222.9120 C   0  0  0  0  0  0  0  0  0  0  0  0
  142.4720   79.0980  222.5560 C   0  0  0  0  0  0  0  0  0  0  0  0
  142.8420   80.4110  222.8440 C   0  0  0  0  0  0  0  0  0  0  0  0
  141.9920   81.2950  223.4660 C   0  0  0  0  0  0  0  0  0  0  0  0
  140.7290   80.8840  223.8230 C   0  0  0  0  0  0  0  0  0  0  0  0
  140.3640   79.5800  223.5360 C   0  0  0  0  0  0  0  0  0  0  0  0
  139.1820   73.3670  222.5160 N   0  0  0  0  0  0  0  0  0  0  0  0
  140.0620   72.3920  222.7870 C   0  0  0  0  0  0  0  0  0  0  0  0
  139.7140   71.3820  223.7180 N   0  0  0  0  0  0  0  0  0  0  0  0
  138.8630   70.2850  223.2790 C   0  0  0  0  0  0  0  0  0  0  0  0
  138.1700   69.7590  224.5480 C   0  0  0  0  0  0  0  0  0  0  0  0
  139.3130   69.1530  225.3280 C   0  0  0  0  0  0  0  0  0  0  0  0
  139.2990   67.8410  225.7390 C   0  0  0  0  0  0  0  0  0  0  0  0
  140.4020   67.3810  226.4220 C   0  0  0  0  0  0  0  0  0  0  0  0
  141.4580   68.2330  226.6670 C   0  0  0  0  0  0  0  0  0  0  0  0
  141.4560   69.5640  226.2430 C   0  0  0  0  0  0  0  0  0  0  0  0
  140.3680   70.0150  225.5700 C   0  0  0  0  0  0  0  0  0  0  0  0
  140.2100   71.4190  225.0610 C   0  0  0  0  0  0  0  0  0  0  0  0
  141.2730   72.3900  222.1730 N   0  0  0  0  0  0  0  0  0  0  0  0
  143.5540   74.5660  220.3700 C   0  0  0  0  0  0  0  0  0  0  0  0
  145.0450   74.5230  220.4620 C   0  0  0  0  0  0  0  0  0  0  0  0
  146.5550   74.1490  218.5810 H   0  0  0  0  0  0  0  0  0  0  0  0
  145.9777   72.6871  220.9105 H   0  0  0  0  0  0  0  0  0  0  0  0
  144.1317   72.8536  218.4922 H   0  0  0  0  0  0  0  0  0  0  0  0
  145.0435   71.4071  218.9325 H   0  0  0  0  0  0  0  0  0  0  0  0
  142.8206   71.2954  220.0751 H   0  0  0  0  0  0  0  0  0  0  0  0
  144.0136   71.6028  221.3355 H   0  0  0  0  0  0  0  0  0  0  0  0
  137.7710   74.9650  220.6480 H   0  0  0  0  0  0  0  0  0  0  0  0
  137.4925   77.1242  221.5616 H   0  0  0  0  0  0  0  0  0  0  0  0
  138.2253   76.5238  223.0603 H   0  0  0  0  0  0  0  0  0  0  0  0
  140.0563   76.9144  220.7102 H   0  0  0  0  0  0  0  0  0  0  0  0
  139.3542   78.4059  221.5249 H   0  0  0  0  0  0  0  0  0  0  0  0
  140.2680   76.9096  223.6105 H   0  0  0  0  0  0  0  0  0  0  0  0
  141.5160   76.6569  222.3454 H   0  0  0  0  0  0  0  0  0  0  0  0
  143.1713   78.4107  222.0574 H   0  0  0  0  0  0  0  0  0  0  0  0
  143.8496   80.7519  222.5637 H   0  0  0  0  0  0  0  0  0  0  0  0
  142.3199   82.3237  223.6766 H   0  0  0  0  0  0  0  0  0  0  0  0
  140.0297   81.5711  224.3218 H   0  0  0  0  0  0  0  0  0  0  0  0
  139.3558   79.2422  223.8178 H   0  0  0  0  0  0  0  0  0  0  0  0
  138.1163   70.6450  222.5559 H   0  0  0  0  0  0  0  0  0  0  0  0
  139.4444   69.4966  222.7786 H   0  0  0  0  0  0  0  0  0  0  0  0
  137.6976   70.5783  225.1098 H   0  0  0  0  0  0  0  0  0  0  0  0
  137.3602   69.0450  224.3373 H   0  0  0  0  0  0  0  0  0  0  0  0
  138.4408   67.1853  225.5304 H   0  0  0  0  0  0  0  0  0  0  0  0
  140.4408   66.3385  226.7707 H   0  0  0  0  0  0  0  0  0  0  0  0
  142.3321   67.8515  227.2152 H   0  0  0  0  0  0  0  0  0  0  0  0
  142.3102   70.2259  226.4485 H   0  0  0  0  0  0  0  0  0  0  0  0
  139.4998   71.9640  225.7002 H   0  0  0  0  0  0  0  0  0  0  0  0
  141.1839   71.9300  225.0804 H   0  0  0  0  0  0  0  0  0  0  0  0
  143.2787   74.8401  219.3409 H   0  0  0  0  0  0  0  0  0  0  0  0
  143.2104   75.3030  221.1108 H   0  0  0  0  0  0  0  0  0  0  0  0
  145.4566   75.3274  219.8347 H   0  0  0  0  0  0  0  0  0  0  0  0
  145.3091   74.6472  221.5226 H   0  0  0  0  0  0  0  0  0  0  0  0
  1  2  1  0
  2  3  1  0
  3  4  1  0
  4  5  1  0
  5  6  1  0
  6  7  2  0
  7  8  1  0
  8  9  1  0
  9 10  1  0
 10 11  1  0
 11 12  1  0
 12 13  1  0
 13 14  2  0
 14 15  1  0
 15 16  2  0
 16 17  1  0
 17 18  2  0
  8 19  2  0
 19 20  1  0
 20 21  1  0
 21 22  1  0
 22 23  1  0
 23 24  1  0
 24 25  2  0
 25 26  1  0
 26 27  2  0
 27 28  1  0
 28 29  2  0
 29 30  1  0
 20 31  2  0
  5 32  1  0
 32 33  1  0
 33  2  1  0
 31  6  1  0
 18 13  1  0
 30 21  1  0
 29 24  1  0
  1 34  1  0
  2 35  1  0
  3 36  1  0
  3 37  1  0
  4 38  1  0
  4 39  1  0
  9 40  1  0
 10 41  1  0
 10 42  1  0
 11 43  1  0
 11 44  1  0
 12 45  1  0
 12 46  1  0
 14 47  1  0
 15 48  1  0
 16 49  1  0
 17 50  1  0
 18 51  1  0
 22 52  1  0
 22 53  1  0
 23 54  1  0
 23 55  1  0
 25 56  1  0
 26 57  1  0
 27 58  1  0
 28 59  1  0
 30 60  1  0
 30 61  1  0
 32 62  1  0
 32 63  1  0
 33 64  1  0
 33 65  1  0
M  END
>  <smiles>  (40) 
OC1CCN(c2nc(NCCCc3ccccc3)nc(N3CCc4ccccc4C3)n2)CC1

>  <score_type>  (40) 
oracle

>  <origin>  (40) 
autodockgpu

>  <m_score__min__energy>  (40) 
-10.68

>  <m_primary>  (40) 
energy

>  <rmsd>  (40) 
11.276871996499386

>  <m_score__min__rmsd>  (40) 
11.276871996499386

>  <meeko>  (40) 
{"free_energy": -10.22, "intermolecular_energy": -12.61, "internal_energy": -1.17, "cluster_size": 50, "cluster_id": 1, "rank_in_cluster": 17}

>  <energy>  (40) 
-9.83

>  <cluster_rmsd>  (40) 
1.22

>  <cluster>  (40) 
1

$$$$

     RDKit          3D

 65 69  0  0  0  0  0  0  0  0999 V2000
  146.1990   72.4650  217.3900 O   0  0  0  0  0  0  0  0  0  0  0  0
  145.3650   73.1600  218.2630 C   0  0  0  0  0  0  0  0  0  0  0  0
  145.1190   72.3750  219.5370 C   0  0  0  0  0  0  0  0  0  0  0  0
  144.3900   73.3510  220.4780 C   0  0  0  0  0  0  0  0  0  0  0  0
  143.0830   73.5670  219.8500 N   0  0  0  0  0  0  0  0  0  0  0  0
  141.9940   74.0270  220.6340 C   0  0  0  0  0  0  0  0  0  0  0  0
  141.0230   73.2120  221.1190 N   0  0  0  0  0  0  0  0  0  0  0  0
  139.9970   73.6760  221.8360 C   0  0  0  0  0  0  0  0  0  0  0  0
  138.9840   72.8800  222.4210 N   0  0  0  0  0  0  0  0  0  0  0  0
  139.0420   71.4560  222.6460 C   0  0  0  0  0  0  0  0  0  0  0  0
  140.2350   71.2180  223.5510 C   0  0  0  0  0  0  0  0  0  0  0  0
  140.0740   70.1060  224.5220 C   0  0  0  0  0  0  0  0  0  0  0  0
  140.3370   70.6130  225.8990 C   0  0  0  0  0  0  0  0  0  0  0  0
  139.8530   70.0140  227.0380 C   0  0  0  0  0  0  0  0  0  0  0  0
  140.1570   70.5940  228.2690 C   0  0  0  0  0  0  0  0  0  0  0  0
  140.9180   71.7340  228.3760 C   0  0  0  0  0  0  0  0  0  0  0  0
  141.4020   72.3350  227.2380 C   0  0  0  0  0  0  0  0  0  0  0  0
  141.0990   71.7570  226.0170 C   0  0  0  0  0  0  0  0  0  0  0  0
  139.9060   75.0140  222.1000 N   0  0  0  0  0  0  0  0  0  0  0  0
  140.8480   75.8470  221.6360 C   0  0  0  0  0  0  0  0  0  0  0  0
  140.7420   77.2340  221.9060 N   0  0  0  0  0  0  0  0  0  0  0  0
  139.6250   77.7110  222.7070 C   0  0  0  0  0  0  0  0  0  0  0  0
  139.4170   79.1820  222.3050 C   0  0  0  0  0  0  0  0  0  0  0  0
  140.6640   79.8520  222.8340 C   0  0  0  0  0  0  0  0  0  0  0  0
  140.6050   80.9130  223.7060 C   0  0  0  0  0  0  0  0  0  0  0  0
  141.8000   81.4350  224.1470 C   0  0  0  0  0  0  0  0  0  0  0  0
  142.9880   80.8900  223.7050 C   0  0  0  0  0  0  0  0  0  0  0  0
  143.0290   79.8130  222.8170 C   0  0  0  0  0  0  0  0  0  0  0  0
  141.8510   79.3000  222.3850 C   0  0  0  0  0  0  0  0  0  0  0  0
  141.7290   78.1530  221.4230 C   0  0  0  0  0  0  0  0  0  0  0  0
  141.8840   75.3530  220.9100 N   0  0  0  0  0  0  0  0  0  0  0  0
  142.8680   73.3320  218.4490 C   0  0  0  0  0  0  0  0  0  0  0  0
  144.0740   73.5750  217.6010 C   0  0  0  0  0  0  0  0  0  0  0  0
  145.6470   72.1470  216.6340 H   0  0  0  0  0  0  0  0  0  0  0  0
  145.8882   74.0858  218.5443 H   0  0  0  0  0  0  0  0  0  0  0  0
  144.4915   71.4949  219.3327 H   0  0  0  0  0  0  0  0  0  0  0  0
  146.0554   72.0016  219.9772 H   0  0  0  0  0  0  0  0  0  0  0  0
  144.2714   72.9096  221.4786 H   0  0  0  0  0  0  0  0  0  0  0  0
  144.9460   74.2901  220.6156 H   0  0  0  0  0  0  0  0  0  0  0  0
  138.1110   73.4330  222.7080 H   0  0  0  0  0  0  0  0  0  0  0  0
  138.1188   71.1092  223.1332 H   0  0  0  0  0  0  0  0  0  0  0  0
  139.1413   70.9047  221.6993 H   0  0  0  0  0  0  0  0  0  0  0  0
  141.1052   70.9938  222.9166 H   0  0  0  0  0  0  0  0  0  0  0  0
  140.3548   72.1335  224.1490 H   0  0  0  0  0  0  0  0  0  0  0  0
  139.0480   69.7136  224.4646 H   0  0  0  0  0  0  0  0  0  0  0  0
  140.7856   69.3019  224.2830 H   0  0  0  0  0  0  0  0  0  0  0  0
  139.2420   69.1012  226.9796 H   0  0  0  0  0  0  0  0  0  0  0  0
  139.7746   70.1230  229.1866 H   0  0  0  0  0  0  0  0  0  0  0  0
  141.1381   72.1623  229.3650 H   0  0  0  0  0  0  0  0  0  0  0  0
  142.0122   73.2484  227.2960 H   0  0  0  0  0  0  0  0  0  0  0  0
  141.4825   72.2305  225.1012 H   0  0  0  0  0  0  0  0  0  0  0  0
  138.7205   77.1235  222.4909 H   0  0  0  0  0  0  0  0  0  0  0  0
  139.8275   77.6108  223.7835 H   0  0  0  0  0  0  0  0  0  0  0  0
  139.3432   79.2878  221.2126 H   0  0  0  0  0  0  0  0  0  0  0  0
  138.4873   79.6153  222.7024 H   0  0  0  0  0  0  0  0  0  0  0  0
  139.6419   81.3281  224.0379 H   0  0  0  0  0  0  0  0  0  0  0  0
  141.8077   82.2824  224.8483 H   0  0  0  0  0  0  0  0  0  0  0  0
  143.9352   81.3185  224.0644 H   0  0  0  0  0  0  0  0  0  0  0  0
  143.9880   79.3937  222.4784 H   0  0  0  0  0  0  0  0  0  0  0  0
  141.4265   78.5319  220.4356 H   0  0  0  0  0  0  0  0  0  0  0  0
  142.6984   77.6406  221.3351 H   0  0  0  0  0  0  0  0  0  0  0  0
  142.5576   72.2850  218.3173 H   0  0  0  0  0  0  0  0  0  0  0  0
  142.0983   74.0459  218.1205 H   0  0  0  0  0  0  0  0  0  0  0  0
  143.9631   73.0065  216.6658 H   0  0  0  0  0  0  0  0  0  0  0  0
  144.1335   74.6590  217.4237 H   0  0  0  0  0  0  0  0  0  0  0  0
  1  2  1  0
  2  3  1  0
  3  4  1  0
  4  5  1  0
  5  6  1  0
  6  7  2  0
  7  8  1  0
  8  9  1  0
  9 10  1  0
 10 11  1  0
 11 12  1  0
 12 13  1  0
 13 14  2  0
 14 15  1  0
 15 16  2  0
 16 17  1  0
 17 18  2  0
  8 19  2  0
 19 20  1  0
 20 21  1  0
 21 22  1  0
 22 23  1  0
 23 24  1  0
 24 25  2  0
 25 26  1  0
 26 27  2  0
 27 28  1  0
 28 29  2  0
 29 30  1  0
 20 31  2  0
  5 32  1  0
 32 33  1  0
 33  2  1  0
 31  6  1  0
 18 13  1  0
 30 21  1  0
 29 24  1  0
  1 34  1  0
  2 35  1  0
  3 36  1  0
  3 37  1  0
  4 38  1  0
  4 39  1  0
  9 40  1  0
 10 41  1  0
 10 42  1  0
 11 43  1  0
 11 44  1  0
 12 45  1  0
 12 46  1  0
 14 47  1  0
 15 48  1  0
 16 49  1  0
 17 50  1  0
 18 51  1  0
 22 52  1  0
 22 53  1  0
 23 54  1  0
 23 55  1  0
 25 56  1  0
 26 57  1  0
 27 58  1  0
 28 59  1  0
 30 60  1  0
 30 61  1  0
 32 62  1  0
 32 63  1  0
 33 64  1  0
 33 65  1  0
M  END
>  <smiles>  (41) 
OC1CCN(c2nc(NCCCc3ccccc3)nc(N3CCc4ccccc4C3)n2)CC1

>  <score_type>  (41) 
oracle

>  <origin>  (41) 
autodockgpu

>  <m_score__min__energy>  (41) 
-10.68

>  <m_primary>  (41) 
energy

>  <rmsd>  (41) 
5.6258020154719866

>  <m_score__min__rmsd>  (41) 
5.6258020154719866

>  <meeko>  (41) 
{"free_energy": -10.32, "intermolecular_energy": -12.7, "internal_energy": -1.05, "cluster_size": 50, "cluster_id": 1, "rank_in_cluster": 10}

>  <energy>  (41) 
-9.82

>  <cluster_rmsd>  (41) 
1.54

>  <cluster>  (41) 
1

$$$$

     RDKit          3D

 65 69  0  0  0  0  0  0  0  0999 V2000
  146.7160   73.3730  219.2510 O   0  0  0  0  0  0  0  0  0  0  0  0
  145.6250   73.1820  220.0960 C   0  0  0  0  0  0  0  0  0  0  0  0
  144.6270   72.2080  219.5000 C   0  0  0  0  0  0  0  0  0  0  0  0
  143.6180   71.9230  220.6260 C   0  0  0  0  0  0  0  0  0  0  0  0
  142.9110   73.1930  220.8230 N   0  0  0  0  0  0  0  0  0  0  0  0
  141.6320   73.1970  221.4360 C   0  0  0  0  0  0  0  0  0  0  0  0
  140.7320   74.2010  221.2820 N   0  0  0  0  0  0  0  0  0  0  0  0
  139.5420   74.1900  221.8900 C   0  0  0  0  0  0  0  0  0  0  0  0
  138.5350   75.1690  221.7300 N   0  0  0  0  0  0  0  0  0  0  0  0
  138.2370   76.2440  222.6440 C   0  0  0  0  0  0  0  0  0  0  0  0
  139.1310   77.4010  222.2440 C   0  0  0  0  0  0  0  0  0  0  0  0
  140.5880   77.1440  222.3790 C   0  0  0  0  0  0  0  0  0  0  0  0
  141.2990   78.4360  222.5920 C   0  0  0  0  0  0  0  0  0  0  0  0
  141.7330   78.8750  223.8210 C   0  0  0  0  0  0  0  0  0  0  0  0
  142.3740   80.1120  223.8920 C   0  0  0  0  0  0  0  0  0  0  0  0
  142.5820   80.8960  222.7820 C   0  0  0  0  0  0  0  0  0  0  0  0
  142.1480   80.4590  221.5520 C   0  0  0  0  0  0  0  0  0  0  0  0
  141.5130   79.2320  221.4840 C   0  0  0  0  0  0  0  0  0  0  0  0
  139.2060   73.1390  222.6970 N   0  0  0  0  0  0  0  0  0  0  0  0
  140.0720   72.1310  222.8710 C   0  0  0  0  0  0  0  0  0  0  0  0
  139.7190   71.0500  223.7170 N   0  0  0  0  0  0  0  0  0  0  0  0
  139.4340   69.7550  223.1190 C   0  0  0  0  0  0  0  0  0  0  0  0
  138.5140   69.0270  224.1150 C   0  0  0  0  0  0  0  0  0  0  0  0
  139.4260   68.7830  225.2960 C   0  0  0  0  0  0  0  0  0  0  0  0
  139.6420   67.5220  225.8000 C   0  0  0  0  0  0  0  0  0  0  0  0
  140.5100   67.4070  226.8620 C   0  0  0  0  0  0  0  0  0  0  0  0
  141.1170   68.5350  227.3730 C   0  0  0  0  0  0  0  0  0  0  0  0
  140.8850   69.8080  226.8490 C   0  0  0  0  0  0  0  0  0  0  0  0
  140.0300   69.9200  225.8030 C   0  0  0  0  0  0  0  0  0  0  0  0
  139.6690   71.2170  225.1380 C   0  0  0  0  0  0  0  0  0  0  0  0
  141.2740   72.1630  222.2420 N   0  0  0  0  0  0  0  0  0  0  0  0
  143.4810   74.4470  220.4150 C   0  0  0  0  0  0  0  0  0  0  0  0
  144.9730   74.4860  220.4840 C   0  0  0  0  0  0  0  0  0  0  0  0
  146.8970   74.3450  219.2100 H   0  0  0  0  0  0  0  0  0  0  0  0
  146.0089   72.7330  221.0239 H   0  0  0  0  0  0  0  0  0  0  0  0
  144.1205   72.6572  218.6330 H   0  0  0  0  0  0  0  0  0  0  0  0
  145.1137   71.2887  219.1423 H   0  0  0  0  0  0  0  0  0  0  0  0
  142.9161   71.1307  220.3265 H   0  0  0  0  0  0  0  0  0  0  0  0
  144.1091   71.5731  221.5460 H   0  0  0  0  0  0  0  0  0  0  0  0
  137.9670   75.0620  220.8260 H   0  0  0  0  0  0  0  0  0  0  0  0
  137.1790   76.5332  222.5602 H   0  0  0  0  0  0  0  0  0  0  0  0
  138.4142   75.9432  223.6871 H   0  0  0  0  0  0  0  0  0  0  0  0
  138.9235   77.6447  221.1916 H   0  0  0  0  0  0  0  0  0  0  0  0
  138.8982   78.2233  222.9366 H   0  0  0  0  0  0  0  0  0  0  0  0
  140.7659   76.4808  223.2384 H   0  0  0  0  0  0  0  0  0  0  0  0
  140.9635   76.6637  221.4634 H   0  0  0  0  0  0  0  0  0  0  0  0
  141.5787   78.2666  224.7244 H   0  0  0  0  0  0  0  0  0  0  0  0
  142.7252   80.4726  224.8701 H   0  0  0  0  0  0  0  0  0  0  0  0
  143.0920   81.8660  222.8768 H   0  0  0  0  0  0  0  0  0  0  0  0
  142.3015   81.0677  220.6487 H   0  0  0  0  0  0  0  0  0  0  0  0
  141.1631   78.8746  220.5043 H   0  0  0  0  0  0  0  0  0  0  0  0
  138.9262   69.8831  222.1517 H   0  0  0  0  0  0  0  0  0  0  0  0
  140.3555   69.1854  222.9281 H   0  0  0  0  0  0  0  0  0  0  0  0
  137.6587   69.6580  224.3985 H   0  0  0  0  0  0  0  0  0  0  0  0
  138.0732   68.1054  223.7073 H   0  0  0  0  0  0  0  0  0  0  0  0
  139.1415   66.6410  225.3719 H   0  0  0  0  0  0  0  0  0  0  0  0
  140.7185   66.4202  227.3010 H   0  0  0  0  0  0  0  0  0  0  0  0
  141.8076   68.4280  228.2225 H   0  0  0  0  0  0  0  0  0  0  0  0
  141.3812   70.6938  227.2723 H   0  0  0  0  0  0  0  0  0  0  0  0
  138.6529   71.5133  225.4377 H   0  0  0  0  0  0  0  0  0  0  0  0
  140.3812   71.9980  225.4426 H   0  0  0  0  0  0  0  0  0  0  0  0
  143.1773   74.6436  219.3762 H   0  0  0  0  0  0  0  0  0  0  0  0
  143.1094   75.2092  221.1157 H   0  0  0  0  0  0  0  0  0  0  0  0
  145.3331   75.2719  219.8037 H   0  0  0  0  0  0  0  0  0  0  0  0
  145.2446   74.6859  221.5310 H   0  0  0  0  0  0  0  0  0  0  0  0
  1  2  1  0
  2  3  1  0
  3  4  1  0
  4  5  1  0
  5  6  1  0
  6  7  2  0
  7  8  1  0
  8  9  1  0
  9 10  1  0
 10 11  1  0
 11 12  1  0
 12 13  1  0
 13 14  2  0
 14 15  1  0
 15 16  2  0
 16 17  1  0
 17 18  2  0
  8 19  2  0
 19 20  1  0
 20 21  1  0
 21 22  1  0
 22 23  1  0
 23 24  1  0
 24 25  2  0
 25 26  1  0
 26 27  2  0
 27 28  1  0
 28 29  2  0
 29 30  1  0
 20 31  2  0
  5 32  1  0
 32 33  1  0
 33  2  1  0
 31  6  1  0
 18 13  1  0
 30 21  1  0
 29 24  1  0
  1 34  1  0
  2 35  1  0
  3 36  1  0
  3 37  1  0
  4 38  1  0
  4 39  1  0
  9 40  1  0
 10 41  1  0
 10 42  1  0
 11 43  1  0
 11 44  1  0
 12 45  1  0
 12 46  1  0
 14 47  1  0
 15 48  1  0
 16 49  1  0
 17 50  1  0
 18 51  1  0
 22 52  1  0
 22 53  1  0
 23 54  1  0
 23 55  1  0
 25 56  1  0
 26 57  1  0
 27 58  1  0
 28 59  1  0
 30 60  1  0
 30 61  1  0
 32 62  1  0
 32 63  1  0
 33 64  1  0
 33 65  1  0
M  END
>  <smiles>  (42) 
OC1CCN(c2nc(NCCCc3ccccc3)nc(N3CCc4ccccc4C3)n2)CC1

>  <score_type>  (42) 
oracle

>  <origin>  (42) 
autodockgpu

>  <m_score__min__energy>  (42) 
-10.68

>  <m_primary>  (42) 
energy

>  <rmsd>  (42) 
11.474163649728121

>  <m_score__min__rmsd>  (42) 
11.474163649728121

>  <meeko>  (42) 
{"free_energy": -10.36, "intermolecular_energy": -12.75, "internal_energy": -1.12, "cluster_size": 50, "cluster_id": 1, "rank_in_cluster": 8}

>  <energy>  (42) 
-9.78

>  <cluster_rmsd>  (42) 
1.6

>  <cluster>  (42) 
1

$$$$

     RDKit          3D

 65 69  0  0  0  0  0  0  0  0999 V2000
  145.9400   71.6210  217.6210 O   0  0  0  0  0  0  0  0  0  0  0  0
  144.9450   71.7520  218.5870 C   0  0  0  0  0  0  0  0  0  0  0  0
  143.5680   71.8310  217.9560 C   0  0  0  0  0  0  0  0  0  0  0  0
  142.5790   71.7370  219.1320 C   0  0  0  0  0  0  0  0  0  0  0  0
  142.7760   72.9800  219.8850 N   0  0  0  0  0  0  0  0  0  0  0  0
  141.7510   73.4510  220.7440 C   0  0  0  0  0  0  0  0  0  0  0  0
  140.8900   72.6320  221.4010 N   0  0  0  0  0  0  0  0  0  0  0  0
  139.9190   73.1040  222.1870 C   0  0  0  0  0  0  0  0  0  0  0  0
  139.0260   72.3110  222.9450 N   0  0  0  0  0  0  0  0  0  0  0  0
  139.2680   70.9700  223.4190 C   0  0  0  0  0  0  0  0  0  0  0  0
  140.6070   71.0050  224.1280 C   0  0  0  0  0  0  0  0  0  0  0  0
  140.5680   71.5340  225.5150 C   0  0  0  0  0  0  0  0  0  0  0  0
  140.4840   70.3960  226.4740 C   0  0  0  0  0  0  0  0  0  0  0  0
  139.9340   70.4950  227.7310 C   0  0  0  0  0  0  0  0  0  0  0  0
  139.9290   69.3600  228.5400 C   0  0  0  0  0  0  0  0  0  0  0  0
  140.4500   68.1580  228.1240 C   0  0  0  0  0  0  0  0  0  0  0  0
  141.0010   68.0560  226.8680 C   0  0  0  0  0  0  0  0  0  0  0  0
  141.0050   69.1850  226.0660 C   0  0  0  0  0  0  0  0  0  0  0  0
  139.7730   74.4530  222.3460 N   0  0  0  0  0  0  0  0  0  0  0  0
  140.6070   75.2900  221.7120 C   0  0  0  0  0  0  0  0  0  0  0  0
  140.4440   76.6880  221.8740 N   0  0  0  0  0  0  0  0  0  0  0  0
  139.2860   77.1800  222.6060 C   0  0  0  0  0  0  0  0  0  0  0  0
  139.0400   78.6090  222.0900 C   0  0  0  0  0  0  0  0  0  0  0  0
  140.2450   79.3630  222.6020 C   0  0  0  0  0  0  0  0  0  0  0  0
  140.1220   80.4810  223.3920 C   0  0  0  0  0  0  0  0  0  0  0  0
  141.2840   81.0790  223.8250 C   0  0  0  0  0  0  0  0  0  0  0  0
  142.5030   80.5480  223.4590 C   0  0  0  0  0  0  0  0  0  0  0  0
  142.6090   79.4110  222.6560 C   0  0  0  0  0  0  0  0  0  0  0  0
  141.4640   78.8230  222.2300 C   0  0  0  0  0  0  0  0  0  0  0  0
  141.4120   77.6050  221.3530 C   0  0  0  0  0  0  0  0  0  0  0  0
  141.5880   74.7890  220.9190 N   0  0  0  0  0  0  0  0  0  0  0  0
  143.9900   73.7420  219.7830 C   0  0  0  0  0  0  0  0  0  0  0  0
  145.2050   72.9150  219.5140 C   0  0  0  0  0  0  0  0  0  0  0  0
  145.4960   71.5300  216.7420 H   0  0  0  0  0  0  0  0  0  0  0  0
  144.9717   70.8428  219.2056 H   0  0  0  0  0  0  0  0  0  0  0  0
  143.4426   72.7844  217.4218 H   0  0  0  0  0  0  0  0  0  0  0  0
  143.4072   71.0307  217.2186 H   0  0  0  0  0  0  0  0  0  0  0  0
  141.5447   71.6661  218.7642 H   0  0  0  0  0  0  0  0  0  0  0  0
  142.7519   70.8440  219.7506 H   0  0  0  0  0  0  0  0  0  0  0  0
  138.0960   72.7980  223.1660 H   0  0  0  0  0  0  0  0  0  0  0  0
  138.4751   70.6639  224.1173 H   0  0  0  0  0  0  0  0  0  0  0  0
  139.2734   70.2475  222.5896 H   0  0  0  0  0  0  0  0  0  0  0  0
  141.0006   69.9785  224.1650 H   0  0  0  0  0  0  0  0  0  0  0  0
  141.2418   71.6952  223.5530 H   0  0  0  0  0  0  0  0  0  0  0  0
  141.4812   72.1145  225.7127 H   0  0  0  0  0  0  0  0  0  0  0  0
  139.6892   72.1842  225.6368 H   0  0  0  0  0  0  0  0  0  0  0  0
  139.5094   71.4448  228.0882 H   0  0  0  0  0  0  0  0  0  0  0  0
  139.4925   69.4286  229.5474 H   0  0  0  0  0  0  0  0  0  0  0  0
  140.4264   67.2836  228.7910 H   0  0  0  0  0  0  0  0  0  0  0  0
  141.4258   67.1061  226.5112 H   0  0  0  0  0  0  0  0  0  0  0  0
  141.4428   69.1133  225.0594 H   0  0  0  0  0  0  0  0  0  0  0  0
  138.4097   76.5452  222.4082 H   0  0  0  0  0  0  0  0  0  0  0  0
  139.4577   77.1658  223.6924 H   0  0  0  0  0  0  0  0  0  0  0  0
  138.9964   78.6312  220.9911 H   0  0  0  0  0  0  0  0  0  0  0  0
  138.0840   79.0352  222.4284 H   0  0  0  0  0  0  0  0  0  0  0  0
  139.1352   80.8817  223.6671 H   0  0  0  0  0  0  0  0  0  0  0  0
  141.2403   81.9762  224.4599 H   0  0  0  0  0  0  0  0  0  0  0  0
  143.4230   81.0370  223.8118 H   0  0  0  0  0  0  0  0  0  0  0  0
  143.5923   79.0042  222.3772 H   0  0  0  0  0  0  0  0  0  0  0  0
  141.1273   77.8992  220.3320 H   0  0  0  0  0  0  0  0  0  0  0  0
  142.4010   77.1240  221.3313 H   0  0  0  0  0  0  0  0  0  0  0  0
  143.8760   74.4664  218.9631 H   0  0  0  0  0  0  0  0  0  0  0  0
  144.1444   74.2272  220.7580 H   0  0  0  0  0  0  0  0  0  0  0  0
  145.9716   73.5592  219.0588 H   0  0  0  0  0  0  0  0  0  0  0  0
  145.5326   72.4961  220.4769 H   0  0  0  0  0  0  0  0  0  0  0  0
  1  2  1  0
  2  3  1  0
  3  4  1  0
  4  5  1  0
  5  6  1  0
  6  7  2  0
  7  8  1  0
  8  9  1  0
  9 10  1  0
 10 11  1  0
 11 12  1  0
 12 13  1  0
 13 14  2  0
 14 15  1  0
 15 16  2  0
 16 17  1  0
 17 18  2  0
  8 19  2  0
 19 20  1  0
 20 21  1  0
 21 22  1  0
 22 23  1  0
 23 24  1  0
 24 25  2  0
 25 26  1  0
 26 27  2  0
 27 28  1  0
 28 29  2  0
 29 30  1  0
 20 31  2  0
  5 32  1  0
 32 33  1  0
 33  2  1  0
 31  6  1  0
 18 13  1  0
 30 21  1  0
 29 24  1  0
  1 34  1  0
  2 35  1  0
  3 36  1  0
  3 37  1  0
  4 38  1  0
  4 39  1  0
  9 40  1  0
 10 41  1  0
 10 42  1  0
 11 43  1  0
 11 44  1  0
 12 45  1  0
 12 46  1  0
 14 47  1  0
 15 48  1  0
 16 49  1  0
 17 50  1  0
 18 51  1  0
 22 52  1  0
 22 53  1  0
 23 54  1  0
 23 55  1  0
 25 56  1  0
 26 57  1  0
 27 58  1  0
 28 59  1  0
 30 60  1  0
 30 61  1  0
 32 62  1  0
 32 63  1  0
 33 64  1  0
 33 65  1  0
M  END
>  <smiles>  (43) 
OC1CCN(c2nc(NCCCc3ccccc3)nc(N3CCc4ccccc4C3)n2)CC1

>  <score_type>  (43) 
oracle

>  <origin>  (43) 
autodockgpu

>  <m_score__min__energy>  (43) 
-10.68

>  <m_primary>  (43) 
energy

>  <rmsd>  (43) 
5.323975252461164

>  <m_score__min__rmsd>  (43) 
5.323975252461164

>  <meeko>  (43) 
{"free_energy": -9.96, "intermolecular_energy": -12.35, "internal_energy": -1.06, "cluster_size": 50, "cluster_id": 1, "rank_in_cluster": 36}

>  <energy>  (43) 
-9.76

>  <cluster_rmsd>  (43) 
1.63

>  <cluster>  (43) 
1

$$$$

     RDKit          3D

 65 69  0  0  0  0  0  0  0  0999 V2000
  146.2980   71.2670  219.2240 O   0  0  0  0  0  0  0  0  0  0  0  0
  145.1290   71.9960  219.4270 C   0  0  0  0  0  0  0  0  0  0  0  0
  145.3090   73.0400  220.5130 C   0  0  0  0  0  0  0  0  0  0  0  0
  144.0360   73.9030  220.4590 C   0  0  0  0  0  0  0  0  0  0  0  0
  142.9600   73.0080  220.9000 N   0  0  0  0  0  0  0  0  0  0  0  0
  141.7550   73.5560  221.4080 C   0  0  0  0  0  0  0  0  0  0  0  0
  140.6910   72.8030  221.7860 N   0  0  0  0  0  0  0  0  0  0  0  0
  139.5590   73.3470  222.2410 C   0  0  0  0  0  0  0  0  0  0  0  0
  138.4370   72.6240  222.7060 N   0  0  0  0  0  0  0  0  0  0  0  0
  138.2430   71.1980  222.6160 C   0  0  0  0  0  0  0  0  0  0  0  0
  138.5210   70.6430  223.9990 C   0  0  0  0  0  0  0  0  0  0  0  0
  139.9400   70.2890  224.2590 C   0  0  0  0  0  0  0  0  0  0  0  0
  140.2880   70.6490  225.6630 C   0  0  0  0  0  0  0  0  0  0  0  0
  139.9080   69.9090  226.7580 C   0  0  0  0  0  0  0  0  0  0  0  0
  140.2840   70.3590  228.0230 C   0  0  0  0  0  0  0  0  0  0  0  0
  141.0170   71.5080  228.2060 C   0  0  0  0  0  0  0  0  0  0  0  0
  141.3980   72.2500  227.1130 C   0  0  0  0  0  0  0  0  0  0  0  0
  141.0230   71.8010  225.8580 C   0  0  0  0  0  0  0  0  0  0  0  0
  139.4520   74.7060  222.3330 N   0  0  0  0  0  0  0  0  0  0  0  0
  140.4840   75.4800  221.9680 C   0  0  0  0  0  0  0  0  0  0  0  0
  140.3620   76.8890  222.0580 N   0  0  0  0  0  0  0  0  0  0  0  0
  139.1980   77.4520  222.7250 C   0  0  0  0  0  0  0  0  0  0  0  0
  139.0160   78.8610  222.1330 C   0  0  0  0  0  0  0  0  0  0  0  0
  140.2280   79.6000  222.6520 C   0  0  0  0  0  0  0  0  0  0  0  0
  140.1160   80.7590  223.3820 C   0  0  0  0  0  0  0  0  0  0  0  0
  141.2820   81.3400  223.8280 C   0  0  0  0  0  0  0  0  0  0  0  0
  142.4940   80.7540  223.5310 C   0  0  0  0  0  0  0  0  0  0  0  0
  142.5900   79.5760  222.7860 C   0  0  0  0  0  0  0  0  0  0  0  0
  141.4410   79.0050  222.3480 C   0  0  0  0  0  0  0  0  0  0  0  0
  141.3780   77.7490  221.5290 C   0  0  0  0  0  0  0  0  0  0  0  0
  141.6260   74.9050  221.5110 N   0  0  0  0  0  0  0  0  0  0  0  0
  143.0880   71.5800  220.8270 C   0  0  0  0  0  0  0  0  0  0  0  0
  143.9430   71.1030  219.6990 C   0  0  0  0  0  0  0  0  0  0  0  0
  146.6330   70.9840  220.1100 H   0  0  0  0  0  0  0  0  0  0  0  0
  144.9137   72.5296  218.4895 H   0  0  0  0  0  0  0  0  0  0  0  0
  145.4075   72.5593  221.4975 H   0  0  0  0  0  0  0  0  0  0  0  0
  146.2185   73.6394  220.3600 H   0  0  0  0  0  0  0  0  0  0  0  0
  144.1238   74.7664  221.1349 H   0  0  0  0  0  0  0  0  0  0  0  0
  143.8522   74.3110  219.4541 H   0  0  0  0  0  0  0  0  0  0  0  0
  137.6860   73.2390  223.1640 H   0  0  0  0  0  0  0  0  0  0  0  0
  137.2091   70.9724  222.3158 H   0  0  0  0  0  0  0  0  0  0  0  0
  138.9095   70.7504  221.8640 H   0  0  0  0  0  0  0  0  0  0  0  0
  138.2169   71.3992  224.7377 H   0  0  0  0  0  0  0  0  0  0  0  0
  137.9510   69.7052  224.0746 H   0  0  0  0  0  0  0  0  0  0  0  0
  140.0823   69.2084  224.1107 H   0  0  0  0  0  0  0  0  0  0  0  0
  140.5907   70.8410  223.5648 H   0  0  0  0  0  0  0  0  0  0  0  0
  139.3223   68.9855  226.6389 H   0  0  0  0  0  0  0  0  0  0  0  0
  139.9838   69.7746  228.9053 H   0  0  0  0  0  0  0  0  0  0  0  0
  141.2965   71.8312  229.2196 H   0  0  0  0  0  0  0  0  0  0  0  0
  141.9837   73.1735  227.2321 H   0  0  0  0  0  0  0  0  0  0  0  0
  141.3240   72.3881  224.9778 H   0  0  0  0  0  0  0  0  0  0  0  0
  138.3083   76.8359  222.5279 H   0  0  0  0  0  0  0  0  0  0  0  0
  139.3336   77.4857  223.8161 H   0  0  0  0  0  0  0  0  0  0  0  0
  139.0106   78.8313  221.0334 H   0  0  0  0  0  0  0  0  0  0  0  0
  138.0635   79.3330  222.4157 H   0  0  0  0  0  0  0  0  0  0  0  0
  139.1345   81.2046  223.6012 H   0  0  0  0  0  0  0  0  0  0  0  0
  141.2466   82.2674  224.4185 H   0  0  0  0  0  0  0  0  0  0  0  0
  143.4171   81.2302  223.8930 H   0  0  0  0  0  0  0  0  0  0  0  0
  143.5681   79.1255  222.5616 H   0  0  0  0  0  0  0  0  0  0  0  0
  141.1383   78.0023  220.4857 H   0  0  0  0  0  0  0  0  0  0  0  0
  142.3505   77.2362  221.5657 H   0  0  0  0  0  0  0  0  0  0  0  0
  143.5289   71.2237  221.7697 H   0  0  0  0  0  0  0  0  0  0  0  0
  142.0787   71.1788  220.6527 H   0  0  0  0  0  0  0  0  0  0  0  0
  144.3132   70.0964  219.9435 H   0  0  0  0  0  0  0  0  0  0  0  0
  143.3184   71.1076  218.7935 H   0  0  0  0  0  0  0  0  0  0  0  0
  1  2  1  0
  2  3  1  0
  3  4  1  0
  4  5  1  0
  5  6  1  0
  6  7  2  0
  7  8  1  0
  8  9  1  0
  9 10  1  0
 10 11  1  0
 11 12  1  0
 12 13  1  0
 13 14  2  0
 14 15  1  0
 15 16  2  0
 16 17  1  0
 17 18  2  0
  8 19  2  0
 19 20  1  0
 20 21  1  0
 21 22  1  0
 22 23  1  0
 23 24  1  0
 24 25  2  0
 25 26  1  0
 26 27  2  0
 27 28  1  0
 28 29  2  0
 29 30  1  0
 20 31  2  0
  5 32  1  0
 32 33  1  0
 33  2  1  0
 31  6  1  0
 18 13  1  0
 30 21  1  0
 29 24  1  0
  1 34  1  0
  2 35  1  0
  3 36  1  0
  3 37  1  0
  4 38  1  0
  4 39  1  0
  9 40  1  0
 10 41  1  0
 10 42  1  0
 11 43  1  0
 11 44  1  0
 12 45  1  0
 12 46  1  0
 14 47  1  0
 15 48  1  0
 16 49  1  0
 17 50  1  0
 18 51  1  0
 22 52  1  0
 22 53  1  0
 23 54  1  0
 23 55  1  0
 25 56  1  0
 26 57  1  0
 27 58  1  0
 28 59  1  0
 30 60  1  0
 30 61  1  0
 32 62  1  0
 32 63  1  0
 33 64  1  0
 33 65  1  0
M  END
>  <smiles>  (44) 
OC1CCN(c2nc(NCCCc3ccccc3)nc(N3CCc4ccccc4C3)n2)CC1

>  <score_type>  (44) 
oracle

>  <origin>  (44) 
autodockgpu

>  <m_score__min__energy>  (44) 
-10.68

>  <m_primary>  (44) 
energy

>  <rmsd>  (44) 
5.407503108566802

>  <m_score__min__rmsd>  (44) 
5.407503108566802

>  <meeko>  (44) 
{"free_energy": -10.68, "intermolecular_energy": -13.07, "internal_energy": -1.27, "cluster_size": 50, "cluster_id": 1, "rank_in_cluster": 1}

>  <energy>  (44) 
-9.75

>  <cluster_rmsd>  (44) 
1.39

>  <cluster>  (44) 
1

$$$$

     RDKit          3D

 65 69  0  0  0  0  0  0  0  0999 V2000
  146.2720   71.4200  218.9730 O   0  0  0  0  0  0  0  0  0  0  0  0
  145.1590   71.6870  219.7670 C   0  0  0  0  0  0  0  0  0  0  0  0
  143.8690   71.5180  218.9870 C   0  0  0  0  0  0  0  0  0  0  0  0
  142.7470   71.6130  220.0360 C   0  0  0  0  0  0  0  0  0  0  0  0
  142.7880   73.0040  220.4990 N   0  0  0  0  0  0  0  0  0  0  0  0
  141.6410   73.5750  221.1090 C   0  0  0  0  0  0  0  0  0  0  0  0
  140.5750   72.8470  221.5270 N   0  0  0  0  0  0  0  0  0  0  0  0
  139.4980   73.4140  222.0780 C   0  0  0  0  0  0  0  0  0  0  0  0
  138.3800   72.7150  222.5880 N   0  0  0  0  0  0  0  0  0  0  0  0
  138.2660   71.2850  222.7440 C   0  0  0  0  0  0  0  0  0  0  0  0
  138.4240   71.0070  224.2260 C   0  0  0  0  0  0  0  0  0  0  0  0
  139.6190   70.2040  224.5890 C   0  0  0  0  0  0  0  0  0  0  0  0
  140.1940   70.7250  225.8620 C   0  0  0  0  0  0  0  0  0  0  0  0
  140.9340   71.8810  225.9500 C   0  0  0  0  0  0  0  0  0  0  0  0
  141.4300   72.2540  227.1980 C   0  0  0  0  0  0  0  0  0  0  0  0
  141.2030   71.5100  228.3320 C   0  0  0  0  0  0  0  0  0  0  0  0
  140.4650   70.3530  228.2470 C   0  0  0  0  0  0  0  0  0  0  0  0
  139.9730   69.9850  227.0060 C   0  0  0  0  0  0  0  0  0  0  0  0
  139.4530   74.7710  222.2320 N   0  0  0  0  0  0  0  0  0  0  0  0
  140.4890   75.5200  221.8300 C   0  0  0  0  0  0  0  0  0  0  0  0
  140.4310   76.9270  221.9850 N   0  0  0  0  0  0  0  0  0  0  0  0
  139.3200   77.5070  222.7250 C   0  0  0  0  0  0  0  0  0  0  0  0
  139.1740   78.9470  222.2020 C   0  0  0  0  0  0  0  0  0  0  0  0
  140.4370   79.6130  222.6970 C   0  0  0  0  0  0  0  0  0  0  0  0
  140.4040   80.7420  223.4800 C   0  0  0  0  0  0  0  0  0  0  0  0
  141.6110   81.2550  223.8990 C   0  0  0  0  0  0  0  0  0  0  0  0
  142.7840   80.6340  223.5250 C   0  0  0  0  0  0  0  0  0  0  0  0
  142.7980   79.4880  222.7270 C   0  0  0  0  0  0  0  0  0  0  0  0
  141.6090   78.9840  222.3160 C   0  0  0  0  0  0  0  0  0  0  0  0
  141.4590   77.7680  221.4480 C   0  0  0  0  0  0  0  0  0  0  0  0
  141.5740   74.9230  221.2740 N   0  0  0  0  0  0  0  0  0  0  0  0
  143.9660   73.8140  220.3600 C   0  0  0  0  0  0  0  0  0  0  0  0
  145.2440   73.0430  220.4240 C   0  0  0  0  0  0  0  0  0  0  0  0
  146.0790   70.6040  218.4490 H   0  0  0  0  0  0  0  0  0  0  0  0
  145.1529   70.9433  220.5774 H   0  0  0  0  0  0  0  0  0  0  0  0
  143.7644   72.3160  218.2371 H   0  0  0  0  0  0  0  0  0  0  0  0
  143.8411   70.5635  218.4409 H   0  0  0  0  0  0  0  0  0  0  0  0
  141.7714   71.3835  219.5826 H   0  0  0  0  0  0  0  0  0  0  0  0
  142.8843   70.8960  220.8588 H   0  0  0  0  0  0  0  0  0  0  0  0
  137.5650   73.3520  222.8740 H   0  0  0  0  0  0  0  0  0  0  0  0
  137.2816   70.9406  222.3943 H   0  0  0  0  0  0  0  0  0  0  0  0
  139.0281   70.7554  222.1535 H   0  0  0  0  0  0  0  0  0  0  0  0
  138.4895   71.9723  224.7494 H   0  0  0  0  0  0  0  0  0  0  0  0
  137.5496   70.4087  224.5219 H   0  0  0  0  0  0  0  0  0  0  0  0
  139.3283   69.1513  224.7207 H   0  0  0  0  0  0  0  0  0  0  0  0
  140.3696   70.2773  223.7882 H   0  0  0  0  0  0  0  0  0  0  0  0
  141.1293   72.4952  225.0586 H   0  0  0  0  0  0  0  0  0  0  0  0
  142.0241   73.1762  227.2787 H   0  0  0  0  0  0  0  0  0  0  0  0
  141.6090   71.8382  229.3002 H   0  0  0  0  0  0  0  0  0  0  0  0
  140.2712   69.7380  229.1382 H   0  0  0  0  0  0  0  0  0  0  0  0
  139.3797   69.0620  226.9284 H   0  0  0  0  0  0  0  0  0  0  0  0
  138.3975   76.9370  222.5402 H   0  0  0  0  0  0  0  0  0  0  0  0
  139.5016   77.4867  223.8097 H   0  0  0  0  0  0  0  0  0  0  0  0
  139.1205   78.9660  221.1035 H   0  0  0  0  0  0  0  0  0  0  0  0
  138.2555   79.4445  222.5469 H   0  0  0  0  0  0  0  0  0  0  0  0
  139.4520   81.2164  223.7605 H   0  0  0  0  0  0  0  0  0  0  0  0
  141.6395   82.1561  224.5292 H   0  0  0  0  0  0  0  0  0  0  0  0
  143.7409   81.0555  223.8667 H   0  0  0  0  0  0  0  0  0  0  0  0
  143.7458   79.0087  222.4406 H   0  0  0  0  0  0  0  0  0  0  0  0
  141.1862   78.0761  220.4279 H   0  0  0  0  0  0  0  0  0  0  0  0
  142.4098   77.2156  221.4200 H   0  0  0  0  0  0  0  0  0  0  0  0
  143.9201   74.3276  219.3884 H   0  0  0  0  0  0  0  0  0  0  0  0
  143.9733   74.5137  221.2087 H   0  0  0  0  0  0  0  0  0  0  0  0
  146.0288   73.6262  219.9199 H   0  0  0  0  0  0  0  0  0  0  0  0
  145.4693   72.8752  221.4875 H   0  0  0  0  0  0  0  0  0  0  0  0
  1  2  1  0
  2  3  1  0
  3  4  1  0
  4  5  1  0
  5  6  1  0
  6  7  2  0
  7  8  1  0
  8  9  1  0
  9 10  1  0
 10 11  1  0
 11 12  1  0
 12 13  1  0
 13 14  2  0
 14 15  1  0
 15 16  2  0
 16 17  1  0
 17 18  2  0
  8 19  2  0
 19 20  1  0
 20 21  1  0
 21 22  1  0
 22 23  1  0
 23 24  1  0
 24 25  2  0
 25 26  1  0
 26 27  2  0
 27 28  1  0
 28 29  2  0
 29 30  1  0
 20 31  2  0
  5 32  1  0
 32 33  1  0
 33  2  1  0
 31  6  1  0
 18 13  1  0
 30 21  1  0
 29 24  1  0
  1 34  1  0
  2 35  1  0
  3 36  1  0
  3 37  1  0
  4 38  1  0
  4 39  1  0
  9 40  1  0
 10 41  1  0
 10 42  1  0
 11 43  1  0
 11 44  1  0
 12 45  1  0
 12 46  1  0
 14 47  1  0
 15 48  1  0
 16 49  1  0
 17 50  1  0
 18 51  1  0
 22 52  1  0
 22 53  1  0
 23 54  1  0
 23 55  1  0
 25 56  1  0
 26 57  1  0
 27 58  1  0
 28 59  1  0
 30 60  1  0
 30 61  1  0
 32 62  1  0
 32 63  1  0
 33 64  1  0
 33 65  1  0
M  END
>  <smiles>  (45) 
OC1CCN(c2nc(NCCCc3ccccc3)nc(N3CCc4ccccc4C3)n2)CC1

>  <score_type>  (45) 
oracle

>  <origin>  (45) 
autodockgpu

>  <m_score__min__energy>  (45) 
-10.68

>  <m_primary>  (45) 
energy

>  <rmsd>  (45) 
5.471592525653103

>  <m_score__min__rmsd>  (45) 
5.471592525653103

>  <meeko>  (45) 
{"free_energy": -10.24, "intermolecular_energy": -12.63, "internal_energy": -1.15, "cluster_size": 50, "cluster_id": 1, "rank_in_cluster": 14}

>  <energy>  (45) 
-9.72

>  <cluster_rmsd>  (45) 
1.47

>  <cluster>  (45) 
1

$$$$

     RDKit          3D

 65 69  0  0  0  0  0  0  0  0999 V2000
  146.6590   73.0550  219.4360 O   0  0  0  0  0  0  0  0  0  0  0  0
  145.5020   73.0610  220.2110 C   0  0  0  0  0  0  0  0  0  0  0  0
  144.4360   72.1580  219.6210 C   0  0  0  0  0  0  0  0  0  0  0  0
  143.3300   72.0870  220.6900 C   0  0  0  0  0  0  0  0  0  0  0  0
  142.7680   73.4410  220.7340 N   0  0  0  0  0  0  0  0  0  0  0  0
  141.4620   73.6420  221.2500 C   0  0  0  0  0  0  0  0  0  0  0  0
  140.6050   72.6290  221.5350 N   0  0  0  0  0  0  0  0  0  0  0  0
  139.3720   72.8480  221.9990 C   0  0  0  0  0  0  0  0  0  0  0  0
  138.4500   71.8430  222.3710 N   0  0  0  0  0  0  0  0  0  0  0  0
  138.5870   70.9260  223.4770 C   0  0  0  0  0  0  0  0  0  0  0  0
  140.0750   70.6970  223.6560 C   0  0  0  0  0  0  0  0  0  0  0  0
  140.7260   71.5690  224.6660 C   0  0  0  0  0  0  0  0  0  0  0  0
  140.7780   70.8540  225.9730 C   0  0  0  0  0  0  0  0  0  0  0  0
  140.9730   71.4830  227.1800 C   0  0  0  0  0  0  0  0  0  0  0  0
  141.0170   70.7000  228.3330 C   0  0  0  0  0  0  0  0  0  0  0  0
  140.8730   69.3340  228.2990 C   0  0  0  0  0  0  0  0  0  0  0  0
  140.6790   68.7020  227.0930 C   0  0  0  0  0  0  0  0  0  0  0  0
  140.6350   69.4810  225.9500 C   0  0  0  0  0  0  0  0  0  0  0  0
  138.9430   74.1300  222.1980 N   0  0  0  0  0  0  0  0  0  0  0  0
  139.7640   75.1540  221.9270 C   0  0  0  0  0  0  0  0  0  0  0  0
  139.3090   76.4810  222.1280 N   0  0  0  0  0  0  0  0  0  0  0  0
  138.0720   76.6960  222.8640 C   0  0  0  0  0  0  0  0  0  0  0  0
  137.5300   78.0550  222.3860 C   0  0  0  0  0  0  0  0  0  0  0  0
  138.5480   79.0310  222.9300 C   0  0  0  0  0  0  0  0  0  0  0  0
  138.1900   80.0750  223.7490 C   0  0  0  0  0  0  0  0  0  0  0  0
  139.1980   80.8910  224.2090 C   0  0  0  0  0  0  0  0  0  0  0  0
  140.5030   80.6410  223.8380 C   0  0  0  0  0  0  0  0  0  0  0  0
  140.8490   79.5760  223.0040 C   0  0  0  0  0  0  0  0  0  0  0  0
  139.8540   78.7720  222.5520 C   0  0  0  0  0  0  0  0  0  0  0  0
  140.0630   77.5970  221.6410 C   0  0  0  0  0  0  0  0  0  0  0  0
  141.0140   74.9080  221.4580 N   0  0  0  0  0  0  0  0  0  0  0  0
  143.5070   74.5830  220.2730 C   0  0  0  0  0  0  0  0  0  0  0  0
  144.9860   74.4600  220.4470 C   0  0  0  0  0  0  0  0  0  0  0  0
  146.7280   73.9360  218.9910 H   0  0  0  0  0  0  0  0  0  0  0  0
  145.7692   72.6526  221.1968 H   0  0  0  0  0  0  0  0  0  0  0  0
  144.0426   72.5851  218.6867 H   0  0  0  0  0  0  0  0  0  0  0  0
  144.8321   71.1623  219.3726 H   0  0  0  0  0  0  0  0  0  0  0  0
  142.5595   71.3562  220.4032 H   0  0  0  0  0  0  0  0  0  0  0  0
  143.7164   71.7645  221.6681 H   0  0  0  0  0  0  0  0  0  0  0  0
  137.5820   71.7980  221.7420 H   0  0  0  0  0  0  0  0  0  0  0  0
  138.1561   71.3628  224.3899 H   0  0  0  0  0  0  0  0  0  0  0  0
  138.0571   69.9819  223.2824 H   0  0  0  0  0  0  0  0  0  0  0  0
  140.2252   69.6507  223.9606 H   0  0  0  0  0  0  0  0  0  0  0  0
  140.5425   70.9417  222.6908 H   0  0  0  0  0  0  0  0  0  0  0  0
  141.7478   71.8112  224.3386 H   0  0  0  0  0  0  0  0  0  0  0  0
  140.1491   72.4990  224.7771 H   0  0  0  0  0  0  0  0  0  0  0  0
  141.0912   72.5753  227.2346 H   0  0  0  0  0  0  0  0  0  0  0  0
  141.1724   71.1932  229.3038 H   0  0  0  0  0  0  0  0  0  0  0  0
  140.9126   68.7498  229.2302 H   0  0  0  0  0  0  0  0  0  0  0  0
  140.5623   67.6096  227.0385 H   0  0  0  0  0  0  0  0  0  0  0  0
  140.4793   68.9846  224.9808 H   0  0  0  0  0  0  0  0  0  0  0  0
  137.3502   75.8962  222.6418 H   0  0  0  0  0  0  0  0  0  0  0  0
  138.2410   76.6873  223.9509 H   0  0  0  0  0  0  0  0  0  0  0  0
  137.4854   78.0998  221.2878 H   0  0  0  0  0  0  0  0  0  0  0  0
  136.5045   78.2596  222.7274 H   0  0  0  0  0  0  0  0  0  0  0  0
  137.1400   80.2512  224.0256 H   0  0  0  0  0  0  0  0  0  0  0  0
  138.9643   81.7389  224.8696 H   0  0  0  0  0  0  0  0  0  0  0  0
  141.2979   81.3031  224.2119 H   0  0  0  0  0  0  0  0  0  0  0  0
  141.8966   79.3943  222.7220 H   0  0  0  0  0  0  0  0  0  0  0  0
  139.7252   77.8541  220.6262 H   0  0  0  0  0  0  0  0  0  0  0  0
  141.1314   77.3366  221.6143 H   0  0  0  0  0  0  0  0  0  0  0  0
  143.2950   74.7233  219.2028 H   0  0  0  0  0  0  0  0  0  0  0  0
  143.1845   75.4389  220.8841 H   0  0  0  0  0  0  0  0  0  0  0  0
  145.4787   75.1384  219.7349 H   0  0  0  0  0  0  0  0  0  0  0  0
  145.2132   74.7185  221.4918 H   0  0  0  0  0  0  0  0  0  0  0  0
  1  2  1  0
  2  3  1  0
  3  4  1  0
  4  5  1  0
  5  6  1  0
  6  7  2  0
  7  8  1  0
  8  9  1  0
  9 10  1  0
 10 11  1  0
 11 12  1  0
 12 13  1  0
 13 14  2  0
 14 15  1  0
 15 16  2  0
 16 17  1  0
 17 18  2  0
  8 19  2  0
 19 20  1  0
 20 21  1  0
 21 22  1  0
 22 23  1  0
 23 24  1  0
 24 25  2  0
 25 26  1  0
 26 27  2  0
 27 28  1  0
 28 29  2  0
 29 30  1  0
 20 31  2  0
  5 32  1  0
 32 33  1  0
 33  2  1  0
 31  6  1  0
 18 13  1  0
 30 21  1  0
 29 24  1  0
  1 34  1  0
  2 35  1  0
  3 36  1  0
  3 37  1  0
  4 38  1  0
  4 39  1  0
  9 40  1  0
 10 41  1  0
 10 42  1  0
 11 43  1  0
 11 44  1  0
 12 45  1  0
 12 46  1  0
 14 47  1  0
 15 48  1  0
 16 49  1  0
 17 50  1  0
 18 51  1  0
 22 52  1  0
 22 53  1  0
 23 54  1  0
 23 55  1  0
 25 56  1  0
 26 57  1  0
 27 58  1  0
 28 59  1  0
 30 60  1  0
 30 61  1  0
 32 62  1  0
 32 63  1  0
 33 64  1  0
 33 65  1  0
M  END
>  <smiles>  (46) 
OC1CCN(c2nc(NCCCc3ccccc3)nc(N3CCc4ccccc4C3)n2)CC1

>  <score_type>  (46) 
oracle

>  <origin>  (46) 
autodockgpu

>  <m_score__min__energy>  (46) 
-10.68

>  <m_primary>  (46) 
energy

>  <rmsd>  (46) 
5.485681078892813

>  <m_score__min__rmsd>  (46) 
5.485681078892813

>  <meeko>  (46) 
{"free_energy": -9.83, "intermolecular_energy": -12.22, "internal_energy": -1.15, "cluster_size": 50, "cluster_id": 1, "rank_in_cluster": 40}

>  <energy>  (46) 
-9.69

>  <cluster_rmsd>  (46) 
1.54

>  <cluster>  (46) 
1

$$$$

     RDKit          3D

 65 69  0  0  0  0  0  0  0  0999 V2000
  146.3160   73.1260  218.7170 O   0  0  0  0  0  0  0  0  0  0  0  0
  144.9850   73.3150  219.0800 C   0  0  0  0  0  0  0  0  0  0  0  0
  144.8650   74.1890  220.3130 C   0  0  0  0  0  0  0  0  0  0  0  0
  143.3630   74.4940  220.4470 C   0  0  0  0  0  0  0  0  0  0  0  0
  142.7490   73.2040  220.7780 N   0  0  0  0  0  0  0  0  0  0  0  0
  141.4820   73.1710  221.4130 C   0  0  0  0  0  0  0  0  0  0  0  0
  140.5540   74.1540  221.2860 N   0  0  0  0  0  0  0  0  0  0  0  0
  139.3770   74.1080  221.9140 C   0  0  0  0  0  0  0  0  0  0  0  0
  138.3440   75.0650  221.7810 N   0  0  0  0  0  0  0  0  0  0  0  0
  138.4090   76.4520  222.1730 C   0  0  0  0  0  0  0  0  0  0  0  0
  139.7100   76.9900  221.6090 C   0  0  0  0  0  0  0  0  0  0  0  0
  140.8460   77.0120  222.5640 C   0  0  0  0  0  0  0  0  0  0  0  0
  141.4420   78.3780  222.5900 C   0  0  0  0  0  0  0  0  0  0  0  0
  141.6390   79.1460  221.4670 C   0  0  0  0  0  0  0  0  0  0  0  0
  142.2210   80.4040  221.6200 C   0  0  0  0  0  0  0  0  0  0  0  0
  142.5980   80.8940  222.8490 C   0  0  0  0  0  0  0  0  0  0  0  0
  142.4020   80.1280  223.9730 C   0  0  0  0  0  0  0  0  0  0  0  0
  141.8240   78.8790  223.8180 C   0  0  0  0  0  0  0  0  0  0  0  0
  139.0800   73.0430  222.7170 N   0  0  0  0  0  0  0  0  0  0  0  0
  139.9740   72.0540  222.8650 C   0  0  0  0  0  0  0  0  0  0  0  0
  139.6620   70.9570  223.7060 N   0  0  0  0  0  0  0  0  0  0  0  0
  139.5050   69.6380  223.1110 C   0  0  0  0  0  0  0  0  0  0  0  0
  138.5950   68.8510  224.0700 C   0  0  0  0  0  0  0  0  0  0  0  0
  139.4630   68.6870  225.2960 C   0  0  0  0  0  0  0  0  0  0  0  0
  139.7490   67.4510  225.8250 C   0  0  0  0  0  0  0  0  0  0  0  0
  140.5700   67.4110  226.9300 C   0  0  0  0  0  0  0  0  0  0  0  0
  141.0640   68.5860  227.4560 C   0  0  0  0  0  0  0  0  0  0  0  0
  140.7630   69.8340  226.9060 C   0  0  0  0  0  0  0  0  0  0  0  0
  139.9540   69.8710  225.8180 C   0  0  0  0  0  0  0  0  0  0  0  0
  139.5300   71.1320  225.1210 C   0  0  0  0  0  0  0  0  0  0  0  0
  141.1630   72.1210  222.2150 N   0  0  0  0  0  0  0  0  0  0  0  0
  143.3940   71.9580  220.4690 C   0  0  0  0  0  0  0  0  0  0  0  0
  144.2530   72.0050  219.2470 C   0  0  0  0  0  0  0  0  0  0  0  0
  146.7390   74.0170  218.6520 H   0  0  0  0  0  0  0  0  0  0  0  0
  144.4955   73.8482  218.2517 H   0  0  0  0  0  0  0  0  0  0  0  0
  145.2308   73.6542  221.2019 H   0  0  0  0  0  0  0  0  0  0  0  0
  145.4647   75.1071  220.2260 H   0  0  0  0  0  0  0  0  0  0  0  0
  143.1858   75.2252  221.2495 H   0  0  0  0  0  0  0  0  0  0  0  0
  142.9436   74.9310  219.5288 H   0  0  0  0  0  0  0  0  0  0  0  0
  137.4470   74.6740  221.3410 H   0  0  0  0  0  0  0  0  0  0  0  0
  137.5548   77.0064  221.7570 H   0  0  0  0  0  0  0  0  0  0  0  0
  138.3702   76.5619  223.2668 H   0  0  0  0  0  0  0  0  0  0  0  0
  139.9963   76.3619  220.7526 H   0  0  0  0  0  0  0  0  0  0  0  0
  139.5169   78.0381  221.3366 H   0  0  0  0  0  0  0  0  0  0  0  0
  140.4857   76.7492  223.5695 H   0  0  0  0  0  0  0  0  0  0  0  0
  141.6074   76.2840  222.2474 H   0  0  0  0  0  0  0  0  0  0  0  0
  141.3451   78.7776  220.4731 H   0  0  0  0  0  0  0  0  0  0  0  0
  142.3842   81.0258  220.7274 H   0  0  0  0  0  0  0  0  0  0  0  0
  143.0532   81.8920  222.9314 H   0  0  0  0  0  0  0  0  0  0  0  0
  142.6957   80.4962  224.9671 H   0  0  0  0  0  0  0  0  0  0  0  0
  141.6624   78.2594  224.7124 H   0  0  0  0  0  0  0  0  0  0  0  0
  139.0371   69.7186  222.1187 H   0  0  0  0  0  0  0  0  0  0  0  0
  140.4752   69.1385  222.9722 H   0  0  0  0  0  0  0  0  0  0  0  0
  137.6817   69.4176  224.3041 H   0  0  0  0  0  0  0  0  0  0  0  0
  138.2456   67.8951  223.6527 H   0  0  0  0  0  0  0  0  0  0  0  0
  139.3386   66.5308  225.3835 H   0  0  0  0  0  0  0  0  0  0  0  0
  140.8304   66.4466  227.3906 H   0  0  0  0  0  0  0  0  0  0  0  0
  141.7178   68.5388  228.3394 H   0  0  0  0  0  0  0  0  0  0  0  0
  141.1696   70.7585  227.3418 H   0  0  0  0  0  0  0  0  0  0  0  0
  138.4812   71.3535  225.3677 H   0  0  0  0  0  0  0  0  0  0  0  0
  140.1658   71.9671  225.4503 H   0  0  0  0  0  0  0  0  0  0  0  0
  144.0245   71.6734  221.3243 H   0  0  0  0  0  0  0  0  0  0  0  0
  142.5962   71.2275  220.2693 H   0  0  0  0  0  0  0  0  0  0  0  0
  144.9957   71.1961  219.3112 H   0  0  0  0  0  0  0  0  0  0  0  0
  143.5886   71.8906  218.3778 H   0  0  0  0  0  0  0  0  0  0  0  0
  1  2  1  0
  2  3  1  0
  3  4  1  0
  4  5  1  0
  5  6  1  0
  6  7  2  0
  7  8  1  0
  8  9  1  0
  9 10  1  0
 10 11  1  0
 11 12  1  0
 12 13  1  0
 13 14  2  0
 14 15  1  0
 15 16  2  0
 16 17  1  0
 17 18  2  0
  8 19  2  0
 19 20  1  0
 20 21  1  0
 21 22  1  0
 22 23  1  0
 23 24  1  0
 24 25  2  0
 25 26  1  0
 26 27  2  0
 27 28  1  0
 28 29  2  0
 29 30  1  0
 20 31  2  0
  5 32  1  0
 32 33  1  0
 33  2  1  0
 31  6  1  0
 18 13  1  0
 30 21  1  0
 29 24  1  0
  1 34  1  0
  2 35  1  0
  3 36  1  0
  3 37  1  0
  4 38  1  0
  4 39  1  0
  9 40  1  0
 10 41  1  0
 10 42  1  0
 11 43  1  0
 11 44  1  0
 12 45  1  0
 12 46  1  0
 14 47  1  0
 15 48  1  0
 16 49  1  0
 17 50  1  0
 18 51  1  0
 22 52  1  0
 22 53  1  0
 23 54  1  0
 23 55  1  0
 25 56  1  0
 26 57  1  0
 27 58  1  0
 28 59  1  0
 30 60  1  0
 30 61  1  0
 32 62  1  0
 32 63  1  0
 33 64  1  0
 33 65  1  0
M  END
>  <smiles>  (47) 
OC1CCN(c2nc(NCCCc3ccccc3)nc(N3CCc4ccccc4C3)n2)CC1

>  <score_type>  (47) 
oracle

>  <origin>  (47) 
autodockgpu

>  <m_score__min__energy>  (47) 
-10.68

>  <m_primary>  (47) 
energy

>  <rmsd>  (47) 
11.526924752887792

>  <m_score__min__rmsd>  (47) 
11.526924752887792

>  <meeko>  (47) 
{"free_energy": -10.09, "intermolecular_energy": -12.48, "internal_energy": -1.16, "cluster_size": 50, "cluster_id": 1, "rank_in_cluster": 27}

>  <energy>  (47) 
-9.68

>  <cluster_rmsd>  (47) 
1.41

>  <cluster>  (47) 
1

$$$$

     RDKit          3D

 65 69  0  0  0  0  0  0  0  0999 V2000
  146.3180   71.2580  219.2370 O   0  0  0  0  0  0  0  0  0  0  0  0
  145.1500   71.9910  219.4340 C   0  0  0  0  0  0  0  0  0  0  0  0
  145.3250   73.0260  220.5280 C   0  0  0  0  0  0  0  0  0  0  0  0
  144.0550   73.8950  220.4690 C   0  0  0  0  0  0  0  0  0  0  0  0
  142.9730   73.0020  220.8940 N   0  0  0  0  0  0  0  0  0  0  0  0
  141.7650   73.5520  221.3960 C   0  0  0  0  0  0  0  0  0  0  0  0
  140.6960   72.8000  221.7620 N   0  0  0  0  0  0  0  0  0  0  0  0
  139.5620   73.3450  222.2100 C   0  0  0  0  0  0  0  0  0  0  0  0
  138.4340   72.6240  222.6630 N   0  0  0  0  0  0  0  0  0  0  0  0
  138.1050   71.2590  222.3340 C   0  0  0  0  0  0  0  0  0  0  0  0
  138.4990   70.4260  223.5390 C   0  0  0  0  0  0  0  0  0  0  0  0
  139.9560   70.3850  223.8230 C   0  0  0  0  0  0  0  0  0  0  0  0
  140.1770   70.5510  225.2880 C   0  0  0  0  0  0  0  0  0  0  0  0
  139.7200   69.6650  226.2340 C   0  0  0  0  0  0  0  0  0  0  0  0
  139.9790   69.9410  227.5760 C   0  0  0  0  0  0  0  0  0  0  0  0
  140.6720   71.0590  227.9770 C   0  0  0  0  0  0  0  0  0  0  0  0
  141.1300   71.9470  227.0320 C   0  0  0  0  0  0  0  0  0  0  0  0
  140.8710   71.6710  225.7000 C   0  0  0  0  0  0  0  0  0  0  0  0
  139.4590   74.7050  222.3080 N   0  0  0  0  0  0  0  0  0  0  0  0
  140.4960   75.4760  221.9540 C   0  0  0  0  0  0  0  0  0  0  0  0
  140.3780   76.8860  222.0500 N   0  0  0  0  0  0  0  0  0  0  0  0
  139.2210   77.4490  222.7290 C   0  0  0  0  0  0  0  0  0  0  0  0
  139.0370   78.8600  222.1440 C   0  0  0  0  0  0  0  0  0  0  0  0
  140.2550   79.5960  222.6530 C   0  0  0  0  0  0  0  0  0  0  0  0
  140.1520   80.7520  223.3880 C   0  0  0  0  0  0  0  0  0  0  0  0
  141.3230   81.3290  223.8240 C   0  0  0  0  0  0  0  0  0  0  0  0
  142.5310   80.7420  223.5140 C   0  0  0  0  0  0  0  0  0  0  0  0
  142.6170   79.5660  222.7650 C   0  0  0  0  0  0  0  0  0  0  0  0
  141.4630   78.9990  222.3360 C   0  0  0  0  0  0  0  0  0  0  0  0
  141.3900   77.7450  221.5130 C   0  0  0  0  0  0  0  0  0  0  0  0
  141.6400   74.9000  221.5030 N   0  0  0  0  0  0  0  0  0  0  0  0
  143.0950   71.5730  220.8130 C   0  0  0  0  0  0  0  0  0  0  0  0
  143.9590   71.1000  219.6900 C   0  0  0  0  0  0  0  0  0  0  0  0
  146.7020   71.0580  220.1260 H   0  0  0  0  0  0  0  0  0  0  0  0
  144.9444   72.5323  218.4987 H   0  0  0  0  0  0  0  0  0  0  0  0
  145.4132   72.5381  221.5099 H   0  0  0  0  0  0  0  0  0  0  0  0
  146.2382   73.6227  220.3870 H   0  0  0  0  0  0  0  0  0  0  0  0
  144.1402   74.7534  221.1516 H   0  0  0  0  0  0  0  0  0  0  0  0
  143.8815   74.3108  219.4655 H   0  0  0  0  0  0  0  0  0  0  0  0
  137.7920   73.1880  223.3120 H   0  0  0  0  0  0  0  0  0  0  0  0
  137.0265   71.1629  222.1403 H   0  0  0  0  0  0  0  0  0  0  0  0
  138.6325   70.9270  221.4276 H   0  0  0  0  0  0  0  0  0  0  0  0
  137.9906   70.8409  224.4218 H   0  0  0  0  0  0  0  0  0  0  0  0
  138.2008   69.3923  223.3096 H   0  0  0  0  0  0  0  0  0  0  0  0
  140.3670   69.4183  223.4966 H   0  0  0  0  0  0  0  0  0  0  0  0
  140.4604   71.1976  223.2797 H   0  0  0  0  0  0  0  0  0  0  0  0
  139.1646   68.7621  225.9403 H   0  0  0  0  0  0  0  0  0  0  0  0
  139.6160   69.2393  228.3414 H   0  0  0  0  0  0  0  0  0  0  0  0
  140.8586   71.2417  229.0456 H   0  0  0  0  0  0  0  0  0  0  0  0
  141.6857   72.8498  227.3256 H   0  0  0  0  0  0  0  0  0  0  0  0
  141.2341   72.3750  224.9368 H   0  0  0  0  0  0  0  0  0  0  0  0
  138.3283   76.8355  222.5373 H   0  0  0  0  0  0  0  0  0  0  0  0
  139.3660   77.4784  223.8190 H   0  0  0  0  0  0  0  0  0  0  0  0
  139.0209   78.8339  221.0444 H   0  0  0  0  0  0  0  0  0  0  0  0
  138.0884   79.3328  222.4383 H   0  0  0  0  0  0  0  0  0  0  0  0
  139.1734   81.1983  223.6187 H   0  0  0  0  0  0  0  0  0  0  0  0
  141.2950   82.2548  224.4174 H   0  0  0  0  0  0  0  0  0  0  0  0
  143.4585   81.2155  223.8683 H   0  0  0  0  0  0  0  0  0  0  0  0
  143.5919   79.1137  222.5304 H   0  0  0  0  0  0  0  0  0  0  0  0
  141.1403   78.0018  220.4730 H   0  0  0  0  0  0  0  0  0  0  0  0
  142.3619   77.2304  221.5376 H   0  0  0  0  0  0  0  0  0  0  0  0
  143.5250   71.2084  221.7576 H   0  0  0  0  0  0  0  0  0  0  0  0
  142.0857   71.1773  220.6267 H   0  0  0  0  0  0  0  0  0  0  0  0
  144.3240   70.0909  219.9320 H   0  0  0  0  0  0  0  0  0  0  0  0
  143.3428   71.1117  218.7789 H   0  0  0  0  0  0  0  0  0  0  0  0
  1  2  1  0
  2  3  1  0
  3  4  1  0
  4  5  1  0
  5  6  1  0
  6  7  2  0
  7  8  1  0
  8  9  1  0
  9 10  1  0
 10 11  1  0
 11 12  1  0
 12 13  1  0
 13 14  2  0
 14 15  1  0
 15 16  2  0
 16 17  1  0
 17 18  2  0
  8 19  2  0
 19 20  1  0
 20 21  1  0
 21 22  1  0
 22 23  1  0
 23 24  1  0
 24 25  2  0
 25 26  1  0
 26 27  2  0
 27 28  1  0
 28 29  2  0
 29 30  1  0
 20 31  2  0
  5 32  1  0
 32 33  1  0
 33  2  1  0
 31  6  1  0
 18 13  1  0
 30 21  1  0
 29 24  1  0
  1 34  1  0
  2 35  1  0
  3 36  1  0
  3 37  1  0
  4 38  1  0
  4 39  1  0
  9 40  1  0
 10 41  1  0
 10 42  1  0
 11 43  1  0
 11 44  1  0
 12 45  1  0
 12 46  1  0
 14 47  1  0
 15 48  1  0
 16 49  1  0
 17 50  1  0
 18 51  1  0
 22 52  1  0
 22 53  1  0
 23 54  1  0
 23 55  1  0
 25 56  1  0
 26 57  1  0
 27 58  1  0
 28 59  1  0
 30 60  1  0
 30 61  1  0
 32 62  1  0
 32 63  1  0
 33 64  1  0
 33 65  1  0
M  END
>  <smiles>  (48) 
OC1CCN(c2nc(NCCCc3ccccc3)nc(N3CCc4ccccc4C3)n2)CC1

>  <score_type>  (48) 
oracle

>  <origin>  (48) 
autodockgpu

>  <m_score__min__energy>  (48) 
-10.68

>  <m_primary>  (48) 
energy

>  <rmsd>  (48) 
5.408532025511113

>  <m_score__min__rmsd>  (48) 
5.408532025511113

>  <meeko>  (48) 
{"free_energy": -10.4, "intermolecular_energy": -12.79, "internal_energy": -1.31, "cluster_size": 50, "cluster_id": 1, "rank_in_cluster": 7}

>  <energy>  (48) 
-9.62

>  <cluster_rmsd>  (48) 
0.62

>  <cluster>  (48) 
1

$$$$

     RDKit          3D

 65 69  0  0  0  0  0  0  0  0999 V2000
  146.3220   73.0470  218.5140 O   0  0  0  0  0  0  0  0  0  0  0  0
  145.0530   73.4040  218.9640 C   0  0  0  0  0  0  0  0  0  0  0  0
  145.0630   73.7360  220.4430 C   0  0  0  0  0  0  0  0  0  0  0  0
  143.6710   74.3260  220.7340 C   0  0  0  0  0  0  0  0  0  0  0  0
  142.7450   73.2030  220.5530 N   0  0  0  0  0  0  0  0  0  0  0  0
  141.4660   73.2420  221.1650 C   0  0  0  0  0  0  0  0  0  0  0  0
  140.5350   74.1910  220.8940 N   0  0  0  0  0  0  0  0  0  0  0  0
  139.3460   74.2170  221.5020 C   0  0  0  0  0  0  0  0  0  0  0  0
  138.3090   75.1380  221.2270 N   0  0  0  0  0  0  0  0  0  0  0  0
  138.1540   76.4480  221.8120 C   0  0  0  0  0  0  0  0  0  0  0  0
  139.4120   77.2190  221.4620 C   0  0  0  0  0  0  0  0  0  0  0  0
  140.5420   77.0390  222.4090 C   0  0  0  0  0  0  0  0  0  0  0  0
  141.2340   78.3450  222.6050 C   0  0  0  0  0  0  0  0  0  0  0  0
  141.8370   78.7210  223.7820 C   0  0  0  0  0  0  0  0  0  0  0  0
  142.4390   79.9770  223.8440 C   0  0  0  0  0  0  0  0  0  0  0  0
  142.4480   80.8410  222.7740 C   0  0  0  0  0  0  0  0  0  0  0  0
  141.8450   80.4680  221.5960 C   0  0  0  0  0  0  0  0  0  0  0  0
  141.2480   79.2200  221.5370 C   0  0  0  0  0  0  0  0  0  0  0  0
  139.0420   73.2620  222.4320 N   0  0  0  0  0  0  0  0  0  0  0  0
  139.9390   72.3100  222.7230 C   0  0  0  0  0  0  0  0  0  0  0  0
  139.6200   71.3290  223.6950 N   0  0  0  0  0  0  0  0  0  0  0  0
  138.7300   70.2390  223.3260 C   0  0  0  0  0  0  0  0  0  0  0  0
  138.0900   69.7570  224.6400 C   0  0  0  0  0  0  0  0  0  0  0  0
  139.2600   69.1480  225.3790 C   0  0  0  0  0  0  0  0  0  0  0  0
  139.2420   67.8470  225.8220 C   0  0  0  0  0  0  0  0  0  0  0  0
  140.3700   67.3830  226.4620 C   0  0  0  0  0  0  0  0  0  0  0  0
  141.4510   68.2210  226.6340 C   0  0  0  0  0  0  0  0  0  0  0  0
  141.4510   69.5410  226.1770 C   0  0  0  0  0  0  0  0  0  0  0  0
  140.3400   69.9960  225.5470 C   0  0  0  0  0  0  0  0  0  0  0  0
  140.1820   71.3900  225.0110 C   0  0  0  0  0  0  0  0  0  0  0  0
  141.1400   72.3020  222.0910 N   0  0  0  0  0  0  0  0  0  0  0  0
  143.0930   72.0550  219.7630 C   0  0  0  0  0  0  0  0  0  0  0  0
  144.0190   72.3560  218.6300 C   0  0  0  0  0  0  0  0  0  0  0  0
  146.7920   73.8770  218.2510 H   0  0  0  0  0  0  0  0  0  0  0  0
  144.7623   74.3178  218.4251 H   0  0  0  0  0  0  0  0  0  0  0  0
  145.2297   72.8279  221.0410 H   0  0  0  0  0  0  0  0  0  0  0  0
  145.8693   74.4384  220.7011 H   0  0  0  0  0  0  0  0  0  0  0  0
  143.6196   74.7089  221.7639 H   0  0  0  0  0  0  0  0  0  0  0  0
  143.4319   75.1730  220.0741 H   0  0  0  0  0  0  0  0  0  0  0  0
  137.5960   74.7850  220.5080 H   0  0  0  0  0  0  0  0  0  0  0  0
  137.2698   76.9505  221.3930 H   0  0  0  0  0  0  0  0  0  0  0  0
  138.0115   76.3864  222.9010 H   0  0  0  0  0  0  0  0  0  0  0  0
  139.7461   76.8929  220.4660 H   0  0  0  0  0  0  0  0  0  0  0  0
  139.1417   78.2844  221.5047 H   0  0  0  0  0  0  0  0  0  0  0  0
  140.1582   76.6781  223.3746 H   0  0  0  0  0  0  0  0  0  0  0  0
  141.2513   76.3040  222.0006 H   0  0  0  0  0  0  0  0  0  0  0  0
  141.8443   78.0482  224.6523 H   0  0  0  0  0  0  0  0  0  0  0  0
  142.9236   80.2877  224.7813 H   0  0  0  0  0  0  0  0  0  0  0  0
  142.9344   81.8239  222.8601 H   0  0  0  0  0  0  0  0  0  0  0  0
  141.8371   81.1412  220.7260 H   0  0  0  0  0  0  0  0  0  0  0  0
  140.7638   78.9123  220.5984 H   0  0  0  0  0  0  0  0  0  0  0  0
  137.9555   70.5955  222.6309 H   0  0  0  0  0  0  0  0  0  0  0  0
  139.2724   69.4277  222.8184 H   0  0  0  0  0  0  0  0  0  0  0  0
  137.6602   70.5984  225.2033 H   0  0  0  0  0  0  0  0  0  0  0  0
  137.2581   69.0538  224.4868 H   0  0  0  0  0  0  0  0  0  0  0  0
  138.3631   67.2029  225.6716 H   0  0  0  0  0  0  0  0  0  0  0  0
  140.4081   66.3486  226.8341 H   0  0  0  0  0  0  0  0  0  0  0  0
  142.3441   67.8371  227.1487 H   0  0  0  0  0  0  0  0  0  0  0  0
  142.3258   70.1915  226.3238 H   0  0  0  0  0  0  0  0  0  0  0  0
  139.5137   71.9637  225.6700 H   0  0  0  0  0  0  0  0  0  0  0  0
  141.1644   71.8832  224.9702 H   0  0  0  0  0  0  0  0  0  0  0  0
  143.5777   71.3173  220.4194 H   0  0  0  0  0  0  0  0  0  0  0  0
  142.1593   71.6783  219.3199 H   0  0  0  0  0  0  0  0  0  0  0  0
  144.5401   71.4287  218.3496 H   0  0  0  0  0  0  0  0  0  0  0  0
  143.4071   72.7538  217.8070 H   0  0  0  0  0  0  0  0  0  0  0  0
  1  2  1  0
  2  3  1  0
  3  4  1  0
  4  5  1  0
  5  6  1  0
  6  7  2  0
  7  8  1  0
  8  9  1  0
  9 10  1  0
 10 11  1  0
 11 12  1  0
 12 13  1  0
 13 14  2  0
 14 15  1  0
 15 16  2  0
 16 17  1  0
 17 18  2  0
  8 19  2  0
 19 20  1  0
 20 21  1  0
 21 22  1  0
 22 23  1  0
 23 24  1  0
 24 25  2  0
 25 26  1  0
 26 27  2  0
 27 28  1  0
 28 29  2  0
 29 30  1  0
 20 31  2  0
  5 32  1  0
 32 33  1  0
 33  2  1  0
 31  6  1  0
 18 13  1  0
 30 21  1  0
 29 24  1  0
  1 34  1  0
  2 35  1  0
  3 36  1  0
  3 37  1  0
  4 38  1  0
  4 39  1  0
  9 40  1  0
 10 41  1  0
 10 42  1  0
 11 43  1  0
 11 44  1  0
 12 45  1  0
 12 46  1  0
 14 47  1  0
 15 48  1  0
 16 49  1  0
 17 50  1  0
 18 51  1  0
 22 52  1  0
 22 53  1  0
 23 54  1  0
 23 55  1  0
 25 56  1  0
 26 57  1  0
 27 58  1  0
 28 59  1  0
 30 60  1  0
 30 61  1  0
 32 62  1  0
 32 63  1  0
 33 64  1  0
 33 65  1  0
M  END
>  <smiles>  (49) 
OC1CCN(c2nc(NCCCc3ccccc3)nc(N3CCc4ccccc4C3)n2)CC1

>  <score_type>  (49) 
oracle

>  <origin>  (49) 
autodockgpu

>  <m_score__min__energy>  (49) 
-10.68

>  <m_primary>  (49) 
energy

>  <rmsd>  (49) 
11.302591693325605

>  <m_score__min__rmsd>  (49) 
11.302591693325605

>  <meeko>  (49) 
{"free_energy": -9.76, "intermolecular_energy": -12.15, "internal_energy": -1.17, "cluster_size": 50, "cluster_id": 1, "rank_in_cluster": 43}

>  <energy>  (49) 
-9.6

>  <cluster_rmsd>  (49) 
1.61

>  <cluster>  (49) 
1

$$$$

     RDKit          3D

 65 69  0  0  0  0  0  0  0  0999 V2000
  146.2590   71.3420  219.0830 O   0  0  0  0  0  0  0  0  0  0  0  0
  145.0910   72.0650  219.3210 C   0  0  0  0  0  0  0  0  0  0  0  0
  145.2760   73.0580  220.4520 C   0  0  0  0  0  0  0  0  0  0  0  0
  144.0040   73.9250  220.4390 C   0  0  0  0  0  0  0  0  0  0  0  0
  142.9280   73.0140  220.8420 N   0  0  0  0  0  0  0  0  0  0  0  0
  141.7250   73.5410  221.3760 C   0  0  0  0  0  0  0  0  0  0  0  0
  140.6820   72.7690  221.7760 N   0  0  0  0  0  0  0  0  0  0  0  0
  139.5510   73.2930  222.2550 C   0  0  0  0  0  0  0  0  0  0  0  0
  138.4500   72.5510  222.7420 N   0  0  0  0  0  0  0  0  0  0  0  0
  138.1560   71.1690  222.4500 C   0  0  0  0  0  0  0  0  0  0  0  0
  138.2580   70.4260  223.7680 C   0  0  0  0  0  0  0  0  0  0  0  0
  139.6180   69.9320  224.1050 C   0  0  0  0  0  0  0  0  0  0  0  0
  139.9720   70.3680  225.4850 C   0  0  0  0  0  0  0  0  0  0  0  0
  139.5800   69.7000  226.6210 C   0  0  0  0  0  0  0  0  0  0  0  0
  139.9640   70.2190  227.8570 C   0  0  0  0  0  0  0  0  0  0  0  0
  140.7160   71.3640  227.9720 C   0  0  0  0  0  0  0  0  0  0  0  0
  141.1090   72.0340  226.8370 C   0  0  0  0  0  0  0  0  0  0  0  0
  140.7260   71.5170  225.6110 C   0  0  0  0  0  0  0  0  0  0  0  0
  139.4230   74.6500  222.3520 N   0  0  0  0  0  0  0  0  0  0  0  0
  140.4340   75.4420  221.9660 C   0  0  0  0  0  0  0  0  0  0  0  0
  140.2900   76.8480  222.0620 N   0  0  0  0  0  0  0  0  0  0  0  0
  139.1190   77.3910  222.7330 C   0  0  0  0  0  0  0  0  0  0  0  0
  138.9140   78.7990  222.1470 C   0  0  0  0  0  0  0  0  0  0  0  0
  140.1160   79.5550  222.6650 C   0  0  0  0  0  0  0  0  0  0  0  0
  139.9870   80.7100  223.4000 C   0  0  0  0  0  0  0  0  0  0  0  0
  141.1440   81.3070  223.8450 C   0  0  0  0  0  0  0  0  0  0  0  0
  142.3650   80.7410  223.5430 C   0  0  0  0  0  0  0  0  0  0  0  0
  142.4770   79.5670  222.7940 C   0  0  0  0  0  0  0  0  0  0  0  0
  141.3360   78.9800  222.3570 C   0  0  0  0  0  0  0  0  0  0  0  0
  141.2910   77.7260  221.5330 C   0  0  0  0  0  0  0  0  0  0  0  0
  141.5750   74.8870  221.4840 N   0  0  0  0  0  0  0  0  0  0  0  0
  143.0520   71.5890  220.7050 C   0  0  0  0  0  0  0  0  0  0  0  0
  143.9050   71.1620  219.5550 C   0  0  0  0  0  0  0  0  0  0  0  0
  146.4150   70.7580  219.8650 H   0  0  0  0  0  0  0  0  0  0  0  0
  144.8741   72.6418  218.4098 H   0  0  0  0  0  0  0  0  0  0  0  0
  145.3756   72.5334  221.4137 H   0  0  0  0  0  0  0  0  0  0  0  0
  146.1867   73.6617  220.3246 H   0  0  0  0  0  0  0  0  0  0  0  0
  144.0948   74.7575  221.1522 H   0  0  0  0  0  0  0  0  0  0  0  0
  143.8189   74.3773  219.4535 H   0  0  0  0  0  0  0  0  0  0  0  0
  137.8020   73.1110  223.3890 H   0  0  0  0  0  0  0  0  0  0  0  0
  137.1410   71.0744  222.0367 H   0  0  0  0  0  0  0  0  0  0  0  0
  138.8540   70.7600  221.7047 H   0  0  0  0  0  0  0  0  0  0  0  0
  137.9333   71.1060  224.5694 H   0  0  0  0  0  0  0  0  0  0  0  0
  137.6220   69.5340  223.6689 H   0  0  0  0  0  0  0  0  0  0  0  0
  139.6337   68.8334  224.0513 H   0  0  0  0  0  0  0  0  0  0  0  0
  140.3468   70.3423  223.3905 H   0  0  0  0  0  0  0  0  0  0  0  0
  138.9795   68.7806  226.5566 H   0  0  0  0  0  0  0  0  0  0  0  0
  139.6542   69.6936  228.7724 H   0  0  0  0  0  0  0  0  0  0  0  0
  141.0014   71.7417  228.9649 H   0  0  0  0  0  0  0  0  0  0  0  0
  141.7097   72.9532  226.9013 H   0  0  0  0  0  0  0  0  0  0  0  0
  141.0363   72.0452  224.6974 H   0  0  0  0  0  0  0  0  0  0  0  0
  138.2384   76.7621  222.5353 H   0  0  0  0  0  0  0  0  0  0  0  0
  139.2565   77.4230  223.8239 H   0  0  0  0  0  0  0  0  0  0  0  0
  138.9057   78.7732  221.0473 H   0  0  0  0  0  0  0  0  0  0  0  0
  137.9553   79.2552  222.4345 H   0  0  0  0  0  0  0  0  0  0  0  0
  138.9991   81.1392  223.6231 H   0  0  0  0  0  0  0  0  0  0  0  0
  141.0954   82.2316  224.4390 H   0  0  0  0  0  0  0  0  0  0  0  0
  143.2815   81.2305  223.9041 H   0  0  0  0  0  0  0  0  0  0  0  0
  143.4613   79.1322  222.5658 H   0  0  0  0  0  0  0  0  0  0  0  0
  141.0444   77.9793  220.4914 H   0  0  0  0  0  0  0  0  0  0  0  0
  142.2716   77.2287  221.5647 H   0  0  0  0  0  0  0  0  0  0  0  0
  143.4930   71.1894  221.6301 H   0  0  0  0  0  0  0  0  0  0  0  0
  142.0416   71.1980  220.5148 H   0  0  0  0  0  0  0  0  0  0  0  0
  144.2747   70.1452  219.7537 H   0  0  0  0  0  0  0  0  0  0  0  0
  143.2789   71.2076  218.6517 H   0  0  0  0  0  0  0  0  0  0  0  0
  1  2  1  0
  2  3  1  0
  3  4  1  0
  4  5  1  0
  5  6  1  0
  6  7  2  0
  7  8  1  0
  8  9  1  0
  9 10  1  0
 10 11  1  0
 11 12  1  0
 12 13  1  0
 13 14  2  0
 14 15  1  0
 15 16  2  0
 16 17  1  0
 17 18  2  0
  8 19  2  0
 19 20  1  0
 20 21  1  0
 21 22  1  0
 22 23  1  0
 23 24  1  0
 24 25  2  0
 25 26  1  0
 26 27  2  0
 27 28  1  0
 28 29  2  0
 29 30  1  0
 20 31  2  0
  5 32  1  0
 32 33  1  0
 33  2  1  0
 31  6  1  0
 18 13  1  0
 30 21  1  0
 29 24  1  0
  1 34  1  0
  2 35  1  0
  3 36  1  0
  3 37  1  0
  4 38  1  0
  4 39  1  0
  9 40  1  0
 10 41  1  0
 10 42  1  0
 11 43  1  0
 11 44  1  0
 12 45  1  0
 12 46  1  0
 14 47  1  0
 15 48  1  0
 16 49  1  0
 17 50  1  0
 18 51  1  0
 22 52  1  0
 22 53  1  0
 23 54  1  0
 23 55  1  0
 25 56  1  0
 26 57  1  0
 27 58  1  0
 28 59  1  0
 30 60  1  0
 30 61  1  0
 32 62  1  0
 32 63  1  0
 33 64  1  0
 33 65  1  0
M  END
>  <smiles>  (50) 
OC1CCN(c2nc(NCCCc3ccccc3)nc(N3CCc4ccccc4C3)n2)CC1

>  <score_type>  (50) 
oracle

>  <origin>  (50) 
autodockgpu

>  <m_score__min__energy>  (50) 
-10.68

>  <m_primary>  (50) 
energy

>  <rmsd>  (50) 
5.390851899064149

>  <m_score__min__rmsd>  (50) 
5.390851899064149

>  <meeko>  (50) 
{"free_energy": -10.3, "intermolecular_energy": -12.69, "internal_energy": -1.26, "cluster_size": 50, "cluster_id": 1, "rank_in_cluster": 12}

>  <energy>  (50) 
-9.49

>  <cluster_rmsd>  (50) 
1.17

>  <cluster>  (50) 
1

$$$$
